0
                    3D
 Structure written by MMmdl.
163172  0  0  1  0            999 V2000
  -30.7064  -14.4538   20.6058 C   0  0  0  0  0  0
  -30.4229  -12.3080   19.4195 C   0  0  0  0  0  0
  -29.4906  -12.5126   18.2076 C   0  0  0  0  0  0
  -28.0151  -12.3589   18.6235 C   0  0  0  0  0  0
  -27.6612  -13.2003   19.8789 C   0  0  2  0  0  0
  -28.7005  -12.9717   21.0002 C   0  0  0  0  0  0
  -25.2573  -13.8148   20.5678 C   0  0  0  0  0  0
  -24.1808  -13.0435   20.9155 C   0  0  0  0  0  0
  -24.6351  -11.6902   20.8706 C   0  0  0  0  0  0
  -23.9023  -10.4293   21.0397 C   0  0  0  0  0  0
  -24.3589   -9.4219   21.9176 C   0  0  0  0  0  0
  -23.6285   -8.2244   22.0750 C   0  0  0  0  0  0
  -22.4269   -8.0259   21.3538 C   0  0  0  0  0  0
  -21.9890   -9.0229   20.4644 C   0  0  0  0  0  0
  -22.7199  -10.2120   20.3052 C   0  0  0  0  0  0
  -21.6855   -6.0719   22.5275 C   0  0  0  0  0  0
  -21.4013   -6.5630   23.8204 C   0  0  0  0  0  0
  -21.3661   -5.6788   24.9168 C   0  0  0  0  0  0
  -21.6047   -4.3050   24.7229 C   0  0  0  0  0  0
  -21.8822   -3.8137   23.4352 C   0  0  0  0  0  0
  -21.9200   -4.6950   22.3407 C   0  0  0  0  0  0
  -22.7836  -13.5234   21.1845 C   0  0  0  0  0  0
  -22.1664   -4.2130   21.0986 F   0  0  0  0  0  0
  -21.5641   -3.4539   25.7747 F   0  0  0  0  0  0
  -30.0365  -13.2789   20.4552 N   0  0  0  0  0  0
  -26.3001  -12.9306   20.3378 N   0  0  0  0  0  0
  -25.9274  -11.6469   20.5742 N   0  0  0  0  0  0
  -22.0500  -12.8212   22.0410 N   0  0  0  0  0  0
  -25.4320  -15.1867   20.4116 N   0  0  0  0  0  0
  -31.8125  -14.6697   20.1029 O   0  0  0  0  0  0
  -21.6644   -6.8851   21.4229 O   0  0  0  0  0  0
  -22.3520  -14.5552   20.6721 O   0  0  0  0  0  0
  -24.6135  -31.8680   23.2098 C   0  0  0  0  0  0
  -25.9033  -32.4815   23.8395 C   0  0  1  0  0  0
  -27.2438  -27.4397   20.1105 C   0  0  0  0  0  0
  -25.5893  -33.8617   24.2323 N   0  0  0  0  0  0
  -23.4037  -30.4896   21.5471 C   0  0  2  0  0  0
  -24.8573  -28.9541   20.1157 C   0  0  0  0  0  0
  -22.7417  -29.4654   22.4972 C   0  0  0  0  0  0
  -18.0278  -28.1394   22.8486 C   0  0  0  0  0  0
  -24.1494  -36.7317   23.2637 C   0  0  0  0  0  0
  -25.9308  -30.8357   21.3644 C   0  0  0  0  0  0
  -26.0128  -29.4677   20.7197 C   0  0  0  0  0  0
  -27.2100  -28.7144   20.7217 C   0  0  0  0  0  0
  -26.0783  -26.9409   19.4962 C   0  0  0  0  0  0
  -24.8845  -27.6888   19.5022 C   0  0  0  0  0  0
  -23.6164  -29.8189   20.1617 C   0  0  0  0  0  0
  -25.4113  -36.3101   24.0329 C   0  0  1  0  0  0
  -20.5868  -28.3676   23.1322 C   0  0  2  0  0  0
  -20.6768  -26.9414   22.5421 C   0  0  0  0  0  0
  -19.5746  -26.6392   21.5222 C   0  0  0  0  0  0
  -18.1928  -26.7936   22.1631 C   0  0  0  0  0  0
  -19.1525  -28.8855   23.2900 C   0  0  0  0  0  0
  -18.9446  -30.1460   23.8909 C   0  0  0  0  0  0
  -17.6447  -30.6591   24.0575 C   0  0  0  0  0  0
  -25.9033  -34.9469   23.5123 C   0  0  0  0  0  0
  -16.5342  -29.9096   23.6322 C   0  0  0  0  0  0
  -16.7269  -28.6522   23.0332 C   0  0  0  0  0  0
  -26.4476  -31.6582   25.0714 C   0  0  0  0  0  0
  -25.3743  -31.3681   26.1453 C   0  0  0  0  0  0
  -27.0300  -30.3021   24.6083 C   0  0  0  0  0  0
  -27.6063  -32.4298   25.7475 C   0  0  0  0  0  0
  -27.5577  -37.1815   24.8460 C   0  0  0  0  0  0
  -21.4144  -29.3035   22.3719 N   0  0  0  0  0  0
  -26.4296  -37.3783   23.9395 N   0  0  0  0  0  0
  -24.6668  -31.0791   22.0995 N   0  0  0  0  0  0
  -23.4194  -28.8193   23.3010 O   0  0  0  0  0  0
  -28.3897  -26.6754   20.0872 O   0  0  0  0  0  0
  -26.5598  -34.8919   22.4685 O   0  0  0  0  0  0
  -23.5329  -32.1430   23.7498 O   0  0  0  0  0  0
  -28.4284  -17.9978   18.1663 C   0  0  0  0  0  0
  -28.5052  -19.3966   18.2435 C   0  0  0  0  0  0
  -29.0384  -17.2044   19.1508 C   0  0  0  0  0  0
  -29.1900  -20.0152   19.3142 C   0  0  0  0  0  0
  -29.7528  -19.2155   20.3456 C   0  0  0  0  0  0
  -29.7030  -17.7851   20.2589 C   0  0  0  0  0  0
  -29.3253  -21.4894   19.3425 C   0  0  0  0  0  0
  -30.3817  -19.9535   21.5282 C   0  0  0  0  0  0
  -29.7615  -21.3647   21.7496 C   0  0  0  0  0  0
  -30.3640  -16.8607   21.3063 C   0  0  0  0  0  0
  -28.4630  -24.3812   21.1015 C   0  0  0  0  0  0
  -29.7288  -23.6431   20.5945 C   0  0  0  0  0  0
  -28.6299  -25.9160   21.2830 C   0  0  0  0  0  0
  -29.5708  -22.1546   20.4992 N   0  0  0  0  0  0
  -30.0144  -15.4290   21.2223 N   0  0  0  0  0  0
  -29.2451  -22.1788   18.2056 N   0  3  0  0  0  0
  -31.4668  -12.4105   19.1183 H   0  0  0  0  0  0
  -30.3262  -11.2928   19.8087 H   0  0  0  0  0  0
  -29.7338  -11.7984   17.4203 H   0  0  0  0  0  0
  -29.6499  -13.5052   17.7822 H   0  0  0  0  0  0
  -27.8325  -11.3022   18.8244 H   0  0  0  0  0  0
  -27.3599  -12.6245   17.7929 H   0  0  0  0  0  0
  -27.7066  -14.2479   19.5836 H   0  0  0  0  0  0
  -28.6733  -11.9318   21.3313 H   0  0  0  0  0  0
  -28.4512  -13.5602   21.8846 H   0  0  0  0  0  0
  -25.2732   -9.5710   22.4746 H   0  0  0  0  0  0
  -24.0009   -7.4639   22.7468 H   0  0  0  0  0  0
  -21.0824   -8.8723   19.8951 H   0  0  0  0  0  0
  -22.3637  -10.9643   19.6158 H   0  0  0  0  0  0
  -21.1986   -7.6137   23.9687 H   0  0  0  0  0  0
  -21.1487   -6.0530   25.9067 H   0  0  0  0  0  0
  -22.0602   -2.7598   23.2866 H   0  0  0  0  0  0
  -22.4134  -11.9856   22.4761 H   0  0  0  0  0  0
  -21.1113  -13.1209   22.2647 H   0  0  0  0  0  0
  -24.6671  -15.8432   20.5222 H   0  0  0  0  0  0
  -26.2909  -15.6288   20.1131 H   0  0  0  0  0  0
  -26.7116  -32.5546   23.1172 H   0  0  0  0  0  0
  -25.0038  -33.9785   25.0465 H   0  0  0  0  0  0
  -22.6906  -31.3046   21.4055 H   0  0  0  0  0  0
  -23.3737  -35.9667   23.3310 H   0  0  0  0  0  0
  -24.3587  -36.8926   22.2047 H   0  0  0  0  0  0
  -23.7273  -37.6537   23.6652 H   0  0  0  0  0  0
  -26.0404  -31.6010   20.5944 H   0  0  0  0  0  0
  -26.8185  -30.8944   21.9813 H   0  0  0  0  0  0
  -28.1015  -29.1059   21.1917 H   0  0  0  0  0  0
  -26.0930  -25.9712   19.0197 H   0  0  0  0  0  0
  -23.9981  -27.2908   19.0290 H   0  0  0  0  0  0
  -23.7216  -30.5914   19.3990 H   0  0  0  0  0  0
  -22.7440  -29.2332   19.8655 H   0  0  0  0  0  0
  -25.1298  -36.1962   25.0822 H   0  0  0  0  0  0
  -20.9969  -28.3246   24.1442 H   0  0  0  0  0  0
  -20.5686  -26.2290   23.3608 H   0  0  0  0  0  0
  -21.6641  -26.7462   22.1210 H   0  0  0  0  0  0
  -19.6905  -25.6307   21.1244 H   0  0  0  0  0  0
  -19.6683  -27.3212   20.6760 H   0  0  0  0  0  0
  -17.4199  -26.6684   21.4033 H   0  0  0  0  0  0
  -18.0326  -26.0087   22.9037 H   0  0  0  0  0  0
  -19.7919  -30.7280   24.2286 H   0  0  0  0  0  0
  -17.4996  -31.6268   24.5185 H   0  0  0  0  0  0
  -15.5343  -30.3004   23.7629 H   0  0  0  0  0  0
  -15.8670  -28.0850   22.7021 H   0  0  0  0  0  0
  -24.5926  -30.7028   25.7765 H   0  0  0  0  0  0
  -24.8926  -32.2835   26.4900 H   0  0  0  0  0  0
  -25.8086  -30.8837   27.0205 H   0  0  0  0  0  0
  -26.2839  -29.6791   24.1139 H   0  0  0  0  0  0
  -27.4067  -29.7246   25.4537 H   0  0  0  0  0  0
  -27.8677  -30.4326   23.9230 H   0  0  0  0  0  0
  -27.2690  -33.3584   26.2084 H   0  0  0  0  0  0
  -28.3851  -32.6876   25.0288 H   0  0  0  0  0  0
  -28.0753  -31.8404   26.5359 H   0  0  0  0  0  0
  -28.2607  -38.0102   24.7495 H   0  0  0  0  0  0
  -28.1066  -36.2638   24.6308 H   0  0  0  0  0  0
  -27.2294  -37.1484   25.8864 H   0  0  0  0  0  0
  -20.9319  -29.8751   21.6932 H   0  0  0  0  0  0
  -26.0181  -38.2861   24.1395 H   0  0  0  0  0  0
  -27.9112  -17.5281   17.3397 H   0  0  0  0  0  0
  -28.0388  -19.9834   17.4655 H   0  0  0  0  0  0
  -28.9839  -16.1349   19.0310 H   0  0  0  0  0  0
  -31.4568  -20.0368   21.3612 H   0  0  0  0  0  0
  -30.2574  -19.3819   22.4466 H   0  0  0  0  0  0
  -28.7771  -21.2380   22.2042 H   0  0  0  0  0  0
  -30.3548  -21.9221   22.4755 H   0  0  0  0  0  0
  -30.0720  -17.1862   22.3041 H   0  0  0  0  0  0
  -31.4470  -16.9883   21.2496 H   0  0  0  0  0  0
  -28.1989  -23.9588   22.0713 H   0  0  0  0  0  0
  -27.6093  -24.1819   20.4532 H   0  0  0  0  0  0
  -30.5508  -23.8506   21.2809 H   0  0  0  0  0  0
  -30.0474  -24.0749   19.6449 H   0  0  0  0  0  0
  -29.6360  -26.1390   21.6368 H   0  0  0  0  0  0
  -27.9662  -26.2453   22.0861 H   0  0  0  0  0  0
  -29.1237  -15.1622   21.6132 H   0  0  0  0  0  0
  -29.1725  -21.6747   17.3354 H   0  0  0  0  0  0
  -29.3398  -23.1781   18.1747 H   0  0  0  0  0  0
  1 25  1  0  0  0
  1 30  2  0  0  0
  1 85  1  0  0  0
  2  3  1  0  0  0
  2 25  1  0  0  0
  2 87  1  0  0  0
  2 88  1  0  0  0
  3  4  1  0  0  0
  3 89  1  0  0  0
  3 90  1  0  0  0
  4  5  1  0  0  0
  4 91  1  0  0  0
  4 92  1  0  0  0
  5  6  1  0  0  0
  5 26  1  0  0  0
  5 93  1  0  0  0
  6 25  1  0  0  0
  6 94  1  0  0  0
  6 95  1  0  0  0
  7  8  2  0  0  0
  7 26  1  0  0  0
  7 29  1  0  0  0
  8  9  1  0  0  0
  8 22  1  0  0  0
  9 10  1  0  0  0
  9 27  2  0  0  0
 10 11  2  0  0  0
 10 15  1  0  0  0
 11 12  1  0  0  0
 11 96  1  0  0  0
 12 13  2  0  0  0
 12 97  1  0  0  0
 13 14  1  0  0  0
 13 31  1  0  0  0
 14 15  2  0  0  0
 14 98  1  0  0  0
 15 99  1  0  0  0
 16 17  2  0  0  0
 16 21  1  0  0  0
 16 31  1  0  0  0
 17 18  1  0  0  0
 17100  1  0  0  0
 18 19  2  0  0  0
 18101  1  0  0  0
 19 20  1  0  0  0
 19 24  1  0  0  0
 20 21  2  0  0  0
 20102  1  0  0  0
 21 23  1  0  0  0
 22 28  1  0  0  0
 22 32  2  0  0  0
 26 27  1  0  0  0
 28103  1  0  0  0
 28104  1  0  0  0
 29105  1  0  0  0
 29106  1  0  0  0
 33 34  1  0  0  0
 33 66  1  0  0  0
 33 70  2  0  0  0
 34 36  1  0  0  0
 34 59  1  0  0  0
 34107  1  0  0  0
 35 44  2  0  0  0
 35 45  1  0  0  0
 35 68  1  0  0  0
 36 56  1  0  0  0
 36108  1  0  0  0
 37 39  1  0  0  0
 37 47  1  0  0  0
 37 66  1  0  0  0
 37109  1  0  0  0
 38 43  2  0  0  0
 38 46  1  0  0  0
 38 47  1  0  0  0
 39 64  1  0  0  0
 39 67  2  0  0  0
 40 52  1  0  0  0
 40 53  2  0  0  0
 40 58  1  0  0  0
 41110  1  0  0  0
 41111  1  0  0  0
 41112  1  0  0  0
 41 48  1  0  0  0
 42 43  1  0  0  0
 42 66  1  0  0  0
 42113  1  0  0  0
 42114  1  0  0  0
 43 44  1  0  0  0
 44115  1  0  0  0
 45 46  2  0  0  0
 45116  1  0  0  0
 46117  1  0  0  0
 47118  1  0  0  0
 47119  1  0  0  0
 48 56  1  0  0  0
 48 65  1  0  0  0
 48120  1  0  0  0
 49 50  1  0  0  0
 49 53  1  0  0  0
 49 64  1  0  0  0
 49121  1  0  0  0
 50 51  1  0  0  0
 50122  1  0  0  0
 50123  1  0  0  0
 51 52  1  0  0  0
 51124  1  0  0  0
 51125  1  0  0  0
 52126  1  0  0  0
 52127  1  0  0  0
 53 54  1  0  0  0
 54 55  2  0  0  0
 54128  1  0  0  0
 55 57  1  0  0  0
 55129  1  0  0  0
 56 69  2  0  0  0
 57 58  2  0  0  0
 57130  1  0  0  0
 58131  1  0  0  0
 59 60  1  0  0  0
 59 61  1  0  0  0
 59 62  1  0  0  0
 60132  1  0  0  0
 60133  1  0  0  0
 60134  1  0  0  0
 61135  1  0  0  0
 61136  1  0  0  0
 61137  1  0  0  0
 62138  1  0  0  0
 62139  1  0  0  0
 62140  1  0  0  0
 63 65  1  0  0  0
 63141  1  0  0  0
 63142  1  0  0  0
 63143  1  0  0  0
 64144  1  0  0  0
 65145  1  0  0  0
 68 83  1  0  0  0
 71 72  2  0  0  0
 71 73  1  0  0  0
 71146  1  0  0  0
 72 74  1  0  0  0
 72147  1  0  0  0
 73 76  2  0  0  0
 73148  1  0  0  0
 74 75  2  0  0  0
 74 77  1  0  0  0
 75 76  1  0  0  0
 75 78  1  0  0  0
 76 80  1  0  0  0
 77 84  1  0  0  0
 77 86  2  0  0  0
 78 79  1  0  0  0
 78149  1  0  0  0
 78150  1  0  0  0
 79 84  1  0  0  0
 79151  1  0  0  0
 79152  1  0  0  0
 80 85  1  0  0  0
 80153  1  0  0  0
 80154  1  0  0  0
 81 82  1  0  0  0
 81 83  1  0  0  0
 81155  1  0  0  0
 81156  1  0  0  0
 82 84  1  0  0  0
 82157  1  0  0  0
 82158  1  0  0  0
 83159  1  0  0  0
 83160  1  0  0  0
 85161  1  0  0  0
 86162  1  0  0  0
 86163  1  0  0  0
M  CHG  1  86   1
M  ISO  4   1 100  68 101  83 101  85 100
M  END
> <chiral flag>
0

> <version>
0

> <s_m_source_file>
/data/baiqing/PycharmProjects/Reinvent-master-3.2/result/LINK_invent/BTK/process_docking_weight1_custom_product_contain_oxygen_bond_distance_aromatic_linkinvent_7_9_3/rearranged_h_0005.sdf

> <i_m_source_file_index>
1

> <r_mmod_Potential_Energy-OPLS-2005>
-199.503631591797

> <r_mmod_Stretch_Energy-OPLS-2005>
45.1996879577637

> <r_mmod_Bend_Energy-OPLS-2005>
96.6096725463867

> <r_mmod_Torsional_Energy-OPLS-2005>
232.297714233398

> <r_mmod_Improper_Torsional_Energy-OPLS-2005>
3.4080548286438

> <r_mmod_Van_der_Waal_Energy-OPLS-2005>
165.435211181641

> <r_mmod_Electrostatic_Energy-OPLS-2005>
-350.640289306641

> <r_mmod_Solvation_Energy-OPLS-2005>
-402.352722167969

> <b_mmod_Minimization_Converged-OPLS-2005>
0

> <r_mmod_RMS_Derivative-OPLS-2005>
2.14833521842957

$$$$
1
                    3D
 Structure written by MMmdl.
199209  0  0  1  0            999 V2000
  -30.7429  -14.4575   20.2483 C   0  0  0  0  0  0
  -30.3978  -12.2191   19.4175 C   0  0  0  0  0  0
  -29.4834  -12.3754   18.1866 C   0  0  0  0  0  0
  -28.0032  -12.3237   18.6136 C   0  0  0  0  0  0
  -27.6545  -13.2217   19.8366 C   0  0  2  0  0  0
  -28.7204  -13.1030   20.9500 C   0  0  0  0  0  0
  -25.2583  -13.8150   20.5689 C   0  0  0  0  0  0
  -24.1873  -13.0419   20.9198 C   0  0  0  0  0  0
  -24.6471  -11.6895   20.8783 C   0  0  0  0  0  0
  -23.9123  -10.4274   21.0441 C   0  0  0  0  0  0
  -24.3642   -9.4181   21.9237 C   0  0  0  0  0  0
  -23.6294   -8.2225   22.0779 C   0  0  0  0  0  0
  -22.4305   -8.0247   21.3482 C   0  0  0  0  0  0
  -21.9920   -9.0279   20.4644 C   0  0  0  0  0  0
  -22.7280  -10.2159   20.3090 C   0  0  0  0  0  0
  -21.6890   -6.0742   22.5296 C   0  0  0  0  0  0
  -21.4043   -6.5649   23.8241 C   0  0  0  0  0  0
  -21.3653   -5.6787   24.9209 C   0  0  0  0  0  0
  -21.6041   -4.3034   24.7237 C   0  0  0  0  0  0
  -21.8816   -3.8149   23.4355 C   0  0  0  0  0  0
  -21.9211   -4.6966   22.3419 C   0  0  0  0  0  0
  -22.7912  -13.5194   21.1881 C   0  0  0  0  0  0
  -22.1636   -4.2146   21.0980 F   0  0  0  0  0  0
  -21.5615   -3.4495   25.7717 F   0  0  0  0  0  0
  -30.0444  -13.2998   20.3411 N   0  0  0  0  0  0
  -26.3058  -12.9402   20.3291 N   0  0  0  0  0  0
  -25.9379  -11.6535   20.5738 N   0  0  0  0  0  0
  -22.0565  -12.8212   22.0424 N   0  0  0  0  0  0
  -25.4187  -15.1898   20.4159 N   0  0  0  0  0  0
  -31.9663  -14.5188   20.2958 O   0  0  0  0  0  0
  -21.6654   -6.8868   21.4223 O   0  0  0  0  0  0
  -22.3566  -14.5517   20.6750 O   0  0  0  0  0  0
  -24.6091  -31.8691   23.2140 C   0  0  0  0  0  0
  -25.9008  -32.4823   23.8408 C   0  0  1  0  0  0
  -27.2349  -27.4672   20.0513 C   0  0  0  0  0  0
  -25.5884  -33.8632   24.2341 N   0  0  0  0  0  0
  -23.3965  -30.4919   21.5562 C   0  0  2  0  0  0
  -24.8397  -28.9575   20.1183 C   0  0  0  0  0  0
  -22.7390  -29.4640   22.5051 C   0  0  0  0  0  0
  -18.0247  -28.1366   22.8503 C   0  0  0  0  0  0
  -24.1480  -36.7297   23.2643 C   0  0  0  0  0  0
  -25.9240  -30.8318   21.3689 C   0  0  0  0  0  0
  -25.9974  -29.4678   20.7192 C   0  0  0  0  0  0
  -27.1941  -28.7183   20.7015 C   0  0  0  0  0  0
  -26.0531  -26.9513   19.4743 C   0  0  0  0  0  0
  -24.8589  -27.6935   19.5038 C   0  0  0  0  0  0
  -23.6002  -29.8217   20.1716 C   0  0  0  0  0  0
  -25.4105  -36.3115   24.0348 C   0  0  1  0  0  0
  -20.5833  -28.3632   23.1355 C   0  0  2  0  0  0
  -20.6743  -26.9381   22.5435 C   0  0  0  0  0  0
  -19.5725  -26.6376   21.5225 C   0  0  0  0  0  0
  -18.1895  -26.7921   22.1616 C   0  0  0  0  0  0
  -19.1502  -28.8821   23.2916 C   0  0  0  0  0  0
  -18.9427  -30.1436   23.8913 C   0  0  0  0  0  0
  -17.6435  -30.6580   24.0557 C   0  0  0  0  0  0
  -25.9026  -34.9471   23.5149 C   0  0  0  0  0  0
  -16.5318  -29.9081   23.6333 C   0  0  0  0  0  0
  -16.7239  -28.6488   23.0362 C   0  0  0  0  0  0
  -26.4449  -31.6599   25.0723 C   0  0  0  0  0  0
  -25.3739  -31.3647   26.1479 C   0  0  0  0  0  0
  -27.0270  -30.3052   24.6051 C   0  0  0  0  0  0
  -27.6024  -32.4320   25.7480 C   0  0  0  0  0  0
  -27.5585  -37.1796   24.8464 C   0  0  0  0  0  0
  -21.4111  -29.3008   22.3775 N   0  0  0  0  0  0
  -26.4284  -37.3806   23.9427 N   0  0  0  0  0  0
  -24.6623  -31.0787   22.1031 N   0  0  0  0  0  0
  -23.4172  -28.8182   23.3067 O   0  0  0  0  0  0
  -28.4281  -26.7866   19.9835 O   0  0  0  0  0  0
  -26.5597  -34.8927   22.4706 O   0  0  0  0  0  0
  -23.5309  -32.1443   23.7541 O   0  0  0  0  0  0
  -26.6561  -16.2817   15.8673 C   0  0  0  0  0  0
  -26.7112  -17.4386   16.6727 C   0  0  0  0  0  0
  -26.7478  -18.8682   14.6794 C   0  0  0  0  0  0
  -33.4534  -22.0560   19.3518 C   0  0  0  0  0  0
  -31.3413  -21.1201   18.5539 C   0  0  0  0  0  0
  -31.7545  -23.4989   18.3725 C   0  0  0  0  0  0
  -26.6581  -17.7037   13.9013 C   0  0  0  0  0  0
  -32.6143  -20.9452   19.1416 C   0  0  0  0  0  0
  -33.0238  -23.3353   18.9574 C   0  0  0  0  0  0
  -26.7181  -16.4405   14.4713 C   0  0  0  0  0  0
  -26.8704  -18.7150   16.0823 C   0  0  0  0  0  0
  -30.8650  -22.4055   18.1864 C   0  0  0  0  0  0
  -28.2324  -20.6409   16.7557 C   0  0  0  0  0  0
  -26.6343  -17.6020   12.4128 C   0  0  0  0  0  0
  -26.8770  -16.0894   12.2081 C   0  0  0  0  0  0
  -33.0734  -19.5606   19.5561 C   0  0  0  0  0  0
  -33.9026  -24.5513   19.1808 C   0  0  0  0  0  0
  -28.5081  -21.5867   17.9356 C   0  0  0  0  0  0
  -29.8921  -16.2934   14.9662 C   0  0  0  0  0  0
  -30.0335  -15.7567   16.4169 C   0  0  0  0  0  0
  -29.5322  -15.2708   13.8505 C   0  0  0  0  0  0
  -30.1018  -16.8796   17.4900 C   0  0  0  0  0  0
  -28.7031  -24.6574   18.8046 C   0  0  0  0  0  0
  -28.1269  -14.5825   13.8497 C   0  0  0  0  0  0
  -30.7437  -16.5398   18.8637 C   0  0  0  0  0  0
  -29.0685  -23.9684   17.4684 C   0  0  0  0  0  0
  -28.7509  -26.1885   18.7230 C   0  0  0  0  0  0
  -26.9719  -15.4397   13.5301 N   0  0  0  0  0  0
  -27.1939  -19.8016   16.9247 N   0  0  0  0  0  0
  -30.0859  -15.4437   19.6074 N   0  0  0  0  0  0
  -29.5479  -22.5985   17.6778 N   0  0  0  0  0  0
  -28.9367  -20.6717   15.7411 O   0  0  0  0  0  0
  -31.4495  -12.2521   19.1268 H   0  0  0  0  0  0
  -30.2428  -11.2429   19.8797 H   0  0  0  0  0  0
  -29.6865  -11.5747   17.4719 H   0  0  0  0  0  0
  -29.7069  -13.2979   17.6602 H   0  0  0  0  0  0
  -27.7993  -11.2828   18.8635 H   0  0  0  0  0  0
  -27.3536  -12.5575   17.7699 H   0  0  0  0  0  0
  -27.6560  -14.2514   19.4757 H   0  0  0  0  0  0
  -28.6671  -12.1207   21.4193 H   0  0  0  0  0  0
  -28.5466  -13.8292   21.7453 H   0  0  0  0  0  0
  -25.2801   -9.5656   22.4844 H   0  0  0  0  0  0
  -23.9991   -7.4663   22.7567 H   0  0  0  0  0  0
  -21.0826   -8.8917   19.8969 H   0  0  0  0  0  0
  -22.3772  -10.9774   19.6268 H   0  0  0  0  0  0
  -21.2001   -7.6167   23.9711 H   0  0  0  0  0  0
  -21.1451   -6.0522   25.9109 H   0  0  0  0  0  0
  -22.0554   -2.7592   23.2883 H   0  0  0  0  0  0
  -22.4082  -11.9768   22.4679 H   0  0  0  0  0  0
  -21.1193  -13.1322   22.2623 H   0  0  0  0  0  0
  -24.6376  -15.8232   20.5537 H   0  0  0  0  0  0
  -26.2736  -15.6627   20.1572 H   0  0  0  0  0  0
  -26.7059  -32.5534   23.1157 H   0  0  0  0  0  0
  -25.0051  -33.9796   25.0502 H   0  0  0  0  0  0
  -22.6831  -31.3068   21.4203 H   0  0  0  0  0  0
  -23.3763  -35.9605   23.3295 H   0  0  0  0  0  0
  -24.3584  -36.8917   22.2058 H   0  0  0  0  0  0
  -23.7188  -37.6485   23.6657 H   0  0  0  0  0  0
  -26.0387  -31.5965   20.6005 H   0  0  0  0  0  0
  -26.8118  -30.8830   21.9861 H   0  0  0  0  0  0
  -28.0927  -29.1110   21.1564 H   0  0  0  0  0  0
  -26.0501  -25.9866   18.9887 H   0  0  0  0  0  0
  -23.9658  -27.2935   19.0424 H   0  0  0  0  0  0
  -23.6976  -30.5935   19.4076 H   0  0  0  0  0  0
  -22.7250  -29.2350   19.8840 H   0  0  0  0  0  0
  -25.1277  -36.1987   25.0843 H   0  0  0  0  0  0
  -20.9907  -28.3182   24.1481 H   0  0  0  0  0  0
  -20.5651  -26.2239   23.3610 H   0  0  0  0  0  0
  -21.6615  -26.7437   22.1216 H   0  0  0  0  0  0
  -19.6883  -25.6294   21.1237 H   0  0  0  0  0  0
  -19.6675  -27.3206   20.6773 H   0  0  0  0  0  0
  -17.4182  -26.6701   21.3992 H   0  0  0  0  0  0
  -18.0252  -26.0040   22.8980 H   0  0  0  0  0  0
  -19.7906  -30.7249   24.2285 H   0  0  0  0  0  0
  -17.4985  -31.6275   24.5134 H   0  0  0  0  0  0
  -15.5322  -30.2984   23.7656 H   0  0  0  0  0  0
  -15.8629  -28.0813   22.7088 H   0  0  0  0  0  0
  -24.5959  -30.6929   25.7828 H   0  0  0  0  0  0
  -24.8863  -32.2762   26.4940 H   0  0  0  0  0  0
  -25.8133  -30.8838   27.0227 H   0  0  0  0  0  0
  -26.2778  -29.6824   24.1132 H   0  0  0  0  0  0
  -27.4096  -29.7259   25.4467 H   0  0  0  0  0  0
  -27.8601  -30.4391   23.9141 H   0  0  0  0  0  0
  -27.2637  -33.3620   26.2056 H   0  0  0  0  0  0
  -28.3824  -32.6879   25.0298 H   0  0  0  0  0  0
  -28.0689  -31.8443   26.5394 H   0  0  0  0  0  0
  -28.2583  -38.0116   24.7577 H   0  0  0  0  0  0
  -28.1102  -36.2656   24.6211 H   0  0  0  0  0  0
  -27.2313  -37.1342   25.8867 H   0  0  0  0  0  0
  -20.9276  -29.8743   21.7012 H   0  0  0  0  0  0
  -26.0176  -38.2880   24.1468 H   0  0  0  0  0  0
  -26.6524  -15.3000   16.3202 H   0  0  0  0  0  0
  -26.7553  -17.3169   17.7448 H   0  0  0  0  0  0
  -26.8058  -19.8366   14.2045 H   0  0  0  0  0  0
  -34.4238  -21.9306   19.8142 H   0  0  0  0  0  0
  -30.7355  -20.2400   18.3966 H   0  0  0  0  0  0
  -31.4838  -24.5076   18.1000 H   0  0  0  0  0  0
  -27.3940  -18.2293   11.9471 H   0  0  0  0  0  0
  -25.6523  -17.9004   12.0417 H   0  0  0  0  0  0
  -27.7805  -15.9276   11.6165 H   0  0  0  0  0  0
  -26.0483  -15.6560   11.6402 H   0  0  0  0  0  0
  -34.1182  -19.5633   19.8762 H   0  0  0  0  0  0
  -32.9774  -18.8664   18.7196 H   0  0  0  0  0  0
  -32.4694  -19.1865   20.3857 H   0  0  0  0  0  0
  -34.8882  -24.2717   19.5548 H   0  0  0  0  0  0
  -33.4384  -25.2181   19.9100 H   0  0  0  0  0  0
  -34.0383  -25.1093   18.2522 H   0  0  0  0  0  0
  -28.7260  -20.9983   18.8282 H   0  0  0  0  0  0
  -27.5659  -22.0882   18.1621 H   0  0  0  0  0  0
  -30.8463  -16.7434   14.6845 H   0  0  0  0  0  0
  -29.1921  -17.1225   14.9420 H   0  0  0  0  0  0
  -30.9191  -15.1229   16.4779 H   0  0  0  0  0  0
  -29.1740  -15.1301   16.6435 H   0  0  0  0  0  0
  -30.2903  -14.4880   13.8792 H   0  0  0  0  0  0
  -29.6861  -15.7544   12.8855 H   0  0  0  0  0  0
  -29.0987  -17.2511   17.6662 H   0  0  0  0  0  0
  -30.6458  -17.7303   17.0766 H   0  0  0  0  0  0
  -29.3926  -24.3505   19.5902 H   0  0  0  0  0  0
  -27.7188  -24.3216   19.1298 H   0  0  0  0  0  0
  -27.9663  -14.0601   14.7905 H   0  0  0  0  0  0
  -28.1443  -13.8006   13.0884 H   0  0  0  0  0  0
  -30.7060  -17.4279   19.4993 H   0  0  0  0  0  0
  -31.8118  -16.3582   18.7051 H   0  0  0  0  0  0
  -29.7887  -24.5441   16.8841 H   0  0  0  0  0  0
  -28.1867  -23.9397   16.8244 H   0  0  0  0  0  0
  -28.1332  -26.5561   17.9007 H   0  0  0  0  0  0
  -29.7694  -26.4925   18.4769 H   0  0  0  0  0  0
  -26.7422  -19.8274   17.8283 H   0  0  0  0  0  0
  -29.0890  -15.3496   19.5073 H   0  0  0  0  0  0
  1 25  1  0  0  0
  1 30  2  0  0  0
  1100  1  0  0  0
  2  3  1  0  0  0
  2 25  1  0  0  0
  2103  1  0  0  0
  2104  1  0  0  0
  3  4  1  0  0  0
  3105  1  0  0  0
  3106  1  0  0  0
  4  5  1  0  0  0
  4107  1  0  0  0
  4108  1  0  0  0
  5  6  1  0  0  0
  5 26  1  0  0  0
  5109  1  0  0  0
  6 25  1  0  0  0
  6110  1  0  0  0
  6111  1  0  0  0
  7  8  2  0  0  0
  7 26  1  0  0  0
  7 29  1  0  0  0
  8  9  1  0  0  0
  8 22  1  0  0  0
  9 10  1  0  0  0
  9 27  2  0  0  0
 10 11  2  0  0  0
 10 15  1  0  0  0
 11 12  1  0  0  0
 11112  1  0  0  0
 12 13  2  0  0  0
 12113  1  0  0  0
 13 14  1  0  0  0
 13 31  1  0  0  0
 14 15  2  0  0  0
 14114  1  0  0  0
 15115  1  0  0  0
 16 17  2  0  0  0
 16 21  1  0  0  0
 16 31  1  0  0  0
 17 18  1  0  0  0
 17116  1  0  0  0
 18 19  2  0  0  0
 18117  1  0  0  0
 19 20  1  0  0  0
 19 24  1  0  0  0
 20 21  2  0  0  0
 20118  1  0  0  0
 21 23  1  0  0  0
 22 28  1  0  0  0
 22 32  2  0  0  0
 26 27  1  0  0  0
 28119  1  0  0  0
 28120  1  0  0  0
 29121  1  0  0  0
 29122  1  0  0  0
 33 34  1  0  0  0
 33 66  1  0  0  0
 33 70  2  0  0  0
 34 36  1  0  0  0
 34 59  1  0  0  0
 34123  1  0  0  0
 35 44  2  0  0  0
 35 45  1  0  0  0
 35 68  1  0  0  0
 36 56  1  0  0  0
 36124  1  0  0  0
 37 39  1  0  0  0
 37 47  1  0  0  0
 37 66  1  0  0  0
 37125  1  0  0  0
 38 43  2  0  0  0
 38 46  1  0  0  0
 38 47  1  0  0  0
 39 64  1  0  0  0
 39 67  2  0  0  0
 40 52  1  0  0  0
 40 53  2  0  0  0
 40 58  1  0  0  0
 41126  1  0  0  0
 41127  1  0  0  0
 41128  1  0  0  0
 41 48  1  0  0  0
 42 43  1  0  0  0
 42 66  1  0  0  0
 42129  1  0  0  0
 42130  1  0  0  0
 43 44  1  0  0  0
 44131  1  0  0  0
 45 46  2  0  0  0
 45132  1  0  0  0
 46133  1  0  0  0
 47134  1  0  0  0
 47135  1  0  0  0
 48 56  1  0  0  0
 48 65  1  0  0  0
 48136  1  0  0  0
 49 50  1  0  0  0
 49 53  1  0  0  0
 49 64  1  0  0  0
 49137  1  0  0  0
 50 51  1  0  0  0
 50138  1  0  0  0
 50139  1  0  0  0
 51 52  1  0  0  0
 51140  1  0  0  0
 51141  1  0  0  0
 52142  1  0  0  0
 52143  1  0  0  0
 53 54  1  0  0  0
 54 55  2  0  0  0
 54144  1  0  0  0
 55 57  1  0  0  0
 55145  1  0  0  0
 56 69  2  0  0  0
 57 58  2  0  0  0
 57146  1  0  0  0
 58147  1  0  0  0
 59 60  1  0  0  0
 59 61  1  0  0  0
 59 62  1  0  0  0
 60148  1  0  0  0
 60149  1  0  0  0
 60150  1  0  0  0
 61151  1  0  0  0
 61152  1  0  0  0
 61153  1  0  0  0
 62154  1  0  0  0
 62155  1  0  0  0
 62156  1  0  0  0
 63 65  1  0  0  0
 63157  1  0  0  0
 63158  1  0  0  0
 63159  1  0  0  0
 64160  1  0  0  0
 65161  1  0  0  0
 68 97  1  0  0  0
 71 72  2  0  0  0
 71 80  1  0  0  0
 71162  1  0  0  0
 72 81  1  0  0  0
 72163  1  0  0  0
 73 77  1  0  0  0
 73 81  2  0  0  0
 73164  1  0  0  0
 74 78  2  0  0  0
 74 79  1  0  0  0
 74165  1  0  0  0
 75 78  1  0  0  0
 75 82  2  0  0  0
 75166  1  0  0  0
 76 79  2  0  0  0
 76 82  1  0  0  0
 76167  1  0  0  0
 77 80  2  0  0  0
 77 84  1  0  0  0
 78 86  1  0  0  0
 79 87  1  0  0  0
 80 98  1  0  0  0
 81 99  1  0  0  0
 82101  1  0  0  0
 83 88  1  0  0  0
 83 99  1  0  0  0
 83102  2  0  0  0
 84 85  1  0  0  0
 84168  1  0  0  0
 84169  1  0  0  0
 85 98  1  0  0  0
 85170  1  0  0  0
 85171  1  0  0  0
 86172  1  0  0  0
 86173  1  0  0  0
 86174  1  0  0  0
 87175  1  0  0  0
 87176  1  0  0  0
 87177  1  0  0  0
 88101  1  0  0  0
 88178  1  0  0  0
 88179  1  0  0  0
 89 90  1  0  0  0
 89 91  1  0  0  0
 89180  1  0  0  0
 89181  1  0  0  0
 90 92  1  0  0  0
 90182  1  0  0  0
 90183  1  0  0  0
 91 94  1  0  0  0
 91184  1  0  0  0
 91185  1  0  0  0
 92 95  1  0  0  0
 92186  1  0  0  0
 92187  1  0  0  0
 93 96  1  0  0  0
 93 97  1  0  0  0
 93188  1  0  0  0
 93189  1  0  0  0
 94 98  1  0  0  0
 94190  1  0  0  0
 94191  1  0  0  0
 95100  1  0  0  0
 95192  1  0  0  0
 95193  1  0  0  0
 96101  1  0  0  0
 96194  1  0  0  0
 96195  1  0  0  0
 97196  1  0  0  0
 97197  1  0  0  0
 99198  1  0  0  0
100199  1  0  0  0
M  ISO  4   1 100  68 101  97 101 100 100
M  END
> <chiral flag>
0

> <version>
0

> <s_m_source_file>
/data/baiqing/PycharmProjects/Reinvent-master-3.2/result/LINK_invent/BTK/process_docking_weight1_custom_product_contain_oxygen_bond_distance_aromatic_linkinvent_7_9_3/rearranged_h_0005.sdf

> <i_m_source_file_index>
2

> <r_mmod_Potential_Energy-OPLS-2005>
47.4369735717773

> <r_mmod_Stretch_Energy-OPLS-2005>
47.5734176635742

> <r_mmod_Bend_Energy-OPLS-2005>
167.949127197266

> <r_mmod_Torsional_Energy-OPLS-2005>
308.793792724609

> <r_mmod_Improper_Torsional_Energy-OPLS-2005>
23.2033977508545

> <r_mmod_Van_der_Waal_Energy-OPLS-2005>
157.423202514648

> <r_mmod_Electrostatic_Energy-OPLS-2005>
-416.853576660156

> <r_mmod_Solvation_Energy-OPLS-2005>
-286.228088378906

> <b_mmod_Minimization_Converged-OPLS-2005>
0

> <r_mmod_RMS_Derivative-OPLS-2005>
5.7844033241272

$$$$
2
                    3D
 Structure written by MMmdl.
163172  0  0  1  0            999 V2000
  -30.6910  -14.5160   20.5152 C   0  0  0  0  0  0
  -30.4135  -12.3185   19.4414 C   0  0  0  0  0  0
  -29.4954  -12.4984   18.2147 C   0  0  0  0  0  0
  -28.0153  -12.3619   18.6226 C   0  0  0  0  0  0
  -27.6531  -13.2166   19.8671 C   0  0  2  0  0  0
  -28.6936  -13.0421   20.9957 C   0  0  0  0  0  0
  -25.2542  -13.8183   20.5669 C   0  0  0  0  0  0
  -24.1813  -13.0446   20.9192 C   0  0  0  0  0  0
  -24.6381  -11.6920   20.8734 C   0  0  0  0  0  0
  -23.9055  -10.4298   21.0394 C   0  0  0  0  0  0
  -24.3609   -9.4214   21.9172 C   0  0  0  0  0  0
  -23.6288   -8.2246   22.0747 C   0  0  0  0  0  0
  -22.4272   -8.0276   21.3538 C   0  0  0  0  0  0
  -21.9904   -9.0247   20.4641 C   0  0  0  0  0  0
  -22.7225  -10.2132   20.3048 C   0  0  0  0  0  0
  -21.6854   -6.0731   22.5276 C   0  0  0  0  0  0
  -21.4016   -6.5635   23.8210 C   0  0  0  0  0  0
  -21.3660   -5.6787   24.9170 C   0  0  0  0  0  0
  -21.6046   -4.3051   24.7221 C   0  0  0  0  0  0
  -21.8821   -3.8144   23.4340 C   0  0  0  0  0  0
  -21.9195   -4.6961   22.3396 C   0  0  0  0  0  0
  -22.7838  -13.5238   21.1857 C   0  0  0  0  0  0
  -22.1665   -4.2147   21.0975 F   0  0  0  0  0  0
  -21.5628   -3.4538   25.7735 F   0  0  0  0  0  0
  -30.0209  -13.3328   20.4343 N   0  0  0  0  0  0
  -26.2973  -12.9369   20.3325 N   0  0  0  0  0  0
  -25.9304  -11.6522   20.5746 N   0  0  0  0  0  0
  -22.0487  -12.8218   22.0413 N   0  0  0  0  0  0
  -25.4262  -15.1895   20.4051 N   0  0  0  0  0  0
  -31.8583  -14.6111   20.1347 O   0  0  0  0  0  0
  -21.6639   -6.8870   21.4236 O   0  0  0  0  0  0
  -22.3516  -14.5539   20.6702 O   0  0  0  0  0  0
  -24.6160  -31.8670   23.2090 C   0  0  0  0  0  0
  -25.9051  -32.4812   23.8393 C   0  0  1  0  0  0
  -27.2300  -27.4114   20.1132 C   0  0  0  0  0  0
  -25.5903  -33.8612   24.2326 N   0  0  0  0  0  0
  -23.4061  -30.4877   21.5489 C   0  0  2  0  0  0
  -24.8536  -28.9482   20.1174 C   0  0  0  0  0  0
  -22.7425  -29.4630   22.4981 C   0  0  0  0  0  0
  -18.0276  -28.1362   22.8485 C   0  0  0  0  0  0
  -24.1497  -36.7317   23.2637 C   0  0  0  0  0  0
  -25.9345  -30.8252   21.3652 C   0  0  0  0  0  0
  -26.0130  -29.4548   20.7204 C   0  0  0  0  0  0
  -27.2066  -28.6925   20.7167 C   0  0  0  0  0  0
  -26.0629  -26.9320   19.4899 C   0  0  0  0  0  0
  -24.8739  -27.6855   19.4981 C   0  0  0  0  0  0
  -23.6176  -29.8189   20.1640 C   0  0  0  0  0  0
  -25.4106  -36.3101   24.0338 C   0  0  1  0  0  0
  -20.5865  -28.3647   23.1313 C   0  0  2  0  0  0
  -20.6773  -26.9385   22.5411 C   0  0  0  0  0  0
  -19.5741  -26.6378   21.5203 C   0  0  0  0  0  0
  -18.1922  -26.7905   22.1614 C   0  0  0  0  0  0
  -19.1525  -28.8819   23.2895 C   0  0  0  0  0  0
  -18.9454  -30.1434   23.8889 C   0  0  0  0  0  0
  -17.6457  -30.6572   24.0559 C   0  0  0  0  0  0
  -25.9038  -34.9468   23.5126 C   0  0  0  0  0  0
  -16.5353  -29.9072   23.6317 C   0  0  0  0  0  0
  -16.7263  -28.6492   23.0325 C   0  0  0  0  0  0
  -26.4473  -31.6584   25.0719 C   0  0  0  0  0  0
  -25.3734  -31.3676   26.1465 C   0  0  0  0  0  0
  -27.0312  -30.3034   24.6071 C   0  0  0  0  0  0
  -27.6056  -32.4299   25.7470 C   0  0  0  0  0  0
  -27.5585  -37.1805   24.8461 C   0  0  0  0  0  0
  -21.4152  -29.3019   22.3727 N   0  0  0  0  0  0
  -26.4297  -37.3782   23.9405 N   0  0  0  0  0  0
  -24.6705  -31.0753   22.0995 N   0  0  0  0  0  0
  -23.4187  -28.8172   23.3033 O   0  0  0  0  0  0
  -28.3825  -26.6563   20.0727 O   0  0  0  0  0  0
  -26.5606  -34.8921   22.4688 O   0  0  0  0  0  0
  -23.5355  -32.1424   23.7476 O   0  0  0  0  0  0
  -31.5881  -18.8644   19.8554 C   0  0  0  0  0  0
  -30.6517  -19.8053   20.3014 C   0  0  0  0  0  0
  -31.3625  -17.4933   20.0445 C   0  0  0  0  0  0
  -29.4556  -19.3923   20.9239 C   0  0  0  0  0  0
  -29.2222  -17.9851   21.1104 C   0  0  0  0  0  0
  -30.1881  -17.0140   20.6788 C   0  0  0  0  0  0
  -26.7642  -23.5602   20.4770 C   0  0  0  0  0  0
  -26.8991  -22.0462   20.2330 C   0  0  0  0  0  0
  -28.9969  -22.9390   20.9176 C   0  0  0  0  0  0
  -28.1835  -24.1130   20.3087 C   0  0  2  0  0  0
  -27.9350  -17.5248   21.7928 C   0  0  0  0  0  0
  -28.4890  -20.4902   21.4355 C   0  0  0  0  0  0
  -28.4472  -25.5148   20.9553 C   0  0  0  0  0  0
  -29.9481  -15.5966   20.8742 N   0  0  0  0  0  0
  -28.3074  -21.6726   20.5244 N   0  3  1  0  0  0
  -31.4600  -12.4023   19.1434 H   0  0  0  0  0  0
  -30.3043  -11.3183   19.8638 H   0  0  0  0  0  0
  -29.7424  -11.7618   17.4491 H   0  0  0  0  0  0
  -29.6659  -13.4774   17.7632 H   0  0  0  0  0  0
  -27.8263  -11.3080   18.8293 H   0  0  0  0  0  0
  -27.3692  -12.6273   17.7848 H   0  0  0  0  0  0
  -27.6833  -14.2578   19.5469 H   0  0  0  0  0  0
  -28.6710  -12.0219   21.3808 H   0  0  0  0  0  0
  -28.4578  -13.6849   21.8449 H   0  0  0  0  0  0
  -25.2758   -9.5696   22.4739 H   0  0  0  0  0  0
  -24.0007   -7.4638   22.7465 H   0  0  0  0  0  0
  -21.0839   -8.8753   19.8942 H   0  0  0  0  0  0
  -22.3674  -10.9663   19.6153 H   0  0  0  0  0  0
  -21.2008   -7.6145   23.9711 H   0  0  0  0  0  0
  -21.1482   -6.0518   25.9073 H   0  0  0  0  0  0
  -22.0602   -2.7607   23.2839 H   0  0  0  0  0  0
  -22.4111  -11.9882   22.4796 H   0  0  0  0  0  0
  -21.1099  -13.1220   22.2617 H   0  0  0  0  0  0
  -24.6527  -15.8395   20.4910 H   0  0  0  0  0  0
  -26.2632  -15.6177   20.0324 H   0  0  0  0  0  0
  -26.7121  -32.5532   23.1164 H   0  0  0  0  0  0
  -25.0034  -33.9754   25.0460 H   0  0  0  0  0  0
  -22.6948  -31.3042   21.4082 H   0  0  0  0  0  0
  -23.3744  -35.9669   23.3300 H   0  0  0  0  0  0
  -24.3597  -36.8938   22.2055 H   0  0  0  0  0  0
  -23.7266  -37.6529   23.6657 H   0  0  0  0  0  0
  -26.0433  -31.5862   20.5923 H   0  0  0  0  0  0
  -26.8241  -30.8853   21.9797 H   0  0  0  0  0  0
  -28.1056  -29.0792   21.1772 H   0  0  0  0  0  0
  -26.0785  -25.9845   18.9753 H   0  0  0  0  0  0
  -23.9877  -27.2956   19.0158 H   0  0  0  0  0  0
  -23.7301  -30.5941   19.4043 H   0  0  0  0  0  0
  -22.7418  -29.2398   19.8671 H   0  0  0  0  0  0
  -25.1279  -36.1965   25.0830 H   0  0  0  0  0  0
  -20.9941  -28.3220   24.1442 H   0  0  0  0  0  0
  -20.5668  -26.2252   23.3592 H   0  0  0  0  0  0
  -21.6636  -26.7430   22.1195 H   0  0  0  0  0  0
  -19.6909  -25.6293   21.1219 H   0  0  0  0  0  0
  -19.6691  -27.3206   20.6741 H   0  0  0  0  0  0
  -17.4191  -26.6652   21.4018 H   0  0  0  0  0  0
  -18.0321  -26.0045   22.9004 H   0  0  0  0  0  0
  -19.7936  -30.7244   24.2254 H   0  0  0  0  0  0
  -17.5016  -31.6245   24.5168 H   0  0  0  0  0  0
  -15.5347  -30.2965   23.7656 H   0  0  0  0  0  0
  -15.8663  -28.0832   22.7003 H   0  0  0  0  0  0
  -24.5915  -30.7008   25.7799 H   0  0  0  0  0  0
  -24.8903  -32.2829   26.4908 H   0  0  0  0  0  0
  -25.8094  -30.8854   27.0222 H   0  0  0  0  0  0
  -26.2856  -29.6773   24.1154 H   0  0  0  0  0  0
  -27.4136  -29.7283   25.4511 H   0  0  0  0  0  0
  -27.8665  -30.4365   23.9186 H   0  0  0  0  0  0
  -27.2681  -33.3595   26.2053 H   0  0  0  0  0  0
  -28.3852  -32.6846   25.0278 H   0  0  0  0  0  0
  -28.0719  -31.8399   26.5370 H   0  0  0  0  0  0
  -28.2580  -38.0128   24.7518 H   0  0  0  0  0  0
  -28.1108  -36.2654   24.6267 H   0  0  0  0  0  0
  -27.2307  -37.1419   25.8868 H   0  0  0  0  0  0
  -20.9310  -29.8784   21.6986 H   0  0  0  0  0  0
  -26.0192  -38.2861   24.1417 H   0  0  0  0  0  0
  -32.4944  -19.1944   19.3678 H   0  0  0  0  0  0
  -30.8812  -20.8512   20.1608 H   0  0  0  0  0  0
  -32.1362  -16.8411   19.6759 H   0  0  0  0  0  0
  -26.4185  -23.7290   21.4982 H   0  0  0  0  0  0
  -26.0288  -24.0059   19.8114 H   0  0  0  0  0  0
  -26.7083  -21.8187   19.1838 H   0  0  0  0  0  0
  -26.1575  -21.4999   20.8163 H   0  0  0  0  0  0
  -28.9943  -23.0308   22.0053 H   0  0  0  0  0  0
  -30.0376  -22.9521   20.5949 H   0  0  0  0  0  0
  -28.4204  -24.1693   19.2452 H   0  0  0  0  0  0
  -27.8387  -17.9867   22.7753 H   0  0  0  0  0  0
  -27.8681  -16.4497   21.9491 H   0  0  0  0  0  0
  -27.0702  -17.8088   21.1930 H   0  0  0  0  0  0
  -28.8326  -20.8157   22.4172 H   0  0  0  0  0  0
  -27.5165  -20.0400   21.6174 H   0  0  0  0  0  0
  -29.4700  -25.5199   21.3349 H   0  0  0  0  0  0
  -27.8222  -25.6644   21.8373 H   0  0  0  0  0  0
  -29.0312  -15.3616   21.2196 H   0  0  0  0  0  0
  -28.6864  -21.3862   19.6340 H   0  0  0  0  0  0
  1 25  1  0  0  0
  1 30  2  0  0  0
  1 84  1  0  0  0
  2  3  1  0  0  0
  2 25  1  0  0  0
  2 86  1  0  0  0
  2 87  1  0  0  0
  3  4  1  0  0  0
  3 88  1  0  0  0
  3 89  1  0  0  0
  4  5  1  0  0  0
  4 90  1  0  0  0
  4 91  1  0  0  0
  5  6  1  0  0  0
  5 26  1  0  0  0
  5 92  1  0  0  0
  6 25  1  0  0  0
  6 93  1  0  0  0
  6 94  1  0  0  0
  7  8  2  0  0  0
  7 26  1  0  0  0
  7 29  1  0  0  0
  8  9  1  0  0  0
  8 22  1  0  0  0
  9 10  1  0  0  0
  9 27  2  0  0  0
 10 11  2  0  0  0
 10 15  1  0  0  0
 11 12  1  0  0  0
 11 95  1  0  0  0
 12 13  2  0  0  0
 12 96  1  0  0  0
 13 14  1  0  0  0
 13 31  1  0  0  0
 14 15  2  0  0  0
 14 97  1  0  0  0
 15 98  1  0  0  0
 16 17  2  0  0  0
 16 21  1  0  0  0
 16 31  1  0  0  0
 17 18  1  0  0  0
 17 99  1  0  0  0
 18 19  2  0  0  0
 18100  1  0  0  0
 19 20  1  0  0  0
 19 24  1  0  0  0
 20 21  2  0  0  0
 20101  1  0  0  0
 21 23  1  0  0  0
 22 28  1  0  0  0
 22 32  2  0  0  0
 26 27  1  0  0  0
 28102  1  0  0  0
 28103  1  0  0  0
 29104  1  0  0  0
 29105  1  0  0  0
 33 34  1  0  0  0
 33 66  1  0  0  0
 33 70  2  0  0  0
 34 36  1  0  0  0
 34 59  1  0  0  0
 34106  1  0  0  0
 35 44  2  0  0  0
 35 45  1  0  0  0
 35 68  1  0  0  0
 36 56  1  0  0  0
 36107  1  0  0  0
 37 39  1  0  0  0
 37 47  1  0  0  0
 37 66  1  0  0  0
 37108  1  0  0  0
 38 43  2  0  0  0
 38 46  1  0  0  0
 38 47  1  0  0  0
 39 64  1  0  0  0
 39 67  2  0  0  0
 40 52  1  0  0  0
 40 53  2  0  0  0
 40 58  1  0  0  0
 41109  1  0  0  0
 41110  1  0  0  0
 41111  1  0  0  0
 41 48  1  0  0  0
 42 43  1  0  0  0
 42 66  1  0  0  0
 42112  1  0  0  0
 42113  1  0  0  0
 43 44  1  0  0  0
 44114  1  0  0  0
 45 46  2  0  0  0
 45115  1  0  0  0
 46116  1  0  0  0
 47117  1  0  0  0
 47118  1  0  0  0
 48 56  1  0  0  0
 48 65  1  0  0  0
 48119  1  0  0  0
 49 50  1  0  0  0
 49 53  1  0  0  0
 49 64  1  0  0  0
 49120  1  0  0  0
 50 51  1  0  0  0
 50121  1  0  0  0
 50122  1  0  0  0
 51 52  1  0  0  0
 51123  1  0  0  0
 51124  1  0  0  0
 52125  1  0  0  0
 52126  1  0  0  0
 53 54  1  0  0  0
 54 55  2  0  0  0
 54127  1  0  0  0
 55 57  1  0  0  0
 55128  1  0  0  0
 56 69  2  0  0  0
 57 58  2  0  0  0
 57129  1  0  0  0
 58130  1  0  0  0
 59 60  1  0  0  0
 59 61  1  0  0  0
 59 62  1  0  0  0
 60131  1  0  0  0
 60132  1  0  0  0
 60133  1  0  0  0
 61134  1  0  0  0
 61135  1  0  0  0
 61136  1  0  0  0
 62137  1  0  0  0
 62138  1  0  0  0
 62139  1  0  0  0
 63 65  1  0  0  0
 63140  1  0  0  0
 63141  1  0  0  0
 63142  1  0  0  0
 64143  1  0  0  0
 65144  1  0  0  0
 68 83  1  0  0  0
 71 72  2  0  0  0
 71 73  1  0  0  0
 71145  1  0  0  0
 72 74  1  0  0  0
 72146  1  0  0  0
 73 76  2  0  0  0
 73147  1  0  0  0
 74 75  2  0  0  0
 74 82  1  0  0  0
 75 76  1  0  0  0
 75 81  1  0  0  0
 76 84  1  0  0  0
 77 78  1  0  0  0
 77 80  1  0  0  0
 77148  1  0  0  0
 77149  1  0  0  0
 78 85  1  0  0  0
 78150  1  0  0  0
 78151  1  0  0  0
 79 80  1  0  0  0
 79 85  1  0  0  0
 79152  1  0  0  0
 79153  1  0  0  0
 80 83  1  0  0  0
 80154  1  0  0  0
 81155  1  0  0  0
 81156  1  0  0  0
 81157  1  0  0  0
 82158  1  0  0  0
 82159  1  0  0  0
 82 85  1  0  0  0
 83160  1  0  0  0
 83161  1  0  0  0
 84162  1  0  0  0
 85163  1  0  0  0
M  CHG  1  85   1
M  ISO  4   1 100  68 101  83 101  84 100
M  END
> <chiral flag>
0

> <version>
0

> <s_m_source_file>
/data/baiqing/PycharmProjects/Reinvent-master-3.2/result/LINK_invent/BTK/process_docking_weight1_custom_product_contain_oxygen_bond_distance_aromatic_linkinvent_7_9_3/rearranged_h_0005.sdf

> <i_m_source_file_index>
3

> <r_mmod_Potential_Energy-OPLS-2005>
-69.7419052124023

> <r_mmod_Stretch_Energy-OPLS-2005>
49.9904747009277

> <r_mmod_Bend_Energy-OPLS-2005>
135.886764526367

> <r_mmod_Torsional_Energy-OPLS-2005>
302.269683837891

> <r_mmod_Improper_Torsional_Energy-OPLS-2005>
4.34556674957275

> <r_mmod_Van_der_Waal_Energy-OPLS-2005>
154.938018798828

> <r_mmod_Electrostatic_Energy-OPLS-2005>
-286.205596923828

> <r_mmod_Solvation_Energy-OPLS-2005>
-450.137329101562

> <b_mmod_Minimization_Converged-OPLS-2005>
0

> <r_mmod_RMS_Derivative-OPLS-2005>
1.77034187316895

$$$$
3
                    3D
 Structure written by MMmdl.
236247  0  0  1  0            999 V2000
  -30.7916  -14.3526   20.6916 C   0  0  0  0  0  0
  -30.4134  -12.2861   19.3958 C   0  0  0  0  0  0
  -29.4831  -12.5288   18.1934 C   0  0  0  0  0  0
  -28.0093  -12.3821   18.6119 C   0  0  0  0  0  0
  -27.6682  -13.2052   19.8814 C   0  0  2  0  0  0
  -28.7069  -12.9526   20.9974 C   0  0  0  0  0  0
  -25.2616  -13.8162   20.5691 C   0  0  0  0  0  0
  -24.1853  -13.0447   20.9165 C   0  0  0  0  0  0
  -24.6401  -11.6907   20.8727 C   0  0  0  0  0  0
  -23.9065  -10.4297   21.0401 C   0  0  0  0  0  0
  -24.3615   -9.4211   21.9182 C   0  0  0  0  0  0
  -23.6292   -8.2248   22.0754 C   0  0  0  0  0  0
  -22.4273   -8.0283   21.3546 C   0  0  0  0  0  0
  -21.9906   -9.0255   20.4649 C   0  0  0  0  0  0
  -22.7234  -10.2135   20.3052 C   0  0  0  0  0  0
  -21.6853   -6.0739   22.5278 C   0  0  0  0  0  0
  -21.4012   -6.5643   23.8213 C   0  0  0  0  0  0
  -21.3658   -5.6792   24.9174 C   0  0  0  0  0  0
  -21.6048   -4.3056   24.7221 C   0  0  0  0  0  0
  -21.8817   -3.8147   23.4344 C   0  0  0  0  0  0
  -21.9194   -4.6965   22.3401 C   0  0  0  0  0  0
  -22.7874  -13.5246   21.1835 C   0  0  0  0  0  0
  -22.1660   -4.2152   21.0981 F   0  0  0  0  0  0
  -21.5629   -3.4539   25.7736 F   0  0  0  0  0  0
  -30.0552  -13.2335   20.4632 N   0  0  0  0  0  0
  -26.3064  -12.9340   20.3400 N   0  0  0  0  0  0
  -25.9336  -11.6495   20.5773 N   0  0  0  0  0  0
  -22.0509  -12.8238   22.0386 N   0  0  0  0  0  0
  -25.4354  -15.1882   20.4107 N   0  0  0  0  0  0
  -31.7870  -14.6409   20.0205 O   0  0  0  0  0  0
  -21.6639   -6.8878   21.4242 O   0  0  0  0  0  0
  -22.3564  -14.5558   20.6692 O   0  0  0  0  0  0
  -24.6038  -31.8738   23.2133 C   0  0  0  0  0  0
  -25.8982  -32.4845   23.8391 C   0  0  1  0  0  0
  -27.2602  -27.4921   20.0895 C   0  0  0  0  0  0
  -25.5865  -33.8642   24.2344 N   0  0  0  0  0  0
  -23.3886  -30.4908   21.5544 C   0  0  2  0  0  0
  -24.8400  -28.9551   20.1223 C   0  0  0  0  0  0
  -22.7349  -29.4654   22.5052 C   0  0  0  0  0  0
  -18.0242  -28.1347   22.8520 C   0  0  0  0  0  0
  -24.1473  -36.7325   23.2622 C   0  0  0  0  0  0
  -25.9088  -30.8477   21.3648 C   0  0  0  0  0  0
  -25.9878  -29.4806   20.7270 C   0  0  0  0  0  0
  -27.1838  -28.7421   20.7422 C   0  0  0  0  0  0
  -26.0935  -26.9618   19.4983 C   0  0  0  0  0  0
  -24.8823  -27.6850   19.5160 C   0  0  0  0  0  0
  -23.5981  -29.8164   20.1697 C   0  0  0  0  0  0
  -25.4100  -36.3140   24.0348 C   0  0  1  0  0  0
  -20.5814  -28.3626   23.1358 C   0  0  2  0  0  0
  -20.6734  -26.9377   22.5436 C   0  0  0  0  0  0
  -19.5741  -26.6373   21.5214 C   0  0  0  0  0  0
  -18.1906  -26.7904   22.1600 C   0  0  0  0  0  0
  -19.1483  -28.8801   23.2941 C   0  0  0  0  0  0
  -18.9421  -30.1431   23.8921 C   0  0  0  0  0  0
  -17.6419  -30.6573   24.0547 C   0  0  0  0  0  0
  -25.9020  -34.9513   23.5152 C   0  0  0  0  0  0
  -16.5310  -29.9066   23.6326 C   0  0  0  0  0  0
  -16.7233  -28.6468   23.0366 C   0  0  0  0  0  0
  -26.4469  -31.6588   25.0675 C   0  0  0  0  0  0
  -25.3761  -31.3663   26.1441 C   0  0  0  0  0  0
  -27.0320  -30.3024   24.6055 C   0  0  0  0  0  0
  -27.6084  -32.4252   25.7428 C   0  0  0  0  0  0
  -27.5622  -37.1795   24.8450 C   0  0  0  0  0  0
  -21.4083  -29.2998   22.3773 N   0  0  0  0  0  0
  -26.4299  -37.3836   23.9430 N   0  0  0  0  0  0
  -24.6514  -31.0851   22.1034 N   0  0  0  0  0  0
  -23.4159  -28.8218   23.3092 O   0  0  0  0  0  0
  -28.4258  -26.7593   20.0593 O   0  0  0  0  0  0
  -26.5595  -34.8970   22.4718 O   0  0  0  0  0  0
  -23.5258  -32.1514   23.7543 O   0  0  0  0  0  0
  -34.8442  -32.4031   19.5532 C   0  0  0  0  0  0
  -32.5993  -18.1062   22.4391 C   0  0  0  0  0  0
  -33.6268  -31.8242   19.1543 C   0  0  0  0  0  0
  -32.1977  -16.8222   21.9866 C   0  0  0  0  0  0
  -34.7339  -31.1816   21.6521 C   0  0  0  0  0  0
  -35.4109  -32.0885   20.8044 C   0  0  0  0  0  0
  -30.4696  -18.3899   23.4161 C   0  0  0  0  0  0
  -30.0102  -17.1589   22.9460 C   0  0  0  0  0  0
  -33.5084  -30.5964   21.2576 C   0  0  0  0  0  0
  -31.7313  -18.9651   23.1627 C   0  0  0  0  0  0
  -30.8778  -16.3420   22.2013 C   0  0  0  0  0  0
  -32.9526  -30.9135   19.9900 C   0  0  0  0  0  0
  -36.7025  -32.7415   21.2096 C   0  0  0  0  0  0
  -28.5405  -17.0480   23.2933 C   0  0  0  0  0  0
  -28.1192  -18.4651   23.7168 C   0  0  0  0  0  0
  -29.5532  -20.6256   23.8546 C   0  0  0  0  0  0
  -30.9836  -21.1272   24.1458 C   0  0  0  0  0  0
  -29.4182  -19.1326   24.2082 C   0  0  2  0  0  0
  -32.8002  -29.6730   22.2316 C   0  0  0  0  0  0
  -28.6979  -19.6312   26.6765 C   0  0  0  0  0  0
  -40.3777  -25.3001   18.4476 C   0  0  0  0  0  0
  -29.6233  -18.8536   25.7253 C   0  0  0  0  0  0
  -34.6277  -23.2031   20.3493 C   0  0  0  0  0  0
  -35.9718  -23.8682   20.0040 C   0  0  0  0  0  0
  -34.6624  -22.3940   21.6585 C   0  0  0  0  0  0
  -39.4144  -30.5121   20.1120 C   0  0  0  0  0  0
  -35.9224  -24.6450   18.6723 C   0  0  0  0  0  0
  -39.9478  -30.2586   18.6938 C   0  0  0  0  0  0
  -33.3474  -21.6372   21.9185 C   0  0  0  0  0  0
  -39.7352  -31.9125   20.6631 C   0  0  0  0  0  0
  -37.3082  -24.9918   18.0915 C   0  0  0  0  0  0
  -39.4145  -28.9398   18.1020 C   0  0  0  0  0  0
  -30.1551  -28.5771   19.9017 C   0  0  0  0  0  0
  -33.3390  -20.8936   23.2660 C   0  0  0  0  0  0
  -39.0002  -32.2256   21.9865 C   0  0  0  0  0  0
  -31.5138  -29.0050   19.3229 C   0  0  0  0  0  0
  -38.0721  -26.0932   18.8631 C   0  0  0  0  0  0
  -39.9746  -27.6844   18.8033 C   0  0  0  0  0  0
  -29.5291  -27.2940   19.3113 C   0  0  0  0  0  0
  -32.0400  -20.2878   23.5609 N   0  0  0  0  0  0
  -30.3854  -15.0912   21.7362 N   0  0  0  0  0  0
  -31.7138  -30.4366   19.5435 N   0  0  0  0  0  0
  -37.5654  -31.9654   21.8752 N   0  0  0  0  0  0
  -39.4088  -26.4116   18.2817 N   0  3  1  0  0  0
  -36.9797  -33.8825   20.8315 O   0  0  0  0  0  0
  -31.4579  -12.3759   19.0916 H   0  0  0  0  0  0
  -30.3031  -11.2642   19.7625 H   0  0  0  0  0  0
  -29.7166  -11.8283   17.3909 H   0  0  0  0  0  0
  -29.6531  -13.5273   17.7893 H   0  0  0  0  0  0
  -27.8189  -11.3239   18.7941 H   0  0  0  0  0  0
  -27.3537  -12.6712   17.7890 H   0  0  0  0  0  0
  -27.7258  -14.2590   19.6077 H   0  0  0  0  0  0
  -28.6647  -11.9115   21.3216 H   0  0  0  0  0  0
  -28.4534  -13.5386   21.8809 H   0  0  0  0  0  0
  -25.2761   -9.5688   22.4748 H   0  0  0  0  0  0
  -24.0003   -7.4640   22.7471 H   0  0  0  0  0  0
  -21.0834   -8.8770   19.8953 H   0  0  0  0  0  0
  -22.3694  -10.9669   19.6154 H   0  0  0  0  0  0
  -21.2000   -7.6150   23.9716 H   0  0  0  0  0  0
  -21.1483   -6.0524   25.9078 H   0  0  0  0  0  0
  -22.0597   -2.7612   23.2844 H   0  0  0  0  0  0
  -22.4114  -11.9893   22.4770 H   0  0  0  0  0  0
  -21.1136  -13.1279   22.2592 H   0  0  0  0  0  0
  -24.6720  -15.8476   20.5170 H   0  0  0  0  0  0
  -26.2952  -15.6247   20.1008 H   0  0  0  0  0  0
  -26.6986  -32.5593   23.1134 H   0  0  0  0  0  0
  -25.0064  -33.9774   25.0508 H   0  0  0  0  0  0
  -22.6734  -31.3047   21.4137 H   0  0  0  0  0  0
  -23.3765  -35.9630   23.3259 H   0  0  0  0  0  0
  -24.3544  -36.8934   22.2027 H   0  0  0  0  0  0
  -23.7188  -37.6520   23.6631 H   0  0  0  0  0  0
  -26.0121  -31.6064   20.5857 H   0  0  0  0  0  0
  -26.7990  -30.9059   21.9804 H   0  0  0  0  0  0
  -28.0363  -29.1428   21.2690 H   0  0  0  0  0  0
  -26.1284  -25.9940   19.0143 H   0  0  0  0  0  0
  -23.9974  -27.2679   19.0560 H   0  0  0  0  0  0
  -23.7058  -30.5869   19.4044 H   0  0  0  0  0  0
  -22.7259  -29.2263   19.8848 H   0  0  0  0  0  0
  -25.1280  -36.2021   25.0842 H   0  0  0  0  0  0
  -20.9932  -28.3172   24.1456 H   0  0  0  0  0  0
  -20.5625  -26.2219   23.3596 H   0  0  0  0  0  0
  -21.6607  -26.7424   22.1234 H   0  0  0  0  0  0
  -19.6902  -25.6289   21.1230 H   0  0  0  0  0  0
  -19.6681  -27.3191   20.6754 H   0  0  0  0  0  0
  -17.4200  -26.6694   21.3960 H   0  0  0  0  0  0
  -18.0262  -26.0001   22.8934 H   0  0  0  0  0  0
  -19.7907  -30.7264   24.2250 H   0  0  0  0  0  0
  -17.4968  -31.6250   24.5150 H   0  0  0  0  0  0
  -15.5306  -30.2963   23.7629 H   0  0  0  0  0  0
  -15.8641  -28.0790   22.7066 H   0  0  0  0  0  0
  -24.6008  -30.6896   25.7796 H   0  0  0  0  0  0
  -24.8871  -32.2803   26.4825 H   0  0  0  0  0  0
  -25.8172  -30.8935   27.0230 H   0  0  0  0  0  0
  -26.2844  -29.6693   24.1268 H   0  0  0  0  0  0
  -27.4230  -29.7357   25.4520 H   0  0  0  0  0  0
  -27.8597  -30.4260   23.9075 H   0  0  0  0  0  0
  -27.2796  -33.3587   26.1965 H   0  0  0  0  0  0
  -28.3986  -32.6675   25.0316 H   0  0  0  0  0  0
  -28.0682  -31.8362   26.5373 H   0  0  0  0  0  0
  -28.2638  -38.0105   24.7600 H   0  0  0  0  0  0
  -28.1146  -36.2670   24.6177 H   0  0  0  0  0  0
  -27.2345  -37.1290   25.8846 H   0  0  0  0  0  0
  -20.9192  -29.8649   21.6979 H   0  0  0  0  0  0
  -26.0227  -38.2928   24.1467 H   0  0  0  0  0  0
  -35.3419  -33.0953   18.8894 H   0  0  0  0  0  0
  -33.6011  -18.4227   22.1907 H   0  0  0  0  0  0
  -33.2072  -32.1007   18.1973 H   0  0  0  0  0  0
  -32.9259  -16.2308   21.4511 H   0  0  0  0  0  0
  -35.1451  -30.9545   22.6252 H   0  0  0  0  0  0
  -28.4236  -16.3424   24.1160 H   0  0  0  0  0  0
  -27.9550  -16.6842   22.4487 H   0  0  0  0  0  0
  -27.2947  -18.4795   24.4285 H   0  0  0  0  0  0
  -27.7697  -18.9853   22.8239 H   0  0  0  0  0  0
  -29.3448  -20.7703   22.7930 H   0  0  0  0  0  0
  -28.8165  -21.2299   24.3840 H   0  0  0  0  0  0
  -31.1418  -21.1835   25.2237 H   0  0  0  0  0  0
  -31.0830  -22.1496   23.7778 H   0  0  0  0  0  0
  -33.1056  -29.8631   23.2609 H   0  0  0  0  0  0
  -33.0314  -28.6369   21.9890 H   0  0  0  0  0  0
  -31.7215  -29.8100   22.1875 H   0  0  0  0  0  0
  -28.8704  -19.3252   27.7083 H   0  0  0  0  0  0
  -27.6448  -19.4573   26.4596 H   0  0  0  0  0  0
  -28.8786  -20.7047   26.6279 H   0  0  0  0  0  0
  -40.0464  -24.3873   17.9567 H   0  0  0  0  0  0
  -40.5367  -25.0808   19.5036 H   0  0  0  0  0  0
  -41.3436  -25.5515   18.0088 H   0  0  0  0  0  0
  -30.6554  -19.0685   26.0039 H   0  0  0  0  0  0
  -29.4991  -17.7871   25.9168 H   0  0  0  0  0  0
  -34.3394  -22.5402   19.5318 H   0  0  0  0  0  0
  -33.8491  -23.9652   20.4135 H   0  0  0  0  0  0
  -36.7396  -23.0955   19.9462 H   0  0  0  0  0  0
  -36.2707  -24.5381   20.8111 H   0  0  0  0  0  0
  -34.8659  -23.0678   22.4927 H   0  0  0  0  0  0
  -35.4875  -21.6806   21.6320 H   0  0  0  0  0  0
  -39.8056  -29.7693   20.8064 H   0  0  0  0  0  0
  -38.3361  -30.3633   20.0826 H   0  0  0  0  0  0
  -35.3203  -25.5482   18.7836 H   0  0  0  0  0  0
  -35.4024  -24.0334   17.9333 H   0  0  0  0  0  0
  -41.0386  -30.2764   18.6851 H   0  0  0  0  0  0
  -39.6282  -31.0773   18.0451 H   0  0  0  0  0  0
  -33.1714  -20.9262   21.1098 H   0  0  0  0  0  0
  -32.5207  -22.3477   21.8873 H   0  0  0  0  0  0
  -39.4742  -32.6705   19.9213 H   0  0  0  0  0  0
  -40.8106  -32.0092   20.8119 H   0  0  0  0  0  0
  -37.1779  -25.3159   17.0577 H   0  0  0  0  0  0
  -37.8887  -24.0715   18.0437 H   0  0  0  0  0  0
  -39.6719  -28.9023   17.0423 H   0  0  0  0  0  0
  -38.3248  -28.9546   18.1430 H   0  0  0  0  0  0
  -29.4693  -29.4015   19.7146 H   0  0  0  0  0  0
  -30.2470  -28.4694   20.9828 H   0  0  0  0  0  0
  -33.5658  -21.6036   24.0634 H   0  0  0  0  0  0
  -34.1396  -20.1547   23.3091 H   0  0  0  0  0  0
  -39.1725  -33.2622   22.2786 H   0  0  0  0  0  0
  -39.4053  -31.6100   22.7909 H   0  0  0  0  0  0
  -31.5181  -28.8400   18.2437 H   0  0  0  0  0  0
  -32.3201  -28.3944   19.7323 H   0  0  0  0  0  0
  -38.1963  -25.8058   19.9079 H   0  0  0  0  0  0
  -37.4523  -26.9908   18.8713 H   0  0  0  0  0  0
  -39.8114  -27.7227   19.8805 H   0  0  0  0  0  0
  -41.0574  -27.6952   18.6685 H   0  0  0  0  0  0
  -30.2893  -26.5146   19.2723 H   0  0  0  0  0  0
  -29.2126  -27.4609   18.2811 H   0  0  0  0  0  0
  -29.5493  -14.7496   22.1855 H   0  0  0  0  0  0
  -31.3395  -30.9902   18.7762 H   0  0  0  0  0  0
  -37.2403  -31.0464   22.1432 H   0  0  0  0  0  0
  -39.2904  -26.5414   17.2876 H   0  0  0  0  0  0
  1 25  1  0  0  0
  1 30  2  0  0  0
  1111  1  0  0  0
  2  3  1  0  0  0
  2 25  1  0  0  0
  2116  1  0  0  0
  2117  1  0  0  0
  3  4  1  0  0  0
  3118  1  0  0  0
  3119  1  0  0  0
  4  5  1  0  0  0
  4120  1  0  0  0
  4121  1  0  0  0
  5  6  1  0  0  0
  5 26  1  0  0  0
  5122  1  0  0  0
  6 25  1  0  0  0
  6123  1  0  0  0
  6124  1  0  0  0
  7  8  2  0  0  0
  7 26  1  0  0  0
  7 29  1  0  0  0
  8  9  1  0  0  0
  8 22  1  0  0  0
  9 10  1  0  0  0
  9 27  2  0  0  0
 10 11  2  0  0  0
 10 15  1  0  0  0
 11 12  1  0  0  0
 11125  1  0  0  0
 12 13  2  0  0  0
 12126  1  0  0  0
 13 14  1  0  0  0
 13 31  1  0  0  0
 14 15  2  0  0  0
 14127  1  0  0  0
 15128  1  0  0  0
 16 17  2  0  0  0
 16 21  1  0  0  0
 16 31  1  0  0  0
 17 18  1  0  0  0
 17129  1  0  0  0
 18 19  2  0  0  0
 18130  1  0  0  0
 19 20  1  0  0  0
 19 24  1  0  0  0
 20 21  2  0  0  0
 20131  1  0  0  0
 21 23  1  0  0  0
 22 28  1  0  0  0
 22 32  2  0  0  0
 26 27  1  0  0  0
 28132  1  0  0  0
 28133  1  0  0  0
 29134  1  0  0  0
 29135  1  0  0  0
 33 34  1  0  0  0
 33 66  1  0  0  0
 33 70  2  0  0  0
 34 36  1  0  0  0
 34 59  1  0  0  0
 34136  1  0  0  0
 35 44  2  0  0  0
 35 45  1  0  0  0
 35 68  1  0  0  0
 36 56  1  0  0  0
 36137  1  0  0  0
 37 39  1  0  0  0
 37 47  1  0  0  0
 37 66  1  0  0  0
 37138  1  0  0  0
 38 43  2  0  0  0
 38 46  1  0  0  0
 38 47  1  0  0  0
 39 64  1  0  0  0
 39 67  2  0  0  0
 40 52  1  0  0  0
 40 53  2  0  0  0
 40 58  1  0  0  0
 41139  1  0  0  0
 41140  1  0  0  0
 41141  1  0  0  0
 41 48  1  0  0  0
 42 43  1  0  0  0
 42 66  1  0  0  0
 42142  1  0  0  0
 42143  1  0  0  0
 43 44  1  0  0  0
 44144  1  0  0  0
 45 46  2  0  0  0
 45145  1  0  0  0
 46146  1  0  0  0
 47147  1  0  0  0
 47148  1  0  0  0
 48 56  1  0  0  0
 48 65  1  0  0  0
 48149  1  0  0  0
 49 50  1  0  0  0
 49 53  1  0  0  0
 49 64  1  0  0  0
 49150  1  0  0  0
 50 51  1  0  0  0
 50151  1  0  0  0
 50152  1  0  0  0
 51 52  1  0  0  0
 51153  1  0  0  0
 51154  1  0  0  0
 52155  1  0  0  0
 52156  1  0  0  0
 53 54  1  0  0  0
 54 55  2  0  0  0
 54157  1  0  0  0
 55 57  1  0  0  0
 55158  1  0  0  0
 56 69  2  0  0  0
 57 58  2  0  0  0
 57159  1  0  0  0
 58160  1  0  0  0
 59 60  1  0  0  0
 59 61  1  0  0  0
 59 62  1  0  0  0
 60161  1  0  0  0
 60162  1  0  0  0
 60163  1  0  0  0
 61164  1  0  0  0
 61165  1  0  0  0
 61166  1  0  0  0
 62167  1  0  0  0
 62168  1  0  0  0
 62169  1  0  0  0
 63 65  1  0  0  0
 63170  1  0  0  0
 63171  1  0  0  0
 63172  1  0  0  0
 64173  1  0  0  0
 65174  1  0  0  0
 68109  1  0  0  0
 71 73  2  0  0  0
 71 76  1  0  0  0
 71175  1  0  0  0
 72 74  2  0  0  0
 72 80  1  0  0  0
 72176  1  0  0  0
 73 82  1  0  0  0
 73177  1  0  0  0
 74 81  1  0  0  0
 74178  1  0  0  0
 75 76  2  0  0  0
 75 79  1  0  0  0
 75179  1  0  0  0
 76 83  1  0  0  0
 77 78  1  0  0  0
 77 80  2  0  0  0
 77 88  1  0  0  0
 78 81  2  0  0  0
 78 84  1  0  0  0
 79 82  2  0  0  0
 79 89  1  0  0  0
 80110  1  0  0  0
 81111  1  0  0  0
 82112  1  0  0  0
 83113  1  0  0  0
 83115  2  0  0  0
 84 85  1  0  0  0
 84180  1  0  0  0
 84181  1  0  0  0
 85 88  1  0  0  0
 85182  1  0  0  0
 85183  1  0  0  0
 86 87  1  0  0  0
 86 88  1  0  0  0
 86184  1  0  0  0
 86185  1  0  0  0
 87110  1  0  0  0
 87186  1  0  0  0
 87187  1  0  0  0
 88 92  1  0  0  0
 89188  1  0  0  0
 89189  1  0  0  0
 89190  1  0  0  0
 90 92  1  0  0  0
 90191  1  0  0  0
 90192  1  0  0  0
 90193  1  0  0  0
 91194  1  0  0  0
 91195  1  0  0  0
 91196  1  0  0  0
 91114  1  0  0  0
 92197  1  0  0  0
 92198  1  0  0  0
 93 94  1  0  0  0
 93 95  1  0  0  0
 93199  1  0  0  0
 93200  1  0  0  0
 94 97  1  0  0  0
 94201  1  0  0  0
 94202  1  0  0  0
 95 99  1  0  0  0
 95203  1  0  0  0
 95204  1  0  0  0
 96 98  1  0  0  0
 96100  1  0  0  0
 96205  1  0  0  0
 96206  1  0  0  0
 97101  1  0  0  0
 97207  1  0  0  0
 97208  1  0  0  0
 98102  1  0  0  0
 98209  1  0  0  0
 98210  1  0  0  0
 99104  1  0  0  0
 99211  1  0  0  0
 99212  1  0  0  0
100105  1  0  0  0
100213  1  0  0  0
100214  1  0  0  0
101107  1  0  0  0
101215  1  0  0  0
101216  1  0  0  0
102108  1  0  0  0
102217  1  0  0  0
102218  1  0  0  0
103106  1  0  0  0
103109  1  0  0  0
103219  1  0  0  0
103220  1  0  0  0
104110  1  0  0  0
104221  1  0  0  0
104222  1  0  0  0
105113  1  0  0  0
105223  1  0  0  0
105224  1  0  0  0
106112  1  0  0  0
106225  1  0  0  0
106226  1  0  0  0
107114  1  0  0  0
107227  1  0  0  0
107228  1  0  0  0
108114  1  0  0  0
108229  1  0  0  0
108230  1  0  0  0
109231  1  0  0  0
109232  1  0  0  0
111233  1  0  0  0
112234  1  0  0  0
113235  1  0  0  0
114236  1  0  0  0
M  CHG  1 114   1
M  ISO  4   1 100  68 101 109 101 111 100
M  END
> <chiral flag>
0

> <version>
0

> <s_m_source_file>
/data/baiqing/PycharmProjects/Reinvent-master-3.2/result/LINK_invent/BTK/process_docking_weight1_custom_product_contain_oxygen_bond_distance_aromatic_linkinvent_7_9_3/rearranged_h_0005.sdf

> <i_m_source_file_index>
4

> <r_mmod_Potential_Energy-OPLS-2005>
-118.565170288086

> <r_mmod_Stretch_Energy-OPLS-2005>
44.0649070739746

> <r_mmod_Bend_Energy-OPLS-2005>
192.964050292969

> <r_mmod_Torsional_Energy-OPLS-2005>
298.566467285156

> <r_mmod_Improper_Torsional_Energy-OPLS-2005>
8.78858375549316

> <r_mmod_Van_der_Waal_Energy-OPLS-2005>
191.690887451172

> <r_mmod_Electrostatic_Energy-OPLS-2005>
-367.252471923828

> <r_mmod_Solvation_Energy-OPLS-2005>
-493.600311279297

> <b_mmod_Minimization_Converged-OPLS-2005>
0

> <r_mmod_RMS_Derivative-OPLS-2005>
3.0347044467926

$$$$
4
                    3D
 Structure written by MMmdl.
172182  0  0  1  0            999 V2000
  -30.6786  -14.5349   20.4833 C   0  0  0  0  0  0
  -30.4204  -12.3207   19.4332 C   0  0  0  0  0  0
  -29.4921  -12.4775   18.2105 C   0  0  0  0  0  0
  -28.0131  -12.3423   18.6275 C   0  0  0  0  0  0
  -27.6496  -13.2068   19.8657 C   0  0  2  0  0  0
  -28.7015  -13.0565   20.9895 C   0  0  0  0  0  0
  -25.2559  -13.8156   20.5721 C   0  0  0  0  0  0
  -24.1806  -13.0436   20.9193 C   0  0  0  0  0  0
  -24.6370  -11.6904   20.8761 C   0  0  0  0  0  0
  -23.9048  -10.4291   21.0418 C   0  0  0  0  0  0
  -24.3604   -9.4208   21.9185 C   0  0  0  0  0  0
  -23.6286   -8.2238   22.0745 C   0  0  0  0  0  0
  -22.4273   -8.0274   21.3532 C   0  0  0  0  0  0
  -21.9902   -9.0250   20.4639 C   0  0  0  0  0  0
  -22.7226  -10.2130   20.3063 C   0  0  0  0  0  0
  -21.6853   -6.0741   22.5280 C   0  0  0  0  0  0
  -21.4006   -6.5646   23.8215 C   0  0  0  0  0  0
  -21.3660   -5.6791   24.9174 C   0  0  0  0  0  0
  -21.6044   -4.3053   24.7229 C   0  0  0  0  0  0
  -21.8816   -3.8152   23.4346 C   0  0  0  0  0  0
  -21.9189   -4.6971   22.3402 C   0  0  0  0  0  0
  -22.7829  -13.5237   21.1855 C   0  0  0  0  0  0
  -22.1665   -4.2164   21.0982 F   0  0  0  0  0  0
  -21.5630   -3.4534   25.7741 F   0  0  0  0  0  0
  -30.0210  -13.3443   20.4098 N   0  0  0  0  0  0
  -26.2979  -12.9317   20.3383 N   0  0  0  0  0  0
  -25.9297  -11.6485   20.5805 N   0  0  0  0  0  0
  -22.0480  -12.8221   22.0411 N   0  0  0  0  0  0
  -25.4287  -15.1872   20.4155 N   0  0  0  0  0  0
  -31.8769  -14.6483   20.2087 O   0  0  0  0  0  0
  -21.6636   -6.8874   21.4239 O   0  0  0  0  0  0
  -22.3511  -14.5545   20.6716 O   0  0  0  0  0  0
  -24.6183  -31.8662   23.2088 C   0  0  0  0  0  0
  -25.9062  -32.4811   23.8383 C   0  0  1  0  0  0
  -27.2237  -27.3846   20.0976 C   0  0  0  0  0  0
  -25.5906  -33.8610   24.2313 N   0  0  0  0  0  0
  -23.4070  -30.4918   21.5509 C   0  0  2  0  0  0
  -24.8491  -28.9568   20.1136 C   0  0  0  0  0  0
  -22.7429  -29.4653   22.4970 C   0  0  0  0  0  0
  -18.0276  -28.1380   22.8491 C   0  0  0  0  0  0
  -24.1488  -36.7311   23.2635 C   0  0  0  0  0  0
  -25.9418  -30.8149   21.3712 C   0  0  0  0  0  0
  -26.0127  -29.4464   20.7176 C   0  0  0  0  0  0
  -27.1975  -28.6668   20.7099 C   0  0  0  0  0  0
  -26.0373  -26.9376   19.4645 C   0  0  0  0  0  0
  -24.8597  -27.7042   19.4844 C   0  0  0  0  0  0
  -23.6159  -29.8301   20.1641 C   0  0  0  0  0  0
  -25.4110  -36.3107   24.0333 C   0  0  1  0  0  0
  -20.5872  -28.3672   23.1305 C   0  0  2  0  0  0
  -20.6768  -26.9402   22.5415 C   0  0  0  0  0  0
  -19.5745  -26.6382   21.5213 C   0  0  0  0  0  0
  -18.1921  -26.7926   22.1624 C   0  0  0  0  0  0
  -19.1528  -28.8841   23.2897 C   0  0  0  0  0  0
  -18.9453  -30.1444   23.8911 C   0  0  0  0  0  0
  -17.6457  -30.6585   24.0566 C   0  0  0  0  0  0
  -25.9045  -34.9472   23.5129 C   0  0  0  0  0  0
  -16.5348  -29.9088   23.6326 C   0  0  0  0  0  0
  -16.7265  -28.6503   23.0348 C   0  0  0  0  0  0
  -26.4479  -31.6595   25.0721 C   0  0  0  0  0  0
  -25.3734  -31.3700   26.1461 C   0  0  0  0  0  0
  -27.0306  -30.3031   24.6113 C   0  0  0  0  0  0
  -27.6057  -32.4305   25.7485 C   0  0  0  0  0  0
  -27.5584  -37.1807   24.8464 C   0  0  0  0  0  0
  -21.4153  -29.3038   22.3713 N   0  0  0  0  0  0
  -26.4295  -37.3791   23.9414 N   0  0  0  0  0  0
  -24.6740  -31.0727   22.1017 N   0  0  0  0  0  0
  -23.4185  -28.8188   23.3018 O   0  0  0  0  0  0
  -28.3942  -26.6317   20.1471 O   0  0  0  0  0  0
  -26.5605  -34.8926   22.4691 O   0  0  0  0  0  0
  -23.5365  -32.1430   23.7457 O   0  0  0  0  0  0
  -29.3393  -19.3035   21.3018 C   0  0  0  0  0  0
  -28.8495  -20.0712   19.0245 C   0  0  0  0  0  0
  -29.5629  -18.0018   20.7796 C   0  0  0  0  0  0
  -29.4376  -17.7545   19.4285 C   0  0  0  0  0  0
  -28.9574  -20.3584   20.4144 C   0  0  0  0  0  0
  -29.0939  -18.7723   18.5219 C   0  0  0  0  0  0
  -29.9018  -16.6987   21.4930 C   0  0  0  0  0  0
  -29.6826  -16.2968   19.1399 C   0  0  0  0  0  0
  -25.0447  -19.9654   23.2324 C   0  0  0  0  0  0
  -24.1522  -19.9666   21.9927 C   0  0  0  0  0  0
  -26.2122  -20.8893   22.8775 C   0  0  0  0  0  0
  -24.8050  -20.9805   21.0561 C   0  0  0  0  0  0
  -27.0063  -21.9659   20.8207 C   0  0  0  0  0  0
  -29.0809  -24.2805   20.7837 C   0  0  0  0  0  0
  -28.4198  -25.2335   19.7403 C   0  0  0  0  0  0
  -28.5450  -21.7590   20.9467 C   0  0  2  0  0  0
  -29.8742  -15.6314   20.4533 N   0  0  0  0  0  0
  -26.2147  -20.8848   21.4166 N   0  0  0  0  0  0
  -29.2949  -22.8747   20.2859 N   0  3  0  0  0  0
  -28.9437  -18.4437   16.8333 Cl  0  0  0  0  0  0
  -31.4653  -12.4180   19.1320 H   0  0  0  0  0  0
  -30.3219  -11.3252   19.8687 H   0  0  0  0  0  0
  -29.7352  -11.7286   17.4560 H   0  0  0  0  0  0
  -29.6577  -13.4476   17.7397 H   0  0  0  0  0  0
  -27.8319  -11.2899   18.8487 H   0  0  0  0  0  0
  -27.3605  -12.5896   17.7892 H   0  0  0  0  0  0
  -27.6589  -14.2405   19.5332 H   0  0  0  0  0  0
  -28.6888  -12.0465   21.4018 H   0  0  0  0  0  0
  -28.4801  -13.7304   21.8189 H   0  0  0  0  0  0
  -25.2750   -9.5695   22.4751 H   0  0  0  0  0  0
  -24.0011   -7.4632   22.7456 H   0  0  0  0  0  0
  -21.0832   -8.8769   19.8941 H   0  0  0  0  0  0
  -22.3685  -10.9670   19.6171 H   0  0  0  0  0  0
  -21.1994   -7.6153   23.9726 H   0  0  0  0  0  0
  -21.1484   -6.0518   25.9074 H   0  0  0  0  0  0
  -22.0593   -2.7620   23.2840 H   0  0  0  0  0  0
  -22.4116  -11.9876   22.4767 H   0  0  0  0  0  0
  -21.1098  -13.1224   22.2652 H   0  0  0  0  0  0
  -24.6641  -15.8415   20.5356 H   0  0  0  0  0  0
  -26.2941  -15.6338   20.1383 H   0  0  0  0  0  0
  -26.7130  -32.5503   23.1137 H   0  0  0  0  0  0
  -25.0060  -33.9762   25.0461 H   0  0  0  0  0  0
  -22.6979  -31.3107   21.4137 H   0  0  0  0  0  0
  -23.3750  -35.9644   23.3302 H   0  0  0  0  0  0
  -24.3583  -36.8925   22.2050 H   0  0  0  0  0  0
  -23.7240  -37.6516   23.6652 H   0  0  0  0  0  0
  -26.0610  -31.5764   20.5992 H   0  0  0  0  0  0
  -26.8283  -30.8663   21.9915 H   0  0  0  0  0  0
  -28.0925  -29.0386   21.1891 H   0  0  0  0  0  0
  -25.9686  -26.0058   18.9288 H   0  0  0  0  0  0
  -23.9682  -27.3284   18.9995 H   0  0  0  0  0  0
  -23.7290  -30.6078   19.4078 H   0  0  0  0  0  0
  -22.7372  -29.2552   19.8652 H   0  0  0  0  0  0
  -25.1287  -36.1974   25.0824 H   0  0  0  0  0  0
  -20.9961  -28.3244   24.1427 H   0  0  0  0  0  0
  -20.5678  -26.2279   23.3605 H   0  0  0  0  0  0
  -21.6640  -26.7443   22.1205 H   0  0  0  0  0  0
  -19.6911  -25.6296   21.1237 H   0  0  0  0  0  0
  -19.6688  -27.3199   20.6749 H   0  0  0  0  0  0
  -17.4193  -26.6669   21.4027 H   0  0  0  0  0  0
  -18.0329  -26.0067   22.9018 H   0  0  0  0  0  0
  -19.7930  -30.7255   24.2293 H   0  0  0  0  0  0
  -17.5012  -31.6269   24.5159 H   0  0  0  0  0  0
  -15.5351  -30.2997   23.7640 H   0  0  0  0  0  0
  -15.8663  -28.0830   22.7058 H   0  0  0  0  0  0
  -24.5928  -30.7025   25.7798 H   0  0  0  0  0  0
  -24.8896  -32.2846   26.4896 H   0  0  0  0  0  0
  -25.8078  -30.8884   27.0231 H   0  0  0  0  0  0
  -26.2853  -29.6799   24.1159 H   0  0  0  0  0  0
  -27.4061  -29.7264   25.4577 H   0  0  0  0  0  0
  -27.8701  -30.4348   23.9282 H   0  0  0  0  0  0
  -27.2695  -33.3606   26.2079 H   0  0  0  0  0  0
  -28.3861  -32.6856   25.0302 H   0  0  0  0  0  0
  -28.0735  -31.8411   26.5382 H   0  0  0  0  0  0
  -28.2596  -38.0109   24.7524 H   0  0  0  0  0  0
  -28.1082  -36.2641   24.6278 H   0  0  0  0  0  0
  -27.2299  -37.1449   25.8864 H   0  0  0  0  0  0
  -20.9313  -29.8772   21.6945 H   0  0  0  0  0  0
  -26.0185  -38.2870   24.1415 H   0  0  0  0  0  0
  -29.4065  -19.4769   22.3669 H   0  0  0  0  0  0
  -28.5386  -20.8355   18.3280 H   0  0  0  0  0  0
  -29.1662  -16.4886   22.2698 H   0  0  0  0  0  0
  -30.8846  -16.7739   21.9622 H   0  0  0  0  0  0
  -30.5597  -16.2005   18.4964 H   0  0  0  0  0  0
  -28.8332  -15.8789   18.6021 H   0  0  0  0  0  0
  -25.3986  -18.9551   23.4443 H   0  0  0  0  0  0
  -24.5153  -20.3216   24.1176 H   0  0  0  0  0  0
  -23.1180  -20.2287   22.2200 H   0  0  0  0  0  0
  -24.1487  -18.9768   21.5327 H   0  0  0  0  0  0
  -27.1559  -20.5418   23.3020 H   0  0  0  0  0  0
  -26.0180  -21.8939   23.2606 H   0  0  0  0  0  0
  -24.4203  -21.9830   21.2585 H   0  0  0  0  0  0
  -24.6261  -20.7525   20.0041 H   0  0  0  0  0  0
  -26.7505  -22.0251   19.7613 H   0  0  0  0  0  0
  -26.7043  -22.9176   21.2603 H   0  0  0  0  0  0
  -28.5084  -24.2844   21.7118 H   0  0  0  0  0  0
  -30.0599  -24.6842   21.0426 H   0  0  0  0  0  0
  -27.4467  -24.8057   19.5249 H   0  0  0  0  0  0
  -28.9783  -25.1900   18.8045 H   0  0  0  0  0  0
  -28.8131  -21.7929   22.0037 H   0  0  0  0  0  0
  -30.2717  -22.6612   20.4130 H   0  0  0  0  0  0
  -29.1310  -22.8417   19.2928 H   0  0  0  0  0  0
  1 25  1  0  0  0
  1 30  2  0  0  0
  1 87  1  0  0  0
  2  3  1  0  0  0
  2 25  1  0  0  0
  2 91  1  0  0  0
  2 92  1  0  0  0
  3  4  1  0  0  0
  3 93  1  0  0  0
  3 94  1  0  0  0
  4  5  1  0  0  0
  4 95  1  0  0  0
  4 96  1  0  0  0
  5  6  1  0  0  0
  5 26  1  0  0  0
  5 97  1  0  0  0
  6 25  1  0  0  0
  6 98  1  0  0  0
  6 99  1  0  0  0
  7  8  2  0  0  0
  7 26  1  0  0  0
  7 29  1  0  0  0
  8  9  1  0  0  0
  8 22  1  0  0  0
  9 10  1  0  0  0
  9 27  2  0  0  0
 10 11  2  0  0  0
 10 15  1  0  0  0
 11 12  1  0  0  0
 11100  1  0  0  0
 12 13  2  0  0  0
 12101  1  0  0  0
 13 14  1  0  0  0
 13 31  1  0  0  0
 14 15  2  0  0  0
 14102  1  0  0  0
 15103  1  0  0  0
 16 17  2  0  0  0
 16 21  1  0  0  0
 16 31  1  0  0  0
 17 18  1  0  0  0
 17104  1  0  0  0
 18 19  2  0  0  0
 18105  1  0  0  0
 19 20  1  0  0  0
 19 24  1  0  0  0
 20 21  2  0  0  0
 20106  1  0  0  0
 21 23  1  0  0  0
 22 28  1  0  0  0
 22 32  2  0  0  0
 26 27  1  0  0  0
 28107  1  0  0  0
 28108  1  0  0  0
 29109  1  0  0  0
 29110  1  0  0  0
 33 34  1  0  0  0
 33 66  1  0  0  0
 33 70  2  0  0  0
 34 36  1  0  0  0
 34 59  1  0  0  0
 34111  1  0  0  0
 35 44  2  0  0  0
 35 45  1  0  0  0
 35 68  1  0  0  0
 36 56  1  0  0  0
 36112  1  0  0  0
 37 39  1  0  0  0
 37 47  1  0  0  0
 37 66  1  0  0  0
 37113  1  0  0  0
 38 43  2  0  0  0
 38 46  1  0  0  0
 38 47  1  0  0  0
 39 64  1  0  0  0
 39 67  2  0  0  0
 40 52  1  0  0  0
 40 53  2  0  0  0
 40 58  1  0  0  0
 41114  1  0  0  0
 41115  1  0  0  0
 41116  1  0  0  0
 41 48  1  0  0  0
 42 43  1  0  0  0
 42 66  1  0  0  0
 42117  1  0  0  0
 42118  1  0  0  0
 43 44  1  0  0  0
 44119  1  0  0  0
 45 46  2  0  0  0
 45120  1  0  0  0
 46121  1  0  0  0
 47122  1  0  0  0
 47123  1  0  0  0
 48 56  1  0  0  0
 48 65  1  0  0  0
 48124  1  0  0  0
 49 50  1  0  0  0
 49 53  1  0  0  0
 49 64  1  0  0  0
 49125  1  0  0  0
 50 51  1  0  0  0
 50126  1  0  0  0
 50127  1  0  0  0
 51 52  1  0  0  0
 51128  1  0  0  0
 51129  1  0  0  0
 52130  1  0  0  0
 52131  1  0  0  0
 53 54  1  0  0  0
 54 55  2  0  0  0
 54132  1  0  0  0
 55 57  1  0  0  0
 55133  1  0  0  0
 56 69  2  0  0  0
 57 58  2  0  0  0
 57134  1  0  0  0
 58135  1  0  0  0
 59 60  1  0  0  0
 59 61  1  0  0  0
 59 62  1  0  0  0
 60136  1  0  0  0
 60137  1  0  0  0
 60138  1  0  0  0
 61139  1  0  0  0
 61140  1  0  0  0
 61141  1  0  0  0
 62142  1  0  0  0
 62143  1  0  0  0
 62144  1  0  0  0
 63 65  1  0  0  0
 63145  1  0  0  0
 63146  1  0  0  0
 63147  1  0  0  0
 64148  1  0  0  0
 65149  1  0  0  0
 68 85  1  0  0  0
 71 73  2  0  0  0
 71 75  1  0  0  0
 71150  1  0  0  0
 72 75  2  0  0  0
 72 76  1  0  0  0
 72151  1  0  0  0
 73 74  1  0  0  0
 73 77  1  0  0  0
 74 76  2  0  0  0
 74 78  1  0  0  0
 75 86  1  0  0  0
 76 90  1  0  0  0
 77 87  1  0  0  0
 77152  1  0  0  0
 77153  1  0  0  0
 78 87  1  0  0  0
 78154  1  0  0  0
 78155  1  0  0  0
 79 80  1  0  0  0
 79 81  1  0  0  0
 79156  1  0  0  0
 79157  1  0  0  0
 80 82  1  0  0  0
 80158  1  0  0  0
 80159  1  0  0  0
 81 88  1  0  0  0
 81160  1  0  0  0
 81161  1  0  0  0
 82 88  1  0  0  0
 82162  1  0  0  0
 82163  1  0  0  0
 83 88  1  0  0  0
 83164  1  0  0  0
 83165  1  0  0  0
 83 86  1  0  0  0
 84 85  1  0  0  0
 84 89  1  0  0  0
 84166  1  0  0  0
 84167  1  0  0  0
 85168  1  0  0  0
 85169  1  0  0  0
 86 89  1  0  0  0
 86170  1  0  0  0
 89171  1  0  0  0
 89172  1  0  0  0
M  CHG  1  89   1
M  ISO  4   1 100  68 101  85 101  87 100
M  END
> <chiral flag>
0

> <version>
0

> <s_m_source_file>
/data/baiqing/PycharmProjects/Reinvent-master-3.2/result/LINK_invent/BTK/process_docking_weight1_custom_product_contain_oxygen_bond_distance_aromatic_linkinvent_7_9_3/rearranged_h_0005.sdf

> <i_m_source_file_index>
5

> <r_mmod_Potential_Energy-OPLS-2005>
107.936462402344

> <r_mmod_Stretch_Energy-OPLS-2005>
53.9539794921875

> <r_mmod_Bend_Energy-OPLS-2005>
176.882690429688

> <r_mmod_Torsional_Energy-OPLS-2005>
346.241882324219

> <r_mmod_Improper_Torsional_Energy-OPLS-2005>
15.7831048965454

> <r_mmod_Van_der_Waal_Energy-OPLS-2005>
131.453720092773

> <r_mmod_Electrostatic_Energy-OPLS-2005>
-194.890777587891

> <r_mmod_Solvation_Energy-OPLS-2005>
-449.393127441406

> <b_mmod_Minimization_Converged-OPLS-2005>
0

> <r_mmod_RMS_Derivative-OPLS-2005>
1.43345725536346

$$$$
5
                    3D
 Structure written by MMmdl.
165174  0  0  1  0            999 V2000
  -30.7377  -14.4375   20.6090 C   0  0  0  0  0  0
  -30.4154  -12.3015   19.4163 C   0  0  0  0  0  0
  -29.4890  -12.5067   18.2023 C   0  0  0  0  0  0
  -28.0118  -12.3674   18.6174 C   0  0  0  0  0  0
  -27.6616  -13.2072   19.8752 C   0  0  2  0  0  0
  -28.7027  -12.9896   20.9959 C   0  0  0  0  0  0
  -25.2591  -13.8165   20.5679 C   0  0  0  0  0  0
  -24.1840  -13.0445   20.9180 C   0  0  0  0  0  0
  -24.6391  -11.6911   20.8741 C   0  0  0  0  0  0
  -23.9058  -10.4295   21.0407 C   0  0  0  0  0  0
  -24.3611   -9.4212   21.9186 C   0  0  0  0  0  0
  -23.6289   -8.2246   22.0755 C   0  0  0  0  0  0
  -22.4273   -8.0282   21.3543 C   0  0  0  0  0  0
  -21.9907   -9.0256   20.4646 C   0  0  0  0  0  0
  -22.7231  -10.2137   20.3056 C   0  0  0  0  0  0
  -21.6854   -6.0739   22.5279 C   0  0  0  0  0  0
  -21.4012   -6.5643   23.8211 C   0  0  0  0  0  0
  -21.3658   -5.6796   24.9175 C   0  0  0  0  0  0
  -21.6045   -4.3058   24.7225 C   0  0  0  0  0  0
  -21.8819   -3.8150   23.4345 C   0  0  0  0  0  0
  -21.9191   -4.6967   22.3402 C   0  0  0  0  0  0
  -22.7863  -13.5247   21.1841 C   0  0  0  0  0  0
  -22.1662   -4.2152   21.0979 F   0  0  0  0  0  0
  -21.5629   -3.4540   25.7737 F   0  0  0  0  0  0
  -30.0337  -13.2860   20.4406 N   0  0  0  0  0  0
  -26.3025  -12.9333   20.3370 N   0  0  0  0  0  0
  -25.9318  -11.6494   20.5772 N   0  0  0  0  0  0
  -22.0498  -12.8238   22.0392 N   0  0  0  0  0  0
  -25.4334  -15.1879   20.4076 N   0  0  0  0  0  0
  -31.8448  -14.6178   20.0921 O   0  0  0  0  0  0
  -21.6639   -6.8878   21.4239 O   0  0  0  0  0  0
  -22.3553  -14.5557   20.6694 O   0  0  0  0  0  0
  -24.6144  -31.8691   23.2108 C   0  0  0  0  0  0
  -25.9039  -32.4827   23.8399 C   0  0  1  0  0  0
  -27.2275  -27.4331   20.0941 C   0  0  0  0  0  0
  -25.5893  -33.8625   24.2331 N   0  0  0  0  0  0
  -23.4010  -30.4945   21.5521 C   0  0  2  0  0  0
  -24.8450  -28.9640   20.1114 C   0  0  0  0  0  0
  -22.7411  -29.4665   22.4991 C   0  0  0  0  0  0
  -18.0274  -28.1374   22.8491 C   0  0  0  0  0  0
  -24.1489  -36.7321   23.2639 C   0  0  0  0  0  0
  -25.9300  -30.8346   21.3638 C   0  0  0  0  0  0
  -26.0059  -29.4702   20.7086 C   0  0  0  0  0  0
  -27.1995  -28.7126   20.6964 C   0  0  0  0  0  0
  -26.0494  -26.9518   19.4744 C   0  0  0  0  0  0
  -24.8619  -27.7045   19.4907 C   0  0  0  0  0  0
  -23.6074  -29.8306   20.1649 C   0  0  0  0  0  0
  -25.4105  -36.3118   24.0338 C   0  0  1  0  0  0
  -20.5864  -28.3663   23.1316 C   0  0  2  0  0  0
  -20.6765  -26.9400   22.5417 C   0  0  0  0  0  0
  -19.5742  -26.6383   21.5216 C   0  0  0  0  0  0
  -18.1920  -26.7920   22.1624 C   0  0  0  0  0  0
  -19.1523  -28.8833   23.2905 C   0  0  0  0  0  0
  -18.9452  -30.1439   23.8915 C   0  0  0  0  0  0
  -17.6455  -30.6583   24.0564 C   0  0  0  0  0  0
  -25.9030  -34.9482   23.5131 C   0  0  0  0  0  0
  -16.5346  -29.9084   23.6322 C   0  0  0  0  0  0
  -16.7264  -28.6501   23.0342 C   0  0  0  0  0  0
  -26.4466  -31.6603   25.0725 C   0  0  0  0  0  0
  -25.3731  -31.3706   26.1473 C   0  0  0  0  0  0
  -27.0292  -30.3046   24.6090 C   0  0  0  0  0  0
  -27.6045  -32.4316   25.7484 C   0  0  0  0  0  0
  -27.5582  -37.1814   24.8463 C   0  0  0  0  0  0
  -21.4140  -29.3035   22.3730 N   0  0  0  0  0  0
  -26.4297  -37.3796   23.9405 N   0  0  0  0  0  0
  -24.6669  -31.0797   22.1008 N   0  0  0  0  0  0
  -23.4194  -28.8202   23.3023 O   0  0  0  0  0  0
  -28.3935  -26.6920   20.1312 O   0  0  0  0  0  0
  -26.5601  -34.8932   22.4697 O   0  0  0  0  0  0
  -23.5341  -32.1442   23.7508 O   0  0  0  0  0  0
  -32.5033  -17.9797   22.6153 C   0  0  0  0  0  0
  -31.9413  -16.7441   22.2540 C   0  0  0  0  0  0
  -29.9649  -17.8964   21.4102 C   0  0  0  0  0  0
  -31.8114  -19.1824   22.3712 C   0  0  0  0  0  0
  -30.5241  -19.1490   21.7753 C   0  0  0  0  0  0
  -30.6749  -16.6882   21.6315 C   0  0  0  0  0  0
  -29.3002  -21.1249   22.6673 C   0  0  0  0  0  0
  -29.4529  -20.7692   20.1986 C   0  0  0  0  0  0
  -29.5802  -22.6308   22.4627 C   0  0  0  0  0  0
  -29.7151  -22.2868   20.0123 C   0  0  0  0  0  0
  -32.4942  -20.4914   22.7336 C   0  0  0  0  0  0
  -29.3555  -24.5822   20.9440 C   0  0  0  0  0  0
  -28.2630  -25.2586   20.0907 C   0  0  0  0  0  0
  -29.8181  -20.3469   21.5466 N   0  0  0  0  0  0
  -30.1072  -15.4281   21.2705 N   0  0  0  0  0  0
  -29.1434  -23.1099   21.1199 N   0  3  0  0  0  0
  -31.4606  -12.3894   19.1141 H   0  0  0  0  0  0
  -30.3084  -11.2913   19.8141 H   0  0  0  0  0  0
  -29.7266  -11.7841   17.4206 H   0  0  0  0  0  0
  -29.6586  -13.4938   17.7690 H   0  0  0  0  0  0
  -27.8216  -11.3114   18.8129 H   0  0  0  0  0  0
  -27.3599  -12.6436   17.7879 H   0  0  0  0  0  0
  -27.7066  -14.2553   19.5782 H   0  0  0  0  0  0
  -28.6770  -11.9550   21.3413 H   0  0  0  0  0  0
  -28.4642  -13.5933   21.8722 H   0  0  0  0  0  0
  -25.2756   -9.5693   22.4762 H   0  0  0  0  0  0
  -24.0002   -7.4638   22.7474 H   0  0  0  0  0  0
  -21.0841   -8.8772   19.8947 H   0  0  0  0  0  0
  -22.3689  -10.9678   19.6165 H   0  0  0  0  0  0
  -21.2003   -7.6149   23.9715 H   0  0  0  0  0  0
  -21.1480   -6.0526   25.9077 H   0  0  0  0  0  0
  -22.0599   -2.7611   23.2845 H   0  0  0  0  0  0
  -22.4102  -11.9891   22.4774 H   0  0  0  0  0  0
  -21.1117  -13.1269   22.2595 H   0  0  0  0  0  0
  -24.6694  -15.8472   20.5102 H   0  0  0  0  0  0
  -26.2875  -15.6208   20.0788 H   0  0  0  0  0  0
  -26.7113  -32.5541   23.1169 H   0  0  0  0  0  0
  -25.0041  -33.9786   25.0474 H   0  0  0  0  0  0
  -22.6894  -31.3114   21.4165 H   0  0  0  0  0  0
  -23.3747  -35.9659   23.3309 H   0  0  0  0  0  0
  -24.3587  -36.8923   22.2051 H   0  0  0  0  0  0
  -23.7247  -37.6530   23.6647 H   0  0  0  0  0  0
  -26.0423  -31.6021   20.5968 H   0  0  0  0  0  0
  -26.8182  -30.8868   21.9817 H   0  0  0  0  0  0
  -28.0939  -29.0978   21.1662 H   0  0  0  0  0  0
  -26.0273  -25.9977   18.9685 H   0  0  0  0  0  0
  -23.9713  -27.3135   19.0180 H   0  0  0  0  0  0
  -23.7144  -30.6077   19.4072 H   0  0  0  0  0  0
  -22.7308  -29.2507   19.8700 H   0  0  0  0  0  0
  -25.1286  -36.1987   25.0830 H   0  0  0  0  0  0
  -20.9954  -28.3233   24.1438 H   0  0  0  0  0  0
  -20.5673  -26.2271   23.3607 H   0  0  0  0  0  0
  -21.6636  -26.7448   22.1208 H   0  0  0  0  0  0
  -19.6907  -25.6303   21.1229 H   0  0  0  0  0  0
  -19.6678  -27.3208   20.6760 H   0  0  0  0  0  0
  -17.4191  -26.6670   21.4026 H   0  0  0  0  0  0
  -18.0317  -26.0061   22.9016 H   0  0  0  0  0  0
  -19.7932  -30.7244   24.2292 H   0  0  0  0  0  0
  -17.5016  -31.6263   24.5167 H   0  0  0  0  0  0
  -15.5349  -30.2993   23.7637 H   0  0  0  0  0  0
  -15.8662  -28.0831   22.7039 H   0  0  0  0  0  0
  -24.5903  -30.7051   25.7814 H   0  0  0  0  0  0
  -24.8922  -32.2861   26.4932 H   0  0  0  0  0  0
  -25.8083  -30.8873   27.0228 H   0  0  0  0  0  0
  -26.2833  -29.6813   24.1143 H   0  0  0  0  0  0
  -27.4066  -29.7276   25.4542 H   0  0  0  0  0  0
  -27.8667  -30.4368   23.9235 H   0  0  0  0  0  0
  -27.2668  -33.3605   26.2090 H   0  0  0  0  0  0
  -28.3838  -32.6883   25.0298 H   0  0  0  0  0  0
  -28.0727  -31.8418   26.5374 H   0  0  0  0  0  0
  -28.2604  -38.0109   24.7512 H   0  0  0  0  0  0
  -28.1074  -36.2640   24.6289 H   0  0  0  0  0  0
  -27.2302  -37.1466   25.8867 H   0  0  0  0  0  0
  -20.9296  -29.8765   21.6963 H   0  0  0  0  0  0
  -26.0192  -38.2876   24.1403 H   0  0  0  0  0  0
  -33.4811  -17.9972   23.0764 H   0  0  0  0  0  0
  -32.4987  -15.8394   22.4545 H   0  0  0  0  0  0
  -28.9864  -17.8651   20.9526 H   0  0  0  0  0  0
  -28.2247  -20.9552   22.7407 H   0  0  0  0  0  0
  -29.7237  -20.7849   23.6137 H   0  0  0  0  0  0
  -30.0148  -20.2026   19.4540 H   0  0  0  0  0  0
  -28.3984  -20.5463   20.0292 H   0  0  0  0  0  0
  -30.6456  -22.8303   22.5836 H   0  0  0  0  0  0
  -29.0705  -23.1940   23.2456 H   0  0  0  0  0  0
  -29.3082  -22.6111   19.0537 H   0  0  0  0  0  0
  -30.7913  -22.4587   19.9639 H   0  0  0  0  0  0
  -33.5595  -20.3469   22.9129 H   0  0  0  0  0  0
  -32.0601  -20.9148   23.6384 H   0  0  0  0  0  0
  -32.3965  -21.2162   21.9253 H   0  0  0  0  0  0
  -29.3337  -25.0644   21.9221 H   0  0  0  0  0  0
  -30.3465  -24.7840   20.5356 H   0  0  0  0  0  0
  -27.3009  -24.9416   20.4968 H   0  0  0  0  0  0
  -28.3118  -24.9187   19.0556 H   0  0  0  0  0  0
  -29.1366  -15.2715   21.4975 H   0  0  0  0  0  0
  -28.1479  -22.9435   21.1054 H   0  0  0  0  0  0
  1 25  1  0  0  0
  1 30  2  0  0  0
  1 85  1  0  0  0
  2  3  1  0  0  0
  2 25  1  0  0  0
  2 87  1  0  0  0
  2 88  1  0  0  0
  3  4  1  0  0  0
  3 89  1  0  0  0
  3 90  1  0  0  0
  4  5  1  0  0  0
  4 91  1  0  0  0
  4 92  1  0  0  0
  5  6  1  0  0  0
  5 26  1  0  0  0
  5 93  1  0  0  0
  6 25  1  0  0  0
  6 94  1  0  0  0
  6 95  1  0  0  0
  7  8  2  0  0  0
  7 26  1  0  0  0
  7 29  1  0  0  0
  8  9  1  0  0  0
  8 22  1  0  0  0
  9 10  1  0  0  0
  9 27  2  0  0  0
 10 11  2  0  0  0
 10 15  1  0  0  0
 11 12  1  0  0  0
 11 96  1  0  0  0
 12 13  2  0  0  0
 12 97  1  0  0  0
 13 14  1  0  0  0
 13 31  1  0  0  0
 14 15  2  0  0  0
 14 98  1  0  0  0
 15 99  1  0  0  0
 16 17  2  0  0  0
 16 21  1  0  0  0
 16 31  1  0  0  0
 17 18  1  0  0  0
 17100  1  0  0  0
 18 19  2  0  0  0
 18101  1  0  0  0
 19 20  1  0  0  0
 19 24  1  0  0  0
 20 21  2  0  0  0
 20102  1  0  0  0
 21 23  1  0  0  0
 22 28  1  0  0  0
 22 32  2  0  0  0
 26 27  1  0  0  0
 28103  1  0  0  0
 28104  1  0  0  0
 29105  1  0  0  0
 29106  1  0  0  0
 33 34  1  0  0  0
 33 66  1  0  0  0
 33 70  2  0  0  0
 34 36  1  0  0  0
 34 59  1  0  0  0
 34107  1  0  0  0
 35 44  2  0  0  0
 35 45  1  0  0  0
 35 68  1  0  0  0
 36 56  1  0  0  0
 36108  1  0  0  0
 37 39  1  0  0  0
 37 47  1  0  0  0
 37 66  1  0  0  0
 37109  1  0  0  0
 38 43  2  0  0  0
 38 46  1  0  0  0
 38 47  1  0  0  0
 39 64  1  0  0  0
 39 67  2  0  0  0
 40 52  1  0  0  0
 40 53  2  0  0  0
 40 58  1  0  0  0
 41110  1  0  0  0
 41111  1  0  0  0
 41112  1  0  0  0
 41 48  1  0  0  0
 42 43  1  0  0  0
 42 66  1  0  0  0
 42113  1  0  0  0
 42114  1  0  0  0
 43 44  1  0  0  0
 44115  1  0  0  0
 45 46  2  0  0  0
 45116  1  0  0  0
 46117  1  0  0  0
 47118  1  0  0  0
 47119  1  0  0  0
 48 56  1  0  0  0
 48 65  1  0  0  0
 48120  1  0  0  0
 49 50  1  0  0  0
 49 53  1  0  0  0
 49 64  1  0  0  0
 49121  1  0  0  0
 50 51  1  0  0  0
 50122  1  0  0  0
 50123  1  0  0  0
 51 52  1  0  0  0
 51124  1  0  0  0
 51125  1  0  0  0
 52126  1  0  0  0
 52127  1  0  0  0
 53 54  1  0  0  0
 54 55  2  0  0  0
 54128  1  0  0  0
 55 57  1  0  0  0
 55129  1  0  0  0
 56 69  2  0  0  0
 57 58  2  0  0  0
 57130  1  0  0  0
 58131  1  0  0  0
 59 60  1  0  0  0
 59 61  1  0  0  0
 59 62  1  0  0  0
 60132  1  0  0  0
 60133  1  0  0  0
 60134  1  0  0  0
 61135  1  0  0  0
 61136  1  0  0  0
 61137  1  0  0  0
 62138  1  0  0  0
 62139  1  0  0  0
 62140  1  0  0  0
 63 65  1  0  0  0
 63141  1  0  0  0
 63142  1  0  0  0
 63143  1  0  0  0
 64144  1  0  0  0
 65145  1  0  0  0
 68 83  1  0  0  0
 71 72  2  0  0  0
 71 74  1  0  0  0
 71146  1  0  0  0
 72 76  1  0  0  0
 72147  1  0  0  0
 73 75  1  0  0  0
 73 76  2  0  0  0
 73148  1  0  0  0
 74 75  2  0  0  0
 74 81  1  0  0  0
 75 84  1  0  0  0
 76 85  1  0  0  0
 77 79  1  0  0  0
 77 84  1  0  0  0
 77149  1  0  0  0
 77150  1  0  0  0
 78 80  1  0  0  0
 78 84  1  0  0  0
 78151  1  0  0  0
 78152  1  0  0  0
 79 86  1  0  0  0
 79153  1  0  0  0
 79154  1  0  0  0
 80 86  1  0  0  0
 80155  1  0  0  0
 80156  1  0  0  0
 81157  1  0  0  0
 81158  1  0  0  0
 81159  1  0  0  0
 82 83  1  0  0  0
 82160  1  0  0  0
 82161  1  0  0  0
 82 86  1  0  0  0
 83162  1  0  0  0
 83163  1  0  0  0
 85164  1  0  0  0
 86165  1  0  0  0
M  CHG  1  86   1
M  ISO  4   1 100  68 101  83 101  85 100
M  END
> <chiral flag>
0

> <version>
0

> <s_m_source_file>
/data/baiqing/PycharmProjects/Reinvent-master-3.2/result/LINK_invent/BTK/process_docking_weight1_custom_product_contain_oxygen_bond_distance_aromatic_linkinvent_7_9_3/rearranged_h_0005.sdf

> <i_m_source_file_index>
6

> <r_mmod_Potential_Energy-OPLS-2005>
-27.4176692962646

> <r_mmod_Stretch_Energy-OPLS-2005>
39.2078170776367

> <r_mmod_Bend_Energy-OPLS-2005>
106.62572479248

> <r_mmod_Torsional_Energy-OPLS-2005>
305.489318847656

> <r_mmod_Improper_Torsional_Energy-OPLS-2005>
2.83448696136475

> <r_mmod_Van_der_Waal_Energy-OPLS-2005>
163.879577636719

> <r_mmod_Electrostatic_Energy-OPLS-2005>
-225.873992919922

> <r_mmod_Solvation_Energy-OPLS-2005>
-431.562225341797

> <b_mmod_Minimization_Converged-OPLS-2005>
0

> <r_mmod_RMS_Derivative-OPLS-2005>
0.683507919311523

$$$$
6
                    3D
 Structure written by MMmdl.
179188  0  0  1  0            999 V2000
  -30.7746  -14.3745   20.5727 C   0  0  0  0  0  0
  -31.3400  -12.2395   19.6098 C   0  0  0  0  0  0
  -29.0998  -12.0570   17.2778 C   0  0  0  0  0  0
  -27.5269  -12.6114   18.1284 C   0  0  0  0  0  0
  -27.4949  -13.2554   19.8740 C   0  0  2  0  0  0
  -28.7904  -13.1554   21.2209 C   0  0  0  0  0  0
  -25.1800  -13.8353   20.6196 C   0  0  0  0  0  0
  -24.1251  -13.0434   20.9515 C   0  0  0  0  0  0
  -24.5996  -11.6937   20.8984 C   0  0  0  0  0  0
  -23.8841  -10.4262   21.0481 C   0  0  0  0  0  0
  -24.3481   -9.4179   21.9204 C   0  0  0  0  0  0
  -23.6227   -8.2183   22.0735 C   0  0  0  0  0  0
  -22.4219   -8.0207   21.3513 C   0  0  0  0  0  0
  -21.9815   -9.0154   20.4617 C   0  0  0  0  0  0
  -22.7069  -10.2073   20.3063 C   0  0  0  0  0  0
  -21.6832   -6.0677   22.5249 C   0  0  0  0  0  0
  -21.4005   -6.5595   23.8181 C   0  0  0  0  0  0
  -21.3668   -5.6753   24.9147 C   0  0  0  0  0  0
  -21.6057   -4.3020   24.7201 C   0  0  0  0  0  0
  -21.8830   -3.8099   23.4329 C   0  0  0  0  0  0
  -21.9193   -4.6911   22.3375 C   0  0  0  0  0  0
  -22.7298  -13.5153   21.2005 C   0  0  0  0  0  0
  -22.1671   -4.2105   21.0956 F   0  0  0  0  0  0
  -21.5633   -3.4511   25.7721 F   0  0  0  0  0  0
  -30.4952  -13.1012   20.9112 N   0  0  0  0  0  0
  -26.2148  -12.9583   20.3982 N   0  0  0  0  0  0
  -25.8898  -11.6659   20.6093 N   0  0  0  0  0  0
  -21.9954  -12.8148   22.0545 N   0  0  0  0  0  0
  -25.3428  -15.2102   20.4594 N   0  0  0  0  0  0
  -31.9053  -14.8404   20.4339 O   0  0  0  0  0  0
  -21.6608   -6.8787   21.4204 O   0  0  0  0  0  0
  -22.3051  -14.5458   20.6781 O   0  0  0  0  0  0
  -24.6115  -31.8705   23.2127 C   0  0  0  0  0  0
  -25.9017  -32.4836   23.8415 C   0  0  1  0  0  0
  -27.2334  -27.4681   20.0784 C   0  0  0  0  0  0
  -25.5888  -33.8634   24.2347 N   0  0  0  0  0  0
  -23.3975  -30.4958   21.5513 C   0  0  2  0  0  0
  -24.8437  -28.9601   20.1208 C   0  0  0  0  0  0
  -22.7383  -29.4682   22.4990 C   0  0  0  0  0  0
  -18.0265  -28.1371   22.8489 C   0  0  0  0  0  0
  -24.1488  -36.7329   23.2640 C   0  0  0  0  0  0
  -25.9236  -30.8417   21.3636 C   0  0  0  0  0  0
  -26.0019  -29.4750   20.7182 C   0  0  0  0  0  0
  -27.1997  -28.7294   20.7090 C   0  0  0  0  0  0
  -26.0573  -26.9485   19.4997 C   0  0  0  0  0  0
  -24.8620  -27.6898   19.5181 C   0  0  0  0  0  0
  -23.6072  -29.8275   20.1660 C   0  0  0  0  0  0
  -25.4106  -36.3124   24.0343 C   0  0  1  0  0  0
  -20.5850  -28.3663   23.1313 C   0  0  2  0  0  0
  -20.6756  -26.9402   22.5407 C   0  0  0  0  0  0
  -19.5737  -26.6384   21.5203 C   0  0  0  0  0  0
  -18.1921  -26.7919   22.1627 C   0  0  0  0  0  0
  -19.1516  -28.8833   23.2902 C   0  0  0  0  0  0
  -18.9447  -30.1442   23.8912 C   0  0  0  0  0  0
  -17.6454  -30.6582   24.0565 C   0  0  0  0  0  0
  -25.9027  -34.9485   23.5143 C   0  0  0  0  0  0
  -16.5346  -29.9093   23.6320 C   0  0  0  0  0  0
  -16.7254  -28.6509   23.0343 C   0  0  0  0  0  0
  -26.4467  -31.6602   25.0726 C   0  0  0  0  0  0
  -25.3764  -31.3711   26.1504 C   0  0  0  0  0  0
  -27.0277  -30.3044   24.6076 C   0  0  0  0  0  0
  -27.6066  -32.4302   25.7470 C   0  0  0  0  0  0
  -27.5578  -37.1822   24.8472 C   0  0  0  0  0  0
  -21.4112  -29.3043   22.3723 N   0  0  0  0  0  0
  -26.4301  -37.3798   23.9402 N   0  0  0  0  0  0
  -24.6621  -31.0835   22.1014 N   0  0  0  0  0  0
  -23.4168  -28.8213   23.3013 O   0  0  0  0  0  0
  -28.3981  -26.7460   20.0156 O   0  0  0  0  0  0
  -26.5591  -34.8928   22.4703 O   0  0  0  0  0  0
  -23.5311  -32.1444   23.7543 O   0  0  0  0  0  0
  -26.3329  -20.6523   17.0514 C   0  0  0  0  0  0
  -26.8692  -19.4686   17.5957 C   0  0  0  0  0  0
  -27.1006  -21.8344   17.0246 C   0  0  0  0  0  0
  -30.0946  -10.3992   18.6892 C   0  0  0  0  0  0
  -29.2570  -11.5574   19.4217 C   0  0  0  0  0  0
  -28.9359  -20.6540   18.1102 C   0  0  0  0  0  0
  -31.5353  -12.2786   17.1481 C   0  0  0  0  0  0
  -28.1791  -19.4617   18.1190 C   0  0  0  0  0  0
  -28.4068  -21.8452   17.5627 C   0  0  0  0  0  0
  -31.1886  -10.7977   17.6103 C   0  0  0  0  0  0
  -29.7197  -13.5127   18.8132 C   0  0  0  0  0  0
  -30.8660  -13.6128   17.6805 C   0  0  0  0  0  0
  -28.7646  -18.1968   18.7321 C   0  0  0  0  0  0
  -29.2664  -23.1056   17.5113 C   0  0  0  0  0  0
  -29.8692  -17.5206   17.8873 C   0  0  0  0  0  0
  -29.3767  -16.3848   16.9643 C   0  0  0  0  0  0
  -29.6676  -25.3672   18.4394 C   0  0  0  0  0  0
  -30.5163  -15.5453   16.3369 C   0  0  0  0  0  0
  -28.9741  -26.7122   18.7108 C   0  0  0  0  0  0
  -31.9698   -9.6759   16.9450 C   0  0  0  0  0  0
  -29.8824  -14.6753   19.6310 N   0  0  0  0  0  0
  -28.7176  -24.2334   18.2953 N   0  3  0  0  0  0
  -31.3437  -14.8379   17.2662 O   0  0  0  0  0  0
  -31.5501   -8.4749   17.3460 F   0  0  0  0  0  0
  -31.8275   -9.7476   15.6220 F   0  0  0  0  0  0
  -33.2633   -9.7917   17.2429 F   0  0  0  0  0  0
  -32.3204  -12.6873   19.3984 H   0  0  0  0  0  0
  -31.6844  -11.3274   20.1185 H   0  0  0  0  0  0
  -28.8710  -11.0975   16.7935 H   0  0  0  0  0  0
  -29.1704  -12.6839   16.3797 H   0  0  0  0  0  0
  -26.8682  -11.7413   18.1017 H   0  0  0  0  0  0
  -27.0169  -13.3368   17.4921 H   0  0  0  0  0  0
  -27.4566  -14.3244   19.6786 H   0  0  0  0  0  0
  -28.5654  -12.3149   21.8802 H   0  0  0  0  0  0
  -28.5963  -13.9969   21.8903 H   0  0  0  0  0  0
  -25.2608   -9.5705   22.4799 H   0  0  0  0  0  0
  -23.9960   -7.4575   22.7445 H   0  0  0  0  0  0
  -21.0758   -8.8614   19.8911 H   0  0  0  0  0  0
  -22.3481  -10.9608   19.6196 H   0  0  0  0  0  0
  -21.1992   -7.6102   23.9673 H   0  0  0  0  0  0
  -21.1496   -6.0478   25.9052 H   0  0  0  0  0  0
  -22.0617   -2.7565   23.2816 H   0  0  0  0  0  0
  -22.3580  -11.9882   22.5044 H   0  0  0  0  0  0
  -21.0528  -13.1108   22.2657 H   0  0  0  0  0  0
  -24.5710  -15.8581   20.5768 H   0  0  0  0  0  0
  -26.1981  -15.6632   20.1680 H   0  0  0  0  0  0
  -26.7086  -32.5564   23.1181 H   0  0  0  0  0  0
  -25.0041  -33.9800   25.0494 H   0  0  0  0  0  0
  -22.6857  -31.3122   21.4122 H   0  0  0  0  0  0
  -23.3745  -35.9666   23.3305 H   0  0  0  0  0  0
  -24.3587  -36.8940   22.2054 H   0  0  0  0  0  0
  -23.7243  -37.6537   23.6649 H   0  0  0  0  0  0
  -26.0306  -31.6044   20.5911 H   0  0  0  0  0  0
  -26.8136  -30.8996   21.9781 H   0  0  0  0  0  0
  -28.0970  -29.1262   21.1637 H   0  0  0  0  0  0
  -26.0628  -25.9758   19.0300 H   0  0  0  0  0  0
  -23.9678  -27.2816   19.0681 H   0  0  0  0  0  0
  -23.7209  -30.6025   19.4068 H   0  0  0  0  0  0
  -22.7301  -29.2507   19.8662 H   0  0  0  0  0  0
  -25.1284  -36.2003   25.0839 H   0  0  0  0  0  0
  -20.9954  -28.3228   24.1430 H   0  0  0  0  0  0
  -20.5651  -26.2274   23.3591 H   0  0  0  0  0  0
  -21.6628  -26.7449   22.1202 H   0  0  0  0  0  0
  -19.6900  -25.6300   21.1219 H   0  0  0  0  0  0
  -19.6672  -27.3203   20.6740 H   0  0  0  0  0  0
  -17.4181  -26.6646   21.4040 H   0  0  0  0  0  0
  -18.0347  -26.0059   22.9027 H   0  0  0  0  0  0
  -19.7933  -30.7246   24.2282 H   0  0  0  0  0  0
  -17.5020  -31.6269   24.5165 H   0  0  0  0  0  0
  -15.5345  -30.3009   23.7635 H   0  0  0  0  0  0
  -15.8653  -28.0842   22.7044 H   0  0  0  0  0  0
  -24.5866  -30.7142   25.7843 H   0  0  0  0  0  0
  -24.9055  -32.2882   26.5052 H   0  0  0  0  0  0
  -25.8136  -30.8781   27.0197 H   0  0  0  0  0  0
  -26.2791  -29.6805   24.1176 H   0  0  0  0  0  0
  -27.4100  -29.7284   25.4514 H   0  0  0  0  0  0
  -27.8612  -30.4362   23.9173 H   0  0  0  0  0  0
  -27.2715  -33.3606   26.2067 H   0  0  0  0  0  0
  -28.3864  -32.6845   25.0279 H   0  0  0  0  0  0
  -28.0736  -31.8403   26.5367 H   0  0  0  0  0  0
  -28.2629  -38.0086   24.7481 H   0  0  0  0  0  0
  -28.1040  -36.2619   24.6349 H   0  0  0  0  0  0
  -27.2289  -37.1537   25.8875 H   0  0  0  0  0  0
  -20.9252  -29.8803   21.6993 H   0  0  0  0  0  0
  -26.0201  -38.2887   24.1375 H   0  0  0  0  0  0
  -25.3284  -20.6521   16.6492 H   0  0  0  0  0  0
  -26.2668  -18.5700   17.6129 H   0  0  0  0  0  0
  -26.6780  -22.7274   16.5841 H   0  0  0  0  0  0
  -29.9201   -9.3631   18.9441 H   0  0  0  0  0  0
  -28.5933  -11.1451   20.1684 H   0  0  0  0  0  0
  -29.9379  -20.6435   18.5172 H   0  0  0  0  0  0
  -32.3157  -12.3817   16.4088 H   0  0  0  0  0  0
  -27.9686  -17.4892   18.9693 H   0  0  0  0  0  0
  -29.1872  -18.4828   19.6965 H   0  0  0  0  0  0
  -29.3857  -23.4116   16.4708 H   0  0  0  0  0  0
  -30.2648  -22.8728   17.8842 H   0  0  0  0  0  0
  -30.5827  -17.0841   18.5852 H   0  0  0  0  0  0
  -30.4398  -18.2605   17.3248 H   0  0  0  0  0  0
  -28.7801  -16.8248   16.1645 H   0  0  0  0  0  0
  -28.6910  -15.7265   17.4956 H   0  0  0  0  0  0
  -30.3967  -25.1459   19.2196 H   0  0  0  0  0  0
  -30.2306  -25.4774   17.5112 H   0  0  0  0  0  0
  -31.1655  -16.2107   15.7676 H   0  0  0  0  0  0
  -30.1066  -14.8451   15.6080 H   0  0  0  0  0  0
  -28.2541  -26.9262   17.9182 H   0  0  0  0  0  0
  -29.7145  -27.5121   18.6634 H   0  0  0  0  0  0
  -29.0284  -15.0420   20.0162 H   0  0  0  0  0  0
  -28.4555  -23.9020   19.2107 H   0  0  0  0  0  0
  -27.8814  -24.5485   17.8316 H   0  0  0  0  0  0
  1 25  1  0  0  0
  1 30  2  0  0  0
  1 91  1  0  0  0
  2  3  1  0  0  0
  2 25  1  0  0  0
  2 97  1  0  0  0
  2 98  1  0  0  0
  3  4  1  0  0  0
  3 99  1  0  0  0
  3100  1  0  0  0
  4  5  1  0  0  0
  4101  1  0  0  0
  4102  1  0  0  0
  5  6  1  0  0  0
  5 26  1  0  0  0
  5103  1  0  0  0
  6 25  1  0  0  0
  6104  1  0  0  0
  6105  1  0  0  0
  7  8  2  0  0  0
  7 26  1  0  0  0
  7 29  1  0  0  0
  8  9  1  0  0  0
  8 22  1  0  0  0
  9 10  1  0  0  0
  9 27  2  0  0  0
 10 11  2  0  0  0
 10 15  1  0  0  0
 11 12  1  0  0  0
 11106  1  0  0  0
 12 13  2  0  0  0
 12107  1  0  0  0
 13 14  1  0  0  0
 13 31  1  0  0  0
 14 15  2  0  0  0
 14108  1  0  0  0
 15109  1  0  0  0
 16 17  2  0  0  0
 16 21  1  0  0  0
 16 31  1  0  0  0
 17 18  1  0  0  0
 17110  1  0  0  0
 18 19  2  0  0  0
 18111  1  0  0  0
 19 20  1  0  0  0
 19 24  1  0  0  0
 20 21  2  0  0  0
 20112  1  0  0  0
 21 23  1  0  0  0
 22 28  1  0  0  0
 22 32  2  0  0  0
 26 27  1  0  0  0
 28113  1  0  0  0
 28114  1  0  0  0
 29115  1  0  0  0
 29116  1  0  0  0
 33 34  1  0  0  0
 33 66  1  0  0  0
 33 70  2  0  0  0
 34 36  1  0  0  0
 34 59  1  0  0  0
 34117  1  0  0  0
 35 44  2  0  0  0
 35 45  1  0  0  0
 35 68  1  0  0  0
 36 56  1  0  0  0
 36118  1  0  0  0
 37 39  1  0  0  0
 37 47  1  0  0  0
 37 66  1  0  0  0
 37119  1  0  0  0
 38 43  2  0  0  0
 38 46  1  0  0  0
 38 47  1  0  0  0
 39 64  1  0  0  0
 39 67  2  0  0  0
 40 52  1  0  0  0
 40 53  2  0  0  0
 40 58  1  0  0  0
 41120  1  0  0  0
 41121  1  0  0  0
 41122  1  0  0  0
 41 48  1  0  0  0
 42 43  1  0  0  0
 42 66  1  0  0  0
 42123  1  0  0  0
 42124  1  0  0  0
 43 44  1  0  0  0
 44125  1  0  0  0
 45 46  2  0  0  0
 45126  1  0  0  0
 46127  1  0  0  0
 47128  1  0  0  0
 47129  1  0  0  0
 48 56  1  0  0  0
 48 65  1  0  0  0
 48130  1  0  0  0
 49 50  1  0  0  0
 49 53  1  0  0  0
 49 64  1  0  0  0
 49131  1  0  0  0
 50 51  1  0  0  0
 50132  1  0  0  0
 50133  1  0  0  0
 51 52  1  0  0  0
 51134  1  0  0  0
 51135  1  0  0  0
 52136  1  0  0  0
 52137  1  0  0  0
 53 54  1  0  0  0
 54 55  2  0  0  0
 54138  1  0  0  0
 55 57  1  0  0  0
 55139  1  0  0  0
 56 69  2  0  0  0
 57 58  2  0  0  0
 57140  1  0  0  0
 58141  1  0  0  0
 59 60  1  0  0  0
 59 61  1  0  0  0
 59 62  1  0  0  0
 60142  1  0  0  0
 60143  1  0  0  0
 60144  1  0  0  0
 61145  1  0  0  0
 61146  1  0  0  0
 61147  1  0  0  0
 62148  1  0  0  0
 62149  1  0  0  0
 62150  1  0  0  0
 63 65  1  0  0  0
 63151  1  0  0  0
 63152  1  0  0  0
 63153  1  0  0  0
 64154  1  0  0  0
 65155  1  0  0  0
 68 89  1  0  0  0
 71 72  2  0  0  0
 71 73  1  0  0  0
 71156  1  0  0  0
 72 78  1  0  0  0
 72157  1  0  0  0
 73 79  2  0  0  0
 73158  1  0  0  0
 74 75  2  0  0  0
 74 80  1  0  0  0
 74159  1  0  0  0
 75 81  1  0  0  0
 75160  1  0  0  0
 76 78  2  0  0  0
 76 79  1  0  0  0
 76161  1  0  0  0
 77 80  2  0  0  0
 77 82  1  0  0  0
 77162  1  0  0  0
 78 83  1  0  0  0
 79 84  1  0  0  0
 80 90  1  0  0  0
 81 82  2  0  0  0
 81 91  1  0  0  0
 82 93  1  0  0  0
 83 85  1  0  0  0
 83163  1  0  0  0
 83164  1  0  0  0
 84 92  1  0  0  0
 84165  1  0  0  0
 84166  1  0  0  0
 85 86  1  0  0  0
 85167  1  0  0  0
 85168  1  0  0  0
 86 88  1  0  0  0
 86169  1  0  0  0
 86170  1  0  0  0
 87 89  1  0  0  0
 87 92  1  0  0  0
 87171  1  0  0  0
 87172  1  0  0  0
 88 93  1  0  0  0
 88173  1  0  0  0
 88174  1  0  0  0
 89175  1  0  0  0
 89176  1  0  0  0
 90 94  1  0  0  0
 90 95  1  0  0  0
 90 96  1  0  0  0
 91177  1  0  0  0
 92178  1  0  0  0
 92179  1  0  0  0
M  CHG  1  92   1
M  ISO  4   1 100  68 101  89 101  91 100
M  END
> <chiral flag>
0

> <version>
0

> <s_m_source_file>
/data/baiqing/PycharmProjects/Reinvent-master-3.2/result/LINK_invent/BTK/process_docking_weight1_custom_product_contain_oxygen_bond_distance_aromatic_linkinvent_7_9_3/rearranged_h_0005.sdf

> <i_m_source_file_index>
7

> <r_mmod_Potential_Energy-OPLS-2005>
8409.6435546875

> <r_mmod_Stretch_Energy-OPLS-2005>
5300.71533203125

> <r_mmod_Bend_Energy-OPLS-2005>
325.397186279297

> <r_mmod_Torsional_Energy-OPLS-2005>
452.101806640625

> <r_mmod_Improper_Torsional_Energy-OPLS-2005>
57.289379119873

> <r_mmod_Van_der_Waal_Energy-OPLS-2005>
2746.083984375

> <r_mmod_Electrostatic_Energy-OPLS-2005>
-350.545227050781

> <r_mmod_Solvation_Energy-OPLS-2005>
-464.243896484375

> <b_mmod_Minimization_Converged-OPLS-2005>
0

> <r_mmod_RMS_Derivative-OPLS-2005>
4.64049816131592

$$$$
7
                    3D
 Structure written by MMmdl.
157165  0  0  1  0            999 V2000
  -30.6723  -14.6786   20.4815 C   0  0  0  0  0  0
  -30.4143  -12.4292   19.4399 C   0  0  0  0  0  0
  -29.4822  -12.5166   18.2134 C   0  0  0  0  0  0
  -28.0111  -12.3492   18.6401 C   0  0  0  0  0  0
  -27.6372  -13.2309   19.8586 C   0  0  2  0  0  0
  -28.6938  -13.1004   20.9755 C   0  0  0  0  0  0
  -25.2435  -13.8203   20.5720 C   0  0  0  0  0  0
  -24.1756  -13.0427   20.9273 C   0  0  0  0  0  0
  -24.6355  -11.6912   20.8796 C   0  0  0  0  0  0
  -23.9024  -10.4285   21.0412 C   0  0  0  0  0  0
  -24.3576   -9.4202   21.9195 C   0  0  0  0  0  0
  -23.6268   -8.2228   22.0747 C   0  0  0  0  0  0
  -22.4253   -8.0256   21.3529 C   0  0  0  0  0  0
  -21.9883   -9.0223   20.4631 C   0  0  0  0  0  0
  -22.7198  -10.2113   20.3057 C   0  0  0  0  0  0
  -21.6838   -6.0718   22.5277 C   0  0  0  0  0  0
  -21.3986   -6.5627   23.8212 C   0  0  0  0  0  0
  -21.3674   -5.6792   24.9188 C   0  0  0  0  0  0
  -21.6052   -4.3054   24.7240 C   0  0  0  0  0  0
  -21.8806   -3.8130   23.4365 C   0  0  0  0  0  0
  -21.9172   -4.6940   22.3412 C   0  0  0  0  0  0
  -22.7776  -13.5189   21.1965 C   0  0  0  0  0  0
  -22.1645   -4.2123   21.0993 F   0  0  0  0  0  0
  -21.5652   -3.4539   25.7753 F   0  0  0  0  0  0
  -29.9843  -13.4847   20.3877 N   0  0  0  0  0  0
  -26.2888  -12.9432   20.3362 N   0  0  0  0  0  0
  -25.9290  -11.6555   20.5811 N   0  0  0  0  0  0
  -22.0437  -12.8144   22.0512 N   0  0  0  0  0  0
  -25.4034  -15.1919   20.4029 N   0  0  0  0  0  0
  -31.8634  -14.6956   20.1591 O   0  0  0  0  0  0
  -21.6616   -6.8855   21.4239 O   0  0  0  0  0  0
  -22.3449  -14.5514   20.6854 O   0  0  0  0  0  0
  -24.6275  -31.8616   23.1994 C   0  0  0  0  0  0
  -25.9115  -32.4797   23.8329 C   0  0  1  0  0  0
  -27.2254  -27.3276   20.1063 C   0  0  0  0  0  0
  -25.5944  -33.8590   24.2258 N   0  0  0  0  0  0
  -23.4228  -30.4886   21.5403 C   0  0  2  0  0  0
  -24.8708  -28.9553   20.1043 C   0  0  0  0  0  0
  -22.7518  -29.4620   22.4865 C   0  0  0  0  0  0
  -18.0328  -28.1397   22.8491 C   0  0  0  0  0  0
  -24.1514  -36.7295   23.2634 C   0  0  0  0  0  0
  -25.9672  -30.7975   21.3722 C   0  0  0  0  0  0
  -26.0406  -29.4274   20.7113 C   0  0  0  0  0  0
  -27.2217  -28.6259   20.7043 C   0  0  0  0  0  0
  -26.0258  -26.9183   19.4704 C   0  0  0  0  0  0
  -24.8651  -27.7051   19.4759 C   0  0  0  0  0  0
  -23.6410  -29.8342   20.1520 C   0  0  0  0  0  0
  -25.4133  -36.3078   24.0329 C   0  0  1  0  0  0
  -20.5936  -28.3679   23.1281 C   0  0  2  0  0  0
  -20.6823  -26.9392   22.5397 C   0  0  0  0  0  0
  -19.5775  -26.6369   21.5222 C   0  0  0  0  0  0
  -18.1955  -26.7946   22.1624 C   0  0  0  0  0  0
  -19.1583  -28.8855   23.2886 C   0  0  0  0  0  0
  -18.9494  -30.1475   23.8873 C   0  0  0  0  0  0
  -17.6483  -30.6580   24.0576 C   0  0  0  0  0  0
  -25.9068  -34.9468   23.5086 C   0  0  0  0  0  0
  -16.5375  -29.9085   23.6350 C   0  0  0  0  0  0
  -16.7316  -28.6534   23.0310 C   0  0  0  0  0  0
  -26.4475  -31.6614   25.0717 C   0  0  0  0  0  0
  -25.3684  -31.3801   26.1424 C   0  0  0  0  0  0
  -27.0333  -30.3050   24.6185 C   0  0  0  0  0  0
  -27.6032  -32.4344   25.7488 C   0  0  0  0  0  0
  -27.5595  -37.1805   24.8469 C   0  0  0  0  0  0
  -21.4226  -29.3036   22.3654 N   0  0  0  0  0  0
  -26.4308  -37.3774   23.9414 N   0  0  0  0  0  0
  -24.6909  -31.0663   22.0940 N   0  0  0  0  0  0
  -23.4257  -28.8128   23.2899 O   0  0  0  0  0  0
  -28.3358  -26.4645   20.1633 O   0  0  0  0  0  0
  -26.5604  -34.8938   22.4641 O   0  0  0  0  0  0
  -23.5443  -32.1370   23.7352 O   0  0  0  0  0  0
  -30.1938  -19.5532   20.9636 C   0  0  0  0  0  0
  -29.7740  -20.9083   20.8064 C   0  0  0  0  0  0
  -29.3094  -19.0121   18.7949 C   0  0  0  0  0  0
  -29.9904  -18.5717   19.9577 C   0  0  0  0  0  0
  -28.8816  -20.3653   18.6220 C   0  0  0  0  0  0
  -29.1184  -21.3533   19.6290 C   0  0  0  0  0  0
  -28.9067  -16.1881   21.4931 C   0  0  0  0  0  0
  -30.6702  -17.1516   20.0323 C   0  0  0  0  0  0
  -28.1050  -25.0450   19.8043 C   0  0  0  0  0  0
  -29.0731  -23.8479   20.1767 C   0  0  0  0  0  0
  -28.1730  -20.7543   17.3191 C   0  0  0  0  0  0
  -29.9979  -15.8996   20.5570 N   0  0  0  0  0  0
  -28.6738  -22.6711   19.4076 O   0  0  0  0  0  0
  -28.2606  -19.7883   16.4013 F   0  0  0  0  0  0
  -26.8784  -20.9702   17.5568 F   0  0  0  0  0  0
  -28.6981  -21.8591   16.7873 F   0  0  0  0  0  0
  -31.4529  -12.5304   19.1212 H   0  0  0  0  0  0
  -30.3488  -11.4451   19.9061 H   0  0  0  0  0  0
  -29.7447  -11.7567   17.4772 H   0  0  0  0  0  0
  -29.6166  -13.4793   17.7181 H   0  0  0  0  0  0
  -27.8627  -11.3000   18.8941 H   0  0  0  0  0  0
  -27.3424  -12.5586   17.8054 H   0  0  0  0  0  0
  -27.6449  -14.2603   19.4993 H   0  0  0  0  0  0
  -28.7383  -12.0696   21.3311 H   0  0  0  0  0  0
  -28.4285  -13.6801   21.8537 H   0  0  0  0  0  0
  -25.2698   -9.5690   22.4801 H   0  0  0  0  0  0
  -23.9946   -7.4620   22.7482 H   0  0  0  0  0  0
  -21.0804   -8.8739   19.8951 H   0  0  0  0  0  0
  -22.3630  -10.9651   19.6172 H   0  0  0  0  0  0
  -21.1956   -7.6127   23.9705 H   0  0  0  0  0  0
  -21.1529   -6.0533   25.9096 H   0  0  0  0  0  0
  -22.0570   -2.7583   23.2877 H   0  0  0  0  0  0
  -22.3995  -11.9687   22.4742 H   0  0  0  0  0  0
  -21.1114  -13.1225   22.2889 H   0  0  0  0  0  0
  -24.6380  -15.8456   20.5305 H   0  0  0  0  0  0
  -26.2267  -15.6222   20.0044 H   0  0  0  0  0  0
  -26.7189  -32.5435   23.1080 H   0  0  0  0  0  0
  -25.0175  -33.9750   25.0461 H   0  0  0  0  0  0
  -22.7174  -31.3091   21.3974 H   0  0  0  0  0  0
  -23.3789  -35.9617   23.3296 H   0  0  0  0  0  0
  -24.3625  -36.8900   22.2049 H   0  0  0  0  0  0
  -23.7272  -37.6502   23.6664 H   0  0  0  0  0  0
  -26.1120  -31.5702   20.6138 H   0  0  0  0  0  0
  -26.8438  -30.8334   22.0067 H   0  0  0  0  0  0
  -28.1208  -28.9892   21.1827 H   0  0  0  0  0  0
  -25.9394  -25.9714   18.9605 H   0  0  0  0  0  0
  -23.9701  -27.3407   18.9892 H   0  0  0  0  0  0
  -23.7694  -30.6175   19.4027 H   0  0  0  0  0  0
  -22.7613  -29.2678   19.8380 H   0  0  0  0  0  0
  -25.1325  -36.1895   25.0819 H   0  0  0  0  0  0
  -21.0062  -28.3217   24.1383 H   0  0  0  0  0  0
  -20.5763  -26.2252   23.3578 H   0  0  0  0  0  0
  -21.6682  -26.7411   22.1140 H   0  0  0  0  0  0
  -19.6925  -25.6280   21.1231 H   0  0  0  0  0  0
  -19.6742  -27.3214   20.6779 H   0  0  0  0  0  0
  -17.4235  -26.6731   21.4012 H   0  0  0  0  0  0
  -18.0327  -26.0104   22.9022 H   0  0  0  0  0  0
  -19.7968  -30.7341   24.2170 H   0  0  0  0  0  0
  -17.5036  -31.6262   24.5195 H   0  0  0  0  0  0
  -15.5379  -30.2963   23.7716 H   0  0  0  0  0  0
  -15.8727  -28.0893   22.6924 H   0  0  0  0  0  0
  -24.5871  -30.7137   25.7757 H   0  0  0  0  0  0
  -24.8872  -32.2999   26.4766 H   0  0  0  0  0  0
  -25.7961  -30.9039   27.0245 H   0  0  0  0  0  0
  -26.2918  -29.6790   24.1215 H   0  0  0  0  0  0
  -27.4058  -29.7324   25.4680 H   0  0  0  0  0  0
  -27.8777  -30.4379   23.9421 H   0  0  0  0  0  0
  -27.2655  -33.3658   26.2042 H   0  0  0  0  0  0
  -28.3853  -32.6844   25.0314 H   0  0  0  0  0  0
  -28.0689  -31.8474   26.5408 H   0  0  0  0  0  0
  -28.2582  -38.0122   24.7510 H   0  0  0  0  0  0
  -28.1090  -36.2644   24.6276 H   0  0  0  0  0  0
  -27.2312  -37.1439   25.8866 H   0  0  0  0  0  0
  -20.9367  -29.8783   21.6921 H   0  0  0  0  0  0
  -26.0176  -38.2846   24.1393 H   0  0  0  0  0  0
  -30.7171  -19.2782   21.8686 H   0  0  0  0  0  0
  -29.9699  -21.6053   21.6078 H   0  0  0  0  0  0
  -29.1602  -18.3071   17.9888 H   0  0  0  0  0  0
  -27.9398  -16.0204   21.0234 H   0  0  0  0  0  0
  -28.9078  -17.2228   21.8308 H   0  0  0  0  0  0
  -28.9835  -15.6085   22.4111 H   0  0  0  0  0  0
  -31.5820  -17.2869   20.6173 H   0  0  0  0  0  0
  -31.0243  -16.9344   19.0223 H   0  0  0  0  0  0
  -27.1462  -24.7262   20.2160 H   0  0  0  0  0  0
  -28.0066  -25.0314   18.7177 H   0  0  0  0  0  0
  -29.0338  -23.6549   21.2489 H   0  0  0  0  0  0
  -30.1030  -24.0997   19.9259 H   0  0  0  0  0  0
  1 25  1  0  0  0
  1 30  2  0  0  0
  1 82  1  0  0  0
  2  3  1  0  0  0
  2 25  1  0  0  0
  2 87  1  0  0  0
  2 88  1  0  0  0
  3  4  1  0  0  0
  3 89  1  0  0  0
  3 90  1  0  0  0
  4  5  1  0  0  0
  4 91  1  0  0  0
  4 92  1  0  0  0
  5  6  1  0  0  0
  5 26  1  0  0  0
  5 93  1  0  0  0
  6 25  1  0  0  0
  6 94  1  0  0  0
  6 95  1  0  0  0
  7  8  2  0  0  0
  7 26  1  0  0  0
  7 29  1  0  0  0
  8  9  1  0  0  0
  8 22  1  0  0  0
  9 10  1  0  0  0
  9 27  2  0  0  0
 10 11  2  0  0  0
 10 15  1  0  0  0
 11 12  1  0  0  0
 11 96  1  0  0  0
 12 13  2  0  0  0
 12 97  1  0  0  0
 13 14  1  0  0  0
 13 31  1  0  0  0
 14 15  2  0  0  0
 14 98  1  0  0  0
 15 99  1  0  0  0
 16 17  2  0  0  0
 16 21  1  0  0  0
 16 31  1  0  0  0
 17 18  1  0  0  0
 17100  1  0  0  0
 18 19  2  0  0  0
 18101  1  0  0  0
 19 20  1  0  0  0
 19 24  1  0  0  0
 20 21  2  0  0  0
 20102  1  0  0  0
 21 23  1  0  0  0
 22 28  1  0  0  0
 22 32  2  0  0  0
 26 27  1  0  0  0
 28103  1  0  0  0
 28104  1  0  0  0
 29105  1  0  0  0
 29106  1  0  0  0
 33 34  1  0  0  0
 33 66  1  0  0  0
 33 70  2  0  0  0
 34 36  1  0  0  0
 34 59  1  0  0  0
 34107  1  0  0  0
 35 44  2  0  0  0
 35 45  1  0  0  0
 35 68  1  0  0  0
 36 56  1  0  0  0
 36108  1  0  0  0
 37 39  1  0  0  0
 37 47  1  0  0  0
 37 66  1  0  0  0
 37109  1  0  0  0
 38 43  2  0  0  0
 38 46  1  0  0  0
 38 47  1  0  0  0
 39 64  1  0  0  0
 39 67  2  0  0  0
 40 52  1  0  0  0
 40 53  2  0  0  0
 40 58  1  0  0  0
 41110  1  0  0  0
 41111  1  0  0  0
 41112  1  0  0  0
 41 48  1  0  0  0
 42 43  1  0  0  0
 42 66  1  0  0  0
 42113  1  0  0  0
 42114  1  0  0  0
 43 44  1  0  0  0
 44115  1  0  0  0
 45 46  2  0  0  0
 45116  1  0  0  0
 46117  1  0  0  0
 47118  1  0  0  0
 47119  1  0  0  0
 48 56  1  0  0  0
 48 65  1  0  0  0
 48120  1  0  0  0
 49 50  1  0  0  0
 49 53  1  0  0  0
 49 64  1  0  0  0
 49121  1  0  0  0
 50 51  1  0  0  0
 50122  1  0  0  0
 50123  1  0  0  0
 51 52  1  0  0  0
 51124  1  0  0  0
 51125  1  0  0  0
 52126  1  0  0  0
 52127  1  0  0  0
 53 54  1  0  0  0
 54 55  2  0  0  0
 54128  1  0  0  0
 55 57  1  0  0  0
 55129  1  0  0  0
 56 69  2  0  0  0
 57 58  2  0  0  0
 57130  1  0  0  0
 58131  1  0  0  0
 59 60  1  0  0  0
 59 61  1  0  0  0
 59 62  1  0  0  0
 60132  1  0  0  0
 60133  1  0  0  0
 60134  1  0  0  0
 61135  1  0  0  0
 61136  1  0  0  0
 61137  1  0  0  0
 62138  1  0  0  0
 62139  1  0  0  0
 62140  1  0  0  0
 63 65  1  0  0  0
 63141  1  0  0  0
 63142  1  0  0  0
 63143  1  0  0  0
 64144  1  0  0  0
 65145  1  0  0  0
 68 79  1  0  0  0
 71 72  2  0  0  0
 71 74  1  0  0  0
 71146  1  0  0  0
 72 76  1  0  0  0
 72147  1  0  0  0
 73 74  2  0  0  0
 73 75  1  0  0  0
 73148  1  0  0  0
 74 78  1  0  0  0
 75 76  2  0  0  0
 75 81  1  0  0  0
 76 83  1  0  0  0
 77 82  1  0  0  0
 77149  1  0  0  0
 77150  1  0  0  0
 77151  1  0  0  0
 78 82  1  0  0  0
 78152  1  0  0  0
 78153  1  0  0  0
 79 80  1  0  0  0
 79154  1  0  0  0
 79155  1  0  0  0
 80 83  1  0  0  0
 80156  1  0  0  0
 80157  1  0  0  0
 81 84  1  0  0  0
 81 85  1  0  0  0
 81 86  1  0  0  0
M  ISO  4   1 100  68 101  79 101  82 100
M  END
> <chiral flag>
0

> <version>
0

> <s_m_source_file>
/data/baiqing/PycharmProjects/Reinvent-master-3.2/result/LINK_invent/BTK/process_docking_weight1_custom_product_contain_oxygen_bond_distance_aromatic_linkinvent_7_9_3/rearranged_h_0005.sdf

> <i_m_source_file_index>
8

> <r_mmod_Potential_Energy-OPLS-2005>
300.794311523438

> <r_mmod_Stretch_Energy-OPLS-2005>
85.7178802490234

> <r_mmod_Bend_Energy-OPLS-2005>
172.946502685547

> <r_mmod_Torsional_Energy-OPLS-2005>
250.418716430664

> <r_mmod_Improper_Torsional_Energy-OPLS-2005>
12.4209156036377

> <r_mmod_Van_der_Waal_Energy-OPLS-2005>
165.078582763672

> <r_mmod_Electrostatic_Energy-OPLS-2005>
-248.42057800293

> <r_mmod_Solvation_Energy-OPLS-2005>
-193.920837402344

> <b_mmod_Minimization_Converged-OPLS-2005>
0

> <r_mmod_RMS_Derivative-OPLS-2005>
3.89380598068237

$$$$
8
                    3D
 Structure written by MMmdl.
197206  0  0  1  0            999 V2000
  -30.5406  -15.0267   20.3471 C   0  0  0  0  0  0
  -30.4645  -12.6358   19.5048 C   0  0  0  0  0  0
  -29.5530  -12.5589   18.2575 C   0  0  0  0  0  0
  -28.0773  -12.3559   18.6647 C   0  0  0  0  0  0
  -27.6449  -13.2748   19.8400 C   0  0  2  0  0  0
  -28.6967  -13.3197   20.9723 C   0  0  0  0  0  0
  -25.2534  -13.8264   20.5770 C   0  0  0  0  0  0
  -24.1847  -13.0462   20.9267 C   0  0  0  0  0  0
  -24.6474  -11.6945   20.8676 C   0  0  0  0  0  0
  -23.9139  -10.4290   21.0348 C   0  0  0  0  0  0
  -24.3675   -9.4199   21.9145 C   0  0  0  0  0  0
  -23.6342   -8.2234   22.0701 C   0  0  0  0  0  0
  -22.4301   -8.0296   21.3542 C   0  0  0  0  0  0
  -21.9969   -9.0244   20.4647 C   0  0  0  0  0  0
  -22.7301  -10.2115   20.3030 C   0  0  0  0  0  0
  -21.6859   -6.0753   22.5264 C   0  0  0  0  0  0
  -21.3998   -6.5637   23.8223 C   0  0  0  0  0  0
  -21.3675   -5.6787   24.9164 C   0  0  0  0  0  0
  -21.6048   -4.3030   24.7211 C   0  0  0  0  0  0
  -21.8820   -3.8158   23.4309 C   0  0  0  0  0  0
  -21.9190   -4.6984   22.3375 C   0  0  0  0  0  0
  -22.7857  -13.5214   21.1925 C   0  0  0  0  0  0
  -22.1668   -4.2191   21.0950 F   0  0  0  0  0  0
  -21.5647   -3.4505   25.7715 F   0  0  0  0  0  0
  -29.9690  -13.7493   20.3639 N   0  0  0  0  0  0
  -26.3013  -12.9564   20.3283 N   0  0  0  0  0  0
  -25.9437  -11.6657   20.5659 N   0  0  0  0  0  0
  -22.0471  -12.8186   22.0442 N   0  0  0  0  0  0
  -25.4235  -15.1977   20.4197 N   0  0  0  0  0  0
  -31.7439  -15.0829   20.0588 O   0  0  0  0  0  0
  -21.6633   -6.8898   21.4244 O   0  0  0  0  0  0
  -22.3545  -14.5557   20.6808 O   0  0  0  0  0  0
  -24.6471  -31.8398   23.1826 C   0  0  0  0  0  0
  -25.9234  -32.4670   23.8229 C   0  0  1  0  0  0
  -27.2462  -27.1115   20.1555 C   0  0  0  0  0  0
  -25.5988  -33.8476   24.2150 N   0  0  0  0  0  0
  -23.4536  -30.4566   21.5227 C   0  0  2  0  0  0
  -24.9120  -28.8708   20.1031 C   0  0  0  0  0  0
  -22.7613  -29.4524   22.4789 C   0  0  0  0  0  0
  -18.0337  -28.1424   22.8488 C   0  0  0  0  0  0
  -24.1475  -36.7214   23.2643 C   0  0  0  0  0  0
  -26.0090  -30.7070   21.3888 C   0  0  0  0  0  0
  -26.0857  -29.3118   20.7270 C   0  0  0  0  0  0
  -27.2462  -28.4501   20.7365 C   0  0  0  0  0  0
  -26.0447  -26.7773   19.4892 C   0  0  0  0  0  0
  -24.9051  -27.6185   19.4643 C   0  0  0  0  0  0
  -23.6845  -29.7747   20.1435 C   0  0  0  0  0  0
  -25.4124  -36.2986   24.0304 C   0  0  1  0  0  0
  -20.5961  -28.3754   23.1208 C   0  0  2  0  0  0
  -20.6786  -26.9451   22.5380 C   0  0  0  0  0  0
  -19.5743  -26.6394   21.5208 C   0  0  0  0  0  0
  -18.1950  -26.7957   22.1639 C   0  0  0  0  0  0
  -19.1605  -28.8912   23.2822 C   0  0  0  0  0  0
  -18.9513  -30.1519   23.8847 C   0  0  0  0  0  0
  -17.6493  -30.6603   24.0600 C   0  0  0  0  0  0
  -25.9070  -34.9387   23.5009 C   0  0  0  0  0  0
  -16.5403  -29.9102   23.6369 C   0  0  0  0  0  0
  -16.7332  -28.6535   23.0370 C   0  0  0  0  0  0
  -26.4534  -31.6587   25.0712 C   0  0  0  0  0  0
  -25.3727  -31.3819   26.1416 C   0  0  0  0  0  0
  -27.0444  -30.2997   24.6336 C   0  0  0  0  0  0
  -27.6036  -32.4377   25.7503 C   0  0  0  0  0  0
  -27.5567  -37.1770   24.8471 C   0  0  0  0  0  0
  -21.4296  -29.3060   22.3545 N   0  0  0  0  0  0
  -26.4256  -37.3747   23.9421 N   0  0  0  0  0  0
  -24.7210  -31.0237   22.0863 N   0  0  0  0  0  0
  -23.4217  -28.8107   23.3000 O   0  0  0  0  0  0
  -28.3215  -26.1367   20.2435 O   0  0  0  0  0  0
  -26.5626  -34.8885   22.4577 O   0  0  0  0  0  0
  -23.5574  -32.1279   23.7039 O   0  0  0  0  0  0
  -29.1178  -21.6437   20.2014 C   0  0  0  0  0  0
  -33.1623  -28.4463   13.6062 C   0  0  0  0  0  0
  -31.6265  -18.2389   18.4993 C   0  0  0  0  0  0
  -33.0424  -19.5150   20.2669 C   0  0  0  0  0  0
  -30.1794  -17.7368   18.4249 C   0  0  0  0  0  0
  -32.6321  -20.6027   21.2505 C   0  0  0  0  0  0
  -31.8265  -18.6356   19.9776 C   0  0  1  0  0  0
  -30.4338  -19.0954   20.5235 C   0  0  2  0  0  0
  -29.6756  -17.7288   19.8823 C   0  0  2  0  0  0
  -31.5014  -21.4849   20.6591 C   0  0  1  0  0  0
  -34.3693  -27.8868   12.9198 C   0  0  0  0  0  0
  -29.0932  -23.3062   20.5911 C   0  0  0  0  0  0
  -32.0192  -22.3523   19.4439 C   0  0  0  0  0  0
  -31.8660  -29.2012   16.4210 C   0  0  0  0  0  0
  -33.5626  -25.7593   19.7180 C   0  0  0  0  0  0
  -32.2903  -30.1438   15.2735 C   0  0  0  0  0  0
  -33.0370  -28.7869   17.3402 C   0  0  0  0  0  0
  -33.3462  -24.4424   18.9263 C   0  0  0  0  0  0
  -33.8807  -27.0030   18.8467 C   0  0  0  0  0  0
  -28.1916  -24.5968   19.9328 C   0  0  0  0  0  0
  -30.2306  -20.7265   20.3418 N   0  0  0  0  0  0
  -31.9703  -27.8478   13.4310 N   0  0  0  0  0  0
  -29.7403  -16.2119   20.4411 N   0  0  0  0  0  0
  -33.3063  -29.5253   14.4019 N   0  3  0  0  0  0
  -33.1460  -23.2582   19.8077 N   0  3  0  0  0  0
  -32.6985  -27.6250   18.1959 N   0  3  0  0  0  0
  -28.0404  -21.1788   19.8308 O   0  0  0  0  0  0
  -31.5060  -12.7787   19.2026 H   0  0  0  0  0  0
  -30.4511  -11.6992   20.0658 H   0  0  0  0  0  0
  -29.8898  -11.7550   17.6060 H   0  0  0  0  0  0
  -29.6533  -13.4812   17.6820 H   0  0  0  0  0  0
  -27.9470  -11.3123   18.9455 H   0  0  0  0  0  0
  -27.4287  -12.5187   17.8006 H   0  0  0  0  0  0
  -27.6084  -14.2829   19.4230 H   0  0  0  0  0  0
  -28.7916  -12.3476   21.4588 H   0  0  0  0  0  0
  -28.3918  -14.0110   21.7596 H   0  0  0  0  0  0
  -25.2798   -9.5707   22.4739 H   0  0  0  0  0  0
  -24.0085   -7.4616   22.7377 H   0  0  0  0  0  0
  -21.0923   -8.8791   19.8910 H   0  0  0  0  0  0
  -22.3787  -10.9668   19.6145 H   0  0  0  0  0  0
  -21.1962   -7.6145   23.9766 H   0  0  0  0  0  0
  -21.1528   -6.0459   25.9093 H   0  0  0  0  0  0
  -22.0597   -2.7634   23.2751 H   0  0  0  0  0  0
  -22.4037  -11.9834   22.4864 H   0  0  0  0  0  0
  -21.1050  -13.1182   22.2567 H   0  0  0  0  0  0
  -24.6559  -15.8491   20.5393 H   0  0  0  0  0  0
  -26.2592  -15.6317   20.0486 H   0  0  0  0  0  0
  -26.7328  -32.5268   23.0961 H   0  0  0  0  0  0
  -25.0269  -33.9583   25.0387 H   0  0  0  0  0  0
  -22.7580  -31.2833   21.3630 H   0  0  0  0  0  0
  -23.3737  -35.9539   23.3274 H   0  0  0  0  0  0
  -24.3541  -36.8879   22.2055 H   0  0  0  0  0  0
  -23.7201  -37.6391   23.6706 H   0  0  0  0  0  0
  -26.1698  -31.4656   20.6211 H   0  0  0  0  0  0
  -26.8683  -30.7510   22.0435 H   0  0  0  0  0  0
  -28.1415  -28.7904   21.2382 H   0  0  0  0  0  0
  -25.9591  -25.8230   18.9940 H   0  0  0  0  0  0
  -24.0151  -27.2767   18.9553 H   0  0  0  0  0  0
  -23.8282  -30.5399   19.3801 H   0  0  0  0  0  0
  -22.7991  -29.2159   19.8320 H   0  0  0  0  0  0
  -25.1296  -36.1792   25.0795 H   0  0  0  0  0  0
  -21.0095  -28.3364   24.1317 H   0  0  0  0  0  0
  -20.5670  -26.2416   23.3625 H   0  0  0  0  0  0
  -21.6662  -26.7404   22.1233 H   0  0  0  0  0  0
  -19.6863  -25.6275   21.1308 H   0  0  0  0  0  0
  -19.6669  -27.3144   20.6680 H   0  0  0  0  0  0
  -17.4231  -26.6782   21.4018 H   0  0  0  0  0  0
  -18.0304  -26.0075   22.9011 H   0  0  0  0  0  0
  -19.7989  -30.7370   24.2164 H   0  0  0  0  0  0
  -17.5064  -31.6270   24.5200 H   0  0  0  0  0  0
  -15.5400  -30.2995   23.7664 H   0  0  0  0  0  0
  -15.8750  -28.0821   22.7073 H   0  0  0  0  0  0
  -24.5883  -30.7171   25.7775 H   0  0  0  0  0  0
  -24.8947  -32.3040   26.4754 H   0  0  0  0  0  0
  -25.8030  -30.9081   27.0256 H   0  0  0  0  0  0
  -26.3106  -29.6702   24.1297 H   0  0  0  0  0  0
  -27.4019  -29.7297   25.4924 H   0  0  0  0  0  0
  -27.9015  -30.4218   23.9697 H   0  0  0  0  0  0
  -27.2602  -33.3727   26.1943 H   0  0  0  0  0  0
  -28.3937  -32.6881   25.0407 H   0  0  0  0  0  0
  -28.0614  -31.8615   26.5552 H   0  0  0  0  0  0
  -28.2561  -38.0086   24.7542 H   0  0  0  0  0  0
  -28.1071  -36.2619   24.6256 H   0  0  0  0  0  0
  -27.2296  -37.1384   25.8875 H   0  0  0  0  0  0
  -20.9527  -29.8823   21.6758 H   0  0  0  0  0  0
  -26.0088  -38.2791   24.1486 H   0  0  0  0  0  0
  -31.7742  -19.0656   17.7971 H   0  0  0  0  0  0
  -32.3195  -17.4445   18.2069 H   0  0  0  0  0  0
  -33.8566  -18.9152   20.6837 H   0  0  0  0  0  0
  -33.4460  -19.9463   19.3477 H   0  0  0  0  0  0
  -30.1002  -16.7675   17.9298 H   0  0  0  0  0  0
  -29.5798  -18.4318   17.8365 H   0  0  0  0  0  0
  -33.5099  -21.1862   21.5402 H   0  0  0  0  0  0
  -32.3015  -20.1473   22.1882 H   0  0  0  0  0  0
  -32.0579  -17.7062   20.4986 H   0  0  0  0  0  0
  -30.3888  -18.9579   21.6057 H   0  0  0  0  0  0
  -28.6054  -17.9419   19.8846 H   0  0  0  0  0  0
  -31.2698  -22.1556   21.4894 H   0  0  0  0  0  0
  -34.0907  -27.3194   12.0322 H   0  0  0  0  0  0
  -34.9010  -27.2207   13.5998 H   0  0  0  0  0  0
  -35.0492  -28.6816   12.6143 H   0  0  0  0  0  0
  -30.0958  -23.7160   20.6734 H   0  0  0  0  0  0
  -28.7753  -23.2789   21.6325 H   0  0  0  0  0  0
  -31.2219  -22.9643   19.0314 H   0  0  0  0  0  0
  -32.3161  -21.7249   18.6018 H   0  0  0  0  0  0
  -31.3903  -28.3142   16.0001 H   0  0  0  0  0  0
  -31.0924  -29.6948   17.0125 H   0  0  0  0  0  0
  -34.4153  -25.6168   20.3838 H   0  0  0  0  0  0
  -32.7060  -25.9681   20.3642 H   0  0  0  0  0  0
  -32.6941  -31.0705   15.6835 H   0  0  0  0  0  0
  -31.4266  -30.4217   14.6666 H   0  0  0  0  0  0
  -33.3562  -29.6283   17.9601 H   0  0  0  0  0  0
  -33.8988  -28.5116   16.7325 H   0  0  0  0  0  0
  -34.2136  -24.2478   18.2908 H   0  0  0  0  0  0
  -32.4968  -24.5710   18.2561 H   0  0  0  0  0  0
  -34.6268  -26.7376   18.0978 H   0  0  0  0  0  0
  -34.3455  -27.7641   19.4792 H   0  0  0  0  0  0
  -27.1503  -24.3368   20.1163 H   0  0  0  0  0  0
  -28.3104  -24.5261   18.8512 H   0  0  0  0  0  0
  -31.8980  -27.0042   12.8745 H   0  0  0  0  0  0
  -31.1004  -28.2290   13.7748 H   0  0  0  0  0  0
  -28.8249  -15.9451   20.7815 H   0  0  0  0  0  0
  -34.2233  -29.9550   14.4415 H   0  0  0  0  0  0
  -34.0032  -22.7238   19.8057 H   0  0  0  0  0  0
  -33.0106  -23.5905   20.7469 H   0  0  0  0  0  0
  -32.2438  -26.9446   17.6110 H   0  0  0  0  0  0
  -32.0377  -27.9263   18.8972 H   0  0  0  0  0  0
  1 25  1  0  0  0
  1 30  2  0  0  0
  1 93  1  0  0  0
  2  3  1  0  0  0
  2 25  1  0  0  0
  2 98  1  0  0  0
  2 99  1  0  0  0
  3  4  1  0  0  0
  3100  1  0  0  0
  3101  1  0  0  0
  4  5  1  0  0  0
  4102  1  0  0  0
  4103  1  0  0  0
  5  6  1  0  0  0
  5 26  1  0  0  0
  5104  1  0  0  0
  6 25  1  0  0  0
  6105  1  0  0  0
  6106  1  0  0  0
  7  8  2  0  0  0
  7 26  1  0  0  0
  7 29  1  0  0  0
  8  9  1  0  0  0
  8 22  1  0  0  0
  9 10  1  0  0  0
  9 27  2  0  0  0
 10 11  2  0  0  0
 10 15  1  0  0  0
 11 12  1  0  0  0
 11107  1  0  0  0
 12 13  2  0  0  0
 12108  1  0  0  0
 13 14  1  0  0  0
 13 31  1  0  0  0
 14 15  2  0  0  0
 14109  1  0  0  0
 15110  1  0  0  0
 16 17  2  0  0  0
 16 21  1  0  0  0
 16 31  1  0  0  0
 17 18  1  0  0  0
 17111  1  0  0  0
 18 19  2  0  0  0
 18112  1  0  0  0
 19 20  1  0  0  0
 19 24  1  0  0  0
 20 21  2  0  0  0
 20113  1  0  0  0
 21 23  1  0  0  0
 22 28  1  0  0  0
 22 32  2  0  0  0
 26 27  1  0  0  0
 28114  1  0  0  0
 28115  1  0  0  0
 29116  1  0  0  0
 29117  1  0  0  0
 33 34  1  0  0  0
 33 66  1  0  0  0
 33 70  2  0  0  0
 34 36  1  0  0  0
 34 59  1  0  0  0
 34118  1  0  0  0
 35 44  2  0  0  0
 35 45  1  0  0  0
 35 68  1  0  0  0
 36 56  1  0  0  0
 36119  1  0  0  0
 37 39  1  0  0  0
 37 47  1  0  0  0
 37 66  1  0  0  0
 37120  1  0  0  0
 38 43  2  0  0  0
 38 46  1  0  0  0
 38 47  1  0  0  0
 39 64  1  0  0  0
 39 67  2  0  0  0
 40 52  1  0  0  0
 40 53  2  0  0  0
 40 58  1  0  0  0
 41121  1  0  0  0
 41122  1  0  0  0
 41123  1  0  0  0
 41 48  1  0  0  0
 42 43  1  0  0  0
 42 66  1  0  0  0
 42124  1  0  0  0
 42125  1  0  0  0
 43 44  1  0  0  0
 44126  1  0  0  0
 45 46  2  0  0  0
 45127  1  0  0  0
 46128  1  0  0  0
 47129  1  0  0  0
 47130  1  0  0  0
 48 56  1  0  0  0
 48 65  1  0  0  0
 48131  1  0  0  0
 49 50  1  0  0  0
 49 53  1  0  0  0
 49 64  1  0  0  0
 49132  1  0  0  0
 50 51  1  0  0  0
 50133  1  0  0  0
 50134  1  0  0  0
 51 52  1  0  0  0
 51135  1  0  0  0
 51136  1  0  0  0
 52137  1  0  0  0
 52138  1  0  0  0
 53 54  1  0  0  0
 54 55  2  0  0  0
 54139  1  0  0  0
 55 57  1  0  0  0
 55140  1  0  0  0
 56 69  2  0  0  0
 57 58  2  0  0  0
 57141  1  0  0  0
 58142  1  0  0  0
 59 60  1  0  0  0
 59 61  1  0  0  0
 59 62  1  0  0  0
 60143  1  0  0  0
 60144  1  0  0  0
 60145  1  0  0  0
 61146  1  0  0  0
 61147  1  0  0  0
 61148  1  0  0  0
 62149  1  0  0  0
 62150  1  0  0  0
 62151  1  0  0  0
 63 65  1  0  0  0
 63152  1  0  0  0
 63153  1  0  0  0
 63154  1  0  0  0
 64155  1  0  0  0
 65156  1  0  0  0
 68 90  1  0  0  0
 71 82  1  0  0  0
 71 91  1  0  0  0
 71 97  2  0  0  0
 72 81  1  0  0  0
 72 92  1  0  0  0
 72 94  2  0  0  0
 73 75  1  0  0  0
 73157  1  0  0  0
 73158  1  0  0  0
 73 77  1  0  0  0
 74 76  1  0  0  0
 74 77  1  0  0  0
 74159  1  0  0  0
 74160  1  0  0  0
 75 79  1  0  0  0
 75161  1  0  0  0
 75162  1  0  0  0
 76 80  1  0  0  0
 76163  1  0  0  0
 76164  1  0  0  0
 77 78  1  0  0  0
 77165  1  0  0  0
 78 79  1  0  0  0
 78 91  1  0  0  0
 78166  1  0  0  0
 79 93  1  0  0  0
 79167  1  0  0  0
 80 83  1  0  0  0
 80 91  1  0  0  0
 80168  1  0  0  0
 81169  1  0  0  0
 81170  1  0  0  0
 81171  1  0  0  0
 82 90  1  0  0  0
 82172  1  0  0  0
 82173  1  0  0  0
 83 95  1  0  0  0
 83174  1  0  0  0
 83175  1  0  0  0
 84 86  1  0  0  0
 84 87  1  0  0  0
 84176  1  0  0  0
 84177  1  0  0  0
 85 88  1  0  0  0
 85 89  1  0  0  0
 85178  1  0  0  0
 85179  1  0  0  0
 86 94  1  0  0  0
 86180  1  0  0  0
 86181  1  0  0  0
 87 96  1  0  0  0
 87182  1  0  0  0
 87183  1  0  0  0
 88 95  1  0  0  0
 88184  1  0  0  0
 88185  1  0  0  0
 89 96  1  0  0  0
 89186  1  0  0  0
 89187  1  0  0  0
 90188  1  0  0  0
 90189  1  0  0  0
 92190  1  0  0  0
 92191  1  0  0  0
 93192  1  0  0  0
 94193  1  0  0  0
 95194  1  0  0  0
 95195  1  0  0  0
 96196  1  0  0  0
 96197  1  0  0  0
M  CHG  3  94   1  95   1  96   1
M  ISO  4   1 100  68 101  90 101  93 100
M  END
> <chiral flag>
0

> <version>
0

> <s_m_source_file>
/data/baiqing/PycharmProjects/Reinvent-master-3.2/result/LINK_invent/BTK/process_docking_weight1_custom_product_contain_oxygen_bond_distance_aromatic_linkinvent_7_9_3/rearranged_h_0005.sdf

> <i_m_source_file_index>
9

> <r_mmod_Potential_Energy-OPLS-2005>
502.276031494141

> <r_mmod_Stretch_Energy-OPLS-2005>
379.13232421875

> <r_mmod_Bend_Energy-OPLS-2005>
437.211181640625

> <r_mmod_Torsional_Energy-OPLS-2005>
387.492553710938

> <r_mmod_Improper_Torsional_Energy-OPLS-2005>
6.68778800964355

> <r_mmod_Van_der_Waal_Energy-OPLS-2005>
124.518737792969

> <r_mmod_Electrostatic_Energy-OPLS-2005>
643.197631835938

> <r_mmod_Solvation_Energy-OPLS-2005>
-1708.859375

> <b_mmod_Minimization_Converged-OPLS-2005>
0

> <r_mmod_RMS_Derivative-OPLS-2005>
7.83795928955078

$$$$
9
                    3D
 Structure written by MMmdl.
155163  0  0  1  0            999 V2000
  -30.2002  -15.4655   20.0935 C   0  0  0  0  0  0
  -30.4159  -12.9981   19.4382 C   0  0  0  0  0  0
  -29.5180  -12.5543   18.2661 C   0  0  0  0  0  0
  -28.1049  -12.2101   18.7661 C   0  0  0  0  0  0
  -27.5660  -13.2600   19.7650 C   0  0  2  0  0  0
  -28.5761  -13.6016   20.8645 C   0  0  0  0  0  0
  -25.2274  -13.8187   20.5766 C   0  0  0  0  0  0
  -24.1639  -13.0372   20.9320 C   0  0  0  0  0  0
  -24.6292  -11.6891   20.8796 C   0  0  0  0  0  0
  -23.9024  -10.4264   21.0434 C   0  0  0  0  0  0
  -24.3602   -9.4177   21.9199 C   0  0  0  0  0  0
  -23.6280   -8.2205   22.0763 C   0  0  0  0  0  0
  -22.4261   -8.0255   21.3548 C   0  0  0  0  0  0
  -21.9888   -9.0220   20.4645 C   0  0  0  0  0  0
  -22.7213  -10.2103   20.3061 C   0  0  0  0  0  0
  -21.6845   -6.0719   22.5282 C   0  0  0  0  0  0
  -21.4005   -6.5628   23.8213 C   0  0  0  0  0  0
  -21.3660   -5.6783   24.9177 C   0  0  0  0  0  0
  -21.6047   -4.3048   24.7231 C   0  0  0  0  0  0
  -21.8817   -3.8137   23.4356 C   0  0  0  0  0  0
  -21.9189   -4.6947   22.3409 C   0  0  0  0  0  0
  -22.7681  -13.5158   21.1969 C   0  0  0  0  0  0
  -22.1658   -4.2135   21.0985 F   0  0  0  0  0  0
  -21.5633   -3.4537   25.7746 F   0  0  0  0  0  0
  -29.7452  -14.1394   20.1543 N   0  0  0  0  0  0
  -26.2594  -12.9407   20.3021 N   0  0  0  0  0  0
  -25.9184  -11.6535   20.5626 N   0  0  0  0  0  0
  -22.0328  -12.8135   22.0523 N   0  0  0  0  0  0
  -25.3875  -15.1924   20.4280 N   0  0  0  0  0  0
  -31.4335  -15.5230   20.0639 O   0  0  0  0  0  0
  -21.6632   -6.8856   21.4241 O   0  0  0  0  0  0
  -22.3376  -14.5462   20.6810 O   0  0  0  0  0  0
  -24.6075  -31.9156   23.2404 C   0  0  0  0  0  0
  -25.9011  -32.4908   23.8608 C   0  0  1  0  0  0
  -27.0425  -27.7251   20.0319 C   0  0  0  0  0  0
  -25.5767  -33.8723   24.2464 N   0  0  0  0  0  0
  -23.3018  -30.5992   21.6082 C   0  0  2  0  0  0
  -24.6199  -29.1220   20.1721 C   0  0  0  0  0  0
  -22.7292  -29.5043   22.5013 C   0  0  0  0  0  0
  -18.0252  -28.1342   22.8648 C   0  0  0  0  0  0
  -24.1350  -36.7233   23.2647 C   0  0  0  0  0  0
  -25.7123  -31.0601   21.2371 C   0  0  0  0  0  0
  -25.7952  -29.6942   20.7282 C   0  0  0  0  0  0
  -26.9691  -28.9717   20.6471 C   0  0  0  0  0  0
  -25.8426  -26.9846   19.9455 C   0  0  0  0  0  0
  -24.6453  -27.6940   19.8106 C   0  0  0  0  0  0
  -23.4009  -30.0356   20.2309 C   0  0  0  0  0  0
  -25.4042  -36.3174   24.0342 C   0  0  1  0  0  0
  -20.5848  -28.3583   23.1441 C   0  0  2  0  0  0
  -20.6613  -26.9307   22.5558 C   0  0  0  0  0  0
  -19.5642  -26.6346   21.5377 C   0  0  0  0  0  0
  -18.1859  -26.7929   22.1736 C   0  0  0  0  0  0
  -19.1487  -28.8797   23.3079 C   0  0  0  0  0  0
  -18.9321  -30.1351   23.9169 C   0  0  0  0  0  0
  -17.6315  -30.6562   24.0589 C   0  0  0  0  0  0
  -25.9068  -34.9535   23.5251 C   0  0  0  0  0  0
  -16.5237  -29.9083   23.6132 C   0  0  0  0  0  0
  -16.7225  -28.6435   23.0305 C   0  0  0  0  0  0
  -26.4453  -31.6635   25.0734 C   0  0  0  0  0  0
  -25.4031  -31.3528   26.1632 C   0  0  0  0  0  0
  -27.0099  -30.3193   24.5615 C   0  0  0  0  0  0
  -27.6171  -32.4333   25.7383 C   0  0  0  0  0  0
  -27.5586  -37.1719   24.8459 C   0  0  0  0  0  0
  -21.4201  -29.3190   22.4182 N   0  0  0  0  0  0
  -26.4263  -37.3926   23.9437 N   0  0  0  0  0  0
  -24.5789  -31.1865   22.1017 N   0  0  0  0  0  0
  -23.4212  -28.7699   23.1912 O   0  0  0  0  0  0
  -28.2967  -27.2081   20.2006 O   0  0  0  0  0  0
  -26.5760  -34.9018   22.4861 O   0  0  0  0  0  0
  -23.5469  -32.1706   23.7970 O   0  0  0  0  0  0
  -29.7229  -20.9290   19.0202 C   0  0  0  0  0  0
  -29.4417  -22.2954   18.6782 C   0  0  0  0  0  0
  -27.1397  -21.8258   18.6922 C   0  0  0  0  0  0
  -28.7692  -19.8481   19.2234 C   0  0  0  0  0  0
  -28.1592  -22.8260   18.4537 C   0  0  0  0  0  0
  -27.4059  -20.4158   19.0589 C   0  0  0  0  0  0
  -27.8315  -24.6151   16.5755 C   0  0  0  0  0  0
  -29.5463  -18.3060   19.5462 C   0  0  0  0  0  0
  -27.9970  -25.4387   18.5840 C   0  0  0  0  0  0
  -28.5800  -25.8439   19.8165 C   0  0  0  0  0  0
  -29.3278  -16.6603   19.8550 N   0  0  0  0  0  0
  -28.1052  -24.2048   17.9374 N   0  0  0  0  0  0
  -26.3118  -19.6726   19.2730 F   0  0  0  0  0  0
  -31.3617  -13.3381   19.0140 H   0  0  0  0  0  0
  -30.6556  -12.2004   20.1380 H   0  0  0  0  0  0
  -29.9671  -11.7001   17.7664 H   0  0  0  0  0  0
  -29.4510  -13.3520   17.5218 H   0  0  0  0  0  0
  -28.1791  -11.2485   19.2751 H   0  0  0  0  0  0
  -27.4186  -12.0626   17.9277 H   0  0  0  0  0  0
  -27.4157  -14.1585   19.1600 H   0  0  0  0  0  0
  -28.8284  -12.7604   21.5071 H   0  0  0  0  0  0
  -28.1581  -14.3823   21.5003 H   0  0  0  0  0  0
  -25.2742   -9.5666   22.4774 H   0  0  0  0  0  0
  -23.9993   -7.4605   22.7476 H   0  0  0  0  0  0
  -21.0830   -8.8736   19.8953 H   0  0  0  0  0  0
  -22.3672  -10.9644   19.6181 H   0  0  0  0  0  0
  -21.1991   -7.6137   23.9712 H   0  0  0  0  0  0
  -21.1486   -6.0519   25.9083 H   0  0  0  0  0  0
  -22.0599   -2.7598   23.2861 H   0  0  0  0  0  0
  -22.3954  -11.9809   22.4910 H   0  0  0  0  0  0
  -21.0933  -13.1141   22.2711 H   0  0  0  0  0  0
  -24.6158  -15.8354   20.5671 H   0  0  0  0  0  0
  -26.2253  -15.6520   20.1000 H   0  0  0  0  0  0
  -26.7159  -32.5673   23.1663 H   0  0  0  0  0  0
  -24.9321  -34.0184   25.0045 H   0  0  0  0  0  0
  -22.5746  -31.3940   21.6053 H   0  0  0  0  0  0
  -23.3930  -35.9269   23.3110 H   0  0  0  0  0  0
  -24.3464  -36.9129   22.2137 H   0  0  0  0  0  0
  -23.6792  -37.6149   23.6902 H   0  0  0  0  0  0
  -25.5685  -31.7207   20.3661 H   0  0  0  0  0  0
  -26.6969  -31.2915   21.6067 H   0  0  0  0  0  0
  -27.9169  -29.4700   20.9842 H   0  0  0  0  0  0
  -25.7244  -25.9009   20.0099 H   0  0  0  0  0  0
  -23.7169  -27.1900   19.6189 H   0  0  0  0  0  0
  -23.5118  -30.8637   19.5974 H   0  0  0  0  0  0
  -22.4612  -29.5632   19.9110 H   0  0  0  0  0  0
  -25.1244  -36.2135   25.0887 H   0  0  0  0  0  0
  -20.9821  -28.3078   24.1638 H   0  0  0  0  0  0
  -20.5303  -26.2422   23.3878 H   0  0  0  0  0  0
  -21.6554  -26.7185   22.1529 H   0  0  0  0  0  0
  -19.6773  -25.6284   21.1327 H   0  0  0  0  0  0
  -19.6439  -27.3254   20.7028 H   0  0  0  0  0  0
  -17.4170  -26.6882   21.4009 H   0  0  0  0  0  0
  -17.9992  -25.9922   22.8942 H   0  0  0  0  0  0
  -19.7658  -30.7133   24.2814 H   0  0  0  0  0  0
  -17.4726  -31.6323   24.5123 H   0  0  0  0  0  0
  -15.5168  -30.3049   23.7289 H   0  0  0  0  0  0
  -15.8660  -28.0813   22.6897 H   0  0  0  0  0  0
  -24.6411  -30.6526   25.8226 H   0  0  0  0  0  0
  -24.8936  -32.2489   26.5230 H   0  0  0  0  0  0
  -25.8741  -30.8926   27.0312 H   0  0  0  0  0  0
  -26.2283  -29.6740   24.1705 H   0  0  0  0  0  0
  -27.5141  -29.7476   25.3399 H   0  0  0  0  0  0
  -27.7158  -30.4649   23.7497 H   0  0  0  0  0  0
  -27.2946  -33.3868   26.1625 H   0  0  0  0  0  0
  -28.4052  -32.6530   25.0142 H   0  0  0  0  0  0
  -28.0776  -31.8722   26.5565 H   0  0  0  0  0  0
  -28.2556  -38.0062   24.7710 H   0  0  0  0  0  0
  -28.1091  -36.2640   24.6022 H   0  0  0  0  0  0
  -27.2275  -37.1025   25.8829 H   0  0  0  0  0  0
  -20.9350  -29.9184   21.7896 H   0  0  0  0  0  0
  -26.0167  -38.2962   24.1640 H   0  0  0  0  0  0
  -30.7548  -20.7341   19.1187 H   0  0  0  0  0  0
  -30.2511  -23.0019   18.5518 H   0  0  0  0  0  0
  -26.1252  -22.2106   18.6010 H   0  0  0  0  0  0
  -27.9201  -23.7853   15.8361 H   0  0  0  0  0  0
  -28.5390  -25.3663   16.2363 H   0  0  0  0  0  0
  -26.8710  -25.1021   16.4970 H   0  0  0  0  0  0
  -30.1886  -18.6344   20.3583 H   0  0  0  0  0  0
  -30.1752  -18.2897   18.6568 H   0  0  0  0  0  0
  -28.2649  -26.2742   17.9314 H   0  0  0  0  0  0
  -26.9357  -25.4070   18.7019 H   0  0  0  0  0  0
  -28.1379  -25.3710   20.6984 H   0  0  0  0  0  0
  -29.6283  -26.0774   19.8616 H   0  0  0  0  0  0
  -28.3327  -16.4486   19.8067 H   0  0  0  0  0  0
  1 25  1  0  0  0
  1 30  2  0  0  0
  1 81  1  0  0  0
  2  3  1  0  0  0
  2 25  1  0  0  0
  2 84  1  0  0  0
  2 85  1  0  0  0
  3  4  1  0  0  0
  3 86  1  0  0  0
  3 87  1  0  0  0
  4  5  1  0  0  0
  4 88  1  0  0  0
  4 89  1  0  0  0
  5  6  1  0  0  0
  5 26  1  0  0  0
  5 90  1  0  0  0
  6 25  1  0  0  0
  6 91  1  0  0  0
  6 92  1  0  0  0
  7  8  2  0  0  0
  7 26  1  0  0  0
  7 29  1  0  0  0
  8  9  1  0  0  0
  8 22  1  0  0  0
  9 10  1  0  0  0
  9 27  2  0  0  0
 10 11  2  0  0  0
 10 15  1  0  0  0
 11 12  1  0  0  0
 11 93  1  0  0  0
 12 13  2  0  0  0
 12 94  1  0  0  0
 13 14  1  0  0  0
 13 31  1  0  0  0
 14 15  2  0  0  0
 14 95  1  0  0  0
 15 96  1  0  0  0
 16 17  2  0  0  0
 16 21  1  0  0  0
 16 31  1  0  0  0
 17 18  1  0  0  0
 17 97  1  0  0  0
 18 19  2  0  0  0
 18 98  1  0  0  0
 19 20  1  0  0  0
 19 24  1  0  0  0
 20 21  2  0  0  0
 20 99  1  0  0  0
 21 23  1  0  0  0
 22 28  1  0  0  0
 22 32  2  0  0  0
 26 27  1  0  0  0
 28100  1  0  0  0
 28101  1  0  0  0
 29102  1  0  0  0
 29103  1  0  0  0
 33 34  1  0  0  0
 33 66  1  0  0  0
 33 70  2  0  0  0
 34 36  1  0  0  0
 34 59  1  0  0  0
 34104  1  0  0  0
 35 44  2  0  0  0
 35 45  1  0  0  0
 35 68  1  0  0  0
 36 56  1  0  0  0
 36105  1  0  0  0
 37 39  1  0  0  0
 37 47  1  0  0  0
 37 66  1  0  0  0
 37106  1  0  0  0
 38 43  2  0  0  0
 38 46  1  0  0  0
 38 47  1  0  0  0
 39 64  1  0  0  0
 39 67  2  0  0  0
 40 52  1  0  0  0
 40 53  2  0  0  0
 40 58  1  0  0  0
 41107  1  0  0  0
 41108  1  0  0  0
 41109  1  0  0  0
 41 48  1  0  0  0
 42 43  1  0  0  0
 42 66  1  0  0  0
 42110  1  0  0  0
 42111  1  0  0  0
 43 44  1  0  0  0
 44112  1  0  0  0
 45 46  2  0  0  0
 45113  1  0  0  0
 46114  1  0  0  0
 47115  1  0  0  0
 47116  1  0  0  0
 48 56  1  0  0  0
 48 65  1  0  0  0
 48117  1  0  0  0
 49 50  1  0  0  0
 49 53  1  0  0  0
 49 64  1  0  0  0
 49118  1  0  0  0
 50 51  1  0  0  0
 50119  1  0  0  0
 50120  1  0  0  0
 51 52  1  0  0  0
 51121  1  0  0  0
 51122  1  0  0  0
 52123  1  0  0  0
 52124  1  0  0  0
 53 54  1  0  0  0
 54 55  2  0  0  0
 54125  1  0  0  0
 55 57  1  0  0  0
 55126  1  0  0  0
 56 69  2  0  0  0
 57 58  2  0  0  0
 57127  1  0  0  0
 58128  1  0  0  0
 59 60  1  0  0  0
 59 61  1  0  0  0
 59 62  1  0  0  0
 60129  1  0  0  0
 60130  1  0  0  0
 60131  1  0  0  0
 61132  1  0  0  0
 61133  1  0  0  0
 61134  1  0  0  0
 62135  1  0  0  0
 62136  1  0  0  0
 62137  1  0  0  0
 63 65  1  0  0  0
 63138  1  0  0  0
 63139  1  0  0  0
 63140  1  0  0  0
 64141  1  0  0  0
 65142  1  0  0  0
 68 80  1  0  0  0
 71 72  2  0  0  0
 71 74  1  0  0  0
 71143  1  0  0  0
 72 75  1  0  0  0
 72144  1  0  0  0
 73 75  2  0  0  0
 73 76  1  0  0  0
 73145  1  0  0  0
 74 76  2  0  0  0
 74 78  1  0  0  0
 75 82  1  0  0  0
 76 83  1  0  0  0
 77 82  1  0  0  0
 77146  1  0  0  0
 77147  1  0  0  0
 77148  1  0  0  0
 78 81  1  0  0  0
 78149  1  0  0  0
 78150  1  0  0  0
 79 80  1  0  0  0
 79 82  1  0  0  0
 79151  1  0  0  0
 79152  1  0  0  0
 80153  1  0  0  0
 80154  1  0  0  0
 81155  1  0  0  0
M  ISO  4   1 100  68 101  80 101  81 100
M  END
> <chiral flag>
0

> <version>
0

> <s_m_source_file>
/data/baiqing/PycharmProjects/Reinvent-master-3.2/result/LINK_invent/BTK/process_docking_weight1_custom_product_contain_oxygen_bond_distance_aromatic_linkinvent_7_9_3/rearranged_h_0005.sdf

> <i_m_source_file_index>
10

> <r_mmod_Potential_Energy-OPLS-2005>
1450.30725097656

> <r_mmod_Stretch_Energy-OPLS-2005>
349.715301513672

> <r_mmod_Bend_Energy-OPLS-2005>
563.630126953125

> <r_mmod_Torsional_Energy-OPLS-2005>
275.981964111328

> <r_mmod_Improper_Torsional_Energy-OPLS-2005>
17.8028717041016

> <r_mmod_Van_der_Waal_Energy-OPLS-2005>
195.080139160156

> <r_mmod_Electrostatic_Energy-OPLS-2005>
-360.411010742188

> <r_mmod_Solvation_Energy-OPLS-2005>
-212.73779296875

> <b_mmod_Minimization_Converged-OPLS-2005>
0

> <r_mmod_RMS_Derivative-OPLS-2005>
87.7099761962891

$$$$
10
                    3D
 Structure written by MMmdl.
154163  0  0  1  0            999 V2000
  -30.4008  -15.3709   20.3882 C   0  0  0  0  0  0
  -30.4496  -12.9030   19.4897 C   0  0  0  0  0  0
  -29.5315  -12.5950   18.2763 C   0  0  0  0  0  0
  -28.0900  -12.2849   18.7216 C   0  0  0  0  0  0
  -27.6126  -13.2565   19.8252 C   0  0  2  0  0  0
  -28.6699  -13.4237   20.9460 C   0  0  0  0  0  0
  -25.2288  -13.8130   20.5640 C   0  0  0  0  0  0
  -24.1694  -13.0340   20.9267 C   0  0  0  0  0  0
  -24.6387  -11.6862   20.8812 C   0  0  0  0  0  0
  -23.9089  -10.4241   21.0435 C   0  0  0  0  0  0
  -24.3630   -9.4158   21.9208 C   0  0  0  0  0  0
  -23.6289   -8.2205   22.0765 C   0  0  0  0  0  0
  -22.4272   -8.0261   21.3546 C   0  0  0  0  0  0
  -21.9924   -9.0238   20.4646 C   0  0  0  0  0  0
  -22.7271  -10.2104   20.3065 C   0  0  0  0  0  0
  -21.6847   -6.0725   22.5274 C   0  0  0  0  0  0
  -21.4005   -6.5633   23.8205 C   0  0  0  0  0  0
  -21.3656   -5.6791   24.9171 C   0  0  0  0  0  0
  -21.6044   -4.3054   24.7225 C   0  0  0  0  0  0
  -21.8819   -3.8141   23.4348 C   0  0  0  0  0  0
  -21.9189   -4.6955   22.3400 C   0  0  0  0  0  0
  -22.7713  -13.5111   21.1899 C   0  0  0  0  0  0
  -22.1661   -4.2141   21.0979 F   0  0  0  0  0  0
  -21.5633   -3.4538   25.7740 F   0  0  0  0  0  0
  -29.8514  -14.0392   20.2964 N   0  0  0  0  0  0
  -26.2807  -12.9429   20.3265 N   0  0  0  0  0  0
  -25.9333  -11.6553   20.5811 N   0  0  0  0  0  0
  -22.0375  -12.8118   22.0473 N   0  0  0  0  0  0
  -25.3593  -15.1840   20.3817 N   0  0  0  0  0  0
  -31.6352  -15.3381   20.2409 O   0  0  0  0  0  0
  -21.6630   -6.8864   21.4236 O   0  0  0  0  0  0
  -22.3394  -14.5411   20.6731 O   0  0  0  0  0  0
  -24.6671  -31.8200   23.1654 C   0  0  0  0  0  0
  -25.9332  -32.4573   23.8139 C   0  0  1  0  0  0
  -27.2293  -26.8933   20.1971 C   0  0  0  0  0  0
  -25.5984  -33.8387   24.2045 N   0  0  0  0  0  0
  -23.4841  -30.4293   21.5156 C   0  0  2  0  0  0
  -24.9395  -28.8041   20.1212 C   0  0  0  0  0  0
  -22.7686  -29.4426   22.4760 C   0  0  0  0  0  0
  -18.0325  -28.1424   22.8462 C   0  0  0  0  0  0
  -24.1491  -36.7198   23.2649 C   0  0  0  0  0  0
  -26.0562  -30.6167   21.3994 C   0  0  0  0  0  0
  -26.1266  -29.2004   20.7502 C   0  0  0  0  0  0
  -27.2677  -28.2705   20.7557 C   0  0  0  0  0  0
  -26.0082  -26.6547   19.5265 C   0  0  0  0  0  0
  -24.9068  -27.5511   19.4890 C   0  0  0  0  0  0
  -23.7282  -29.7382   20.1458 C   0  0  0  0  0  0
  -25.4133  -36.2955   24.0295 C   0  0  1  0  0  0
  -20.5954  -28.3773   23.1179 C   0  0  2  0  0  0
  -20.6802  -26.9448   22.5404 C   0  0  0  0  0  0
  -19.5777  -26.6384   21.5219 C   0  0  0  0  0  0
  -18.1958  -26.7954   22.1619 C   0  0  0  0  0  0
  -19.1589  -28.8916   23.2809 C   0  0  0  0  0  0
  -18.9500  -30.1503   23.8852 C   0  0  0  0  0  0
  -17.6496  -30.6611   24.0559 C   0  0  0  0  0  0
  -25.9108  -34.9344   23.4992 C   0  0  0  0  0  0
  -16.5384  -29.9103   23.6346 C   0  0  0  0  0  0
  -16.7306  -28.6523   23.0363 C   0  0  0  0  0  0
  -26.4560  -31.6532   25.0686 C   0  0  0  0  0  0
  -25.3661  -31.3794   26.1322 C   0  0  0  0  0  0
  -27.0464  -30.2896   24.6440 C   0  0  0  0  0  0
  -27.6048  -32.4348   25.7490 C   0  0  0  0  0  0
  -27.5560  -37.1756   24.8467 C   0  0  0  0  0  0
  -21.4351  -29.3054   22.3518 N   0  0  0  0  0  0
  -26.4269  -37.3698   23.9409 N   0  0  0  0  0  0
  -24.7574  -30.9830   22.0807 N   0  0  0  0  0  0
  -23.4214  -28.8000   23.3020 O   0  0  0  0  0  0
  -28.2429  -25.7831   20.1869 O   0  0  0  0  0  0
  -26.5726  -34.8890   22.4595 O   0  0  0  0  0  0
  -23.5730  -32.1182   23.6722 O   0  0  0  0  0  0
  -29.2325  -21.2358   18.0277 C   0  0  0  0  0  0
  -29.4684  -20.0110   18.7178 C   0  0  0  0  0  0
  -28.8698  -22.4726   18.6389 C   0  0  0  0  0  0
  -28.9718  -21.2636   20.7164 C   0  0  0  0  0  0
  -29.3828  -19.8832   20.1197 C   0  0  0  0  0  0
  -28.6905  -22.6308   20.0303 C   0  0  0  0  0  0
  -27.9452  -17.5302   21.9247 C   0  0  0  0  0  0
  -29.2436  -18.2843   22.1906 C   0  0  0  0  0  0
  -28.2052  -16.7147   20.6470 C   0  0  0  0  0  0
  -29.8812  -18.3263   20.8062 C   0  0  1  0  0  0
  -28.0220  -24.1770   20.5734 C   0  0  0  0  0  0
  -29.6473  -16.6939   20.4339 N   0  0  0  0  0  0
  -31.4409  -13.1637   19.1168 H   0  0  0  0  0  0
  -30.6010  -12.0131   20.1029 H   0  0  0  0  0  0
  -29.9335  -11.7616   17.6981 H   0  0  0  0  0  0
  -29.5243  -13.4559   17.6059 H   0  0  0  0  0  0
  -28.0707  -11.2637   19.1037 H   0  0  0  0  0  0
  -27.4123  -12.3053   17.8671 H   0  0  0  0  0  0
  -27.5159  -14.2062   19.3010 H   0  0  0  0  0  0
  -28.9030  -12.4608   21.4027 H   0  0  0  0  0  0
  -28.3133  -14.0352   21.7741 H   0  0  0  0  0  0
  -25.2763   -9.5631   22.4801 H   0  0  0  0  0  0
  -23.9983   -7.4590   22.7486 H   0  0  0  0  0  0
  -21.0859   -8.8770   19.8943 H   0  0  0  0  0  0
  -22.3741  -10.9655   19.6180 H   0  0  0  0  0  0
  -21.1993   -7.6141   23.9704 H   0  0  0  0  0  0
  -21.1481   -6.0524   25.9074 H   0  0  0  0  0  0
  -22.0602   -2.7604   23.2851 H   0  0  0  0  0  0
  -22.4013  -11.9799   22.4882 H   0  0  0  0  0  0
  -21.0981  -13.1125   22.2658 H   0  0  0  0  0  0
  -24.5726  -15.8145   20.4898 H   0  0  0  0  0  0
  -26.1834  -15.6399   20.0163 H   0  0  0  0  0  0
  -26.7408  -32.5105   23.0860 H   0  0  0  0  0  0
  -25.0072  -33.9456   25.0155 H   0  0  0  0  0  0
  -22.8001  -31.2618   21.3376 H   0  0  0  0  0  0
  -23.3768  -35.9516   23.3285 H   0  0  0  0  0  0
  -24.3564  -36.8873   22.2070 H   0  0  0  0  0  0
  -23.7237  -37.6371   23.6730 H   0  0  0  0  0  0
  -26.2377  -31.3535   20.6157 H   0  0  0  0  0  0
  -26.9161  -30.6785   22.0546 H   0  0  0  0  0  0
  -28.1726  -28.5830   21.2571 H   0  0  0  0  0  0
  -25.8836  -25.7016   19.0318 H   0  0  0  0  0  0
  -24.0070  -27.2395   18.9774 H   0  0  0  0  0  0
  -23.8915  -30.5030   19.3855 H   0  0  0  0  0  0
  -22.8371  -29.1960   19.8243 H   0  0  0  0  0  0
  -25.1334  -36.1740   25.0787 H   0  0  0  0  0  0
  -21.0041  -28.3386   24.1301 H   0  0  0  0  0  0
  -20.5689  -26.2388   23.3648 H   0  0  0  0  0  0
  -21.6662  -26.7424   22.1205 H   0  0  0  0  0  0
  -19.6937  -25.6284   21.1282 H   0  0  0  0  0  0
  -19.6720  -27.3166   20.6731 H   0  0  0  0  0  0
  -17.4224  -26.6700   21.4023 H   0  0  0  0  0  0
  -18.0343  -26.0116   22.9033 H   0  0  0  0  0  0
  -19.7978  -30.7326   24.2200 H   0  0  0  0  0  0
  -17.5053  -31.6283   24.5175 H   0  0  0  0  0  0
  -15.5385  -30.2996   23.7702 H   0  0  0  0  0  0
  -15.8702  -28.0831   22.7109 H   0  0  0  0  0  0
  -24.5875  -30.7113   25.7614 H   0  0  0  0  0  0
  -24.8811  -32.2997   26.4590 H   0  0  0  0  0  0
  -25.7869  -30.9058   27.0199 H   0  0  0  0  0  0
  -26.3136  -29.6559   24.1430 H   0  0  0  0  0  0
  -27.3976  -29.7278   25.5106 H   0  0  0  0  0  0
  -27.9082  -30.4078   23.9868 H   0  0  0  0  0  0
  -27.2623  -33.3710   26.1909 H   0  0  0  0  0  0
  -28.3937  -32.6807   25.0368 H   0  0  0  0  0  0
  -28.0624  -31.8570   26.5528 H   0  0  0  0  0  0
  -28.2564  -38.0065   24.7512 H   0  0  0  0  0  0
  -28.1069  -36.2590   24.6298 H   0  0  0  0  0  0
  -27.2276  -37.1401   25.8870 H   0  0  0  0  0  0
  -20.9618  -29.8740   21.6636 H   0  0  0  0  0  0
  -26.0112  -38.2753   24.1429 H   0  0  0  0  0  0
  -29.3341  -21.2249   16.9514 H   0  0  0  0  0  0
  -29.7576  -19.1430   18.1406 H   0  0  0  0  0  0
  -28.6869  -23.3257   18.0001 H   0  0  0  0  0  0
  -28.8557  -21.2826   21.7902 H   0  0  0  0  0  0
  -27.1131  -18.2179   21.7649 H   0  0  0  0  0  0
  -27.6852  -16.8912   22.7697 H   0  0  0  0  0  0
  -29.8681  -17.6937   22.8637 H   0  0  0  0  0  0
  -29.1000  -19.2537   22.6649 H   0  0  0  0  0  0
  -27.7336  -17.1880   19.7841 H   0  0  0  0  0  0
  -27.7585  -15.7500   20.7575 H   0  0  0  0  0  0
  -30.9596  -18.4334   20.9329 H   0  0  0  0  0  0
  -28.1674  -24.1519   21.6531 H   0  0  0  0  0  0
  -26.9484  -24.0291   20.4574 H   0  0  0  0  0  0
  1 25  1  0  0  0
  1 30  2  0  0  0
  1 82  1  0  0  0
  2  3  1  0  0  0
  2 25  1  0  0  0
  2 83  1  0  0  0
  2 84  1  0  0  0
  3  4  1  0  0  0
  3 85  1  0  0  0
  3 86  1  0  0  0
  4  5  1  0  0  0
  4 87  1  0  0  0
  4 88  1  0  0  0
  5  6  1  0  0  0
  5 26  1  0  0  0
  5 89  1  0  0  0
  6 25  1  0  0  0
  6 90  1  0  0  0
  6 91  1  0  0  0
  7  8  2  0  0  0
  7 26  1  0  0  0
  7 29  1  0  0  0
  8  9  1  0  0  0
  8 22  1  0  0  0
  9 10  1  0  0  0
  9 27  2  0  0  0
 10 11  2  0  0  0
 10 15  1  0  0  0
 11 12  1  0  0  0
 11 92  1  0  0  0
 12 13  2  0  0  0
 12 93  1  0  0  0
 13 14  1  0  0  0
 13 31  1  0  0  0
 14 15  2  0  0  0
 14 94  1  0  0  0
 15 95  1  0  0  0
 16 17  2  0  0  0
 16 21  1  0  0  0
 16 31  1  0  0  0
 17 18  1  0  0  0
 17 96  1  0  0  0
 18 19  2  0  0  0
 18 97  1  0  0  0
 19 20  1  0  0  0
 19 24  1  0  0  0
 20 21  2  0  0  0
 20 98  1  0  0  0
 21 23  1  0  0  0
 22 28  1  0  0  0
 22 32  2  0  0  0
 26 27  1  0  0  0
 28 99  1  0  0  0
 28100  1  0  0  0
 29101  1  0  0  0
 29102  1  0  0  0
 33 34  1  0  0  0
 33 66  1  0  0  0
 33 70  2  0  0  0
 34 36  1  0  0  0
 34 59  1  0  0  0
 34103  1  0  0  0
 35 44  2  0  0  0
 35 45  1  0  0  0
 35 68  1  0  0  0
 36 56  1  0  0  0
 36104  1  0  0  0
 37 39  1  0  0  0
 37 47  1  0  0  0
 37 66  1  0  0  0
 37105  1  0  0  0
 38 43  2  0  0  0
 38 46  1  0  0  0
 38 47  1  0  0  0
 39 64  1  0  0  0
 39 67  2  0  0  0
 40 52  1  0  0  0
 40 53  2  0  0  0
 40 58  1  0  0  0
 41106  1  0  0  0
 41107  1  0  0  0
 41108  1  0  0  0
 41 48  1  0  0  0
 42 43  1  0  0  0
 42 66  1  0  0  0
 42109  1  0  0  0
 42110  1  0  0  0
 43 44  1  0  0  0
 44111  1  0  0  0
 45 46  2  0  0  0
 45112  1  0  0  0
 46113  1  0  0  0
 47114  1  0  0  0
 47115  1  0  0  0
 48 56  1  0  0  0
 48 65  1  0  0  0
 48116  1  0  0  0
 49 50  1  0  0  0
 49 53  1  0  0  0
 49 64  1  0  0  0
 49117  1  0  0  0
 50 51  1  0  0  0
 50118  1  0  0  0
 50119  1  0  0  0
 51 52  1  0  0  0
 51120  1  0  0  0
 51121  1  0  0  0
 52122  1  0  0  0
 52123  1  0  0  0
 53 54  1  0  0  0
 54 55  2  0  0  0
 54124  1  0  0  0
 55 57  1  0  0  0
 55125  1  0  0  0
 56 69  2  0  0  0
 57 58  2  0  0  0
 57126  1  0  0  0
 58127  1  0  0  0
 59 60  1  0  0  0
 59 61  1  0  0  0
 59 62  1  0  0  0
 60128  1  0  0  0
 60129  1  0  0  0
 60130  1  0  0  0
 61131  1  0  0  0
 61132  1  0  0  0
 61133  1  0  0  0
 62134  1  0  0  0
 62135  1  0  0  0
 62136  1  0  0  0
 63 65  1  0  0  0
 63137  1  0  0  0
 63138  1  0  0  0
 63139  1  0  0  0
 64140  1  0  0  0
 65141  1  0  0  0
 68 81  1  0  0  0
 71 72  2  0  0  0
 71 73  1  0  0  0
 71142  1  0  0  0
 72 75  1  0  0  0
 72143  1  0  0  0
 73 76  2  0  0  0
 73144  1  0  0  0
 74 75  2  0  0  0
 74 76  1  0  0  0
 74145  1  0  0  0
 75 80  1  0  0  0
 76 81  1  0  0  0
 77 78  1  0  0  0
 77 79  1  0  0  0
 77146  1  0  0  0
 77147  1  0  0  0
 78 80  1  0  0  0
 78148  1  0  0  0
 78149  1  0  0  0
 79 82  1  0  0  0
 79150  1  0  0  0
 79151  1  0  0  0
 80 82  1  0  0  0
 80152  1  0  0  0
 81153  1  0  0  0
 81154  1  0  0  0
M  ISO  4   1 100  68 101  81 101  82 100
M  END
> <chiral flag>
0

> <version>
0

> <s_m_source_file>
/data/baiqing/PycharmProjects/Reinvent-master-3.2/result/LINK_invent/BTK/process_docking_weight1_custom_product_contain_oxygen_bond_distance_aromatic_linkinvent_7_9_3/rearranged_h_0005.sdf

> <i_m_source_file_index>
11

> <r_mmod_Potential_Energy-OPLS-2005>
1710.54626464844

> <r_mmod_Stretch_Energy-OPLS-2005>
656.256652832031

> <r_mmod_Bend_Energy-OPLS-2005>
507.427001953125

> <r_mmod_Torsional_Energy-OPLS-2005>
342.660675048828

> <r_mmod_Improper_Torsional_Energy-OPLS-2005>
7.61475610733032

> <r_mmod_Van_der_Waal_Energy-OPLS-2005>
130.858901977539

> <r_mmod_Electrostatic_Energy-OPLS-2005>
-269.615234375

> <r_mmod_Solvation_Energy-OPLS-2005>
-197.317810058594

> <b_mmod_Minimization_Converged-OPLS-2005>
0

> <r_mmod_RMS_Derivative-OPLS-2005>
0.914314150810242

$$$$
11
                    3D
 Structure written by MMmdl.
155163  0  0  1  0            999 V2000
  -30.6368  -14.7167   20.4644 C   0  0  0  0  0  0
  -30.4284  -12.4348   19.4823 C   0  0  0  0  0  0
  -29.5104  -12.5055   18.2421 C   0  0  0  0  0  0
  -28.0362  -12.3359   18.6537 C   0  0  0  0  0  0
  -27.6472  -13.2320   19.8599 C   0  0  2  0  0  0
  -28.6919  -13.1606   20.9980 C   0  0  0  0  0  0
  -25.2528  -13.8205   20.5727 C   0  0  0  0  0  0
  -24.1806  -13.0448   20.9220 C   0  0  0  0  0  0
  -24.6398  -11.6925   20.8764 C   0  0  0  0  0  0
  -23.9080  -10.4303   21.0412 C   0  0  0  0  0  0
  -24.3630   -9.4217   21.9186 C   0  0  0  0  0  0
  -23.6302   -8.2252   22.0753 C   0  0  0  0  0  0
  -22.4287   -8.0287   21.3548 C   0  0  0  0  0  0
  -21.9926   -9.0259   20.4650 C   0  0  0  0  0  0
  -22.7252  -10.2139   20.3060 C   0  0  0  0  0  0
  -21.6858   -6.0744   22.5284 C   0  0  0  0  0  0
  -21.4014   -6.5653   23.8216 C   0  0  0  0  0  0
  -21.3656   -5.6802   24.9178 C   0  0  0  0  0  0
  -21.6041   -4.3060   24.7224 C   0  0  0  0  0  0
  -21.8816   -3.8153   23.4347 C   0  0  0  0  0  0
  -21.9193   -4.6974   22.3402 C   0  0  0  0  0  0
  -22.7829  -13.5234   21.1862 C   0  0  0  0  0  0
  -22.1660   -4.2164   21.0977 F   0  0  0  0  0  0
  -21.5632   -3.4531   25.7736 F   0  0  0  0  0  0
  -29.9986  -13.4976   20.4207 N   0  0  0  0  0  0
  -26.2970  -12.9412   20.3345 N   0  0  0  0  0  0
  -25.9332  -11.6559   20.5790 N   0  0  0  0  0  0
  -22.0472  -12.8217   22.0411 N   0  0  0  0  0  0
  -25.4208  -15.1921   20.4127 N   0  0  0  0  0  0
  -31.8135  -14.8052   20.1058 O   0  0  0  0  0  0
  -21.6657   -6.8879   21.4241 O   0  0  0  0  0  0
  -22.3509  -14.5539   20.6710 O   0  0  0  0  0  0
  -24.6301  -31.8562   23.2001 C   0  0  0  0  0  0
  -25.9130  -32.4758   23.8343 C   0  0  1  0  0  0
  -27.2219  -27.2737   20.1290 C   0  0  0  0  0  0
  -25.5933  -33.8565   24.2256 N   0  0  0  0  0  0
  -23.4258  -30.4793   21.5421 C   0  0  2  0  0  0
  -24.8754  -28.9308   20.1072 C   0  0  0  0  0  0
  -22.7494  -29.4607   22.4913 C   0  0  0  0  0  0
  -18.0287  -28.1400   22.8466 C   0  0  0  0  0  0
  -24.1491  -36.7290   23.2636 C   0  0  0  0  0  0
  -25.9701  -30.7737   21.3782 C   0  0  0  0  0  0
  -26.0454  -29.3976   20.7195 C   0  0  0  0  0  0
  -27.2204  -28.5809   20.7209 C   0  0  0  0  0  0
  -26.0320  -26.8815   19.4725 C   0  0  0  0  0  0
  -24.8741  -27.6816   19.4706 C   0  0  0  0  0  0
  -23.6447  -29.8149   20.1572 C   0  0  0  0  0  0
  -25.4115  -36.3072   24.0321 C   0  0  1  0  0  0
  -20.5886  -28.3704   23.1267 C   0  0  2  0  0  0
  -20.6778  -26.9422   22.5398 C   0  0  0  0  0  0
  -19.5758  -26.6388   21.5197 C   0  0  0  0  0  0
  -18.1939  -26.7940   22.1611 C   0  0  0  0  0  0
  -19.1537  -28.8866   23.2863 C   0  0  0  0  0  0
  -18.9466  -30.1468   23.8884 C   0  0  0  0  0  0
  -17.6463  -30.6598   24.0561 C   0  0  0  0  0  0
  -25.9056  -34.9442   23.5086 C   0  0  0  0  0  0
  -16.5355  -29.9091   23.6336 C   0  0  0  0  0  0
  -16.7275  -28.6518   23.0341 C   0  0  0  0  0  0
  -26.4504  -31.6584   25.0730 C   0  0  0  0  0  0
  -25.3724  -31.3731   26.1448 C   0  0  0  0  0  0
  -27.0352  -30.3003   24.6209 C   0  0  0  0  0  0
  -27.6061  -32.4321   25.7508 C   0  0  0  0  0  0
  -27.5573  -37.1798   24.8456 C   0  0  0  0  0  0
  -21.4201  -29.3048   22.3654 N   0  0  0  0  0  0
  -26.4280  -37.3767   23.9411 N   0  0  0  0  0  0
  -24.6939  -31.0541   22.0971 N   0  0  0  0  0  0
  -23.4198  -28.8131   23.2999 O   0  0  0  0  0  0
  -28.3151  -26.3797   20.2128 O   0  0  0  0  0  0
  -26.5624  -34.8906   22.4652 O   0  0  0  0  0  0
  -23.5455  -32.1372   23.7304 O   0  0  0  0  0  0
  -29.3884  -19.9680   22.9971 C   0  0  0  0  0  0
  -29.1369  -21.1386   22.2509 C   0  0  0  0  0  0
  -29.4837  -19.8468   20.2353 C   0  0  0  0  0  0
  -29.7151  -18.7253   22.3963 C   0  0  0  0  0  0
  -29.7564  -18.6212   20.9758 C   0  0  0  0  0  0
  -29.1837  -21.1313   20.8438 C   0  0  0  0  0  0
  -30.2369  -17.2850   20.2453 C   0  0  0  0  0  0
  -29.0775  -23.7815   20.5859 C   0  0  0  0  0  0
  -28.0854  -24.9115   19.9952 C   0  0  0  0  0  0
  -30.0456  -17.5413   23.3116 C   0  0  0  0  0  0
  -28.9082  -22.3461   20.1060 N   0  0  0  0  0  0
  -29.8851  -15.8601   20.6727 N   0  0  0  0  0  0
  -30.1403  -17.9132   24.5894 F   0  0  0  0  0  0
  -29.0853  -16.6196   23.2361 F   0  0  0  0  0  0
  -31.2155  -16.9933   22.9815 F   0  0  0  0  0  0
  -31.4724  -12.5406   19.1850 H   0  0  0  0  0  0
  -30.3561  -11.4565   19.9589 H   0  0  0  0  0  0
  -29.7870  -11.7360   17.5204 H   0  0  0  0  0  0
  -29.6463  -13.4644   17.7396 H   0  0  0  0  0  0
  -27.8865  -11.2864   18.9099 H   0  0  0  0  0  0
  -27.3797  -12.5364   17.8068 H   0  0  0  0  0  0
  -27.6454  -14.2567   19.4846 H   0  0  0  0  0  0
  -28.7163  -12.1652   21.4445 H   0  0  0  0  0  0
  -28.4344  -13.8500   21.8037 H   0  0  0  0  0  0
  -25.2765   -9.5702   22.4772 H   0  0  0  0  0  0
  -24.0004   -7.4644   22.7479 H   0  0  0  0  0  0
  -21.0862   -8.8783   19.8964 H   0  0  0  0  0  0
  -22.3699  -10.9680   19.6179 H   0  0  0  0  0  0
  -21.2002   -7.6157   23.9723 H   0  0  0  0  0  0
  -21.1482   -6.0540   25.9087 H   0  0  0  0  0  0
  -22.0594   -2.7616   23.2859 H   0  0  0  0  0  0
  -22.4082  -11.9869   22.4789 H   0  0  0  0  0  0
  -21.1090  -13.1250   22.2600 H   0  0  0  0  0  0
  -24.6527  -15.8456   20.5226 H   0  0  0  0  0  0
  -26.2680  -15.6346   20.0786 H   0  0  0  0  0  0
  -26.7192  -32.5414   23.1086 H   0  0  0  0  0  0
  -25.0078  -33.9709   25.0398 H   0  0  0  0  0  0
  -22.7204  -31.3000   21.3970 H   0  0  0  0  0  0
  -23.3744  -35.9627   23.3291 H   0  0  0  0  0  0
  -24.3575  -36.8921   22.2049 H   0  0  0  0  0  0
  -23.7249  -37.6488   23.6671 H   0  0  0  0  0  0
  -26.1022  -31.5362   20.6093 H   0  0  0  0  0  0
  -26.8504  -30.8261   22.0076 H   0  0  0  0  0  0
  -28.1121  -28.9307   21.2211 H   0  0  0  0  0  0
  -25.9655  -25.9304   18.9656 H   0  0  0  0  0  0
  -23.9824  -27.3212   18.9775 H   0  0  0  0  0  0
  -23.7655  -30.5922   19.4014 H   0  0  0  0  0  0
  -22.7643  -29.2469   19.8528 H   0  0  0  0  0  0
  -25.1297  -36.1907   25.0808 H   0  0  0  0  0  0
  -20.9970  -28.3283   24.1391 H   0  0  0  0  0  0
  -20.5671  -26.2315   23.3601 H   0  0  0  0  0  0
  -21.6654  -26.7452   22.1197 H   0  0  0  0  0  0
  -19.6925  -25.6293   21.1243 H   0  0  0  0  0  0
  -19.6709  -27.3184   20.6717 H   0  0  0  0  0  0
  -17.4203  -26.6661   21.4024 H   0  0  0  0  0  0
  -18.0362  -26.0100   22.9027 H   0  0  0  0  0  0
  -19.7943  -30.7288   24.2250 H   0  0  0  0  0  0
  -17.5023  -31.6277   24.5165 H   0  0  0  0  0  0
  -15.5357  -30.2990   23.7687 H   0  0  0  0  0  0
  -15.8671  -28.0846   22.7053 H   0  0  0  0  0  0
  -24.5900  -30.7082   25.7765 H   0  0  0  0  0  0
  -24.8918  -32.2903   26.4870 H   0  0  0  0  0  0
  -25.8041  -30.8902   27.0223 H   0  0  0  0  0  0
  -26.2939  -29.6749   24.1221 H   0  0  0  0  0  0
  -27.4017  -29.7272   25.4733 H   0  0  0  0  0  0
  -27.8820  -30.4278   23.9464 H   0  0  0  0  0  0
  -27.2677  -33.3619   26.2089 H   0  0  0  0  0  0
  -28.3884  -32.6875   25.0350 H   0  0  0  0  0  0
  -28.0716  -31.8438   26.5424 H   0  0  0  0  0  0
  -28.2575  -38.0109   24.7516 H   0  0  0  0  0  0
  -28.1088  -36.2641   24.6270 H   0  0  0  0  0  0
  -27.2299  -37.1427   25.8858 H   0  0  0  0  0  0
  -20.9382  -29.8786   21.6870 H   0  0  0  0  0  0
  -26.0157  -38.2832   24.1423 H   0  0  0  0  0  0
  -29.3412  -20.0433   24.0732 H   0  0  0  0  0  0
  -28.8929  -22.0396   22.7935 H   0  0  0  0  0  0
  -29.5368  -19.7981   19.1567 H   0  0  0  0  0  0
  -31.3258  -17.3575   20.2154 H   0  0  0  0  0  0
  -29.9281  -17.3677   19.2038 H   0  0  0  0  0  0
  -29.0299  -23.8271   21.6721 H   0  0  0  0  0  0
  -30.0981  -24.0737   20.3351 H   0  0  0  0  0  0
  -27.1024  -24.6572   20.3945 H   0  0  0  0  0  0
  -28.0193  -24.7674   18.9171 H   0  0  0  0  0  0
  -28.8608  -22.2485   19.0942 H   0  0  0  0  0  0
  -28.9358  -15.7120   20.9802 H   0  0  0  0  0  0
  1 25  1  0  0  0
  1 30  2  0  0  0
  1 82  1  0  0  0
  2  3  1  0  0  0
  2 25  1  0  0  0
  2 86  1  0  0  0
  2 87  1  0  0  0
  3  4  1  0  0  0
  3 88  1  0  0  0
  3 89  1  0  0  0
  4  5  1  0  0  0
  4 90  1  0  0  0
  4 91  1  0  0  0
  5  6  1  0  0  0
  5 26  1  0  0  0
  5 92  1  0  0  0
  6 25  1  0  0  0
  6 93  1  0  0  0
  6 94  1  0  0  0
  7  8  2  0  0  0
  7 26  1  0  0  0
  7 29  1  0  0  0
  8  9  1  0  0  0
  8 22  1  0  0  0
  9 10  1  0  0  0
  9 27  2  0  0  0
 10 11  2  0  0  0
 10 15  1  0  0  0
 11 12  1  0  0  0
 11 95  1  0  0  0
 12 13  2  0  0  0
 12 96  1  0  0  0
 13 14  1  0  0  0
 13 31  1  0  0  0
 14 15  2  0  0  0
 14 97  1  0  0  0
 15 98  1  0  0  0
 16 17  2  0  0  0
 16 21  1  0  0  0
 16 31  1  0  0  0
 17 18  1  0  0  0
 17 99  1  0  0  0
 18 19  2  0  0  0
 18100  1  0  0  0
 19 20  1  0  0  0
 19 24  1  0  0  0
 20 21  2  0  0  0
 20101  1  0  0  0
 21 23  1  0  0  0
 22 28  1  0  0  0
 22 32  2  0  0  0
 26 27  1  0  0  0
 28102  1  0  0  0
 28103  1  0  0  0
 29104  1  0  0  0
 29105  1  0  0  0
 33 34  1  0  0  0
 33 66  1  0  0  0
 33 70  2  0  0  0
 34 36  1  0  0  0
 34 59  1  0  0  0
 34106  1  0  0  0
 35 44  2  0  0  0
 35 45  1  0  0  0
 35 68  1  0  0  0
 36 56  1  0  0  0
 36107  1  0  0  0
 37 39  1  0  0  0
 37 47  1  0  0  0
 37 66  1  0  0  0
 37108  1  0  0  0
 38 43  2  0  0  0
 38 46  1  0  0  0
 38 47  1  0  0  0
 39 64  1  0  0  0
 39 67  2  0  0  0
 40 52  1  0  0  0
 40 53  2  0  0  0
 40 58  1  0  0  0
 41109  1  0  0  0
 41110  1  0  0  0
 41111  1  0  0  0
 41 48  1  0  0  0
 42 43  1  0  0  0
 42 66  1  0  0  0
 42112  1  0  0  0
 42113  1  0  0  0
 43 44  1  0  0  0
 44114  1  0  0  0
 45 46  2  0  0  0
 45115  1  0  0  0
 46116  1  0  0  0
 47117  1  0  0  0
 47118  1  0  0  0
 48 56  1  0  0  0
 48 65  1  0  0  0
 48119  1  0  0  0
 49 50  1  0  0  0
 49 53  1  0  0  0
 49 64  1  0  0  0
 49120  1  0  0  0
 50 51  1  0  0  0
 50121  1  0  0  0
 50122  1  0  0  0
 51 52  1  0  0  0
 51123  1  0  0  0
 51124  1  0  0  0
 52125  1  0  0  0
 52126  1  0  0  0
 53 54  1  0  0  0
 54 55  2  0  0  0
 54127  1  0  0  0
 55 57  1  0  0  0
 55128  1  0  0  0
 56 69  2  0  0  0
 57 58  2  0  0  0
 57129  1  0  0  0
 58130  1  0  0  0
 59 60  1  0  0  0
 59 61  1  0  0  0
 59 62  1  0  0  0
 60131  1  0  0  0
 60132  1  0  0  0
 60133  1  0  0  0
 61134  1  0  0  0
 61135  1  0  0  0
 61136  1  0  0  0
 62137  1  0  0  0
 62138  1  0  0  0
 62139  1  0  0  0
 63 65  1  0  0  0
 63140  1  0  0  0
 63141  1  0  0  0
 63142  1  0  0  0
 64143  1  0  0  0
 65144  1  0  0  0
 68 79  1  0  0  0
 71 72  2  0  0  0
 71 74  1  0  0  0
 71145  1  0  0  0
 72 76  1  0  0  0
 72146  1  0  0  0
 73 75  1  0  0  0
 73 76  2  0  0  0
 73147  1  0  0  0
 74 75  2  0  0  0
 74 80  1  0  0  0
 75 77  1  0  0  0
 76 81  1  0  0  0
 77 82  1  0  0  0
 77148  1  0  0  0
 77149  1  0  0  0
 78 79  1  0  0  0
 78 81  1  0  0  0
 78150  1  0  0  0
 78151  1  0  0  0
 79152  1  0  0  0
 79153  1  0  0  0
 80 83  1  0  0  0
 80 84  1  0  0  0
 80 85  1  0  0  0
 81154  1  0  0  0
 82155  1  0  0  0
M  ISO  4   1 100  68 101  79 101  82 100
M  END
> <chiral flag>
0

> <version>
0

> <s_m_source_file>
/data/baiqing/PycharmProjects/Reinvent-master-3.2/result/LINK_invent/BTK/process_docking_weight1_custom_product_contain_oxygen_bond_distance_aromatic_linkinvent_7_9_3/rearranged_h_0005.sdf

> <i_m_source_file_index>
12

> <r_mmod_Potential_Energy-OPLS-2005>
112.169158935547

> <r_mmod_Stretch_Energy-OPLS-2005>
115.620613098145

> <r_mmod_Bend_Energy-OPLS-2005>
167.858093261719

> <r_mmod_Torsional_Energy-OPLS-2005>
199.461776733398

> <r_mmod_Improper_Torsional_Energy-OPLS-2005>
7.46349668502808

> <r_mmod_Van_der_Waal_Energy-OPLS-2005>
148.592529296875

> <r_mmod_Electrostatic_Energy-OPLS-2005>
-387.327972412109

> <r_mmod_Solvation_Energy-OPLS-2005>
-216.337127685547

> <b_mmod_Minimization_Converged-OPLS-2005>
0

> <r_mmod_RMS_Derivative-OPLS-2005>
1.99286782741547

$$$$
12
                    3D
 Structure written by MMmdl.
193203  0  0  1  0            999 V2000
  -30.6697  -14.4446   20.5774 C   0  0  0  0  0  0
  -30.4423  -12.2965   19.4143 C   0  0  0  0  0  0
  -29.4959  -12.5046   18.2133 C   0  0  0  0  0  0
  -28.0289  -12.3133   18.6500 C   0  0  0  0  0  0
  -27.6718  -13.1639   19.9013 C   0  0  2  0  0  0
  -28.7119  -12.9197   21.0145 C   0  0  0  0  0  0
  -25.2667  -13.8102   20.5801 C   0  0  0  0  0  0
  -24.1825  -13.0396   20.9118 C   0  0  0  0  0  0
  -24.6326  -11.6854   20.8685 C   0  0  0  0  0  0
  -23.8971  -10.4269   21.0370 C   0  0  0  0  0  0
  -24.3545   -9.4206   21.9159 C   0  0  0  0  0  0
  -23.6256   -8.2218   22.0711 C   0  0  0  0  0  0
  -22.4243   -8.0263   21.3496 C   0  0  0  0  0  0
  -21.9848   -9.0221   20.4609 C   0  0  0  0  0  0
  -22.7144  -10.2114   20.3022 C   0  0  0  0  0  0
  -21.6834   -6.0742   22.5267 C   0  0  0  0  0  0
  -21.4032   -6.5638   23.8219 C   0  0  0  0  0  0
  -21.3644   -5.6777   24.9165 C   0  0  0  0  0  0
  -21.6030   -4.3041   24.7199 C   0  0  0  0  0  0
  -21.8830   -3.8144   23.4318 C   0  0  0  0  0  0
  -21.9191   -4.6972   22.3380 C   0  0  0  0  0  0
  -22.7854  -13.5227   21.1789 C   0  0  0  0  0  0
  -22.1653   -4.2162   21.0960 F   0  0  0  0  0  0
  -21.5616   -3.4519   25.7702 F   0  0  0  0  0  0
  -30.0451  -13.2457   20.4649 N   0  0  0  0  0  0
  -26.3065  -12.9167   20.3510 N   0  0  0  0  0  0
  -25.9239  -11.6364   20.5774 N   0  0  0  0  0  0
  -22.0478  -12.8215   22.0347 N   0  0  0  0  0  0
  -25.4526  -15.1866   20.4640 N   0  0  0  0  0  0
  -31.7981  -14.6725   20.1342 O   0  0  0  0  0  0
  -21.6609   -6.8866   21.4224 O   0  0  0  0  0  0
  -22.3553  -14.5532   20.6649 O   0  0  0  0  0  0
  -24.6123  -31.8701   23.2146 C   0  0  0  0  0  0
  -25.9053  -32.4829   23.8406 C   0  0  1  0  0  0
  -27.2205  -27.4439   20.0676 C   0  0  0  0  0  0
  -25.5943  -33.8637   24.2346 N   0  0  0  0  0  0
  -23.3945  -30.4966   21.5596 C   0  0  2  0  0  0
  -24.8340  -28.9695   20.1201 C   0  0  0  0  0  0
  -22.7377  -29.4658   22.5038 C   0  0  0  0  0  0
  -18.0267  -28.1357   22.8535 C   0  0  0  0  0  0
  -24.1472  -36.7292   23.2625 C   0  0  0  0  0  0
  -25.9273  -30.8327   21.3704 C   0  0  0  0  0  0
  -25.9991  -29.4720   20.7103 C   0  0  0  0  0  0
  -27.1931  -28.7151   20.6872 C   0  0  0  0  0  0
  -26.0310  -26.9647   19.4674 C   0  0  0  0  0  0
  -24.8419  -27.7095   19.5071 C   0  0  0  0  0  0
  -23.5992  -29.8385   20.1716 C   0  0  0  0  0  0
  -25.4118  -36.3126   24.0325 C   0  0  1  0  0  0
  -20.5853  -28.3644   23.1360 C   0  0  2  0  0  0
  -20.6798  -26.9393   22.5434 C   0  0  0  0  0  0
  -19.5759  -26.6384   21.5250 C   0  0  0  0  0  0
  -18.1933  -26.7910   22.1660 C   0  0  0  0  0  0
  -19.1518  -28.8829   23.2928 C   0  0  0  0  0  0
  -18.9439  -30.1457   23.8903 C   0  0  0  0  0  0
  -17.6445  -30.6587   24.0568 C   0  0  0  0  0  0
  -25.9054  -34.9493   23.5126 C   0  0  0  0  0  0
  -16.5340  -29.9075   23.6328 C   0  0  0  0  0  0
  -16.7256  -28.6474   23.0379 C   0  0  0  0  0  0
  -26.4507  -31.6580   25.0707 C   0  0  0  0  0  0
  -25.3805  -31.3673   26.1458 C   0  0  0  0  0  0
  -27.0303  -30.3002   24.6088 C   0  0  0  0  0  0
  -27.6069  -32.4303   25.7477 C   0  0  0  0  0  0
  -27.5581  -37.1806   24.8480 C   0  0  0  0  0  0
  -21.4120  -29.3015   22.3762 N   0  0  0  0  0  0
  -26.4302  -37.3815   23.9416 N   0  0  0  0  0  0
  -24.6624  -31.0819   22.1044 N   0  0  0  0  0  0
  -23.4178  -28.8163   23.3022 O   0  0  0  0  0  0
  -28.3983  -26.7208   20.0662 O   0  0  0  0  0  0
  -26.5577  -34.8933   22.4665 O   0  0  0  0  0  0
  -23.5332  -32.1462   23.7563 O   0  0  0  0  0  0
  -29.8933  -18.9040   19.6330 C   0  0  0  0  0  0
  -29.9105  -19.6516   20.8233 C   0  0  0  0  0  0
  -29.9523  -17.5908   22.0959 C   0  0  0  0  0  0
  -29.9256  -17.4909   19.6455 C   0  0  0  0  0  0
  -29.9450  -19.0025   22.0735 C   0  0  0  0  0  0
  -29.9670  -16.8200   20.9110 C   0  0  0  0  0  0
  -29.9941  -16.8112   18.2975 C   0  0  0  0  0  0
  -26.7366  -18.0341   18.0702 C   0  0  0  0  0  0
  -28.7780  -20.3977   23.9827 C   0  0  0  0  0  0
  -29.9109  -21.2676   23.4892 C   0  0  0  0  0  0
  -28.3359  -15.6809   15.3642 C   0  0  0  0  0  0
  -26.7187  -15.6077   17.2934 C   0  0  0  0  0  0
  -29.0237  -16.8706   16.0414 C   0  0  0  0  0  0
  -30.0081  -19.7571   23.3788 C   0  0  0  0  0  0
  -27.5118  -16.7108   18.0512 C   0  0  1  0  0  0
  -26.8593  -15.6209   15.7654 C   0  0  1  0  0  0
  -25.0754  -23.4223   22.0342 C   0  0  0  0  0  0
  -25.7983  -20.3704   19.9199 C   0  0  0  0  0  0
  -27.6439  -24.4356   20.6940 C   0  0  0  0  0  0
  -24.9286  -19.2609   19.2876 C   0  0  0  0  0  0
  -24.9973  -21.5859   20.4148 C   0  0  0  0  0  0
  -26.6183  -23.4430   20.0786 C   0  0  0  0  0  0
  -28.3605  -25.3435   19.6583 C   0  0  0  0  0  0
  -28.8870  -16.8143   17.5122 N   0  0  0  0  0  0
  -29.8925  -15.4086   21.0951 N   0  0  0  0  0  0
  -25.7318  -18.0886   18.9537 N   0  0  0  0  0  0
  -25.8588  -22.6148   21.0651 N   0  3  1  0  0  0
  -31.0966  -16.4567   17.8744 O   0  0  0  0  0  0
  -27.0539  -18.9862   17.3557 O   0  0  0  0  0  0
  -26.2042  -16.6626   15.2547 F   0  0  0  0  0  0
  -31.4800  -12.4320   19.1013 H   0  0  0  0  0  0
  -30.3766  -11.2745   19.7905 H   0  0  0  0  0  0
  -29.7420  -11.7981   17.4212 H   0  0  0  0  0  0
  -29.6336  -13.5038   17.7968 H   0  0  0  0  0  0
  -27.9024  -11.2560   18.8896 H   0  0  0  0  0  0
  -27.3439  -12.5029   17.8261 H   0  0  0  0  0  0
  -27.7388  -14.2125   19.6326 H   0  0  0  0  0  0
  -28.6866  -11.8757   21.3325 H   0  0  0  0  0  0
  -28.4670  -13.4925   21.9103 H   0  0  0  0  0  0
  -25.2670   -9.5703   22.4749 H   0  0  0  0  0  0
  -23.9984   -7.4567   22.7367 H   0  0  0  0  0  0
  -21.0800   -8.8718   19.8874 H   0  0  0  0  0  0
  -22.3589  -10.9654   19.6137 H   0  0  0  0  0  0
  -21.2072   -7.6152   23.9743 H   0  0  0  0  0  0
  -21.1432   -6.0491   25.9070 H   0  0  0  0  0  0
  -22.0630   -2.7614   23.2794 H   0  0  0  0  0  0
  -22.4038  -11.9853   22.4714 H   0  0  0  0  0  0
  -21.1098  -13.1251   22.2554 H   0  0  0  0  0  0
  -24.7073  -15.7344   20.8776 H   0  0  0  0  0  0
  -26.3675  -15.5305   20.7235 H   0  0  0  0  0  0
  -26.7102  -32.5492   23.1137 H   0  0  0  0  0  0
  -25.0184  -33.9808   25.0546 H   0  0  0  0  0  0
  -22.6795  -31.3125   21.4338 H   0  0  0  0  0  0
  -23.3776  -35.9583   23.3318 H   0  0  0  0  0  0
  -24.3554  -36.8865   22.2031 H   0  0  0  0  0  0
  -23.7188  -37.6483   23.6625 H   0  0  0  0  0  0
  -26.0557  -31.6038   20.6096 H   0  0  0  0  0  0
  -26.8086  -30.8665   22.0001 H   0  0  0  0  0  0
  -28.0929  -29.1069   21.1421 H   0  0  0  0  0  0
  -25.9883  -26.0296   18.9395 H   0  0  0  0  0  0
  -23.9388  -27.3176   19.0594 H   0  0  0  0  0  0
  -23.7183  -30.6187   19.4191 H   0  0  0  0  0  0
  -22.7181  -29.2659   19.8692 H   0  0  0  0  0  0
  -25.1299  -36.1971   25.0816 H   0  0  0  0  0  0
  -20.9973  -28.3231   24.1470 H   0  0  0  0  0  0
  -20.5782  -26.2236   23.3603 H   0  0  0  0  0  0
  -21.6653  -26.7476   22.1167 H   0  0  0  0  0  0
  -19.6903  -25.6299   21.1230 H   0  0  0  0  0  0
  -19.6701  -27.3241   20.6812 H   0  0  0  0  0  0
  -17.4228  -26.6713   21.4032 H   0  0  0  0  0  0
  -18.0295  -26.0025   22.9014 H   0  0  0  0  0  0
  -19.7914  -30.7290   24.2256 H   0  0  0  0  0  0
  -17.4985  -31.6266   24.5163 H   0  0  0  0  0  0
  -15.5339  -30.2993   23.7618 H   0  0  0  0  0  0
  -15.8655  -28.0780   22.7122 H   0  0  0  0  0  0
  -24.6033  -30.6947   25.7819 H   0  0  0  0  0  0
  -24.8960  -32.2806   26.4888 H   0  0  0  0  0  0
  -25.8202  -30.8880   27.0207 H   0  0  0  0  0  0
  -26.2800  -29.6802   24.1162 H   0  0  0  0  0  0
  -27.4054  -29.7212   25.4538 H   0  0  0  0  0  0
  -27.8674  -30.4292   23.9237 H   0  0  0  0  0  0
  -27.2675  -33.3607   26.2051 H   0  0  0  0  0  0
  -28.3886  -32.6851   25.0309 H   0  0  0  0  0  0
  -28.0740  -31.8432   26.5392 H   0  0  0  0  0  0
  -28.2621  -38.0083   24.7552 H   0  0  0  0  0  0
  -28.1051  -36.2624   24.6300 H   0  0  0  0  0  0
  -27.2290  -37.1430   25.8876 H   0  0  0  0  0  0
  -20.9258  -29.8701   21.6979 H   0  0  0  0  0  0
  -26.0189  -38.2872   24.1475 H   0  0  0  0  0  0
  -29.8727  -19.4299   18.6872 H   0  0  0  0  0  0
  -29.9155  -20.7279   20.7555 H   0  0  0  0  0  0
  -29.9716  -17.0863   23.0531 H   0  0  0  0  0  0
  -27.8587  -20.4048   23.4026 H   0  0  0  0  0  0
  -28.6486  -20.3328   25.0618 H   0  0  0  0  0  0
  -30.4953  -21.7676   24.2606 H   0  0  0  0  0  0
  -29.7238  -21.8617   22.5983 H   0  0  0  0  0  0
  -28.8415  -14.7543   15.6397 H   0  0  0  0  0  0
  -28.4220  -15.7667   14.2814 H   0  0  0  0  0  0
  -25.6617  -15.6204   17.5692 H   0  0  0  0  0  0
  -27.0801  -14.6468   17.6264 H   0  0  0  0  0  0
  -28.5761  -17.7944   15.6742 H   0  0  0  0  0  0
  -30.0646  -16.9161   15.7147 H   0  0  0  0  0  0
  -30.6846  -19.2541   24.0680 H   0  0  0  0  0  0
  -27.5699  -16.4015   19.0944 H   0  0  0  0  0  0
  -26.3938  -14.7299   15.3405 H   0  0  0  0  0  0
  -24.5277  -22.7859   22.7289 H   0  0  0  0  0  0
  -24.3510  -24.0588   21.5254 H   0  0  0  0  0  0
  -25.7102  -24.0491   22.6580 H   0  0  0  0  0  0
  -26.5301  -20.7087   19.1876 H   0  0  0  0  0  0
  -26.3597  -19.9452   20.7532 H   0  0  0  0  0  0
  -28.3973  -23.8792   21.2515 H   0  0  0  0  0  0
  -27.1659  -25.0782   21.4286 H   0  0  0  0  0  0
  -24.4119  -19.6162   18.3952 H   0  0  0  0  0  0
  -24.1536  -18.9439   19.9880 H   0  0  0  0  0  0
  -24.2519  -21.2250   21.1264 H   0  0  0  0  0  0
  -24.4319  -22.0329   19.5943 H   0  0  0  0  0  0
  -27.1569  -22.7932   19.3877 H   0  0  0  0  0  0
  -25.8897  -23.9715   19.4702 H   0  0  0  0  0  0
  -27.9439  -25.2489   18.6536 H   0  0  0  0  0  0
  -29.3907  -25.0044   19.5569 H   0  0  0  0  0  0
  -29.0983  -15.0701   21.6178 H   0  0  0  0  0  0
  -25.5269  -17.2295   19.4538 H   0  0  0  0  0  0
  -26.5340  -22.1086   21.6186 H   0  0  0  0  0  0
  1 25  1  0  0  0
  1 30  2  0  0  0
  1 95  1  0  0  0
  2  3  1  0  0  0
  2 25  1  0  0  0
  2101  1  0  0  0
  2102  1  0  0  0
  3  4  1  0  0  0
  3103  1  0  0  0
  3104  1  0  0  0
  4  5  1  0  0  0
  4105  1  0  0  0
  4106  1  0  0  0
  5  6  1  0  0  0
  5 26  1  0  0  0
  5107  1  0  0  0
  6 25  1  0  0  0
  6108  1  0  0  0
  6109  1  0  0  0
  7  8  2  0  0  0
  7 26  1  0  0  0
  7 29  1  0  0  0
  8  9  1  0  0  0
  8 22  1  0  0  0
  9 10  1  0  0  0
  9 27  2  0  0  0
 10 11  2  0  0  0
 10 15  1  0  0  0
 11 12  1  0  0  0
 11110  1  0  0  0
 12 13  2  0  0  0
 12111  1  0  0  0
 13 14  1  0  0  0
 13 31  1  0  0  0
 14 15  2  0  0  0
 14112  1  0  0  0
 15113  1  0  0  0
 16 17  2  0  0  0
 16 21  1  0  0  0
 16 31  1  0  0  0
 17 18  1  0  0  0
 17114  1  0  0  0
 18 19  2  0  0  0
 18115  1  0  0  0
 19 20  1  0  0  0
 19 24  1  0  0  0
 20 21  2  0  0  0
 20116  1  0  0  0
 21 23  1  0  0  0
 22 28  1  0  0  0
 22 32  2  0  0  0
 26 27  1  0  0  0
 28117  1  0  0  0
 28118  1  0  0  0
 29119  1  0  0  0
 29120  1  0  0  0
 33 34  1  0  0  0
 33 66  1  0  0  0
 33 70  2  0  0  0
 34 36  1  0  0  0
 34 59  1  0  0  0
 34121  1  0  0  0
 35 44  2  0  0  0
 35 45  1  0  0  0
 35 68  1  0  0  0
 36 56  1  0  0  0
 36122  1  0  0  0
 37 39  1  0  0  0
 37 47  1  0  0  0
 37 66  1  0  0  0
 37123  1  0  0  0
 38 43  2  0  0  0
 38 46  1  0  0  0
 38 47  1  0  0  0
 39 64  1  0  0  0
 39 67  2  0  0  0
 40 52  1  0  0  0
 40 53  2  0  0  0
 40 58  1  0  0  0
 41124  1  0  0  0
 41125  1  0  0  0
 41126  1  0  0  0
 41 48  1  0  0  0
 42 43  1  0  0  0
 42 66  1  0  0  0
 42127  1  0  0  0
 42128  1  0  0  0
 43 44  1  0  0  0
 44129  1  0  0  0
 45 46  2  0  0  0
 45130  1  0  0  0
 46131  1  0  0  0
 47132  1  0  0  0
 47133  1  0  0  0
 48 56  1  0  0  0
 48 65  1  0  0  0
 48134  1  0  0  0
 49 50  1  0  0  0
 49 53  1  0  0  0
 49 64  1  0  0  0
 49135  1  0  0  0
 50 51  1  0  0  0
 50136  1  0  0  0
 50137  1  0  0  0
 51 52  1  0  0  0
 51138  1  0  0  0
 51139  1  0  0  0
 52140  1  0  0  0
 52141  1  0  0  0
 53 54  1  0  0  0
 54 55  2  0  0  0
 54142  1  0  0  0
 55 57  1  0  0  0
 55143  1  0  0  0
 56 69  2  0  0  0
 57 58  2  0  0  0
 57144  1  0  0  0
 58145  1  0  0  0
 59 60  1  0  0  0
 59 61  1  0  0  0
 59 62  1  0  0  0
 60146  1  0  0  0
 60147  1  0  0  0
 60148  1  0  0  0
 61149  1  0  0  0
 61150  1  0  0  0
 61151  1  0  0  0
 62152  1  0  0  0
 62153  1  0  0  0
 62154  1  0  0  0
 63 65  1  0  0  0
 63155  1  0  0  0
 63156  1  0  0  0
 63157  1  0  0  0
 64158  1  0  0  0
 65159  1  0  0  0
 68 93  1  0  0  0
 71 72  2  0  0  0
 71 74  1  0  0  0
 71160  1  0  0  0
 72 75  1  0  0  0
 72161  1  0  0  0
 73 75  2  0  0  0
 73 76  1  0  0  0
 73162  1  0  0  0
 74 76  2  0  0  0
 74 77  1  0  0  0
 75 84  1  0  0  0
 76 95  1  0  0  0
 77 94  1  0  0  0
 77 98  2  0  0  0
 78 96  1  0  0  0
 78 99  2  0  0  0
 78 85  1  0  0  0
 79 80  1  0  0  0
 79 84  1  0  0  0
 79163  1  0  0  0
 79164  1  0  0  0
 80 84  1  0  0  0
 80165  1  0  0  0
 80166  1  0  0  0
 81 83  1  0  0  0
 81 86  1  0  0  0
 81167  1  0  0  0
 81168  1  0  0  0
 82 85  1  0  0  0
 82 86  1  0  0  0
 82169  1  0  0  0
 82170  1  0  0  0
 83 94  1  0  0  0
 83171  1  0  0  0
 83172  1  0  0  0
 84173  1  0  0  0
 85 94  1  0  0  0
 85174  1  0  0  0
 86100  1  0  0  0
 86175  1  0  0  0
 87176  1  0  0  0
 87177  1  0  0  0
 87178  1  0  0  0
 87 97  1  0  0  0
 88 90  1  0  0  0
 88 91  1  0  0  0
 88179  1  0  0  0
 88180  1  0  0  0
 89 92  1  0  0  0
 89 93  1  0  0  0
 89181  1  0  0  0
 89182  1  0  0  0
 90 96  1  0  0  0
 90183  1  0  0  0
 90184  1  0  0  0
 91 97  1  0  0  0
 91185  1  0  0  0
 91186  1  0  0  0
 92 97  1  0  0  0
 92187  1  0  0  0
 92188  1  0  0  0
 93189  1  0  0  0
 93190  1  0  0  0
 95191  1  0  0  0
 96192  1  0  0  0
 97193  1  0  0  0
M  CHG  1  97   1
M  ISO  4   1 100  68 101  93 101  95 100
M  END
> <chiral flag>
0

> <version>
0

> <s_m_source_file>
/data/baiqing/PycharmProjects/Reinvent-master-3.2/result/LINK_invent/BTK/process_docking_weight1_custom_product_contain_oxygen_bond_distance_aromatic_linkinvent_7_9_3/rearranged_h_0005.sdf

> <i_m_source_file_index>
13

> <r_mmod_Potential_Energy-OPLS-2005>
-54.4428901672363

> <r_mmod_Stretch_Energy-OPLS-2005>
44.6763114929199

> <r_mmod_Bend_Energy-OPLS-2005>
119.929039001465

> <r_mmod_Torsional_Energy-OPLS-2005>
393.898345947266

> <r_mmod_Improper_Torsional_Energy-OPLS-2005>
11.794340133667

> <r_mmod_Van_der_Waal_Energy-OPLS-2005>
141.251571655273

> <r_mmod_Electrostatic_Energy-OPLS-2005>
-274.331909179688

> <r_mmod_Solvation_Energy-OPLS-2005>
-505.269470214844

> <b_mmod_Minimization_Converged-OPLS-2005>
0

> <r_mmod_RMS_Derivative-OPLS-2005>
4.3326301574707

$$$$
13
                    3D
 Structure written by MMmdl.
154162  0  0  1  0            999 V2000
  -30.6755  -14.4856   20.5768 C   0  0  0  0  0  0
  -30.4342  -12.3171   19.4176 C   0  0  0  0  0  0
  -29.4979  -12.5126   18.2056 C   0  0  0  0  0  0
  -28.0186  -12.3671   18.6170 C   0  0  0  0  0  0
  -27.6648  -13.1978   19.8787 C   0  0  2  0  0  0
  -28.7076  -12.9625   20.9954 C   0  0  0  0  0  0
  -25.2602  -13.8130   20.5673 C   0  0  0  0  0  0
  -24.1842  -13.0423   20.9167 C   0  0  0  0  0  0
  -24.6385  -11.6887   20.8730 C   0  0  0  0  0  0
  -23.9043  -10.4283   21.0398 C   0  0  0  0  0  0
  -24.3599   -9.4204   21.9179 C   0  0  0  0  0  0
  -23.6282   -8.2238   22.0750 C   0  0  0  0  0  0
  -22.4265   -8.0274   21.3540 C   0  0  0  0  0  0
  -21.9891   -9.0244   20.4642 C   0  0  0  0  0  0
  -22.7215  -10.2127   20.3049 C   0  0  0  0  0  0
  -21.6847   -6.0734   22.5281 C   0  0  0  0  0  0
  -21.4010   -6.5638   23.8215 C   0  0  0  0  0  0
  -21.3657   -5.6790   24.9177 C   0  0  0  0  0  0
  -21.6046   -4.3054   24.7227 C   0  0  0  0  0  0
  -21.8819   -3.8146   23.4348 C   0  0  0  0  0  0
  -21.9189   -4.6963   22.3404 C   0  0  0  0  0  0
  -22.7867  -13.5235   21.1838 C   0  0  0  0  0  0
  -22.1658   -4.2149   21.0981 F   0  0  0  0  0  0
  -21.5629   -3.4536   25.7739 F   0  0  0  0  0  0
  -30.0402  -13.2864   20.4518 N   0  0  0  0  0  0
  -26.3039  -12.9284   20.3378 N   0  0  0  0  0  0
  -25.9314  -11.6454   20.5768 N   0  0  0  0  0  0
  -22.0499  -12.8240   22.0398 N   0  0  0  0  0  0
  -25.4309  -15.1846   20.4077 N   0  0  0  0  0  0
  -31.7868  -14.7150   20.0889 O   0  0  0  0  0  0
  -21.6629   -6.8873   21.4241 O   0  0  0  0  0  0
  -22.3561  -14.5548   20.6692 O   0  0  0  0  0  0
  -24.6151  -31.8672   23.2098 C   0  0  0  0  0  0
  -25.9041  -32.4819   23.8398 C   0  0  1  0  0  0
  -27.2388  -27.4345   20.0997 C   0  0  0  0  0  0
  -25.5895  -33.8618   24.2330 N   0  0  0  0  0  0
  -23.4050  -30.4890   21.5488 C   0  0  2  0  0  0
  -24.8559  -28.9546   20.1136 C   0  0  0  0  0  0
  -22.7418  -29.4648   22.4978 C   0  0  0  0  0  0
  -18.0273  -28.1376   22.8491 C   0  0  0  0  0  0
  -24.1485  -36.7316   23.2637 C   0  0  0  0  0  0
  -25.9338  -30.8323   21.3646 C   0  0  0  0  0  0
  -26.0148  -29.4661   20.7128 C   0  0  0  0  0  0
  -27.2123  -28.7122   20.7056 C   0  0  0  0  0  0
  -26.0685  -26.9379   19.4924 C   0  0  0  0  0  0
  -24.8772  -27.6891   19.5001 C   0  0  0  0  0  0
  -23.6163  -29.8202   20.1638 C   0  0  0  0  0  0
  -25.4103  -36.3112   24.0340 C   0  0  1  0  0  0
  -20.5865  -28.3664   23.1313 C   0  0  2  0  0  0
  -20.6760  -26.9399   22.5417 C   0  0  0  0  0  0
  -19.5740  -26.6384   21.5212 C   0  0  0  0  0  0
  -18.1920  -26.7923   22.1622 C   0  0  0  0  0  0
  -19.1523  -28.8836   23.2899 C   0  0  0  0  0  0
  -18.9451  -30.1442   23.8910 C   0  0  0  0  0  0
  -17.6454  -30.6584   24.0563 C   0  0  0  0  0  0
  -25.9033  -34.9476   23.5134 C   0  0  0  0  0  0
  -16.5344  -29.9087   23.6323 C   0  0  0  0  0  0
  -16.7261  -28.6501   23.0347 C   0  0  0  0  0  0
  -26.4474  -31.6595   25.0723 C   0  0  0  0  0  0
  -25.3747  -31.3694   26.1476 C   0  0  0  0  0  0
  -27.0307  -30.3037   24.6097 C   0  0  0  0  0  0
  -27.6053  -32.4313   25.7484 C   0  0  0  0  0  0
  -27.5587  -37.1801   24.8456 C   0  0  0  0  0  0
  -21.4145  -29.3031   22.3720 N   0  0  0  0  0  0
  -26.4285  -37.3801   23.9423 N   0  0  0  0  0  0
  -24.6693  -31.0768   22.0998 N   0  0  0  0  0  0
  -23.4184  -28.8193   23.3028 O   0  0  0  0  0  0
  -28.3688  -26.6472   20.1027 O   0  0  0  0  0  0
  -26.5596  -34.8928   22.4695 O   0  0  0  0  0  0
  -23.5340  -32.1421   23.7489 O   0  0  0  0  0  0
  -28.8313  -17.2028   19.9449 C   0  0  0  0  0  0
  -30.6632  -17.8086   21.4193 C   0  0  0  0  0  0
  -28.6050  -18.5670   19.6701 C   0  0  0  0  0  0
  -30.4286  -19.1810   21.1450 C   0  0  0  0  0  0
  -29.8580  -16.8071   20.8280 C   0  0  0  0  0  0
  -29.3791  -19.5781   20.2763 C   0  0  0  0  0  0
  -28.8315  -23.2801   20.3855 C   0  0  0  0  0  0
  -29.3915  -24.5523   21.0758 C   0  0  0  0  0  0
  -29.6401  -21.9813   20.6659 C   0  0  0  0  0  0
  -28.4049  -25.7441   21.2175 C   0  0  0  0  0  0
  -29.9575  -15.4355   21.2065 N   0  0  0  0  0  0
  -29.0320  -20.8859   19.9737 O   0  0  0  0  0  0
  -31.4757  -12.4372   19.1133 H   0  0  0  0  0  0
  -30.3545  -11.3010   19.8065 H   0  0  0  0  0  0
  -29.7398  -11.7918   17.4231 H   0  0  0  0  0  0
  -29.6606  -13.5003   17.7710 H   0  0  0  0  0  0
  -27.8282  -11.3100   18.8058 H   0  0  0  0  0  0
  -27.3681  -12.6487   17.7880 H   0  0  0  0  0  0
  -27.7112  -14.2455   19.5883 H   0  0  0  0  0  0
  -28.6895  -11.9185   21.3125 H   0  0  0  0  0  0
  -28.4599  -13.5349   21.8901 H   0  0  0  0  0  0
  -25.2743   -9.5684   22.4755 H   0  0  0  0  0  0
  -23.9992   -7.4627   22.7466 H   0  0  0  0  0  0
  -21.0821   -8.8758   19.8950 H   0  0  0  0  0  0
  -22.3669  -10.9663   19.6158 H   0  0  0  0  0  0
  -21.2003   -7.6145   23.9723 H   0  0  0  0  0  0
  -21.1479   -6.0517   25.9082 H   0  0  0  0  0  0
  -22.0603   -2.7608   23.2846 H   0  0  0  0  0  0
  -22.4096  -11.9892   22.4784 H   0  0  0  0  0  0
  -21.1127  -13.1289   22.2612 H   0  0  0  0  0  0
  -24.6616  -15.8368   20.5163 H   0  0  0  0  0  0
  -26.2840  -15.6286   20.0960 H   0  0  0  0  0  0
  -26.7115  -32.5537   23.1169 H   0  0  0  0  0  0
  -25.0047  -33.9783   25.0475 H   0  0  0  0  0  0
  -22.6937  -31.3056   21.4079 H   0  0  0  0  0  0
  -23.3751  -35.9643   23.3285 H   0  0  0  0  0  0
  -24.3588  -36.8946   22.2055 H   0  0  0  0  0  0
  -23.7226  -37.6513   23.6658 H   0  0  0  0  0  0
  -26.0464  -31.5983   20.5961 H   0  0  0  0  0  0
  -26.8208  -30.8871   21.9834 H   0  0  0  0  0  0
  -28.1067  -29.0996   21.1735 H   0  0  0  0  0  0
  -26.0792  -25.9628   19.0255 H   0  0  0  0  0  0
  -23.9870  -27.2886   19.0350 H   0  0  0  0  0  0
  -23.7247  -30.5947   19.4035 H   0  0  0  0  0  0
  -22.7412  -29.2391   19.8674 H   0  0  0  0  0  0
  -25.1275  -36.1974   25.0832 H   0  0  0  0  0  0
  -20.9956  -28.3229   24.1433 H   0  0  0  0  0  0
  -20.5657  -26.2274   23.3606 H   0  0  0  0  0  0
  -21.6632  -26.7437   22.1211 H   0  0  0  0  0  0
  -19.6901  -25.6298   21.1232 H   0  0  0  0  0  0
  -19.6681  -27.3200   20.6748 H   0  0  0  0  0  0
  -17.4190  -26.6672   21.4024 H   0  0  0  0  0  0
  -18.0320  -26.0061   22.9015 H   0  0  0  0  0  0
  -19.7929  -30.7252   24.2285 H   0  0  0  0  0  0
  -17.5012  -31.6266   24.5161 H   0  0  0  0  0  0
  -15.5346  -30.2994   23.7641 H   0  0  0  0  0  0
  -15.8659  -28.0827   22.7054 H   0  0  0  0  0  0
  -24.5910  -30.7058   25.7810 H   0  0  0  0  0  0
  -24.8955  -32.2848   26.4957 H   0  0  0  0  0  0
  -25.8108  -30.8834   27.0214 H   0  0  0  0  0  0
  -26.2851  -29.6793   24.1161 H   0  0  0  0  0  0
  -27.4090  -29.7277   25.4554 H   0  0  0  0  0  0
  -27.8680  -30.4358   23.9241 H   0  0  0  0  0  0
  -27.2673  -33.3596   26.2100 H   0  0  0  0  0  0
  -28.3841  -32.6899   25.0298 H   0  0  0  0  0  0
  -28.0745  -31.8413   26.5367 H   0  0  0  0  0  0
  -28.2574  -38.0131   24.7559 H   0  0  0  0  0  0
  -28.1116  -36.2668   24.6205 H   0  0  0  0  0  0
  -27.2318  -37.1356   25.8860 H   0  0  0  0  0  0
  -20.9305  -29.8761   21.6948 H   0  0  0  0  0  0
  -26.0173  -38.2872   24.1458 H   0  0  0  0  0  0
  -28.1911  -16.4684   19.4806 H   0  0  0  0  0  0
  -31.4452  -17.5332   22.1133 H   0  0  0  0  0  0
  -27.8028  -18.8432   19.0003 H   0  0  0  0  0  0
  -31.0561  -19.9164   21.6268 H   0  0  0  0  0  0
  -28.7664  -23.4536   19.3107 H   0  0  0  0  0  0
  -27.8085  -23.1144   20.7249 H   0  0  0  0  0  0
  -30.3134  -24.8783   20.5932 H   0  0  0  0  0  0
  -29.6789  -24.2650   22.0882 H   0  0  0  0  0  0
  -29.6517  -21.7891   21.7399 H   0  0  0  0  0  0
  -30.6738  -22.0941   20.3368 H   0  0  0  0  0  0
  -28.7055  -26.3349   22.0844 H   0  0  0  0  0  0
  -27.4089  -25.3630   21.4531 H   0  0  0  0  0  0
  -29.1125  -15.0532   21.6036 H   0  0  0  0  0  0
  1 25  1  0  0  0
  1 30  2  0  0  0
  1 81  1  0  0  0
  2  3  1  0  0  0
  2 25  1  0  0  0
  2 83  1  0  0  0
  2 84  1  0  0  0
  3  4  1  0  0  0
  3 85  1  0  0  0
  3 86  1  0  0  0
  4  5  1  0  0  0
  4 87  1  0  0  0
  4 88  1  0  0  0
  5  6  1  0  0  0
  5 26  1  0  0  0
  5 89  1  0  0  0
  6 25  1  0  0  0
  6 90  1  0  0  0
  6 91  1  0  0  0
  7  8  2  0  0  0
  7 26  1  0  0  0
  7 29  1  0  0  0
  8  9  1  0  0  0
  8 22  1  0  0  0
  9 10  1  0  0  0
  9 27  2  0  0  0
 10 11  2  0  0  0
 10 15  1  0  0  0
 11 12  1  0  0  0
 11 92  1  0  0  0
 12 13  2  0  0  0
 12 93  1  0  0  0
 13 14  1  0  0  0
 13 31  1  0  0  0
 14 15  2  0  0  0
 14 94  1  0  0  0
 15 95  1  0  0  0
 16 17  2  0  0  0
 16 21  1  0  0  0
 16 31  1  0  0  0
 17 18  1  0  0  0
 17 96  1  0  0  0
 18 19  2  0  0  0
 18 97  1  0  0  0
 19 20  1  0  0  0
 19 24  1  0  0  0
 20 21  2  0  0  0
 20 98  1  0  0  0
 21 23  1  0  0  0
 22 28  1  0  0  0
 22 32  2  0  0  0
 26 27  1  0  0  0
 28 99  1  0  0  0
 28100  1  0  0  0
 29101  1  0  0  0
 29102  1  0  0  0
 33 34  1  0  0  0
 33 66  1  0  0  0
 33 70  2  0  0  0
 34 36  1  0  0  0
 34 59  1  0  0  0
 34103  1  0  0  0
 35 44  2  0  0  0
 35 45  1  0  0  0
 35 68  1  0  0  0
 36 56  1  0  0  0
 36104  1  0  0  0
 37 39  1  0  0  0
 37 47  1  0  0  0
 37 66  1  0  0  0
 37105  1  0  0  0
 38 43  2  0  0  0
 38 46  1  0  0  0
 38 47  1  0  0  0
 39 64  1  0  0  0
 39 67  2  0  0  0
 40 52  1  0  0  0
 40 53  2  0  0  0
 40 58  1  0  0  0
 41106  1  0  0  0
 41107  1  0  0  0
 41108  1  0  0  0
 41 48  1  0  0  0
 42 43  1  0  0  0
 42 66  1  0  0  0
 42109  1  0  0  0
 42110  1  0  0  0
 43 44  1  0  0  0
 44111  1  0  0  0
 45 46  2  0  0  0
 45112  1  0  0  0
 46113  1  0  0  0
 47114  1  0  0  0
 47115  1  0  0  0
 48 56  1  0  0  0
 48 65  1  0  0  0
 48116  1  0  0  0
 49 50  1  0  0  0
 49 53  1  0  0  0
 49 64  1  0  0  0
 49117  1  0  0  0
 50 51  1  0  0  0
 50118  1  0  0  0
 50119  1  0  0  0
 51 52  1  0  0  0
 51120  1  0  0  0
 51121  1  0  0  0
 52122  1  0  0  0
 52123  1  0  0  0
 53 54  1  0  0  0
 54 55  2  0  0  0
 54124  1  0  0  0
 55 57  1  0  0  0
 55125  1  0  0  0
 56 69  2  0  0  0
 57 58  2  0  0  0
 57126  1  0  0  0
 58127  1  0  0  0
 59 60  1  0  0  0
 59 61  1  0  0  0
 59 62  1  0  0  0
 60128  1  0  0  0
 60129  1  0  0  0
 60130  1  0  0  0
 61131  1  0  0  0
 61132  1  0  0  0
 61133  1  0  0  0
 62134  1  0  0  0
 62135  1  0  0  0
 62136  1  0  0  0
 63 65  1  0  0  0
 63137  1  0  0  0
 63138  1  0  0  0
 63139  1  0  0  0
 64140  1  0  0  0
 65141  1  0  0  0
 68 80  1  0  0  0
 71 73  2  0  0  0
 71 75  1  0  0  0
 71142  1  0  0  0
 72 74  1  0  0  0
 72 75  2  0  0  0
 72143  1  0  0  0
 73 76  1  0  0  0
 73144  1  0  0  0
 74 76  2  0  0  0
 74145  1  0  0  0
 75 81  1  0  0  0
 76 82  1  0  0  0
 77 78  1  0  0  0
 77 79  1  0  0  0
 77146  1  0  0  0
 77147  1  0  0  0
 78 80  1  0  0  0
 78148  1  0  0  0
 78149  1  0  0  0
 79 82  1  0  0  0
 79150  1  0  0  0
 79151  1  0  0  0
 80152  1  0  0  0
 80153  1  0  0  0
 81154  1  0  0  0
M  ISO  4   1 100  68 101  80 101  81 100
M  END
> <chiral flag>
0

> <version>
0

> <s_m_source_file>
/data/baiqing/PycharmProjects/Reinvent-master-3.2/result/LINK_invent/BTK/process_docking_weight1_custom_product_contain_oxygen_bond_distance_aromatic_linkinvent_7_9_3/rearranged_h_0005.sdf

> <i_m_source_file_index>
14

> <r_mmod_Potential_Energy-OPLS-2005>
-26.1432418823242

> <r_mmod_Stretch_Energy-OPLS-2005>
38.0520858764648

> <r_mmod_Bend_Energy-OPLS-2005>
103.493583679199

> <r_mmod_Torsional_Energy-OPLS-2005>
269.066009521484

> <r_mmod_Improper_Torsional_Energy-OPLS-2005>
5.56116437911987

> <r_mmod_Van_der_Waal_Energy-OPLS-2005>
142.235061645508

> <r_mmod_Electrostatic_Energy-OPLS-2005>
-386.073486328125

> <r_mmod_Solvation_Energy-OPLS-2005>
-212.002868652344

> <b_mmod_Minimization_Converged-OPLS-2005>
0

> <r_mmod_RMS_Derivative-OPLS-2005>
0.609314560890198

$$$$
14
                    3D
 Structure written by MMmdl.
167176  0  0  1  0            999 V2000
  -30.4928  -14.9242   20.3771 C   0  0  0  0  0  0
  -30.4579  -12.5651   19.4760 C   0  0  0  0  0  0
  -29.5327  -12.5364   18.2389 C   0  0  0  0  0  0
  -28.0560  -12.3379   18.6412 C   0  0  0  0  0  0
  -27.6390  -13.2332   19.8359 C   0  0  2  0  0  0
  -28.6875  -13.2103   20.9684 C   0  0  0  0  0  0
  -25.2498  -13.8138   20.5591 C   0  0  0  0  0  0
  -24.1806  -13.0436   20.9166 C   0  0  0  0  0  0
  -24.6396  -11.6877   20.8742 C   0  0  0  0  0  0
  -23.9069  -10.4257   21.0436 C   0  0  0  0  0  0
  -24.3614   -9.4158   21.9218 C   0  0  0  0  0  0
  -23.6264   -8.2202   22.0775 C   0  0  0  0  0  0
  -22.4241   -8.0264   21.3566 C   0  0  0  0  0  0
  -21.9889   -9.0249   20.4686 C   0  0  0  0  0  0
  -22.7239  -10.2112   20.3088 C   0  0  0  0  0  0
  -21.6840   -6.0714   22.5292 C   0  0  0  0  0  0
  -21.4011   -6.5621   23.8216 C   0  0  0  0  0  0
  -21.3657   -5.6786   24.9195 C   0  0  0  0  0  0
  -21.6025   -4.3043   24.7238 C   0  0  0  0  0  0
  -21.8828   -3.8136   23.4369 C   0  0  0  0  0  0
  -21.9192   -4.6952   22.3426 C   0  0  0  0  0  0
  -22.7833  -13.5252   21.1798 C   0  0  0  0  0  0
  -22.1668   -4.2146   21.1007 F   0  0  0  0  0  0
  -21.5633   -3.4526   25.7770 F   0  0  0  0  0  0
  -29.9616  -13.6409   20.3756 N   0  0  0  0  0  0
  -26.2936  -12.9340   20.3184 N   0  0  0  0  0  0
  -25.9328  -11.6486   20.5679 N   0  0  0  0  0  0
  -22.0441  -12.8324   22.0399 N   0  0  0  0  0  0
  -25.4155  -15.1838   20.3833 N   0  0  0  0  0  0
  -31.6942  -15.0561   20.1155 O   0  0  0  0  0  0
  -21.6601   -6.8861   21.4256 O   0  0  0  0  0  0
  -22.3551  -14.5568   20.6634 O   0  0  0  0  0  0
  -24.6436  -31.8442   23.1918 C   0  0  0  0  0  0
  -25.9228  -32.4676   23.8305 C   0  0  1  0  0  0
  -27.2149  -27.1479   20.1379 C   0  0  0  0  0  0
  -25.5990  -33.8485   24.2224 N   0  0  0  0  0  0
  -23.4471  -30.4650   21.5367 C   0  0  2  0  0  0
  -24.8963  -28.8988   20.1071 C   0  0  0  0  0  0
  -22.7571  -29.4546   22.4862 C   0  0  0  0  0  0
  -18.0307  -28.1376   22.8451 C   0  0  0  0  0  0
  -24.1497  -36.7249   23.2641 C   0  0  0  0  0  0
  -26.0034  -30.7175   21.3946 C   0  0  0  0  0  0
  -26.0724  -29.3328   20.7314 C   0  0  0  0  0  0
  -27.2313  -28.4712   20.7370 C   0  0  0  0  0  0
  -26.0171  -26.8204   19.4640 C   0  0  0  0  0  0
  -24.8818  -27.6552   19.4595 C   0  0  0  0  0  0
  -23.6728  -29.7996   20.1534 C   0  0  0  0  0  0
  -25.4119  -36.3021   24.0318 C   0  0  1  0  0  0
  -20.5929  -28.3708   23.1228 C   0  0  2  0  0  0
  -20.6794  -26.9402   22.5409 C   0  0  0  0  0  0
  -19.5776  -26.6352   21.5202 C   0  0  0  0  0  0
  -18.1949  -26.7918   22.1585 C   0  0  0  0  0  0
  -19.1566  -28.8858   23.2832 C   0  0  0  0  0  0
  -18.9473  -30.1465   23.8843 C   0  0  0  0  0  0
  -17.6463  -30.6570   24.0542 C   0  0  0  0  0  0
  -25.9073  -34.9390   23.5071 C   0  0  0  0  0  0
  -16.5359  -29.9053   23.6336 C   0  0  0  0  0  0
  -16.7290  -28.6487   23.0333 C   0  0  0  0  0  0
  -26.4542  -31.6536   25.0746 C   0  0  0  0  0  0
  -25.3730  -31.3757   26.1445 C   0  0  0  0  0  0
  -27.0423  -30.2935   24.6359 C   0  0  0  0  0  0
  -27.6088  -32.4297   25.7518 C   0  0  0  0  0  0
  -27.5577  -37.1780   24.8455 C   0  0  0  0  0  0
  -21.4266  -29.3047   22.3617 N   0  0  0  0  0  0
  -26.4287  -37.3724   23.9403 N   0  0  0  0  0  0
  -24.7170  -31.0303   22.0951 N   0  0  0  0  0  0
  -23.4207  -28.8091   23.3012 O   0  0  0  0  0  0
  -28.2602  -26.1575   20.2151 O   0  0  0  0  0  0
  -26.5636  -34.8891   22.4637 O   0  0  0  0  0  0
  -23.5556  -32.1336   23.7124 O   0  0  0  0  0  0
  -30.0186  -18.5542   21.1167 C   0  0  0  0  0  0
  -29.7376  -19.9837   20.9902 C   0  0  0  0  0  0
  -28.5379  -19.5350   19.0175 C   0  0  0  0  0  0
  -28.7970  -18.1101   19.1288 C   0  0  0  0  0  0
  -29.5633  -17.5283   20.2090 C   0  0  0  0  0  0
  -28.9516  -20.5554   19.9343 C   0  0  0  0  0  0
  -26.2742  -16.4848   15.4919 C   0  0  0  0  0  0
  -27.5991  -15.8968   14.9729 C   0  0  0  0  0  0
  -26.0007  -16.3548   17.0000 C   0  0  0  0  0  0
  -28.8606  -16.0442   15.8467 C   0  0  0  0  0  0
  -26.6935  -17.4497   17.8287 C   0  0  0  0  0  0
  -28.9885  -17.3097   16.7142 C   0  0  0  0  0  0
  -28.2011  -17.2081   18.0380 C   0  0  0  0  0  0
  -27.9831  -24.6567   19.9092 C   0  0  0  0  0  0
  -28.8421  -23.2714   20.3322 C   0  0  0  0  0  0
  -29.5980  -16.0197   20.4869 N   0  0  0  0  0  0
  -28.5048  -21.9258   19.6870 O   0  0  0  0  0  0
  -31.4926  -12.7360   19.1743 H   0  0  0  0  0  0
  -30.4495  -11.6014   19.9858 H   0  0  0  0  0  0
  -29.8435  -11.7634   17.5361 H   0  0  0  0  0  0
  -29.6399  -13.4790   17.7059 H   0  0  0  0  0  0
  -27.9113  -11.2865   18.8910 H   0  0  0  0  0  0
  -27.4121  -12.5369   17.7848 H   0  0  0  0  0  0
  -27.6126  -14.2462   19.4373 H   0  0  0  0  0  0
  -28.7760  -12.2075   21.3901 H   0  0  0  0  0  0
  -28.3966  -13.8673   21.7906 H   0  0  0  0  0  0
  -25.2774   -9.5588   22.4787 H   0  0  0  0  0  0
  -23.9978   -7.4564   22.7453 H   0  0  0  0  0  0
  -21.0843   -8.8768   19.8974 H   0  0  0  0  0  0
  -22.3734  -10.9652   19.6176 H   0  0  0  0  0  0
  -21.1978   -7.6121   23.9724 H   0  0  0  0  0  0
  -21.1492   -6.0523   25.9106 H   0  0  0  0  0  0
  -22.0606   -2.7599   23.2888 H   0  0  0  0  0  0
  -22.4033  -12.0035   22.4898 H   0  0  0  0  0  0
  -21.1102  -13.1457   22.2618 H   0  0  0  0  0  0
  -24.6041  -15.7907   20.3441 H   0  0  0  0  0  0
  -26.2234  -15.5825   19.9268 H   0  0  0  0  0  0
  -26.7297  -32.5281   23.1039 H   0  0  0  0  0  0
  -25.0185  -33.9619   25.0414 H   0  0  0  0  0  0
  -22.7484  -31.2898   21.3841 H   0  0  0  0  0  0
  -23.3748  -35.9588   23.3298 H   0  0  0  0  0  0
  -24.3589  -36.8880   22.2057 H   0  0  0  0  0  0
  -23.7277  -37.6454   23.6680 H   0  0  0  0  0  0
  -26.1676  -31.4758   20.6285 H   0  0  0  0  0  0
  -26.8701  -30.7586   22.0422 H   0  0  0  0  0  0
  -28.1219  -28.7927   21.2577 H   0  0  0  0  0  0
  -25.9211  -25.8762   18.9498 H   0  0  0  0  0  0
  -23.9879  -27.3193   18.9521 H   0  0  0  0  0  0
  -23.8090  -30.5782   19.4001 H   0  0  0  0  0  0
  -22.7880  -29.2409   19.8419 H   0  0  0  0  0  0
  -25.1305  -36.1842   25.0804 H   0  0  0  0  0  0
  -20.9991  -28.3290   24.1359 H   0  0  0  0  0  0
  -20.5659  -26.2309   23.3628 H   0  0  0  0  0  0
  -21.6667  -26.7390   22.1234 H   0  0  0  0  0  0
  -19.6939  -25.6248   21.1276 H   0  0  0  0  0  0
  -19.6736  -27.3125   20.6708 H   0  0  0  0  0  0
  -17.4226  -26.6672   21.3974 H   0  0  0  0  0  0
  -18.0325  -26.0073   22.8987 H   0  0  0  0  0  0
  -19.7953  -30.7310   24.2169 H   0  0  0  0  0  0
  -17.5015  -31.6247   24.5138 H   0  0  0  0  0  0
  -15.5358  -30.2912   23.7708 H   0  0  0  0  0  0
  -15.8700  -28.0794   22.7040 H   0  0  0  0  0  0
  -24.5885  -30.7116   25.7799 H   0  0  0  0  0  0
  -24.8929  -32.2939   26.4838 H   0  0  0  0  0  0
  -25.7999  -30.8956   27.0263 H   0  0  0  0  0  0
  -26.3064  -29.6627   24.1354 H   0  0  0  0  0  0
  -27.4023  -29.7265   25.4963 H   0  0  0  0  0  0
  -27.8978  -30.4180   23.9719 H   0  0  0  0  0  0
  -27.2707  -33.3617   26.2077 H   0  0  0  0  0  0
  -28.3907  -32.6816   25.0340 H   0  0  0  0  0  0
  -28.0754  -31.8426   26.5452 H   0  0  0  0  0  0
  -28.2581  -38.0089   24.7477 H   0  0  0  0  0  0
  -28.1085  -36.2612   24.6282 H   0  0  0  0  0  0
  -27.2309  -37.1445   25.8865 H   0  0  0  0  0  0
  -20.9460  -29.8769   21.6823 H   0  0  0  0  0  0
  -26.0149  -38.2795   24.1360 H   0  0  0  0  0  0
  -30.5762  -18.2402   21.9871 H   0  0  0  0  0  0
  -30.1066  -20.6424   21.7632 H   0  0  0  0  0  0
  -27.9502  -19.8686   18.1742 H   0  0  0  0  0  0
  -25.4666  -15.9847   14.9545 H   0  0  0  0  0  0
  -26.1975  -17.5305   15.1969 H   0  0  0  0  0  0
  -27.7938  -16.3300   13.9910 H   0  0  0  0  0  0
  -27.4554  -14.8321   14.7826 H   0  0  0  0  0  0
  -26.2498  -15.3568   17.3646 H   0  0  0  0  0  0
  -24.9248  -16.4660   17.1507 H   0  0  0  0  0  0
  -29.7271  -15.9781   15.1876 H   0  0  0  0  0  0
  -28.9400  -15.1731   16.4924 H   0  0  0  0  0  0
  -26.2091  -17.5036   18.8041 H   0  0  0  0  0  0
  -26.5145  -18.4179   17.3615 H   0  0  0  0  0  0
  -28.7402  -18.2160   16.1609 H   0  0  0  0  0  0
  -30.0467  -17.3966   16.9667 H   0  0  0  0  0  0
  -28.3027  -16.1850   18.3845 H   0  0  0  0  0  0
  -26.9757  -24.4551   20.2729 H   0  0  0  0  0  0
  -27.9023  -24.6213   18.8221 H   0  0  0  0  0  0
  -28.7774  -23.1420   21.4124 H   0  0  0  0  0  0
  -29.8941  -23.4484   20.1150 H   0  0  0  0  0  0
  -28.6708  -15.6507   20.6250 H   0  0  0  0  0  0
  1 25  1  0  0  0
  1 30  2  0  0  0
  1 86  1  0  0  0
  2  3  1  0  0  0
  2 25  1  0  0  0
  2 88  1  0  0  0
  2 89  1  0  0  0
  3  4  1  0  0  0
  3 90  1  0  0  0
  3 91  1  0  0  0
  4  5  1  0  0  0
  4 92  1  0  0  0
  4 93  1  0  0  0
  5  6  1  0  0  0
  5 26  1  0  0  0
  5 94  1  0  0  0
  6 25  1  0  0  0
  6 95  1  0  0  0
  6 96  1  0  0  0
  7  8  2  0  0  0
  7 26  1  0  0  0
  7 29  1  0  0  0
  8  9  1  0  0  0
  8 22  1  0  0  0
  9 10  1  0  0  0
  9 27  2  0  0  0
 10 11  2  0  0  0
 10 15  1  0  0  0
 11 12  1  0  0  0
 11 97  1  0  0  0
 12 13  2  0  0  0
 12 98  1  0  0  0
 13 14  1  0  0  0
 13 31  1  0  0  0
 14 15  2  0  0  0
 14 99  1  0  0  0
 15100  1  0  0  0
 16 17  2  0  0  0
 16 21  1  0  0  0
 16 31  1  0  0  0
 17 18  1  0  0  0
 17101  1  0  0  0
 18 19  2  0  0  0
 18102  1  0  0  0
 19 20  1  0  0  0
 19 24  1  0  0  0
 20 21  2  0  0  0
 20103  1  0  0  0
 21 23  1  0  0  0
 22 28  1  0  0  0
 22 32  2  0  0  0
 26 27  1  0  0  0
 28104  1  0  0  0
 28105  1  0  0  0
 29106  1  0  0  0
 29107  1  0  0  0
 33 34  1  0  0  0
 33 66  1  0  0  0
 33 70  2  0  0  0
 34 36  1  0  0  0
 34 59  1  0  0  0
 34108  1  0  0  0
 35 44  2  0  0  0
 35 45  1  0  0  0
 35 68  1  0  0  0
 36 56  1  0  0  0
 36109  1  0  0  0
 37 39  1  0  0  0
 37 47  1  0  0  0
 37 66  1  0  0  0
 37110  1  0  0  0
 38 43  2  0  0  0
 38 46  1  0  0  0
 38 47  1  0  0  0
 39 64  1  0  0  0
 39 67  2  0  0  0
 40 52  1  0  0  0
 40 53  2  0  0  0
 40 58  1  0  0  0
 41111  1  0  0  0
 41112  1  0  0  0
 41113  1  0  0  0
 41 48  1  0  0  0
 42 43  1  0  0  0
 42 66  1  0  0  0
 42114  1  0  0  0
 42115  1  0  0  0
 43 44  1  0  0  0
 44116  1  0  0  0
 45 46  2  0  0  0
 45117  1  0  0  0
 46118  1  0  0  0
 47119  1  0  0  0
 47120  1  0  0  0
 48 56  1  0  0  0
 48 65  1  0  0  0
 48121  1  0  0  0
 49 50  1  0  0  0
 49 53  1  0  0  0
 49 64  1  0  0  0
 49122  1  0  0  0
 50 51  1  0  0  0
 50123  1  0  0  0
 50124  1  0  0  0
 51 52  1  0  0  0
 51125  1  0  0  0
 51126  1  0  0  0
 52127  1  0  0  0
 52128  1  0  0  0
 53 54  1  0  0  0
 54 55  2  0  0  0
 54129  1  0  0  0
 55 57  1  0  0  0
 55130  1  0  0  0
 56 69  2  0  0  0
 57 58  2  0  0  0
 57131  1  0  0  0
 58132  1  0  0  0
 59 60  1  0  0  0
 59 61  1  0  0  0
 59 62  1  0  0  0
 60133  1  0  0  0
 60134  1  0  0  0
 60135  1  0  0  0
 61136  1  0  0  0
 61137  1  0  0  0
 61138  1  0  0  0
 62139  1  0  0  0
 62140  1  0  0  0
 62141  1  0  0  0
 63 65  1  0  0  0
 63142  1  0  0  0
 63143  1  0  0  0
 63144  1  0  0  0
 64145  1  0  0  0
 65146  1  0  0  0
 68 84  1  0  0  0
 71 72  2  0  0  0
 71 75  1  0  0  0
 71147  1  0  0  0
 72 76  1  0  0  0
 72148  1  0  0  0
 73 74  1  0  0  0
 73 76  2  0  0  0
 73149  1  0  0  0
 74 75  2  0  0  0
 74 83  1  0  0  0
 75 86  1  0  0  0
 76 87  1  0  0  0
 77 78  1  0  0  0
 77 79  1  0  0  0
 77150  1  0  0  0
 77151  1  0  0  0
 78 80  1  0  0  0
 78152  1  0  0  0
 78153  1  0  0  0
 79 81  1  0  0  0
 79154  1  0  0  0
 79155  1  0  0  0
 80 82  1  0  0  0
 80156  1  0  0  0
 80157  1  0  0  0
 81 83  1  0  0  0
 81158  1  0  0  0
 81159  1  0  0  0
 82 83  1  0  0  0
 82160  1  0  0  0
 82161  1  0  0  0
 83162  1  0  0  0
 84 85  1  0  0  0
 84163  1  0  0  0
 84164  1  0  0  0
 85 87  1  0  0  0
 85165  1  0  0  0
 85166  1  0  0  0
 86167  1  0  0  0
M  ISO  4   1 100  68 101  84 101  86 100
M  END
> <chiral flag>
0

> <version>
0

> <s_m_source_file>
/data/baiqing/PycharmProjects/Reinvent-master-3.2/result/LINK_invent/BTK/process_docking_weight1_custom_product_contain_oxygen_bond_distance_aromatic_linkinvent_7_9_3/rearranged_h_0005.sdf

> <i_m_source_file_index>
15

> <r_mmod_Potential_Energy-OPLS-2005>
527.650146484375

> <r_mmod_Stretch_Energy-OPLS-2005>
219.822906494141

> <r_mmod_Bend_Energy-OPLS-2005>
289.372894287109

> <r_mmod_Torsional_Energy-OPLS-2005>
283.763977050781

> <r_mmod_Improper_Torsional_Energy-OPLS-2005>
8.52360057830811

> <r_mmod_Van_der_Waal_Energy-OPLS-2005>
124.05061340332

> <r_mmod_Electrostatic_Energy-OPLS-2005>
-376.499816894531

> <r_mmod_Solvation_Energy-OPLS-2005>
-205.859375

> <b_mmod_Minimization_Converged-OPLS-2005>
0

> <r_mmod_RMS_Derivative-OPLS-2005>
3.98934626579285

$$$$
15
                    3D
 Structure written by MMmdl.
164173  0  0  1  0            999 V2000
  -30.7243  -14.4966   20.4742 C   0  0  0  0  0  0
  -30.4031  -12.3012   19.4485 C   0  0  0  0  0  0
  -29.4939  -12.4749   18.2165 C   0  0  0  0  0  0
  -28.0145  -12.3440   18.6251 C   0  0  0  0  0  0
  -27.6476  -13.2205   19.8544 C   0  0  2  0  0  0
  -28.6894  -13.0847   20.9879 C   0  0  0  0  0  0
  -25.2531  -13.8190   20.5664 C   0  0  0  0  0  0
  -24.1814  -13.0453   20.9201 C   0  0  0  0  0  0
  -24.6389  -11.6919   20.8751 C   0  0  0  0  0  0
  -23.9064  -10.4293   21.0413 C   0  0  0  0  0  0
  -24.3609   -9.4203   21.9186 C   0  0  0  0  0  0
  -23.6280   -8.2240   22.0752 C   0  0  0  0  0  0
  -22.4269   -8.0284   21.3540 C   0  0  0  0  0  0
  -21.9905   -9.0262   20.4644 C   0  0  0  0  0  0
  -22.7235  -10.2139   20.3056 C   0  0  0  0  0  0
  -21.6839   -6.0741   22.5279 C   0  0  0  0  0  0
  -21.4014   -6.5641   23.8218 C   0  0  0  0  0  0
  -21.3663   -5.6789   24.9176 C   0  0  0  0  0  0
  -21.6039   -4.3052   24.7227 C   0  0  0  0  0  0
  -21.8814   -3.8150   23.4345 C   0  0  0  0  0  0
  -21.9191   -4.6968   22.3403 C   0  0  0  0  0  0
  -22.7829  -13.5234   21.1858 C   0  0  0  0  0  0
  -22.1652   -4.2153   21.0977 F   0  0  0  0  0  0
  -21.5636   -3.4537   25.7741 F   0  0  0  0  0  0
  -30.0159  -13.3394   20.4158 N   0  0  0  0  0  0
  -26.2951  -12.9387   20.3272 N   0  0  0  0  0  0
  -25.9312  -11.6537   20.5743 N   0  0  0  0  0  0
  -22.0465  -12.8240   22.0417 N   0  0  0  0  0  0
  -25.4248  -15.1910   20.4053 N   0  0  0  0  0  0
  -31.9320  -14.5266   20.2338 O   0  0  0  0  0  0
  -21.6626   -6.8886   21.4241 O   0  0  0  0  0  0
  -22.3521  -14.5539   20.6693 O   0  0  0  0  0  0
  -24.6177  -31.8673   23.2073 C   0  0  0  0  0  0
  -25.9068  -32.4812   23.8379 C   0  0  1  0  0  0
  -27.2242  -27.4229   20.1006 C   0  0  0  0  0  0
  -25.5924  -33.8613   24.2313 N   0  0  0  0  0  0
  -23.4031  -30.4948   21.5461 C   0  0  2  0  0  0
  -24.8445  -28.9590   20.1113 C   0  0  0  0  0  0
  -22.7423  -29.4685   22.4949 C   0  0  0  0  0  0
  -18.0272  -28.1387   22.8473 C   0  0  0  0  0  0
  -24.1488  -36.7311   23.2638 C   0  0  0  0  0  0
  -25.9342  -30.8304   21.3615 C   0  0  0  0  0  0
  -26.0046  -29.4659   20.7067 C   0  0  0  0  0  0
  -27.1966  -28.7072   20.6923 C   0  0  0  0  0  0
  -26.0413  -26.9303   19.5013 C   0  0  0  0  0  0
  -24.8589  -27.6929   19.5029 C   0  0  0  0  0  0
  -23.6084  -29.8269   20.1597 C   0  0  0  0  0  0
  -25.4111  -36.3106   24.0332 C   0  0  1  0  0  0
  -20.5870  -28.3680   23.1286 C   0  0  2  0  0  0
  -20.6757  -26.9411   22.5389 C   0  0  0  0  0  0
  -19.5741  -26.6380   21.5186 C   0  0  0  0  0  0
  -18.1920  -26.7931   22.1600 C   0  0  0  0  0  0
  -19.1525  -28.8846   23.2877 C   0  0  0  0  0  0
  -18.9453  -30.1449   23.8898 C   0  0  0  0  0  0
  -17.6459  -30.6583   24.0578 C   0  0  0  0  0  0
  -25.9041  -34.9474   23.5114 C   0  0  0  0  0  0
  -16.5348  -29.9089   23.6331 C   0  0  0  0  0  0
  -16.7263  -28.6509   23.0341 C   0  0  0  0  0  0
  -26.4488  -31.6619   25.0730 C   0  0  0  0  0  0
  -25.3755  -31.3759   26.1480 C   0  0  0  0  0  0
  -27.0345  -30.3057   24.6156 C   0  0  0  0  0  0
  -27.6039  -32.4367   25.7497 C   0  0  0  0  0  0
  -27.5584  -37.1806   24.8462 C   0  0  0  0  0  0
  -21.4145  -29.3063   22.3700 N   0  0  0  0  0  0
  -26.4297  -37.3790   23.9406 N   0  0  0  0  0  0
  -24.6696  -31.0804   22.0953 N   0  0  0  0  0  0
  -23.4189  -28.8213   23.2984 O   0  0  0  0  0  0
  -28.4090  -26.7121   20.1297 O   0  0  0  0  0  0
  -26.5596  -34.8927   22.4671 O   0  0  0  0  0  0
  -23.5363  -32.1404   23.7478 O   0  0  0  0  0  0
  -31.8308  -17.9130   18.1204 C   0  0  0  0  0  0
  -31.8951  -19.1141   18.8379 C   0  0  0  0  0  0
  -31.1564  -16.8109   18.6692 C   0  0  0  0  0  0
  -31.2170  -19.2359   20.0638 C   0  0  0  0  0  0
  -30.4303  -18.1606   20.5737 C   0  0  0  0  0  0
  -30.5101  -16.8831   19.9334 C   0  0  0  0  0  0
  -28.0927  -22.0296   21.6503 C   0  0  0  0  0  0
  -31.3495  -20.5549   20.8163 C   0  0  0  0  0  0
  -29.5406  -18.4152   21.8040 C   0  0  0  0  0  0
  -30.6807  -20.5182   22.1970 C   0  0  0  0  0  0
  -28.3752  -20.5778   21.2114 C   0  0  0  0  0  0
  -27.8196  -24.4259   20.9639 C   0  0  0  0  0  0
  -28.4161  -25.3053   19.8350 C   0  0  0  0  0  0
  -30.0207  -15.6576   20.5216 N   0  0  0  0  0  0
  -28.0142  -22.9888   20.7078 N   0  0  0  0  0  0
  -29.3506  -19.8680   22.1039 N   0  3  1  0  0  0
  -27.9612  -22.2773   22.8502 O   0  0  0  0  0  0
  -31.4517  -12.3644   19.1518 H   0  0  0  0  0  0
  -30.2768  -11.3120   19.8889 H   0  0  0  0  0  0
  -29.7394  -11.7307   17.4584 H   0  0  0  0  0  0
  -29.6678  -13.4503   17.7597 H   0  0  0  0  0  0
  -27.8329  -11.2931   18.8562 H   0  0  0  0  0  0
  -27.3655  -12.5832   17.7813 H   0  0  0  0  0  0
  -27.6661  -14.2534   19.5088 H   0  0  0  0  0  0
  -28.6570  -12.0849   21.4222 H   0  0  0  0  0  0
  -28.4688  -13.7772   21.8014 H   0  0  0  0  0  0
  -25.2760   -9.5673   22.4760 H   0  0  0  0  0  0
  -23.9991   -7.4627   22.7463 H   0  0  0  0  0  0
  -21.0839   -8.8778   19.8946 H   0  0  0  0  0  0
  -22.3697  -10.9675   19.6163 H   0  0  0  0  0  0
  -21.1999   -7.6150   23.9725 H   0  0  0  0  0  0
  -21.1488   -6.0518   25.9078 H   0  0  0  0  0  0
  -22.0591   -2.7614   23.2840 H   0  0  0  0  0  0
  -22.4053  -11.9898   22.4818 H   0  0  0  0  0  0
  -21.1081  -13.1273   22.2606 H   0  0  0  0  0  0
  -24.6509  -15.8411   20.4915 H   0  0  0  0  0  0
  -26.2615  -15.6206   20.0335 H   0  0  0  0  0  0
  -26.7154  -32.5500   23.1149 H   0  0  0  0  0  0
  -25.0141  -33.9773   25.0504 H   0  0  0  0  0  0
  -22.6923  -31.3124   21.4075 H   0  0  0  0  0  0
  -23.3749  -35.9647   23.3313 H   0  0  0  0  0  0
  -24.3580  -36.8902   22.2049 H   0  0  0  0  0  0
  -23.7235  -37.6517   23.6648 H   0  0  0  0  0  0
  -26.0602  -31.5983   20.5979 H   0  0  0  0  0  0
  -26.8186  -30.8715   21.9861 H   0  0  0  0  0  0
  -28.0944  -29.0995   21.1478 H   0  0  0  0  0  0
  -26.0020  -25.9626   19.0254 H   0  0  0  0  0  0
  -23.9669  -27.3014   19.0330 H   0  0  0  0  0  0
  -23.7134  -30.5989   19.3962 H   0  0  0  0  0  0
  -22.7323  -29.2452   19.8679 H   0  0  0  0  0  0
  -25.1292  -36.1964   25.0827 H   0  0  0  0  0  0
  -20.9975  -28.3250   24.1403 H   0  0  0  0  0  0
  -20.5622  -26.2308   23.3585 H   0  0  0  0  0  0
  -21.6633  -26.7422   22.1212 H   0  0  0  0  0  0
  -19.6895  -25.6286   21.1218 H   0  0  0  0  0  0
  -19.6676  -27.3189   20.6720 H   0  0  0  0  0  0
  -17.4183  -26.6668   21.4006 H   0  0  0  0  0  0
  -18.0337  -26.0068   22.8998 H   0  0  0  0  0  0
  -19.7929  -30.7266   24.2252 H   0  0  0  0  0  0
  -17.5013  -31.6256   24.5198 H   0  0  0  0  0  0
  -15.5350  -30.3003   23.7647 H   0  0  0  0  0  0
  -15.8658  -28.0841   22.7052 H   0  0  0  0  0  0
  -24.5875  -30.7169   25.7822 H   0  0  0  0  0  0
  -24.9031  -32.2950   26.4971 H   0  0  0  0  0  0
  -25.8089  -30.8876   27.0218 H   0  0  0  0  0  0
  -26.2913  -29.6776   24.1231 H   0  0  0  0  0  0
  -27.4125  -29.7333   25.4639 H   0  0  0  0  0  0
  -27.8743  -30.4363   23.9322 H   0  0  0  0  0  0
  -27.2625  -33.3633   26.2127 H   0  0  0  0  0  0
  -28.3829  -32.6991   25.0329 H   0  0  0  0  0  0
  -28.0760  -31.8492   26.5378 H   0  0  0  0  0  0
  -28.2608  -38.0103   24.7531 H   0  0  0  0  0  0
  -28.1071  -36.2633   24.6270 H   0  0  0  0  0  0
  -27.2311  -37.1445   25.8868 H   0  0  0  0  0  0
  -20.9294  -29.8831   21.6964 H   0  0  0  0  0  0
  -26.0181  -38.2868   24.1398 H   0  0  0  0  0  0
  -32.3415  -17.8207   17.1715 H   0  0  0  0  0  0
  -32.4583  -19.9479   18.4380 H   0  0  0  0  0  0
  -31.1890  -15.8807   18.1186 H   0  0  0  0  0  0
  -30.9355  -21.3605   20.2092 H   0  0  0  0  0  0
  -32.4090  -20.7862   20.9382 H   0  0  0  0  0  0
  -30.0091  -17.9312   22.6618 H   0  0  0  0  0  0
  -28.5727  -17.9324   21.6704 H   0  0  0  0  0  0
  -30.6196  -21.5207   22.6211 H   0  0  0  0  0  0
  -31.3011  -19.9487   22.8923 H   0  0  0  0  0  0
  -28.7020  -20.5541   20.1723 H   0  0  0  0  0  0
  -27.4273  -20.0406   21.2328 H   0  0  0  0  0  0
  -26.7526  -24.6221   21.0787 H   0  0  0  0  0  0
  -28.2907  -24.7034   21.9087 H   0  0  0  0  0  0
  -27.9535  -25.0983   18.8707 H   0  0  0  0  0  0
  -29.4634  -25.0309   19.7068 H   0  0  0  0  0  0
  -29.0554  -15.6147   20.8114 H   0  0  0  0  0  0
  -28.0944  -22.7082   19.7379 H   0  0  0  0  0  0
  -28.9418  -19.9220   23.0257 H   0  0  0  0  0  0
  1 25  1  0  0  0
  1 30  2  0  0  0
  1 84  1  0  0  0
  2  3  1  0  0  0
  2 25  1  0  0  0
  2 88  1  0  0  0
  2 89  1  0  0  0
  3  4  1  0  0  0
  3 90  1  0  0  0
  3 91  1  0  0  0
  4  5  1  0  0  0
  4 92  1  0  0  0
  4 93  1  0  0  0
  5  6  1  0  0  0
  5 26  1  0  0  0
  5 94  1  0  0  0
  6 25  1  0  0  0
  6 95  1  0  0  0
  6 96  1  0  0  0
  7  8  2  0  0  0
  7 26  1  0  0  0
  7 29  1  0  0  0
  8  9  1  0  0  0
  8 22  1  0  0  0
  9 10  1  0  0  0
  9 27  2  0  0  0
 10 11  2  0  0  0
 10 15  1  0  0  0
 11 12  1  0  0  0
 11 97  1  0  0  0
 12 13  2  0  0  0
 12 98  1  0  0  0
 13 14  1  0  0  0
 13 31  1  0  0  0
 14 15  2  0  0  0
 14 99  1  0  0  0
 15100  1  0  0  0
 16 17  2  0  0  0
 16 21  1  0  0  0
 16 31  1  0  0  0
 17 18  1  0  0  0
 17101  1  0  0  0
 18 19  2  0  0  0
 18102  1  0  0  0
 19 20  1  0  0  0
 19 24  1  0  0  0
 20 21  2  0  0  0
 20103  1  0  0  0
 21 23  1  0  0  0
 22 28  1  0  0  0
 22 32  2  0  0  0
 26 27  1  0  0  0
 28104  1  0  0  0
 28105  1  0  0  0
 29106  1  0  0  0
 29107  1  0  0  0
 33 34  1  0  0  0
 33 66  1  0  0  0
 33 70  2  0  0  0
 34 36  1  0  0  0
 34 59  1  0  0  0
 34108  1  0  0  0
 35 44  2  0  0  0
 35 45  1  0  0  0
 35 68  1  0  0  0
 36 56  1  0  0  0
 36109  1  0  0  0
 37 39  1  0  0  0
 37 47  1  0  0  0
 37 66  1  0  0  0
 37110  1  0  0  0
 38 43  2  0  0  0
 38 46  1  0  0  0
 38 47  1  0  0  0
 39 64  1  0  0  0
 39 67  2  0  0  0
 40 52  1  0  0  0
 40 53  2  0  0  0
 40 58  1  0  0  0
 41111  1  0  0  0
 41112  1  0  0  0
 41113  1  0  0  0
 41 48  1  0  0  0
 42 43  1  0  0  0
 42 66  1  0  0  0
 42114  1  0  0  0
 42115  1  0  0  0
 43 44  1  0  0  0
 44116  1  0  0  0
 45 46  2  0  0  0
 45117  1  0  0  0
 46118  1  0  0  0
 47119  1  0  0  0
 47120  1  0  0  0
 48 56  1  0  0  0
 48 65  1  0  0  0
 48121  1  0  0  0
 49 50  1  0  0  0
 49 53  1  0  0  0
 49 64  1  0  0  0
 49122  1  0  0  0
 50 51  1  0  0  0
 50123  1  0  0  0
 50124  1  0  0  0
 51 52  1  0  0  0
 51125  1  0  0  0
 51126  1  0  0  0
 52127  1  0  0  0
 52128  1  0  0  0
 53 54  1  0  0  0
 54 55  2  0  0  0
 54129  1  0  0  0
 55 57  1  0  0  0
 55130  1  0  0  0
 56 69  2  0  0  0
 57 58  2  0  0  0
 57131  1  0  0  0
 58132  1  0  0  0
 59 60  1  0  0  0
 59 61  1  0  0  0
 59 62  1  0  0  0
 60133  1  0  0  0
 60134  1  0  0  0
 60135  1  0  0  0
 61136  1  0  0  0
 61137  1  0  0  0
 61138  1  0  0  0
 62139  1  0  0  0
 62140  1  0  0  0
 62141  1  0  0  0
 63 65  1  0  0  0
 63142  1  0  0  0
 63143  1  0  0  0
 63144  1  0  0  0
 64145  1  0  0  0
 65146  1  0  0  0
 68 83  1  0  0  0
 71 72  2  0  0  0
 71 73  1  0  0  0
 71147  1  0  0  0
 72 74  1  0  0  0
 72148  1  0  0  0
 73 76  2  0  0  0
 73149  1  0  0  0
 74 75  2  0  0  0
 74 78  1  0  0  0
 75 76  1  0  0  0
 75 79  1  0  0  0
 76 84  1  0  0  0
 77 81  1  0  0  0
 77 85  1  0  0  0
 77 87  2  0  0  0
 78 80  1  0  0  0
 78150  1  0  0  0
 78151  1  0  0  0
 79 86  1  0  0  0
 79152  1  0  0  0
 79153  1  0  0  0
 80 86  1  0  0  0
 80154  1  0  0  0
 80155  1  0  0  0
 81156  1  0  0  0
 81157  1  0  0  0
 81 86  1  0  0  0
 82 83  1  0  0  0
 82 85  1  0  0  0
 82158  1  0  0  0
 82159  1  0  0  0
 83160  1  0  0  0
 83161  1  0  0  0
 84162  1  0  0  0
 85163  1  0  0  0
 86164  1  0  0  0
M  CHG  1  86   1
M  ISO  4   1 100  68 101  83 101  84 100
M  END
> <chiral flag>
0

> <version>
0

> <s_m_source_file>
/data/baiqing/PycharmProjects/Reinvent-master-3.2/result/LINK_invent/BTK/process_docking_weight1_custom_product_contain_oxygen_bond_distance_aromatic_linkinvent_7_9_3/rearranged_h_0005.sdf

> <i_m_source_file_index>
16

> <r_mmod_Potential_Energy-OPLS-2005>
-293.570648193359

> <r_mmod_Stretch_Energy-OPLS-2005>
44.4722557067871

> <r_mmod_Bend_Energy-OPLS-2005>
105.891525268555

> <r_mmod_Torsional_Energy-OPLS-2005>
266.200164794922

> <r_mmod_Improper_Torsional_Energy-OPLS-2005>
7.40296268463135

> <r_mmod_Van_der_Waal_Energy-OPLS-2005>
169.634338378906

> <r_mmod_Electrostatic_Energy-OPLS-2005>
-426.742431640625

> <r_mmod_Solvation_Energy-OPLS-2005>
-488.119689941406

> <b_mmod_Minimization_Converged-OPLS-2005>
0

> <r_mmod_RMS_Derivative-OPLS-2005>
2.03790497779846

$$$$
16
                    3D
 Structure written by MMmdl.
174184  0  0  1  0            999 V2000
  -30.6988  -14.3984   20.6319 C   0  0  0  0  0  0
  -30.4294  -12.2877   19.3856 C   0  0  0  0  0  0
  -29.4857  -12.5364   18.1894 C   0  0  0  0  0  0
  -28.0062  -12.4039   18.6074 C   0  0  0  0  0  0
  -27.6725  -13.1995   19.8953 C   0  0  2  0  0  0
  -28.7159  -12.8924   20.9935 C   0  0  0  0  0  0
  -25.2620  -13.8137   20.5720 C   0  0  0  0  0  0
  -24.1849  -13.0433   20.9159 C   0  0  0  0  0  0
  -24.6389  -11.6882   20.8735 C   0  0  0  0  0  0
  -23.9049  -10.4272   21.0410 C   0  0  0  0  0  0
  -24.3601   -9.4191   21.9184 C   0  0  0  0  0  0
  -23.6280   -8.2227   22.0760 C   0  0  0  0  0  0
  -22.4272   -8.0250   21.3536 C   0  0  0  0  0  0
  -21.9892   -9.0226   20.4657 C   0  0  0  0  0  0
  -22.7217  -10.2107   20.3069 C   0  0  0  0  0  0
  -21.6836   -6.0730   22.5279 C   0  0  0  0  0  0
  -21.4005   -6.5648   23.8209 C   0  0  0  0  0  0
  -21.3663   -5.6803   24.9177 C   0  0  0  0  0  0
  -21.6054   -4.3067   24.7246 C   0  0  0  0  0  0
  -21.8804   -3.8144   23.4377 C   0  0  0  0  0  0
  -21.9178   -4.6951   22.3424 C   0  0  0  0  0  0
  -22.7861  -13.5214   21.1828 C   0  0  0  0  0  0
  -22.1644   -4.2131   21.1004 F   0  0  0  0  0  0
  -21.5648   -3.4559   25.7777 F   0  0  0  0  0  0
  -30.0563  -13.2124   20.4654 N   0  0  0  0  0  0
  -26.3073  -12.9307   20.3464 N   0  0  0  0  0  0
  -25.9320  -11.6466   20.5800 N   0  0  0  0  0  0
  -22.0500  -12.8217   22.0396 N   0  0  0  0  0  0
  -25.4367  -15.1874   20.4199 N   0  0  0  0  0  0
  -31.7457  -14.7014   20.0469 O   0  0  0  0  0  0
  -21.6635   -6.8852   21.4235 O   0  0  0  0  0  0
  -22.3530  -14.5509   20.6671 O   0  0  0  0  0  0
  -24.6107  -31.8686   23.2105 C   0  0  0  0  0  0
  -25.9024  -32.4818   23.8378 C   0  0  1  0  0  0
  -27.2390  -27.4616   20.0953 C   0  0  0  0  0  0
  -25.5896  -33.8616   24.2304 N   0  0  0  0  0  0
  -23.3949  -30.4946   21.5483 C   0  0  2  0  0  0
  -24.8416  -28.9608   20.1178 C   0  0  0  0  0  0
  -22.7370  -29.4673   22.4974 C   0  0  0  0  0  0
  -18.0265  -28.1383   22.8481 C   0  0  0  0  0  0
  -24.1499  -36.7327   23.2638 C   0  0  0  0  0  0
  -25.9200  -30.8481   21.3545 C   0  0  0  0  0  0
  -26.0001  -29.4843   20.7044 C   0  0  0  0  0  0
  -27.2001  -28.7436   20.6859 C   0  0  0  0  0  0
  -26.0547  -26.9373   19.5279 C   0  0  0  0  0  0
  -24.8626  -27.6858   19.5305 C   0  0  0  0  0  0
  -23.6019  -29.8237   20.1637 C   0  0  0  0  0  0
  -25.4118  -36.3098   24.0321 C   0  0  1  0  0  0
  -20.5849  -28.3661   23.1324 C   0  0  2  0  0  0
  -20.6757  -26.9403   22.5420 C   0  0  0  0  0  0
  -19.5743  -26.6393   21.5208 C   0  0  0  0  0  0
  -18.1920  -26.7927   22.1617 C   0  0  0  0  0  0
  -19.1513  -28.8834   23.2902 C   0  0  0  0  0  0
  -18.9448  -30.1445   23.8907 C   0  0  0  0  0  0
  -17.6450  -30.6586   24.0571 C   0  0  0  0  0  0
  -25.9038  -34.9470   23.5104 C   0  0  0  0  0  0
  -16.5340  -29.9093   23.6329 C   0  0  0  0  0  0
  -16.7253  -28.6518   23.0330 C   0  0  0  0  0  0
  -26.4478  -31.6585   25.0693 C   0  0  0  0  0  0
  -25.3758  -31.3690   26.1449 C   0  0  0  0  0  0
  -27.0306  -30.3026   24.6059 C   0  0  0  0  0  0
  -27.6045  -32.4302   25.7464 C   0  0  0  0  0  0
  -27.5576  -37.1818   24.8457 C   0  0  0  0  0  0
  -21.4100  -29.3039   22.3725 N   0  0  0  0  0  0
  -26.4297  -37.3779   23.9393 N   0  0  0  0  0  0
  -24.6601  -31.0841   22.0972 N   0  0  0  0  0  0
  -23.4164  -28.8228   23.3010 O   0  0  0  0  0  0
  -28.4449  -26.7974   20.0864 O   0  0  0  0  0  0
  -26.5600  -34.8913   22.4667 O   0  0  0  0  0  0
  -23.5314  -32.1428   23.7529 O   0  0  0  0  0  0
  -28.3805  -18.5409   21.8351 C   0  0  0  0  0  0
  -29.1098  -17.3747   22.1321 C   0  0  0  0  0  0
  -29.1937  -16.8382   19.7645 C   0  0  0  0  0  0
  -28.4591  -18.0077   19.4531 C   0  0  0  0  0  0
  -28.0104  -18.8488   20.5074 C   0  0  0  0  0  0
  -29.5018  -16.4992   21.1010 C   0  0  0  0  0  0
  -28.1336  -18.2503   18.0034 C   0  0  0  0  0  0
  -30.6171  -19.0154   16.0940 C   0  0  0  0  0  0
  -30.9738  -19.7120   17.4295 C   0  0  0  0  0  0
  -28.9619  -20.8482   15.6611 C   0  0  0  0  0  0
  -29.1121  -19.3489   15.9754 C   0  0  2  0  0  0
  -29.6213  -20.3393   17.8262 C   0  0  2  0  0  0
  -27.0705  -20.0250   20.2711 C   0  0  0  0  0  0
  -29.0332  -23.3517   18.5970 C   0  0  0  0  0  0
  -28.5806  -24.8240   18.6269 C   0  0  0  0  0  0
  -28.4914  -22.5748   17.3807 C   0  0  0  0  0  0
  -28.4626  -25.3744   20.0570 C   0  0  0  0  0  0
  -28.7332  -19.2856   17.3766 N   0  0  0  0  0  0
  -30.0875  -15.2540   21.4640 N   0  0  0  0  0  0
  -29.4002  -21.4974   16.9204 N   0  3  2  0  0  0
  -27.4537  -17.4211   17.3948 O   0  0  0  0  0  0
  -31.4701  -12.4060   19.0753 H   0  0  0  0  0  0
  -30.3342  -11.2552   19.7285 H   0  0  0  0  0  0
  -29.7092  -11.8393   17.3809 H   0  0  0  0  0  0
  -29.6622  -13.5322   17.7798 H   0  0  0  0  0  0
  -27.7951  -11.3480   18.7669 H   0  0  0  0  0  0
  -27.3518  -12.7226   17.7956 H   0  0  0  0  0  0
  -27.7374  -14.2599   19.6538 H   0  0  0  0  0  0
  -28.4766  -13.4176   21.9163 H   0  0  0  0  0  0
  -28.6803  -11.8324   21.2543 H   0  0  0  0  0  0
  -25.2751   -9.5679   22.4751 H   0  0  0  0  0  0
  -23.9999   -7.4635   22.7488 H   0  0  0  0  0  0
  -21.0816   -8.8740   19.8978 H   0  0  0  0  0  0
  -22.3664  -10.9646   19.6187 H   0  0  0  0  0  0
  -21.1976   -7.6148   23.9711 H   0  0  0  0  0  0
  -21.1515   -6.0543   25.9081 H   0  0  0  0  0  0
  -22.0574   -2.7604   23.2888 H   0  0  0  0  0  0
  -22.4128  -11.9896   22.4802 H   0  0  0  0  0  0
  -21.1123  -13.1240   22.2636 H   0  0  0  0  0  0
  -24.6788  -15.8484   20.5519 H   0  0  0  0  0  0
  -26.3100  -15.6302   20.1621 H   0  0  0  0  0  0
  -26.7095  -32.5538   23.1144 H   0  0  0  0  0  0
  -25.0027  -33.9773   25.0433 H   0  0  0  0  0  0
  -22.6827  -31.3094   21.4080 H   0  0  0  0  0  0
  -23.3727  -35.9694   23.3321 H   0  0  0  0  0  0
  -24.3591  -36.8927   22.2049 H   0  0  0  0  0  0
  -23.7294  -37.6555   23.6650 H   0  0  0  0  0  0
  -26.0232  -31.6176   20.5874 H   0  0  0  0  0  0
  -26.8108  -30.9038   21.9683 H   0  0  0  0  0  0
  -28.0954  -29.1514   21.1358 H   0  0  0  0  0  0
  -26.0283  -25.9582   19.0787 H   0  0  0  0  0  0
  -23.9688  -27.2693   19.0879 H   0  0  0  0  0  0
  -23.7043  -30.5946   19.3992 H   0  0  0  0  0  0
  -22.7285  -29.2372   19.8712 H   0  0  0  0  0  0
  -25.1303  -36.1955   25.0813 H   0  0  0  0  0  0
  -20.9944  -28.3237   24.1442 H   0  0  0  0  0  0
  -20.5673  -26.2265   23.3606 H   0  0  0  0  0  0
  -21.6632  -26.7458   22.1216 H   0  0  0  0  0  0
  -19.6918  -25.6313   21.1223 H   0  0  0  0  0  0
  -19.6697  -27.3214   20.6753 H   0  0  0  0  0  0
  -17.4197  -26.6660   21.4021 H   0  0  0  0  0  0
  -18.0332  -26.0073   22.9021 H   0  0  0  0  0  0
  -19.7928  -30.7259   24.2273 H   0  0  0  0  0  0
  -17.5013  -31.6266   24.5180 H   0  0  0  0  0  0
  -15.5346  -30.3004   23.7655 H   0  0  0  0  0  0
  -15.8649  -28.0859   22.7014 H   0  0  0  0  0  0
  -24.5910  -30.7065   25.7785 H   0  0  0  0  0  0
  -24.8989  -32.2857   26.4926 H   0  0  0  0  0  0
  -25.8126  -30.8828   27.0180 H   0  0  0  0  0  0
  -26.2843  -29.6772   24.1151 H   0  0  0  0  0  0
  -27.4116  -29.7273   25.4509 H   0  0  0  0  0  0
  -27.8651  -30.4332   23.9162 H   0  0  0  0  0  0
  -27.2641  -33.3562   26.2104 H   0  0  0  0  0  0
  -28.3832  -32.6925   25.0291 H   0  0  0  0  0  0
  -28.0743  -31.8392   26.5336 H   0  0  0  0  0  0
  -28.2598  -38.0106   24.7472 H   0  0  0  0  0  0
  -28.1059  -36.2634   24.6316 H   0  0  0  0  0  0
  -27.2283  -37.1504   25.8855 H   0  0  0  0  0  0
  -20.9251  -29.8752   21.6948 H   0  0  0  0  0  0
  -26.0178  -38.2853   24.1388 H   0  0  0  0  0  0
  -28.0639  -19.1776   22.6493 H   0  0  0  0  0  0
  -29.3314  -17.1454   23.1650 H   0  0  0  0  0  0
  -29.4837  -16.1810   18.9550 H   0  0  0  0  0  0
  -30.7822  -17.9406   16.1613 H   0  0  0  0  0  0
  -31.2005  -19.3955   15.2521 H   0  0  0  0  0  0
  -31.3029  -18.9856   18.1765 H   0  0  0  0  0  0
  -31.7617  -20.4584   17.3240 H   0  0  0  0  0  0
  -27.9202  -21.0759   15.4294 H   0  0  0  0  0  0
  -29.5672  -21.1635   14.8086 H   0  0  0  0  0  0
  -28.5558  -18.6944   15.2998 H   0  0  0  0  0  0
  -29.5819  -20.5887   18.8868 H   0  0  0  0  0  0
  -26.8136  -20.5133   21.2128 H   0  0  0  0  0  0
  -26.1363  -19.6863   19.8189 H   0  0  0  0  0  0
  -27.5093  -20.7819   19.6311 H   0  0  0  0  0  0
  -28.7156  -22.8412   19.5050 H   0  0  0  0  0  0
  -30.1243  -23.3396   18.6126 H   0  0  0  0  0  0
  -27.6335  -24.9366   18.1050 H   0  0  0  0  0  0
  -29.2976  -25.4235   18.0634 H   0  0  0  0  0  0
  -28.3571  -23.2667   16.5476 H   0  0  0  0  0  0
  -27.5018  -22.1686   17.6000 H   0  0  0  0  0  0
  -29.3419  -25.0701   20.6269 H   0  0  0  0  0  0
  -27.6076  -24.9446   20.5805 H   0  0  0  0  0  0
  -29.5995  -14.7925   22.2167 H   0  0  0  0  0  0
  -30.2979  -21.9216   16.7495 H   0  0  0  0  0  0
  1 25  1  0  0  0
  1 30  2  0  0  0
  1 89  1  0  0  0
  2  3  1  0  0  0
  2 25  1  0  0  0
  2 92  1  0  0  0
  2 93  1  0  0  0
  3  4  1  0  0  0
  3 94  1  0  0  0
  3 95  1  0  0  0
  4  5  1  0  0  0
  4 96  1  0  0  0
  4 97  1  0  0  0
  5  6  1  0  0  0
  5 26  1  0  0  0
  5 98  1  0  0  0
  6 25  1  0  0  0
  6 99  1  0  0  0
  6100  1  0  0  0
  7  8  2  0  0  0
  7 26  1  0  0  0
  7 29  1  0  0  0
  8  9  1  0  0  0
  8 22  1  0  0  0
  9 10  1  0  0  0
  9 27  2  0  0  0
 10 11  2  0  0  0
 10 15  1  0  0  0
 11 12  1  0  0  0
 11101  1  0  0  0
 12 13  2  0  0  0
 12102  1  0  0  0
 13 14  1  0  0  0
 13 31  1  0  0  0
 14 15  2  0  0  0
 14103  1  0  0  0
 15104  1  0  0  0
 16 17  2  0  0  0
 16 21  1  0  0  0
 16 31  1  0  0  0
 17 18  1  0  0  0
 17105  1  0  0  0
 18 19  2  0  0  0
 18106  1  0  0  0
 19 20  1  0  0  0
 19 24  1  0  0  0
 20 21  2  0  0  0
 20107  1  0  0  0
 21 23  1  0  0  0
 22 28  1  0  0  0
 22 32  2  0  0  0
 26 27  1  0  0  0
 28108  1  0  0  0
 28109  1  0  0  0
 29110  1  0  0  0
 29111  1  0  0  0
 33 34  1  0  0  0
 33 66  1  0  0  0
 33 70  2  0  0  0
 34 36  1  0  0  0
 34 59  1  0  0  0
 34112  1  0  0  0
 35 44  2  0  0  0
 35 45  1  0  0  0
 35 68  1  0  0  0
 36 56  1  0  0  0
 36113  1  0  0  0
 37 39  1  0  0  0
 37 47  1  0  0  0
 37 66  1  0  0  0
 37114  1  0  0  0
 38 43  2  0  0  0
 38 46  1  0  0  0
 38 47  1  0  0  0
 39 64  1  0  0  0
 39 67  2  0  0  0
 40 52  1  0  0  0
 40 53  2  0  0  0
 40 58  1  0  0  0
 41115  1  0  0  0
 41116  1  0  0  0
 41117  1  0  0  0
 41 48  1  0  0  0
 42 43  1  0  0  0
 42 66  1  0  0  0
 42118  1  0  0  0
 42119  1  0  0  0
 43 44  1  0  0  0
 44120  1  0  0  0
 45 46  2  0  0  0
 45121  1  0  0  0
 46122  1  0  0  0
 47123  1  0  0  0
 47124  1  0  0  0
 48 56  1  0  0  0
 48 65  1  0  0  0
 48125  1  0  0  0
 49 50  1  0  0  0
 49 53  1  0  0  0
 49 64  1  0  0  0
 49126  1  0  0  0
 50 51  1  0  0  0
 50127  1  0  0  0
 50128  1  0  0  0
 51 52  1  0  0  0
 51129  1  0  0  0
 51130  1  0  0  0
 52131  1  0  0  0
 52132  1  0  0  0
 53 54  1  0  0  0
 54 55  2  0  0  0
 54133  1  0  0  0
 55 57  1  0  0  0
 55134  1  0  0  0
 56 69  2  0  0  0
 57 58  2  0  0  0
 57135  1  0  0  0
 58136  1  0  0  0
 59 60  1  0  0  0
 59 61  1  0  0  0
 59 62  1  0  0  0
 60137  1  0  0  0
 60138  1  0  0  0
 60139  1  0  0  0
 61140  1  0  0  0
 61141  1  0  0  0
 61142  1  0  0  0
 62143  1  0  0  0
 62144  1  0  0  0
 62145  1  0  0  0
 63 65  1  0  0  0
 63146  1  0  0  0
 63147  1  0  0  0
 63148  1  0  0  0
 64149  1  0  0  0
 65150  1  0  0  0
 68 87  1  0  0  0
 71 72  2  0  0  0
 71 75  1  0  0  0
 71151  1  0  0  0
 72 76  1  0  0  0
 72152  1  0  0  0
 73 74  1  0  0  0
 73 76  2  0  0  0
 73153  1  0  0  0
 74 75  2  0  0  0
 74 77  1  0  0  0
 75 83  1  0  0  0
 76 89  1  0  0  0
 77 88  1  0  0  0
 77 91  2  0  0  0
 78 79  1  0  0  0
 78154  1  0  0  0
 78155  1  0  0  0
 78 81  1  0  0  0
 79156  1  0  0  0
 79157  1  0  0  0
 79 82  1  0  0  0
 80 81  1  0  0  0
 80 90  1  0  0  0
 80158  1  0  0  0
 80159  1  0  0  0
 81 88  1  0  0  0
 81160  1  0  0  0
 82 88  1  0  0  0
 82 90  1  0  0  0
 82161  1  0  0  0
 83162  1  0  0  0
 83163  1  0  0  0
 83164  1  0  0  0
 84 85  1  0  0  0
 84 86  1  0  0  0
 84165  1  0  0  0
 84166  1  0  0  0
 85 87  1  0  0  0
 85167  1  0  0  0
 85168  1  0  0  0
 86169  1  0  0  0
 86170  1  0  0  0
 86 90  1  0  0  0
 87171  1  0  0  0
 87172  1  0  0  0
 89173  1  0  0  0
 90174  1  0  0  0
M  CHG  1  90   1
M  ISO  4   1 100  68 101  87 101  89 100
M  END
> <chiral flag>
0

> <version>
0

> <s_m_source_file>
/data/baiqing/PycharmProjects/Reinvent-master-3.2/result/LINK_invent/BTK/process_docking_weight1_custom_product_contain_oxygen_bond_distance_aromatic_linkinvent_7_9_3/rearranged_h_0005.sdf

> <i_m_source_file_index>
17

> <r_mmod_Potential_Energy-OPLS-2005>
131.443161010742

> <r_mmod_Stretch_Energy-OPLS-2005>
35.8939399719238

> <r_mmod_Bend_Energy-OPLS-2005>
229.264755249023

> <r_mmod_Torsional_Energy-OPLS-2005>
448.528228759766

> <r_mmod_Improper_Torsional_Energy-OPLS-2005>
8.939866065979

> <r_mmod_Van_der_Waal_Energy-OPLS-2005>
144.666305541992

> <r_mmod_Electrostatic_Energy-OPLS-2005>
-275.185150146484

> <r_mmod_Solvation_Energy-OPLS-2005>
-469.563415527344

> <b_mmod_Minimization_Converged-OPLS-2005>
0

> <r_mmod_RMS_Derivative-OPLS-2005>
3.57553339004517

$$$$
17
                    3D
 Structure written by MMmdl.
172181  0  0  1  0            999 V2000
  -30.7718  -14.4106   20.5753 C   0  0  0  0  0  0
  -30.4027  -12.2706   19.4269 C   0  0  0  0  0  0
  -29.4874  -12.4909   18.2074 C   0  0  0  0  0  0
  -28.0108  -12.3525   18.6208 C   0  0  0  0  0  0
  -27.6593  -13.1992   19.8717 C   0  0  2  0  0  0
  -28.7030  -13.0084   21.0001 C   0  0  0  0  0  0
  -25.2581  -13.8137   20.5679 C   0  0  0  0  0  0
  -24.1828  -13.0419   20.9194 C   0  0  0  0  0  0
  -24.6373  -11.6890   20.8744 C   0  0  0  0  0  0
  -23.9037  -10.4281   21.0406 C   0  0  0  0  0  0
  -24.3599   -9.4200   21.9184 C   0  0  0  0  0  0
  -23.6272   -8.2233   22.0757 C   0  0  0  0  0  0
  -22.4260   -8.0270   21.3542 C   0  0  0  0  0  0
  -21.9889   -9.0246   20.4649 C   0  0  0  0  0  0
  -22.7213  -10.2122   20.3057 C   0  0  0  0  0  0
  -21.6855   -6.0722   22.5279 C   0  0  0  0  0  0
  -21.4011   -6.5631   23.8211 C   0  0  0  0  0  0
  -21.3651   -5.6787   24.9171 C   0  0  0  0  0  0
  -21.6055   -4.3049   24.7227 C   0  0  0  0  0  0
  -21.8816   -3.8137   23.4347 C   0  0  0  0  0  0
  -21.9189   -4.6953   22.3403 C   0  0  0  0  0  0
  -22.7856  -13.5233   21.1841 C   0  0  0  0  0  0
  -22.1663   -4.2135   21.0981 F   0  0  0  0  0  0
  -21.5627   -3.4537   25.7738 F   0  0  0  0  0  0
  -30.0407  -13.2703   20.4460 N   0  0  0  0  0  0
  -26.3004  -12.9293   20.3354 N   0  0  0  0  0  0
  -25.9301  -11.6461   20.5782 N   0  0  0  0  0  0
  -22.0486  -12.8238   22.0403 N   0  0  0  0  0  0
  -25.4266  -15.1848   20.4045 N   0  0  0  0  0  0
  -31.8824  -14.5383   20.0546 O   0  0  0  0  0  0
  -21.6634   -6.8860   21.4234 O   0  0  0  0  0  0
  -22.3561  -14.5545   20.6693 O   0  0  0  0  0  0
  -24.6080  -31.8718   23.2157 C   0  0  0  0  0  0
  -25.8999  -32.4847   23.8431 C   0  0  1  0  0  0
  -27.2457  -27.4912   20.0799 C   0  0  0  0  0  0
  -25.5865  -33.8652   24.2351 N   0  0  0  0  0  0
  -23.3943  -30.4941   21.5540 C   0  0  2  0  0  0
  -24.8441  -28.9637   20.1189 C   0  0  0  0  0  0
  -22.7368  -29.4667   22.5024 C   0  0  0  0  0  0
  -18.0255  -28.1385   22.8491 C   0  0  0  0  0  0
  -24.1493  -36.7348   23.2636 C   0  0  0  0  0  0
  -25.9174  -30.8536   21.3605 C   0  0  0  0  0  0
  -25.9987  -29.4908   20.7105 C   0  0  0  0  0  0
  -27.2029  -28.7615   20.6932 C   0  0  0  0  0  0
  -26.0715  -26.9531   19.5154 C   0  0  0  0  0  0
  -24.8721  -27.6892   19.5234 C   0  0  0  0  0  0
  -23.6007  -29.8201   20.1702 C   0  0  0  0  0  0
  -25.4112  -36.3150   24.0330 C   0  0  1  0  0  0
  -20.5838  -28.3657   23.1338 C   0  0  2  0  0  0
  -20.6750  -26.9400   22.5428 C   0  0  0  0  0  0
  -19.5727  -26.6392   21.5228 C   0  0  0  0  0  0
  -18.1904  -26.7929   22.1631 C   0  0  0  0  0  0
  -19.1499  -28.8838   23.2916 C   0  0  0  0  0  0
  -18.9419  -30.1442   23.8937 C   0  0  0  0  0  0
  -17.6424  -30.6593   24.0560 C   0  0  0  0  0  0
  -25.9024  -34.9500   23.5140 C   0  0  0  0  0  0
  -16.5318  -29.9086   23.6334 C   0  0  0  0  0  0
  -16.7248  -28.6502   23.0363 C   0  0  0  0  0  0
  -26.4463  -31.6610   25.0734 C   0  0  0  0  0  0
  -25.3756  -31.3694   26.1495 C   0  0  0  0  0  0
  -27.0262  -30.3054   24.6098 C   0  0  0  0  0  0
  -27.6073  -32.4310   25.7459 C   0  0  0  0  0  0
  -27.5589  -37.1826   24.8460 C   0  0  0  0  0  0
  -21.4104  -29.3024   22.3754 N   0  0  0  0  0  0
  -26.4321  -37.3803   23.9382 N   0  0  0  0  0  0
  -24.6583  -31.0854   22.1031 N   0  0  0  0  0  0
  -23.4154  -28.8224   23.3066 O   0  0  0  0  0  0
  -28.3991  -26.7499   20.0253 O   0  0  0  0  0  0
  -26.5598  -34.8916   22.4711 O   0  0  0  0  0  0
  -23.5287  -32.1461   23.7578 O   0  0  0  0  0  0
  -31.7774  -22.1433   17.3856 C   0  0  0  0  0  0
  -32.6558  -21.1576   17.8692 C   0  0  0  0  0  0
  -30.2173  -21.6284   19.1892 C   0  0  0  0  0  0
  -30.5497  -22.3773   18.0369 C   0  0  0  0  0  0
  -31.0861  -20.6212   19.6712 C   0  0  0  0  0  0
  -32.3168  -20.3934   19.0023 C   0  0  0  0  0  0
  -29.1486  -16.2424   20.6177 C   0  0  0  0  0  0
  -29.7300  -17.4703   21.2982 C   0  0  1  0  0  0
  -31.0209  -16.6861   21.4633 C   0  0  1  0  0  0
  -31.7385  -16.6433   22.8100 C   0  0  0  0  0  0
  -29.5835  -23.4103   17.4759 C   0  0  0  0  0  0
  -30.6631  -19.7724   20.8704 C   0  0  0  0  0  0
  -29.4200  -27.2410   17.8717 C   0  0  0  0  0  0
  -29.0582  -25.8236   17.3780 C   0  0  0  0  0  0
  -29.5167  -27.3765   19.4024 C   0  0  0  0  0  0
  -30.2219  -15.4528   21.2441 N   0  0  0  0  0  0
  -29.7899  -18.6677   20.4240 N   0  3  0  0  0  0
  -29.9489  -24.7701   17.9097 N   0  3  0  0  0  0
  -33.4143  -19.1607   19.5185 Cl  0  0  0  0  0  0
  -31.4505  -12.3223   19.1261 H   0  0  0  0  0  0
  -30.2659  -11.2647   19.8273 H   0  0  0  0  0  0
  -29.7240  -11.7682   17.4246 H   0  0  0  0  0  0
  -29.6653  -13.4784   17.7776 H   0  0  0  0  0  0
  -27.8240  -11.2975   18.8233 H   0  0  0  0  0  0
  -27.3588  -12.6198   17.7885 H   0  0  0  0  0  0
  -27.6895  -14.2363   19.5461 H   0  0  0  0  0  0
  -28.6632  -11.9893   21.3858 H   0  0  0  0  0  0
  -28.4760  -13.6527   21.8499 H   0  0  0  0  0  0
  -25.2744   -9.5684   22.4757 H   0  0  0  0  0  0
  -23.9992   -7.4629   22.7480 H   0  0  0  0  0  0
  -21.0821   -8.8747   19.8965 H   0  0  0  0  0  0
  -22.3660  -10.9655   19.6169 H   0  0  0  0  0  0
  -21.1999   -7.6144   23.9706 H   0  0  0  0  0  0
  -21.1485   -6.0521   25.9074 H   0  0  0  0  0  0
  -22.0599   -2.7600   23.2852 H   0  0  0  0  0  0
  -22.4086  -11.9892   22.4792 H   0  0  0  0  0  0
  -21.1110  -13.1285   22.2596 H   0  0  0  0  0  0
  -24.6531  -15.8330   20.5055 H   0  0  0  0  0  0
  -26.2620  -15.6192   20.0372 H   0  0  0  0  0  0
  -26.7062  -32.5586   23.1201 H   0  0  0  0  0  0
  -24.9950  -33.9832   25.0455 H   0  0  0  0  0  0
  -22.6806  -31.3090   21.4160 H   0  0  0  0  0  0
  -23.3737  -35.9708   23.3375 H   0  0  0  0  0  0
  -24.3576  -36.8909   22.2041 H   0  0  0  0  0  0
  -23.7275  -37.6584   23.6607 H   0  0  0  0  0  0
  -26.0205  -31.6221   20.5934 H   0  0  0  0  0  0
  -26.8067  -30.9083   21.9769 H   0  0  0  0  0  0
  -28.0904  -29.1729   21.1540 H   0  0  0  0  0  0
  -26.0877  -25.9746   19.0563 H   0  0  0  0  0  0
  -23.9806  -27.2752   19.0738 H   0  0  0  0  0  0
  -23.6924  -30.5906   19.4028 H   0  0  0  0  0  0
  -22.7309  -29.2262   19.8855 H   0  0  0  0  0  0
  -25.1301  -36.2037   25.0825 H   0  0  0  0  0  0
  -20.9918  -28.3223   24.1466 H   0  0  0  0  0  0
  -20.5668  -26.2270   23.3612 H   0  0  0  0  0  0
  -21.6611  -26.7471   22.1204 H   0  0  0  0  0  0
  -19.6884  -25.6310   21.1249 H   0  0  0  0  0  0
  -19.6671  -27.3212   20.6762 H   0  0  0  0  0  0
  -17.4180  -26.6698   21.4029 H   0  0  0  0  0  0
  -18.0290  -26.0063   22.9017 H   0  0  0  0  0  0
  -19.7890  -30.7237   24.2342 H   0  0  0  0  0  0
  -17.4976  -31.6275   24.5142 H   0  0  0  0  0  0
  -15.5317  -30.2992   23.7643 H   0  0  0  0  0  0
  -15.8646  -28.0822   22.7082 H   0  0  0  0  0  0
  -24.5864  -30.7146   25.7795 H   0  0  0  0  0  0
  -24.9024  -32.2838   26.5066 H   0  0  0  0  0  0
  -25.8094  -30.8725   27.0175 H   0  0  0  0  0  0
  -26.2772  -29.6825   24.1193 H   0  0  0  0  0  0
  -27.4063  -29.7295   25.4543 H   0  0  0  0  0  0
  -27.8606  -30.4389   23.9213 H   0  0  0  0  0  0
  -27.2733  -33.3580   26.2134 H   0  0  0  0  0  0
  -28.3798  -32.6927   25.0214 H   0  0  0  0  0  0
  -28.0837  -31.8374   26.5283 H   0  0  0  0  0  0
  -28.2639  -38.0091   24.7445 H   0  0  0  0  0  0
  -28.1049  -36.2615   24.6364 H   0  0  0  0  0  0
  -27.2287  -37.1562   25.8859 H   0  0  0  0  0  0
  -20.9277  -29.8729   21.6951 H   0  0  0  0  0  0
  -26.0242  -38.2901   24.1345 H   0  0  0  0  0  0
  -32.0472  -22.7073   16.5030 H   0  0  0  0  0  0
  -33.5887  -20.9750   17.3554 H   0  0  0  0  0  0
  -29.2755  -21.8084   19.6917 H   0  0  0  0  0  0
  -29.1838  -16.2600   19.5254 H   0  0  0  0  0  0
  -28.1475  -16.0089   20.9797 H   0  0  0  0  0  0
  -29.2474  -17.6765   22.2558 H   0  0  0  0  0  0
  -31.7126  -16.9041   20.6443 H   0  0  0  0  0  0
  -31.0441  -16.4940   23.6378 H   0  0  0  0  0  0
  -32.2719  -17.5750   22.9996 H   0  0  0  0  0  0
  -32.4745  -15.8392   22.8457 H   0  0  0  0  0  0
  -28.5665  -23.1754   17.7946 H   0  0  0  0  0  0
  -29.5881  -23.3537   16.3854 H   0  0  0  0  0  0
  -30.1357  -20.3843   21.6038 H   0  0  0  0  0  0
  -31.5429  -19.3897   21.3858 H   0  0  0  0  0  0
  -28.6657  -27.9357   17.4985 H   0  0  0  0  0  0
  -30.3616  -27.5618   17.4240 H   0  0  0  0  0  0
  -29.0956  -25.8085   16.2881 H   0  0  0  0  0  0
  -28.0292  -25.5896   17.6527 H   0  0  0  0  0  0
  -30.4204  -26.8804   19.7574 H   0  0  0  0  0  0
  -29.6320  -28.4240   19.6831 H   0  0  0  0  0  0
  -28.8606  -19.0322   20.2901 H   0  0  0  0  0  0
  -30.1221  -18.3795   19.5193 H   0  0  0  0  0  0
  -30.8951  -24.9480   17.6169 H   0  0  0  0  0  0
  -29.9183  -24.7863   18.9156 H   0  0  0  0  0  0
  1 25  1  0  0  0
  1 30  2  0  0  0
  1 86  1  0  0  0
  2  3  1  0  0  0
  2 25  1  0  0  0
  2 90  1  0  0  0
  2 91  1  0  0  0
  3  4  1  0  0  0
  3 92  1  0  0  0
  3 93  1  0  0  0
  4  5  1  0  0  0
  4 94  1  0  0  0
  4 95  1  0  0  0
  5  6  1  0  0  0
  5 26  1  0  0  0
  5 96  1  0  0  0
  6 25  1  0  0  0
  6 97  1  0  0  0
  6 98  1  0  0  0
  7  8  2  0  0  0
  7 26  1  0  0  0
  7 29  1  0  0  0
  8  9  1  0  0  0
  8 22  1  0  0  0
  9 10  1  0  0  0
  9 27  2  0  0  0
 10 11  2  0  0  0
 10 15  1  0  0  0
 11 12  1  0  0  0
 11 99  1  0  0  0
 12 13  2  0  0  0
 12100  1  0  0  0
 13 14  1  0  0  0
 13 31  1  0  0  0
 14 15  2  0  0  0
 14101  1  0  0  0
 15102  1  0  0  0
 16 17  2  0  0  0
 16 21  1  0  0  0
 16 31  1  0  0  0
 17 18  1  0  0  0
 17103  1  0  0  0
 18 19  2  0  0  0
 18104  1  0  0  0
 19 20  1  0  0  0
 19 24  1  0  0  0
 20 21  2  0  0  0
 20105  1  0  0  0
 21 23  1  0  0  0
 22 28  1  0  0  0
 22 32  2  0  0  0
 26 27  1  0  0  0
 28106  1  0  0  0
 28107  1  0  0  0
 29108  1  0  0  0
 29109  1  0  0  0
 33 34  1  0  0  0
 33 66  1  0  0  0
 33 70  2  0  0  0
 34 36  1  0  0  0
 34 59  1  0  0  0
 34110  1  0  0  0
 35 44  2  0  0  0
 35 45  1  0  0  0
 35 68  1  0  0  0
 36 56  1  0  0  0
 36111  1  0  0  0
 37 39  1  0  0  0
 37 47  1  0  0  0
 37 66  1  0  0  0
 37112  1  0  0  0
 38 43  2  0  0  0
 38 46  1  0  0  0
 38 47  1  0  0  0
 39 64  1  0  0  0
 39 67  2  0  0  0
 40 52  1  0  0  0
 40 53  2  0  0  0
 40 58  1  0  0  0
 41113  1  0  0  0
 41114  1  0  0  0
 41115  1  0  0  0
 41 48  1  0  0  0
 42 43  1  0  0  0
 42 66  1  0  0  0
 42116  1  0  0  0
 42117  1  0  0  0
 43 44  1  0  0  0
 44118  1  0  0  0
 45 46  2  0  0  0
 45119  1  0  0  0
 46120  1  0  0  0
 47121  1  0  0  0
 47122  1  0  0  0
 48 56  1  0  0  0
 48 65  1  0  0  0
 48123  1  0  0  0
 49 50  1  0  0  0
 49 53  1  0  0  0
 49 64  1  0  0  0
 49124  1  0  0  0
 50 51  1  0  0  0
 50125  1  0  0  0
 50126  1  0  0  0
 51 52  1  0  0  0
 51127  1  0  0  0
 51128  1  0  0  0
 52129  1  0  0  0
 52130  1  0  0  0
 53 54  1  0  0  0
 54 55  2  0  0  0
 54131  1  0  0  0
 55 57  1  0  0  0
 55132  1  0  0  0
 56 69  2  0  0  0
 57 58  2  0  0  0
 57133  1  0  0  0
 58134  1  0  0  0
 59 60  1  0  0  0
 59 61  1  0  0  0
 59 62  1  0  0  0
 60135  1  0  0  0
 60136  1  0  0  0
 60137  1  0  0  0
 61138  1  0  0  0
 61139  1  0  0  0
 61140  1  0  0  0
 62141  1  0  0  0
 62142  1  0  0  0
 62143  1  0  0  0
 63 65  1  0  0  0
 63144  1  0  0  0
 63145  1  0  0  0
 63146  1  0  0  0
 64147  1  0  0  0
 65148  1  0  0  0
 68 85  1  0  0  0
 71 72  2  0  0  0
 71 74  1  0  0  0
 71149  1  0  0  0
 72 76  1  0  0  0
 72150  1  0  0  0
 73 74  2  0  0  0
 73 75  1  0  0  0
 73151  1  0  0  0
 74 81  1  0  0  0
 75 76  2  0  0  0
 75 82  1  0  0  0
 76 89  1  0  0  0
 77 78  1  0  0  0
 77 86  1  0  0  0
 77152  1  0  0  0
 77153  1  0  0  0
 78 79  1  0  0  0
 78 87  1  0  0  0
 78154  1  0  0  0
 79 80  1  0  0  0
 79 86  1  0  0  0
 79155  1  0  0  0
 80156  1  0  0  0
 80157  1  0  0  0
 80158  1  0  0  0
 81 88  1  0  0  0
 81159  1  0  0  0
 81160  1  0  0  0
 82 87  1  0  0  0
 82161  1  0  0  0
 82162  1  0  0  0
 83 84  1  0  0  0
 83 85  1  0  0  0
 83163  1  0  0  0
 83164  1  0  0  0
 84 88  1  0  0  0
 84165  1  0  0  0
 84166  1  0  0  0
 85167  1  0  0  0
 85168  1  0  0  0
 87169  1  0  0  0
 87170  1  0  0  0
 88171  1  0  0  0
 88172  1  0  0  0
M  CHG  2  87   1  88   1
M  ISO  4   1 100  68 101  85 101  86 100
M  END
> <chiral flag>
0

> <version>
0

> <s_m_source_file>
/data/baiqing/PycharmProjects/Reinvent-master-3.2/result/LINK_invent/BTK/process_docking_weight1_custom_product_contain_oxygen_bond_distance_aromatic_linkinvent_7_9_3/rearranged_h_0005.sdf

> <i_m_source_file_index>
18

> <r_mmod_Potential_Energy-OPLS-2005>
-346.802764892578

> <r_mmod_Stretch_Energy-OPLS-2005>
35.8543128967285

> <r_mmod_Bend_Energy-OPLS-2005>
99.066764831543

> <r_mmod_Torsional_Energy-OPLS-2005>
313.251434326172

> <r_mmod_Improper_Torsional_Energy-OPLS-2005>
9.79181480407715

> <r_mmod_Van_der_Waal_Energy-OPLS-2005>
145.729125976562

> <r_mmod_Electrostatic_Energy-OPLS-2005>
-25.6808280944824

> <r_mmod_Solvation_Energy-OPLS-2005>
-935.439331054688

> <b_mmod_Minimization_Converged-OPLS-2005>
0

> <r_mmod_RMS_Derivative-OPLS-2005>
2.48651909828186

$$$$
18
                    3D
 Structure written by MMmdl.
154162  0  0  1  0            999 V2000
  -30.5692  -14.7410   20.4962 C   0  0  0  0  0  0
  -30.4358  -12.4585   19.4584 C   0  0  0  0  0  0
  -29.5027  -12.5090   18.2271 C   0  0  0  0  0  0
  -28.0290  -12.3242   18.6435 C   0  0  0  0  0  0
  -27.6369  -13.2196   19.8478 C   0  0  2  0  0  0
  -28.6815  -13.1257   20.9783 C   0  0  0  0  0  0
  -25.2496  -13.8187   20.5663 C   0  0  0  0  0  0
  -24.1777  -13.0428   20.9207 C   0  0  0  0  0  0
  -24.6360  -11.6912   20.8754 C   0  0  0  0  0  0
  -23.9039  -10.4280   21.0422 C   0  0  0  0  0  0
  -24.3602   -9.4194   21.9192 C   0  0  0  0  0  0
  -23.6282   -8.2227   22.0752 C   0  0  0  0  0  0
  -22.4266   -8.0268   21.3535 C   0  0  0  0  0  0
  -21.9898   -9.0241   20.4634 C   0  0  0  0  0  0
  -22.7224  -10.2121   20.3053 C   0  0  0  0  0  0
  -21.6842   -6.0723   22.5276 C   0  0  0  0  0  0
  -21.4004   -6.5634   23.8206 C   0  0  0  0  0  0
  -21.3660   -5.6799   24.9173 C   0  0  0  0  0  0
  -21.6047   -4.3059   24.7231 C   0  0  0  0  0  0
  -21.8819   -3.8141   23.4354 C   0  0  0  0  0  0
  -21.9185   -4.6951   22.3404 C   0  0  0  0  0  0
  -22.7804  -13.5212   21.1883 C   0  0  0  0  0  0
  -22.1657   -4.2134   21.0981 F   0  0  0  0  0  0
  -21.5634   -3.4549   25.7746 F   0  0  0  0  0  0
  -29.9767  -13.5031   20.4002 N   0  0  0  0  0  0
  -26.2888  -12.9346   20.3256 N   0  0  0  0  0  0
  -25.9269  -11.6507   20.5758 N   0  0  0  0  0  0
  -22.0464  -12.8176   22.0451 N   0  0  0  0  0  0
  -25.4227  -15.1899   20.4045 N   0  0  0  0  0  0
  -31.7631  -14.8822   20.2151 O   0  0  0  0  0  0
  -21.6629   -6.8861   21.4232 O   0  0  0  0  0  0
  -22.3464  -14.5504   20.6739 O   0  0  0  0  0  0
  -24.6308  -31.8539   23.1939 C   0  0  0  0  0  0
  -25.9147  -32.4714   23.8290 C   0  0  1  0  0  0
  -27.2110  -27.2503   20.1511 C   0  0  0  0  0  0
  -25.5953  -33.8515   24.2197 N   0  0  0  0  0  0
  -23.4279  -30.4717   21.5392 C   0  0  2  0  0  0
  -24.8754  -28.9143   20.1104 C   0  0  0  0  0  0
  -22.7508  -29.4581   22.4940 C   0  0  0  0  0  0
  -18.0278  -28.1397   22.8462 C   0  0  0  0  0  0
  -24.1510  -36.7252   23.2632 C   0  0  0  0  0  0
  -25.9748  -30.7632   21.3802 C   0  0  0  0  0  0
  -26.0483  -29.3873   20.7150 C   0  0  0  0  0  0
  -27.2232  -28.5684   20.7170 C   0  0  0  0  0  0
  -26.0196  -26.8392   19.5185 C   0  0  0  0  0  0
  -24.8669  -27.6498   19.5004 C   0  0  0  0  0  0
  -23.6429  -29.7988   20.1571 C   0  0  0  0  0  0
  -25.4142  -36.3016   24.0293 C   0  0  1  0  0  0
  -20.5883  -28.3691   23.1287 C   0  0  2  0  0  0
  -20.6805  -26.9420   22.5418 C   0  0  0  0  0  0
  -19.5782  -26.6393   21.5226 C   0  0  0  0  0  0
  -18.1931  -26.7939   22.1610 C   0  0  0  0  0  0
  -19.1536  -28.8876   23.2841 C   0  0  0  0  0  0
  -18.9466  -30.1478   23.8842 C   0  0  0  0  0  0
  -17.6469  -30.6602   24.0554 C   0  0  0  0  0  0
  -25.9098  -34.9392   23.5043 C   0  0  0  0  0  0
  -16.5352  -29.9094   23.6368 C   0  0  0  0  0  0
  -16.7262  -28.6517   23.0361 C   0  0  0  0  0  0
  -26.4502  -31.6572   25.0707 C   0  0  0  0  0  0
  -25.3700  -31.3742   26.1413 C   0  0  0  0  0  0
  -27.0375  -30.2964   24.6287 C   0  0  0  0  0  0
  -27.6056  -32.4336   25.7461 C   0  0  0  0  0  0
  -27.5581  -37.1761   24.8463 C   0  0  0  0  0  0
  -21.4218  -29.3002   22.3658 N   0  0  0  0  0  0
  -26.4308  -37.3728   23.9387 N   0  0  0  0  0  0
  -24.6951  -31.0505   22.0914 N   0  0  0  0  0  0
  -23.4192  -28.8170   23.3068 O   0  0  0  0  0  0
  -28.3037  -26.3575   20.1805 O   0  0  0  0  0  0
  -26.5694  -34.8887   22.4629 O   0  0  0  0  0  0
  -23.5459  -32.1412   23.7217 O   0  0  0  0  0  0
  -30.3136  -18.5247   19.0321 C   0  0  0  0  0  0
  -30.3632  -19.6948   18.2528 C   0  0  0  0  0  0
  -29.3191  -19.8547   20.8003 C   0  0  0  0  0  0
  -29.8136  -18.5609   20.3390 C   0  0  0  0  0  0
  -29.8963  -20.9540   18.7100 C   0  0  0  0  0  0
  -29.3217  -21.0898   20.0191 C   0  0  0  0  0  0
  -30.0718  -22.0988   17.7201 C   0  0  0  0  0  0
  -30.0061  -17.2519   21.2260 C   0  0  0  0  0  0
  -28.1107  -24.9543   20.7010 C   0  0  0  0  0  0
  -28.7077  -23.6557   19.9284 C   0  0  0  0  0  0
  -29.7397  -15.8247   20.7450 N   0  0  0  0  0  0
  -28.8002  -22.3071   20.5892 O   0  0  0  0  0  0
  -31.4727  -12.6107   19.1523 H   0  0  0  0  0  0
  -30.4012  -11.4762   19.9321 H   0  0  0  0  0  0
  -29.7850  -11.7423   17.5036 H   0  0  0  0  0  0
  -29.6164  -13.4681   17.7191 H   0  0  0  0  0  0
  -27.8862  -11.2754   18.9061 H   0  0  0  0  0  0
  -27.3668  -12.5187   17.7976 H   0  0  0  0  0  0
  -27.6370  -14.2424   19.4726 H   0  0  0  0  0  0
  -28.7217  -12.1122   21.3795 H   0  0  0  0  0  0
  -28.4129  -13.7718   21.8155 H   0  0  0  0  0  0
  -25.2741   -9.5669   22.4775 H   0  0  0  0  0  0
  -23.9992   -7.4604   22.7465 H   0  0  0  0  0  0
  -21.0831   -8.8738   19.8934 H   0  0  0  0  0  0
  -22.3674  -10.9653   19.6160 H   0  0  0  0  0  0
  -21.1996   -7.6143   23.9697 H   0  0  0  0  0  0
  -21.1485   -6.0537   25.9073 H   0  0  0  0  0  0
  -22.0599   -2.7601   23.2861 H   0  0  0  0  0  0
  -22.4096  -11.9814   22.4789 H   0  0  0  0  0  0
  -21.1089  -13.1171   22.2712 H   0  0  0  0  0  0
  -24.6546  -15.8475   20.4806 H   0  0  0  0  0  0
  -26.2719  -15.6169   20.0561 H   0  0  0  0  0  0
  -26.7218  -32.5351   23.1032 H   0  0  0  0  0  0
  -25.0033  -33.9672   25.0294 H   0  0  0  0  0  0
  -22.7218  -31.2896   21.3861 H   0  0  0  0  0  0
  -23.3756  -35.9606   23.3333 H   0  0  0  0  0  0
  -24.3579  -36.8875   22.2039 H   0  0  0  0  0  0
  -23.7318  -37.6471   23.6686 H   0  0  0  0  0  0
  -26.1401  -31.5368   20.6277 H   0  0  0  0  0  0
  -26.8364  -30.7893   22.0356 H   0  0  0  0  0  0
  -28.1255  -28.9151   21.2000 H   0  0  0  0  0  0
  -25.9747  -25.8662   19.0493 H   0  0  0  0  0  0
  -23.9690  -27.2763   19.0270 H   0  0  0  0  0  0
  -23.7453  -30.5677   19.3894 H   0  0  0  0  0  0
  -22.7638  -29.2214   19.8698 H   0  0  0  0  0  0
  -25.1326  -36.1837   25.0785 H   0  0  0  0  0  0
  -20.9924  -28.3277   24.1436 H   0  0  0  0  0  0
  -20.5804  -26.2271   23.3599 H   0  0  0  0  0  0
  -21.6659  -26.7544   22.1140 H   0  0  0  0  0  0
  -19.6994  -25.6308   21.1254 H   0  0  0  0  0  0
  -19.6759  -27.3216   20.6750 H   0  0  0  0  0  0
  -17.4230  -26.6681   21.3980 H   0  0  0  0  0  0
  -18.0301  -26.0099   22.9020 H   0  0  0  0  0  0
  -19.7961  -30.7284   24.2200 H   0  0  0  0  0  0
  -17.5047  -31.6287   24.5141 H   0  0  0  0  0  0
  -15.5360  -30.2966   23.7770 H   0  0  0  0  0  0
  -15.8655  -28.0832   22.7119 H   0  0  0  0  0  0
  -24.5902  -30.7070   25.7724 H   0  0  0  0  0  0
  -24.8856  -32.2905   26.4784 H   0  0  0  0  0  0
  -25.7972  -30.8956   27.0230 H   0  0  0  0  0  0
  -26.2988  -29.6646   24.1333 H   0  0  0  0  0  0
  -27.4020  -29.7289   25.4873 H   0  0  0  0  0  0
  -27.8893  -30.4172   23.9569 H   0  0  0  0  0  0
  -27.2695  -33.3669   26.1970 H   0  0  0  0  0  0
  -28.3881  -32.6848   25.0289 H   0  0  0  0  0  0
  -28.0728  -31.8527   26.5426 H   0  0  0  0  0  0
  -28.2569  -38.0073   24.7480 H   0  0  0  0  0  0
  -28.1088  -36.2585   24.6325 H   0  0  0  0  0  0
  -27.2268  -37.1440   25.8856 H   0  0  0  0  0  0
  -20.9460  -29.8595   21.6728 H   0  0  0  0  0  0
  -26.0164  -38.2793   24.1401 H   0  0  0  0  0  0
  -30.7221  -17.5986   18.6474 H   0  0  0  0  0  0
  -30.8136  -19.6109   17.2734 H   0  0  0  0  0  0
  -28.9414  -19.9149   21.8120 H   0  0  0  0  0  0
  -30.6260  -21.7777   16.8367 H   0  0  0  0  0  0
  -30.6593  -22.9148   18.1333 H   0  0  0  0  0  0
  -29.1111  -22.4682   17.3630 H   0  0  0  0  0  0
  -29.4248  -17.3901   22.1403 H   0  0  0  0  0  0
  -31.0440  -17.2736   21.5577 H   0  0  0  0  0  0
  -28.6177  -24.9718   21.6644 H   0  0  0  0  0  0
  -27.0668  -24.7806   20.9727 H   0  0  0  0  0  0
  -29.7221  -23.9427   19.6753 H   0  0  0  0  0  0
  -28.1423  -23.5498   19.0038 H   0  0  0  0  0  0
  -28.7690  -15.5585   20.8076 H   0  0  0  0  0  0
  1 25  1  0  0  0
  1 30  2  0  0  0
  1 81  1  0  0  0
  2  3  1  0  0  0
  2 25  1  0  0  0
  2 83  1  0  0  0
  2 84  1  0  0  0
  3  4  1  0  0  0
  3 85  1  0  0  0
  3 86  1  0  0  0
  4  5  1  0  0  0
  4 87  1  0  0  0
  4 88  1  0  0  0
  5  6  1  0  0  0
  5 26  1  0  0  0
  5 89  1  0  0  0
  6 25  1  0  0  0
  6 90  1  0  0  0
  6 91  1  0  0  0
  7  8  2  0  0  0
  7 26  1  0  0  0
  7 29  1  0  0  0
  8  9  1  0  0  0
  8 22  1  0  0  0
  9 10  1  0  0  0
  9 27  2  0  0  0
 10 11  2  0  0  0
 10 15  1  0  0  0
 11 12  1  0  0  0
 11 92  1  0  0  0
 12 13  2  0  0  0
 12 93  1  0  0  0
 13 14  1  0  0  0
 13 31  1  0  0  0
 14 15  2  0  0  0
 14 94  1  0  0  0
 15 95  1  0  0  0
 16 17  2  0  0  0
 16 21  1  0  0  0
 16 31  1  0  0  0
 17 18  1  0  0  0
 17 96  1  0  0  0
 18 19  2  0  0  0
 18 97  1  0  0  0
 19 20  1  0  0  0
 19 24  1  0  0  0
 20 21  2  0  0  0
 20 98  1  0  0  0
 21 23  1  0  0  0
 22 28  1  0  0  0
 22 32  2  0  0  0
 26 27  1  0  0  0
 28 99  1  0  0  0
 28100  1  0  0  0
 29101  1  0  0  0
 29102  1  0  0  0
 33 34  1  0  0  0
 33 66  1  0  0  0
 33 70  2  0  0  0
 34 36  1  0  0  0
 34 59  1  0  0  0
 34103  1  0  0  0
 35 44  2  0  0  0
 35 45  1  0  0  0
 35 68  1  0  0  0
 36 56  1  0  0  0
 36104  1  0  0  0
 37 39  1  0  0  0
 37 47  1  0  0  0
 37 66  1  0  0  0
 37105  1  0  0  0
 38 43  2  0  0  0
 38 46  1  0  0  0
 38 47  1  0  0  0
 39 64  1  0  0  0
 39 67  2  0  0  0
 40 52  1  0  0  0
 40 53  2  0  0  0
 40 58  1  0  0  0
 41106  1  0  0  0
 41107  1  0  0  0
 41108  1  0  0  0
 41 48  1  0  0  0
 42 43  1  0  0  0
 42 66  1  0  0  0
 42109  1  0  0  0
 42110  1  0  0  0
 43 44  1  0  0  0
 44111  1  0  0  0
 45 46  2  0  0  0
 45112  1  0  0  0
 46113  1  0  0  0
 47114  1  0  0  0
 47115  1  0  0  0
 48 56  1  0  0  0
 48 65  1  0  0  0
 48116  1  0  0  0
 49 50  1  0  0  0
 49 53  1  0  0  0
 49 64  1  0  0  0
 49117  1  0  0  0
 50 51  1  0  0  0
 50118  1  0  0  0
 50119  1  0  0  0
 51 52  1  0  0  0
 51120  1  0  0  0
 51121  1  0  0  0
 52122  1  0  0  0
 52123  1  0  0  0
 53 54  1  0  0  0
 54 55  2  0  0  0
 54124  1  0  0  0
 55 57  1  0  0  0
 55125  1  0  0  0
 56 69  2  0  0  0
 57 58  2  0  0  0
 57126  1  0  0  0
 58127  1  0  0  0
 59 60  1  0  0  0
 59 61  1  0  0  0
 59 62  1  0  0  0
 60128  1  0  0  0
 60129  1  0  0  0
 60130  1  0  0  0
 61131  1  0  0  0
 61132  1  0  0  0
 61133  1  0  0  0
 62134  1  0  0  0
 62135  1  0  0  0
 62136  1  0  0  0
 63 65  1  0  0  0
 63137  1  0  0  0
 63138  1  0  0  0
 63139  1  0  0  0
 64140  1  0  0  0
 65141  1  0  0  0
 68 79  1  0  0  0
 71 72  2  0  0  0
 71 74  1  0  0  0
 71142  1  0  0  0
 72 75  1  0  0  0
 72143  1  0  0  0
 73 74  2  0  0  0
 73 76  1  0  0  0
 73144  1  0  0  0
 74 78  1  0  0  0
 75 76  2  0  0  0
 75 77  1  0  0  0
 76 82  1  0  0  0
 77145  1  0  0  0
 77146  1  0  0  0
 77147  1  0  0  0
 78 81  1  0  0  0
 78148  1  0  0  0
 78149  1  0  0  0
 79 80  1  0  0  0
 79150  1  0  0  0
 79151  1  0  0  0
 80 82  1  0  0  0
 80152  1  0  0  0
 80153  1  0  0  0
 81154  1  0  0  0
M  ISO  4   1 100  68 101  79 101  81 100
M  END
> <chiral flag>
0

> <version>
0

> <s_m_source_file>
/data/baiqing/PycharmProjects/Reinvent-master-3.2/result/LINK_invent/BTK/process_docking_weight1_custom_product_contain_oxygen_bond_distance_aromatic_linkinvent_7_9_3/rearranged_h_0005.sdf

> <i_m_source_file_index>
19

> <r_mmod_Potential_Energy-OPLS-2005>
151.437042236328

> <r_mmod_Stretch_Energy-OPLS-2005>
130.061614990234

> <r_mmod_Bend_Energy-OPLS-2005>
194.223373413086

> <r_mmod_Torsional_Energy-OPLS-2005>
221.304275512695

> <r_mmod_Improper_Torsional_Energy-OPLS-2005>
5.07011365890503

> <r_mmod_Van_der_Waal_Energy-OPLS-2005>
141.273193359375

> <r_mmod_Electrostatic_Energy-OPLS-2005>
-414.948974609375

> <r_mmod_Solvation_Energy-OPLS-2005>
-214.782318115234

> <b_mmod_Minimization_Converged-OPLS-2005>
0

> <r_mmod_RMS_Derivative-OPLS-2005>
4.4633584022522

$$$$
19
                    3D
 Structure written by MMmdl.
160169  0  0  1  0            999 V2000
  -30.5623  -15.0215   20.4339 C   0  0  0  0  0  0
  -30.4286  -12.6500   19.4959 C   0  0  0  0  0  0
  -29.5132  -12.5348   18.2570 C   0  0  0  0  0  0
  -28.0549  -12.3034   18.6885 C   0  0  0  0  0  0
  -27.6185  -13.2605   19.8281 C   0  0  2  0  0  0
  -28.6619  -13.3526   20.9610 C   0  0  0  0  0  0
  -25.2414  -13.8246   20.5739 C   0  0  0  0  0  0
  -24.1755  -13.0445   20.9259 C   0  0  0  0  0  0
  -24.6399  -11.6939   20.8781 C   0  0  0  0  0  0
  -23.9100  -10.4298   21.0429 C   0  0  0  0  0  0
  -24.3648   -9.4205   21.9197 C   0  0  0  0  0  0
  -23.6314   -8.2241   22.0756 C   0  0  0  0  0  0
  -22.4291   -8.0292   21.3549 C   0  0  0  0  0  0
  -21.9942   -9.0270   20.4649 C   0  0  0  0  0  0
  -22.7280  -10.2143   20.3066 C   0  0  0  0  0  0
  -21.6852   -6.0754   22.5288 C   0  0  0  0  0  0
  -21.4012   -6.5652   23.8224 C   0  0  0  0  0  0
  -21.3656   -5.6801   24.9183 C   0  0  0  0  0  0
  -21.6042   -4.3065   24.7228 C   0  0  0  0  0  0
  -21.8816   -3.8161   23.4346 C   0  0  0  0  0  0
  -21.9191   -4.6982   22.3406 C   0  0  0  0  0  0
  -22.7774  -13.5198   21.1913 C   0  0  0  0  0  0
  -22.1660   -4.2171   21.0983 F   0  0  0  0  0  0
  -21.5627   -3.4544   25.7737 F   0  0  0  0  0  0
  -29.9211  -13.7792   20.3381 N   0  0  0  0  0  0
  -26.2842  -12.9499   20.3247 N   0  0  0  0  0  0
  -25.9330  -11.6617   20.5759 N   0  0  0  0  0  0
  -22.0431  -12.8169   22.0462 N   0  0  0  0  0  0
  -25.4051  -15.1980   20.4163 N   0  0  0  0  0  0
  -31.7754  -15.0010   20.1938 O   0  0  0  0  0  0
  -21.6641   -6.8899   21.4250 O   0  0  0  0  0  0
  -22.3450  -14.5506   20.6766 O   0  0  0  0  0  0
  -24.6476  -31.8393   23.1834 C   0  0  0  0  0  0
  -25.9225  -32.4676   23.8248 C   0  0  1  0  0  0
  -27.2139  -27.0805   20.1712 C   0  0  0  0  0  0
  -25.5955  -33.8484   24.2169 N   0  0  0  0  0  0
  -23.4548  -30.4579   21.5285 C   0  0  2  0  0  0
  -24.9054  -28.8714   20.1138 C   0  0  0  0  0  0
  -22.7592  -29.4534   22.4821 C   0  0  0  0  0  0
  -18.0317  -28.1409   22.8473 C   0  0  0  0  0  0
  -24.1495  -36.7250   23.2645 C   0  0  0  0  0  0
  -26.0143  -30.6970   21.3895 C   0  0  0  0  0  0
  -26.0846  -29.3009   20.7363 C   0  0  0  0  0  0
  -27.2414  -28.4245   20.7421 C   0  0  0  0  0  0
  -26.0106  -26.7677   19.5027 C   0  0  0  0  0  0
  -24.8838  -27.6203   19.4794 C   0  0  0  0  0  0
  -23.6866  -29.7838   20.1497 C   0  0  0  0  0  0
  -25.4125  -36.3025   24.0320 C   0  0  1  0  0  0
  -20.5933  -28.3747   23.1221 C   0  0  2  0  0  0
  -20.6806  -26.9442   22.5407 C   0  0  0  0  0  0
  -19.5780  -26.6386   21.5223 C   0  0  0  0  0  0
  -18.1955  -26.7947   22.1618 C   0  0  0  0  0  0
  -19.1570  -28.8894   23.2843 C   0  0  0  0  0  0
  -18.9486  -30.1485   23.8880 C   0  0  0  0  0  0
  -17.6483  -30.6601   24.0564 C   0  0  0  0  0  0
  -25.9081  -34.9400   23.5055 C   0  0  0  0  0  0
  -16.5377  -29.9092   23.6340 C   0  0  0  0  0  0
  -16.7298  -28.6514   23.0360 C   0  0  0  0  0  0
  -26.4530  -31.6557   25.0704 C   0  0  0  0  0  0
  -25.3696  -31.3753   26.1386 C   0  0  0  0  0  0
  -27.0399  -30.2942   24.6319 C   0  0  0  0  0  0
  -27.6065  -32.4324   25.7476 C   0  0  0  0  0  0
  -27.5581  -37.1775   24.8464 C   0  0  0  0  0  0
  -21.4278  -29.3063   22.3579 N   0  0  0  0  0  0
  -26.4285  -37.3742   23.9418 N   0  0  0  0  0  0
  -24.7258  -31.0207   22.0888 N   0  0  0  0  0  0
  -23.4216  -28.8083   23.2994 O   0  0  0  0  0  0
  -28.2602  -26.0699   20.1964 O   0  0  0  0  0  0
  -26.5671  -34.8908   22.4638 O   0  0  0  0  0  0
  -23.5581  -32.1291   23.7016 O   0  0  0  0  0  0
  -31.8888  -19.6423   22.6285 C   0  0  0  0  0  0
  -32.0905  -18.2860   22.8418 C   0  0  0  0  0  0
  -30.9131  -20.0518   21.7179 C   0  0  0  0  0  0
  -31.3537  -17.3516   22.1082 C   0  0  0  0  0  0
  -30.0755  -19.1779   20.9709 C   0  0  0  0  0  0
  -30.3715  -17.6597   21.1186 C   0  0  0  0  0  0
  -26.8544  -19.9695   20.9776 C   0  0  0  0  0  0
  -27.7581  -19.4535   19.8663 C   0  0  0  0  0  0
  -27.1600  -21.4675   21.0161 C   0  0  0  0  0  0
  -29.0724  -20.1935   20.1219 C   0  0  1  0  0  0
  -28.8322  -23.1031   20.0375 C   0  0  0  0  0  0
  -28.0004  -24.5369   20.5148 C   0  0  0  0  0  0
  -29.8777  -16.2958   20.5550 N   0  0  0  0  0  0
  -28.5963  -21.6422   20.6882 N   0  3  1  0  0  0
  -31.4588  -12.8056   19.1722 H   0  0  0  0  0  0
  -30.4357  -11.7171   20.0622 H   0  0  0  0  0  0
  -29.8462  -11.7215   17.6108 H   0  0  0  0  0  0
  -29.5821  -13.4481   17.6639 H   0  0  0  0  0  0
  -27.9773  -11.2707   19.0305 H   0  0  0  0  0  0
  -27.3833  -12.3921   17.8339 H   0  0  0  0  0  0
  -27.5610  -14.2475   19.3676 H   0  0  0  0  0  0
  -28.7726  -12.3997   21.4802 H   0  0  0  0  0  0
  -28.3478  -14.0825   21.7090 H   0  0  0  0  0  0
  -25.2791   -9.5671   22.4779 H   0  0  0  0  0  0
  -24.0023   -7.4624   22.7467 H   0  0  0  0  0  0
  -21.0876   -8.8804   19.8945 H   0  0  0  0  0  0
  -22.3757  -10.9692   19.6179 H   0  0  0  0  0  0
  -21.2001   -7.6160   23.9739 H   0  0  0  0  0  0
  -21.1477   -6.0526   25.9089 H   0  0  0  0  0  0
  -22.0594   -2.7625   23.2840 H   0  0  0  0  0  0
  -22.4056  -11.9826   22.4835 H   0  0  0  0  0  0
  -21.1047  -13.1176   22.2684 H   0  0  0  0  0  0
  -24.6322  -15.8454   20.5270 H   0  0  0  0  0  0
  -26.2478  -15.6429   20.0781 H   0  0  0  0  0  0
  -26.7289  -32.5269   23.0971 H   0  0  0  0  0  0
  -25.0096  -33.9599   25.0310 H   0  0  0  0  0  0
  -22.7606  -31.2854   21.3691 H   0  0  0  0  0  0
  -23.3768  -35.9572   23.3285 H   0  0  0  0  0  0
  -24.3587  -36.8899   22.2066 H   0  0  0  0  0  0
  -23.7232  -37.6433   23.6697 H   0  0  0  0  0  0
  -26.1752  -31.4456   20.6123 H   0  0  0  0  0  0
  -26.8826  -30.7518   22.0351 H   0  0  0  0  0  0
  -28.1410  -28.7531   21.2432 H   0  0  0  0  0  0
  -25.9188  -25.8182   18.9957 H   0  0  0  0  0  0
  -23.9871  -27.2904   18.9740 H   0  0  0  0  0  0
  -23.8338  -30.5585   19.3959 H   0  0  0  0  0  0
  -22.7995  -29.2329   19.8337 H   0  0  0  0  0  0
  -25.1304  -36.1851   25.0810 H   0  0  0  0  0  0
  -21.0032  -28.3352   24.1339 H   0  0  0  0  0  0
  -20.5720  -26.2360   23.3632 H   0  0  0  0  0  0
  -21.6671  -26.7457   22.1193 H   0  0  0  0  0  0
  -19.6950  -25.6289   21.1275 H   0  0  0  0  0  0
  -19.6726  -27.3183   20.6744 H   0  0  0  0  0  0
  -17.4231  -26.6713   21.4010 H   0  0  0  0  0  0
  -18.0336  -26.0091   22.9011 H   0  0  0  0  0  0
  -19.7965  -30.7306   24.2247 H   0  0  0  0  0  0
  -17.5037  -31.6280   24.5168 H   0  0  0  0  0  0
  -15.5378  -30.2991   23.7674 H   0  0  0  0  0  0
  -15.8699  -28.0827   22.7087 H   0  0  0  0  0  0
  -24.5915  -30.7056   25.7697 H   0  0  0  0  0  0
  -24.8836  -32.2934   26.4702 H   0  0  0  0  0  0
  -25.7955  -30.9003   27.0231 H   0  0  0  0  0  0
  -26.3025  -29.6646   24.1331 H   0  0  0  0  0  0
  -27.3999  -29.7264   25.4909 H   0  0  0  0  0  0
  -27.8938  -30.4160   23.9650 H   0  0  0  0  0  0
  -27.2683  -33.3667   26.1965 H   0  0  0  0  0  0
  -28.3909  -32.6806   25.0315 H   0  0  0  0  0  0
  -28.0697  -31.8501   26.5452 H   0  0  0  0  0  0
  -28.2568  -38.0103   24.7531 H   0  0  0  0  0  0
  -28.1103  -36.2626   24.6248 H   0  0  0  0  0  0
  -27.2311  -37.1369   25.8871 H   0  0  0  0  0  0
  -20.9494  -29.8758   21.6741 H   0  0  0  0  0  0
  -26.0150  -38.2806   24.1429 H   0  0  0  0  0  0
  -32.4728  -20.3732   23.1718 H   0  0  0  0  0  0
  -32.8251  -17.9542   23.5622 H   0  0  0  0  0  0
  -30.8336  -21.1225   21.6059 H   0  0  0  0  0  0
  -31.5956  -16.3320   22.3658 H   0  0  0  0  0  0
  -27.1276  -19.5049   21.9268 H   0  0  0  0  0  0
  -25.7997  -19.7627   20.7959 H   0  0  0  0  0  0
  -27.3486  -19.7560   18.9017 H   0  0  0  0  0  0
  -27.8584  -18.3689   19.8534 H   0  0  0  0  0  0
  -26.9094  -21.9153   21.9784 H   0  0  0  0  0  0
  -26.5515  -21.9584   20.2556 H   0  0  0  0  0  0
  -29.5675  -20.3639   19.1650 H   0  0  0  0  0  0
  -29.8996  -23.3027   20.1335 H   0  0  0  0  0  0
  -28.6657  -22.9898   18.9672 H   0  0  0  0  0  0
  -28.0271  -24.5179   21.6044 H   0  0  0  0  0  0
  -26.9538  -24.3510   20.2851 H   0  0  0  0  0  0
  -28.8826  -16.2379   20.4000 H   0  0  0  0  0  0
  -29.0488  -21.6933   21.5892 H   0  0  0  0  0  0
  1 25  1  0  0  0
  1 30  2  0  0  0
  1 83  1  0  0  0
  2  3  1  0  0  0
  2 25  1  0  0  0
  2 85  1  0  0  0
  2 86  1  0  0  0
  3  4  1  0  0  0
  3 87  1  0  0  0
  3 88  1  0  0  0
  4  5  1  0  0  0
  4 89  1  0  0  0
  4 90  1  0  0  0
  5  6  1  0  0  0
  5 26  1  0  0  0
  5 91  1  0  0  0
  6 25  1  0  0  0
  6 92  1  0  0  0
  6 93  1  0  0  0
  7  8  2  0  0  0
  7 26  1  0  0  0
  7 29  1  0  0  0
  8  9  1  0  0  0
  8 22  1  0  0  0
  9 10  1  0  0  0
  9 27  2  0  0  0
 10 11  2  0  0  0
 10 15  1  0  0  0
 11 12  1  0  0  0
 11 94  1  0  0  0
 12 13  2  0  0  0
 12 95  1  0  0  0
 13 14  1  0  0  0
 13 31  1  0  0  0
 14 15  2  0  0  0
 14 96  1  0  0  0
 15 97  1  0  0  0
 16 17  2  0  0  0
 16 21  1  0  0  0
 16 31  1  0  0  0
 17 18  1  0  0  0
 17 98  1  0  0  0
 18 19  2  0  0  0
 18 99  1  0  0  0
 19 20  1  0  0  0
 19 24  1  0  0  0
 20 21  2  0  0  0
 20100  1  0  0  0
 21 23  1  0  0  0
 22 28  1  0  0  0
 22 32  2  0  0  0
 26 27  1  0  0  0
 28101  1  0  0  0
 28102  1  0  0  0
 29103  1  0  0  0
 29104  1  0  0  0
 33 34  1  0  0  0
 33 66  1  0  0  0
 33 70  2  0  0  0
 34 36  1  0  0  0
 34 59  1  0  0  0
 34105  1  0  0  0
 35 44  2  0  0  0
 35 45  1  0  0  0
 35 68  1  0  0  0
 36 56  1  0  0  0
 36106  1  0  0  0
 37 39  1  0  0  0
 37 47  1  0  0  0
 37 66  1  0  0  0
 37107  1  0  0  0
 38 43  2  0  0  0
 38 46  1  0  0  0
 38 47  1  0  0  0
 39 64  1  0  0  0
 39 67  2  0  0  0
 40 52  1  0  0  0
 40 53  2  0  0  0
 40 58  1  0  0  0
 41108  1  0  0  0
 41109  1  0  0  0
 41110  1  0  0  0
 41 48  1  0  0  0
 42 43  1  0  0  0
 42 66  1  0  0  0
 42111  1  0  0  0
 42112  1  0  0  0
 43 44  1  0  0  0
 44113  1  0  0  0
 45 46  2  0  0  0
 45114  1  0  0  0
 46115  1  0  0  0
 47116  1  0  0  0
 47117  1  0  0  0
 48 56  1  0  0  0
 48 65  1  0  0  0
 48118  1  0  0  0
 49 50  1  0  0  0
 49 53  1  0  0  0
 49 64  1  0  0  0
 49119  1  0  0  0
 50 51  1  0  0  0
 50120  1  0  0  0
 50121  1  0  0  0
 51 52  1  0  0  0
 51122  1  0  0  0
 51123  1  0  0  0
 52124  1  0  0  0
 52125  1  0  0  0
 53 54  1  0  0  0
 54 55  2  0  0  0
 54126  1  0  0  0
 55 57  1  0  0  0
 55127  1  0  0  0
 56 69  2  0  0  0
 57 58  2  0  0  0
 57128  1  0  0  0
 58129  1  0  0  0
 59 60  1  0  0  0
 59 61  1  0  0  0
 59 62  1  0  0  0
 60130  1  0  0  0
 60131  1  0  0  0
 60132  1  0  0  0
 61133  1  0  0  0
 61134  1  0  0  0
 61135  1  0  0  0
 62136  1  0  0  0
 62137  1  0  0  0
 62138  1  0  0  0
 63 65  1  0  0  0
 63139  1  0  0  0
 63140  1  0  0  0
 63141  1  0  0  0
 64142  1  0  0  0
 65143  1  0  0  0
 68 82  1  0  0  0
 71 72  2  0  0  0
 71 73  1  0  0  0
 71144  1  0  0  0
 72 74  1  0  0  0
 72145  1  0  0  0
 73 75  2  0  0  0
 73146  1  0  0  0
 74 76  2  0  0  0
 74147  1  0  0  0
 75 76  1  0  0  0
 75 80  1  0  0  0
 76 83  1  0  0  0
 77 78  1  0  0  0
 77 79  1  0  0  0
 77148  1  0  0  0
 77149  1  0  0  0
 78 80  1  0  0  0
 78150  1  0  0  0
 78151  1  0  0  0
 79 84  1  0  0  0
 79152  1  0  0  0
 79153  1  0  0  0
 80 84  1  0  0  0
 80154  1  0  0  0
 81 82  1  0  0  0
 81155  1  0  0  0
 81156  1  0  0  0
 81 84  1  0  0  0
 82157  1  0  0  0
 82158  1  0  0  0
 83159  1  0  0  0
 84160  1  0  0  0
M  CHG  1  84   1
M  ISO  4   1 100  68 101  82 101  83 100
M  END
> <chiral flag>
0

> <version>
0

> <s_m_source_file>
/data/baiqing/PycharmProjects/Reinvent-master-3.2/result/LINK_invent/BTK/process_docking_weight1_custom_product_contain_oxygen_bond_distance_aromatic_linkinvent_7_9_3/rearranged_h_0005.sdf

> <i_m_source_file_index>
20

> <r_mmod_Potential_Energy-OPLS-2005>
791.549499511719

> <r_mmod_Stretch_Energy-OPLS-2005>
369.016387939453

> <r_mmod_Bend_Energy-OPLS-2005>
400.859954833984

> <r_mmod_Torsional_Energy-OPLS-2005>
299.994171142578

> <r_mmod_Improper_Torsional_Energy-OPLS-2005>
5.5069580078125

> <r_mmod_Van_der_Waal_Energy-OPLS-2005>
138.568725585938

> <r_mmod_Electrostatic_Energy-OPLS-2005>
-219.818725585938

> <r_mmod_Solvation_Energy-OPLS-2005>
-446.882354736328

> <b_mmod_Minimization_Converged-OPLS-2005>
0

> <r_mmod_RMS_Derivative-OPLS-2005>
1.14862406253815

$$$$
20
                    3D
 Structure written by MMmdl.
198209  0  0  1  0            999 V2000
  -31.0055  -14.3784   20.8909 C   0  0  0  0  0  0
  -31.2386  -12.5169   19.3531 C   0  0  0  0  0  0
  -30.7717  -12.5617   17.5673 C   0  0  0  0  0  0
  -29.0951  -12.8570   16.9353 C   0  0  0  0  0  0
  -27.4223  -13.4811   19.7958 C   0  0  2  0  0  0
  -28.7411  -13.2318   21.0928 C   0  0  0  0  0  0
  -25.1747  -14.2049   20.8971 C   0  0  0  0  0  0
  -24.0525  -13.4824   21.2089 C   0  0  0  0  0  0
  -24.5067  -12.1899   21.2148 C   0  0  0  0  0  0
  -23.7593  -10.8981   20.8981 C   0  0  0  0  0  0
  -24.4791   -8.6599   19.9074 C   0  0  0  0  0  0
  -23.4663   -7.4105   20.4267 C   0  0  0  0  0  0
  -22.1218   -7.7186   21.3104 C   0  0  0  0  0  0
  -21.5765   -9.1608   21.8930 C   0  0  0  0  0  0
  -22.2881  -10.6667   21.7535 C   0  0  0  0  0  0
  -21.5562   -5.9535   22.5788 C   0  0  0  0  0  0
  -21.3360   -6.4864   23.8644 C   0  0  0  0  0  0
  -21.3721   -5.6280   24.9719 C   0  0  0  0  0  0
  -21.6250   -4.2571   24.7795 C   0  0  0  0  0  0
  -21.9054   -3.7498   23.4977 C   0  0  0  0  0  0
  -21.8883   -4.6107   22.3906 C   0  0  0  0  0  0
  -22.6455  -13.9054   21.2651 C   0  0  0  0  0  0
  -22.1410   -4.1487   21.1423 F   0  0  0  0  0  0
  -21.5934   -3.4152   25.8361 F   0  0  0  0  0  0
  -30.3927  -13.1922   20.6765 N   0  0  0  0  0  0
  -26.1410  -13.3007   20.5140 N   0  0  0  0  0  0
  -25.8351  -12.3682   21.4055 N   0  0  0  0  0  0
  -21.9244  -13.4807   22.2811 N   0  0  0  0  0  0
  -25.4636  -15.5480   20.8610 N   0  0  0  0  0  0
  -32.2031  -14.6067   20.7583 O   0  0  0  0  0  0
  -21.3181   -6.6799   21.4741 O   0  0  0  0  0  0
  -22.1804  -14.6854   20.4608 O   0  0  0  0  0  0
  -24.6655  -31.8300   23.1895 C   0  0  0  0  0  0
  -25.9414  -32.4589   23.8236 C   0  0  1  0  0  0
  -26.8852  -26.8400   20.0565 C   0  0  0  0  0  0
  -25.6117  -33.8442   24.2092 N   0  0  0  0  0  0
  -23.4554  -30.4799   21.5455 C   0  0  2  0  0  0
  -24.8335  -28.9028   20.0657 C   0  0  0  0  0  0
  -22.7550  -29.4551   22.4748 C   0  0  0  0  0  0
  -18.0276  -28.1396   22.8436 C   0  0  0  0  0  0
  -24.1476  -36.7206   23.2628 C   0  0  0  0  0  0
  -26.0345  -30.5814   21.4365 C   0  0  0  0  0  0
  -26.0337  -29.1861   20.7349 C   0  0  0  0  0  0
  -27.0793  -28.1498   20.7380 C   0  0  0  0  0  0
  -25.7517  -26.8062   19.2514 C   0  0  0  0  0  0
  -24.7198  -27.7378   19.3120 C   0  0  0  0  0  0
  -23.6695  -29.8734   20.1412 C   0  0  0  0  0  0
  -25.4141  -36.2993   24.0260 C   0  0  1  0  0  0
  -20.5888  -28.3760   23.1141 C   0  0  2  0  0  0
  -20.6767  -26.9457   22.5340 C   0  0  0  0  0  0
  -19.5768  -26.6359   21.5153 C   0  0  0  0  0  0
  -18.1940  -26.7919   22.1569 C   0  0  0  0  0  0
  -19.1533  -28.8895   23.2787 C   0  0  0  0  0  0
  -18.9473  -30.1476   23.8845 C   0  0  0  0  0  0
  -17.6484  -30.6609   24.0544 C   0  0  0  0  0  0
  -25.9148  -34.9381   23.4969 C   0  0  0  0  0  0
  -16.5369  -29.9097   23.6351 C   0  0  0  0  0  0
  -16.7259  -28.6500   23.0380 C   0  0  0  0  0  0
  -26.4636  -31.6610   25.0830 C   0  0  0  0  0  0
  -25.3708  -31.4003   26.1465 C   0  0  0  0  0  0
  -27.0578  -30.2933   24.6749 C   0  0  0  0  0  0
  -27.6081  -32.4481   25.7652 C   0  0  0  0  0  0
  -27.5564  -37.1767   24.8447 C   0  0  0  0  0  0
  -21.4232  -29.3097   22.3505 N   0  0  0  0  0  0
  -26.4273  -37.3742   23.9393 N   0  0  0  0  0  0
  -24.7447  -30.9881   22.1072 N   0  0  0  0  0  0
  -23.4145  -28.8046   23.2901 O   0  0  0  0  0  0
  -27.5526  -25.5192   20.0666 O   0  0  0  0  0  0
  -26.5733  -34.8925   22.4556 O   0  0  0  0  0  0
  -23.5777  -32.1424   23.6939 O   0  0  0  0  0  0
  -23.9994   -9.0587   21.9827 C   0  0  0  0  0  0
  -22.5135   -9.5077   19.7643 C   0  0  0  0  0  0
  -25.6112   -9.6512   21.6768 C   0  0  0  0  0  0
  -23.3519  -10.3552   18.5934 C   0  0  0  0  0  0
  -28.8812  -12.0795   18.9747 C   0  0  0  0  0  0
  -27.6371  -11.5406   18.2252 C   0  0  0  0  0  0
  -28.0485  -14.8183   17.8660 C   0  0  0  0  0  0
  -29.2215  -14.1352   18.7072 C   0  0  0  0  0  0
  -26.0261  -10.3484   20.0981 C   0  0  0  0  0  0
  -24.8705  -10.9805   18.8054 C   0  0  0  0  0  0
  -26.9010  -13.9430   17.3393 C   0  0  0  0  0  0
  -26.7945  -12.4331   17.3586 C   0  0  0  0  0  0
  -25.3024  -18.9979   19.3807 C   0  0  0  0  0  0
  -27.0208  -23.0039   18.5359 C   0  0  0  0  0  0
  -26.7055  -22.7677   20.8035 C   0  0  0  0  0  0
  -24.5530  -18.4359   17.0496 C   0  0  0  0  0  0
  -26.5448  -21.3640   18.3201 C   0  0  0  0  0  0
  -25.7505  -21.4115   20.5319 C   0  0  0  0  0  0
  -23.7533  -17.6535   16.0177 C   0  0  0  0  0  0
  -22.9432  -15.8529   17.4916 C   0  0  0  0  0  0
  -25.0965  -17.6335   18.2676 C   0  0  2  0  0  0
  -24.2506  -15.9469   18.3529 C   0  0  2  0  0  0
  -26.7699  -24.0366   19.7945 C   0  0  0  0  0  0
  -27.3099   -9.4591   19.9212 C   0  0  0  0  0  0
  -30.2057  -15.2477   19.0602 C   0  0  0  0  0  0
  -24.2946  -12.7335   18.3996 C   0  0  0  0  0  0
  -25.6234  -14.5522   16.9606 C   0  0  0  0  0  0
  -25.8673  -20.4106   19.3491 N   0  0  0  0  0  0
  -30.2666  -15.3790   20.4870 N   0  0  0  0  0  0
  -24.7941  -14.3721   18.1509 N   0  0  0  0  0  0
  -22.6025  -17.0251   16.6782 N   0  3  0  0  0  0
  -24.7954  -18.7149   20.4702 O   0  0  0  0  0  0
  -25.9858  -11.6524   16.0254 Cl  0  0  0  0  0  0
  -32.2886  -12.8049   19.3538 H   0  0  0  0  0  0
  -31.3901  -11.4631   19.6058 H   0  0  0  0  0  0
  -31.1400  -11.6388   17.1130 H   0  0  0  0  0  0
  -31.3981  -13.3255   17.1114 H   0  0  0  0  0  0
  -28.8971  -11.9849   16.2958 H   0  0  0  0  0  0
  -29.1863  -13.6314   16.1598 H   0  0  0  0  0  0
  -27.3958  -14.5567   19.9989 H   0  0  0  0  0  0
  -28.5413  -12.2646   21.5642 H   0  0  0  0  0  0
  -28.5785  -13.9427   21.9064 H   0  0  0  0  0  0
  -25.2767   -8.3689   19.2367 H   0  0  0  0  0  0
  -23.6902   -6.4051   20.1012 H   0  0  0  0  0  0
  -20.6595   -9.1217   22.4686 H   0  0  0  0  0  0
  -21.7583  -11.3176   22.3985 H   0  0  0  0  0  0
  -21.0762   -7.5237   24.0089 H   0  0  0  0  0  0
  -21.1734   -6.0125   25.9621 H   0  0  0  0  0  0
  -22.1147   -2.7015   23.3662 H   0  0  0  0  0  0
  -22.3408  -12.9290   23.0112 H   0  0  0  0  0  0
  -20.9799  -13.8191   22.3957 H   0  0  0  0  0  0
  -24.8078  -16.2820   21.1001 H   0  0  0  0  0  0
  -26.3561  -15.8957   20.5407 H   0  0  0  0  0  0
  -26.7470  -32.5032   23.0919 H   0  0  0  0  0  0
  -25.0323  -33.9556   25.0272 H   0  0  0  0  0  0
  -22.7722  -31.3219   21.4166 H   0  0  0  0  0  0
  -23.3786  -35.9484   23.3255 H   0  0  0  0  0  0
  -24.3535  -36.8912   22.2049 H   0  0  0  0  0  0
  -23.7182  -37.6352   23.6738 H   0  0  0  0  0  0
  -26.2803  -31.3418   20.6922 H   0  0  0  0  0  0
  -26.8766  -30.5759   22.1148 H   0  0  0  0  0  0
  -27.9680  -28.3045   21.3381 H   0  0  0  0  0  0
  -25.5858  -25.9807   18.5773 H   0  0  0  0  0  0
  -23.8242  -27.5541   18.7285 H   0  0  0  0  0  0
  -23.8565  -30.6840   19.4324 H   0  0  0  0  0  0
  -22.7526  -29.3918   19.7936 H   0  0  0  0  0  0
  -25.1338  -36.1787   25.0746 H   0  0  0  0  0  0
  -21.0007  -28.3371   24.1250 H   0  0  0  0  0  0
  -20.5608  -26.2423   23.3581 H   0  0  0  0  0  0
  -21.6652  -26.7414   22.1212 H   0  0  0  0  0  0
  -19.6969  -25.6232   21.1302 H   0  0  0  0  0  0
  -19.6733  -27.3051   20.6591 H   0  0  0  0  0  0
  -17.4195  -26.6589   21.3993 H   0  0  0  0  0  0
  -18.0395  -26.0063   22.8982 H   0  0  0  0  0  0
  -19.7969  -30.7262   24.2206 H   0  0  0  0  0  0
  -17.5066  -31.6293   24.5140 H   0  0  0  0  0  0
  -15.5387  -30.3021   23.7723 H   0  0  0  0  0  0
  -15.8616  -28.0818   22.7195 H   0  0  0  0  0  0
  -24.5817  -30.7417   25.7823 H   0  0  0  0  0  0
  -24.9029  -32.3311   26.4689 H   0  0  0  0  0  0
  -25.7901  -30.9320   27.0369 H   0  0  0  0  0  0
  -26.3290  -29.6449   24.1875 H   0  0  0  0  0  0
  -27.4092  -29.7530   25.5543 H   0  0  0  0  0  0
  -27.9275  -30.4023   24.0264 H   0  0  0  0  0  0
  -27.2558  -33.3769   26.2142 H   0  0  0  0  0  0
  -28.3990  -32.7037   25.0595 H   0  0  0  0  0  0
  -28.0661  -31.8714   26.5684 H   0  0  0  0  0  0
  -28.2556  -38.0089   24.7562 H   0  0  0  0  0  0
  -28.1093  -36.2634   24.6207 H   0  0  0  0  0  0
  -27.2298  -37.1341   25.8852 H   0  0  0  0  0  0
  -20.9382  -29.8929   21.6809 H   0  0  0  0  0  0
  -26.0118  -38.2788   24.1449 H   0  0  0  0  0  0
  -23.7530   -8.5640   22.9176 H   0  0  0  0  0  0
  -21.4910   -9.2233   19.5246 H   0  0  0  0  0  0
  -26.3817   -9.4013   22.3988 H   0  0  0  0  0  0
  -22.7670  -10.6991   17.7533 H   0  0  0  0  0  0
  -29.3939  -11.2878   19.4918 H   0  0  0  0  0  0
  -27.5971  -10.5307   17.8783 H   0  0  0  0  0  0
  -27.9893  -15.8887   17.7572 H   0  0  0  0  0  0
  -26.6572  -23.5362   17.6590 H   0  0  0  0  0  0
  -28.1021  -23.0131   18.3901 H   0  0  0  0  0  0
  -27.7249  -22.4166   20.9666 H   0  0  0  0  0  0
  -26.4030  -23.1608   21.7754 H   0  0  0  0  0  0
  -23.8736  -19.2246   17.3891 H   0  0  0  0  0  0
  -25.3744  -18.9649   16.5633 H   0  0  0  0  0  0
  -27.4535  -20.8383   18.0140 H   0  0  0  0  0  0
  -25.9196  -21.3406   17.4268 H   0  0  0  0  0  0
  -24.7094  -21.7439   20.5278 H   0  0  0  0  0  0
  -25.8387  -20.8162   21.4432 H   0  0  0  0  0  0
  -24.3736  -16.9289   15.4884 H   0  0  0  0  0  0
  -23.3731  -18.3490   15.2675 H   0  0  0  0  0  0
  -22.0812  -15.5558   18.0892 H   0  0  0  0  0  0
  -23.0210  -15.0587   16.7496 H   0  0  0  0  0  0
  -26.1323  -17.3854   18.0489 H   0  0  0  0  0  0
  -23.8084  -16.0079   19.3387 H   0  0  0  0  0  0
  -25.7135  -24.2947   19.7402 H   0  0  0  0  0  0
  -27.2230   -8.5247   20.4734 H   0  0  0  0  0  0
  -28.1868   -9.9047   20.3819 H   0  0  0  0  0  0
  -27.5146   -8.9911   18.9621 H   0  0  0  0  0  0
  -29.8822  -16.2123   18.6699 H   0  0  0  0  0  0
  -31.1695  -15.1011   18.5557 H   0  0  0  0  0  0
  -24.0293  -12.5203   17.3669 H   0  0  0  0  0  0
  -25.2419  -12.6662   18.7307 H   0  0  0  0  0  0
  -25.1667  -14.1124   16.0724 H   0  0  0  0  0  0
  -25.8324  -15.5914   16.7171 H   0  0  0  0  0  0
  -30.5858  -16.2948   20.7642 H   0  0  0  0  0  0
  -21.9550  -16.7153   15.9715 H   0  0  0  0  0  0
  -22.1088  -17.6980   17.2407 H   0  0  0  0  0  0
  1 25  1  0  0  0
  1 30  2  0  0  0
  1 99  1  0  0  0
  2  3  1  0  0  0
  2 25  1  0  0  0
  2104  1  0  0  0
  2105  1  0  0  0
  3  4  1  0  0  0
  3106  1  0  0  0
  3107  1  0  0  0
  4  5  1  0  0  0
  4108  1  0  0  0
  4109  1  0  0  0
  5  6  1  0  0  0
  5 26  1  0  0  0
  5110  1  0  0  0
  6 25  1  0  0  0
  6111  1  0  0  0
  6112  1  0  0  0
  7  8  2  0  0  0
  7 26  1  0  0  0
  7 29  1  0  0  0
  8  9  1  0  0  0
  8 22  1  0  0  0
  9 10  1  0  0  0
  9 27  2  0  0  0
 10 11  2  0  0  0
 10 15  1  0  0  0
 11 12  1  0  0  0
 11113  1  0  0  0
 12 13  2  0  0  0
 12114  1  0  0  0
 13 14  1  0  0  0
 13 31  1  0  0  0
 14 15  2  0  0  0
 14115  1  0  0  0
 15116  1  0  0  0
 16 17  2  0  0  0
 16 21  1  0  0  0
 16 31  1  0  0  0
 17 18  1  0  0  0
 17117  1  0  0  0
 18 19  2  0  0  0
 18118  1  0  0  0
 19 20  1  0  0  0
 19 24  1  0  0  0
 20 21  2  0  0  0
 20119  1  0  0  0
 21 23  1  0  0  0
 22 28  1  0  0  0
 22 32  2  0  0  0
 26 27  1  0  0  0
 28120  1  0  0  0
 28121  1  0  0  0
 29122  1  0  0  0
 29123  1  0  0  0
 33 34  1  0  0  0
 33 66  1  0  0  0
 33 70  2  0  0  0
 34 36  1  0  0  0
 34 59  1  0  0  0
 34124  1  0  0  0
 35 44  2  0  0  0
 35 45  1  0  0  0
 35 68  1  0  0  0
 36 56  1  0  0  0
 36125  1  0  0  0
 37 39  1  0  0  0
 37 47  1  0  0  0
 37 66  1  0  0  0
 37126  1  0  0  0
 38 43  2  0  0  0
 38 46  1  0  0  0
 38 47  1  0  0  0
 39 64  1  0  0  0
 39 67  2  0  0  0
 40 52  1  0  0  0
 40 53  2  0  0  0
 40 58  1  0  0  0
 41127  1  0  0  0
 41128  1  0  0  0
 41129  1  0  0  0
 41 48  1  0  0  0
 42 43  1  0  0  0
 42 66  1  0  0  0
 42130  1  0  0  0
 42131  1  0  0  0
 43 44  1  0  0  0
 44132  1  0  0  0
 45 46  2  0  0  0
 45133  1  0  0  0
 46134  1  0  0  0
 47135  1  0  0  0
 47136  1  0  0  0
 48 56  1  0  0  0
 48 65  1  0  0  0
 48137  1  0  0  0
 49 50  1  0  0  0
 49 53  1  0  0  0
 49 64  1  0  0  0
 49138  1  0  0  0
 50 51  1  0  0  0
 50139  1  0  0  0
 50140  1  0  0  0
 51 52  1  0  0  0
 51141  1  0  0  0
 51142  1  0  0  0
 52143  1  0  0  0
 52144  1  0  0  0
 53 54  1  0  0  0
 54 55  2  0  0  0
 54145  1  0  0  0
 55 57  1  0  0  0
 55146  1  0  0  0
 56 69  2  0  0  0
 57 58  2  0  0  0
 57147  1  0  0  0
 58148  1  0  0  0
 59 60  1  0  0  0
 59 61  1  0  0  0
 59 62  1  0  0  0
 60149  1  0  0  0
 60150  1  0  0  0
 60151  1  0  0  0
 61152  1  0  0  0
 61153  1  0  0  0
 61154  1  0  0  0
 62155  1  0  0  0
 62156  1  0  0  0
 62157  1  0  0  0
 63 65  1  0  0  0
 63158  1  0  0  0
 63159  1  0  0  0
 63160  1  0  0  0
 64161  1  0  0  0
 65162  1  0  0  0
 68 93  1  0  0  0
 71 72  2  0  0  0
 71 73  1  0  0  0
 71163  1  0  0  0
 72 74  1  0  0  0
 72164  1  0  0  0
 73 79  2  0  0  0
 73165  1  0  0  0
 74 80  2  0  0  0
 74166  1  0  0  0
 75 76  2  0  0  0
 75 78  1  0  0  0
 75167  1  0  0  0
 76 82  1  0  0  0
 76168  1  0  0  0
 77 78  2  0  0  0
 77 81  1  0  0  0
 77169  1  0  0  0
 78 95  1  0  0  0
 79 80  1  0  0  0
 79 94  1  0  0  0
 80 96  1  0  0  0
 81 82  2  0  0  0
 81 97  1  0  0  0
 82103  1  0  0  0
 83 98  1  0  0  0
 83102  2  0  0  0
 83 91  1  0  0  0
 84 87  1  0  0  0
 84 93  1  0  0  0
 84170  1  0  0  0
 84171  1  0  0  0
 85 88  1  0  0  0
 85 93  1  0  0  0
 85172  1  0  0  0
 85173  1  0  0  0
 86 89  1  0  0  0
 86 91  1  0  0  0
 86174  1  0  0  0
 86175  1  0  0  0
 87 98  1  0  0  0
 87176  1  0  0  0
 87177  1  0  0  0
 88 98  1  0  0  0
 88178  1  0  0  0
 88179  1  0  0  0
 89101  1  0  0  0
 89180  1  0  0  0
 89181  1  0  0  0
 90 92  1  0  0  0
 90101  1  0  0  0
 90182  1  0  0  0
 90183  1  0  0  0
 91 92  1  0  0  0
 91184  1  0  0  0
 92100  1  0  0  0
 92185  1  0  0  0
 93186  1  0  0  0
 94187  1  0  0  0
 94188  1  0  0  0
 94189  1  0  0  0
 95 99  1  0  0  0
 95190  1  0  0  0
 95191  1  0  0  0
 96100  1  0  0  0
 96192  1  0  0  0
 96193  1  0  0  0
 97100  1  0  0  0
 97194  1  0  0  0
 97195  1  0  0  0
 99196  1  0  0  0
101197  1  0  0  0
101198  1  0  0  0
M  CHG  1 101   1
M  ISO  4   1 100  68 101  93 101  99 100
M  END
> <chiral flag>
0

> <version>
0

> <s_m_source_file>
/data/baiqing/PycharmProjects/Reinvent-master-3.2/result/LINK_invent/BTK/process_docking_weight1_custom_product_contain_oxygen_bond_distance_aromatic_linkinvent_7_9_3/rearranged_h_0005.sdf

> <i_m_source_file_index>
21

> <r_mmod_Potential_Energy-OPLS-2005>
26141.546875

> <r_mmod_Stretch_Energy-OPLS-2005>
14430.640625

> <r_mmod_Bend_Energy-OPLS-2005>
1650.20434570312

> <r_mmod_Torsional_Energy-OPLS-2005>
885.795288085938

> <r_mmod_Improper_Torsional_Energy-OPLS-2005>
77.2498626708984

> <r_mmod_Van_der_Waal_Energy-OPLS-2005>
7025.04296875

> <r_mmod_Electrostatic_Energy-OPLS-2005>
-331.688201904297

> <r_mmod_Solvation_Energy-OPLS-2005>
-490.626098632812

> <b_mmod_Minimization_Converged-OPLS-2005>
0

> <r_mmod_RMS_Derivative-OPLS-2005>
18.1466388702393

$$$$
21
                    3D
 Structure written by MMmdl.
185195  0  0  1  0            999 V2000
  -30.7037  -14.4128   20.2829 C   0  0  0  0  0  0
  -30.3721  -12.2069   19.3943 C   0  0  0  0  0  0
  -29.4128  -12.3211   18.1891 C   0  0  0  0  0  0
  -27.9390  -12.3155   18.6142 C   0  0  0  0  0  0
  -27.6274  -13.2013   19.8518 C   0  0  2  0  0  0
  -28.6916  -13.0409   20.9571 C   0  0  0  0  0  0
  -25.2416  -13.8174   20.5722 C   0  0  0  0  0  0
  -24.1675  -13.0472   20.9212 C   0  0  0  0  0  0
  -24.6221  -11.6913   20.8879 C   0  0  0  0  0  0
  -23.8935  -10.4285   21.0473 C   0  0  0  0  0  0
  -24.3519   -9.4208   21.9259 C   0  0  0  0  0  0
  -23.6244   -8.2202   22.0774 C   0  0  0  0  0  0
  -22.4254   -8.0224   21.3502 C   0  0  0  0  0  0
  -21.9831   -9.0207   20.4652 C   0  0  0  0  0  0
  -22.7134  -10.2101   20.3086 C   0  0  0  0  0  0
  -21.6823   -6.0703   22.5279 C   0  0  0  0  0  0
  -21.4000   -6.5622   23.8208 C   0  0  0  0  0  0
  -21.3686   -5.6808   24.9176 C   0  0  0  0  0  0
  -21.6037   -4.3055   24.7254 C   0  0  0  0  0  0
  -21.8821   -3.8120   23.4367 C   0  0  0  0  0  0
  -21.9199   -4.6929   22.3409 C   0  0  0  0  0  0
  -22.7698  -13.5288   21.1850 C   0  0  0  0  0  0
  -22.1644   -4.2096   21.0977 F   0  0  0  0  0  0
  -21.5651   -3.4566   25.7777 F   0  0  0  0  0  0
  -30.0239  -13.2482   20.3678 N   0  0  0  0  0  0
  -26.2831  -12.9335   20.3470 N   0  0  0  0  0  0
  -25.9142  -11.6511   20.5987 N   0  0  0  0  0  0
  -22.0293  -12.8293   22.0366 N   0  0  0  0  0  0
  -25.4219  -15.1882   20.4102 N   0  0  0  0  0  0
  -31.9208  -14.5163   20.3919 O   0  0  0  0  0  0
  -21.6616   -6.8814   21.4219 O   0  0  0  0  0  0
  -22.3420  -14.5627   20.6723 O   0  0  0  0  0  0
  -24.6098  -31.8717   23.2090 C   0  0  0  0  0  0
  -25.9013  -32.4822   23.8356 C   0  0  1  0  0  0
  -27.2452  -27.4876   20.0856 C   0  0  0  0  0  0
  -25.5908  -33.8625   24.2325 N   0  0  0  0  0  0
  -23.3935  -30.4933   21.5472 C   0  0  2  0  0  0
  -24.8415  -28.9588   20.1167 C   0  0  0  0  0  0
  -22.7363  -29.4707   22.4989 C   0  0  0  0  0  0
  -18.0258  -28.1389   22.8478 C   0  0  0  0  0  0
  -24.1507  -36.7321   23.2626 C   0  0  0  0  0  0
  -25.9118  -30.8584   21.3454 C   0  0  0  0  0  0
  -25.9958  -29.4908   20.7048 C   0  0  0  0  0  0
  -27.2014  -28.7624   20.6838 C   0  0  0  0  0  0
  -26.0752  -26.9556   19.5025 C   0  0  0  0  0  0
  -24.8724  -27.6863   19.5195 C   0  0  0  0  0  0
  -23.6004  -29.8174   20.1633 C   0  0  0  0  0  0
  -25.4117  -36.3111   24.0336 C   0  0  1  0  0  0
  -20.5842  -28.3685   23.1338 C   0  0  2  0  0  0
  -20.6767  -26.9427   22.5427 C   0  0  0  0  0  0
  -19.5753  -26.6406   21.5219 C   0  0  0  0  0  0
  -18.1921  -26.7936   22.1611 C   0  0  0  0  0  0
  -19.1496  -28.8847   23.2914 C   0  0  0  0  0  0
  -18.9435  -30.1444   23.8943 C   0  0  0  0  0  0
  -17.6440  -30.6593   24.0579 C   0  0  0  0  0  0
  -25.9039  -34.9469   23.5117 C   0  0  0  0  0  0
  -16.5334  -29.9104   23.6308 C   0  0  0  0  0  0
  -16.7254  -28.6520   23.0328 C   0  0  0  0  0  0
  -26.4484  -31.6564   25.0645 C   0  0  0  0  0  0
  -25.3791  -31.3646   26.1421 C   0  0  0  0  0  0
  -27.0289  -30.3010   24.5952 C   0  0  0  0  0  0
  -27.6072  -32.4264   25.7402 C   0  0  0  0  0  0
  -27.5598  -37.1793   24.8450 C   0  0  0  0  0  0
  -21.4081  -29.3045   22.3730 N   0  0  0  0  0  0
  -26.4306  -37.3790   23.9413 N   0  0  0  0  0  0
  -24.6561  -31.0866   22.0948 N   0  0  0  0  0  0
  -23.4157  -28.8257   23.3035 O   0  0  0  0  0  0
  -28.4451  -26.8258   20.0457 O   0  0  0  0  0  0
  -26.5584  -34.8920   22.4671 O   0  0  0  0  0  0
  -23.5304  -32.1454   23.7536 O   0  0  0  0  0  0
  -30.6083  -12.7093   14.8090 C   0  0  0  0  0  0
  -33.1906  -10.8693   16.7617 C   0  0  0  0  0  0
  -31.0756  -14.0328   14.9184 C   0  0  0  0  0  0
  -33.8503  -18.5286   18.0080 C   0  0  0  0  0  0
  -33.8246  -17.5479   17.0030 C   0  0  0  0  0  0
  -32.7081   -9.5444   16.6613 C   0  0  0  0  0  0
  -32.9950  -13.2579   16.2086 C   0  0  0  0  0  0
  -30.8360  -10.3302   15.3174 C   0  0  0  0  0  0
  -31.8519  -17.5527   18.9922 C   0  0  0  0  0  0
  -32.5119  -11.9287   16.1248 C   0  0  0  0  0  0
  -31.3214  -11.6526   15.4070 C   0  0  0  0  0  0
  -32.2692  -14.3181   15.6118 C   0  0  0  0  0  0
  -32.8377  -18.5592   18.9796 C   0  0  0  0  0  0
  -32.8008  -16.5773   16.9534 C   0  0  0  0  0  0
  -31.8278  -16.5438   18.0055 C   0  0  0  0  0  0
  -31.5302   -9.2701   15.9332 C   0  0  0  0  0  0
  -32.7514  -15.7673   15.6445 C   0  0  0  0  0  0
  -30.7399  -15.4761   18.0894 C   0  0  0  0  0  0
  -32.7881  -19.7157   19.9549 C   0  0  0  0  0  0
  -30.4858  -22.6525   19.0448 C   0  0  0  0  0  0
  -29.1282  -24.6314   19.3237 C   0  0  0  0  0  0
  -30.8967  -21.3182   19.7046 C   0  0  0  0  0  0
  -28.4518  -25.4593   20.4261 C   0  0  0  0  0  0
  -31.0470   -7.9638   15.8155 N   0  0  0  0  0  0
  -30.1029  -15.2262   19.4010 N   0  0  0  0  0  0
  -29.4963  -23.3329   19.8775 N   0  0  0  0  0  0
  -32.2413  -20.9004   19.2671 N   0  3  0  0  0  0
  -31.4071  -12.2843   19.0513 H   0  0  0  0  0  0
  -30.2692  -11.2264   19.8553 H   0  0  0  0  0  0
  -29.5696  -11.4741   17.5220 H   0  0  0  0  0  0
  -29.5943  -13.1963   17.5782 H   0  0  0  0  0  0
  -27.6684  -11.2810   18.8310 H   0  0  0  0  0  0
  -27.3097  -12.6120   17.7739 H   0  0  0  0  0  0
  -27.6351  -14.2353   19.5088 H   0  0  0  0  0  0
  -28.6228  -12.0395   21.3884 H   0  0  0  0  0  0
  -28.5009  -13.7352   21.7753 H   0  0  0  0  0  0
  -25.2643   -9.5711   22.4856 H   0  0  0  0  0  0
  -23.9970   -7.4609   22.7496 H   0  0  0  0  0  0
  -21.0746   -8.8756   19.8961 H   0  0  0  0  0  0
  -22.3630  -10.9650   19.6188 H   0  0  0  0  0  0
  -21.1934   -7.6124   23.9679 H   0  0  0  0  0  0
  -21.1511   -6.0518   25.9077 H   0  0  0  0  0  0
  -22.0544   -2.7562   23.2913 H   0  0  0  0  0  0
  -22.3919  -11.9989   22.4827 H   0  0  0  0  0  0
  -21.0943  -13.1366   22.2640 H   0  0  0  0  0  0
  -24.6609  -15.8522   20.4892 H   0  0  0  0  0  0
  -26.2978  -15.6205   20.1505 H   0  0  0  0  0  0
  -26.7084  -32.5584   23.1130 H   0  0  0  0  0  0
  -25.0124  -33.9765   25.0515 H   0  0  0  0  0  0
  -22.6809  -31.3083   21.4021 H   0  0  0  0  0  0
  -23.3754  -35.9664   23.3278 H   0  0  0  0  0  0
  -24.3612  -36.8948   22.2041 H   0  0  0  0  0  0
  -23.7270  -37.6529   23.6647 H   0  0  0  0  0  0
  -25.9972  -31.6213   20.5694 H   0  0  0  0  0  0
  -26.8103  -30.9313   21.9456 H   0  0  0  0  0  0
  -28.0959  -29.1796   21.1256 H   0  0  0  0  0  0
  -26.0944  -25.9889   19.0209 H   0  0  0  0  0  0
  -23.9830  -27.2700   19.0671 H   0  0  0  0  0  0
  -23.7004  -30.5845   19.3950 H   0  0  0  0  0  0
  -22.7288  -29.2271   19.8753 H   0  0  0  0  0  0
  -25.1280  -36.1960   25.0824 H   0  0  0  0  0  0
  -20.9938  -28.3263   24.1464 H   0  0  0  0  0  0
  -20.5711  -26.2286   23.3607 H   0  0  0  0  0  0
  -21.6642  -26.7506   22.1206 H   0  0  0  0  0  0
  -19.6931  -25.6326   21.1234 H   0  0  0  0  0  0
  -19.6696  -27.3237   20.6767 H   0  0  0  0  0  0
  -17.4201  -26.6687   21.4004 H   0  0  0  0  0  0
  -18.0309  -26.0079   22.9006 H   0  0  0  0  0  0
  -19.7913  -30.7237   24.2355 H   0  0  0  0  0  0
  -17.5001  -31.6278   24.5178 H   0  0  0  0  0  0
  -15.5344  -30.3035   23.7606 H   0  0  0  0  0  0
  -15.8643  -28.0872   22.7015 H   0  0  0  0  0  0
  -24.5954  -30.7002   25.7763 H   0  0  0  0  0  0
  -24.9011  -32.2806   26.4898 H   0  0  0  0  0  0
  -25.8190  -30.8787   27.0143 H   0  0  0  0  0  0
  -26.2774  -29.6736   24.1149 H   0  0  0  0  0  0
  -27.4244  -29.7259   25.4337 H   0  0  0  0  0  0
  -27.8524  -30.4323   23.8929 H   0  0  0  0  0  0
  -27.2687  -33.3538   26.2032 H   0  0  0  0  0  0
  -28.3851  -32.6866   25.0208 H   0  0  0  0  0  0
  -28.0783  -31.8360   26.5274 H   0  0  0  0  0  0
  -28.2575  -38.0129   24.7551 H   0  0  0  0  0  0
  -28.1133  -36.2661   24.6199 H   0  0  0  0  0  0
  -27.2323  -37.1352   25.8852 H   0  0  0  0  0  0
  -20.9240  -29.8744   21.6920 H   0  0  0  0  0  0
  -26.0187  -38.2862   24.1433 H   0  0  0  0  0  0
  -29.6812  -12.5271   14.2841 H   0  0  0  0  0  0
  -34.0829  -11.0737   17.3344 H   0  0  0  0  0  0
  -30.5092  -14.8293   14.4592 H   0  0  0  0  0  0
  -34.6215  -19.2821   17.9876 H   0  0  0  0  0  0
  -34.5769  -17.6032   16.2247 H   0  0  0  0  0  0
  -33.2510   -8.7440   17.1497 H   0  0  0  0  0  0
  -33.9219  -13.4628   16.7313 H   0  0  0  0  0  0
  -29.9123  -10.1449   14.7869 H   0  0  0  0  0  0
  -31.0900  -17.5620   19.7581 H   0  0  0  0  0  0
  -32.1089  -16.3587   14.9905 H   0  0  0  0  0  0
  -33.7276  -15.7943   15.1582 H   0  0  0  0  0  0
  -31.2192  -14.5401   17.8152 H   0  0  0  0  0  0
  -29.9854  -15.6736   17.3285 H   0  0  0  0  0  0
  -33.8034  -19.9478   20.2783 H   0  0  0  0  0  0
  -32.2234  -19.4429   20.8485 H   0  0  0  0  0  0
  -30.1052  -22.4822   18.0365 H   0  0  0  0  0  0
  -31.3577  -23.3000   18.9399 H   0  0  0  0  0  0
  -30.0219  -25.1637   18.9908 H   0  0  0  0  0  0
  -28.4698  -24.5257   18.4547 H   0  0  0  0  0  0
  -30.1595  -20.5431   19.4885 H   0  0  0  0  0  0
  -30.9244  -21.4320   20.7909 H   0  0  0  0  0  0
  -29.0454  -25.4056   21.3407 H   0  0  0  0  0  0
  -27.4679  -25.0623   20.6769 H   0  0  0  0  0  0
  -31.6241   -7.1712   16.0881 H   0  0  0  0  0  0
  -30.3664   -7.7286   15.0952 H   0  0  0  0  0  0
  -29.1034  -15.1040   19.3465 H   0  0  0  0  0  0
  -29.8910  -23.4949   20.8009 H   0  0  0  0  0  0
  -32.2120  -20.6905   18.2807 H   0  0  0  0  0  0
  -32.8863  -21.6614   19.3985 H   0  0  0  0  0  0
  1 25  1  0  0  0
  1 30  2  0  0  0
  1 95  1  0  0  0
  2  3  1  0  0  0
  2 25  1  0  0  0
  2 98  1  0  0  0
  2 99  1  0  0  0
  3  4  1  0  0  0
  3100  1  0  0  0
  3101  1  0  0  0
  4  5  1  0  0  0
  4102  1  0  0  0
  4103  1  0  0  0
  5  6  1  0  0  0
  5 26  1  0  0  0
  5104  1  0  0  0
  6 25  1  0  0  0
  6105  1  0  0  0
  6106  1  0  0  0
  7  8  2  0  0  0
  7 26  1  0  0  0
  7 29  1  0  0  0
  8  9  1  0  0  0
  8 22  1  0  0  0
  9 10  1  0  0  0
  9 27  2  0  0  0
 10 11  2  0  0  0
 10 15  1  0  0  0
 11 12  1  0  0  0
 11107  1  0  0  0
 12 13  2  0  0  0
 12108  1  0  0  0
 13 14  1  0  0  0
 13 31  1  0  0  0
 14 15  2  0  0  0
 14109  1  0  0  0
 15110  1  0  0  0
 16 17  2  0  0  0
 16 21  1  0  0  0
 16 31  1  0  0  0
 17 18  1  0  0  0
 17111  1  0  0  0
 18 19  2  0  0  0
 18112  1  0  0  0
 19 20  1  0  0  0
 19 24  1  0  0  0
 20 21  2  0  0  0
 20113  1  0  0  0
 21 23  1  0  0  0
 22 28  1  0  0  0
 22 32  2  0  0  0
 26 27  1  0  0  0
 28114  1  0  0  0
 28115  1  0  0  0
 29116  1  0  0  0
 29117  1  0  0  0
 33 34  1  0  0  0
 33 66  1  0  0  0
 33 70  2  0  0  0
 34 36  1  0  0  0
 34 59  1  0  0  0
 34118  1  0  0  0
 35 44  2  0  0  0
 35 45  1  0  0  0
 35 68  1  0  0  0
 36 56  1  0  0  0
 36119  1  0  0  0
 37 39  1  0  0  0
 37 47  1  0  0  0
 37 66  1  0  0  0
 37120  1  0  0  0
 38 43  2  0  0  0
 38 46  1  0  0  0
 38 47  1  0  0  0
 39 64  1  0  0  0
 39 67  2  0  0  0
 40 52  1  0  0  0
 40 53  2  0  0  0
 40 58  1  0  0  0
 41121  1  0  0  0
 41122  1  0  0  0
 41123  1  0  0  0
 41 48  1  0  0  0
 42 43  1  0  0  0
 42 66  1  0  0  0
 42124  1  0  0  0
 42125  1  0  0  0
 43 44  1  0  0  0
 44126  1  0  0  0
 45 46  2  0  0  0
 45127  1  0  0  0
 46128  1  0  0  0
 47129  1  0  0  0
 47130  1  0  0  0
 48 56  1  0  0  0
 48 65  1  0  0  0
 48131  1  0  0  0
 49 50  1  0  0  0
 49 53  1  0  0  0
 49 64  1  0  0  0
 49132  1  0  0  0
 50 51  1  0  0  0
 50133  1  0  0  0
 50134  1  0  0  0
 51 52  1  0  0  0
 51135  1  0  0  0
 51136  1  0  0  0
 52137  1  0  0  0
 52138  1  0  0  0
 53 54  1  0  0  0
 54 55  2  0  0  0
 54139  1  0  0  0
 55 57  1  0  0  0
 55140  1  0  0  0
 56 69  2  0  0  0
 57 58  2  0  0  0
 57141  1  0  0  0
 58142  1  0  0  0
 59 60  1  0  0  0
 59 61  1  0  0  0
 59 62  1  0  0  0
 60143  1  0  0  0
 60144  1  0  0  0
 60145  1  0  0  0
 61146  1  0  0  0
 61147  1  0  0  0
 61148  1  0  0  0
 62149  1  0  0  0
 62150  1  0  0  0
 62151  1  0  0  0
 63 65  1  0  0  0
 63152  1  0  0  0
 63153  1  0  0  0
 63154  1  0  0  0
 64155  1  0  0  0
 65156  1  0  0  0
 68 93  1  0  0  0
 71 73  2  0  0  0
 71 81  1  0  0  0
 71157  1  0  0  0
 72 76  1  0  0  0
 72 80  2  0  0  0
 72158  1  0  0  0
 73 82  1  0  0  0
 73159  1  0  0  0
 74 75  2  0  0  0
 74 83  1  0  0  0
 74160  1  0  0  0
 75 84  1  0  0  0
 75161  1  0  0  0
 76 86  2  0  0  0
 76162  1  0  0  0
 77 80  1  0  0  0
 77 82  2  0  0  0
 77163  1  0  0  0
 78 81  2  0  0  0
 78 86  1  0  0  0
 78164  1  0  0  0
 79 83  2  0  0  0
 79 85  1  0  0  0
 79165  1  0  0  0
 80 81  1  0  0  0
 82 87  1  0  0  0
 83 89  1  0  0  0
 84 85  2  0  0  0
 84 87  1  0  0  0
 85 88  1  0  0  0
 86 94  1  0  0  0
 87166  1  0  0  0
 87167  1  0  0  0
 88 95  1  0  0  0
 88168  1  0  0  0
 88169  1  0  0  0
 89 97  1  0  0  0
 89170  1  0  0  0
 89171  1  0  0  0
 90 92  1  0  0  0
 90 96  1  0  0  0
 90172  1  0  0  0
 90173  1  0  0  0
 91 93  1  0  0  0
 91 96  1  0  0  0
 91174  1  0  0  0
 91175  1  0  0  0
 92 97  1  0  0  0
 92176  1  0  0  0
 92177  1  0  0  0
 93178  1  0  0  0
 93179  1  0  0  0
 94180  1  0  0  0
 94181  1  0  0  0
 95182  1  0  0  0
 96183  1  0  0  0
 97184  1  0  0  0
 97185  1  0  0  0
M  CHG  1  97   1
M  ISO  4   1 100  68 101  93 101  95 100
M  END
> <chiral flag>
0

> <version>
0

> <s_m_source_file>
/data/baiqing/PycharmProjects/Reinvent-master-3.2/result/LINK_invent/BTK/process_docking_weight1_custom_product_contain_oxygen_bond_distance_aromatic_linkinvent_7_9_3/rearranged_h_0005.sdf

> <i_m_source_file_index>
22

> <r_mmod_Potential_Energy-OPLS-2005>
-124.423919677734

> <r_mmod_Stretch_Energy-OPLS-2005>
38.3181610107422

> <r_mmod_Bend_Energy-OPLS-2005>
124.92652130127

> <r_mmod_Torsional_Energy-OPLS-2005>
289.703857421875

> <r_mmod_Improper_Torsional_Energy-OPLS-2005>
32.5482139587402

> <r_mmod_Van_der_Waal_Energy-OPLS-2005>
184.581817626953

> <r_mmod_Electrostatic_Energy-OPLS-2005>
-339.862182617188

> <r_mmod_Solvation_Energy-OPLS-2005>
-501.372161865234

> <b_mmod_Minimization_Converged-OPLS-2005>
0

> <r_mmod_RMS_Derivative-OPLS-2005>
6.90728187561035

$$$$
22
                    3D
 Structure written by MMmdl.
185193  0  0  1  0            999 V2000
  -30.7438  -14.3648   20.6685 C   0  0  0  0  0  0
  -30.4065  -12.2747   19.3947 C   0  0  0  0  0  0
  -29.4786  -12.5375   18.1931 C   0  0  0  0  0  0
  -28.0031  -12.3702   18.6075 C   0  0  0  0  0  0
  -27.6607  -13.1944   19.8775 C   0  0  2  0  0  0
  -28.6996  -12.9233   20.9910 C   0  0  0  0  0  0
  -25.2539  -13.8096   20.5704 C   0  0  0  0  0  0
  -24.1785  -13.0407   20.9202 C   0  0  0  0  0  0
  -24.6320  -11.6865   20.8716 C   0  0  0  0  0  0
  -23.9003  -10.4275   21.0390 C   0  0  0  0  0  0
  -24.3565   -9.4199   21.9170 C   0  0  0  0  0  0
  -23.6247   -8.2222   22.0736 C   0  0  0  0  0  0
  -22.4226   -8.0257   21.3535 C   0  0  0  0  0  0
  -21.9855   -9.0225   20.4627 C   0  0  0  0  0  0
  -22.7171  -10.2108   20.3039 C   0  0  0  0  0  0
  -21.6848   -6.0690   22.5292 C   0  0  0  0  0  0
  -21.4003   -6.5617   23.8214 C   0  0  0  0  0  0
  -21.3654   -5.6784   24.9200 C   0  0  0  0  0  0
  -21.6035   -4.3040   24.7258 C   0  0  0  0  0  0
  -21.8836   -3.8119   23.4390 C   0  0  0  0  0  0
  -21.9181   -4.6917   22.3437 C   0  0  0  0  0  0
  -22.7813  -13.5193   21.1919 C   0  0  0  0  0  0
  -22.1649   -4.2088   21.1008 F   0  0  0  0  0  0
  -21.5634   -3.4549   25.7782 F   0  0  0  0  0  0
  -30.0450  -13.2190   20.4604 N   0  0  0  0  0  0
  -26.2981  -12.9268   20.3349 N   0  0  0  0  0  0
  -25.9237  -11.6438   20.5721 N   0  0  0  0  0  0
  -22.0450  -12.8163   22.0460 N   0  0  0  0  0  0
  -25.4261  -15.1813   20.4164 N   0  0  0  0  0  0
  -31.7932  -14.6410   20.0798 O   0  0  0  0  0  0
  -21.6616   -6.8825   21.4238 O   0  0  0  0  0  0
  -22.3512  -14.5522   20.6802 O   0  0  0  0  0  0
  -24.6115  -31.8732   23.2147 C   0  0  0  0  0  0
  -25.9017  -32.4861   23.8421 C   0  0  1  0  0  0
  -27.2377  -27.4676   20.0577 C   0  0  0  0  0  0
  -25.5857  -33.8658   24.2375 N   0  0  0  0  0  0
  -23.3987  -30.4957   21.5603 C   0  0  2  0  0  0
  -24.8406  -28.9624   20.1218 C   0  0  0  0  0  0
  -22.7423  -29.4648   22.5059 C   0  0  0  0  0  0
  -18.0266  -28.1357   22.8471 C   0  0  0  0  0  0
  -24.1443  -36.7333   23.2633 C   0  0  0  0  0  0
  -25.9261  -30.8401   21.3689 C   0  0  0  0  0  0
  -26.0016  -29.4781   20.7130 C   0  0  0  0  0  0
  -27.2005  -28.7350   20.6807 C   0  0  0  0  0  0
  -26.0519  -26.9552   19.4810 C   0  0  0  0  0  0
  -24.8572  -27.6965   19.5134 C   0  0  0  0  0  0
  -23.6050  -29.8320   20.1737 C   0  0  0  0  0  0
  -25.4063  -36.3130   24.0357 C   0  0  1  0  0  0
  -20.5853  -28.3635   23.1347 C   0  0  2  0  0  0
  -20.6766  -26.9399   22.5417 C   0  0  0  0  0  0
  -19.5751  -26.6394   21.5198 C   0  0  0  0  0  0
  -18.1925  -26.7903   22.1599 C   0  0  0  0  0  0
  -19.1504  -28.8824   23.2892 C   0  0  0  0  0  0
  -18.9449  -30.1438   23.8883 C   0  0  0  0  0  0
  -17.6451  -30.6580   24.0538 C   0  0  0  0  0  0
  -25.9013  -34.9497   23.5166 C   0  0  0  0  0  0
  -16.5335  -29.9070   23.6313 C   0  0  0  0  0  0
  -16.7262  -28.6479   23.0329 C   0  0  0  0  0  0
  -26.4454  -31.6579   25.0710 C   0  0  0  0  0  0
  -25.3775  -31.3614   26.1490 C   0  0  0  0  0  0
  -27.0263  -30.3031   24.6028 C   0  0  0  0  0  0
  -27.6070  -32.4278   25.7429 C   0  0  0  0  0  0
  -27.5546  -37.1826   24.8459 C   0  0  0  0  0  0
  -21.4142  -29.3008   22.3794 N   0  0  0  0  0  0
  -26.4241  -37.3810   23.9433 N   0  0  0  0  0  0
  -24.6639  -31.0816   22.1079 N   0  0  0  0  0  0
  -23.4203  -28.8196   23.3075 O   0  0  0  0  0  0
  -28.4391  -26.7938   20.0280 O   0  0  0  0  0  0
  -26.5585  -34.8937   22.4730 O   0  0  0  0  0  0
  -23.5315  -32.1523   23.7533 O   0  0  0  0  0  0
  -28.0639  -19.3599   22.7591 C   0  0  0  0  0  0
  -27.1391  -19.2560   21.7040 C   0  0  0  0  0  0
  -28.4753  -17.4798   20.7242 C   0  0  0  0  0  0
  -29.4011  -17.5585   21.7902 C   0  0  0  0  0  0
  -29.2155  -18.5305   22.8116 C   0  0  0  0  0  0
  -27.3580  -18.3335   20.6694 C   0  0  0  0  0  0
  -29.7914  -24.7084   19.8448 C   0  0  0  0  0  0
  -31.3186  -23.2663   27.1889 C   0  0  0  0  0  0
  -30.5812  -16.5864   21.8177 C   0  0  0  0  0  0
  -28.4544  -25.4403   19.5817 C   0  0  0  0  0  0
  -30.8070  -25.9039   23.5068 C   0  0  0  0  0  0
  -29.8949  -25.9956   24.7416 C   0  0  0  0  0  0
  -30.3211  -26.8201   22.3737 C   0  0  0  0  0  0
  -30.4522  -25.2874   25.9887 C   0  0  0  0  0  0
  -30.0600  -20.8534   24.9236 C   0  0  0  0  0  0
  -31.0462  -26.5934   21.0317 C   0  0  0  0  0  0
  -29.1587  -21.6396   25.9067 C   0  0  0  0  0  0
  -29.8270  -19.3296   25.0142 C   0  0  0  0  0  0
  -30.5772  -23.7476   25.9254 C   0  0  2  0  0  0
  -30.8371  -25.2488   20.4944 N   0  0  0  0  0  0
  -30.1777  -15.2068   21.5387 N   0  0  0  0  0  0
  -29.2440  -23.1124   25.7594 N   0  3  0  0  0  0
  -29.8955  -23.5491   19.4454 O   0  0  0  0  0  0
  -30.1655  -18.6347   23.8112 O   0  0  0  0  0  0
  -26.2519  -18.2469   19.3475 Cl  0  0  0  0  0  0
  -31.4541  -12.3518   19.1030 H   0  0  0  0  0  0
  -30.2746  -11.2517   19.7480 H   0  0  0  0  0  0
  -29.7161  -11.8608   17.3708 H   0  0  0  0  0  0
  -29.6411  -13.5493   17.8192 H   0  0  0  0  0  0
  -27.8297  -11.3092   18.7932 H   0  0  0  0  0  0
  -27.3426  -12.6417   17.7829 H   0  0  0  0  0  0
  -27.7158  -14.2489   19.6016 H   0  0  0  0  0  0
  -28.6583  -11.8739   21.2848 H   0  0  0  0  0  0
  -28.4452  -13.4763   21.8945 H   0  0  0  0  0  0
  -25.2711   -9.5681   22.4754 H   0  0  0  0  0  0
  -23.9960   -7.4607   22.7459 H   0  0  0  0  0  0
  -21.0784   -8.8736   19.8937 H   0  0  0  0  0  0
  -22.3619  -10.9647   19.6153 H   0  0  0  0  0  0
  -21.1998   -7.6121   23.9708 H   0  0  0  0  0  0
  -21.1454   -6.0517   25.9088 H   0  0  0  0  0  0
  -22.0610   -2.7577   23.2941 H   0  0  0  0  0  0
  -22.4040  -11.9781   22.4810 H   0  0  0  0  0  0
  -21.1066  -13.1194   22.2699 H   0  0  0  0  0  0
  -24.6540  -15.8299   20.5054 H   0  0  0  0  0  0
  -26.2752  -15.6274   20.1024 H   0  0  0  0  0  0
  -26.7092  -32.5564   23.1186 H   0  0  0  0  0  0
  -24.9905  -33.9814   25.0447 H   0  0  0  0  0  0
  -22.6863  -31.3125   21.4299 H   0  0  0  0  0  0
  -23.3677  -35.9694   23.3334 H   0  0  0  0  0  0
  -24.3537  -36.8936   22.2040 H   0  0  0  0  0  0
  -23.7221  -37.6555   23.6638 H   0  0  0  0  0  0
  -26.0421  -31.6119   20.6056 H   0  0  0  0  0  0
  -26.8142  -30.8872   21.9902 H   0  0  0  0  0  0
  -28.1045  -29.1349   21.1189 H   0  0  0  0  0  0
  -26.0288  -25.9968   18.9848 H   0  0  0  0  0  0
  -23.9611  -27.2925   19.0620 H   0  0  0  0  0  0
  -23.7220  -30.6108   19.4193 H   0  0  0  0  0  0
  -22.7257  -29.2598   19.8739 H   0  0  0  0  0  0
  -25.1232  -36.2017   25.0863 H   0  0  0  0  0  0
  -20.9886  -28.3136   24.1479 H   0  0  0  0  0  0
  -20.5701  -26.2246   23.3591 H   0  0  0  0  0  0
  -21.6652  -26.7469   22.1233 H   0  0  0  0  0  0
  -19.6941  -25.6316   21.1213 H   0  0  0  0  0  0
  -19.6705  -27.3213   20.6741 H   0  0  0  0  0  0
  -17.4198  -26.6656   21.3988 H   0  0  0  0  0  0
  -18.0346  -26.0048   22.9004 H   0  0  0  0  0  0
  -19.7941  -30.7250   24.2220 H   0  0  0  0  0  0
  -17.5012  -31.6266   24.5119 H   0  0  0  0  0  0
  -15.5350  -30.2971   23.7657 H   0  0  0  0  0  0
  -15.8647  -28.0843   22.7014 H   0  0  0  0  0  0
  -24.5946  -30.6939   25.7797 H   0  0  0  0  0  0
  -24.9004  -32.2756   26.5049 H   0  0  0  0  0  0
  -25.8244  -30.8738   27.0172 H   0  0  0  0  0  0
  -26.2798  -29.6808   24.1087 H   0  0  0  0  0  0
  -27.4039  -29.7229   25.4447 H   0  0  0  0  0  0
  -27.8642  -30.4343   23.9162 H   0  0  0  0  0  0
  -27.2746  -33.3605   26.1997 H   0  0  0  0  0  0
  -28.3883  -32.6776   25.0232 H   0  0  0  0  0  0
  -28.0762  -31.8371   26.5311 H   0  0  0  0  0  0
  -28.2581  -38.0109   24.7467 H   0  0  0  0  0  0
  -28.1005  -36.2606   24.6329 H   0  0  0  0  0  0
  -27.2272  -37.1542   25.8865 H   0  0  0  0  0  0
  -20.9336  -29.8665   21.6967 H   0  0  0  0  0  0
  -26.0135  -38.2889   24.1447 H   0  0  0  0  0  0
  -27.8571  -20.1027   23.5132 H   0  0  0  0  0  0
  -26.2690  -19.8975   21.6878 H   0  0  0  0  0  0
  -28.6256  -16.7584   19.9362 H   0  0  0  0  0  0
  -32.2863  -23.7633   27.2657 H   0  0  0  0  0  0
  -31.5276  -22.1980   27.1735 H   0  0  0  0  0  0
  -30.7555  -23.4922   28.0957 H   0  0  0  0  0  0
  -31.0820  -16.5993   22.7835 H   0  0  0  0  0  0
  -31.3189  -16.9361   21.0937 H   0  0  0  0  0  0
  -27.6730  -24.8695   20.0870 H   0  0  0  0  0  0
  -28.2588  -25.4069   18.5088 H   0  0  0  0  0  0
  -30.8430  -24.8705   23.1600 H   0  0  0  0  0  0
  -31.8287  -26.1784   23.7711 H   0  0  0  0  0  0
  -28.8972  -25.6270   24.4977 H   0  0  0  0  0  0
  -29.7607  -27.0491   24.9973 H   0  0  0  0  0  0
  -30.4464  -27.8651   22.6683 H   0  0  0  0  0  0
  -29.2483  -26.6787   22.2574 H   0  0  0  0  0  0
  -29.8375  -25.5578   26.8495 H   0  0  0  0  0  0
  -31.4372  -25.7059   26.1960 H   0  0  0  0  0  0
  -31.1131  -21.0549   25.1178 H   0  0  0  0  0  0
  -29.8896  -21.2040   23.9061 H   0  0  0  0  0  0
  -32.1170  -26.7285   21.1831 H   0  0  0  0  0  0
  -30.7718  -27.3444   20.2911 H   0  0  0  0  0  0
  -29.3560  -21.3577   26.9429 H   0  0  0  0  0  0
  -28.1182  -21.3675   25.7236 H   0  0  0  0  0  0
  -28.8060  -19.0941   25.3193 H   0  0  0  0  0  0
  -30.4456  -18.9221   25.8131 H   0  0  0  0  0  0
  -31.1903  -23.4833   25.0609 H   0  0  0  0  0  0
  -31.6312  -24.6306   20.5930 H   0  0  0  0  0  0
  -29.3473  -14.8728   22.0025 H   0  0  0  0  0  0
  -28.6074  -23.5193   26.4257 H   0  0  0  0  0  0
  -28.8894  -23.3434   24.8447 H   0  0  0  0  0  0
  1 25  1  0  0  0
  1 30  2  0  0  0
  1 91  1  0  0  0
  2  3  1  0  0  0
  2 25  1  0  0  0
  2 96  1  0  0  0
  2 97  1  0  0  0
  3  4  1  0  0  0
  3 98  1  0  0  0
  3 99  1  0  0  0
  4  5  1  0  0  0
  4100  1  0  0  0
  4101  1  0  0  0
  5  6  1  0  0  0
  5 26  1  0  0  0
  5102  1  0  0  0
  6 25  1  0  0  0
  6103  1  0  0  0
  6104  1  0  0  0
  7  8  2  0  0  0
  7 26  1  0  0  0
  7 29  1  0  0  0
  8  9  1  0  0  0
  8 22  1  0  0  0
  9 10  1  0  0  0
  9 27  2  0  0  0
 10 11  2  0  0  0
 10 15  1  0  0  0
 11 12  1  0  0  0
 11105  1  0  0  0
 12 13  2  0  0  0
 12106  1  0  0  0
 13 14  1  0  0  0
 13 31  1  0  0  0
 14 15  2  0  0  0
 14107  1  0  0  0
 15108  1  0  0  0
 16 17  2  0  0  0
 16 21  1  0  0  0
 16 31  1  0  0  0
 17 18  1  0  0  0
 17109  1  0  0  0
 18 19  2  0  0  0
 18110  1  0  0  0
 19 20  1  0  0  0
 19 24  1  0  0  0
 20 21  2  0  0  0
 20111  1  0  0  0
 21 23  1  0  0  0
 22 28  1  0  0  0
 22 32  2  0  0  0
 26 27  1  0  0  0
 28112  1  0  0  0
 28113  1  0  0  0
 29114  1  0  0  0
 29115  1  0  0  0
 33 34  1  0  0  0
 33 66  1  0  0  0
 33 70  2  0  0  0
 34 36  1  0  0  0
 34 59  1  0  0  0
 34116  1  0  0  0
 35 44  2  0  0  0
 35 45  1  0  0  0
 35 68  1  0  0  0
 36 56  1  0  0  0
 36117  1  0  0  0
 37 39  1  0  0  0
 37 47  1  0  0  0
 37 66  1  0  0  0
 37118  1  0  0  0
 38 43  2  0  0  0
 38 46  1  0  0  0
 38 47  1  0  0  0
 39 64  1  0  0  0
 39 67  2  0  0  0
 40 52  1  0  0  0
 40 53  2  0  0  0
 40 58  1  0  0  0
 41119  1  0  0  0
 41120  1  0  0  0
 41121  1  0  0  0
 41 48  1  0  0  0
 42 43  1  0  0  0
 42 66  1  0  0  0
 42122  1  0  0  0
 42123  1  0  0  0
 43 44  1  0  0  0
 44124  1  0  0  0
 45 46  2  0  0  0
 45125  1  0  0  0
 46126  1  0  0  0
 47127  1  0  0  0
 47128  1  0  0  0
 48 56  1  0  0  0
 48 65  1  0  0  0
 48129  1  0  0  0
 49 50  1  0  0  0
 49 53  1  0  0  0
 49 64  1  0  0  0
 49130  1  0  0  0
 50 51  1  0  0  0
 50131  1  0  0  0
 50132  1  0  0  0
 51 52  1  0  0  0
 51133  1  0  0  0
 51134  1  0  0  0
 52135  1  0  0  0
 52136  1  0  0  0
 53 54  1  0  0  0
 54 55  2  0  0  0
 54137  1  0  0  0
 55 57  1  0  0  0
 55138  1  0  0  0
 56 69  2  0  0  0
 57 58  2  0  0  0
 57139  1  0  0  0
 58140  1  0  0  0
 59 60  1  0  0  0
 59 61  1  0  0  0
 59 62  1  0  0  0
 60141  1  0  0  0
 60142  1  0  0  0
 60143  1  0  0  0
 61144  1  0  0  0
 61145  1  0  0  0
 61146  1  0  0  0
 62147  1  0  0  0
 62148  1  0  0  0
 62149  1  0  0  0
 63 65  1  0  0  0
 63150  1  0  0  0
 63151  1  0  0  0
 63152  1  0  0  0
 64153  1  0  0  0
 65154  1  0  0  0
 68 80  1  0  0  0
 71 72  2  0  0  0
 71 75  1  0  0  0
 71155  1  0  0  0
 72 76  1  0  0  0
 72156  1  0  0  0
 73 74  1  0  0  0
 73 76  2  0  0  0
 73157  1  0  0  0
 74 75  2  0  0  0
 74 79  1  0  0  0
 75 94  1  0  0  0
 76 95  1  0  0  0
 77 80  1  0  0  0
 77 90  1  0  0  0
 77 93  2  0  0  0
 78158  1  0  0  0
 78159  1  0  0  0
 78160  1  0  0  0
 78 89  1  0  0  0
 79 91  1  0  0  0
 79161  1  0  0  0
 79162  1  0  0  0
 80163  1  0  0  0
 80164  1  0  0  0
 81 82  1  0  0  0
 81 83  1  0  0  0
 81165  1  0  0  0
 81166  1  0  0  0
 82 84  1  0  0  0
 82167  1  0  0  0
 82168  1  0  0  0
 83 86  1  0  0  0
 83169  1  0  0  0
 83170  1  0  0  0
 84 89  1  0  0  0
 84171  1  0  0  0
 84172  1  0  0  0
 85 87  1  0  0  0
 85 88  1  0  0  0
 85173  1  0  0  0
 85174  1  0  0  0
 86 90  1  0  0  0
 86175  1  0  0  0
 86176  1  0  0  0
 87 92  1  0  0  0
 87177  1  0  0  0
 87178  1  0  0  0
 88 94  1  0  0  0
 88179  1  0  0  0
 88180  1  0  0  0
 89 92  1  0  0  0
 89181  1  0  0  0
 90182  1  0  0  0
 91183  1  0  0  0
 92184  1  0  0  0
 92185  1  0  0  0
M  CHG  1  92   1
M  ISO  4   1 100  68 101  80 101  91 100
M  END
> <chiral flag>
0

> <version>
0

> <s_m_source_file>
/data/baiqing/PycharmProjects/Reinvent-master-3.2/result/LINK_invent/BTK/process_docking_weight1_custom_product_contain_oxygen_bond_distance_aromatic_linkinvent_7_9_3/rearranged_h_0005.sdf

> <i_m_source_file_index>
23

> <r_mmod_Potential_Energy-OPLS-2005>
-276.515228271484

> <r_mmod_Stretch_Energy-OPLS-2005>
36.9510078430176

> <r_mmod_Bend_Energy-OPLS-2005>
130.058624267578

> <r_mmod_Torsional_Energy-OPLS-2005>
225.605361938477

> <r_mmod_Improper_Torsional_Energy-OPLS-2005>
2.13899278640747

> <r_mmod_Van_der_Waal_Energy-OPLS-2005>
156.304061889648

> <r_mmod_Electrostatic_Energy-OPLS-2005>
-345.388397216797

> <r_mmod_Solvation_Energy-OPLS-2005>
-490.336883544922

> <b_mmod_Minimization_Converged-OPLS-2005>
0

> <r_mmod_RMS_Derivative-OPLS-2005>
4.67631864547729

$$$$
23
                    3D
 Structure written by MMmdl.
176185  0  0  1  0            999 V2000
  -30.7305  -14.3541   20.6894 C   0  0  0  0  0  0
  -30.4334  -12.2818   19.3858 C   0  0  0  0  0  0
  -29.4948  -12.5390   18.1901 C   0  0  0  0  0  0
  -28.0156  -12.3962   18.6023 C   0  0  0  0  0  0
  -27.6775  -13.1938   19.8889 C   0  0  2  0  0  0
  -28.7114  -12.8824   20.9922 C   0  0  0  0  0  0
  -25.2662  -13.8135   20.5646 C   0  0  0  0  0  0
  -24.1888  -13.0445   20.9141 C   0  0  0  0  0  0
  -24.6415  -11.6894   20.8707 C   0  0  0  0  0  0
  -23.9064  -10.4295   21.0388 C   0  0  0  0  0  0
  -24.3611   -9.4214   21.9174 C   0  0  0  0  0  0
  -23.6287   -8.2253   22.0750 C   0  0  0  0  0  0
  -22.4270   -8.0287   21.3543 C   0  0  0  0  0  0
  -21.9906   -9.0260   20.4641 C   0  0  0  0  0  0
  -22.7233  -10.2138   20.3043 C   0  0  0  0  0  0
  -21.6857   -6.0733   22.5278 C   0  0  0  0  0  0
  -21.4009   -6.5634   23.8209 C   0  0  0  0  0  0
  -21.3654   -5.6788   24.9175 C   0  0  0  0  0  0
  -21.6052   -4.3052   24.7228 C   0  0  0  0  0  0
  -21.8819   -3.8144   23.4346 C   0  0  0  0  0  0
  -21.9192   -4.6961   22.3405 C   0  0  0  0  0  0
  -22.7908  -13.5250   21.1818 C   0  0  0  0  0  0
  -22.1663   -4.2141   21.0984 F   0  0  0  0  0  0
  -21.5631   -3.4537   25.7743 F   0  0  0  0  0  0
  -30.0586  -13.1951   20.4737 N   0  0  0  0  0  0
  -26.3115  -12.9289   20.3405 N   0  0  0  0  0  0
  -25.9341  -11.6456   20.5743 N   0  0  0  0  0  0
  -22.0547  -12.8249   22.0366 N   0  0  0  0  0  0
  -25.4437  -15.1840   20.4018 N   0  0  0  0  0  0
  -31.7503  -14.6762   20.0702 O   0  0  0  0  0  0
  -21.6639   -6.8877   21.4238 O   0  0  0  0  0  0
  -22.3597  -14.5573   20.6682 O   0  0  0  0  0  0
  -24.6044  -31.8752   23.2098 C   0  0  0  0  0  0
  -25.8964  -32.4852   23.8391 C   0  0  1  0  0  0
  -27.2451  -27.4857   20.1145 C   0  0  0  0  0  0
  -25.5868  -33.8653   24.2356 N   0  0  0  0  0  0
  -23.3891  -30.4936   21.5499 C   0  0  2  0  0  0
  -24.8376  -28.9588   20.1141 C   0  0  0  0  0  0
  -22.7344  -29.4677   22.5012 C   0  0  0  0  0  0
  -18.0273  -28.1369   22.8490 C   0  0  0  0  0  0
  -24.1493  -36.7316   23.2635 C   0  0  0  0  0  0
  -25.9026  -30.8616   21.3450 C   0  0  0  0  0  0
  -25.9855  -29.4906   20.7110 C   0  0  0  0  0  0
  -27.1834  -28.7557   20.7165 C   0  0  0  0  0  0
  -26.0835  -26.9452   19.5166 C   0  0  0  0  0  0
  -24.8790  -27.6809   19.5201 C   0  0  0  0  0  0
  -23.5943  -29.8193   20.1629 C   0  0  0  0  0  0
  -25.4103  -36.3125   24.0357 C   0  0  1  0  0  0
  -20.5857  -28.3637   23.1353 C   0  0  2  0  0  0
  -20.6773  -26.9399   22.5421 C   0  0  0  0  0  0
  -19.5758  -26.6390   21.5204 C   0  0  0  0  0  0
  -18.1930  -26.7917   22.1611 C   0  0  0  0  0  0
  -19.1525  -28.8811   23.2920 C   0  0  0  0  0  0
  -18.9457  -30.1420   23.8924 C   0  0  0  0  0  0
  -17.6469  -30.6574   24.0575 C   0  0  0  0  0  0
  -25.9020  -34.9495   23.5148 C   0  0  0  0  0  0
  -16.5355  -29.9089   23.6312 C   0  0  0  0  0  0
  -16.7274  -28.6508   23.0316 C   0  0  0  0  0  0
  -26.4432  -31.6578   25.0665 C   0  0  0  0  0  0
  -25.3715  -31.3635   26.1427 C   0  0  0  0  0  0
  -27.0238  -30.3059   24.5885 C   0  0  0  0  0  0
  -27.6028  -32.4272   25.7428 C   0  0  0  0  0  0
  -27.5591  -37.1802   24.8475 C   0  0  0  0  0  0
  -21.4088  -29.3029   22.3776 N   0  0  0  0  0  0
  -26.4300  -37.3807   23.9428 N   0  0  0  0  0  0
  -24.6506  -31.0902   22.0968 N   0  0  0  0  0  0
  -23.4144  -28.8214   23.3035 O   0  0  0  0  0  0
  -28.4598  -26.8546   20.1697 O   0  0  0  0  0  0
  -26.5587  -34.8932   22.4709 O   0  0  0  0  0  0
  -23.5266  -32.1475   23.7557 O   0  0  0  0  0  0
  -28.2642  -18.2178   22.2321 C   0  0  0  0  0  0
  -30.5211  -17.3816   20.7907 C   0  0  0  0  0  0
  -28.7232  -16.8881   22.3827 C   0  0  0  0  0  0
  -30.0504  -18.7011   20.6469 C   0  0  0  0  0  0
  -29.8449  -16.4580   21.6210 C   0  0  0  0  0  0
  -28.9146  -19.1161   21.3678 C   0  0  0  0  0  0
  -26.7293  -16.0713   23.6855 C   0  0  0  0  0  0
  -28.0030  -15.9509   23.2732 C   0  0  0  0  0  0
  -32.3959  -22.8147   20.9010 C   0  0  0  0  0  0
  -32.8458  -21.8716   18.5477 C   0  0  0  0  0  0
  -31.3965  -21.6341   20.9953 C   0  0  0  0  0  0
  -33.0092  -20.5913   19.3806 C   0  0  0  0  0  0
  -32.8897  -23.1175   19.4584 C   0  0  1  0  0  0
  -30.7373  -19.6324   19.6658 C   0  0  0  0  0  0
  -30.2177  -25.4703   19.6032 C   0  0  0  0  0  0
  -30.7989  -24.3658   18.7122 C   0  0  0  0  0  0
  -28.7060  -25.6747   19.4357 C   0  0  0  0  0  0
  -30.2278  -15.0917   21.6898 N   0  0  0  0  0  0
  -31.8516  -20.3911   20.2960 N   0  3  2  0  0  0
  -32.2777  -24.3091   18.8134 N   0  3  0  0  0  0
  -28.4467  -20.3804   21.2350 F   0  0  0  0  0  0
  -31.4748  -12.4038   19.0821 H   0  0  0  0  0  0
  -30.3446  -11.2481   19.7234 H   0  0  0  0  0  0
  -29.7244  -11.8489   17.3767 H   0  0  0  0  0  0
  -29.6712  -13.5414   17.7973 H   0  0  0  0  0  0
  -27.8134  -11.3355   18.7589 H   0  0  0  0  0  0
  -27.3675  -12.7118   17.7839 H   0  0  0  0  0  0
  -27.7514  -14.2551   19.6494 H   0  0  0  0  0  0
  -28.6733  -11.8232   21.2503 H   0  0  0  0  0  0
  -28.4510  -13.3998   21.9148 H   0  0  0  0  0  0
  -25.2759   -9.5686   22.4740 H   0  0  0  0  0  0
  -23.9994   -7.4644   22.7469 H   0  0  0  0  0  0
  -21.0839   -8.8772   19.8947 H   0  0  0  0  0  0
  -22.3693  -10.9669   19.6143 H   0  0  0  0  0  0
  -21.1995   -7.6139   23.9709 H   0  0  0  0  0  0
  -21.1477   -6.0521   25.9076 H   0  0  0  0  0  0
  -22.0602   -2.7603   23.2856 H   0  0  0  0  0  0
  -22.4150  -11.9898   22.4739 H   0  0  0  0  0  0
  -21.1162  -13.1267   22.2558 H   0  0  0  0  0  0
  -24.6959  -15.8524   20.5433 H   0  0  0  0  0  0
  -26.3253  -15.6172   20.1591 H   0  0  0  0  0  0
  -26.7029  -32.5586   23.1161 H   0  0  0  0  0  0
  -25.0029  -33.9825   25.0512 H   0  0  0  0  0  0
  -22.6748  -31.3070   21.4122 H   0  0  0  0  0  0
  -23.3755  -35.9646   23.3310 H   0  0  0  0  0  0
  -24.3598  -36.8913   22.2041 H   0  0  0  0  0  0
  -23.7244  -37.6525   23.6630 H   0  0  0  0  0  0
  -25.9819  -31.6211   20.5651 H   0  0  0  0  0  0
  -26.8050  -30.9424   21.9396 H   0  0  0  0  0  0
  -28.0686  -29.1664   21.1835 H   0  0  0  0  0  0
  -26.0939  -25.9630   19.0668 H   0  0  0  0  0  0
  -23.9928  -27.2540   19.0734 H   0  0  0  0  0  0
  -23.6947  -30.5942   19.4022 H   0  0  0  0  0  0
  -22.7178  -29.2355   19.8733 H   0  0  0  0  0  0
  -25.1282  -36.1993   25.0851 H   0  0  0  0  0  0
  -20.9949  -28.3194   24.1479 H   0  0  0  0  0  0
  -20.5677  -26.2244   23.3599 H   0  0  0  0  0  0
  -21.6640  -26.7475   22.1219 H   0  0  0  0  0  0
  -19.6911  -25.6297   21.1228 H   0  0  0  0  0  0
  -19.6682  -27.3196   20.6730 H   0  0  0  0  0  0
  -17.4202  -26.6673   21.4005 H   0  0  0  0  0  0
  -18.0326  -26.0045   22.8993 H   0  0  0  0  0  0
  -19.7940  -30.7218   24.2302 H   0  0  0  0  0  0
  -17.5037  -31.6253   24.5177 H   0  0  0  0  0  0
  -15.5359  -30.3002   23.7614 H   0  0  0  0  0  0
  -15.8678  -28.0848   22.6995 H   0  0  0  0  0  0
  -24.5937  -30.6917   25.7780 H   0  0  0  0  0  0
  -24.8821  -32.2762   26.4845 H   0  0  0  0  0  0
  -25.8103  -30.8857   27.0200 H   0  0  0  0  0  0
  -26.2716  -29.6834   24.1012 H   0  0  0  0  0  0
  -27.4196  -29.7253   25.4227 H   0  0  0  0  0  0
  -27.8466  -30.4483   23.8870 H   0  0  0  0  0  0
  -27.2685  -33.3603   26.1985 H   0  0  0  0  0  0
  -28.3843  -32.6768   25.0240 H   0  0  0  0  0  0
  -28.0656  -31.8369   26.5350 H   0  0  0  0  0  0
  -28.2600  -38.0105   24.7553 H   0  0  0  0  0  0
  -28.1094  -36.2640   24.6277 H   0  0  0  0  0  0
  -27.2315  -37.1445   25.8877 H   0  0  0  0  0  0
  -20.9208  -29.8791   21.7066 H   0  0  0  0  0  0
  -26.0186  -38.2887   24.1424 H   0  0  0  0  0  0
  -27.4055  -18.5718   22.7837 H   0  0  0  0  0  0
  -31.3903  -17.0822   20.2229 H   0  0  0  0  0  0
  -26.2993  -15.3418   24.3557 H   0  0  0  0  0  0
  -26.0892  -16.8809   23.3689 H   0  0  0  0  0  0
  -28.5627  -15.1078   23.6494 H   0  0  0  0  0  0
  -33.2650  -22.5537   21.5061 H   0  0  0  0  0  0
  -31.9893  -23.7042   21.3817 H   0  0  0  0  0  0
  -31.9172  -21.8139   17.9789 H   0  0  0  0  0  0
  -33.6417  -21.9326   17.8051 H   0  0  0  0  0  0
  -30.4342  -21.9647   20.6074 H   0  0  0  0  0  0
  -31.2075  -21.3884   22.0414 H   0  0  0  0  0  0
  -33.9200  -20.6609   19.9792 H   0  0  0  0  0  0
  -33.1599  -19.7259   18.7341 H   0  0  0  0  0  0
  -33.9449  -23.3807   19.5625 H   0  0  0  0  0  0
  -30.0073  -20.2953   19.1959 H   0  0  0  0  0  0
  -31.1062  -19.0087   18.8506 H   0  0  0  0  0  0
  -30.7210  -26.4101   19.3665 H   0  0  0  0  0  0
  -30.4323  -25.2684   20.6535 H   0  0  0  0  0  0
  -30.5427  -24.5788   17.6748 H   0  0  0  0  0  0
  -30.3332  -23.4085   18.9369 H   0  0  0  0  0  0
  -28.1411  -24.8328   19.8389 H   0  0  0  0  0  0
  -28.4423  -25.8088   18.3858 H   0  0  0  0  0  0
  -29.6204  -14.5444   22.2785 H   0  0  0  0  0  0
  -32.2055  -19.7745   21.0133 H   0  0  0  0  0  0
  -32.6417  -24.3598   17.8738 H   0  0  0  0  0  0
  -32.6059  -25.1435   19.2756 H   0  0  0  0  0  0
  1 25  1  0  0  0
  1 30  2  0  0  0
  1 88  1  0  0  0
  2  3  1  0  0  0
  2 25  1  0  0  0
  2 92  1  0  0  0
  2 93  1  0  0  0
  3  4  1  0  0  0
  3 94  1  0  0  0
  3 95  1  0  0  0
  4  5  1  0  0  0
  4 96  1  0  0  0
  4 97  1  0  0  0
  5  6  1  0  0  0
  5 26  1  0  0  0
  5 98  1  0  0  0
  6 25  1  0  0  0
  6 99  1  0  0  0
  6100  1  0  0  0
  7  8  2  0  0  0
  7 26  1  0  0  0
  7 29  1  0  0  0
  8  9  1  0  0  0
  8 22  1  0  0  0
  9 10  1  0  0  0
  9 27  2  0  0  0
 10 11  2  0  0  0
 10 15  1  0  0  0
 11 12  1  0  0  0
 11101  1  0  0  0
 12 13  2  0  0  0
 12102  1  0  0  0
 13 14  1  0  0  0
 13 31  1  0  0  0
 14 15  2  0  0  0
 14103  1  0  0  0
 15104  1  0  0  0
 16 17  2  0  0  0
 16 21  1  0  0  0
 16 31  1  0  0  0
 17 18  1  0  0  0
 17105  1  0  0  0
 18 19  2  0  0  0
 18106  1  0  0  0
 19 20  1  0  0  0
 19 24  1  0  0  0
 20 21  2  0  0  0
 20107  1  0  0  0
 21 23  1  0  0  0
 22 28  1  0  0  0
 22 32  2  0  0  0
 26 27  1  0  0  0
 28108  1  0  0  0
 28109  1  0  0  0
 29110  1  0  0  0
 29111  1  0  0  0
 33 34  1  0  0  0
 33 66  1  0  0  0
 33 70  2  0  0  0
 34 36  1  0  0  0
 34 59  1  0  0  0
 34112  1  0  0  0
 35 44  2  0  0  0
 35 45  1  0  0  0
 35 68  1  0  0  0
 36 56  1  0  0  0
 36113  1  0  0  0
 37 39  1  0  0  0
 37 47  1  0  0  0
 37 66  1  0  0  0
 37114  1  0  0  0
 38 43  2  0  0  0
 38 46  1  0  0  0
 38 47  1  0  0  0
 39 64  1  0  0  0
 39 67  2  0  0  0
 40 52  1  0  0  0
 40 53  2  0  0  0
 40 58  1  0  0  0
 41115  1  0  0  0
 41116  1  0  0  0
 41117  1  0  0  0
 41 48  1  0  0  0
 42 43  1  0  0  0
 42 66  1  0  0  0
 42118  1  0  0  0
 42119  1  0  0  0
 43 44  1  0  0  0
 44120  1  0  0  0
 45 46  2  0  0  0
 45121  1  0  0  0
 46122  1  0  0  0
 47123  1  0  0  0
 47124  1  0  0  0
 48 56  1  0  0  0
 48 65  1  0  0  0
 48125  1  0  0  0
 49 50  1  0  0  0
 49 53  1  0  0  0
 49 64  1  0  0  0
 49126  1  0  0  0
 50 51  1  0  0  0
 50127  1  0  0  0
 50128  1  0  0  0
 51 52  1  0  0  0
 51129  1  0  0  0
 51130  1  0  0  0
 52131  1  0  0  0
 52132  1  0  0  0
 53 54  1  0  0  0
 54 55  2  0  0  0
 54133  1  0  0  0
 55 57  1  0  0  0
 55134  1  0  0  0
 56 69  2  0  0  0
 57 58  2  0  0  0
 57135  1  0  0  0
 58136  1  0  0  0
 59 60  1  0  0  0
 59 61  1  0  0  0
 59 62  1  0  0  0
 60137  1  0  0  0
 60138  1  0  0  0
 60139  1  0  0  0
 61140  1  0  0  0
 61141  1  0  0  0
 61142  1  0  0  0
 62143  1  0  0  0
 62144  1  0  0  0
 62145  1  0  0  0
 63 65  1  0  0  0
 63146  1  0  0  0
 63147  1  0  0  0
 63148  1  0  0  0
 64149  1  0  0  0
 65150  1  0  0  0
 68 87  1  0  0  0
 71 73  2  0  0  0
 71 76  1  0  0  0
 71151  1  0  0  0
 72 74  1  0  0  0
 72 75  2  0  0  0
 72152  1  0  0  0
 73 75  1  0  0  0
 73 78  1  0  0  0
 74 76  2  0  0  0
 74 84  1  0  0  0
 75 88  1  0  0  0
 76 91  1  0  0  0
 77 78  2  0  0  0
 77153  1  0  0  0
 77154  1  0  0  0
 78155  1  0  0  0
 79 81  1  0  0  0
 79 83  1  0  0  0
 79156  1  0  0  0
 79157  1  0  0  0
 80 82  1  0  0  0
 80 83  1  0  0  0
 80158  1  0  0  0
 80159  1  0  0  0
 81 89  1  0  0  0
 81160  1  0  0  0
 81161  1  0  0  0
 82 89  1  0  0  0
 82162  1  0  0  0
 82163  1  0  0  0
 83 90  1  0  0  0
 83164  1  0  0  0
 84165  1  0  0  0
 84166  1  0  0  0
 84 89  1  0  0  0
 85 86  1  0  0  0
 85 87  1  0  0  0
 85167  1  0  0  0
 85168  1  0  0  0
 86 90  1  0  0  0
 86169  1  0  0  0
 86170  1  0  0  0
 87171  1  0  0  0
 87172  1  0  0  0
 88173  1  0  0  0
 89174  1  0  0  0
 90175  1  0  0  0
 90176  1  0  0  0
M  CHG  2  89   1  90   1
M  ISO  4   1 100  68 101  87 101  88 100
M  END
> <chiral flag>
0

> <version>
0

> <s_m_source_file>
/data/baiqing/PycharmProjects/Reinvent-master-3.2/result/LINK_invent/BTK/process_docking_weight1_custom_product_contain_oxygen_bond_distance_aromatic_linkinvent_7_9_3/rearranged_h_0005.sdf

> <i_m_source_file_index>
24

> <r_mmod_Potential_Energy-OPLS-2005>
-317.821380615234

> <r_mmod_Stretch_Energy-OPLS-2005>
35.772819519043

> <r_mmod_Bend_Energy-OPLS-2005>
120.765045166016

> <r_mmod_Torsional_Energy-OPLS-2005>
294.978424072266

> <r_mmod_Improper_Torsional_Energy-OPLS-2005>
5.48710250854492

> <r_mmod_Van_der_Waal_Energy-OPLS-2005>
162.970886230469

> <r_mmod_Electrostatic_Energy-OPLS-2005>
22.7648468017578

> <r_mmod_Solvation_Energy-OPLS-2005>
-971.23583984375

> <b_mmod_Minimization_Converged-OPLS-2005>
0

> <r_mmod_RMS_Derivative-OPLS-2005>
2.61410474777222

$$$$
24
                    3D
 Structure written by MMmdl.
181191  0  0  1  0            999 V2000
  -30.7893  -14.2981   20.7189 C   0  0  0  0  0  0
  -30.4132  -12.2672   19.3720 C   0  0  0  0  0  0
  -29.4777  -12.5356   18.1802 C   0  0  0  0  0  0
  -28.0035  -12.3894   18.6004 C   0  0  0  0  0  0
  -27.6699  -13.1984   19.8802 C   0  0  2  0  0  0
  -28.7062  -12.9121   20.9888 C   0  0  0  0  0  0
  -25.2627  -13.8153   20.5658 C   0  0  0  0  0  0
  -24.1863  -13.0434   20.9159 C   0  0  0  0  0  0
  -24.6403  -11.6907   20.8716 C   0  0  0  0  0  0
  -23.9063  -10.4298   21.0403 C   0  0  0  0  0  0
  -24.3613   -9.4214   21.9183 C   0  0  0  0  0  0
  -23.6295   -8.2239   22.0754 C   0  0  0  0  0  0
  -22.4268   -8.0279   21.3554 C   0  0  0  0  0  0
  -21.9905   -9.0250   20.4649 C   0  0  0  0  0  0
  -22.7234  -10.2134   20.3057 C   0  0  0  0  0  0
  -21.6846   -6.0732   22.5281 C   0  0  0  0  0  0
  -21.4015   -6.5640   23.8213 C   0  0  0  0  0  0
  -21.3661   -5.6795   24.9177 C   0  0  0  0  0  0
  -21.6035   -4.3053   24.7231 C   0  0  0  0  0  0
  -21.8822   -3.8146   23.4352 C   0  0  0  0  0  0
  -21.9197   -4.6961   22.3406 C   0  0  0  0  0  0
  -22.7889  -13.5246   21.1828 C   0  0  0  0  0  0
  -22.1664   -4.2150   21.0981 F   0  0  0  0  0  0
  -21.5627   -3.4531   25.7741 F   0  0  0  0  0  0
  -30.0592  -13.1869   20.4613 N   0  0  0  0  0  0
  -26.3065  -12.9300   20.3371 N   0  0  0  0  0  0
  -25.9326  -11.6462   20.5742 N   0  0  0  0  0  0
  -22.0519  -12.8249   22.0379 N   0  0  0  0  0  0
  -25.4372  -15.1868   20.4096 N   0  0  0  0  0  0
  -31.7608  -14.6411   20.0338 O   0  0  0  0  0  0
  -21.6634   -6.8873   21.4244 O   0  0  0  0  0  0
  -22.3579  -14.5551   20.6677 O   0  0  0  0  0  0
  -24.6082  -31.8721   23.2104 C   0  0  0  0  0  0
  -25.9001  -32.4843   23.8403 C   0  0  1  0  0  0
  -27.2939  -27.5244   20.0968 C   0  0  0  0  0  0
  -25.5904  -33.8651   24.2341 N   0  0  0  0  0  0
  -23.3896  -30.4857   21.5497 C   0  0  2  0  0  0
  -24.8455  -28.9473   20.1230 C   0  0  0  0  0  0
  -22.7372  -29.4654   22.5069 C   0  0  0  0  0  0
  -18.0263  -28.1360   22.8455 C   0  0  0  0  0  0
  -24.1519  -36.7313   23.2633 C   0  0  0  0  0  0
  -25.9008  -30.8713   21.3359 C   0  0  0  0  0  0
  -25.9900  -29.5047   20.6983 C   0  0  0  0  0  0
  -27.2062  -28.8074   20.6756 C   0  0  0  0  0  0
  -26.1251  -26.9531   19.5419 C   0  0  0  0  0  0
  -24.9040  -27.6645   19.5409 C   0  0  0  0  0  0
  -23.5927  -29.7935   20.1696 C   0  0  0  0  0  0
  -25.4140  -36.3157   24.0343 C   0  0  1  0  0  0
  -20.5842  -28.3610   23.1360 C   0  0  2  0  0  0
  -20.6749  -26.9363   22.5407 C   0  0  0  0  0  0
  -19.5735  -26.6366   21.5192 C   0  0  0  0  0  0
  -18.1911  -26.7902   22.1594 C   0  0  0  0  0  0
  -19.1504  -28.8803   23.2906 C   0  0  0  0  0  0
  -18.9441  -30.1412   23.8900 C   0  0  0  0  0  0
  -17.6445  -30.6559   24.0528 C   0  0  0  0  0  0
  -25.9067  -34.9506   23.5153 C   0  0  0  0  0  0
  -16.5334  -29.9041   23.6308 C   0  0  0  0  0  0
  -16.7259  -28.6464   23.0323 C   0  0  0  0  0  0
  -26.4491  -31.6591   25.0698 C   0  0  0  0  0  0
  -25.3809  -31.3637   26.1480 C   0  0  0  0  0  0
  -27.0266  -30.3065   24.5927 C   0  0  0  0  0  0
  -27.6100  -32.4272   25.7457 C   0  0  0  0  0  0
  -27.5595  -37.1832   24.8468 C   0  0  0  0  0  0
  -21.4118  -29.2988   22.3790 N   0  0  0  0  0  0
  -26.4313  -37.3858   23.9410 N   0  0  0  0  0  0
  -24.6508  -31.0898   22.0937 N   0  0  0  0  0  0
  -23.4181  -28.8257   23.3128 O   0  0  0  0  0  0
  -28.4702  -26.8017   20.0655 O   0  0  0  0  0  0
  -26.5631  -34.8947   22.4715 O   0  0  0  0  0  0
  -23.5310  -32.1409   23.7596 O   0  0  0  0  0  0
  -31.5336  -18.4913   22.0152 C   0  0  0  0  0  0
  -31.4530  -17.1635   21.5759 C   0  0  0  0  0  0
  -30.0283  -16.6351   23.4760 C   0  0  0  0  0  0
  -30.0902  -17.9704   23.9290 C   0  0  0  0  0  0
  -30.8331  -18.9158   23.1639 C   0  0  0  0  0  0
  -30.6762  -16.2292   22.2936 C   0  0  0  0  0  0
  -29.1145  -22.1037   23.8882 C   0  0  0  0  0  0
  -29.2930  -18.3272   25.1567 C   0  0  0  0  0  0
  -29.6878  -24.9119   22.6251 C   0  0  0  0  0  0
  -27.1348  -24.9247   22.7041 C   0  0  0  0  0  0
  -26.8277  -23.8964   21.6192 C   0  0  0  0  0  0
  -28.0739  -21.6904   21.1851 C   0  0  0  0  0  0
  -28.8109  -20.5698   21.9335 C   0  0  0  0  0  0
  -28.4260  -24.4116   23.3594 C   0  0  1  0  0  0
  -27.3528  -22.5753   22.2013 C   0  0  1  0  0  0
  -30.8221  -20.4136   23.4346 C   0  0  0  0  0  0
  -30.4000  -27.9940   21.2620 C   0  0  0  0  0  0
  -31.0643  -26.8944   22.1012 C   0  0  0  0  0  0
  -29.7048  -27.5340   19.9485 C   0  0  0  0  0  0
  -29.5381  -21.0625   23.1287 N   0  0  0  0  0  0
  -28.3302  -22.9644   23.2144 N   0  0  0  0  0  0
  -29.8786  -19.1034   26.0568 N   0  0  0  0  0  0
  -30.4582  -14.8947   21.8714 N   0  0  0  0  0  0
  -30.0509  -26.1715   22.8547 N   0  0  0  0  0  0
  -29.6191  -22.4146   24.9739 O   0  0  0  0  0  0
  -28.1719  -17.8602   25.3470 O   0  0  0  0  0  0
  -30.3140  -24.1797   21.8534 O   0  0  0  0  0  0
  -31.4551  -12.3679   19.0640 H   0  0  0  0  0  0
  -30.3038  -11.2371   19.7129 H   0  0  0  0  0  0
  -29.7016  -11.8494   17.3629 H   0  0  0  0  0  0
  -29.6522  -13.5406   17.7936 H   0  0  0  0  0  0
  -27.8086  -11.3292   18.7708 H   0  0  0  0  0  0
  -27.3469  -12.6900   17.7833 H   0  0  0  0  0  0
  -27.7368  -14.2551   19.6202 H   0  0  0  0  0  0
  -28.6539  -11.8655   21.2891 H   0  0  0  0  0  0
  -28.4482  -13.4792   21.8828 H   0  0  0  0  0  0
  -25.2761   -9.5675   22.4758 H   0  0  0  0  0  0
  -23.9999   -7.4627   22.7477 H   0  0  0  0  0  0
  -21.0819   -8.8775   19.8961 H   0  0  0  0  0  0
  -22.3698  -10.9666   19.6158 H   0  0  0  0  0  0
  -21.2002   -7.6147   23.9722 H   0  0  0  0  0  0
  -21.1478   -6.0518   25.9082 H   0  0  0  0  0  0
  -22.0598   -2.7606   23.2849 H   0  0  0  0  0  0
  -22.4119  -11.9907   22.4766 H   0  0  0  0  0  0
  -21.1150  -13.1302   22.2588 H   0  0  0  0  0  0
  -24.6755  -15.8471   20.5242 H   0  0  0  0  0  0
  -26.3022  -15.6245   20.1158 H   0  0  0  0  0  0
  -26.7097  -32.5607   23.1195 H   0  0  0  0  0  0
  -25.0087  -33.9809   25.0506 H   0  0  0  0  0  0
  -22.6705  -31.2936   21.4057 H   0  0  0  0  0  0
  -23.3806  -35.9633   23.3367 H   0  0  0  0  0  0
  -24.3601  -36.8847   22.2037 H   0  0  0  0  0  0
  -23.7238  -37.6527   23.6586 H   0  0  0  0  0  0
  -25.9788  -31.6383   20.5640 H   0  0  0  0  0  0
  -26.7989  -30.9491   21.9364 H   0  0  0  0  0  0
  -28.0597  -29.3000   21.1053 H   0  0  0  0  0  0
  -26.1738  -25.9634   19.1079 H   0  0  0  0  0  0
  -24.0210  -27.2204   19.1023 H   0  0  0  0  0  0
  -23.6717  -30.5507   19.3898 H   0  0  0  0  0  0
  -22.7272  -29.1862   19.8977 H   0  0  0  0  0  0
  -25.1315  -36.2035   25.0837 H   0  0  0  0  0  0
  -20.9909  -28.3169   24.1497 H   0  0  0  0  0  0
  -20.5648  -26.2234   23.3589 H   0  0  0  0  0  0
  -21.6639  -26.7418   22.1221 H   0  0  0  0  0  0
  -19.6917  -25.6285   21.1206 H   0  0  0  0  0  0
  -19.6692  -27.3200   20.6751 H   0  0  0  0  0  0
  -17.4194  -26.6660   21.3976 H   0  0  0  0  0  0
  -18.0292  -26.0038   22.8990 H   0  0  0  0  0  0
  -19.7933  -30.7208   24.2292 H   0  0  0  0  0  0
  -17.5009  -31.6251   24.5116 H   0  0  0  0  0  0
  -15.5330  -30.2938   23.7641 H   0  0  0  0  0  0
  -15.8671  -28.0781   22.7036 H   0  0  0  0  0  0
  -24.5983  -30.6968   25.7822 H   0  0  0  0  0  0
  -24.9011  -32.2794   26.4952 H   0  0  0  0  0  0
  -25.8206  -30.8800   27.0216 H   0  0  0  0  0  0
  -26.2695  -29.6878   24.1092 H   0  0  0  0  0  0
  -27.4207  -29.7233   25.4257 H   0  0  0  0  0  0
  -27.8483  -30.4421   23.8887 H   0  0  0  0  0  0
  -27.2716  -33.3548   26.2066 H   0  0  0  0  0  0
  -28.3901  -32.6823   25.0277 H   0  0  0  0  0  0
  -28.0783  -31.8383   26.5352 H   0  0  0  0  0  0
  -28.2670  -38.0093   24.7547 H   0  0  0  0  0  0
  -28.1044  -36.2637   24.6276 H   0  0  0  0  0  0
  -27.2319  -37.1450   25.8875 H   0  0  0  0  0  0
  -20.9308  -29.8634   21.6932 H   0  0  0  0  0  0
  -26.0245  -38.2956   24.1412 H   0  0  0  0  0  0
  -32.0904  -19.2007   21.4162 H   0  0  0  0  0  0
  -31.9671  -16.9122   20.6607 H   0  0  0  0  0  0
  -29.4388  -15.9217   24.0366 H   0  0  0  0  0  0
  -26.3323  -24.9214   23.4406 H   0  0  0  0  0  0
  -27.2183  -25.9404   22.3167 H   0  0  0  0  0  0
  -27.3744  -24.1663   20.7125 H   0  0  0  0  0  0
  -25.7702  -23.8553   21.3545 H   0  0  0  0  0  0
  -27.3690  -21.2799   20.4590 H   0  0  0  0  0  0
  -28.7976  -22.2776   20.6174 H   0  0  0  0  0  0
  -29.4877  -20.0875   21.2285 H   0  0  0  0  0  0
  -28.0989  -19.8095   22.2566 H   0  0  0  0  0  0
  -28.4759  -24.7005   24.4108 H   0  0  0  0  0  0
  -26.5446  -22.0271   22.6864 H   0  0  0  0  0  0
  -31.5713  -20.9032   22.8115 H   0  0  0  0  0  0
  -31.1730  -20.5925   24.4500 H   0  0  0  0  0  0
  -31.1823  -28.6971   20.9822 H   0  0  0  0  0  0
  -29.7454  -28.5585   21.9206 H   0  0  0  0  0  0
  -31.7500  -27.3413   22.8209 H   0  0  0  0  0  0
  -31.6689  -26.2424   21.4686 H   0  0  0  0  0  0
  -30.4050  -26.9024   19.4006 H   0  0  0  0  0  0
  -29.5547  -28.3976   19.2975 H   0  0  0  0  0  0
  -30.8126  -19.4488   25.8990 H   0  0  0  0  0  0
  -29.3963  -19.3480   26.9084 H   0  0  0  0  0  0
  -29.7834  -14.3732   22.4106 H   0  0  0  0  0  0
  -29.5130  -26.6958   23.5330 H   0  0  0  0  0  0
  1 25  1  0  0  0
  1 30  2  0  0  0
  1 93  1  0  0  0
  2  3  1  0  0  0
  2 25  1  0  0  0
  2 98  1  0  0  0
  2 99  1  0  0  0
  3  4  1  0  0  0
  3100  1  0  0  0
  3101  1  0  0  0
  4  5  1  0  0  0
  4102  1  0  0  0
  4103  1  0  0  0
  5  6  1  0  0  0
  5 26  1  0  0  0
  5104  1  0  0  0
  6 25  1  0  0  0
  6105  1  0  0  0
  6106  1  0  0  0
  7  8  2  0  0  0
  7 26  1  0  0  0
  7 29  1  0  0  0
  8  9  1  0  0  0
  8 22  1  0  0  0
  9 10  1  0  0  0
  9 27  2  0  0  0
 10 11  2  0  0  0
 10 15  1  0  0  0
 11 12  1  0  0  0
 11107  1  0  0  0
 12 13  2  0  0  0
 12108  1  0  0  0
 13 14  1  0  0  0
 13 31  1  0  0  0
 14 15  2  0  0  0
 14109  1  0  0  0
 15110  1  0  0  0
 16 17  2  0  0  0
 16 21  1  0  0  0
 16 31  1  0  0  0
 17 18  1  0  0  0
 17111  1  0  0  0
 18 19  2  0  0  0
 18112  1  0  0  0
 19 20  1  0  0  0
 19 24  1  0  0  0
 20 21  2  0  0  0
 20113  1  0  0  0
 21 23  1  0  0  0
 22 28  1  0  0  0
 22 32  2  0  0  0
 26 27  1  0  0  0
 28114  1  0  0  0
 28115  1  0  0  0
 29116  1  0  0  0
 29117  1  0  0  0
 33 34  1  0  0  0
 33 66  1  0  0  0
 33 70  2  0  0  0
 34 36  1  0  0  0
 34 59  1  0  0  0
 34118  1  0  0  0
 35 44  2  0  0  0
 35 45  1  0  0  0
 35 68  1  0  0  0
 36 56  1  0  0  0
 36119  1  0  0  0
 37 39  1  0  0  0
 37 47  1  0  0  0
 37 66  1  0  0  0
 37120  1  0  0  0
 38 43  2  0  0  0
 38 46  1  0  0  0
 38 47  1  0  0  0
 39 64  1  0  0  0
 39 67  2  0  0  0
 40 52  1  0  0  0
 40 53  2  0  0  0
 40 58  1  0  0  0
 41121  1  0  0  0
 41122  1  0  0  0
 41123  1  0  0  0
 41 48  1  0  0  0
 42 43  1  0  0  0
 42 66  1  0  0  0
 42124  1  0  0  0
 42125  1  0  0  0
 43 44  1  0  0  0
 44126  1  0  0  0
 45 46  2  0  0  0
 45127  1  0  0  0
 46128  1  0  0  0
 47129  1  0  0  0
 47130  1  0  0  0
 48 56  1  0  0  0
 48 65  1  0  0  0
 48131  1  0  0  0
 49 50  1  0  0  0
 49 53  1  0  0  0
 49 64  1  0  0  0
 49132  1  0  0  0
 50 51  1  0  0  0
 50133  1  0  0  0
 50134  1  0  0  0
 51 52  1  0  0  0
 51135  1  0  0  0
 51136  1  0  0  0
 52137  1  0  0  0
 52138  1  0  0  0
 53 54  1  0  0  0
 54 55  2  0  0  0
 54139  1  0  0  0
 55 57  1  0  0  0
 55140  1  0  0  0
 56 69  2  0  0  0
 57 58  2  0  0  0
 57141  1  0  0  0
 58142  1  0  0  0
 59 60  1  0  0  0
 59 61  1  0  0  0
 59 62  1  0  0  0
 60143  1  0  0  0
 60144  1  0  0  0
 60145  1  0  0  0
 61146  1  0  0  0
 61147  1  0  0  0
 61148  1  0  0  0
 62149  1  0  0  0
 62150  1  0  0  0
 62151  1  0  0  0
 63 65  1  0  0  0
 63152  1  0  0  0
 63153  1  0  0  0
 63154  1  0  0  0
 64155  1  0  0  0
 65156  1  0  0  0
 68 89  1  0  0  0
 71 72  2  0  0  0
 71 75  1  0  0  0
 71157  1  0  0  0
 72 76  1  0  0  0
 72158  1  0  0  0
 73 74  1  0  0  0
 73 76  2  0  0  0
 73159  1  0  0  0
 74 75  2  0  0  0
 74 78  1  0  0  0
 75 86  1  0  0  0
 76 93  1  0  0  0
 77 90  1  0  0  0
 77 91  1  0  0  0
 77 95  2  0  0  0
 78 92  1  0  0  0
 78 96  2  0  0  0
 79 94  1  0  0  0
 79 97  2  0  0  0
 79 84  1  0  0  0
 80 81  1  0  0  0
 80 84  1  0  0  0
 80160  1  0  0  0
 80161  1  0  0  0
 81162  1  0  0  0
 81163  1  0  0  0
 81 85  1  0  0  0
 82 83  1  0  0  0
 82 85  1  0  0  0
 82164  1  0  0  0
 82165  1  0  0  0
 83 90  1  0  0  0
 83166  1  0  0  0
 83167  1  0  0  0
 84 91  1  0  0  0
 84168  1  0  0  0
 85 91  1  0  0  0
 85169  1  0  0  0
 86 90  1  0  0  0
 86170  1  0  0  0
 86171  1  0  0  0
 87 88  1  0  0  0
 87 89  1  0  0  0
 87172  1  0  0  0
 87173  1  0  0  0
 88 94  1  0  0  0
 88174  1  0  0  0
 88175  1  0  0  0
 89176  1  0  0  0
 89177  1  0  0  0
 92178  1  0  0  0
 92179  1  0  0  0
 93180  1  0  0  0
 94181  1  0  0  0
M  ISO  4   1 100  68 101  89 101  93 100
M  END
> <chiral flag>
0

> <version>
0

> <s_m_source_file>
/data/baiqing/PycharmProjects/Reinvent-master-3.2/result/LINK_invent/BTK/process_docking_weight1_custom_product_contain_oxygen_bond_distance_aromatic_linkinvent_7_9_3/rearranged_h_0005.sdf

> <i_m_source_file_index>
25

> <r_mmod_Potential_Energy-OPLS-2005>
-249.256484985352

> <r_mmod_Stretch_Energy-OPLS-2005>
39.7619400024414

> <r_mmod_Bend_Energy-OPLS-2005>
136.220443725586

> <r_mmod_Torsional_Energy-OPLS-2005>
302.163848876953

> <r_mmod_Improper_Torsional_Energy-OPLS-2005>
10.9962768554688

> <r_mmod_Van_der_Waal_Energy-OPLS-2005>
178.803894042969

> <r_mmod_Electrostatic_Energy-OPLS-2005>
-649.279174804688

> <r_mmod_Solvation_Energy-OPLS-2005>
-276.212524414062

> <b_mmod_Minimization_Converged-OPLS-2005>
0

> <r_mmod_RMS_Derivative-OPLS-2005>
3.85936856269836

$$$$
25
                    3D
 Structure written by MMmdl.
174183  0  0  1  0            999 V2000
  -30.7552  -14.3516   20.7642 C   0  0  0  0  0  0
  -30.4279  -12.3237   19.3856 C   0  0  0  0  0  0
  -29.4882  -12.5570   18.1878 C   0  0  0  0  0  0
  -28.0105  -12.3981   18.5924 C   0  0  0  0  0  0
  -27.6643  -13.1981   19.8733 C   0  0  2  0  0  0
  -28.6974  -12.8887   20.9709 C   0  0  0  0  0  0
  -25.2601  -13.8139   20.5700 C   0  0  0  0  0  0
  -24.1834  -13.0433   20.9188 C   0  0  0  0  0  0
  -24.6371  -11.6899   20.8713 C   0  0  0  0  0  0
  -23.9047  -10.4299   21.0417 C   0  0  0  0  0  0
  -24.3609   -9.4227   21.9205 C   0  0  0  0  0  0
  -23.6305   -8.2253   22.0769 C   0  0  0  0  0  0
  -22.4277   -8.0298   21.3578 C   0  0  0  0  0  0
  -21.9904   -9.0256   20.4670 C   0  0  0  0  0  0
  -22.7223  -10.2132   20.3070 C   0  0  0  0  0  0
  -21.6841   -6.0750   22.5292 C   0  0  0  0  0  0
  -21.3998   -6.5637   23.8230 C   0  0  0  0  0  0
  -21.3668   -5.6782   24.9188 C   0  0  0  0  0  0
  -21.6055   -4.3048   24.7219 C   0  0  0  0  0  0
  -21.8816   -3.8150   23.4333 C   0  0  0  0  0  0
  -21.9187   -4.6978   22.3398 C   0  0  0  0  0  0
  -22.7863  -13.5269   21.1904 C   0  0  0  0  0  0
  -22.1665   -4.2172   21.0974 F   0  0  0  0  0  0
  -21.5664   -3.4530   25.7732 F   0  0  0  0  0  0
  -30.0392  -13.2324   20.4772 N   0  0  0  0  0  0
  -26.3012  -12.9291   20.3300 N   0  0  0  0  0  0
  -25.9272  -11.6453   20.5642 N   0  0  0  0  0  0
  -22.0458  -12.8262   22.0416 N   0  0  0  0  0  0
  -25.4288  -15.1865   20.4212 N   0  0  0  0  0  0
  -31.7262  -14.7079   20.0882 O   0  0  0  0  0  0
  -21.6629   -6.8904   21.4268 O   0  0  0  0  0  0
  -22.3588  -14.5619   20.6811 O   0  0  0  0  0  0
  -24.6086  -31.8715   23.2130 C   0  0  0  0  0  0
  -25.9003  -32.4837   23.8407 C   0  0  1  0  0  0
  -27.2467  -27.4871   20.0867 C   0  0  0  0  0  0
  -25.5886  -33.8640   24.2350 N   0  0  0  0  0  0
  -23.3948  -30.4923   21.5518 C   0  0  2  0  0  0
  -24.8451  -28.9555   20.1239 C   0  0  0  0  0  0
  -22.7371  -29.4673   22.5014 C   0  0  0  0  0  0
  -18.0263  -28.1370   22.8490 C   0  0  0  0  0  0
  -24.1486  -36.7324   23.2636 C   0  0  0  0  0  0
  -25.9170  -30.8482   21.3608 C   0  0  0  0  0  0
  -25.9975  -29.4806   20.7213 C   0  0  0  0  0  0
  -27.2021  -28.7487   20.7102 C   0  0  0  0  0  0
  -26.0837  -26.9585   19.4926 C   0  0  0  0  0  0
  -24.8770  -27.6866   19.5148 C   0  0  0  0  0  0
  -23.6039  -29.8178   20.1685 C   0  0  0  0  0  0
  -25.4102  -36.3123   24.0347 C   0  0  1  0  0  0
  -20.5845  -28.3650   23.1334 C   0  0  2  0  0  0
  -20.6756  -26.9395   22.5417 C   0  0  0  0  0  0
  -19.5737  -26.6387   21.5206 C   0  0  0  0  0  0
  -18.1915  -26.7919   22.1618 C   0  0  0  0  0  0
  -19.1511  -28.8826   23.2911 C   0  0  0  0  0  0
  -18.9445  -30.1434   23.8918 C   0  0  0  0  0  0
  -17.6451  -30.6582   24.0566 C   0  0  0  0  0  0
  -25.9020  -34.9481   23.5150 C   0  0  0  0  0  0
  -16.5339  -29.9086   23.6321 C   0  0  0  0  0  0
  -16.7257  -28.6501   23.0342 C   0  0  0  0  0  0
  -26.4458  -31.6593   25.0709 C   0  0  0  0  0  0
  -25.3751  -31.3688   26.1477 C   0  0  0  0  0  0
  -27.0286  -30.3045   24.6046 C   0  0  0  0  0  0
  -27.6053  -32.4290   25.7464 C   0  0  0  0  0  0
  -27.5587  -37.1813   24.8469 C   0  0  0  0  0  0
  -21.4108  -29.3028   22.3754 N   0  0  0  0  0  0
  -26.4295  -37.3800   23.9414 N   0  0  0  0  0  0
  -24.6576  -31.0842   22.1012 N   0  0  0  0  0  0
  -23.4164  -28.8217   23.3048 O   0  0  0  0  0  0
  -28.4337  -26.8120   19.9871 O   0  0  0  0  0  0
  -26.5577  -34.8930   22.4701 O   0  0  0  0  0  0
  -23.5291  -32.1456   23.7548 O   0  0  0  0  0  0
  -29.8644  -16.8815   26.7082 C   0  0  0  0  0  0
  -29.8780  -15.5280   26.3527 C   0  0  0  0  0  0
  -29.6747  -17.8498   25.7178 C   0  0  0  0  0  0
  -29.7265  -15.1183   25.0069 C   0  0  0  0  0  0
  -29.6128  -16.1088   23.9732 C   0  0  0  0  0  0
  -29.5487  -17.4840   24.3574 C   0  0  0  0  0  0
  -27.5599  -19.9063   22.3433 C   0  0  0  0  0  0
  -29.9500  -20.6455   22.3583 C   0  0  0  0  0  0
  -27.8823  -18.8750   23.4348 C   0  0  0  0  0  0
  -30.2491  -19.6149   23.4580 C   0  0  0  0  0  0
  -28.4872  -21.1289   22.4657 C   0  0  0  0  0  0
  -29.5231  -15.7354   22.4744 C   0  0  0  0  0  0
  -28.1690  -24.5613   20.7841 C   0  0  0  0  0  0
  -28.7233  -23.4962   21.7385 C   0  0  0  0  0  0
  -28.7394  -25.9548   21.0739 C   0  0  0  0  0  0
  -29.6189  -13.6082   24.7563 C   0  0  0  0  0  0
  -29.2979  -18.4987   23.4125 N   0  0  0  0  0  0
  -30.6048  -14.8606   21.9985 N   0  0  0  0  0  0
  -28.1527  -22.1598   21.4576 N   0  3  0  0  0  0
  -30.6391  -13.1303   24.0471 F   0  0  0  0  0  0
  -29.6001  -12.9141   25.8955 F   0  0  0  0  0  0
  -28.4694  -13.3433   24.1435 F   0  0  0  0  0  0
  -31.4673  -12.4573   19.0792 H   0  0  0  0  0  0
  -30.3603  -11.2909   19.7287 H   0  0  0  0  0  0
  -29.7284  -11.8695   17.3754 H   0  0  0  0  0  0
  -29.6500  -13.5619   17.7960 H   0  0  0  0  0  0
  -27.8178  -11.3360   18.7516 H   0  0  0  0  0  0
  -27.3668  -12.7055   17.7676 H   0  0  0  0  0  0
  -27.7375  -14.2584   19.6341 H   0  0  0  0  0  0
  -28.6690  -11.8270   21.2173 H   0  0  0  0  0  0
  -28.4190  -13.3784   21.8870 H   0  0  0  0  0  0
  -25.2752   -9.5698   22.4792 H   0  0  0  0  0  0
  -24.0035   -7.4618   22.7444 H   0  0  0  0  0  0
  -21.0858   -8.8736   19.8962 H   0  0  0  0  0  0
  -22.3690  -10.9670   19.6170 H   0  0  0  0  0  0
  -21.1978   -7.6138   23.9740 H   0  0  0  0  0  0
  -21.1510   -6.0510   25.9096 H   0  0  0  0  0  0
  -22.0594   -2.7617   23.2809 H   0  0  0  0  0  0
  -22.4004  -11.9890   22.4788 H   0  0  0  0  0  0
  -21.1096  -13.1330   22.2636 H   0  0  0  0  0  0
  -24.6564  -15.8321   20.5491 H   0  0  0  0  0  0
  -26.2751  -15.6376   20.0979 H   0  0  0  0  0  0
  -26.7076  -32.5579   23.1181 H   0  0  0  0  0  0
  -25.0070  -33.9803   25.0519 H   0  0  0  0  0  0
  -22.6811  -31.3066   21.4099 H   0  0  0  0  0  0
  -23.3743  -35.9663   23.3307 H   0  0  0  0  0  0
  -24.3591  -36.8920   22.2050 H   0  0  0  0  0  0
  -23.7241  -37.6539   23.6632 H   0  0  0  0  0  0
  -26.0175  -31.6074   20.5839 H   0  0  0  0  0  0
  -26.8093  -30.9117   21.9717 H   0  0  0  0  0  0
  -28.0982  -29.1578   21.1555 H   0  0  0  0  0  0
  -26.1177  -25.9973   19.0004 H   0  0  0  0  0  0
  -23.9919  -27.2744   19.0510 H   0  0  0  0  0  0
  -23.7119  -30.5883   19.4045 H   0  0  0  0  0  0
  -22.7301  -29.2337   19.8750 H   0  0  0  0  0  0
  -25.1271  -36.1999   25.0842 H   0  0  0  0  0  0
  -20.9936  -28.3211   24.1453 H   0  0  0  0  0  0
  -20.5655  -26.2257   23.3595 H   0  0  0  0  0  0
  -21.6631  -26.7449   22.1213 H   0  0  0  0  0  0
  -19.6902  -25.6305   21.1220 H   0  0  0  0  0  0
  -19.6674  -27.3211   20.6747 H   0  0  0  0  0  0
  -17.4185  -26.6663   21.4023 H   0  0  0  0  0  0
  -18.0321  -26.0058   22.9012 H   0  0  0  0  0  0
  -19.7926  -30.7241   24.2294 H   0  0  0  0  0  0
  -17.5012  -31.6266   24.5162 H   0  0  0  0  0  0
  -15.5343  -30.2999   23.7636 H   0  0  0  0  0  0
  -15.8652  -28.0835   22.7040 H   0  0  0  0  0  0
  -24.5905  -30.7052   25.7824 H   0  0  0  0  0  0
  -24.8963  -32.2842   26.4964 H   0  0  0  0  0  0
  -25.8123  -30.8831   27.0210 H   0  0  0  0  0  0
  -26.2818  -29.6800   24.1129 H   0  0  0  0  0  0
  -27.4114  -29.7278   25.4476 H   0  0  0  0  0  0
  -27.8622  -30.4381   23.9147 H   0  0  0  0  0  0
  -27.2693  -33.3575   26.2092 H   0  0  0  0  0  0
  -28.3840  -32.6866   25.0272 H   0  0  0  0  0  0
  -28.0745  -31.8376   26.5337 H   0  0  0  0  0  0
  -28.2605  -38.0109   24.7519 H   0  0  0  0  0  0
  -28.1077  -36.2643   24.6280 H   0  0  0  0  0  0
  -27.2312  -37.1458   25.8873 H   0  0  0  0  0  0
  -20.9251  -29.8762   21.6995 H   0  0  0  0  0  0
  -26.0192  -38.2883   24.1403 H   0  0  0  0  0  0
  -29.9635  -17.1736   27.7447 H   0  0  0  0  0  0
  -29.9791  -14.7989   27.1423 H   0  0  0  0  0  0
  -29.6087  -18.8814   26.0310 H   0  0  0  0  0  0
  -26.5157  -20.2080   22.4327 H   0  0  0  0  0  0
  -27.6679  -19.4470   21.3596 H   0  0  0  0  0  0
  -30.1336  -20.2053   21.3772 H   0  0  0  0  0  0
  -30.6486  -21.4762   22.4589 H   0  0  0  0  0  0
  -27.2595  -17.9901   23.2919 H   0  0  0  0  0  0
  -27.6229  -19.2839   24.4140 H   0  0  0  0  0  0
  -30.2069  -20.1241   24.4212 H   0  0  0  0  0  0
  -31.2668  -19.2380   23.3459 H   0  0  0  0  0  0
  -28.3319  -21.5640   23.4560 H   0  0  0  0  0  0
  -29.6032  -16.6269   21.8534 H   0  0  0  0  0  0
  -28.5215  -15.3679   22.2695 H   0  0  0  0  0  0
  -27.0808  -24.5966   20.8574 H   0  0  0  0  0  0
  -28.4077  -24.2876   19.7555 H   0  0  0  0  0  0
  -28.5002  -23.7828   22.7676 H   0  0  0  0  0  0
  -29.8101  -23.4574   21.6496 H   0  0  0  0  0  0
  -29.8261  -25.9055   21.1568 H   0  0  0  0  0  0
  -28.3702  -26.3463   22.0240 H   0  0  0  0  0  0
  -31.4930  -15.2167   22.3189 H   0  0  0  0  0  0
  -27.1498  -22.2580   21.4435 H   0  0  0  0  0  0
  -28.4369  -21.8475   20.5424 H   0  0  0  0  0  0
  1 25  1  0  0  0
  1 30  2  0  0  0
  1 88  1  0  0  0
  2  3  1  0  0  0
  2 25  1  0  0  0
  2 93  1  0  0  0
  2 94  1  0  0  0
  3  4  1  0  0  0
  3 95  1  0  0  0
  3 96  1  0  0  0
  4  5  1  0  0  0
  4 97  1  0  0  0
  4 98  1  0  0  0
  5  6  1  0  0  0
  5 26  1  0  0  0
  5 99  1  0  0  0
  6 25  1  0  0  0
  6100  1  0  0  0
  6101  1  0  0  0
  7  8  2  0  0  0
  7 26  1  0  0  0
  7 29  1  0  0  0
  8  9  1  0  0  0
  8 22  1  0  0  0
  9 10  1  0  0  0
  9 27  2  0  0  0
 10 11  2  0  0  0
 10 15  1  0  0  0
 11 12  1  0  0  0
 11102  1  0  0  0
 12 13  2  0  0  0
 12103  1  0  0  0
 13 14  1  0  0  0
 13 31  1  0  0  0
 14 15  2  0  0  0
 14104  1  0  0  0
 15105  1  0  0  0
 16 17  2  0  0  0
 16 21  1  0  0  0
 16 31  1  0  0  0
 17 18  1  0  0  0
 17106  1  0  0  0
 18 19  2  0  0  0
 18107  1  0  0  0
 19 20  1  0  0  0
 19 24  1  0  0  0
 20 21  2  0  0  0
 20108  1  0  0  0
 21 23  1  0  0  0
 22 28  1  0  0  0
 22 32  2  0  0  0
 26 27  1  0  0  0
 28109  1  0  0  0
 28110  1  0  0  0
 29111  1  0  0  0
 29112  1  0  0  0
 33 34  1  0  0  0
 33 66  1  0  0  0
 33 70  2  0  0  0
 34 36  1  0  0  0
 34 59  1  0  0  0
 34113  1  0  0  0
 35 44  2  0  0  0
 35 45  1  0  0  0
 35 68  1  0  0  0
 36 56  1  0  0  0
 36114  1  0  0  0
 37 39  1  0  0  0
 37 47  1  0  0  0
 37 66  1  0  0  0
 37115  1  0  0  0
 38 43  2  0  0  0
 38 46  1  0  0  0
 38 47  1  0  0  0
 39 64  1  0  0  0
 39 67  2  0  0  0
 40 52  1  0  0  0
 40 53  2  0  0  0
 40 58  1  0  0  0
 41116  1  0  0  0
 41117  1  0  0  0
 41118  1  0  0  0
 41 48  1  0  0  0
 42 43  1  0  0  0
 42 66  1  0  0  0
 42119  1  0  0  0
 42120  1  0  0  0
 43 44  1  0  0  0
 44121  1  0  0  0
 45 46  2  0  0  0
 45122  1  0  0  0
 46123  1  0  0  0
 47124  1  0  0  0
 47125  1  0  0  0
 48 56  1  0  0  0
 48 65  1  0  0  0
 48126  1  0  0  0
 49 50  1  0  0  0
 49 53  1  0  0  0
 49 64  1  0  0  0
 49127  1  0  0  0
 50 51  1  0  0  0
 50128  1  0  0  0
 50129  1  0  0  0
 51 52  1  0  0  0
 51130  1  0  0  0
 51131  1  0  0  0
 52132  1  0  0  0
 52133  1  0  0  0
 53 54  1  0  0  0
 54 55  2  0  0  0
 54134  1  0  0  0
 55 57  1  0  0  0
 55135  1  0  0  0
 56 69  2  0  0  0
 57 58  2  0  0  0
 57136  1  0  0  0
 58137  1  0  0  0
 59 60  1  0  0  0
 59 61  1  0  0  0
 59 62  1  0  0  0
 60138  1  0  0  0
 60139  1  0  0  0
 60140  1  0  0  0
 61141  1  0  0  0
 61142  1  0  0  0
 61143  1  0  0  0
 62144  1  0  0  0
 62145  1  0  0  0
 62146  1  0  0  0
 63 65  1  0  0  0
 63147  1  0  0  0
 63148  1  0  0  0
 63149  1  0  0  0
 64150  1  0  0  0
 65151  1  0  0  0
 68 85  1  0  0  0
 71 72  2  0  0  0
 71 73  1  0  0  0
 71152  1  0  0  0
 72 74  1  0  0  0
 72153  1  0  0  0
 73 76  2  0  0  0
 73154  1  0  0  0
 74 75  2  0  0  0
 74 86  1  0  0  0
 75 76  1  0  0  0
 75 82  1  0  0  0
 76 87  1  0  0  0
 77 79  1  0  0  0
 77 81  1  0  0  0
 77155  1  0  0  0
 77156  1  0  0  0
 78 80  1  0  0  0
 78 81  1  0  0  0
 78157  1  0  0  0
 78158  1  0  0  0
 79 87  1  0  0  0
 79159  1  0  0  0
 79160  1  0  0  0
 80 87  1  0  0  0
 80161  1  0  0  0
 80162  1  0  0  0
 81 89  1  0  0  0
 81163  1  0  0  0
 82 88  1  0  0  0
 82164  1  0  0  0
 82165  1  0  0  0
 83 84  1  0  0  0
 83 85  1  0  0  0
 83166  1  0  0  0
 83167  1  0  0  0
 84 89  1  0  0  0
 84168  1  0  0  0
 84169  1  0  0  0
 85170  1  0  0  0
 85171  1  0  0  0
 86 90  1  0  0  0
 86 91  1  0  0  0
 86 92  1  0  0  0
 88172  1  0  0  0
 89173  1  0  0  0
 89174  1  0  0  0
M  CHG  1  89   1
M  ISO  4   1 100  68 101  85 101  88 100
M  END
> <chiral flag>
0

> <version>
0

> <s_m_source_file>
/data/baiqing/PycharmProjects/Reinvent-master-3.2/result/LINK_invent/BTK/process_docking_weight1_custom_product_contain_oxygen_bond_distance_aromatic_linkinvent_7_9_3/rearranged_h_0005.sdf

> <i_m_source_file_index>
26

> <r_mmod_Potential_Energy-OPLS-2005>
-94.9029541015625

> <r_mmod_Stretch_Energy-OPLS-2005>
39.0587043762207

> <r_mmod_Bend_Energy-OPLS-2005>
111.868698120117

> <r_mmod_Torsional_Energy-OPLS-2005>
329.073669433594

> <r_mmod_Improper_Torsional_Energy-OPLS-2005>
18.036491394043

> <r_mmod_Van_der_Waal_Energy-OPLS-2005>
167.160888671875

> <r_mmod_Electrostatic_Energy-OPLS-2005>
-306.453216552734

> <r_mmod_Solvation_Energy-OPLS-2005>
-462.836853027344

> <b_mmod_Minimization_Converged-OPLS-2005>
0

> <r_mmod_RMS_Derivative-OPLS-2005>
2.37460947036743

$$$$
26
                    3D
 Structure written by MMmdl.
151159  0  0  1  0            999 V2000
  -30.5240  -14.9143   20.4276 C   0  0  0  0  0  0
  -30.4501  -12.5626   19.4910 C   0  0  0  0  0  0
  -29.5236  -12.5280   18.2522 C   0  0  0  0  0  0
  -28.0552  -12.3156   18.6685 C   0  0  0  0  0  0
  -27.6362  -13.2367   19.8434 C   0  0  2  0  0  0
  -28.6811  -13.2290   20.9803 C   0  0  0  0  0  0
  -25.2508  -13.8207   20.5708 C   0  0  0  0  0  0
  -24.1812  -13.0448   20.9237 C   0  0  0  0  0  0
  -24.6400  -11.6928   20.8765 C   0  0  0  0  0  0
  -23.9076  -10.4303   21.0417 C   0  0  0  0  0  0
  -24.3627   -9.4212   21.9189 C   0  0  0  0  0  0
  -23.6293   -8.2249   22.0755 C   0  0  0  0  0  0
  -22.4275   -8.0293   21.3548 C   0  0  0  0  0  0
  -21.9918   -9.0272   20.4653 C   0  0  0  0  0  0
  -22.7251  -10.2152   20.3061 C   0  0  0  0  0  0
  -21.6854   -6.0738   22.5277 C   0  0  0  0  0  0
  -21.4016   -6.5640   23.8213 C   0  0  0  0  0  0
  -21.3661   -5.6798   24.9175 C   0  0  0  0  0  0
  -21.6040   -4.3055   24.7224 C   0  0  0  0  0  0
  -21.8822   -3.8147   23.4344 C   0  0  0  0  0  0
  -21.9197   -4.6962   22.3400 C   0  0  0  0  0  0
  -22.7829  -13.5233   21.1880 C   0  0  0  0  0  0
  -22.1662   -4.2146   21.0974 F   0  0  0  0  0  0
  -21.5627   -3.4542   25.7736 F   0  0  0  0  0  0
  -29.9641  -13.6409   20.3937 N   0  0  0  0  0  0
  -26.2917  -12.9405   20.3255 N   0  0  0  0  0  0
  -25.9327  -11.6552   20.5748 N   0  0  0  0  0  0
  -22.0464  -12.8236   22.0429 N   0  0  0  0  0  0
  -25.4205  -15.1934   20.4095 N   0  0  0  0  0  0
  -31.7175  -15.0184   20.1358 O   0  0  0  0  0  0
  -21.6642   -6.8882   21.4239 O   0  0  0  0  0  0
  -22.3522  -14.5532   20.6708 O   0  0  0  0  0  0
  -24.6410  -31.8471   23.1899 C   0  0  0  0  0  0
  -25.9184  -32.4712   23.8296 C   0  0  1  0  0  0
  -27.2245  -27.1611   20.1423 C   0  0  0  0  0  0
  -25.5940  -33.8518   24.2204 N   0  0  0  0  0  0
  -23.4445  -30.4662   21.5361 C   0  0  2  0  0  0
  -24.8953  -28.8995   20.1108 C   0  0  0  0  0  0
  -22.7561  -29.4554   22.4870 C   0  0  0  0  0  0
  -18.0306  -28.1398   22.8477 C   0  0  0  0  0  0
  -24.1489  -36.7262   23.2646 C   0  0  0  0  0  0
  -26.0002  -30.7284   21.3864 C   0  0  0  0  0  0
  -26.0734  -29.3430   20.7256 C   0  0  0  0  0  0
  -27.2395  -28.4913   20.7225 C   0  0  0  0  0  0
  -26.0162  -26.8147   19.4949 C   0  0  0  0  0  0
  -24.8781  -27.6473   19.4820 C   0  0  0  0  0  0
  -23.6706  -29.7984   20.1548 C   0  0  0  0  0  0
  -25.4123  -36.3044   24.0318 C   0  0  1  0  0  0
  -20.5914  -28.3717   23.1237 C   0  0  2  0  0  0
  -20.6783  -26.9419   22.5405 C   0  0  0  0  0  0
  -19.5753  -26.6378   21.5215 C   0  0  0  0  0  0
  -18.1939  -26.7936   22.1633 C   0  0  0  0  0  0
  -19.1563  -28.8877   23.2852 C   0  0  0  0  0  0
  -18.9478  -30.1474   23.8873 C   0  0  0  0  0  0
  -17.6476  -30.6591   24.0557 C   0  0  0  0  0  0
  -25.9068  -34.9418   23.5069 C   0  0  0  0  0  0
  -16.5367  -29.9085   23.6337 C   0  0  0  0  0  0
  -16.7290  -28.6509   23.0348 C   0  0  0  0  0  0
  -26.4515  -31.6579   25.0731 C   0  0  0  0  0  0
  -25.3703  -31.3766   26.1429 C   0  0  0  0  0  0
  -27.0379  -30.2977   24.6304 C   0  0  0  0  0  0
  -27.6043  -32.4352   25.7516 C   0  0  0  0  0  0
  -27.5574  -37.1788   24.8467 C   0  0  0  0  0  0
  -21.4253  -29.3046   22.3612 N   0  0  0  0  0  0
  -26.4289  -37.3752   23.9404 N   0  0  0  0  0  0
  -24.7150  -31.0343   22.0924 N   0  0  0  0  0  0
  -23.4211  -28.8099   23.3013 O   0  0  0  0  0  0
  -28.2861  -26.1888   20.2031 O   0  0  0  0  0  0
  -26.5659  -34.8905   22.4649 O   0  0  0  0  0  0
  -23.5530  -32.1346   23.7120 O   0  0  0  0  0  0
  -30.1553  -20.0264   20.0813 C   0  0  0  0  0  0
  -28.3223  -18.1402   20.9141 C   0  0  0  0  0  0
  -30.5018  -18.5926   20.0984 C   0  0  0  0  0  0
  -29.5734  -17.5539   20.5353 C   0  0  0  0  0  0
  -28.8796  -20.5797   20.4543 C   0  0  0  0  0  0
  -27.9918  -19.5413   20.8724 C   0  0  0  0  0  0
  -27.9842  -24.6710   20.0923 C   0  0  0  0  0  0
  -28.9848  -23.3315   20.2723 C   0  0  0  0  0  0
  -31.8980  -18.2135   19.6069 C   0  0  0  0  0  0
  -29.6561  -16.0152   20.6366 N   0  0  0  0  0  0
  -28.3557  -21.9471   20.4271 O   0  0  0  0  0  0
  -26.7417  -19.9006   21.2552 F   0  0  0  0  0  0
  -32.5909  -19.2697   19.1752 F   0  0  0  0  0  0
  -32.5943  -17.6626   20.5995 F   0  0  0  0  0  0
  -31.8019  -17.3636   18.5849 F   0  0  0  0  0  0
  -31.4815  -12.7306   19.1786 H   0  0  0  0  0  0
  -30.4454  -11.6011   20.0069 H   0  0  0  0  0  0
  -29.8353  -11.7395   17.5654 H   0  0  0  0  0  0
  -29.6160  -13.4660   17.7032 H   0  0  0  0  0  0
  -27.9451  -11.2711   18.9629 H   0  0  0  0  0  0
  -27.3928  -12.4620   17.8146 H   0  0  0  0  0  0
  -27.6079  -14.2442   19.4285 H   0  0  0  0  0  0
  -28.7604  -12.2389   21.4324 H   0  0  0  0  0  0
  -28.3861  -13.9068   21.7822 H   0  0  0  0  0  0
  -25.2771   -9.5682   22.4767 H   0  0  0  0  0  0
  -24.0000   -7.4642   22.7477 H   0  0  0  0  0  0
  -21.0846   -8.8802   19.8962 H   0  0  0  0  0  0
  -22.3712  -10.9697   19.6171 H   0  0  0  0  0  0
  -21.2003   -7.6151   23.9718 H   0  0  0  0  0  0
  -21.1475   -6.0522   25.9081 H   0  0  0  0  0  0
  -22.0594   -2.7604   23.2852 H   0  0  0  0  0  0
  -22.4072  -11.9902   22.4836 H   0  0  0  0  0  0
  -21.1078  -13.1262   22.2613 H   0  0  0  0  0  0
  -24.6460  -15.8408   20.5108 H   0  0  0  0  0  0
  -26.2346  -15.6190   19.9869 H   0  0  0  0  0  0
  -26.7257  -32.5326   23.1039 H   0  0  0  0  0  0
  -25.0045  -33.9645   25.0322 H   0  0  0  0  0  0
  -22.7451  -31.2905   21.3826 H   0  0  0  0  0  0
  -23.3751  -35.9595   23.3307 H   0  0  0  0  0  0
  -24.3577  -36.8893   22.2062 H   0  0  0  0  0  0
  -23.7240  -37.6456   23.6683 H   0  0  0  0  0  0
  -26.1552  -31.4856   20.6167 H   0  0  0  0  0  0
  -26.8703  -30.7775   22.0295 H   0  0  0  0  0  0
  -28.1379  -28.8280   21.2207 H   0  0  0  0  0  0
  -25.9083  -25.8609   19.0035 H   0  0  0  0  0  0
  -23.9779  -27.3005   18.9933 H   0  0  0  0  0  0
  -23.8046  -30.5754   19.4014 H   0  0  0  0  0  0
  -22.7871  -29.2388   19.8431 H   0  0  0  0  0  0
  -25.1310  -36.1886   25.0811 H   0  0  0  0  0  0
  -21.0013  -28.3308   24.1355 H   0  0  0  0  0  0
  -20.5673  -26.2331   23.3625 H   0  0  0  0  0  0
  -21.6645  -26.7415   22.1196 H   0  0  0  0  0  0
  -19.6902  -25.6284   21.1250 H   0  0  0  0  0  0
  -19.6684  -27.3179   20.6737 H   0  0  0  0  0  0
  -17.4201  -26.6681   21.4043 H   0  0  0  0  0  0
  -18.0337  -26.0091   22.9044 H   0  0  0  0  0  0
  -19.7957  -30.7294   24.2230 H   0  0  0  0  0  0
  -17.5029  -31.6270   24.5167 H   0  0  0  0  0  0
  -15.5363  -30.2973   23.7672 H   0  0  0  0  0  0
  -15.8698  -28.0817   22.7063 H   0  0  0  0  0  0
  -24.5863  -30.7142   25.7743 H   0  0  0  0  0  0
  -24.8919  -32.2951   26.4838 H   0  0  0  0  0  0
  -25.7983  -30.8938   27.0221 H   0  0  0  0  0  0
  -26.2998  -29.6703   24.1292 H   0  0  0  0  0  0
  -27.3976  -29.7277   25.4880 H   0  0  0  0  0  0
  -27.8913  -30.4221   23.9634 H   0  0  0  0  0  0
  -27.2622  -33.3659   26.2058 H   0  0  0  0  0  0
  -28.3867  -32.6908   25.0357 H   0  0  0  0  0  0
  -28.0697  -31.8509   26.5464 H   0  0  0  0  0  0
  -28.2589  -38.0086   24.7498 H   0  0  0  0  0  0
  -28.1068  -36.2609   24.6311 H   0  0  0  0  0  0
  -27.2286  -37.1453   25.8870 H   0  0  0  0  0  0
  -20.9460  -29.8784   21.6814 H   0  0  0  0  0  0
  -26.0157  -38.2820   24.1405 H   0  0  0  0  0  0
  -30.8963  -20.7319   19.7392 H   0  0  0  0  0  0
  -27.5358  -17.4836   21.2563 H   0  0  0  0  0  0
  -27.1695  -24.5099   20.7983 H   0  0  0  0  0  0
  -27.5433  -24.5255   19.1073 H   0  0  0  0  0  0
  -29.6076  -23.4897   21.1528 H   0  0  0  0  0  0
  -29.6755  -23.2959   19.4296 H   0  0  0  0  0  0
  -28.7626  -15.6309   20.9017 H   0  0  0  0  0  0
  1 25  1  0  0  0
  1 30  2  0  0  0
  1 80  1  0  0  0
  2  3  1  0  0  0
  2 25  1  0  0  0
  2 86  1  0  0  0
  2 87  1  0  0  0
  3  4  1  0  0  0
  3 88  1  0  0  0
  3 89  1  0  0  0
  4  5  1  0  0  0
  4 90  1  0  0  0
  4 91  1  0  0  0
  5  6  1  0  0  0
  5 26  1  0  0  0
  5 92  1  0  0  0
  6 25  1  0  0  0
  6 93  1  0  0  0
  6 94  1  0  0  0
  7  8  2  0  0  0
  7 26  1  0  0  0
  7 29  1  0  0  0
  8  9  1  0  0  0
  8 22  1  0  0  0
  9 10  1  0  0  0
  9 27  2  0  0  0
 10 11  2  0  0  0
 10 15  1  0  0  0
 11 12  1  0  0  0
 11 95  1  0  0  0
 12 13  2  0  0  0
 12 96  1  0  0  0
 13 14  1  0  0  0
 13 31  1  0  0  0
 14 15  2  0  0  0
 14 97  1  0  0  0
 15 98  1  0  0  0
 16 17  2  0  0  0
 16 21  1  0  0  0
 16 31  1  0  0  0
 17 18  1  0  0  0
 17 99  1  0  0  0
 18 19  2  0  0  0
 18100  1  0  0  0
 19 20  1  0  0  0
 19 24  1  0  0  0
 20 21  2  0  0  0
 20101  1  0  0  0
 21 23  1  0  0  0
 22 28  1  0  0  0
 22 32  2  0  0  0
 26 27  1  0  0  0
 28102  1  0  0  0
 28103  1  0  0  0
 29104  1  0  0  0
 29105  1  0  0  0
 33 34  1  0  0  0
 33 66  1  0  0  0
 33 70  2  0  0  0
 34 36  1  0  0  0
 34 59  1  0  0  0
 34106  1  0  0  0
 35 44  2  0  0  0
 35 45  1  0  0  0
 35 68  1  0  0  0
 36 56  1  0  0  0
 36107  1  0  0  0
 37 39  1  0  0  0
 37 47  1  0  0  0
 37 66  1  0  0  0
 37108  1  0  0  0
 38 43  2  0  0  0
 38 46  1  0  0  0
 38 47  1  0  0  0
 39 64  1  0  0  0
 39 67  2  0  0  0
 40 52  1  0  0  0
 40 53  2  0  0  0
 40 58  1  0  0  0
 41109  1  0  0  0
 41110  1  0  0  0
 41111  1  0  0  0
 41 48  1  0  0  0
 42 43  1  0  0  0
 42 66  1  0  0  0
 42112  1  0  0  0
 42113  1  0  0  0
 43 44  1  0  0  0
 44114  1  0  0  0
 45 46  2  0  0  0
 45115  1  0  0  0
 46116  1  0  0  0
 47117  1  0  0  0
 47118  1  0  0  0
 48 56  1  0  0  0
 48 65  1  0  0  0
 48119  1  0  0  0
 49 50  1  0  0  0
 49 53  1  0  0  0
 49 64  1  0  0  0
 49120  1  0  0  0
 50 51  1  0  0  0
 50121  1  0  0  0
 50122  1  0  0  0
 51 52  1  0  0  0
 51123  1  0  0  0
 51124  1  0  0  0
 52125  1  0  0  0
 52126  1  0  0  0
 53 54  1  0  0  0
 54 55  2  0  0  0
 54127  1  0  0  0
 55 57  1  0  0  0
 55128  1  0  0  0
 56 69  2  0  0  0
 57 58  2  0  0  0
 57129  1  0  0  0
 58130  1  0  0  0
 59 60  1  0  0  0
 59 61  1  0  0  0
 59 62  1  0  0  0
 60131  1  0  0  0
 60132  1  0  0  0
 60133  1  0  0  0
 61134  1  0  0  0
 61135  1  0  0  0
 61136  1  0  0  0
 62137  1  0  0  0
 62138  1  0  0  0
 62139  1  0  0  0
 63 65  1  0  0  0
 63140  1  0  0  0
 63141  1  0  0  0
 63142  1  0  0  0
 64143  1  0  0  0
 65144  1  0  0  0
 68 77  1  0  0  0
 71 73  2  0  0  0
 71 75  1  0  0  0
 71145  1  0  0  0
 72 74  2  0  0  0
 72 76  1  0  0  0
 72146  1  0  0  0
 73 74  1  0  0  0
 73 79  1  0  0  0
 74 80  1  0  0  0
 75 76  2  0  0  0
 75 81  1  0  0  0
 76 82  1  0  0  0
 77 78  1  0  0  0
 77147  1  0  0  0
 77148  1  0  0  0
 78 81  1  0  0  0
 78149  1  0  0  0
 78150  1  0  0  0
 79 83  1  0  0  0
 79 84  1  0  0  0
 79 85  1  0  0  0
 80151  1  0  0  0
M  ISO  4   1 100  68 101  77 101  80 100
M  END
> <chiral flag>
0

> <version>
0

> <s_m_source_file>
/data/baiqing/PycharmProjects/Reinvent-master-3.2/result/LINK_invent/BTK/process_docking_weight1_custom_product_contain_oxygen_bond_distance_aromatic_linkinvent_7_9_3/rearranged_h_0005.sdf

> <i_m_source_file_index>
27

> <r_mmod_Potential_Energy-OPLS-2005>
525.859924316406

> <r_mmod_Stretch_Energy-OPLS-2005>
221.74479675293

> <r_mmod_Bend_Energy-OPLS-2005>
310.00390625

> <r_mmod_Torsional_Energy-OPLS-2005>
212.186538696289

> <r_mmod_Improper_Torsional_Energy-OPLS-2005>
4.04816627502441

> <r_mmod_Van_der_Waal_Energy-OPLS-2005>
134.574523925781

> <r_mmod_Electrostatic_Energy-OPLS-2005>
-309.734344482422

> <r_mmod_Solvation_Energy-OPLS-2005>
-216.321517944336

> <b_mmod_Minimization_Converged-OPLS-2005>
0

> <r_mmod_RMS_Derivative-OPLS-2005>
1.42884731292725

$$$$
27
                    3D
 Structure written by MMmdl.
216226  0  0  1  0            999 V2000
  -30.7267  -14.3856   20.6230 C   0  0  0  0  0  0
  -30.4224  -12.2672   19.4114 C   0  0  0  0  0  0
  -29.4941  -12.5190   18.2046 C   0  0  0  0  0  0
  -28.0123  -12.3863   18.6105 C   0  0  0  0  0  0
  -27.6674  -13.1963   19.8880 C   0  0  2  0  0  0
  -28.7069  -12.9246   21.0023 C   0  0  0  0  0  0
  -25.2595  -13.8091   20.5658 C   0  0  0  0  0  0
  -24.1844  -13.0406   20.9169 C   0  0  0  0  0  0
  -24.6391  -11.6869   20.8731 C   0  0  0  0  0  0
  -23.9047  -10.4280   21.0400 C   0  0  0  0  0  0
  -24.3597   -9.4197   21.9189 C   0  0  0  0  0  0
  -23.6274   -8.2235   22.0760 C   0  0  0  0  0  0
  -22.4262   -8.0271   21.3539 C   0  0  0  0  0  0
  -21.9882   -9.0239   20.4646 C   0  0  0  0  0  0
  -22.7210  -10.2122   20.3050 C   0  0  0  0  0  0
  -21.6832   -6.0738   22.5284 C   0  0  0  0  0  0
  -21.4001   -6.5644   23.8220 C   0  0  0  0  0  0
  -21.3664   -5.6799   24.9185 C   0  0  0  0  0  0
  -21.6046   -4.3065   24.7230 C   0  0  0  0  0  0
  -21.8815   -3.8155   23.4349 C   0  0  0  0  0  0
  -21.9191   -4.6973   22.3406 C   0  0  0  0  0  0
  -22.7877  -13.5232   21.1839 C   0  0  0  0  0  0
  -22.1658   -4.2176   21.0980 F   0  0  0  0  0  0
  -21.5624   -3.4542   25.7740 F   0  0  0  0  0  0
  -30.0526  -13.2160   20.4697 N   0  0  0  0  0  0
  -26.3052  -12.9268   20.3420 N   0  0  0  0  0  0
  -25.9317  -11.6430   20.5772 N   0  0  0  0  0  0
  -22.0485  -12.8250   22.0392 N   0  0  0  0  0  0
  -25.4228  -15.1793   20.3998 N   0  0  0  0  0  0
  -31.7996  -14.6389   20.0666 O   0  0  0  0  0  0
  -21.6612   -6.8877   21.4247 O   0  0  0  0  0  0
  -22.3598  -14.5557   20.6698 O   0  0  0  0  0  0
  -24.6050  -31.8741   23.2111 C   0  0  0  0  0  0
  -25.8968  -32.4860   23.8403 C   0  0  1  0  0  0
  -27.2665  -27.4966   20.0936 C   0  0  0  0  0  0
  -25.5843  -33.8655   24.2340 N   0  0  0  0  0  0
  -23.3919  -30.4911   21.5516 C   0  0  2  0  0  0
  -24.8459  -28.9630   20.1172 C   0  0  0  0  0  0
  -22.7402  -29.4638   22.5025 C   0  0  0  0  0  0
  -18.0276  -28.1374   22.8478 C   0  0  0  0  0  0
  -24.1480  -36.7340   23.2643 C   0  0  0  0  0  0
  -25.9100  -30.8610   21.3519 C   0  0  0  0  0  0
  -25.9953  -29.4946   20.7106 C   0  0  0  0  0  0
  -27.2031  -28.7726   20.7018 C   0  0  0  0  0  0
  -26.1014  -26.9801   19.4858 C   0  0  0  0  0  0
  -24.8909  -27.7003   19.5005 C   0  0  0  0  0  0
  -23.5971  -29.8141   20.1681 C   0  0  0  0  0  0
  -25.4102  -36.3137   24.0340 C   0  0  1  0  0  0
  -20.5863  -28.3632   23.1363 C   0  0  2  0  0  0
  -20.6771  -26.9372   22.5441 C   0  0  0  0  0  0
  -19.5754  -26.6373   21.5228 C   0  0  0  0  0  0
  -18.1926  -26.7923   22.1621 C   0  0  0  0  0  0
  -19.1526  -28.8822   23.2908 C   0  0  0  0  0  0
  -18.9449  -30.1428   23.8921 C   0  0  0  0  0  0
  -17.6450  -30.6571   24.0553 C   0  0  0  0  0  0
  -25.9010  -34.9500   23.5143 C   0  0  0  0  0  0
  -16.5337  -29.9077   23.6303 C   0  0  0  0  0  0
  -16.7262  -28.6491   23.0325 C   0  0  0  0  0  0
  -26.4431  -31.6624   25.0700 C   0  0  0  0  0  0
  -25.3726  -31.3724   26.1468 C   0  0  0  0  0  0
  -27.0247  -30.3082   24.6012 C   0  0  0  0  0  0
  -27.6012  -32.4351   25.7461 C   0  0  0  0  0  0
  -27.5586  -37.1822   24.8454 C   0  0  0  0  0  0
  -21.4135  -29.3010   22.3800 N   0  0  0  0  0  0
  -26.4302  -37.3805   23.9397 N   0  0  0  0  0  0
  -24.6540  -31.0883   22.0986 N   0  0  0  0  0  0
  -23.4247  -28.8156   23.2991 O   0  0  0  0  0  0
  -28.3918  -26.6955   20.0744 O   0  0  0  0  0  0
  -26.5580  -34.8949   22.4708 O   0  0  0  0  0  0
  -23.5258  -32.1452   23.7546 O   0  0  0  0  0  0
  -28.4527  -17.5289   18.7531 C   0  0  0  0  0  0
  -27.3977  -18.0549   19.5177 C   0  0  0  0  0  0
  -29.3887  -16.6659   19.3465 C   0  0  0  0  0  0
  -28.2357  -16.8906   21.4879 C   0  0  0  0  0  0
  -27.2869  -17.7601   20.8967 C   0  0  0  0  0  0
  -29.2628  -16.3113   20.7124 C   0  0  0  0  0  0
  -26.1843  -18.3977   21.6999 C   0  0  0  0  0  0
  -30.0698  -21.3663   23.3282 C   0  0  0  0  0  0
  -27.8974  -22.5326   20.0259 C   0  0  0  0  0  0
  -32.5120  -19.7855   20.7507 C   0  0  0  0  0  0
  -24.1994  -22.8839   22.5051 C   0  0  0  0  0  0
  -32.0468  -20.6328   19.5677 C   0  0  0  0  0  0
  -32.0130  -20.4445   22.0387 C   0  0  0  0  0  0
  -24.8748  -23.7877   23.5294 C   0  0  0  0  0  0
  -25.2209  -22.7653   21.3712 C   0  0  0  0  0  0
  -30.5151  -20.7418   19.5553 C   0  0  0  0  0  0
  -30.4720  -20.5999   22.0539 C   0  0  2  0  0  0
  -25.9456  -24.5079   22.7125 C   0  0  1  0  0  0
  -27.4326  -23.7174   20.8733 C   0  0  0  0  0  0
  -28.4494  -21.3235   20.7694 C   0  0  0  0  0  0
  -27.0272  -25.2121   23.5708 C   0  0  0  0  0  0
  -27.0933  -19.7775   25.0501 C   0  0  0  0  0  0
  -25.6688  -19.8843   24.4764 C   0  0  0  0  0  0
  -27.6899  -21.1462   25.4439 C   0  0  0  0  0  0
  -29.7448  -26.5392   22.1709 C   0  0  0  0  0  0
  -25.1025  -18.5533   23.9328 C   0  0  0  0  0  0
  -29.2198  -21.1209   25.6505 C   0  0  0  0  0  0
  -28.7367  -27.0351   23.2306 C   0  0  0  0  0  0
  -29.5962  -27.1042   20.7352 C   0  0  0  0  0  0
  -27.8166  -22.5525   18.7648 N   0  0  0  0  0  0
  -26.4370  -23.3896   21.9005 N   0  0  0  0  0  0
  -30.0768  -15.3219   21.3253 N   0  0  0  0  0  0
  -25.9823  -17.9369   22.9394 N   0  0  0  0  0  0
  -29.9026  -20.6509   24.4470 N   0  0  0  0  0  0
  -29.9454  -21.2860   20.8258 N   0  3  2  0  0  0
  -27.3621  -26.5342   23.0001 N   0  3  0  0  0  0
  -25.5215  -19.3159   21.2192 O   0  0  0  0  0  0
  -29.8527  -22.5793   23.2694 O   0  0  0  0  0  0
  -31.4689  -12.3616   19.1143 H   0  0  0  0  0  0
  -30.3101  -11.2442   19.7740 H   0  0  0  0  0  0
  -29.7254  -11.8212   17.3999 H   0  0  0  0  0  0
  -29.6784  -13.5154   17.8006 H   0  0  0  0  0  0
  -27.8083  -11.3279   18.7755 H   0  0  0  0  0  0
  -27.3668  -12.6946   17.7871 H   0  0  0  0  0  0
  -27.7209  -14.2509   19.6213 H   0  0  0  0  0  0
  -28.6627  -11.8786   21.3100 H   0  0  0  0  0  0
  -28.4681  -13.4947   21.9007 H   0  0  0  0  0  0
  -25.2748   -9.5679   22.4763 H   0  0  0  0  0  0
  -23.9994   -7.4617   22.7457 H   0  0  0  0  0  0
  -21.0817   -8.8726   19.8946 H   0  0  0  0  0  0
  -22.3651  -10.9651   19.6153 H   0  0  0  0  0  0
  -21.1990   -7.6149   23.9746 H   0  0  0  0  0  0
  -21.1496   -6.0519   25.9096 H   0  0  0  0  0  0
  -22.0597   -2.7622   23.2823 H   0  0  0  0  0  0
  -22.4053  -11.9890   22.4782 H   0  0  0  0  0  0
  -21.1119  -13.1333   22.2587 H   0  0  0  0  0  0
  -24.6416  -15.8194   20.4808 H   0  0  0  0  0  0
  -26.2777  -15.6260   20.0908 H   0  0  0  0  0  0
  -26.7052  -32.5619   23.1203 H   0  0  0  0  0  0
  -24.9979  -33.9816   25.0469 H   0  0  0  0  0  0
  -22.6740  -31.3017   21.4115 H   0  0  0  0  0  0
  -23.3726  -35.9686   23.3317 H   0  0  0  0  0  0
  -24.3568  -36.8942   22.2052 H   0  0  0  0  0  0
  -23.7250  -37.6564   23.6639 H   0  0  0  0  0  0
  -26.0016  -31.6210   20.5749 H   0  0  0  0  0  0
  -26.8037  -30.9325   21.9580 H   0  0  0  0  0  0
  -28.0625  -29.2274   21.1685 H   0  0  0  0  0  0
  -26.1265  -26.0218   18.9881 H   0  0  0  0  0  0
  -24.0113  -27.2866   19.0273 H   0  0  0  0  0  0
  -23.6868  -30.5817   19.3991 H   0  0  0  0  0  0
  -22.7281  -29.2167   19.8851 H   0  0  0  0  0  0
  -25.1281  -36.2017   25.0834 H   0  0  0  0  0  0
  -20.9926  -28.3181   24.1498 H   0  0  0  0  0  0
  -20.5682  -26.2225   23.3613 H   0  0  0  0  0  0
  -21.6644  -26.7434   22.1229 H   0  0  0  0  0  0
  -19.6903  -25.6293   21.1236 H   0  0  0  0  0  0
  -19.6712  -27.3200   20.6775 H   0  0  0  0  0  0
  -17.4205  -26.6665   21.4011 H   0  0  0  0  0  0
  -18.0293  -26.0089   22.9032 H   0  0  0  0  0  0
  -19.7927  -30.7222   24.2320 H   0  0  0  0  0  0
  -17.5007  -31.6259   24.5141 H   0  0  0  0  0  0
  -15.5337  -30.2977   23.7622 H   0  0  0  0  0  0
  -15.8661  -28.0808   22.7035 H   0  0  0  0  0  0
  -24.5829  -30.7151   25.7809 H   0  0  0  0  0  0
  -24.8995  -32.2886   26.5010 H   0  0  0  0  0  0
  -25.8085  -30.8815   27.0171 H   0  0  0  0  0  0
  -26.2742  -29.6893   24.1088 H   0  0  0  0  0  0
  -27.4061  -29.7295   25.4430 H   0  0  0  0  0  0
  -27.8574  -30.4459   23.9116 H   0  0  0  0  0  0
  -27.2601  -33.3609   26.2103 H   0  0  0  0  0  0
  -28.3787  -32.6995   25.0287 H   0  0  0  0  0  0
  -28.0714  -31.8455   26.5333 H   0  0  0  0  0  0
  -28.2609  -38.0116   24.7506 H   0  0  0  0  0  0
  -28.1085  -36.2652   24.6279 H   0  0  0  0  0  0
  -27.2291  -37.1470   25.8854 H   0  0  0  0  0  0
  -20.9284  -29.8762   21.7056 H   0  0  0  0  0  0
  -26.0195  -38.2887   24.1398 H   0  0  0  0  0  0
  -28.5392  -17.7808   17.7050 H   0  0  0  0  0  0
  -26.6813  -18.7108   19.0407 H   0  0  0  0  0  0
  -30.1723  -16.2543   18.7239 H   0  0  0  0  0  0
  -28.1638  -16.6335   22.5355 H   0  0  0  0  0  0
  -33.5998  -19.7052   20.7582 H   0  0  0  0  0  0
  -32.1231  -18.7683   20.6684 H   0  0  0  0  0  0
  -23.2802  -23.3352   22.1291 H   0  0  0  0  0  0
  -23.9355  -21.9161   22.9317 H   0  0  0  0  0  0
  -32.3916  -20.1894   18.6329 H   0  0  0  0  0  0
  -32.4927  -21.6270   19.6180 H   0  0  0  0  0  0
  -32.4912  -21.4197   22.1518 H   0  0  0  0  0  0
  -32.3380  -19.8535   22.8966 H   0  0  0  0  0  0
  -25.3397  -23.1841   24.3105 H   0  0  0  0  0  0
  -24.1752  -24.4728   24.0098 H   0  0  0  0  0  0
  -24.8604  -23.3040   20.4918 H   0  0  0  0  0  0
  -25.3863  -21.7301   21.0797 H   0  0  0  0  0  0
  -30.0975  -19.7521   19.3671 H   0  0  0  0  0  0
  -30.2183  -21.3633   18.7108 H   0  0  0  0  0  0
  -30.0240  -19.6048   22.0927 H   0  0  0  0  0  0
  -25.4415  -25.2326   22.0676 H   0  0  0  0  0  0
  -27.0214  -24.4745   20.2100 H   0  0  0  0  0  0
  -28.3120  -24.1530   21.3382 H   0  0  0  0  0  0
  -28.0826  -20.4309   20.2752 H   0  0  0  0  0  0
  -27.9866  -21.2895   21.7549 H   0  0  0  0  0  0
  -27.9146  -24.5854   23.6698 H   0  0  0  0  0  0
  -26.6620  -25.3744   24.5868 H   0  0  0  0  0  0
  -27.7293  -19.3024   24.3054 H   0  0  0  0  0  0
  -27.0981  -19.1109   25.9139 H   0  0  0  0  0  0
  -25.6722  -20.6186   23.6717 H   0  0  0  0  0  0
  -24.9951  -20.2775   25.2388 H   0  0  0  0  0  0
  -27.2041  -21.5062   26.3518 H   0  0  0  0  0  0
  -27.4548  -21.8807   24.6710 H   0  0  0  0  0  0
  -29.7710  -25.4520   22.1535 H   0  0  0  0  0  0
  -30.7381  -26.8273   22.5175 H   0  0  0  0  0  0
  -24.1148  -18.7208   23.4977 H   0  0  0  0  0  0
  -24.9593  -17.8483   24.7521 H   0  0  0  0  0  0
  -29.4720  -20.4578   26.4794 H   0  0  0  0  0  0
  -29.5813  -22.1129   25.9282 H   0  0  0  0  0  0
  -28.7263  -28.1246   23.2239 H   0  0  0  0  0  0
  -29.0645  -26.7487   24.2315 H   0  0  0  0  0  0
  -30.4066  -26.6796   20.1415 H   0  0  0  0  0  0
  -29.7797  -28.1763   20.6907 H   0  0  0  0  0  0
  -27.4191  -23.4186   18.4173 H   0  0  0  0  0  0
  -29.6599  -14.9457   22.1640 H   0  0  0  0  0  0
  -26.5067  -17.1240   23.2267 H   0  0  0  0  0  0
  -30.1715  -19.6758   24.4303 H   0  0  0  0  0  0
  -30.2445  -22.2453   20.9249 H   0  0  0  0  0  0
  -26.7115  -27.1934   23.4025 H   0  0  0  0  0  0
  -27.1950  -26.5221   22.0054 H   0  0  0  0  0  0
  1 25  1  0  0  0
  1 30  2  0  0  0
  1102  1  0  0  0
  2  3  1  0  0  0
  2 25  1  0  0  0
  2109  1  0  0  0
  2110  1  0  0  0
  3  4  1  0  0  0
  3111  1  0  0  0
  3112  1  0  0  0
  4  5  1  0  0  0
  4113  1  0  0  0
  4114  1  0  0  0
  5  6  1  0  0  0
  5 26  1  0  0  0
  5115  1  0  0  0
  6 25  1  0  0  0
  6116  1  0  0  0
  6117  1  0  0  0
  7  8  2  0  0  0
  7 26  1  0  0  0
  7 29  1  0  0  0
  8  9  1  0  0  0
  8 22  1  0  0  0
  9 10  1  0  0  0
  9 27  2  0  0  0
 10 11  2  0  0  0
 10 15  1  0  0  0
 11 12  1  0  0  0
 11118  1  0  0  0
 12 13  2  0  0  0
 12119  1  0  0  0
 13 14  1  0  0  0
 13 31  1  0  0  0
 14 15  2  0  0  0
 14120  1  0  0  0
 15121  1  0  0  0
 16 17  2  0  0  0
 16 21  1  0  0  0
 16 31  1  0  0  0
 17 18  1  0  0  0
 17122  1  0  0  0
 18 19  2  0  0  0
 18123  1  0  0  0
 19 20  1  0  0  0
 19 24  1  0  0  0
 20 21  2  0  0  0
 20124  1  0  0  0
 21 23  1  0  0  0
 22 28  1  0  0  0
 22 32  2  0  0  0
 26 27  1  0  0  0
 28125  1  0  0  0
 28126  1  0  0  0
 29127  1  0  0  0
 29128  1  0  0  0
 33 34  1  0  0  0
 33 66  1  0  0  0
 33 70  2  0  0  0
 34 36  1  0  0  0
 34 59  1  0  0  0
 34129  1  0  0  0
 35 44  2  0  0  0
 35 45  1  0  0  0
 35 68  1  0  0  0
 36 56  1  0  0  0
 36130  1  0  0  0
 37 39  1  0  0  0
 37 47  1  0  0  0
 37 66  1  0  0  0
 37131  1  0  0  0
 38 43  2  0  0  0
 38 46  1  0  0  0
 38 47  1  0  0  0
 39 64  1  0  0  0
 39 67  2  0  0  0
 40 52  1  0  0  0
 40 53  2  0  0  0
 40 58  1  0  0  0
 41132  1  0  0  0
 41133  1  0  0  0
 41134  1  0  0  0
 41 48  1  0  0  0
 42 43  1  0  0  0
 42 66  1  0  0  0
 42135  1  0  0  0
 42136  1  0  0  0
 43 44  1  0  0  0
 44137  1  0  0  0
 45 46  2  0  0  0
 45138  1  0  0  0
 46139  1  0  0  0
 47140  1  0  0  0
 47141  1  0  0  0
 48 56  1  0  0  0
 48 65  1  0  0  0
 48142  1  0  0  0
 49 50  1  0  0  0
 49 53  1  0  0  0
 49 64  1  0  0  0
 49143  1  0  0  0
 50 51  1  0  0  0
 50144  1  0  0  0
 50145  1  0  0  0
 51 52  1  0  0  0
 51146  1  0  0  0
 51147  1  0  0  0
 52148  1  0  0  0
 52149  1  0  0  0
 53 54  1  0  0  0
 54 55  2  0  0  0
 54150  1  0  0  0
 55 57  1  0  0  0
 55151  1  0  0  0
 56 69  2  0  0  0
 57 58  2  0  0  0
 57152  1  0  0  0
 58153  1  0  0  0
 59 60  1  0  0  0
 59 61  1  0  0  0
 59 62  1  0  0  0
 60154  1  0  0  0
 60155  1  0  0  0
 60156  1  0  0  0
 61157  1  0  0  0
 61158  1  0  0  0
 61159  1  0  0  0
 62160  1  0  0  0
 62161  1  0  0  0
 62162  1  0  0  0
 63 65  1  0  0  0
 63163  1  0  0  0
 63164  1  0  0  0
 63165  1  0  0  0
 64166  1  0  0  0
 65167  1  0  0  0
 68 99  1  0  0  0
 71 72  2  0  0  0
 71 73  1  0  0  0
 71168  1  0  0  0
 72 75  1  0  0  0
 72169  1  0  0  0
 73 76  2  0  0  0
 73170  1  0  0  0
 74 75  2  0  0  0
 74 76  1  0  0  0
 74171  1  0  0  0
 75 77  1  0  0  0
 76102  1  0  0  0
 77103  1  0  0  0
 77107  2  0  0  0
 78104  1  0  0  0
 78108  2  0  0  0
 78 87  1  0  0  0
 79 89  1  0  0  0
 79 90  1  0  0  0
 79100  2  0  0  0
 80 82  1  0  0  0
 80 83  1  0  0  0
 80172  1  0  0  0
 80173  1  0  0  0
 81 84  1  0  0  0
 81 85  1  0  0  0
 81174  1  0  0  0
 81175  1  0  0  0
 82 86  1  0  0  0
 82176  1  0  0  0
 82177  1  0  0  0
 83 87  1  0  0  0
 83178  1  0  0  0
 83179  1  0  0  0
 84 88  1  0  0  0
 84180  1  0  0  0
 84181  1  0  0  0
 85101  1  0  0  0
 85182  1  0  0  0
 85183  1  0  0  0
 86105  1  0  0  0
 86184  1  0  0  0
 86185  1  0  0  0
 87105  1  0  0  0
 87186  1  0  0  0
 88 91  1  0  0  0
 88101  1  0  0  0
 88187  1  0  0  0
 89101  1  0  0  0
 89188  1  0  0  0
 89189  1  0  0  0
 90190  1  0  0  0
 90191  1  0  0  0
 90105  1  0  0  0
 91106  1  0  0  0
 91192  1  0  0  0
 91193  1  0  0  0
 92 93  1  0  0  0
 92 94  1  0  0  0
 92194  1  0  0  0
 92195  1  0  0  0
 93 96  1  0  0  0
 93196  1  0  0  0
 93197  1  0  0  0
 94 97  1  0  0  0
 94198  1  0  0  0
 94199  1  0  0  0
 95 98  1  0  0  0
 95 99  1  0  0  0
 95200  1  0  0  0
 95201  1  0  0  0
 96103  1  0  0  0
 96202  1  0  0  0
 96203  1  0  0  0
 97104  1  0  0  0
 97204  1  0  0  0
 97205  1  0  0  0
 98106  1  0  0  0
 98206  1  0  0  0
 98207  1  0  0  0
 99208  1  0  0  0
 99209  1  0  0  0
100210  1  0  0  0
102211  1  0  0  0
103212  1  0  0  0
104213  1  0  0  0
105214  1  0  0  0
106215  1  0  0  0
106216  1  0  0  0
M  CHG  2 105   1 106   1
M  ISO  4   1 100  68 101  99 101 102 100
M  END
> <chiral flag>
0

> <version>
0

> <s_m_source_file>
/data/baiqing/PycharmProjects/Reinvent-master-3.2/result/LINK_invent/BTK/process_docking_weight1_custom_product_contain_oxygen_bond_distance_aromatic_linkinvent_7_9_3/rearranged_h_0005.sdf

> <i_m_source_file_index>
28

> <r_mmod_Potential_Energy-OPLS-2005>
-381.096374511719

> <r_mmod_Stretch_Energy-OPLS-2005>
42.4740943908691

> <r_mmod_Bend_Energy-OPLS-2005>
156.853179931641

> <r_mmod_Torsional_Energy-OPLS-2005>
374.3486328125

> <r_mmod_Improper_Torsional_Energy-OPLS-2005>
7.65452861785889

> <r_mmod_Van_der_Waal_Energy-OPLS-2005>
104.706230163574

> <r_mmod_Electrostatic_Energy-OPLS-2005>
-279.946380615234

> <r_mmod_Solvation_Energy-OPLS-2005>
-793.750183105469

> <b_mmod_Minimization_Converged-OPLS-2005>
0

> <r_mmod_RMS_Derivative-OPLS-2005>
2.21290326118469

$$$$
28
                    3D
 Structure written by MMmdl.
168177  0  0  1  0            999 V2000
  -30.7370  -14.3780   20.6831 C   0  0  0  0  0  0
  -30.4265  -12.2861   19.4054 C   0  0  0  0  0  0
  -29.4959  -12.5266   18.2004 C   0  0  0  0  0  0
  -28.0179  -12.3773   18.6083 C   0  0  0  0  0  0
  -27.6713  -13.1957   19.8794 C   0  0  2  0  0  0
  -28.7019  -12.9223   20.9971 C   0  0  0  0  0  0
  -25.2649  -13.8135   20.5629 C   0  0  0  0  0  0
  -24.1873  -13.0445   20.9131 C   0  0  0  0  0  0
  -24.6400  -11.6900   20.8693 C   0  0  0  0  0  0
  -23.9056  -10.4297   21.0392 C   0  0  0  0  0  0
  -24.3604   -9.4218   21.9173 C   0  0  0  0  0  0
  -23.6281   -8.2253   22.0754 C   0  0  0  0  0  0
  -22.4263   -8.0286   21.3547 C   0  0  0  0  0  0
  -21.9895   -9.0263   20.4650 C   0  0  0  0  0  0
  -22.7225  -10.2143   20.3053 C   0  0  0  0  0  0
  -21.6866   -6.0741   22.5280 C   0  0  0  0  0  0
  -21.4026   -6.5639   23.8220 C   0  0  0  0  0  0
  -21.3648   -5.6787   24.9175 C   0  0  0  0  0  0
  -21.6034   -4.3053   24.7222 C   0  0  0  0  0  0
  -21.8820   -3.8152   23.4344 C   0  0  0  0  0  0
  -21.9198   -4.6969   22.3403 C   0  0  0  0  0  0
  -22.7908  -13.5281   21.1797 C   0  0  0  0  0  0
  -22.1671   -4.2162   21.0980 F   0  0  0  0  0  0
  -21.5605   -3.4524   25.7729 F   0  0  0  0  0  0
  -30.0524  -13.2221   20.4764 N   0  0  0  0  0  0
  -26.3071  -12.9280   20.3322 N   0  0  0  0  0  0
  -25.9324  -11.6458   20.5711 N   0  0  0  0  0  0
  -22.0523  -12.8310   22.0360 N   0  0  0  0  0  0
  -25.4417  -15.1841   20.4029 N   0  0  0  0  0  0
  -31.7623  -14.6784   20.0605 O   0  0  0  0  0  0
  -21.6636   -6.8878   21.4243 O   0  0  0  0  0  0
  -22.3613  -14.5589   20.6636 O   0  0  0  0  0  0
  -24.6098  -31.8730   23.2136 C   0  0  0  0  0  0
  -25.9005  -32.4865   23.8415 C   0  0  1  0  0  0
  -27.2655  -27.4751   20.1016 C   0  0  0  0  0  0
  -25.5884  -33.8661   24.2350 N   0  0  0  0  0  0
  -23.3986  -30.4916   21.5546 C   0  0  2  0  0  0
  -24.8539  -28.9591   20.1240 C   0  0  0  0  0  0
  -22.7379  -29.4678   22.5044 C   0  0  0  0  0  0
  -18.0277  -28.1340   22.8477 C   0  0  0  0  0  0
  -24.1486  -36.7327   23.2636 C   0  0  0  0  0  0
  -25.9227  -30.8453   21.3686 C   0  0  0  0  0  0
  -26.0058  -29.4788   20.7273 C   0  0  0  0  0  0
  -27.2112  -28.7426   20.7283 C   0  0  0  0  0  0
  -26.0967  -26.9702   19.4918 C   0  0  0  0  0  0
  -24.8915  -27.6972   19.5070 C   0  0  0  0  0  0
  -23.6070  -29.8153   20.1729 C   0  0  0  0  0  0
  -25.4109  -36.3148   24.0340 C   0  0  1  0  0  0
  -20.5847  -28.3647   23.1320 C   0  0  2  0  0  0
  -20.6774  -26.9386   22.5420 C   0  0  0  0  0  0
  -19.5782  -26.6362   21.5182 C   0  0  0  0  0  0
  -18.1942  -26.7905   22.1564 C   0  0  0  0  0  0
  -19.1514  -28.8811   23.2897 C   0  0  0  0  0  0
  -18.9443  -30.1412   23.8902 C   0  0  0  0  0  0
  -17.6447  -30.6568   24.0513 C   0  0  0  0  0  0
  -25.9028  -34.9508   23.5140 C   0  0  0  0  0  0
  -16.5335  -29.9044   23.6309 C   0  0  0  0  0  0
  -16.7260  -28.6441   23.0366 C   0  0  0  0  0  0
  -26.4467  -31.6640   25.0727 C   0  0  0  0  0  0
  -25.3723  -31.3766   26.1479 C   0  0  0  0  0  0
  -27.0279  -30.3070   24.6105 C   0  0  0  0  0  0
  -27.6077  -32.4377   25.7429 C   0  0  0  0  0  0
  -27.5601  -37.1793   24.8446 C   0  0  0  0  0  0
  -21.4119  -29.3005   22.3732 N   0  0  0  0  0  0
  -26.4308  -37.3817   23.9405 N   0  0  0  0  0  0
  -24.6604  -31.0839   22.1038 N   0  0  0  0  0  0
  -23.4148  -28.8238   23.3107 O   0  0  0  0  0  0
  -28.3932  -26.6853   20.0028 O   0  0  0  0  0  0
  -26.5596  -34.8936   22.4706 O   0  0  0  0  0  0
  -23.5304  -32.1469   23.7552 O   0  0  0  0  0  0
  -31.1660  -18.7918   21.4314 C   0  0  0  0  0  0
  -31.2898  -17.3880   21.3793 C   0  0  0  0  0  0
  -28.9830  -17.1742   22.1052 C   0  0  0  0  0  0
  -28.8366  -18.5801   22.1528 C   0  0  0  0  0  0
  -29.9492  -19.4054   21.8086 C   0  0  0  0  0  0
  -30.1866  -16.5675   21.6998 C   0  0  0  0  0  0
  -29.8557  -22.9062   23.1022 C   0  0  0  0  0  0
  -28.9501  -22.7940   20.7361 C   0  0  0  0  0  0
  -30.5783  -21.5616   22.8491 C   0  0  0  0  0  0
  -29.7415  -21.4893   20.5330 C   0  0  0  0  0  0
  -29.5910  -23.7129   21.8017 C   0  0  0  0  0  0
  -29.3034  -26.2109   22.2130 C   0  0  0  0  0  0
  -29.5279  -26.8921   20.8500 C   0  0  0  0  0  0
  -27.4676  -19.1059   22.6004 C   0  0  0  0  0  0
  -29.8712  -20.8127   21.8173 N   0  0  0  0  0  0
  -30.2308  -15.1462   21.6614 N   0  0  0  0  0  0
  -28.6917  -24.8666   22.0606 N   0  3  0  0  0  0
  -26.5046  -18.4266   21.9735 F   0  0  0  0  0  0
  -27.3323  -18.8869   23.9089 F   0  0  0  0  0  0
  -27.2414  -20.3982   22.3737 F   0  0  0  0  0  0
  -31.4709  -12.3951   19.1061 H   0  0  0  0  0  0
  -30.3281  -11.2595   19.7617 H   0  0  0  0  0  0
  -29.7361  -11.8321   17.3947 H   0  0  0  0  0  0
  -29.6672  -13.5279   17.8027 H   0  0  0  0  0  0
  -27.8256  -11.3171   18.7819 H   0  0  0  0  0  0
  -27.3688  -12.6729   17.7826 H   0  0  0  0  0  0
  -27.7372  -14.2510   19.6143 H   0  0  0  0  0  0
  -28.6595  -11.8738   21.2955 H   0  0  0  0  0  0
  -28.4335  -13.4791   21.8955 H   0  0  0  0  0  0
  -25.2754   -9.5701   22.4742 H   0  0  0  0  0  0
  -23.9984   -7.4650   22.7485 H   0  0  0  0  0  0
  -21.0824   -8.8801   19.8966 H   0  0  0  0  0  0
  -22.3687  -10.9680   19.6161 H   0  0  0  0  0  0
  -21.2038   -7.6153   23.9734 H   0  0  0  0  0  0
  -21.1454   -6.0508   25.9081 H   0  0  0  0  0  0
  -22.0604   -2.7619   23.2835 H   0  0  0  0  0  0
  -22.4092  -11.9950   22.4753 H   0  0  0  0  0  0
  -21.1160  -13.1394   22.2549 H   0  0  0  0  0  0
  -24.6798  -15.8435   20.5140 H   0  0  0  0  0  0
  -26.2979  -15.6188   20.0844 H   0  0  0  0  0  0
  -26.7078  -32.5610   23.1192 H   0  0  0  0  0  0
  -25.0054  -33.9842   25.0506 H   0  0  0  0  0  0
  -22.6842  -31.3058   21.4151 H   0  0  0  0  0  0
  -23.3766  -35.9648   23.3326 H   0  0  0  0  0  0
  -24.3562  -36.8902   22.2043 H   0  0  0  0  0  0
  -23.7221  -37.6530   23.6628 H   0  0  0  0  0  0
  -26.0290  -31.6072   20.5956 H   0  0  0  0  0  0
  -26.8125  -30.9082   21.9828 H   0  0  0  0  0  0
  -28.0814  -29.1787   21.1951 H   0  0  0  0  0  0
  -26.1245  -26.0117   18.9946 H   0  0  0  0  0  0
  -24.0098  -27.2898   19.0314 H   0  0  0  0  0  0
  -23.6905  -30.5825   19.4029 H   0  0  0  0  0  0
  -22.7391  -29.2144   19.8973 H   0  0  0  0  0  0
  -25.1280  -36.2033   25.0834 H   0  0  0  0  0  0
  -20.9935  -28.3214   24.1439 H   0  0  0  0  0  0
  -20.5665  -26.2240   23.3598 H   0  0  0  0  0  0
  -21.6663  -26.7449   22.1231 H   0  0  0  0  0  0
  -19.6964  -25.6264   21.1235 H   0  0  0  0  0  0
  -19.6757  -27.3148   20.6696 H   0  0  0  0  0  0
  -17.4244  -26.6686   21.3926 H   0  0  0  0  0  0
  -18.0318  -26.0004   22.8914 H   0  0  0  0  0  0
  -19.7911  -30.7213   24.2296 H   0  0  0  0  0  0
  -17.4992  -31.6259   24.5089 H   0  0  0  0  0  0
  -15.5327  -30.2939   23.7623 H   0  0  0  0  0  0
  -15.8658  -28.0722   22.7133 H   0  0  0  0  0  0
  -24.5916  -30.7090   25.7807 H   0  0  0  0  0  0
  -24.8887  -32.2930   26.4875 H   0  0  0  0  0  0
  -25.8051  -30.8970   27.0267 H   0  0  0  0  0  0
  -26.2786  -29.6828   24.1229 H   0  0  0  0  0  0
  -27.4090  -29.7331   25.4559 H   0  0  0  0  0  0
  -27.8613  -30.4360   23.9202 H   0  0  0  0  0  0
  -27.2720  -33.3670   26.2051 H   0  0  0  0  0  0
  -28.3807  -32.6978   25.0182 H   0  0  0  0  0  0
  -28.0860  -31.8509   26.5277 H   0  0  0  0  0  0
  -28.2639  -38.0080   24.7545 H   0  0  0  0  0  0
  -28.1083  -36.2620   24.6219 H   0  0  0  0  0  0
  -27.2331  -37.1400   25.8853 H   0  0  0  0  0  0
  -20.9297  -29.8628   21.6858 H   0  0  0  0  0  0
  -26.0221  -38.2902   24.1419 H   0  0  0  0  0  0
  -32.0199  -19.4001   21.1711 H   0  0  0  0  0  0
  -32.2370  -16.9542   21.0906 H   0  0  0  0  0  0
  -28.1360  -16.5600   22.3726 H   0  0  0  0  0  0
  -30.4375  -23.5061   23.8030 H   0  0  0  0  0  0
  -28.9078  -22.6937   23.5982 H   0  0  0  0  0  0
  -27.9352  -22.5379   21.0414 H   0  0  0  0  0  0
  -28.8593  -23.3204   19.7839 H   0  0  0  0  0  0
  -30.6274  -20.9818   23.7720 H   0  0  0  0  0  0
  -31.6080  -21.7398   22.5326 H   0  0  0  0  0  0
  -30.7342  -21.7068   20.1321 H   0  0  0  0  0  0
  -29.2370  -20.8521   19.8045 H   0  0  0  0  0  0
  -30.5434  -24.0705   21.4063 H   0  0  0  0  0  0
  -28.6139  -26.8276   22.7903 H   0  0  0  0  0  0
  -30.2277  -26.1618   22.7897 H   0  0  0  0  0  0
  -30.3814  -26.4266   20.3580 H   0  0  0  0  0  0
  -29.8007  -27.9421   20.9595 H   0  0  0  0  0  0
  -29.5001  -14.6765   22.1747 H   0  0  0  0  0  0
  -28.1362  -24.6639   22.8765 H   0  0  0  0  0  0
  -28.0546  -24.9458   21.2814 H   0  0  0  0  0  0
  1 25  1  0  0  0
  1 30  2  0  0  0
  1 86  1  0  0  0
  2  3  1  0  0  0
  2 25  1  0  0  0
  2 91  1  0  0  0
  2 92  1  0  0  0
  3  4  1  0  0  0
  3 93  1  0  0  0
  3 94  1  0  0  0
  4  5  1  0  0  0
  4 95  1  0  0  0
  4 96  1  0  0  0
  5  6  1  0  0  0
  5 26  1  0  0  0
  5 97  1  0  0  0
  6 25  1  0  0  0
  6 98  1  0  0  0
  6 99  1  0  0  0
  7  8  2  0  0  0
  7 26  1  0  0  0
  7 29  1  0  0  0
  8  9  1  0  0  0
  8 22  1  0  0  0
  9 10  1  0  0  0
  9 27  2  0  0  0
 10 11  2  0  0  0
 10 15  1  0  0  0
 11 12  1  0  0  0
 11100  1  0  0  0
 12 13  2  0  0  0
 12101  1  0  0  0
 13 14  1  0  0  0
 13 31  1  0  0  0
 14 15  2  0  0  0
 14102  1  0  0  0
 15103  1  0  0  0
 16 17  2  0  0  0
 16 21  1  0  0  0
 16 31  1  0  0  0
 17 18  1  0  0  0
 17104  1  0  0  0
 18 19  2  0  0  0
 18105  1  0  0  0
 19 20  1  0  0  0
 19 24  1  0  0  0
 20 21  2  0  0  0
 20106  1  0  0  0
 21 23  1  0  0  0
 22 28  1  0  0  0
 22 32  2  0  0  0
 26 27  1  0  0  0
 28107  1  0  0  0
 28108  1  0  0  0
 29109  1  0  0  0
 29110  1  0  0  0
 33 34  1  0  0  0
 33 66  1  0  0  0
 33 70  2  0  0  0
 34 36  1  0  0  0
 34 59  1  0  0  0
 34111  1  0  0  0
 35 44  2  0  0  0
 35 45  1  0  0  0
 35 68  1  0  0  0
 36 56  1  0  0  0
 36112  1  0  0  0
 37 39  1  0  0  0
 37 47  1  0  0  0
 37 66  1  0  0  0
 37113  1  0  0  0
 38 43  2  0  0  0
 38 46  1  0  0  0
 38 47  1  0  0  0
 39 64  1  0  0  0
 39 67  2  0  0  0
 40 52  1  0  0  0
 40 53  2  0  0  0
 40 58  1  0  0  0
 41114  1  0  0  0
 41115  1  0  0  0
 41116  1  0  0  0
 41 48  1  0  0  0
 42 43  1  0  0  0
 42 66  1  0  0  0
 42117  1  0  0  0
 42118  1  0  0  0
 43 44  1  0  0  0
 44119  1  0  0  0
 45 46  2  0  0  0
 45120  1  0  0  0
 46121  1  0  0  0
 47122  1  0  0  0
 47123  1  0  0  0
 48 56  1  0  0  0
 48 65  1  0  0  0
 48124  1  0  0  0
 49 50  1  0  0  0
 49 53  1  0  0  0
 49 64  1  0  0  0
 49125  1  0  0  0
 50 51  1  0  0  0
 50126  1  0  0  0
 50127  1  0  0  0
 51 52  1  0  0  0
 51128  1  0  0  0
 51129  1  0  0  0
 52130  1  0  0  0
 52131  1  0  0  0
 53 54  1  0  0  0
 54 55  2  0  0  0
 54132  1  0  0  0
 55 57  1  0  0  0
 55133  1  0  0  0
 56 69  2  0  0  0
 57 58  2  0  0  0
 57134  1  0  0  0
 58135  1  0  0  0
 59 60  1  0  0  0
 59 61  1  0  0  0
 59 62  1  0  0  0
 60136  1  0  0  0
 60137  1  0  0  0
 60138  1  0  0  0
 61139  1  0  0  0
 61140  1  0  0  0
 61141  1  0  0  0
 62142  1  0  0  0
 62143  1  0  0  0
 62144  1  0  0  0
 63 65  1  0  0  0
 63145  1  0  0  0
 63146  1  0  0  0
 63147  1  0  0  0
 64148  1  0  0  0
 65149  1  0  0  0
 68 83  1  0  0  0
 71 72  2  0  0  0
 71 75  1  0  0  0
 71150  1  0  0  0
 72 76  1  0  0  0
 72151  1  0  0  0
 73 74  1  0  0  0
 73 76  2  0  0  0
 73152  1  0  0  0
 74 75  2  0  0  0
 74 84  1  0  0  0
 75 85  1  0  0  0
 76 86  1  0  0  0
 77 79  1  0  0  0
 77 81  1  0  0  0
 77153  1  0  0  0
 77154  1  0  0  0
 78 80  1  0  0  0
 78 81  1  0  0  0
 78155  1  0  0  0
 78156  1  0  0  0
 79 85  1  0  0  0
 79157  1  0  0  0
 79158  1  0  0  0
 80 85  1  0  0  0
 80159  1  0  0  0
 80160  1  0  0  0
 81 87  1  0  0  0
 81161  1  0  0  0
 82 83  1  0  0  0
 82 87  1  0  0  0
 82162  1  0  0  0
 82163  1  0  0  0
 83164  1  0  0  0
 83165  1  0  0  0
 84 88  1  0  0  0
 84 89  1  0  0  0
 84 90  1  0  0  0
 86166  1  0  0  0
 87167  1  0  0  0
 87168  1  0  0  0
M  CHG  1  87   1
M  ISO  4   1 100  68 101  83 101  86 100
M  END
> <chiral flag>
0

> <version>
0

> <s_m_source_file>
/data/baiqing/PycharmProjects/Reinvent-master-3.2/result/LINK_invent/BTK/process_docking_weight1_custom_product_contain_oxygen_bond_distance_aromatic_linkinvent_7_9_3/rearranged_h_0005.sdf

> <i_m_source_file_index>
29

> <r_mmod_Potential_Energy-OPLS-2005>
-54.5382995605469

> <r_mmod_Stretch_Energy-OPLS-2005>
37.044319152832

> <r_mmod_Bend_Energy-OPLS-2005>
122.859893798828

> <r_mmod_Torsional_Energy-OPLS-2005>
288.029998779297

> <r_mmod_Improper_Torsional_Energy-OPLS-2005>
6.23801040649414

> <r_mmod_Van_der_Waal_Energy-OPLS-2005>
153.276458740234

> <r_mmod_Electrostatic_Energy-OPLS-2005>
-257.307373046875

> <r_mmod_Solvation_Energy-OPLS-2005>
-411.152648925781

> <b_mmod_Minimization_Converged-OPLS-2005>
0

> <r_mmod_RMS_Derivative-OPLS-2005>
2.56163048744202

$$$$
29
                    3D
 Structure written by MMmdl.
167176  0  0  1  0            999 V2000
  -31.1807  -13.6239   21.1425 C   0  0  0  0  0  0
  -30.5956  -12.4559   18.9961 C   0  0  0  0  0  0
  -29.9562  -13.1084   17.3710 C   0  0  0  0  0  0
  -28.4159  -14.2427   17.1979 C   0  0  0  0  0  0
  -27.3715  -14.2071   20.3343 C   0  0  2  0  0  0
  -28.6631  -13.2197   21.2081 C   0  0  0  0  0  0
  -24.9805  -14.0311   20.8397 C   0  0  0  0  0  0
  -24.0243  -13.0994   21.0126 C   0  0  0  0  0  0
  -24.6297  -11.8075   20.9460 C   0  0  0  0  0  0
  -23.9614  -10.4752   21.0364 C   0  0  0  0  0  0
  -24.4013   -9.4562   21.9140 C   0  0  0  0  0  0
  -23.6639   -8.2551   22.0713 C   0  0  0  0  0  0
  -22.4609   -8.0517   21.3534 C   0  0  0  0  0  0
  -22.0372   -9.0493   20.4566 C   0  0  0  0  0  0
  -22.7773  -10.2378   20.2984 C   0  0  0  0  0  0
  -21.7018   -6.0889   22.5264 C   0  0  0  0  0  0
  -21.4130   -6.5740   23.8202 C   0  0  0  0  0  0
  -21.3695   -5.6863   24.9137 C   0  0  0  0  0  0
  -21.6037   -4.3122   24.7173 C   0  0  0  0  0  0
  -21.8798   -3.8236   23.4279 C   0  0  0  0  0  0
  -21.9242   -4.7086   22.3357 C   0  0  0  0  0  0
  -22.6054  -13.4732   21.1944 C   0  0  0  0  0  0
  -22.1699   -4.2268   21.0935 F   0  0  0  0  0  0
  -21.5589   -3.4580   25.7662 F   0  0  0  0  0  0
  -30.1659  -12.8901   20.5760 N   0  0  0  0  0  0
  -26.1478  -13.3869   20.7593 N   0  0  0  0  0  0
  -25.9535  -11.9913   20.7954 N   0  0  0  0  0  0
  -21.9044  -12.7507   22.0523 N   0  0  0  0  0  0
  -24.9661  -15.4115   20.7315 N   0  0  0  0  0  0
  -32.2369  -13.8395   20.5417 O   0  0  0  0  0  0
  -21.6905   -6.9114   21.4255 O   0  0  0  0  0  0
  -22.1529  -14.4845   20.6580 O   0  0  0  0  0  0
  -24.6681  -31.8253   23.1781 C   0  0  0  0  0  0
  -25.9379  -32.4570   23.8175 C   0  0  1  0  0  0
  -27.0271  -26.8592   20.0385 C   0  0  0  0  0  0
  -25.6048  -33.8392   24.2068 N   0  0  0  0  0  0
  -23.4658  -30.4644   21.5404 C   0  0  2  0  0  0
  -24.8657  -28.8653   20.0872 C   0  0  0  0  0  0
  -22.7632  -29.4517   22.4814 C   0  0  0  0  0  0
  -18.0331  -28.1403   22.8487 C   0  0  0  0  0  0
  -24.1507  -36.7183   23.2640 C   0  0  0  0  0  0
  -26.0470  -30.5873   21.4204 C   0  0  0  0  0  0
  -26.0711  -29.1871   20.7248 C   0  0  0  0  0  0
  -27.1611  -28.1939   20.6903 C   0  0  0  0  0  0
  -25.8140  -26.7314   19.3528 C   0  0  0  0  0  0
  -24.7636  -27.6594   19.3933 C   0  0  0  0  0  0
  -23.6829  -29.8238   20.1511 C   0  0  0  0  0  0
  -25.4153  -36.2942   24.0282 C   0  0  1  0  0  0
  -20.5954  -28.3751   23.1202 C   0  0  2  0  0  0
  -20.6810  -26.9439   22.5401 C   0  0  0  0  0  0
  -19.5773  -26.6377   21.5227 C   0  0  0  0  0  0
  -18.1959  -26.7944   22.1639 C   0  0  0  0  0  0
  -19.1589  -28.8898   23.2835 C   0  0  0  0  0  0
  -18.9494  -30.1494   23.8858 C   0  0  0  0  0  0
  -17.6483  -30.6592   24.0565 C   0  0  0  0  0  0
  -25.9130  -34.9332   23.4982 C   0  0  0  0  0  0
  -16.5379  -29.9074   23.6346 C   0  0  0  0  0  0
  -16.7311  -28.6498   23.0361 C   0  0  0  0  0  0
  -26.4588  -31.6533   25.0724 C   0  0  0  0  0  0
  -25.3670  -31.3816   26.1345 C   0  0  0  0  0  0
  -27.0485  -30.2882   24.6526 C   0  0  0  0  0  0
  -27.6079  -32.4357   25.7512 C   0  0  0  0  0  0
  -27.5578  -37.1752   24.8456 C   0  0  0  0  0  0
  -21.4310  -29.3060   22.3549 N   0  0  0  0  0  0
  -26.4284  -37.3694   23.9398 N   0  0  0  0  0  0
  -24.7527  -30.9857   22.0971 N   0  0  0  0  0  0
  -23.4209  -28.8046   23.2999 O   0  0  0  0  0  0
  -27.8504  -25.6167   20.0034 O   0  0  0  0  0  0
  -26.5739  -34.8871   22.4578 O   0  0  0  0  0  0
  -23.5766  -32.1294   23.6879 O   0  0  0  0  0  0
  -26.2264  -14.9449   18.1886 C   0  0  0  0  0  0
  -26.5644  -13.3458   18.2639 C   0  0  0  0  0  0
  -28.4530  -16.0067   18.9945 C   0  0  0  0  0  0
  -27.0670  -16.2477   18.5730 C   0  0  0  0  0  0
  -29.2113  -14.6485   19.1863 C   0  0  0  0  0  0
  -28.0739  -12.8342   18.8143 C   0  0  0  0  0  0
  -33.2000  -16.8082   21.0731 C   0  0  0  0  0  0
  -32.6711  -16.0528   22.2153 C   0  0  0  0  0  0
  -32.4284  -16.8460   19.9531 C   0  0  0  0  0  0
  -31.3562  -15.6987   22.1807 C   0  0  0  0  0  0
  -30.5142  -16.4222   21.2384 C   0  0  0  0  0  0
  -26.9641  -20.8629   19.0056 C   0  0  0  0  0  0
  -30.6413  -15.3631   18.9563 C   0  0  0  0  0  0
  -26.6122  -17.9566   18.5594 C   0  0  0  0  0  0
  -27.7285  -22.3428   19.6064 C   0  0  0  0  0  0
  -27.2714  -24.1078   19.5357 C   0  0  0  0  0  0
  -31.0913  -16.3783   19.9981 N   0  0  0  0  0  0
  -30.9641  -14.3454   22.2692 N   0  0  0  0  0  0
  -27.3037  -19.4078   19.0800 N   0  0  0  0  0  0
  -29.3900  -16.8477   21.5140 O   0  0  0  0  0  0
  -25.9232  -21.0984   18.3899 O   0  0  0  0  0  0
  -28.2062  -11.0711   18.8466 Cl  0  0  0  0  0  0
  -31.6682  -12.5294   18.8332 H   0  0  0  0  0  0
  -30.6190  -11.3671   18.9783 H   0  0  0  0  0  0
  -29.7883  -12.2376   16.7350 H   0  0  0  0  0  0
  -30.7851  -13.5949   16.8524 H   0  0  0  0  0  0
  -27.8104  -13.8342   16.3781 H   0  0  0  0  0  0
  -28.7340  -15.1915   16.7542 H   0  0  0  0  0  0
  -27.3588  -15.1451   20.9004 H   0  0  0  0  0  0
  -28.3057  -12.2110   21.4064 H   0  0  0  0  0  0
  -28.6920  -13.6054   22.2250 H   0  0  0  0  0  0
  -25.3013   -9.6115   22.4923 H   0  0  0  0  0  0
  -24.0325   -7.4981   22.7487 H   0  0  0  0  0  0
  -21.1328   -8.9031   19.8827 H   0  0  0  0  0  0
  -22.4121  -10.9918   19.6164 H   0  0  0  0  0  0
  -21.2178   -7.6254   23.9735 H   0  0  0  0  0  0
  -21.1521   -6.0584   25.9047 H   0  0  0  0  0  0
  -22.0524   -2.7696   23.2733 H   0  0  0  0  0  0
  -22.3170  -11.9574   22.5201 H   0  0  0  0  0  0
  -20.9430  -12.9926   22.2490 H   0  0  0  0  0  0
  -24.0891  -15.9119   20.6459 H   0  0  0  0  0  0
  -25.7667  -15.9162   20.3720 H   0  0  0  0  0  0
  -26.7403  -32.5022   23.0823 H   0  0  0  0  0  0
  -25.0116  -33.9486   25.0164 H   0  0  0  0  0  0
  -22.7821  -31.3060   21.4040 H   0  0  0  0  0  0
  -23.3788  -35.9493   23.3250 H   0  0  0  0  0  0
  -24.3586  -36.8890   22.2065 H   0  0  0  0  0  0
  -23.7250  -37.6342   23.6746 H   0  0  0  0  0  0
  -26.2627  -31.3425   20.6636 H   0  0  0  0  0  0
  -26.8986  -30.6082   22.0891 H   0  0  0  0  0  0
  -28.0736  -28.4087   21.2266 H   0  0  0  0  0  0
  -25.6028  -25.8394   18.7863 H   0  0  0  0  0  0
  -23.8475  -27.4207   18.8699 H   0  0  0  0  0  0
  -23.8558  -30.6184   19.4243 H   0  0  0  0  0  0
  -22.7723  -29.3217   19.8189 H   0  0  0  0  0  0
  -25.1360  -36.1718   25.0775 H   0  0  0  0  0  0
  -21.0060  -28.3353   24.1318 H   0  0  0  0  0  0
  -20.5717  -26.2371   23.3632 H   0  0  0  0  0  0
  -21.6670  -26.7435   22.1195 H   0  0  0  0  0  0
  -19.6919  -25.6275   21.1280 H   0  0  0  0  0  0
  -19.6692  -27.3167   20.6737 H   0  0  0  0  0  0
  -17.4226  -26.6711   21.4035 H   0  0  0  0  0  0
  -18.0337  -26.0093   22.9040 H   0  0  0  0  0  0
  -19.7964  -30.7339   24.2185 H   0  0  0  0  0  0
  -17.5024  -31.6266   24.5172 H   0  0  0  0  0  0
  -15.5369  -30.2949   23.7683 H   0  0  0  0  0  0
  -15.8726  -28.0793   22.7077 H   0  0  0  0  0  0
  -24.5884  -30.7147   25.7623 H   0  0  0  0  0  0
  -24.8812  -32.3021   26.4587 H   0  0  0  0  0  0
  -25.7840  -30.9080   27.0236 H   0  0  0  0  0  0
  -26.3151  -29.6532   24.1541 H   0  0  0  0  0  0
  -27.3972  -29.7293   25.5217 H   0  0  0  0  0  0
  -27.9130  -30.4038   23.9989 H   0  0  0  0  0  0
  -27.2663  -33.3732   26.1915 H   0  0  0  0  0  0
  -28.3957  -32.6792   25.0370 H   0  0  0  0  0  0
  -28.0658  -31.8586   26.5551 H   0  0  0  0  0  0
  -28.2544  -38.0098   24.7538 H   0  0  0  0  0  0
  -28.1133  -36.2619   24.6250 H   0  0  0  0  0  0
  -27.2293  -37.1344   25.8858 H   0  0  0  0  0  0
  -20.9515  -29.8776   21.6734 H   0  0  0  0  0  0
  -26.0112  -38.2740   24.1428 H   0  0  0  0  0  0
  -25.2264  -15.1653   17.8446 H   0  0  0  0  0  0
  -25.8167  -12.6230   17.9731 H   0  0  0  0  0  0
  -28.9501  -16.9610   19.0748 H   0  0  0  0  0  0
  -34.2260  -17.1500   21.0542 H   0  0  0  0  0  0
  -33.3651  -15.3967   22.7232 H   0  0  0  0  0  0
  -32.7478  -17.2170   18.9892 H   0  0  0  0  0  0
  -30.5728  -15.9428   18.0315 H   0  0  0  0  0  0
  -31.4652  -14.7463   18.6263 H   0  0  0  0  0  0
  -25.6443  -17.9609   19.0597 H   0  0  0  0  0  0
  -26.3534  -18.1407   17.5163 H   0  0  0  0  0  0
  -28.7229  -22.2959   19.1664 H   0  0  0  0  0  0
  -27.8917  -22.1418   20.6642 H   0  0  0  0  0  0
  -27.0774  -24.2471   18.4713 H   0  0  0  0  0  0
  -26.2844  -24.0862   19.9931 H   0  0  0  0  0  0
  -30.0806  -14.1718   22.7238 H   0  0  0  0  0  0
  -28.1380  -19.2451   19.6286 H   0  0  0  0  0  0
  1 25  1  0  0  0
  1 30  2  0  0  0
  1 88  1  0  0  0
  2  3  1  0  0  0
  2 25  1  0  0  0
  2 93  1  0  0  0
  2 94  1  0  0  0
  3  4  1  0  0  0
  3 95  1  0  0  0
  3 96  1  0  0  0
  4  5  1  0  0  0
  4 97  1  0  0  0
  4 98  1  0  0  0
  5  6  1  0  0  0
  5 26  1  0  0  0
  5 99  1  0  0  0
  6 25  1  0  0  0
  6100  1  0  0  0
  6101  1  0  0  0
  7  8  2  0  0  0
  7 26  1  0  0  0
  7 29  1  0  0  0
  8  9  1  0  0  0
  8 22  1  0  0  0
  9 10  1  0  0  0
  9 27  2  0  0  0
 10 11  2  0  0  0
 10 15  1  0  0  0
 11 12  1  0  0  0
 11102  1  0  0  0
 12 13  2  0  0  0
 12103  1  0  0  0
 13 14  1  0  0  0
 13 31  1  0  0  0
 14 15  2  0  0  0
 14104  1  0  0  0
 15105  1  0  0  0
 16 17  2  0  0  0
 16 21  1  0  0  0
 16 31  1  0  0  0
 17 18  1  0  0  0
 17106  1  0  0  0
 18 19  2  0  0  0
 18107  1  0  0  0
 19 20  1  0  0  0
 19 24  1  0  0  0
 20 21  2  0  0  0
 20108  1  0  0  0
 21 23  1  0  0  0
 22 28  1  0  0  0
 22 32  2  0  0  0
 26 27  1  0  0  0
 28109  1  0  0  0
 28110  1  0  0  0
 29111  1  0  0  0
 29112  1  0  0  0
 33 34  1  0  0  0
 33 66  1  0  0  0
 33 70  2  0  0  0
 34 36  1  0  0  0
 34 59  1  0  0  0
 34113  1  0  0  0
 35 44  2  0  0  0
 35 45  1  0  0  0
 35 68  1  0  0  0
 36 56  1  0  0  0
 36114  1  0  0  0
 37 39  1  0  0  0
 37 47  1  0  0  0
 37 66  1  0  0  0
 37115  1  0  0  0
 38 43  2  0  0  0
 38 46  1  0  0  0
 38 47  1  0  0  0
 39 64  1  0  0  0
 39 67  2  0  0  0
 40 52  1  0  0  0
 40 53  2  0  0  0
 40 58  1  0  0  0
 41116  1  0  0  0
 41117  1  0  0  0
 41118  1  0  0  0
 41 48  1  0  0  0
 42 43  1  0  0  0
 42 66  1  0  0  0
 42119  1  0  0  0
 42120  1  0  0  0
 43 44  1  0  0  0
 44121  1  0  0  0
 45 46  2  0  0  0
 45122  1  0  0  0
 46123  1  0  0  0
 47124  1  0  0  0
 47125  1  0  0  0
 48 56  1  0  0  0
 48 65  1  0  0  0
 48126  1  0  0  0
 49 50  1  0  0  0
 49 53  1  0  0  0
 49 64  1  0  0  0
 49127  1  0  0  0
 50 51  1  0  0  0
 50128  1  0  0  0
 50129  1  0  0  0
 51 52  1  0  0  0
 51130  1  0  0  0
 51131  1  0  0  0
 52132  1  0  0  0
 52133  1  0  0  0
 53 54  1  0  0  0
 54 55  2  0  0  0
 54134  1  0  0  0
 55 57  1  0  0  0
 55135  1  0  0  0
 56 69  2  0  0  0
 57 58  2  0  0  0
 57136  1  0  0  0
 58137  1  0  0  0
 59 60  1  0  0  0
 59 61  1  0  0  0
 59 62  1  0  0  0
 60138  1  0  0  0
 60139  1  0  0  0
 60140  1  0  0  0
 61141  1  0  0  0
 61142  1  0  0  0
 61143  1  0  0  0
 62144  1  0  0  0
 62145  1  0  0  0
 62146  1  0  0  0
 63 65  1  0  0  0
 63147  1  0  0  0
 63148  1  0  0  0
 63149  1  0  0  0
 64150  1  0  0  0
 65151  1  0  0  0
 68 86  1  0  0  0
 71 72  2  0  0  0
 71 74  1  0  0  0
 71152  1  0  0  0
 72 76  1  0  0  0
 72153  1  0  0  0
 73 74  2  0  0  0
 73 75  1  0  0  0
 73154  1  0  0  0
 74 84  1  0  0  0
 75 76  2  0  0  0
 75 83  1  0  0  0
 76 92  1  0  0  0
 77 78  1  0  0  0
 77 79  2  0  0  0
 77155  1  0  0  0
 78 80  2  0  0  0
 78156  1  0  0  0
 79 87  1  0  0  0
 79157  1  0  0  0
 80 81  1  0  0  0
 80 88  1  0  0  0
 81 87  1  0  0  0
 81 90  2  0  0  0
 82 85  1  0  0  0
 82 89  1  0  0  0
 82 91  2  0  0  0
 83 87  1  0  0  0
 83158  1  0  0  0
 83159  1  0  0  0
 84 89  1  0  0  0
 84160  1  0  0  0
 84161  1  0  0  0
 85 86  1  0  0  0
 85162  1  0  0  0
 85163  1  0  0  0
 86164  1  0  0  0
 86165  1  0  0  0
 88166  1  0  0  0
 89167  1  0  0  0
M  ISO  4   1 100  68 101  86 101  88 100
M  END
> <chiral flag>
0

> <version>
0

> <s_m_source_file>
/data/baiqing/PycharmProjects/Reinvent-master-3.2/result/LINK_invent/BTK/process_docking_weight1_custom_product_contain_oxygen_bond_distance_aromatic_linkinvent_7_9_3/rearranged_h_0005.sdf

> <i_m_source_file_index>
30

> <r_mmod_Potential_Energy-OPLS-2005>
11397.537109375

> <r_mmod_Stretch_Energy-OPLS-2005>
6342.326171875

> <r_mmod_Bend_Energy-OPLS-2005>
861.860961914062

> <r_mmod_Torsional_Energy-OPLS-2005>
521.262817382812

> <r_mmod_Improper_Torsional_Energy-OPLS-2005>
37.5541038513184

> <r_mmod_Van_der_Waal_Energy-OPLS-2005>
2870.18286132812

> <r_mmod_Electrostatic_Energy-OPLS-2005>
-485.690582275391

> <r_mmod_Solvation_Energy-OPLS-2005>
-226.776153564453

> <b_mmod_Minimization_Converged-OPLS-2005>
0

> <r_mmod_RMS_Derivative-OPLS-2005>
4.84616327285767

$$$$
30
                    3D
 Structure written by MMmdl.
153160  0  0  1  0            999 V2000
  -30.7217  -14.4618   20.5925 C   0  0  0  0  0  0
  -30.4211  -12.3095   19.4205 C   0  0  0  0  0  0
  -29.4926  -12.5042   18.2054 C   0  0  0  0  0  0
  -28.0145  -12.3666   18.6198 C   0  0  0  0  0  0
  -27.6620  -13.2093   19.8744 C   0  0  2  0  0  0
  -28.7038  -12.9955   20.9955 C   0  0  0  0  0  0
  -25.2587  -13.8171   20.5680 C   0  0  0  0  0  0
  -24.1840  -13.0444   20.9171 C   0  0  0  0  0  0
  -24.6397  -11.6913   20.8730 C   0  0  0  0  0  0
  -23.9064  -10.4298   21.0404 C   0  0  0  0  0  0
  -24.3615   -9.4211   21.9182 C   0  0  0  0  0  0
  -23.6296   -8.2242   22.0754 C   0  0  0  0  0  0
  -22.4276   -8.0282   21.3545 C   0  0  0  0  0  0
  -21.9909   -9.0256   20.4645 C   0  0  0  0  0  0
  -22.7235  -10.2137   20.3056 C   0  0  0  0  0  0
  -21.6851   -6.0733   22.5276 C   0  0  0  0  0  0
  -21.4012   -6.5637   23.8210 C   0  0  0  0  0  0
  -21.3663   -5.6789   24.9172 C   0  0  0  0  0  0
  -21.6048   -4.3052   24.7223 C   0  0  0  0  0  0
  -21.8820   -3.8144   23.4343 C   0  0  0  0  0  0
  -21.9194   -4.6961   22.3400 C   0  0  0  0  0  0
  -22.7862  -13.5242   21.1843 C   0  0  0  0  0  0
  -22.1667   -4.2151   21.0978 F   0  0  0  0  0  0
  -21.5632   -3.4537   25.7736 F   0  0  0  0  0  0
  -30.0350  -13.2964   20.4419 N   0  0  0  0  0  0
  -26.3026  -12.9345   20.3364 N   0  0  0  0  0  0
  -25.9325  -11.6502   20.5764 N   0  0  0  0  0  0
  -22.0503  -12.8231   22.0399 N   0  0  0  0  0  0
  -25.4320  -15.1888   20.4101 N   0  0  0  0  0  0
  -31.8320  -14.6504   20.0892 O   0  0  0  0  0  0
  -21.6640   -6.8878   21.4240 O   0  0  0  0  0  0
  -22.3546  -14.5555   20.6704 O   0  0  0  0  0  0
  -24.6172  -31.8671   23.2111 C   0  0  0  0  0  0
  -25.9062  -32.4817   23.8395 C   0  0  1  0  0  0
  -27.2233  -27.4100   20.0908 C   0  0  0  0  0  0
  -25.5909  -33.8616   24.2322 N   0  0  0  0  0  0
  -23.4047  -30.4953   21.5521 C   0  0  2  0  0  0
  -24.8475  -28.9665   20.1102 C   0  0  0  0  0  0
  -22.7419  -29.4668   22.4973 C   0  0  0  0  0  0
  -18.0278  -28.1378   22.8495 C   0  0  0  0  0  0
  -24.1488  -36.7320   23.2635 C   0  0  0  0  0  0
  -25.9383  -30.8242   21.3702 C   0  0  0  0  0  0
  -26.0115  -29.4596   20.7128 C   0  0  0  0  0  0
  -27.2008  -28.6888   20.7022 C   0  0  0  0  0  0
  -26.0384  -26.9549   19.4597 C   0  0  0  0  0  0
  -24.8575  -27.7141   19.4804 C   0  0  0  0  0  0
  -23.6122  -29.8356   20.1645 C   0  0  0  0  0  0
  -25.4108  -36.3109   24.0333 C   0  0  1  0  0  0
  -20.5870  -28.3673   23.1307 C   0  0  2  0  0  0
  -20.6770  -26.9406   22.5413 C   0  0  0  0  0  0
  -19.5744  -26.6386   21.5213 C   0  0  0  0  0  0
  -18.1925  -26.7923   22.1628 C   0  0  0  0  0  0
  -19.1527  -28.8841   23.2901 C   0  0  0  0  0  0
  -18.9452  -30.1448   23.8912 C   0  0  0  0  0  0
  -17.6454  -30.6584   24.0570 C   0  0  0  0  0  0
  -25.9037  -34.9474   23.5123 C   0  0  0  0  0  0
  -16.5346  -29.9087   23.6327 C   0  0  0  0  0  0
  -16.7268  -28.6503   23.0350 C   0  0  0  0  0  0
  -26.4480  -31.6598   25.0729 C   0  0  0  0  0  0
  -25.3743  -31.3712   26.1473 C   0  0  0  0  0  0
  -27.0316  -30.3037   24.6121 C   0  0  0  0  0  0
  -27.6043  -32.4326   25.7498 C   0  0  0  0  0  0
  -27.5581  -37.1813   24.8465 C   0  0  0  0  0  0
  -21.4145  -29.3043   22.3713 N   0  0  0  0  0  0
  -26.4296  -37.3792   23.9403 N   0  0  0  0  0  0
  -24.6719  -31.0761   22.1025 N   0  0  0  0  0  0
  -23.4184  -28.8203   23.3015 O   0  0  0  0  0  0
  -28.3734  -26.6331   20.1359 O   0  0  0  0  0  0
  -26.5600  -34.8926   22.4686 O   0  0  0  0  0  0
  -23.5359  -32.1438   23.7490 O   0  0  0  0  0  0
  -29.3175  -24.3278   20.4467 C   0  0  0  0  0  0
  -28.2058  -25.2214   19.8569 C   0  0  0  0  0  0
  -30.2492  -19.3602   21.2210 C   0  0  0  0  0  0
  -29.4006  -20.5190   20.6347 C   0  0  0  0  0  0
  -29.7063  -17.9357   20.9222 C   0  0  0  0  0  0
  -29.9728  -21.9362   20.9130 C   0  0  0  0  0  0
  -30.5933  -16.8056   21.5077 C   0  0  0  0  0  0
  -29.1069  -22.9971   20.3805 N   0  0  0  0  0  0
  -30.0775  -15.4491   21.2441 N   0  0  0  0  0  0
  -30.3285  -24.8159   20.9583 O   0  0  0  0  0  0
  -31.4655  -12.4044   19.1173 H   0  0  0  0  0  0
  -30.3219  -11.3003   19.8220 H   0  0  0  0  0  0
  -29.7313  -11.7755   17.4294 H   0  0  0  0  0  0
  -29.6625  -13.4878   17.7643 H   0  0  0  0  0  0
  -27.8224  -11.3113   18.8171 H   0  0  0  0  0  0
  -27.3639  -12.6419   17.7888 H   0  0  0  0  0  0
  -27.7058  -14.2565   19.5741 H   0  0  0  0  0  0
  -28.6795  -11.9622   21.3435 H   0  0  0  0  0  0
  -28.4630  -13.6011   21.8698 H   0  0  0  0  0  0
  -25.2763   -9.5686   22.4751 H   0  0  0  0  0  0
  -24.0012   -7.4630   22.7466 H   0  0  0  0  0  0
  -21.0843   -8.8773   19.8948 H   0  0  0  0  0  0
  -22.3698  -10.9677   19.6164 H   0  0  0  0  0  0
  -21.2002   -7.6144   23.9714 H   0  0  0  0  0  0
  -21.1488   -6.0517   25.9075 H   0  0  0  0  0  0
  -22.0599   -2.7607   23.2840 H   0  0  0  0  0  0
  -22.4124  -11.9899   22.4794 H   0  0  0  0  0  0
  -21.1121  -13.1256   22.2609 H   0  0  0  0  0  0
  -24.6712  -15.8494   20.5251 H   0  0  0  0  0  0
  -26.2922  -15.6262   20.1036 H   0  0  0  0  0  0
  -26.7131  -32.5517   23.1151 H   0  0  0  0  0  0
  -25.0062  -33.9774   25.0470 H   0  0  0  0  0  0
  -22.6951  -31.3142   21.4166 H   0  0  0  0  0  0
  -23.3738  -35.9664   23.3306 H   0  0  0  0  0  0
  -24.3586  -36.8927   22.2048 H   0  0  0  0  0  0
  -23.7252  -37.6532   23.6646 H   0  0  0  0  0  0
  -26.0563  -31.5906   20.6029 H   0  0  0  0  0  0
  -26.8253  -30.8728   21.9900 H   0  0  0  0  0  0
  -28.0949  -29.0614   21.1826 H   0  0  0  0  0  0
  -25.9927  -26.0099   18.9391 H   0  0  0  0  0  0
  -23.9661  -27.3329   19.0008 H   0  0  0  0  0  0
  -23.7216  -30.6141   19.4086 H   0  0  0  0  0  0
  -22.7345  -29.2586   19.8664 H   0  0  0  0  0  0
  -25.1283  -36.1975   25.0827 H   0  0  0  0  0  0
  -20.9965  -28.3238   24.1425 H   0  0  0  0  0  0
  -20.5677  -26.2278   23.3600 H   0  0  0  0  0  0
  -21.6640  -26.7450   22.1200 H   0  0  0  0  0  0
  -19.6906  -25.6300   21.1234 H   0  0  0  0  0  0
  -19.6681  -27.3206   20.6749 H   0  0  0  0  0  0
  -17.4193  -26.6674   21.4033 H   0  0  0  0  0  0
  -18.0332  -26.0061   22.9019 H   0  0  0  0  0  0
  -19.7929  -30.7266   24.2277 H   0  0  0  0  0  0
  -17.5010  -31.6264   24.5172 H   0  0  0  0  0  0
  -15.5349  -30.2997   23.7635 H   0  0  0  0  0  0
  -15.8667  -28.0831   22.7048 H   0  0  0  0  0  0
  -24.5925  -30.7044   25.7820 H   0  0  0  0  0  0
  -24.8923  -32.2869   26.4907 H   0  0  0  0  0  0
  -25.8097  -30.8899   27.0238 H   0  0  0  0  0  0
  -26.2869  -29.6794   24.1170 H   0  0  0  0  0  0
  -27.4076  -29.7277   25.4586 H   0  0  0  0  0  0
  -27.8709  -30.4346   23.9286 H   0  0  0  0  0  0
  -27.2645  -33.3612   26.2098 H   0  0  0  0  0  0
  -28.3844  -32.6913   25.0327 H   0  0  0  0  0  0
  -28.0724  -31.8441   26.5397 H   0  0  0  0  0  0
  -28.2601  -38.0107   24.7507 H   0  0  0  0  0  0
  -28.1073  -36.2637   24.6296 H   0  0  0  0  0  0
  -27.2299  -37.1473   25.8869 H   0  0  0  0  0  0
  -20.9297  -29.8775   21.6950 H   0  0  0  0  0  0
  -26.0183  -38.2872   24.1398 H   0  0  0  0  0  0
  -27.2778  -24.8466   20.2935 H   0  0  0  0  0  0
  -28.1615  -25.0626   18.7784 H   0  0  0  0  0  0
  -30.3264  -19.4913   22.3013 H   0  0  0  0  0  0
  -31.2674  -19.4391   20.8372 H   0  0  0  0  0  0
  -28.3900  -20.4530   21.0404 H   0  0  0  0  0  0
  -29.3057  -20.3787   19.5566 H   0  0  0  0  0  0
  -29.6237  -17.8032   19.8424 H   0  0  0  0  0  0
  -28.6940  -17.8460   21.3197 H   0  0  0  0  0  0
  -30.9666  -22.0301   20.4717 H   0  0  0  0  0  0
  -30.0928  -22.0831   21.9879 H   0  0  0  0  0  0
  -30.6686  -16.9256   22.5893 H   0  0  0  0  0  0
  -31.6104  -16.9167   21.1275 H   0  0  0  0  0  0
  -28.2470  -22.7015   19.9371 H   0  0  0  0  0  0
  -29.1644  -15.2212   21.6084 H   0  0  0  0  0  0
  1 25  1  0  0  0
  1 30  2  0  0  0
  1 79  1  0  0  0
  2  3  1  0  0  0
  2 25  1  0  0  0
  2 81  1  0  0  0
  2 82  1  0  0  0
  3  4  1  0  0  0
  3 83  1  0  0  0
  3 84  1  0  0  0
  4  5  1  0  0  0
  4 85  1  0  0  0
  4 86  1  0  0  0
  5  6  1  0  0  0
  5 26  1  0  0  0
  5 87  1  0  0  0
  6 25  1  0  0  0
  6 88  1  0  0  0
  6 89  1  0  0  0
  7  8  2  0  0  0
  7 26  1  0  0  0
  7 29  1  0  0  0
  8  9  1  0  0  0
  8 22  1  0  0  0
  9 10  1  0  0  0
  9 27  2  0  0  0
 10 11  2  0  0  0
 10 15  1  0  0  0
 11 12  1  0  0  0
 11 90  1  0  0  0
 12 13  2  0  0  0
 12 91  1  0  0  0
 13 14  1  0  0  0
 13 31  1  0  0  0
 14 15  2  0  0  0
 14 92  1  0  0  0
 15 93  1  0  0  0
 16 17  2  0  0  0
 16 21  1  0  0  0
 16 31  1  0  0  0
 17 18  1  0  0  0
 17 94  1  0  0  0
 18 19  2  0  0  0
 18 95  1  0  0  0
 19 20  1  0  0  0
 19 24  1  0  0  0
 20 21  2  0  0  0
 20 96  1  0  0  0
 21 23  1  0  0  0
 22 28  1  0  0  0
 22 32  2  0  0  0
 26 27  1  0  0  0
 28 97  1  0  0  0
 28 98  1  0  0  0
 29 99  1  0  0  0
 29100  1  0  0  0
 33 34  1  0  0  0
 33 66  1  0  0  0
 33 70  2  0  0  0
 34 36  1  0  0  0
 34 59  1  0  0  0
 34101  1  0  0  0
 35 44  2  0  0  0
 35 45  1  0  0  0
 35 68  1  0  0  0
 36 56  1  0  0  0
 36102  1  0  0  0
 37 39  1  0  0  0
 37 47  1  0  0  0
 37 66  1  0  0  0
 37103  1  0  0  0
 38 43  2  0  0  0
 38 46  1  0  0  0
 38 47  1  0  0  0
 39 64  1  0  0  0
 39 67  2  0  0  0
 40 52  1  0  0  0
 40 53  2  0  0  0
 40 58  1  0  0  0
 41104  1  0  0  0
 41105  1  0  0  0
 41106  1  0  0  0
 41 48  1  0  0  0
 42 43  1  0  0  0
 42 66  1  0  0  0
 42107  1  0  0  0
 42108  1  0  0  0
 43 44  1  0  0  0
 44109  1  0  0  0
 45 46  2  0  0  0
 45110  1  0  0  0
 46111  1  0  0  0
 47112  1  0  0  0
 47113  1  0  0  0
 48 56  1  0  0  0
 48 65  1  0  0  0
 48114  1  0  0  0
 49 50  1  0  0  0
 49 53  1  0  0  0
 49 64  1  0  0  0
 49115  1  0  0  0
 50 51  1  0  0  0
 50116  1  0  0  0
 50117  1  0  0  0
 51 52  1  0  0  0
 51118  1  0  0  0
 51119  1  0  0  0
 52120  1  0  0  0
 52121  1  0  0  0
 53 54  1  0  0  0
 54 55  2  0  0  0
 54122  1  0  0  0
 55 57  1  0  0  0
 55123  1  0  0  0
 56 69  2  0  0  0
 57 58  2  0  0  0
 57124  1  0  0  0
 58125  1  0  0  0
 59 60  1  0  0  0
 59 61  1  0  0  0
 59 62  1  0  0  0
 60126  1  0  0  0
 60127  1  0  0  0
 60128  1  0  0  0
 61129  1  0  0  0
 61130  1  0  0  0
 61131  1  0  0  0
 62132  1  0  0  0
 62133  1  0  0  0
 62134  1  0  0  0
 63 65  1  0  0  0
 63135  1  0  0  0
 63136  1  0  0  0
 63137  1  0  0  0
 64138  1  0  0  0
 65139  1  0  0  0
 68 72  1  0  0  0
 71 72  1  0  0  0
 71 78  1  0  0  0
 71 80  2  0  0  0
 72140  1  0  0  0
 72141  1  0  0  0
 73 74  1  0  0  0
 73 75  1  0  0  0
 73142  1  0  0  0
 73143  1  0  0  0
 74 76  1  0  0  0
 74144  1  0  0  0
 74145  1  0  0  0
 75 77  1  0  0  0
 75146  1  0  0  0
 75147  1  0  0  0
 76 78  1  0  0  0
 76148  1  0  0  0
 76149  1  0  0  0
 77 79  1  0  0  0
 77150  1  0  0  0
 77151  1  0  0  0
 78152  1  0  0  0
 79153  1  0  0  0
M  ISO  4   1 100  68 101  72 101  79 100
M  END
> <chiral flag>
0

> <version>
0

> <s_m_source_file>
/data/baiqing/PycharmProjects/Reinvent-master-3.2/result/LINK_invent/BTK/process_docking_weight1_custom_product_contain_oxygen_bond_distance_aromatic_linkinvent_7_9_3/rearranged_h_0005.sdf

> <i_m_source_file_index>
31

> <r_mmod_Potential_Energy-OPLS-2005>
-142.342880249023

> <r_mmod_Stretch_Energy-OPLS-2005>
38.2808532714844

> <r_mmod_Bend_Energy-OPLS-2005>
93.6349716186523

> <r_mmod_Torsional_Energy-OPLS-2005>
186.269805908203

> <r_mmod_Improper_Torsional_Energy-OPLS-2005>
2.3336501121521

> <r_mmod_Van_der_Waal_Energy-OPLS-2005>
138.369903564453

> <r_mmod_Electrostatic_Energy-OPLS-2005>
-367.778839111328

> <r_mmod_Solvation_Energy-OPLS-2005>
-248.68376159668

> <b_mmod_Minimization_Converged-OPLS-2005>
0

> <r_mmod_RMS_Derivative-OPLS-2005>
0.793862402439117

$$$$
31
                    3D
 Structure written by MMmdl.
153161  0  0  1  0            999 V2000
  -30.4655  -15.1565   20.3862 C   0  0  0  0  0  0
  -30.4598  -12.7193   19.5263 C   0  0  0  0  0  0
  -29.5426  -12.5323   18.2898 C   0  0  0  0  0  0
  -28.0937  -12.2604   18.7384 C   0  0  0  0  0  0
  -27.6334  -13.2466   19.8410 C   0  0  2  0  0  0
  -28.6751  -13.3652   20.9766 C   0  0  0  0  0  0
  -25.2483  -13.8187   20.5725 C   0  0  0  0  0  0
  -24.1808  -13.0446   20.9238 C   0  0  0  0  0  0
  -24.6372  -11.6889   20.8754 C   0  0  0  0  0  0
  -23.9031  -10.4276   21.0395 C   0  0  0  0  0  0
  -24.3578   -9.4197   21.9187 C   0  0  0  0  0  0
  -23.6255   -8.2236   22.0764 C   0  0  0  0  0  0
  -22.4249   -8.0256   21.3546 C   0  0  0  0  0  0
  -21.9862   -9.0229   20.4660 C   0  0  0  0  0  0
  -22.7178  -10.2111   20.3067 C   0  0  0  0  0  0
  -21.6855   -6.0693   22.5262 C   0  0  0  0  0  0
  -21.4008   -6.5607   23.8190 C   0  0  0  0  0  0
  -21.3661   -5.6776   24.9161 C   0  0  0  0  0  0
  -21.6054   -4.3037   24.7228 C   0  0  0  0  0  0
  -21.8826   -3.8108   23.4352 C   0  0  0  0  0  0
  -21.9193   -4.6916   22.3399 C   0  0  0  0  0  0
  -22.7811  -13.5193   21.1908 C   0  0  0  0  0  0
  -22.1673   -4.2088   21.0987 F   0  0  0  0  0  0
  -21.5638   -3.4543   25.7754 F   0  0  0  0  0  0
  -29.9193  -13.8517   20.3540 N   0  0  0  0  0  0
  -26.2926  -12.9416   20.3289 N   0  0  0  0  0  0
  -25.9336  -11.6538   20.5797 N   0  0  0  0  0  0
  -22.0491  -12.8192   22.0436 N   0  0  0  0  0  0
  -25.4199  -15.1929   20.4096 N   0  0  0  0  0  0
  -31.6785  -15.2153   20.1524 O   0  0  0  0  0  0
  -21.6644   -6.8834   21.4217 O   0  0  0  0  0  0
  -22.3493  -14.5510   20.6730 O   0  0  0  0  0  0
  -24.6594  -31.8186   23.1876 C   0  0  0  0  0  0
  -25.9366  -32.4375   23.8334 C   0  0  1  0  0  0
  -27.2202  -27.0136   20.1584 C   0  0  0  0  0  0
  -25.6086  -33.8204   24.2248 N   0  0  0  0  0  0
  -23.4613  -30.4367   21.5302 C   0  0  2  0  0  0
  -24.9138  -28.8456   20.1073 C   0  0  0  0  0  0
  -22.7661  -29.4407   22.4915 C   0  0  0  0  0  0
  -18.0272  -28.1277   22.8497 C   0  0  0  0  0  0
  -24.1486  -36.6912   23.2688 C   0  0  0  0  0  0
  -26.0377  -30.6477   21.4135 C   0  0  0  0  0  0
  -26.0977  -29.2662   20.7240 C   0  0  0  0  0  0
  -27.2508  -28.3760   20.7128 C   0  0  0  0  0  0
  -26.0008  -26.7131   19.5168 C   0  0  0  0  0  0
  -24.8872  -27.5891   19.4796 C   0  0  0  0  0  0
  -23.6904  -29.7514   20.1554 C   0  0  0  0  0  0
  -25.4111  -36.2742   24.0398 C   0  0  1  0  0  0
  -20.5897  -28.3591   23.1195 C   0  0  2  0  0  0
  -20.6657  -26.9275   22.5385 C   0  0  0  0  0  0
  -19.5663  -26.6330   21.5132 C   0  0  0  0  0  0
  -18.1862  -26.7826   22.1596 C   0  0  0  0  0  0
  -19.1547  -28.8798   23.2794 C   0  0  0  0  0  0
  -18.9468  -30.1394   23.8804 C   0  0  0  0  0  0
  -17.6465  -30.6514   24.0476 C   0  0  0  0  0  0
  -25.9142  -34.9146   23.5141 C   0  0  0  0  0  0
  -16.5349  -29.8952   23.6346 C   0  0  0  0  0  0
  -16.7261  -28.6331   23.0459 C   0  0  0  0  0  0
  -26.4740  -31.6226   25.0798 C   0  0  0  0  0  0
  -25.4139  -31.3222   26.1639 C   0  0  0  0  0  0
  -27.0670  -30.2568   24.6587 C   0  0  0  0  0  0
  -27.6263  -32.4078   25.7497 C   0  0  0  0  0  0
  -27.5528  -37.1557   24.8581 C   0  0  0  0  0  0
  -21.4370  -29.2859   22.3597 N   0  0  0  0  0  0
  -26.4221  -37.3519   23.9543 N   0  0  0  0  0  0
  -24.7366  -30.9996   22.0900 N   0  0  0  0  0  0
  -23.4256  -28.8094   23.3204 O   0  0  0  0  0  0
  -28.2592  -25.9789   20.2812 O   0  0  0  0  0  0
  -26.5746  -34.8695   22.4727 O   0  0  0  0  0  0
  -23.5721  -32.1150   23.7074 O   0  0  0  0  0  0
  -30.5788  -19.1530   20.7461 C   0  0  0  0  0  0
  -28.5510  -18.8251   19.4944 C   0  0  0  0  0  0
  -30.0731  -20.6905   21.1105 C   0  0  0  0  0  0
  -28.0828  -20.3952   19.7843 C   0  0  0  0  0  0
  -29.4676  -17.9986   20.5421 C   0  0  1  0  0  0
  -28.6304  -22.9597   20.7053 C   0  0  0  0  0  0
  -28.2536  -24.4245   19.8374 C   0  0  0  0  0  0
  -29.6189  -16.3463   20.4896 N   0  0  0  0  0  0
  -29.1157  -21.4731   20.1745 N   0  3  1  0  0  0
  -31.4875  -12.8964   19.2091 H   0  0  0  0  0  0
  -30.4974  -11.7961   20.1096 H   0  0  0  0  0  0
  -29.9017  -11.7094   17.6721 H   0  0  0  0  0  0
  -29.5709  -13.4237   17.6657 H   0  0  0  0  0  0
  -28.0693  -11.2473   19.1437 H   0  0  0  0  0  0
  -27.4109  -12.2708   17.8911 H   0  0  0  0  0  0
  -27.5699  -14.2184   19.3532 H   0  0  0  0  0  0
  -28.8244  -12.4084   21.4789 H   0  0  0  0  0  0
  -28.3416  -14.0633   21.7440 H   0  0  0  0  0  0
  -25.2728   -9.5698   22.4755 H   0  0  0  0  0  0
  -23.9982   -7.4638   22.7496 H   0  0  0  0  0  0
  -21.0790   -8.8712   19.8971 H   0  0  0  0  0  0
  -22.3610  -10.9642   19.6175 H   0  0  0  0  0  0
  -21.1995   -7.6123   23.9656 H   0  0  0  0  0  0
  -21.1488   -6.0533   25.9063 H   0  0  0  0  0  0
  -22.0605   -2.7566   23.2883 H   0  0  0  0  0  0
  -22.4118  -11.9827   22.4800 H   0  0  0  0  0  0
  -21.1131  -13.1225   22.2722 H   0  0  0  0  0  0
  -24.6458  -15.8446   20.5127 H   0  0  0  0  0  0
  -26.2390  -15.6103   19.9898 H   0  0  0  0  0  0
  -26.7457  -32.4856   23.1053 H   0  0  0  0  0  0
  -25.0105  -33.9251   25.0309 H   0  0  0  0  0  0
  -22.7628  -31.2593   21.3650 H   0  0  0  0  0  0
  -23.3788  -35.9190   23.3358 H   0  0  0  0  0  0
  -24.3614  -36.8494   22.2103 H   0  0  0  0  0  0
  -23.7163  -37.6099   23.6686 H   0  0  0  0  0  0
  -26.2937  -31.4218   20.6896 H   0  0  0  0  0  0
  -26.8675  -30.6231   22.1084 H   0  0  0  0  0  0
  -28.1587  -28.7175   21.1923 H   0  0  0  0  0  0
  -25.8456  -25.7394   19.0829 H   0  0  0  0  0  0
  -23.9808  -27.2440   18.9999 H   0  0  0  0  0  0
  -23.8094  -30.5132   19.3876 H   0  0  0  0  0  0
  -22.8112  -29.1759   19.8617 H   0  0  0  0  0  0
  -25.1240  -36.1513   25.0878 H   0  0  0  0  0  0
  -20.9911  -28.3083   24.1337 H   0  0  0  0  0  0
  -20.5320  -26.2205   23.3600 H   0  0  0  0  0  0
  -21.6525  -26.7100   22.1309 H   0  0  0  0  0  0
  -19.6772  -25.6272   21.1057 H   0  0  0  0  0  0
  -19.6527  -27.3218   20.6736 H   0  0  0  0  0  0
  -17.4097  -26.6598   21.4024 H   0  0  0  0  0  0
  -18.0279  -25.9904   22.8955 H   0  0  0  0  0  0
  -19.7963  -30.7199   24.2119 H   0  0  0  0  0  0
  -17.5018  -31.6204   24.5049 H   0  0  0  0  0  0
  -15.5331  -30.2815   23.7724 H   0  0  0  0  0  0
  -15.8647  -28.0556   22.7359 H   0  0  0  0  0  0
  -24.6484  -30.6273   25.8175 H   0  0  0  0  0  0
  -24.9157  -32.2201   26.5290 H   0  0  0  0  0  0
  -25.8805  -30.8464   27.0301 H   0  0  0  0  0  0
  -26.3336  -29.6107   24.1743 H   0  0  0  0  0  0
  -27.4286  -29.7014   25.5282 H   0  0  0  0  0  0
  -27.9291  -30.3641   23.9988 H   0  0  0  0  0  0
  -27.2891  -33.3470   26.1916 H   0  0  0  0  0  0
  -28.4112  -32.6484   25.0293 H   0  0  0  0  0  0
  -28.0928  -31.8316   26.5526 H   0  0  0  0  0  0
  -28.2574  -37.9832   24.7589 H   0  0  0  0  0  0
  -28.1005  -36.2353   24.6432 H   0  0  0  0  0  0
  -27.2298  -37.1218   25.9016 H   0  0  0  0  0  0
  -20.9745  -29.8366   21.6513 H   0  0  0  0  0  0
  -26.0023  -38.2552   24.1616 H   0  0  0  0  0  0
  -31.2437  -18.8533   21.5632 H   0  0  0  0  0  0
  -31.2302  -19.2036   19.8672 H   0  0  0  0  0  0
  -29.0413  -18.8025   18.5180 H   0  0  0  0  0  0
  -27.6210  -18.2689   19.3481 H   0  0  0  0  0  0
  -29.5924  -20.6348   22.0942 H   0  0  0  0  0  0
  -30.9505  -21.3228   21.2819 H   0  0  0  0  0  0
  -27.3009  -20.3704   20.5495 H   0  0  0  0  0  0
  -27.5760  -20.7513   18.8800 H   0  0  0  0  0  0
  -28.8907  -18.0577   21.4720 H   0  0  0  0  0  0
  -27.7784  -22.7841   21.3772 H   0  0  0  0  0  0
  -29.4405  -23.2646   21.3755 H   0  0  0  0  0  0
  -28.9587  -24.4374   19.0089 H   0  0  0  0  0  0
  -27.2979  -24.2201   19.3558 H   0  0  0  0  0  0
  -28.6947  -15.9669   20.6357 H   0  0  0  0  0  0
  -29.6635  -21.6445   19.3379 H   0  0  0  0  0  0
  1 25  1  0  0  0
  1 30  2  0  0  0
  1 78  1  0  0  0
  2  3  1  0  0  0
  2 25  1  0  0  0
  2 80  1  0  0  0
  2 81  1  0  0  0
  3  4  1  0  0  0
  3 82  1  0  0  0
  3 83  1  0  0  0
  4  5  1  0  0  0
  4 84  1  0  0  0
  4 85  1  0  0  0
  5  6  1  0  0  0
  5 26  1  0  0  0
  5 86  1  0  0  0
  6 25  1  0  0  0
  6 87  1  0  0  0
  6 88  1  0  0  0
  7  8  2  0  0  0
  7 26  1  0  0  0
  7 29  1  0  0  0
  8  9  1  0  0  0
  8 22  1  0  0  0
  9 10  1  0  0  0
  9 27  2  0  0  0
 10 11  2  0  0  0
 10 15  1  0  0  0
 11 12  1  0  0  0
 11 89  1  0  0  0
 12 13  2  0  0  0
 12 90  1  0  0  0
 13 14  1  0  0  0
 13 31  1  0  0  0
 14 15  2  0  0  0
 14 91  1  0  0  0
 15 92  1  0  0  0
 16 17  2  0  0  0
 16 21  1  0  0  0
 16 31  1  0  0  0
 17 18  1  0  0  0
 17 93  1  0  0  0
 18 19  2  0  0  0
 18 94  1  0  0  0
 19 20  1  0  0  0
 19 24  1  0  0  0
 20 21  2  0  0  0
 20 95  1  0  0  0
 21 23  1  0  0  0
 22 28  1  0  0  0
 22 32  2  0  0  0
 26 27  1  0  0  0
 28 96  1  0  0  0
 28 97  1  0  0  0
 29 98  1  0  0  0
 29 99  1  0  0  0
 33 34  1  0  0  0
 33 66  1  0  0  0
 33 70  2  0  0  0
 34 36  1  0  0  0
 34 59  1  0  0  0
 34100  1  0  0  0
 35 44  2  0  0  0
 35 45  1  0  0  0
 35 68  1  0  0  0
 36 56  1  0  0  0
 36101  1  0  0  0
 37 39  1  0  0  0
 37 47  1  0  0  0
 37 66  1  0  0  0
 37102  1  0  0  0
 38 43  2  0  0  0
 38 46  1  0  0  0
 38 47  1  0  0  0
 39 64  1  0  0  0
 39 67  2  0  0  0
 40 52  1  0  0  0
 40 53  2  0  0  0
 40 58  1  0  0  0
 41103  1  0  0  0
 41104  1  0  0  0
 41105  1  0  0  0
 41 48  1  0  0  0
 42 43  1  0  0  0
 42 66  1  0  0  0
 42106  1  0  0  0
 42107  1  0  0  0
 43 44  1  0  0  0
 44108  1  0  0  0
 45 46  2  0  0  0
 45109  1  0  0  0
 46110  1  0  0  0
 47111  1  0  0  0
 47112  1  0  0  0
 48 56  1  0  0  0
 48 65  1  0  0  0
 48113  1  0  0  0
 49 50  1  0  0  0
 49 53  1  0  0  0
 49 64  1  0  0  0
 49114  1  0  0  0
 50 51  1  0  0  0
 50115  1  0  0  0
 50116  1  0  0  0
 51 52  1  0  0  0
 51117  1  0  0  0
 51118  1  0  0  0
 52119  1  0  0  0
 52120  1  0  0  0
 53 54  1  0  0  0
 54 55  2  0  0  0
 54121  1  0  0  0
 55 57  1  0  0  0
 55122  1  0  0  0
 56 69  2  0  0  0
 57 58  2  0  0  0
 57123  1  0  0  0
 58124  1  0  0  0
 59 60  1  0  0  0
 59 61  1  0  0  0
 59 62  1  0  0  0
 60125  1  0  0  0
 60126  1  0  0  0
 60127  1  0  0  0
 61128  1  0  0  0
 61129  1  0  0  0
 61130  1  0  0  0
 62131  1  0  0  0
 62132  1  0  0  0
 62133  1  0  0  0
 63 65  1  0  0  0
 63134  1  0  0  0
 63135  1  0  0  0
 63136  1  0  0  0
 64137  1  0  0  0
 65138  1  0  0  0
 68 77  1  0  0  0
 71 73  1  0  0  0
 71 75  1  0  0  0
 71139  1  0  0  0
 71140  1  0  0  0
 72 74  1  0  0  0
 72 75  1  0  0  0
 72141  1  0  0  0
 72142  1  0  0  0
 73 79  1  0  0  0
 73143  1  0  0  0
 73144  1  0  0  0
 74 79  1  0  0  0
 74145  1  0  0  0
 74146  1  0  0  0
 75 78  1  0  0  0
 75147  1  0  0  0
 76 77  1  0  0  0
 76148  1  0  0  0
 76149  1  0  0  0
 76 79  1  0  0  0
 77150  1  0  0  0
 77151  1  0  0  0
 78152  1  0  0  0
 79153  1  0  0  0
M  CHG  1  79   1
M  ISO  4   1 100  68 101  77 101  78 100
M  END
> <chiral flag>
0

> <version>
0

> <s_m_source_file>
/data/baiqing/PycharmProjects/Reinvent-master-3.2/result/LINK_invent/BTK/process_docking_weight1_custom_product_contain_oxygen_bond_distance_aromatic_linkinvent_7_9_3/rearranged_h_0005.sdf

> <i_m_source_file_index>
32

> <r_mmod_Potential_Energy-OPLS-2005>
907.49267578125

> <r_mmod_Stretch_Energy-OPLS-2005>
422.123931884766

> <r_mmod_Bend_Energy-OPLS-2005>
452.849731445312

> <r_mmod_Torsional_Energy-OPLS-2005>
236.023727416992

> <r_mmod_Improper_Torsional_Energy-OPLS-2005>
4.44967126846313

> <r_mmod_Van_der_Waal_Energy-OPLS-2005>
109.575119018555

> <r_mmod_Electrostatic_Energy-OPLS-2005>
-210.960876464844

> <r_mmod_Solvation_Energy-OPLS-2005>
-454.601898193359

> <b_mmod_Minimization_Converged-OPLS-2005>
0

> <r_mmod_RMS_Derivative-OPLS-2005>
8.72944927215576

$$$$
32
                    3D
 Structure written by MMmdl.
161170  0  0  1  0            999 V2000
  -30.7422  -14.3540   20.6765 C   0  0  0  0  0  0
  -30.4218  -12.2724   19.3946 C   0  0  0  0  0  0
  -29.4900  -12.5268   18.1941 C   0  0  0  0  0  0
  -28.0106  -12.3906   18.6039 C   0  0  0  0  0  0
  -27.6714  -13.1983   19.8842 C   0  0  2  0  0  0
  -28.7046  -12.9089   20.9951 C   0  0  0  0  0  0
  -25.2626  -13.8150   20.5659 C   0  0  0  0  0  0
  -24.1858  -13.0439   20.9145 C   0  0  0  0  0  0
  -24.6393  -11.6901   20.8704 C   0  0  0  0  0  0
  -23.9048  -10.4296   21.0383 C   0  0  0  0  0  0
  -24.3607   -9.4216   21.9165 C   0  0  0  0  0  0
  -23.6288   -8.2250   22.0744 C   0  0  0  0  0  0
  -22.4265   -8.0277   21.3539 C   0  0  0  0  0  0
  -21.9894   -9.0246   20.4642 C   0  0  0  0  0  0
  -22.7218  -10.2130   20.3041 C   0  0  0  0  0  0
  -21.6860   -6.0730   22.5275 C   0  0  0  0  0  0
  -21.4023   -6.5633   23.8208 C   0  0  0  0  0  0
  -21.3661   -5.6785   24.9173 C   0  0  0  0  0  0
  -21.6039   -4.3048   24.7224 C   0  0  0  0  0  0
  -21.8822   -3.8140   23.4346 C   0  0  0  0  0  0
  -21.9199   -4.6957   22.3404 C   0  0  0  0  0  0
  -22.7882  -13.5243   21.1822 C   0  0  0  0  0  0
  -22.1665   -4.2143   21.0980 F   0  0  0  0  0  0
  -21.5627   -3.4531   25.7737 F   0  0  0  0  0  0
  -30.0550  -13.2017   20.4718 N   0  0  0  0  0  0
  -26.3067  -12.9308   20.3374 N   0  0  0  0  0  0
  -25.9318  -11.6470   20.5733 N   0  0  0  0  0  0
  -22.0523  -12.8247   22.0389 N   0  0  0  0  0  0
  -25.4370  -15.1863   20.4088 N   0  0  0  0  0  0
  -31.7637  -14.6586   20.0495 O   0  0  0  0  0  0
  -21.6638   -6.8869   21.4232 O   0  0  0  0  0  0
  -22.3562  -14.5543   20.6666 O   0  0  0  0  0  0
  -24.6061  -31.8717   23.2115 C   0  0  0  0  0  0
  -25.8979  -32.4848   23.8396 C   0  0  1  0  0  0
  -27.2583  -27.4948   20.1024 C   0  0  0  0  0  0
  -25.5845  -33.8641   24.2331 N   0  0  0  0  0  0
  -23.3911  -30.4924   21.5499 C   0  0  2  0  0  0
  -24.8424  -28.9581   20.1214 C   0  0  0  0  0  0
  -22.7353  -29.4683   22.5022 C   0  0  0  0  0  0
  -18.0258  -28.1380   22.8491 C   0  0  0  0  0  0
  -24.1479  -36.7342   23.2642 C   0  0  0  0  0  0
  -25.9076  -30.8642   21.3466 C   0  0  0  0  0  0
  -25.9947  -29.4994   20.7027 C   0  0  0  0  0  0
  -27.2057  -28.7851   20.6802 C   0  0  0  0  0  0
  -26.0893  -26.9543   19.5284 C   0  0  0  0  0  0
  -24.8813  -27.6815   19.5316 C   0  0  0  0  0  0
  -23.5974  -29.8132   20.1679 C   0  0  0  0  0  0
  -25.4097  -36.3129   24.0342 C   0  0  1  0  0  0
  -20.5837  -28.3647   23.1342 C   0  0  2  0  0  0
  -20.6747  -26.9393   22.5425 C   0  0  0  0  0  0
  -19.5736  -26.6387   21.5209 C   0  0  0  0  0  0
  -18.1913  -26.7924   22.1617 C   0  0  0  0  0  0
  -19.1507  -28.8825   23.2919 C   0  0  0  0  0  0
  -18.9448  -30.1432   23.8925 C   0  0  0  0  0  0
  -17.6452  -30.6583   24.0571 C   0  0  0  0  0  0
  -25.9011  -34.9490   23.5139 C   0  0  0  0  0  0
  -16.5342  -29.9099   23.6324 C   0  0  0  0  0  0
  -16.7251  -28.6516   23.0338 C   0  0  0  0  0  0
  -26.4454  -31.6609   25.0693 C   0  0  0  0  0  0
  -25.3761  -31.3689   26.1472 C   0  0  0  0  0  0
  -27.0287  -30.3072   24.5994 C   0  0  0  0  0  0
  -27.6040  -32.4320   25.7442 C   0  0  0  0  0  0
  -27.5578  -37.1822   24.8459 C   0  0  0  0  0  0
  -21.4091  -29.3027   22.3756 N   0  0  0  0  0  0
  -26.4295  -37.3802   23.9400 N   0  0  0  0  0  0
  -24.6530  -31.0884   22.0969 N   0  0  0  0  0  0
  -23.4159  -28.8241   23.3048 O   0  0  0  0  0  0
  -28.4147  -26.7500   20.0483 O   0  0  0  0  0  0
  -26.5585  -34.8936   22.4708 O   0  0  0  0  0  0
  -23.5272  -32.1425   23.7561 O   0  0  0  0  0  0
  -32.3892  -24.8357   23.3816 C   0  0  0  0  0  0
  -31.2851  -25.6565   23.0812 C   0  0  0  0  0  0
  -30.4578  -18.7742   20.8518 C   0  0  0  0  0  0
  -29.6860  -18.4708   23.1439 C   0  0  0  0  0  0
  -32.3302  -23.4511   23.1304 C   0  0  0  0  0  0
  -30.5725  -17.3803   20.7027 C   0  0  0  0  0  0
  -29.7988  -17.0757   22.9969 C   0  0  0  0  0  0
  -30.0635  -23.7056   22.2767 C   0  0  0  0  0  0
  -30.0088  -19.3219   22.0689 C   0  0  0  0  0  0
  -30.1204  -25.0904   22.5210 C   0  0  0  0  0  0
  -30.2427  -16.5202   21.7786 C   0  0  0  0  0  0
  -31.1652  -22.8742   22.5846 C   0  0  0  0  0  0
  -29.8613  -20.8190   22.2094 C   0  0  0  0  0  0
  -28.9253  -25.9570   22.1780 C   0  0  0  0  0  0
  -30.2603  -15.1067   21.6745 N   0  0  0  0  0  0
  -31.1418  -21.4917   22.3634 N   0  0  0  0  0  0
  -29.2605  -26.9801   21.2007 N   0  0  0  0  0  0
  -31.4657  -12.3765   19.0927 H   0  0  0  0  0  0
  -30.3187  -11.2439   19.7436 H   0  0  0  0  0  0
  -29.7190  -11.8299   17.3867 H   0  0  0  0  0  0
  -29.6701  -13.5265   17.7955 H   0  0  0  0  0  0
  -27.8060  -11.3321   18.7676 H   0  0  0  0  0  0
  -27.3630  -12.6996   17.7819 H   0  0  0  0  0  0
  -27.7388  -14.2569   19.6301 H   0  0  0  0  0  0
  -28.6576  -11.8583   21.2849 H   0  0  0  0  0  0
  -28.4446  -13.4607   21.8986 H   0  0  0  0  0  0
  -25.2757   -9.5702   22.4726 H   0  0  0  0  0  0
  -24.0004   -7.4648   22.7463 H   0  0  0  0  0  0
  -21.0822   -8.8756   19.8955 H   0  0  0  0  0  0
  -22.3663  -10.9658   19.6142 H   0  0  0  0  0  0
  -21.2015   -7.6140   23.9714 H   0  0  0  0  0  0
  -21.1478   -6.0513   25.9075 H   0  0  0  0  0  0
  -22.0600   -2.7599   23.2847 H   0  0  0  0  0  0
  -22.4143  -11.9920   22.4794 H   0  0  0  0  0  0
  -21.1135  -13.1270   22.2582 H   0  0  0  0  0  0
  -24.6772  -15.8473   20.5283 H   0  0  0  0  0  0
  -26.3037  -15.6252   20.1227 H   0  0  0  0  0  0
  -26.7055  -32.5598   23.1178 H   0  0  0  0  0  0
  -24.9980  -33.9811   25.0465 H   0  0  0  0  0  0
  -22.6767  -31.3057   21.4080 H   0  0  0  0  0  0
  -23.3729  -35.9690   23.3328 H   0  0  0  0  0  0
  -24.3570  -36.8934   22.2050 H   0  0  0  0  0  0
  -23.7253  -37.6560   23.6645 H   0  0  0  0  0  0
  -25.9964  -31.6300   20.5748 H   0  0  0  0  0  0
  -26.8021  -30.9317   21.9533 H   0  0  0  0  0  0
  -28.0880  -29.2485   21.0968 H   0  0  0  0  0  0
  -26.1202  -25.9735   19.0751 H   0  0  0  0  0  0
  -23.9938  -27.2532   19.0868 H   0  0  0  0  0  0
  -23.6935  -30.5816   19.3995 H   0  0  0  0  0  0
  -22.7255  -29.2226   19.8806 H   0  0  0  0  0  0
  -25.1279  -36.2004   25.0837 H   0  0  0  0  0  0
  -20.9930  -28.3208   24.1461 H   0  0  0  0  0  0
  -20.5639  -26.2254   23.3605 H   0  0  0  0  0  0
  -21.6626  -26.7439   22.1229 H   0  0  0  0  0  0
  -19.6899  -25.6304   21.1227 H   0  0  0  0  0  0
  -19.6689  -27.3206   20.6749 H   0  0  0  0  0  0
  -17.4188  -26.6668   21.4022 H   0  0  0  0  0  0
  -18.0325  -26.0064   22.9010 H   0  0  0  0  0  0
  -19.7931  -30.7233   24.2311 H   0  0  0  0  0  0
  -17.5022  -31.6270   24.5168 H   0  0  0  0  0  0
  -15.5351  -30.3016   23.7631 H   0  0  0  0  0  0
  -15.8648  -28.0851   22.7028 H   0  0  0  0  0  0
  -24.5883  -30.7096   25.7822 H   0  0  0  0  0  0
  -24.9029  -32.2849   26.5025 H   0  0  0  0  0  0
  -25.8149  -30.8770   27.0160 H   0  0  0  0  0  0
  -26.2809  -29.6828   24.1092 H   0  0  0  0  0  0
  -27.4166  -29.7306   25.4404 H   0  0  0  0  0  0
  -27.8583  -30.4440   23.9058 H   0  0  0  0  0  0
  -27.2645  -33.3586   26.2096 H   0  0  0  0  0  0
  -28.3795  -32.6958   25.0249 H   0  0  0  0  0  0
  -28.0765  -31.8409   26.5301 H   0  0  0  0  0  0
  -28.2606  -38.0105   24.7489 H   0  0  0  0  0  0
  -28.1063  -36.2636   24.6307 H   0  0  0  0  0  0
  -27.2296  -37.1498   25.8863 H   0  0  0  0  0  0
  -20.9234  -29.8750   21.6991 H   0  0  0  0  0  0
  -26.0196  -38.2886   24.1392 H   0  0  0  0  0  0
  -33.2838  -25.2685   23.8067 H   0  0  0  0  0  0
  -31.3359  -26.7200   23.2751 H   0  0  0  0  0  0
  -30.6982  -19.4244   20.0221 H   0  0  0  0  0  0
  -29.3381  -18.8850   24.0803 H   0  0  0  0  0  0
  -33.1887  -22.8374   23.3676 H   0  0  0  0  0  0
  -30.8919  -16.9951   19.7448 H   0  0  0  0  0  0
  -29.5300  -16.4370   23.8272 H   0  0  0  0  0  0
  -29.1593  -23.3014   21.8456 H   0  0  0  0  0  0
  -29.2184  -21.0449   23.0614 H   0  0  0  0  0  0
  -29.3500  -21.1878   21.3194 H   0  0  0  0  0  0
  -28.5873  -26.4482   23.0922 H   0  0  0  0  0  0
  -28.0928  -25.3385   21.8372 H   0  0  0  0  0  0
  -29.6197  -14.6228   22.2854 H   0  0  0  0  0  0
  -31.9090  -20.9310   22.7223 H   0  0  0  0  0  0
  -28.9520  -27.8694   21.5771 H   0  0  0  0  0  0
  1 25  1  0  0  0
  1 30  2  0  0  0
  1 85  1  0  0  0
  2  3  1  0  0  0
  2 25  1  0  0  0
  2 88  1  0  0  0
  2 89  1  0  0  0
  3  4  1  0  0  0
  3 90  1  0  0  0
  3 91  1  0  0  0
  4  5  1  0  0  0
  4 92  1  0  0  0
  4 93  1  0  0  0
  5  6  1  0  0  0
  5 26  1  0  0  0
  5 94  1  0  0  0
  6 25  1  0  0  0
  6 95  1  0  0  0
  6 96  1  0  0  0
  7  8  2  0  0  0
  7 26  1  0  0  0
  7 29  1  0  0  0
  8  9  1  0  0  0
  8 22  1  0  0  0
  9 10  1  0  0  0
  9 27  2  0  0  0
 10 11  2  0  0  0
 10 15  1  0  0  0
 11 12  1  0  0  0
 11 97  1  0  0  0
 12 13  2  0  0  0
 12 98  1  0  0  0
 13 14  1  0  0  0
 13 31  1  0  0  0
 14 15  2  0  0  0
 14 99  1  0  0  0
 15100  1  0  0  0
 16 17  2  0  0  0
 16 21  1  0  0  0
 16 31  1  0  0  0
 17 18  1  0  0  0
 17101  1  0  0  0
 18 19  2  0  0  0
 18102  1  0  0  0
 19 20  1  0  0  0
 19 24  1  0  0  0
 20 21  2  0  0  0
 20103  1  0  0  0
 21 23  1  0  0  0
 22 28  1  0  0  0
 22 32  2  0  0  0
 26 27  1  0  0  0
 28104  1  0  0  0
 28105  1  0  0  0
 29106  1  0  0  0
 29107  1  0  0  0
 33 34  1  0  0  0
 33 66  1  0  0  0
 33 70  2  0  0  0
 34 36  1  0  0  0
 34 59  1  0  0  0
 34108  1  0  0  0
 35 44  2  0  0  0
 35 45  1  0  0  0
 35 68  1  0  0  0
 36 56  1  0  0  0
 36109  1  0  0  0
 37 39  1  0  0  0
 37 47  1  0  0  0
 37 66  1  0  0  0
 37110  1  0  0  0
 38 43  2  0  0  0
 38 46  1  0  0  0
 38 47  1  0  0  0
 39 64  1  0  0  0
 39 67  2  0  0  0
 40 52  1  0  0  0
 40 53  2  0  0  0
 40 58  1  0  0  0
 41111  1  0  0  0
 41112  1  0  0  0
 41113  1  0  0  0
 41 48  1  0  0  0
 42 43  1  0  0  0
 42 66  1  0  0  0
 42114  1  0  0  0
 42115  1  0  0  0
 43 44  1  0  0  0
 44116  1  0  0  0
 45 46  2  0  0  0
 45117  1  0  0  0
 46118  1  0  0  0
 47119  1  0  0  0
 47120  1  0  0  0
 48 56  1  0  0  0
 48 65  1  0  0  0
 48121  1  0  0  0
 49 50  1  0  0  0
 49 53  1  0  0  0
 49 64  1  0  0  0
 49122  1  0  0  0
 50 51  1  0  0  0
 50123  1  0  0  0
 50124  1  0  0  0
 51 52  1  0  0  0
 51125  1  0  0  0
 51126  1  0  0  0
 52127  1  0  0  0
 52128  1  0  0  0
 53 54  1  0  0  0
 54 55  2  0  0  0
 54129  1  0  0  0
 55 57  1  0  0  0
 55130  1  0  0  0
 56 69  2  0  0  0
 57 58  2  0  0  0
 57131  1  0  0  0
 58132  1  0  0  0
 59 60  1  0  0  0
 59 61  1  0  0  0
 59 62  1  0  0  0
 60133  1  0  0  0
 60134  1  0  0  0
 60135  1  0  0  0
 61136  1  0  0  0
 61137  1  0  0  0
 61138  1  0  0  0
 62139  1  0  0  0
 62140  1  0  0  0
 62141  1  0  0  0
 63 65  1  0  0  0
 63142  1  0  0  0
 63143  1  0  0  0
 63144  1  0  0  0
 64145  1  0  0  0
 65146  1  0  0  0
 68 87  1  0  0  0
 71 72  2  0  0  0
 71 75  1  0  0  0
 71147  1  0  0  0
 72 80  1  0  0  0
 72148  1  0  0  0
 73 76  2  0  0  0
 73 79  1  0  0  0
 73149  1  0  0  0
 74 77  1  0  0  0
 74 79  2  0  0  0
 74150  1  0  0  0
 75 82  2  0  0  0
 75151  1  0  0  0
 76 81  1  0  0  0
 76152  1  0  0  0
 77 81  2  0  0  0
 77153  1  0  0  0
 78 80  2  0  0  0
 78 82  1  0  0  0
 78154  1  0  0  0
 79 83  1  0  0  0
 80 84  1  0  0  0
 81 85  1  0  0  0
 82 86  1  0  0  0
 83 86  1  0  0  0
 83155  1  0  0  0
 83156  1  0  0  0
 84 87  1  0  0  0
 84157  1  0  0  0
 84158  1  0  0  0
 85159  1  0  0  0
 86160  1  0  0  0
 87161  1  0  0  0
M  ISO  4   1 100  68 101  85 100  87 101
M  END
> <chiral flag>
0

> <version>
0

> <s_m_source_file>
/data/baiqing/PycharmProjects/Reinvent-master-3.2/result/LINK_invent/BTK/process_docking_weight1_custom_product_contain_oxygen_bond_distance_aromatic_linkinvent_7_9_3/rearranged_h_0005.sdf

> <i_m_source_file_index>
33

> <r_mmod_Potential_Energy-OPLS-2005>
-111.24585723877

> <r_mmod_Stretch_Energy-OPLS-2005>
32.0672225952148

> <r_mmod_Bend_Energy-OPLS-2005>
95.0428848266602

> <r_mmod_Torsional_Energy-OPLS-2005>
212.018997192383

> <r_mmod_Improper_Torsional_Energy-OPLS-2005>
5.02161359786987

> <r_mmod_Van_der_Waal_Energy-OPLS-2005>
182.682815551758

> <r_mmod_Electrostatic_Energy-OPLS-2005>
-412.748565673828

> <r_mmod_Solvation_Energy-OPLS-2005>
-231.23161315918

> <b_mmod_Minimization_Converged-OPLS-2005>
0

> <r_mmod_RMS_Derivative-OPLS-2005>
1.34094595909119

$$$$
33
                    3D
 Structure written by MMmdl.
150158  0  0  1  0            999 V2000
  -30.4148  -15.4922   20.3454 C   0  0  0  0  0  0
  -30.4110  -12.9824   19.5307 C   0  0  0  0  0  0
  -29.5316  -12.6171   18.3075 C   0  0  0  0  0  0
  -28.0998  -12.2931   18.7540 C   0  0  0  0  0  0
  -27.5933  -13.3012   19.8128 C   0  0  2  0  0  0
  -28.6164  -13.6083   20.9311 C   0  0  0  0  0  0
  -25.2318  -13.8297   20.5816 C   0  0  0  0  0  0
  -24.1698  -13.0448   20.9295 C   0  0  0  0  0  0
  -24.6389  -11.6955   20.8780 C   0  0  0  0  0  0
  -23.9103  -10.4296   21.0409 C   0  0  0  0  0  0
  -24.3645   -9.4206   21.9185 C   0  0  0  0  0  0
  -23.6310   -8.2245   22.0753 C   0  0  0  0  0  0
  -22.4288   -8.0288   21.3547 C   0  0  0  0  0  0
  -21.9934   -9.0264   20.4647 C   0  0  0  0  0  0
  -22.7274  -10.2138   20.3057 C   0  0  0  0  0  0
  -21.6857   -6.0739   22.5278 C   0  0  0  0  0  0
  -21.4020   -6.5642   23.8212 C   0  0  0  0  0  0
  -21.3661   -5.6795   24.9175 C   0  0  0  0  0  0
  -21.6045   -4.3057   24.7224 C   0  0  0  0  0  0
  -21.8818   -3.8148   23.4345 C   0  0  0  0  0  0
  -21.9193   -4.6965   22.3401 C   0  0  0  0  0  0
  -22.7712  -13.5178   21.1930 C   0  0  0  0  0  0
  -22.1660   -4.2152   21.0978 F   0  0  0  0  0  0
  -21.5625   -3.4541   25.7736 F   0  0  0  0  0  0
  -29.8063  -14.1788   20.2668 N   0  0  0  0  0  0
  -26.2749  -12.9614   20.3259 N   0  0  0  0  0  0
  -25.9332  -11.6691   20.5733 N   0  0  0  0  0  0
  -22.0377  -12.8149   22.0478 N   0  0  0  0  0  0
  -25.3945  -15.2037   20.4269 N   0  0  0  0  0  0
  -31.6422  -15.3537   20.1831 O   0  0  0  0  0  0
  -21.6648   -6.8887   21.4242 O   0  0  0  0  0  0
  -22.3392  -14.5479   20.6769 O   0  0  0  0  0  0
  -24.6761  -31.8082   23.1573 C   0  0  0  0  0  0
  -25.9378  -32.4506   23.8095 C   0  0  1  0  0  0
  -27.2183  -26.7801   20.2035 C   0  0  0  0  0  0
  -25.5988  -33.8328   24.1988 N   0  0  0  0  0  0
  -23.4981  -30.4133   21.5094 C   0  0  2  0  0  0
  -24.9534  -28.7703   20.1125 C   0  0  0  0  0  0
  -22.7733  -29.4356   22.4730 C   0  0  0  0  0  0
  -18.0336  -28.1414   22.8464 C   0  0  0  0  0  0
  -24.1495  -36.7174   23.2652 C   0  0  0  0  0  0
  -26.0742  -30.5659   21.4102 C   0  0  0  0  0  0
  -26.1392  -29.1397   20.7580 C   0  0  0  0  0  0
  -27.2594  -28.1690   20.7749 C   0  0  0  0  0  0
  -26.0047  -26.6016   19.4972 C   0  0  0  0  0  0
  -24.9207  -27.5264   19.4589 C   0  0  0  0  0  0
  -23.7467  -29.7168   20.1409 C   0  0  0  0  0  0
  -25.4141  -36.2918   24.0287 C   0  0  1  0  0  0
  -20.5967  -28.3770   23.1160 C   0  0  2  0  0  0
  -20.6802  -26.9438   22.5404 C   0  0  0  0  0  0
  -19.5774  -26.6372   21.5219 C   0  0  0  0  0  0
  -18.1959  -26.7944   22.1626 C   0  0  0  0  0  0
  -19.1600  -28.8916   23.2795 C   0  0  0  0  0  0
  -18.9506  -30.1501   23.8837 C   0  0  0  0  0  0
  -17.6496  -30.6599   24.0554 C   0  0  0  0  0  0
  -25.9116  -34.9307   23.4971 C   0  0  0  0  0  0
  -16.5387  -29.9082   23.6346 C   0  0  0  0  0  0
  -16.7317  -28.6504   23.0366 C   0  0  0  0  0  0
  -26.4578  -31.6511   25.0687 C   0  0  0  0  0  0
  -25.3662  -31.3808   26.1315 C   0  0  0  0  0  0
  -27.0500  -30.2857   24.6532 C   0  0  0  0  0  0
  -27.6035  -32.4360   25.7504 C   0  0  0  0  0  0
  -27.5564  -37.1745   24.8468 C   0  0  0  0  0  0
  -21.4386  -29.3035   22.3489 N   0  0  0  0  0  0
  -26.4274  -37.3670   23.9406 N   0  0  0  0  0  0
  -24.7720  -30.9605   22.0785 N   0  0  0  0  0  0
  -23.4217  -28.7949   23.3039 O   0  0  0  0  0  0
  -28.1927  -25.6027   20.3084 O   0  0  0  0  0  0
  -26.5749  -34.8871   22.4582 O   0  0  0  0  0  0
  -23.5798  -32.1121   23.6578 O   0  0  0  0  0  0
  -28.5071  -17.7105   20.5805 C   0  0  0  0  0  0
  -30.5849  -18.1983   19.7660 C   0  0  0  0  0  0
  -28.2678  -19.4130   20.8770 C   0  0  0  0  0  0
  -30.3409  -19.8585   20.1141 C   0  0  0  0  0  0
  -28.9045  -22.2980   20.5810 C   0  0  0  0  0  0
  -28.0493  -23.9000   20.0444 C   0  0  0  0  0  0
  -29.8418  -16.9299   20.3046 N   0  0  0  0  0  0
  -28.9707  -20.6109   20.1293 N   0  3  0  0  0  0
  -31.4189  -13.1938   19.1716 H   0  0  0  0  0  0
  -30.5243  -12.1258   20.1973 H   0  0  0  0  0  0
  -29.9583  -11.7722   17.7652 H   0  0  0  0  0  0
  -29.5159  -13.4558   17.6099 H   0  0  0  0  0  0
  -28.1069  -11.2901   19.1826 H   0  0  0  0  0  0
  -27.4261  -12.2575   17.8971 H   0  0  0  0  0  0
  -27.4652  -14.2308   19.2561 H   0  0  0  0  0  0
  -28.8479  -12.7237   21.5263 H   0  0  0  0  0  0
  -28.2077  -14.3485   21.6208 H   0  0  0  0  0  0
  -25.2783   -9.5681   22.4771 H   0  0  0  0  0  0
  -24.0011   -7.4637   22.7477 H   0  0  0  0  0  0
  -21.0860   -8.8794   19.8954 H   0  0  0  0  0  0
  -22.3731  -10.9682   19.6172 H   0  0  0  0  0  0
  -21.2019   -7.6152   23.9718 H   0  0  0  0  0  0
  -21.1482   -6.0523   25.9079 H   0  0  0  0  0  0
  -22.0594   -2.7609   23.2843 H   0  0  0  0  0  0
  -22.4019  -11.9822   22.4865 H   0  0  0  0  0  0
  -21.0990  -13.1150   22.2692 H   0  0  0  0  0  0
  -24.6241  -15.8535   20.5418 H   0  0  0  0  0  0
  -26.2417  -15.6450   20.0948 H   0  0  0  0  0  0
  -26.7457  -32.4999   23.0809 H   0  0  0  0  0  0
  -25.0055  -33.9378   25.0086 H   0  0  0  0  0  0
  -22.8191  -31.2487   21.3262 H   0  0  0  0  0  0
  -23.3767  -35.9493   23.3276 H   0  0  0  0  0  0
  -24.3564  -36.8867   22.2074 H   0  0  0  0  0  0
  -23.7247  -37.6343   23.6746 H   0  0  0  0  0  0
  -26.2712  -31.2963   20.6245 H   0  0  0  0  0  0
  -26.9279  -30.6288   22.0728 H   0  0  0  0  0  0
  -28.1513  -28.4530   21.3153 H   0  0  0  0  0  0
  -25.8532  -25.6561   18.9966 H   0  0  0  0  0  0
  -24.0243  -27.2375   18.9273 H   0  0  0  0  0  0
  -23.9164  -30.4800   19.3805 H   0  0  0  0  0  0
  -22.8527  -29.1803   19.8184 H   0  0  0  0  0  0
  -25.1347  -36.1692   25.0778 H   0  0  0  0  0  0
  -21.0056  -28.3389   24.1284 H   0  0  0  0  0  0
  -20.5670  -26.2395   23.3660 H   0  0  0  0  0  0
  -21.6663  -26.7387   22.1219 H   0  0  0  0  0  0
  -19.6928  -25.6266   21.1289 H   0  0  0  0  0  0
  -19.6709  -27.3149   20.6721 H   0  0  0  0  0  0
  -17.4227  -26.6693   21.4029 H   0  0  0  0  0  0
  -18.0345  -26.0097   22.9033 H   0  0  0  0  0  0
  -19.7980  -30.7335   24.2177 H   0  0  0  0  0  0
  -17.5045  -31.6270   24.5172 H   0  0  0  0  0  0
  -15.5383  -30.2966   23.7696 H   0  0  0  0  0  0
  -15.8720  -28.0798   22.7115 H   0  0  0  0  0  0
  -24.5867  -30.7134   25.7620 H   0  0  0  0  0  0
  -24.8828  -32.3024   26.4565 H   0  0  0  0  0  0
  -25.7857  -30.9089   27.0209 H   0  0  0  0  0  0
  -26.3195  -29.6485   24.1536 H   0  0  0  0  0  0
  -27.3968  -29.7285   25.5243 H   0  0  0  0  0  0
  -27.9162  -30.3998   24.0013 H   0  0  0  0  0  0
  -27.2573  -33.3718   26.1904 H   0  0  0  0  0  0
  -28.3938  -32.6831   25.0404 H   0  0  0  0  0  0
  -28.0602  -31.8612   26.5570 H   0  0  0  0  0  0
  -28.2558  -38.0061   24.7505 H   0  0  0  0  0  0
  -28.1083  -36.2584   24.6306 H   0  0  0  0  0  0
  -27.2279  -37.1398   25.8870 H   0  0  0  0  0  0
  -20.9672  -29.8709   21.6583 H   0  0  0  0  0  0
  -26.0107  -38.2723   24.1408 H   0  0  0  0  0  0
  -27.8886  -17.4764   19.7135 H   0  0  0  0  0  0
  -28.0223  -17.1782   21.3995 H   0  0  0  0  0  0
  -31.6441  -18.0140   19.9484 H   0  0  0  0  0  0
  -30.4908  -18.1107   18.6828 H   0  0  0  0  0  0
  -28.4967  -19.5651   21.9330 H   0  0  0  0  0  0
  -27.1964  -19.6045   20.8119 H   0  0  0  0  0  0
  -30.9825  -20.4214   19.4362 H   0  0  0  0  0  0
  -30.7806  -20.0318   21.0978 H   0  0  0  0  0  0
  -28.7760  -22.2650   21.6623 H   0  0  0  0  0  0
  -29.9520  -22.5739   20.4635 H   0  0  0  0  0  0
  -26.9983  -23.7157   20.2660 H   0  0  0  0  0  0
  -28.0914  -23.8508   18.9566 H   0  0  0  0  0  0
  -28.6395  -20.5811   19.1761 H   0  0  0  0  0  0
  1 25  1  0  0  0
  1 30  2  0  0  0
  1 77  1  0  0  0
  2  3  1  0  0  0
  2 25  1  0  0  0
  2 79  1  0  0  0
  2 80  1  0  0  0
  3  4  1  0  0  0
  3 81  1  0  0  0
  3 82  1  0  0  0
  4  5  1  0  0  0
  4 83  1  0  0  0
  4 84  1  0  0  0
  5  6  1  0  0  0
  5 26  1  0  0  0
  5 85  1  0  0  0
  6 25  1  0  0  0
  6 86  1  0  0  0
  6 87  1  0  0  0
  7  8  2  0  0  0
  7 26  1  0  0  0
  7 29  1  0  0  0
  8  9  1  0  0  0
  8 22  1  0  0  0
  9 10  1  0  0  0
  9 27  2  0  0  0
 10 11  2  0  0  0
 10 15  1  0  0  0
 11 12  1  0  0  0
 11 88  1  0  0  0
 12 13  2  0  0  0
 12 89  1  0  0  0
 13 14  1  0  0  0
 13 31  1  0  0  0
 14 15  2  0  0  0
 14 90  1  0  0  0
 15 91  1  0  0  0
 16 17  2  0  0  0
 16 21  1  0  0  0
 16 31  1  0  0  0
 17 18  1  0  0  0
 17 92  1  0  0  0
 18 19  2  0  0  0
 18 93  1  0  0  0
 19 20  1  0  0  0
 19 24  1  0  0  0
 20 21  2  0  0  0
 20 94  1  0  0  0
 21 23  1  0  0  0
 22 28  1  0  0  0
 22 32  2  0  0  0
 26 27  1  0  0  0
 28 95  1  0  0  0
 28 96  1  0  0  0
 29 97  1  0  0  0
 29 98  1  0  0  0
 33 34  1  0  0  0
 33 66  1  0  0  0
 33 70  2  0  0  0
 34 36  1  0  0  0
 34 59  1  0  0  0
 34 99  1  0  0  0
 35 44  2  0  0  0
 35 45  1  0  0  0
 35 68  1  0  0  0
 36 56  1  0  0  0
 36100  1  0  0  0
 37 39  1  0  0  0
 37 47  1  0  0  0
 37 66  1  0  0  0
 37101  1  0  0  0
 38 43  2  0  0  0
 38 46  1  0  0  0
 38 47  1  0  0  0
 39 64  1  0  0  0
 39 67  2  0  0  0
 40 52  1  0  0  0
 40 53  2  0  0  0
 40 58  1  0  0  0
 41102  1  0  0  0
 41103  1  0  0  0
 41104  1  0  0  0
 41 48  1  0  0  0
 42 43  1  0  0  0
 42 66  1  0  0  0
 42105  1  0  0  0
 42106  1  0  0  0
 43 44  1  0  0  0
 44107  1  0  0  0
 45 46  2  0  0  0
 45108  1  0  0  0
 46109  1  0  0  0
 47110  1  0  0  0
 47111  1  0  0  0
 48 56  1  0  0  0
 48 65  1  0  0  0
 48112  1  0  0  0
 49 50  1  0  0  0
 49 53  1  0  0  0
 49 64  1  0  0  0
 49113  1  0  0  0
 50 51  1  0  0  0
 50114  1  0  0  0
 50115  1  0  0  0
 51 52  1  0  0  0
 51116  1  0  0  0
 51117  1  0  0  0
 52118  1  0  0  0
 52119  1  0  0  0
 53 54  1  0  0  0
 54 55  2  0  0  0
 54120  1  0  0  0
 55 57  1  0  0  0
 55121  1  0  0  0
 56 69  2  0  0  0
 57 58  2  0  0  0
 57122  1  0  0  0
 58123  1  0  0  0
 59 60  1  0  0  0
 59 61  1  0  0  0
 59 62  1  0  0  0
 60124  1  0  0  0
 60125  1  0  0  0
 60126  1  0  0  0
 61127  1  0  0  0
 61128  1  0  0  0
 61129  1  0  0  0
 62130  1  0  0  0
 62131  1  0  0  0
 62132  1  0  0  0
 63 65  1  0  0  0
 63133  1  0  0  0
 63134  1  0  0  0
 63135  1  0  0  0
 64136  1  0  0  0
 65137  1  0  0  0
 68 76  1  0  0  0
 71 73  1  0  0  0
 71 77  1  0  0  0
 71138  1  0  0  0
 71139  1  0  0  0
 72 74  1  0  0  0
 72 77  1  0  0  0
 72140  1  0  0  0
 72141  1  0  0  0
 73 78  1  0  0  0
 73142  1  0  0  0
 73143  1  0  0  0
 74 78  1  0  0  0
 74144  1  0  0  0
 74145  1  0  0  0
 75 76  1  0  0  0
 75146  1  0  0  0
 75147  1  0  0  0
 75 78  1  0  0  0
 76148  1  0  0  0
 76149  1  0  0  0
 78150  1  0  0  0
M  CHG  1  78   1
M  ISO  4   1 100  68 101  76 101  77 100
M  END
> <chiral flag>
0

> <version>
0

> <s_m_source_file>
/data/baiqing/PycharmProjects/Reinvent-master-3.2/result/LINK_invent/BTK/process_docking_weight1_custom_product_contain_oxygen_bond_distance_aromatic_linkinvent_7_9_3/rearranged_h_0005.sdf

> <i_m_source_file_index>
34

> <r_mmod_Potential_Energy-OPLS-2005>
2069.70849609375

> <r_mmod_Stretch_Energy-OPLS-2005>
822.303466796875

> <r_mmod_Bend_Energy-OPLS-2005>
682.106689453125

> <r_mmod_Torsional_Energy-OPLS-2005>
364.669525146484

> <r_mmod_Improper_Torsional_Energy-OPLS-2005>
7.53518962860107

> <r_mmod_Van_der_Waal_Energy-OPLS-2005>
115.253486633301

> <r_mmod_Electrostatic_Energy-OPLS-2005>
-187.556671142578

> <r_mmod_Solvation_Energy-OPLS-2005>
-448.615417480469

> <b_mmod_Minimization_Converged-OPLS-2005>
0

> <r_mmod_RMS_Derivative-OPLS-2005>
0.569041132926941

$$$$
34
                    3D
 Structure written by MMmdl.
154162  0  0  1  0            999 V2000
  -30.6385  -14.6633   20.4230 C   0  0  0  0  0  0
  -30.4364  -12.3858   19.4447 C   0  0  0  0  0  0
  -29.5032  -12.4770   18.2179 C   0  0  0  0  0  0
  -28.0277  -12.3251   18.6400 C   0  0  0  0  0  0
  -27.6528  -13.2166   19.8539 C   0  0  2  0  0  0
  -28.7086  -13.1098   20.9779 C   0  0  0  0  0  0
  -25.2577  -13.8174   20.5697 C   0  0  0  0  0  0
  -24.1839  -13.0434   20.9221 C   0  0  0  0  0  0
  -24.6413  -11.6913   20.8772 C   0  0  0  0  0  0
  -23.9069  -10.4299   21.0425 C   0  0  0  0  0  0
  -24.3615   -9.4208   21.9189 C   0  0  0  0  0  0
  -23.6297   -8.2239   22.0756 C   0  0  0  0  0  0
  -22.4274   -8.0295   21.3553 C   0  0  0  0  0  0
  -21.9911   -9.0260   20.4639 C   0  0  0  0  0  0
  -22.7245  -10.2138   20.3062 C   0  0  0  0  0  0
  -21.6850   -6.0746   22.5276 C   0  0  0  0  0  0
  -21.4008   -6.5642   23.8212 C   0  0  0  0  0  0
  -21.3662   -5.6798   24.9174 C   0  0  0  0  0  0
  -21.6043   -4.3064   24.7210 C   0  0  0  0  0  0
  -21.8820   -3.8153   23.4337 C   0  0  0  0  0  0
  -21.9189   -4.6977   22.3400 C   0  0  0  0  0  0
  -22.7856  -13.5227   21.1859 C   0  0  0  0  0  0
  -22.1656   -4.2163   21.0981 F   0  0  0  0  0  0
  -21.5629   -3.4545   25.7718 F   0  0  0  0  0  0
  -30.0190  -13.4390   20.3925 N   0  0  0  0  0  0
  -26.3012  -12.9349   20.3343 N   0  0  0  0  0  0
  -25.9345  -11.6515   20.5801 N   0  0  0  0  0  0
  -22.0485  -12.8225   22.0425 N   0  0  0  0  0  0
  -25.4281  -15.1877   20.4019 N   0  0  0  0  0  0
  -31.8297  -14.7811   20.1163 O   0  0  0  0  0  0
  -21.6653   -6.8881   21.4238 O   0  0  0  0  0  0
  -22.3553  -14.5543   20.6727 O   0  0  0  0  0  0
  -24.6226  -31.8587   23.2036 C   0  0  0  0  0  0
  -25.9092  -32.4767   23.8380 C   0  0  1  0  0  0
  -27.2383  -27.3245   20.1114 C   0  0  0  0  0  0
  -25.5889  -33.8576   24.2292 N   0  0  0  0  0  0
  -23.4183  -30.4824   21.5397 C   0  0  2  0  0  0
  -24.8728  -28.9491   20.0995 C   0  0  0  0  0  0
  -22.7467  -29.4607   22.4863 C   0  0  0  0  0  0
  -18.0290  -28.1404   22.8487 C   0  0  0  0  0  0
  -24.1482  -36.7270   23.2651 C   0  0  0  0  0  0
  -25.9612  -30.7912   21.3830 C   0  0  0  0  0  0
  -26.0385  -29.4248   20.7103 C   0  0  0  0  0  0
  -27.2208  -28.6262   20.7051 C   0  0  0  0  0  0
  -26.0443  -26.8977   19.4847 C   0  0  0  0  0  0
  -24.8807  -27.6906   19.4761 C   0  0  0  0  0  0
  -23.6358  -29.8251   20.1496 C   0  0  0  0  0  0
  -25.4088  -36.3062   24.0348 C   0  0  1  0  0  0
  -20.5909  -28.3681   23.1279 C   0  0  2  0  0  0
  -20.6779  -26.9395   22.5426 C   0  0  0  0  0  0
  -19.5749  -26.6387   21.5240 C   0  0  0  0  0  0
  -18.1925  -26.7977   22.1622 C   0  0  0  0  0  0
  -19.1556  -28.8850   23.2905 C   0  0  0  0  0  0
  -18.9491  -30.1475   23.8890 C   0  0  0  0  0  0
  -17.6492  -30.6597   24.0582 C   0  0  0  0  0  0
  -25.9012  -34.9444   23.5111 C   0  0  0  0  0  0
  -16.5362  -29.9103   23.6360 C   0  0  0  0  0  0
  -16.7293  -28.6545   23.0328 C   0  0  0  0  0  0
  -26.4464  -31.6597   25.0779 C   0  0  0  0  0  0
  -25.3689  -31.3867   26.1519 C   0  0  0  0  0  0
  -27.0264  -30.2950   24.6366 C   0  0  0  0  0  0
  -27.6045  -32.4321   25.7522 C   0  0  0  0  0  0
  -27.5572  -37.1769   24.8466 C   0  0  0  0  0  0
  -21.4181  -29.3036   22.3640 N   0  0  0  0  0  0
  -26.4270  -37.3746   23.9427 N   0  0  0  0  0  0
  -24.6847  -31.0626   22.0973 N   0  0  0  0  0  0
  -23.4212  -28.8125   23.2931 O   0  0  0  0  0  0
  -28.3731  -26.4919   20.1558 O   0  0  0  0  0  0
  -26.5589  -34.8932   22.4693 O   0  0  0  0  0  0
  -23.5390  -32.1357   23.7338 O   0  0  0  0  0  0
  -28.9294  -19.4640   20.2552 C   0  0  0  0  0  0
  -28.8462  -18.0391   20.2752 C   0  0  0  0  0  0
  -31.2339  -17.8817   20.3238 C   0  0  0  0  0  0
  -30.1694  -20.1565   20.3138 C   0  0  0  0  0  0
  -31.3408  -19.3153   20.2739 C   0  0  0  0  0  0
  -29.9909  -17.2019   20.3812 C   0  0  0  0  0  0
  -30.2437  -21.6875   20.5647 C   0  0  0  0  0  0
  -29.4751  -24.0964   20.2198 C   0  0  0  0  0  0
  -28.2727  -25.0525   19.7923 C   0  0  0  0  0  0
  -32.7590  -19.8954   20.1696 C   0  0  0  0  0  0
  -29.8139  -15.7505   20.5660 N   0  0  0  0  0  0
  -29.3806  -22.5924   20.0033 N   0  0  0  0  0  0
  -31.1177  -22.1064   21.3253 O   0  0  0  0  0  0
  -33.6088  -18.9811   19.6944 F   0  0  0  0  0  0
  -32.8111  -20.9249   19.3239 F   0  0  0  0  0  0
  -33.2167  -20.2710   21.3642 F   0  0  0  0  0  0
  -31.4765  -12.4965   19.1306 H   0  0  0  0  0  0
  -30.3662  -11.4009   19.9096 H   0  0  0  0  0  0
  -29.7606  -11.7028   17.4931 H   0  0  0  0  0  0
  -29.6451  -13.4330   17.7115 H   0  0  0  0  0  0
  -27.8676  -11.2754   18.8958 H   0  0  0  0  0  0
  -27.3673  -12.5372   17.7985 H   0  0  0  0  0  0
  -27.6606  -14.2424   19.4877 H   0  0  0  0  0  0
  -28.7240  -12.1036   21.3973 H   0  0  0  0  0  0
  -28.4664  -13.7782   21.8050 H   0  0  0  0  0  0
  -25.2749   -9.5689   22.4773 H   0  0  0  0  0  0
  -24.0001   -7.4631   22.7476 H   0  0  0  0  0  0
  -21.0841   -8.8777   19.8941 H   0  0  0  0  0  0
  -22.3701  -10.9680   19.6177 H   0  0  0  0  0  0
  -21.2007   -7.6149   23.9713 H   0  0  0  0  0  0
  -21.1478   -6.0532   25.9078 H   0  0  0  0  0  0
  -22.0599   -2.7616   23.2834 H   0  0  0  0  0  0
  -22.4089  -11.9865   22.4773 H   0  0  0  0  0  0
  -21.1097  -13.1252   22.2617 H   0  0  0  0  0  0
  -24.6519  -15.8354   20.4902 H   0  0  0  0  0  0
  -26.2519  -15.6119   19.9945 H   0  0  0  0  0  0
  -26.7148  -32.5391   23.1121 H   0  0  0  0  0  0
  -25.0116  -33.9767   25.0484 H   0  0  0  0  0  0
  -22.7129  -31.3036   21.3958 H   0  0  0  0  0  0
  -23.3771  -35.9579   23.3299 H   0  0  0  0  0  0
  -24.3601  -36.8876   22.2072 H   0  0  0  0  0  0
  -23.7224  -37.6477   23.6643 H   0  0  0  0  0  0
  -26.1210  -31.5782   20.6431 H   0  0  0  0  0  0
  -26.8263  -30.8066   22.0349 H   0  0  0  0  0  0
  -28.1182  -28.9983   21.1815 H   0  0  0  0  0  0
  -25.9882  -25.9334   18.9996 H   0  0  0  0  0  0
  -23.9909  -27.3192   18.9894 H   0  0  0  0  0  0
  -23.7549  -30.6125   19.4012 H   0  0  0  0  0  0
  -22.7565  -29.2584   19.8343 H   0  0  0  0  0  0
  -25.1263  -36.1925   25.0833 H   0  0  0  0  0  0
  -21.0005  -28.3271   24.1400 H   0  0  0  0  0  0
  -20.5694  -26.2282   23.3640 H   0  0  0  0  0  0
  -21.6628  -26.7422   22.1184 H   0  0  0  0  0  0
  -19.6924  -25.6316   21.1228 H   0  0  0  0  0  0
  -19.6720  -27.3252   20.6828 H   0  0  0  0  0  0
  -17.4210  -26.6770   21.4015 H   0  0  0  0  0  0
  -18.0266  -26.0135   22.9004 H   0  0  0  0  0  0
  -19.7973  -30.7296   24.2222 H   0  0  0  0  0  0
  -17.5055  -31.6280   24.5176 H   0  0  0  0  0  0
  -15.5365  -30.2986   23.7726 H   0  0  0  0  0  0
  -15.8697  -28.0879   22.6982 H   0  0  0  0  0  0
  -24.5982  -30.7006   25.7989 H   0  0  0  0  0  0
  -24.8762  -32.3086   26.4623 H   0  0  0  0  0  0
  -25.8038  -30.9403   27.0477 H   0  0  0  0  0  0
  -26.2876  -29.6745   24.1278 H   0  0  0  0  0  0
  -27.3736  -29.7175   25.4953 H   0  0  0  0  0  0
  -27.8846  -30.4137   23.9750 H   0  0  0  0  0  0
  -27.2678  -33.3656   26.2040 H   0  0  0  0  0  0
  -28.3882  -32.6792   25.0349 H   0  0  0  0  0  0
  -28.0682  -31.8498   26.5504 H   0  0  0  0  0  0
  -28.2552  -38.0088   24.7445 H   0  0  0  0  0  0
  -28.1083  -36.2606   24.6288 H   0  0  0  0  0  0
  -27.2327  -37.1402   25.8886 H   0  0  0  0  0  0
  -20.9315  -29.8778   21.6872 H   0  0  0  0  0  0
  -26.0169  -38.2817   24.1459 H   0  0  0  0  0  0
  -28.0118  -20.0350   20.2402 H   0  0  0  0  0  0
  -27.8651  -17.5862   20.2300 H   0  0  0  0  0  0
  -32.1420  -17.2958   20.3323 H   0  0  0  0  0  0
  -29.6377  -24.2739   21.2874 H   0  0  0  0  0  0
  -30.3798  -24.4379   19.7093 H   0  0  0  0  0  0
  -27.3582  -24.6262   20.2101 H   0  0  0  0  0  0
  -28.1833  -25.0149   18.7060 H   0  0  0  0  0  0
  -28.8672  -15.4780   20.7814 H   0  0  0  0  0  0
  -28.6615  -22.2273   19.3899 H   0  0  0  0  0  0
  1 25  1  0  0  0
  1 30  2  0  0  0
  1 81  1  0  0  0
  2  3  1  0  0  0
  2 25  1  0  0  0
  2 87  1  0  0  0
  2 88  1  0  0  0
  3  4  1  0  0  0
  3 89  1  0  0  0
  3 90  1  0  0  0
  4  5  1  0  0  0
  4 91  1  0  0  0
  4 92  1  0  0  0
  5  6  1  0  0  0
  5 26  1  0  0  0
  5 93  1  0  0  0
  6 25  1  0  0  0
  6 94  1  0  0  0
  6 95  1  0  0  0
  7  8  2  0  0  0
  7 26  1  0  0  0
  7 29  1  0  0  0
  8  9  1  0  0  0
  8 22  1  0  0  0
  9 10  1  0  0  0
  9 27  2  0  0  0
 10 11  2  0  0  0
 10 15  1  0  0  0
 11 12  1  0  0  0
 11 96  1  0  0  0
 12 13  2  0  0  0
 12 97  1  0  0  0
 13 14  1  0  0  0
 13 31  1  0  0  0
 14 15  2  0  0  0
 14 98  1  0  0  0
 15 99  1  0  0  0
 16 17  2  0  0  0
 16 21  1  0  0  0
 16 31  1  0  0  0
 17 18  1  0  0  0
 17100  1  0  0  0
 18 19  2  0  0  0
 18101  1  0  0  0
 19 20  1  0  0  0
 19 24  1  0  0  0
 20 21  2  0  0  0
 20102  1  0  0  0
 21 23  1  0  0  0
 22 28  1  0  0  0
 22 32  2  0  0  0
 26 27  1  0  0  0
 28103  1  0  0  0
 28104  1  0  0  0
 29105  1  0  0  0
 29106  1  0  0  0
 33 34  1  0  0  0
 33 66  1  0  0  0
 33 70  2  0  0  0
 34 36  1  0  0  0
 34 59  1  0  0  0
 34107  1  0  0  0
 35 44  2  0  0  0
 35 45  1  0  0  0
 35 68  1  0  0  0
 36 56  1  0  0  0
 36108  1  0  0  0
 37 39  1  0  0  0
 37 47  1  0  0  0
 37 66  1  0  0  0
 37109  1  0  0  0
 38 43  2  0  0  0
 38 46  1  0  0  0
 38 47  1  0  0  0
 39 64  1  0  0  0
 39 67  2  0  0  0
 40 52  1  0  0  0
 40 53  2  0  0  0
 40 58  1  0  0  0
 41110  1  0  0  0
 41111  1  0  0  0
 41112  1  0  0  0
 41 48  1  0  0  0
 42 43  1  0  0  0
 42 66  1  0  0  0
 42113  1  0  0  0
 42114  1  0  0  0
 43 44  1  0  0  0
 44115  1  0  0  0
 45 46  2  0  0  0
 45116  1  0  0  0
 46117  1  0  0  0
 47118  1  0  0  0
 47119  1  0  0  0
 48 56  1  0  0  0
 48 65  1  0  0  0
 48120  1  0  0  0
 49 50  1  0  0  0
 49 53  1  0  0  0
 49 64  1  0  0  0
 49121  1  0  0  0
 50 51  1  0  0  0
 50122  1  0  0  0
 50123  1  0  0  0
 51 52  1  0  0  0
 51124  1  0  0  0
 51125  1  0  0  0
 52126  1  0  0  0
 52127  1  0  0  0
 53 54  1  0  0  0
 54 55  2  0  0  0
 54128  1  0  0  0
 55 57  1  0  0  0
 55129  1  0  0  0
 56 69  2  0  0  0
 57 58  2  0  0  0
 57130  1  0  0  0
 58131  1  0  0  0
 59 60  1  0  0  0
 59 61  1  0  0  0
 59 62  1  0  0  0
 60132  1  0  0  0
 60133  1  0  0  0
 60134  1  0  0  0
 61135  1  0  0  0
 61136  1  0  0  0
 61137  1  0  0  0
 62138  1  0  0  0
 62139  1  0  0  0
 62140  1  0  0  0
 63 65  1  0  0  0
 63141  1  0  0  0
 63142  1  0  0  0
 63143  1  0  0  0
 64144  1  0  0  0
 65145  1  0  0  0
 68 79  1  0  0  0
 71 72  2  0  0  0
 71 74  1  0  0  0
 71146  1  0  0  0
 72 76  1  0  0  0
 72147  1  0  0  0
 73 75  1  0  0  0
 73 76  2  0  0  0
 73148  1  0  0  0
 74 75  2  0  0  0
 74 77  1  0  0  0
 75 80  1  0  0  0
 76 81  1  0  0  0
 77 82  1  0  0  0
 77 83  2  0  0  0
 78 79  1  0  0  0
 78 82  1  0  0  0
 78149  1  0  0  0
 78150  1  0  0  0
 79151  1  0  0  0
 79152  1  0  0  0
 80 84  1  0  0  0
 80 85  1  0  0  0
 80 86  1  0  0  0
 81153  1  0  0  0
 82154  1  0  0  0
M  ISO  4   1 100  68 101  79 101  81 100
M  END
> <chiral flag>
0

> <version>
0

> <s_m_source_file>
/data/baiqing/PycharmProjects/Reinvent-master-3.2/result/LINK_invent/BTK/process_docking_weight1_custom_product_contain_oxygen_bond_distance_aromatic_linkinvent_7_9_3/rearranged_h_0005.sdf

> <i_m_source_file_index>
35

> <r_mmod_Potential_Energy-OPLS-2005>
-7.28425168991089

> <r_mmod_Stretch_Energy-OPLS-2005>
90.4720077514648

> <r_mmod_Bend_Energy-OPLS-2005>
148.02116394043

> <r_mmod_Torsional_Energy-OPLS-2005>
229.7109375

> <r_mmod_Improper_Torsional_Energy-OPLS-2005>
6.65210342407227

> <r_mmod_Van_der_Waal_Energy-OPLS-2005>
150.575927734375

> <r_mmod_Electrostatic_Energy-OPLS-2005>
-446.206970214844

> <r_mmod_Solvation_Energy-OPLS-2005>
-240.145278930664

> <b_mmod_Minimization_Converged-OPLS-2005>
0

> <r_mmod_RMS_Derivative-OPLS-2005>
5.81369686126709

$$$$
35
                    3D
 Structure written by MMmdl.
180190  0  0  1  0            999 V2000
  -30.7388  -14.3465   20.7207 C   0  0  0  0  0  0
  -30.4314  -12.3037   19.3634 C   0  0  0  0  0  0
  -29.4752  -12.5337   18.1775 C   0  0  0  0  0  0
  -27.9996  -12.3982   18.5987 C   0  0  0  0  0  0
  -27.6668  -13.1982   19.8832 C   0  0  2  0  0  0
  -28.7067  -12.8858   20.9799 C   0  0  0  0  0  0
  -25.2545  -13.8133   20.5597 C   0  0  0  0  0  0
  -24.1810  -13.0423   20.9179 C   0  0  0  0  0  0
  -24.6359  -11.6892   20.8736 C   0  0  0  0  0  0
  -23.9020  -10.4286   21.0402 C   0  0  0  0  0  0
  -24.3553   -9.4204   21.9204 C   0  0  0  0  0  0
  -23.6241   -8.2236   22.0761 C   0  0  0  0  0  0
  -22.4239   -8.0260   21.3548 C   0  0  0  0  0  0
  -21.9863   -9.0239   20.4663 C   0  0  0  0  0  0
  -22.7179  -10.2123   20.3076 C   0  0  0  0  0  0
  -21.6844   -6.0702   22.5265 C   0  0  0  0  0  0
  -21.4013   -6.5604   23.8196 C   0  0  0  0  0  0
  -21.3656   -5.6771   24.9161 C   0  0  0  0  0  0
  -21.6039   -4.3030   24.7218 C   0  0  0  0  0  0
  -21.8822   -3.8122   23.4340 C   0  0  0  0  0  0
  -21.9193   -4.6931   22.3395 C   0  0  0  0  0  0
  -22.7825  -13.5237   21.1838 C   0  0  0  0  0  0
  -22.1663   -4.2124   21.0971 F   0  0  0  0  0  0
  -21.5638   -3.4516   25.7733 F   0  0  0  0  0  0
  -30.0551  -13.2043   20.4601 N   0  0  0  0  0  0
  -26.3026  -12.9306   20.3376 N   0  0  0  0  0  0
  -25.9294  -11.6476   20.5785 N   0  0  0  0  0  0
  -22.0418  -12.8291   22.0409 N   0  0  0  0  0  0
  -25.4177  -15.1838   20.3824 N   0  0  0  0  0  0
  -31.7106  -14.7389   20.0632 O   0  0  0  0  0  0
  -21.6628   -6.8836   21.4224 O   0  0  0  0  0  0
  -22.3543  -14.5537   20.6657 O   0  0  0  0  0  0
  -24.6089  -31.8708   23.2119 C   0  0  0  0  0  0
  -25.9006  -32.4840   23.8406 C   0  0  1  0  0  0
  -27.2446  -27.4853   20.0803 C   0  0  0  0  0  0
  -25.5880  -33.8636   24.2344 N   0  0  0  0  0  0
  -23.3956  -30.4922   21.5508 C   0  0  2  0  0  0
  -24.8445  -28.9563   20.1239 C   0  0  0  0  0  0
  -22.7378  -29.4675   22.5011 C   0  0  0  0  0  0
  -18.0268  -28.1369   22.8494 C   0  0  0  0  0  0
  -24.1486  -36.7324   23.2635 C   0  0  0  0  0  0
  -25.9185  -30.8503   21.3579 C   0  0  0  0  0  0
  -26.0007  -29.4849   20.7131 C   0  0  0  0  0  0
  -27.2059  -28.7542   20.6951 C   0  0  0  0  0  0
  -26.0732  -26.9469   19.5147 C   0  0  0  0  0  0
  -24.8716  -27.6812   19.5280 C   0  0  0  0  0  0
  -23.6035  -29.8171   20.1682 C   0  0  0  0  0  0
  -25.4103  -36.3121   24.0340 C   0  0  1  0  0  0
  -20.5852  -28.3649   23.1331 C   0  0  2  0  0  0
  -20.6760  -26.9390   22.5419 C   0  0  0  0  0  0
  -19.5742  -26.6381   21.5210 C   0  0  0  0  0  0
  -18.1919  -26.7918   22.1621 C   0  0  0  0  0  0
  -19.1515  -28.8826   23.2911 C   0  0  0  0  0  0
  -18.9448  -30.1436   23.8916 C   0  0  0  0  0  0
  -17.6453  -30.6579   24.0566 C   0  0  0  0  0  0
  -25.9024  -34.9486   23.5138 C   0  0  0  0  0  0
  -16.5343  -29.9082   23.6325 C   0  0  0  0  0  0
  -16.7259  -28.6498   23.0346 C   0  0  0  0  0  0
  -26.4456  -31.6606   25.0716 C   0  0  0  0  0  0
  -25.3738  -31.3714   26.1477 C   0  0  0  0  0  0
  -27.0272  -30.3051   24.6065 C   0  0  0  0  0  0
  -27.6049  -32.4309   25.7472 C   0  0  0  0  0  0
  -27.5582  -37.1809   24.8460 C   0  0  0  0  0  0
  -21.4112  -29.3024   22.3743 N   0  0  0  0  0  0
  -26.4293  -37.3799   23.9409 N   0  0  0  0  0  0
  -24.6591  -31.0848   22.0996 N   0  0  0  0  0  0
  -23.4166  -28.8223   23.3048 O   0  0  0  0  0  0
  -28.4074  -26.7686   19.9902 O   0  0  0  0  0  0
  -26.5587  -34.8928   22.4699 O   0  0  0  0  0  0
  -23.5297  -32.1443   23.7543 O   0  0  0  0  0  0
  -30.2194  -18.6579   22.2952 C   0  0  0  0  0  0
  -30.7420  -17.3657   22.0557 C   0  0  0  0  0  0
  -28.4700  -16.4387   22.0360 C   0  0  0  0  0  0
  -28.8210  -18.8211   22.4084 C   0  0  0  0  0  0
  -27.9725  -17.7303   22.2616 C   0  0  0  0  0  0
  -29.8676  -16.2560   21.9396 C   0  0  0  0  0  0
  -29.5506  -25.3281   17.5840 C   0  0  0  0  0  0
  -26.5297  -18.1038   22.4383 C   0  0  0  0  0  0
  -26.5831  -19.5710   22.9184 C   0  0  0  0  0  0
  -28.3382  -22.2127   23.8831 C   0  0  0  0  0  0
  -28.5704  -20.7209   24.0738 C   0  0  0  0  0  0
  -28.6123  -22.3886   22.3940 C   0  0  0  0  0  0
  -28.0473  -20.0865   22.7646 C   0  0  1  0  0  0
  -30.2840  -26.2907   18.5245 C   0  0  0  0  0  0
  -29.0880  -21.7064   18.0190 C   0  0  0  0  0  0
  -28.4250  -22.0027   19.3798 C   0  0  0  0  0  0
  -29.1438  -22.9220   17.0754 C   0  0  0  0  0  0
  -28.6331  -20.8653   20.4013 C   0  0  0  0  0  0
  -29.3724  -27.3718   19.1308 C   0  0  0  0  0  0
  -30.3520  -14.9343   21.8571 N   0  0  0  0  0  0
  -29.8571  -24.0307   17.7045 N   0  0  0  0  0  0
  -28.0645  -21.1760   21.7409 N   0  3  2  0  0  0
  -28.7144  -25.7402   16.7777 O   0  0  0  0  0  0
  -31.4644  -12.4562   19.0451 H   0  0  0  0  0  0
  -30.3770  -11.2686   19.7024 H   0  0  0  0  0  0
  -29.6925  -11.8185   17.3828 H   0  0  0  0  0  0
  -29.6447  -13.5251   17.7543 H   0  0  0  0  0  0
  -27.7917  -11.3391   18.7555 H   0  0  0  0  0  0
  -27.3476  -12.7179   17.7843 H   0  0  0  0  0  0
  -27.7394  -14.2588   19.6415 H   0  0  0  0  0  0
  -28.6713  -11.8252   21.2314 H   0  0  0  0  0  0
  -28.4408  -13.3952   21.9052 H   0  0  0  0  0  0
  -25.2658   -9.5697   22.4822 H   0  0  0  0  0  0
  -23.9950   -7.4612   22.7457 H   0  0  0  0  0  0
  -21.0800   -8.8732   19.8955 H   0  0  0  0  0  0
  -22.3601  -10.9670   19.6209 H   0  0  0  0  0  0
  -21.2011   -7.6117   23.9695 H   0  0  0  0  0  0
  -21.1480   -6.0501   25.9065 H   0  0  0  0  0  0
  -22.0614   -2.7589   23.2851 H   0  0  0  0  0  0
  -22.3943  -11.9967   22.4902 H   0  0  0  0  0  0
  -21.1050  -13.1400   22.2550 H   0  0  0  0  0  0
  -24.6251  -15.8148   20.4332 H   0  0  0  0  0  0
  -26.2287  -15.6039   19.9467 H   0  0  0  0  0  0
  -26.7082  -32.5581   23.1184 H   0  0  0  0  0  0
  -25.0036  -33.9808   25.0492 H   0  0  0  0  0  0
  -22.6821  -31.3064   21.4089 H   0  0  0  0  0  0
  -23.3742  -35.9664   23.3306 H   0  0  0  0  0  0
  -24.3587  -36.8930   22.2049 H   0  0  0  0  0  0
  -23.7244  -37.6535   23.6643 H   0  0  0  0  0  0
  -26.0199  -31.6147   20.5865 H   0  0  0  0  0  0
  -26.8095  -30.9109   21.9706 H   0  0  0  0  0  0
  -28.1021  -29.1648   21.1385 H   0  0  0  0  0  0
  -26.1030  -25.9745   19.0427 H   0  0  0  0  0  0
  -23.9812  -27.2641   19.0772 H   0  0  0  0  0  0
  -23.7072  -30.5857   19.4018 H   0  0  0  0  0  0
  -22.7310  -29.2291   19.8780 H   0  0  0  0  0  0
  -25.1275  -36.1991   25.0832 H   0  0  0  0  0  0
  -20.9949  -28.3213   24.1450 H   0  0  0  0  0  0
  -20.5662  -26.2255   23.3597 H   0  0  0  0  0  0
  -21.6635  -26.7441   22.1216 H   0  0  0  0  0  0
  -19.6907  -25.6297   21.1224 H   0  0  0  0  0  0
  -19.6683  -27.3203   20.6748 H   0  0  0  0  0  0
  -17.4190  -26.6668   21.4019 H   0  0  0  0  0  0
  -18.0322  -26.0054   22.9009 H   0  0  0  0  0  0
  -19.7925  -30.7242   24.2292 H   0  0  0  0  0  0
  -17.5011  -31.6263   24.5161 H   0  0  0  0  0  0
  -15.5343  -30.2992   23.7637 H   0  0  0  0  0  0
  -15.8660  -28.0823   22.7053 H   0  0  0  0  0  0
  -24.5887  -30.7088   25.7819 H   0  0  0  0  0  0
  -24.8960  -32.2877   26.4956 H   0  0  0  0  0  0
  -25.8095  -30.8854   27.0214 H   0  0  0  0  0  0
  -26.2798  -29.6824   24.1131 H   0  0  0  0  0  0
  -27.4063  -29.7275   25.4506 H   0  0  0  0  0  0
  -27.8627  -30.4374   23.9186 H   0  0  0  0  0  0
  -27.2686  -33.3599   26.2089 H   0  0  0  0  0  0
  -28.3841  -32.6879   25.0284 H   0  0  0  0  0  0
  -28.0735  -31.8404   26.5356 H   0  0  0  0  0  0
  -28.2598  -38.0108   24.7517 H   0  0  0  0  0  0
  -28.1078  -36.2642   24.6264 H   0  0  0  0  0  0
  -27.2307  -37.1440   25.8865 H   0  0  0  0  0  0
  -20.9260  -29.8738   21.6963 H   0  0  0  0  0  0
  -26.0186  -38.2879   24.1413 H   0  0  0  0  0  0
  -30.8879  -19.5009   22.4112 H   0  0  0  0  0  0
  -31.8127  -17.2243   22.0007 H   0  0  0  0  0  0
  -27.7808  -15.6075   21.9694 H   0  0  0  0  0  0
  -26.0344  -17.4521   23.1592 H   0  0  0  0  0  0
  -26.0089  -18.0160   21.4837 H   0  0  0  0  0  0
  -26.2817  -19.5902   23.9656 H   0  0  0  0  0  0
  -25.8533  -20.1903   22.3964 H   0  0  0  0  0  0
  -28.9773  -22.8360   24.5109 H   0  0  0  0  0  0
  -27.2986  -22.4613   24.1046 H   0  0  0  0  0  0
  -28.1163  -20.3197   24.9803 H   0  0  0  0  0  0
  -29.6446  -20.5595   24.1719 H   0  0  0  0  0  0
  -29.6898  -22.4395   22.2262 H   0  0  0  0  0  0
  -28.1680  -23.3059   22.0060 H   0  0  0  0  0  0
  -31.0848  -26.7658   17.9578 H   0  0  0  0  0  0
  -30.7634  -25.7357   19.3312 H   0  0  0  0  0  0
  -28.5519  -20.8938   17.5260 H   0  0  0  0  0  0
  -30.1032  -21.3390   18.1760 H   0  0  0  0  0  0
  -27.3600  -22.1889   19.2336 H   0  0  0  0  0  0
  -28.8409  -22.9224   19.7885 H   0  0  0  0  0  0
  -28.1292  -23.2161   16.8008 H   0  0  0  0  0  0
  -29.6541  -22.6527   16.1495 H   0  0  0  0  0  0
  -29.6991  -20.6575   20.4928 H   0  0  0  0  0  0
  -28.1643  -19.9578   20.0168 H   0  0  0  0  0  0
  -28.9001  -27.9501   18.3325 H   0  0  0  0  0  0
  -29.9711  -28.0742   19.7107 H   0  0  0  0  0  0
  -29.7841  -14.2859   22.3806 H   0  0  0  0  0  0
  -30.5968  -23.7909   18.3506 H   0  0  0  0  0  0
  -27.0871  -21.3716   21.5861 H   0  0  0  0  0  0
  1 25  1  0  0  0
  1 30  2  0  0  0
  1 90  1  0  0  0
  2  3  1  0  0  0
  2 25  1  0  0  0
  2 94  1  0  0  0
  2 95  1  0  0  0
  3  4  1  0  0  0
  3 96  1  0  0  0
  3 97  1  0  0  0
  4  5  1  0  0  0
  4 98  1  0  0  0
  4 99  1  0  0  0
  5  6  1  0  0  0
  5 26  1  0  0  0
  5100  1  0  0  0
  6 25  1  0  0  0
  6101  1  0  0  0
  6102  1  0  0  0
  7  8  2  0  0  0
  7 26  1  0  0  0
  7 29  1  0  0  0
  8  9  1  0  0  0
  8 22  1  0  0  0
  9 10  1  0  0  0
  9 27  2  0  0  0
 10 11  2  0  0  0
 10 15  1  0  0  0
 11 12  1  0  0  0
 11103  1  0  0  0
 12 13  2  0  0  0
 12104  1  0  0  0
 13 14  1  0  0  0
 13 31  1  0  0  0
 14 15  2  0  0  0
 14105  1  0  0  0
 15106  1  0  0  0
 16 17  2  0  0  0
 16 21  1  0  0  0
 16 31  1  0  0  0
 17 18  1  0  0  0
 17107  1  0  0  0
 18 19  2  0  0  0
 18108  1  0  0  0
 19 20  1  0  0  0
 19 24  1  0  0  0
 20 21  2  0  0  0
 20109  1  0  0  0
 21 23  1  0  0  0
 22 28  1  0  0  0
 22 32  2  0  0  0
 26 27  1  0  0  0
 28110  1  0  0  0
 28111  1  0  0  0
 29112  1  0  0  0
 29113  1  0  0  0
 33 34  1  0  0  0
 33 66  1  0  0  0
 33 70  2  0  0  0
 34 36  1  0  0  0
 34 59  1  0  0  0
 34114  1  0  0  0
 35 44  2  0  0  0
 35 45  1  0  0  0
 35 68  1  0  0  0
 36 56  1  0  0  0
 36115  1  0  0  0
 37 39  1  0  0  0
 37 47  1  0  0  0
 37 66  1  0  0  0
 37116  1  0  0  0
 38 43  2  0  0  0
 38 46  1  0  0  0
 38 47  1  0  0  0
 39 64  1  0  0  0
 39 67  2  0  0  0
 40 52  1  0  0  0
 40 53  2  0  0  0
 40 58  1  0  0  0
 41117  1  0  0  0
 41118  1  0  0  0
 41119  1  0  0  0
 41 48  1  0  0  0
 42 43  1  0  0  0
 42 66  1  0  0  0
 42120  1  0  0  0
 42121  1  0  0  0
 43 44  1  0  0  0
 44122  1  0  0  0
 45 46  2  0  0  0
 45123  1  0  0  0
 46124  1  0  0  0
 47125  1  0  0  0
 47126  1  0  0  0
 48 56  1  0  0  0
 48 65  1  0  0  0
 48127  1  0  0  0
 49 50  1  0  0  0
 49 53  1  0  0  0
 49 64  1  0  0  0
 49128  1  0  0  0
 50 51  1  0  0  0
 50129  1  0  0  0
 50130  1  0  0  0
 51 52  1  0  0  0
 51131  1  0  0  0
 51132  1  0  0  0
 52133  1  0  0  0
 52134  1  0  0  0
 53 54  1  0  0  0
 54 55  2  0  0  0
 54135  1  0  0  0
 55 57  1  0  0  0
 55136  1  0  0  0
 56 69  2  0  0  0
 57 58  2  0  0  0
 57137  1  0  0  0
 58138  1  0  0  0
 59 60  1  0  0  0
 59 61  1  0  0  0
 59 62  1  0  0  0
 60139  1  0  0  0
 60140  1  0  0  0
 60141  1  0  0  0
 61142  1  0  0  0
 61143  1  0  0  0
 61144  1  0  0  0
 62145  1  0  0  0
 62146  1  0  0  0
 62147  1  0  0  0
 63 65  1  0  0  0
 63148  1  0  0  0
 63149  1  0  0  0
 63150  1  0  0  0
 64151  1  0  0  0
 65152  1  0  0  0
 68 89  1  0  0  0
 71 72  2  0  0  0
 71 74  1  0  0  0
 71153  1  0  0  0
 72 76  1  0  0  0
 72154  1  0  0  0
 73 75  1  0  0  0
 73 76  2  0  0  0
 73155  1  0  0  0
 74 75  2  0  0  0
 74 83  1  0  0  0
 75 78  1  0  0  0
 76 90  1  0  0  0
 77 84  1  0  0  0
 77 91  1  0  0  0
 77 93  2  0  0  0
 78 79  1  0  0  0
 78156  1  0  0  0
 78157  1  0  0  0
 79158  1  0  0  0
 79159  1  0  0  0
 79 83  1  0  0  0
 80 81  1  0  0  0
 80 82  1  0  0  0
 80160  1  0  0  0
 80161  1  0  0  0
 81 83  1  0  0  0
 81162  1  0  0  0
 81163  1  0  0  0
 82 92  1  0  0  0
 82164  1  0  0  0
 82165  1  0  0  0
 83 92  1  0  0  0
 84 89  1  0  0  0
 84166  1  0  0  0
 84167  1  0  0  0
 85 86  1  0  0  0
 85 87  1  0  0  0
 85168  1  0  0  0
 85169  1  0  0  0
 86 88  1  0  0  0
 86170  1  0  0  0
 86171  1  0  0  0
 87 91  1  0  0  0
 87172  1  0  0  0
 87173  1  0  0  0
 88174  1  0  0  0
 88175  1  0  0  0
 88 92  1  0  0  0
 89176  1  0  0  0
 89177  1  0  0  0
 90178  1  0  0  0
 91179  1  0  0  0
 92180  1  0  0  0
M  CHG  1  92   1
M  ISO  4   1 100  68 101  89 101  90 100
M  END
> <chiral flag>
0

> <version>
0

> <s_m_source_file>
/data/baiqing/PycharmProjects/Reinvent-master-3.2/result/LINK_invent/BTK/process_docking_weight1_custom_product_contain_oxygen_bond_distance_aromatic_linkinvent_7_9_3/rearranged_h_0005.sdf

> <i_m_source_file_index>
36

> <r_mmod_Potential_Energy-OPLS-2005>
-98.1788330078125

> <r_mmod_Stretch_Energy-OPLS-2005>
35.2315902709961

> <r_mmod_Bend_Energy-OPLS-2005>
159.850860595703

> <r_mmod_Torsional_Energy-OPLS-2005>
339.204010009766

> <r_mmod_Improper_Torsional_Energy-OPLS-2005>
8.76322746276855

> <r_mmod_Van_der_Waal_Energy-OPLS-2005>
137.629669189453

> <r_mmod_Electrostatic_Energy-OPLS-2005>
-327.086212158203

> <r_mmod_Solvation_Energy-OPLS-2005>
-460.034088134766

> <b_mmod_Minimization_Converged-OPLS-2005>
0

> <r_mmod_RMS_Derivative-OPLS-2005>
2.37283134460449

$$$$
36
                    3D
 Structure written by MMmdl.
167176  0  0  1  0            999 V2000
  -30.7504  -14.3740   20.7073 C   0  0  0  0  0  0
  -30.4283  -12.3041   19.3893 C   0  0  0  0  0  0
  -29.4865  -12.5312   18.1908 C   0  0  0  0  0  0
  -28.0118  -12.3791   18.6088 C   0  0  0  0  0  0
  -27.6694  -13.1981   19.8796 C   0  0  2  0  0  0
  -28.7060  -12.9256   20.9910 C   0  0  0  0  0  0
  -25.2625  -13.8147   20.5663 C   0  0  0  0  0  0
  -24.1855  -13.0435   20.9157 C   0  0  0  0  0  0
  -24.6396  -11.6900   20.8714 C   0  0  0  0  0  0
  -23.9057  -10.4293   21.0397 C   0  0  0  0  0  0
  -24.3610   -9.4212   21.9179 C   0  0  0  0  0  0
  -23.6289   -8.2244   22.0752 C   0  0  0  0  0  0
  -22.4268   -8.0284   21.3548 C   0  0  0  0  0  0
  -21.9903   -9.0252   20.4643 C   0  0  0  0  0  0
  -22.7229  -10.2133   20.3051 C   0  0  0  0  0  0
  -21.6856   -6.0735   22.5278 C   0  0  0  0  0  0
  -21.4011   -6.5639   23.8212 C   0  0  0  0  0  0
  -21.3657   -5.6795   24.9174 C   0  0  0  0  0  0
  -21.6044   -4.3056   24.7226 C   0  0  0  0  0  0
  -21.8821   -3.8147   23.4345 C   0  0  0  0  0  0
  -21.9192   -4.6962   22.3402 C   0  0  0  0  0  0
  -22.7882  -13.5245   21.1826 C   0  0  0  0  0  0
  -22.1663   -4.2148   21.0978 F   0  0  0  0  0  0
  -21.5629   -3.4539   25.7736 F   0  0  0  0  0  0
  -30.0526  -13.2330   20.4646 N   0  0  0  0  0  0
  -26.3061  -12.9298   20.3362 N   0  0  0  0  0  0
  -25.9320  -11.6468   20.5741 N   0  0  0  0  0  0
  -22.0521  -12.8240   22.0386 N   0  0  0  0  0  0
  -25.4381  -15.1857   20.4090 N   0  0  0  0  0  0
  -31.7492  -14.7103   20.0624 O   0  0  0  0  0  0
  -21.6637   -6.8874   21.4243 O   0  0  0  0  0  0
  -22.3572  -14.5557   20.6688 O   0  0  0  0  0  0
  -24.6130  -31.8703   23.2118 C   0  0  0  0  0  0
  -25.9041  -32.4823   23.8388 C   0  0  1  0  0  0
  -27.2310  -27.4527   20.0873 C   0  0  0  0  0  0
  -25.5915  -33.8625   24.2318 N   0  0  0  0  0  0
  -23.3974  -30.4953   21.5536 C   0  0  2  0  0  0
  -24.8417  -28.9677   20.1138 C   0  0  0  0  0  0
  -22.7389  -29.4671   22.4998 C   0  0  0  0  0  0
  -18.0266  -28.1378   22.8495 C   0  0  0  0  0  0
  -24.1490  -36.7321   23.2629 C   0  0  0  0  0  0
  -25.9253  -30.8432   21.3606 C   0  0  0  0  0  0
  -26.0026  -29.4806   20.7046 C   0  0  0  0  0  0
  -27.2006  -28.7317   20.6858 C   0  0  0  0  0  0
  -26.0468  -26.9542   19.4899 C   0  0  0  0  0  0
  -24.8573  -27.7032   19.5055 C   0  0  0  0  0  0
  -23.6029  -29.8302   20.1676 C   0  0  0  0  0  0
  -25.4111  -36.3109   24.0323 C   0  0  1  0  0  0
  -20.5854  -28.3663   23.1329 C   0  0  2  0  0  0
  -20.6765  -26.9404   22.5416 C   0  0  0  0  0  0
  -19.5745  -26.6390   21.5209 C   0  0  0  0  0  0
  -18.1923  -26.7925   22.1622 C   0  0  0  0  0  0
  -19.1516  -28.8832   23.2913 C   0  0  0  0  0  0
  -18.9448  -30.1445   23.8910 C   0  0  0  0  0  0
  -17.6455  -30.6588   24.0568 C   0  0  0  0  0  0
  -25.9038  -34.9474   23.5110 C   0  0  0  0  0  0
  -16.5345  -29.9093   23.6334 C   0  0  0  0  0  0
  -16.7259  -28.6515   23.0347 C   0  0  0  0  0  0
  -26.4471  -31.6598   25.0708 C   0  0  0  0  0  0
  -25.3743  -31.3720   26.1462 C   0  0  0  0  0  0
  -27.0291  -30.3037   24.6082 C   0  0  0  0  0  0
  -27.6044  -32.4310   25.7485 C   0  0  0  0  0  0
  -27.5581  -37.1811   24.8458 C   0  0  0  0  0  0
  -21.4118  -29.3046   22.3740 N   0  0  0  0  0  0
  -26.4298  -37.3796   23.9396 N   0  0  0  0  0  0
  -24.6635  -31.0820   22.1011 N   0  0  0  0  0  0
  -23.4181  -28.8224   23.3030 O   0  0  0  0  0  0
  -28.4051  -26.7266   20.1081 O   0  0  0  0  0  0
  -26.5596  -34.8933   22.4667 O   0  0  0  0  0  0
  -23.5339  -32.1448   23.7541 O   0  0  0  0  0  0
  -31.0921  -18.9557   23.2439 C   0  0  0  0  0  0
  -30.9331  -17.4166   21.3632 C   0  0  0  0  0  0
  -30.8059  -17.9066   24.1401 C   0  0  0  0  0  0
  -30.5633  -16.5979   23.6462 C   0  0  0  0  0  0
  -31.1541  -18.7207   21.8571 C   0  0  0  0  0  0
  -30.6364  -16.3523   22.2496 C   0  0  0  0  0  0
  -30.5552  -22.1627   20.5120 C   0  0  0  0  0  0
  -30.7375  -18.2267   25.6292 C   0  0  0  0  0  0
  -30.2615  -15.4448   24.6092 C   0  0  0  0  0  0
  -30.8627  -16.9890   26.5261 C   0  0  0  0  0  0
  -29.9295  -15.8774   26.0441 C   0  0  0  0  0  0
  -31.4454  -19.8764   20.9104 C   0  0  0  0  0  0
  -29.3105  -23.0526   20.5962 C   0  0  0  0  0  0
  -29.5608  -24.5729   20.4457 C   0  0  0  0  0  0
  -28.2556  -25.3050   20.1009 C   0  0  0  0  0  0
  -30.3122  -15.0503   21.7794 N   0  0  0  0  0  0
  -30.4315  -20.9216   20.9966 N   0  0  0  0  0  0
  -31.5953  -22.5720   19.9924 O   0  0  0  0  0  0
  -31.4683  -12.4283   19.0814 H   0  0  0  0  0  0
  -30.3482  -11.2769   19.7482 H   0  0  0  0  0  0
  -29.7221  -11.8278   17.3910 H   0  0  0  0  0  0
  -29.6508  -13.5284   17.7794 H   0  0  0  0  0  0
  -27.8230  -11.3199   18.7880 H   0  0  0  0  0  0
  -27.3570  -12.6687   17.7862 H   0  0  0  0  0  0
  -27.7315  -14.2534   19.6131 H   0  0  0  0  0  0
  -28.6713  -11.8761   21.2869 H   0  0  0  0  0  0
  -28.4348  -13.4798   21.8896 H   0  0  0  0  0  0
  -25.2759   -9.5687   22.4749 H   0  0  0  0  0  0
  -23.9999   -7.4637   22.7475 H   0  0  0  0  0  0
  -21.0833   -8.8771   19.8950 H   0  0  0  0  0  0
  -22.3691  -10.9670   19.6155 H   0  0  0  0  0  0
  -21.2005   -7.6147   23.9716 H   0  0  0  0  0  0
  -21.1479   -6.0522   25.9078 H   0  0  0  0  0  0
  -22.0601   -2.7609   23.2847 H   0  0  0  0  0  0
  -22.4129  -11.9894   22.4763 H   0  0  0  0  0  0
  -21.1143  -13.1271   22.2590 H   0  0  0  0  0  0
  -24.6803  -15.8494   20.5260 H   0  0  0  0  0  0
  -26.3043  -15.6222   20.1171 H   0  0  0  0  0  0
  -26.7111  -32.5537   23.1154 H   0  0  0  0  0  0
  -25.0071  -33.9786   25.0468 H   0  0  0  0  0  0
  -22.6863  -31.3129   21.4165 H   0  0  0  0  0  0
  -23.3743  -35.9664   23.3299 H   0  0  0  0  0  0
  -24.3584  -36.8932   22.2042 H   0  0  0  0  0  0
  -23.7266  -37.6535   23.6649 H   0  0  0  0  0  0
  -26.0318  -31.6130   20.5955 H   0  0  0  0  0  0
  -26.8162  -30.8941   21.9764 H   0  0  0  0  0  0
  -28.0978  -29.1246   21.1449 H   0  0  0  0  0  0
  -26.0189  -25.9910   19.0027 H   0  0  0  0  0  0
  -23.9621  -27.3048   19.0478 H   0  0  0  0  0  0
  -23.7069  -30.6048   19.4082 H   0  0  0  0  0  0
  -22.7284  -29.2483   19.8708 H   0  0  0  0  0  0
  -25.1288  -36.1948   25.0817 H   0  0  0  0  0  0
  -20.9942  -28.3216   24.1454 H   0  0  0  0  0  0
  -20.5681  -26.2257   23.3591 H   0  0  0  0  0  0
  -21.6636  -26.7469   22.1196 H   0  0  0  0  0  0
  -19.6913  -25.6310   21.1223 H   0  0  0  0  0  0
  -19.6687  -27.3218   20.6754 H   0  0  0  0  0  0
  -17.4193  -26.6675   21.4032 H   0  0  0  0  0  0
  -18.0340  -26.0063   22.9014 H   0  0  0  0  0  0
  -19.7924  -30.7259   24.2286 H   0  0  0  0  0  0
  -17.5013  -31.6266   24.5167 H   0  0  0  0  0  0
  -15.5352  -30.3001   23.7656 H   0  0  0  0  0  0
  -15.8657  -28.0844   22.7051 H   0  0  0  0  0  0
  -24.5913  -30.7069   25.7809 H   0  0  0  0  0  0
  -24.8952  -32.2890   26.4901 H   0  0  0  0  0  0
  -25.8098  -30.8897   27.0222 H   0  0  0  0  0  0
  -26.2835  -29.6814   24.1131 H   0  0  0  0  0  0
  -27.4047  -29.7249   25.4530 H   0  0  0  0  0  0
  -27.8668  -30.4337   23.9230 H   0  0  0  0  0  0
  -27.2657  -33.3596   26.2092 H   0  0  0  0  0  0
  -28.3861  -32.6893   25.0328 H   0  0  0  0  0  0
  -28.0711  -31.8418   26.5391 H   0  0  0  0  0  0
  -28.2589  -38.0118   24.7506 H   0  0  0  0  0  0
  -28.1081  -36.2643   24.6272 H   0  0  0  0  0  0
  -27.2294  -37.1444   25.8863 H   0  0  0  0  0  0
  -20.9269  -29.8745   21.6947 H   0  0  0  0  0  0
  -26.0168  -38.2861   24.1422 H   0  0  0  0  0  0
  -31.2633  -19.9551   23.6225 H   0  0  0  0  0  0
  -30.9607  -17.2456   20.2962 H   0  0  0  0  0  0
  -29.7820  -18.7179   25.8230 H   0  0  0  0  0  0
  -31.5141  -18.9480   25.8902 H   0  0  0  0  0  0
  -31.1392  -14.7970   24.6240 H   0  0  0  0  0  0
  -29.4356  -14.8409   24.2328 H   0  0  0  0  0  0
  -30.6405  -17.2528   27.5615 H   0  0  0  0  0  0
  -31.8923  -16.6267   26.5118 H   0  0  0  0  0  0
  -29.9730  -15.0169   26.7133 H   0  0  0  0  0  0
  -28.9021  -16.2420   26.0802 H   0  0  0  0  0  0
  -31.5043  -19.5209   19.8806 H   0  0  0  0  0  0
  -32.4272  -20.2853   21.1560 H   0  0  0  0  0  0
  -28.7941  -22.8625   21.5380 H   0  0  0  0  0  0
  -28.6367  -22.7191   19.8063 H   0  0  0  0  0  0
  -30.2932  -24.7790   19.6654 H   0  0  0  0  0  0
  -29.9725  -24.9671   21.3758 H   0  0  0  0  0  0
  -27.4846  -25.0195   20.8196 H   0  0  0  0  0  0
  -27.9303  -24.9735   19.1147 H   0  0  0  0  0  0
  -29.6200  -14.5538   22.3177 H   0  0  0  0  0  0
  -29.5489  -20.6615   21.4152 H   0  0  0  0  0  0
  1 25  1  0  0  0
  1 30  2  0  0  0
  1 86  1  0  0  0
  2  3  1  0  0  0
  2 25  1  0  0  0
  2 89  1  0  0  0
  2 90  1  0  0  0
  3  4  1  0  0  0
  3 91  1  0  0  0
  3 92  1  0  0  0
  4  5  1  0  0  0
  4 93  1  0  0  0
  4 94  1  0  0  0
  5  6  1  0  0  0
  5 26  1  0  0  0
  5 95  1  0  0  0
  6 25  1  0  0  0
  6 96  1  0  0  0
  6 97  1  0  0  0
  7  8  2  0  0  0
  7 26  1  0  0  0
  7 29  1  0  0  0
  8  9  1  0  0  0
  8 22  1  0  0  0
  9 10  1  0  0  0
  9 27  2  0  0  0
 10 11  2  0  0  0
 10 15  1  0  0  0
 11 12  1  0  0  0
 11 98  1  0  0  0
 12 13  2  0  0  0
 12 99  1  0  0  0
 13 14  1  0  0  0
 13 31  1  0  0  0
 14 15  2  0  0  0
 14100  1  0  0  0
 15101  1  0  0  0
 16 17  2  0  0  0
 16 21  1  0  0  0
 16 31  1  0  0  0
 17 18  1  0  0  0
 17102  1  0  0  0
 18 19  2  0  0  0
 18103  1  0  0  0
 19 20  1  0  0  0
 19 24  1  0  0  0
 20 21  2  0  0  0
 20104  1  0  0  0
 21 23  1  0  0  0
 22 28  1  0  0  0
 22 32  2  0  0  0
 26 27  1  0  0  0
 28105  1  0  0  0
 28106  1  0  0  0
 29107  1  0  0  0
 29108  1  0  0  0
 33 34  1  0  0  0
 33 66  1  0  0  0
 33 70  2  0  0  0
 34 36  1  0  0  0
 34 59  1  0  0  0
 34109  1  0  0  0
 35 44  2  0  0  0
 35 45  1  0  0  0
 35 68  1  0  0  0
 36 56  1  0  0  0
 36110  1  0  0  0
 37 39  1  0  0  0
 37 47  1  0  0  0
 37 66  1  0  0  0
 37111  1  0  0  0
 38 43  2  0  0  0
 38 46  1  0  0  0
 38 47  1  0  0  0
 39 64  1  0  0  0
 39 67  2  0  0  0
 40 52  1  0  0  0
 40 53  2  0  0  0
 40 58  1  0  0  0
 41112  1  0  0  0
 41113  1  0  0  0
 41114  1  0  0  0
 41 48  1  0  0  0
 42 43  1  0  0  0
 42 66  1  0  0  0
 42115  1  0  0  0
 42116  1  0  0  0
 43 44  1  0  0  0
 44117  1  0  0  0
 45 46  2  0  0  0
 45118  1  0  0  0
 46119  1  0  0  0
 47120  1  0  0  0
 47121  1  0  0  0
 48 56  1  0  0  0
 48 65  1  0  0  0
 48122  1  0  0  0
 49 50  1  0  0  0
 49 53  1  0  0  0
 49 64  1  0  0  0
 49123  1  0  0  0
 50 51  1  0  0  0
 50124  1  0  0  0
 50125  1  0  0  0
 51 52  1  0  0  0
 51126  1  0  0  0
 51127  1  0  0  0
 52128  1  0  0  0
 52129  1  0  0  0
 53 54  1  0  0  0
 54 55  2  0  0  0
 54130  1  0  0  0
 55 57  1  0  0  0
 55131  1  0  0  0
 56 69  2  0  0  0
 57 58  2  0  0  0
 57132  1  0  0  0
 58133  1  0  0  0
 59 60  1  0  0  0
 59 61  1  0  0  0
 59 62  1  0  0  0
 60134  1  0  0  0
 60135  1  0  0  0
 60136  1  0  0  0
 61137  1  0  0  0
 61138  1  0  0  0
 61139  1  0  0  0
 62140  1  0  0  0
 62141  1  0  0  0
 62142  1  0  0  0
 63 65  1  0  0  0
 63143  1  0  0  0
 63144  1  0  0  0
 63145  1  0  0  0
 64146  1  0  0  0
 65147  1  0  0  0
 68 85  1  0  0  0
 71 73  2  0  0  0
 71 75  1  0  0  0
 71148  1  0  0  0
 72 75  2  0  0  0
 72 76  1  0  0  0
 72149  1  0  0  0
 73 74  1  0  0  0
 73 78  1  0  0  0
 74 76  2  0  0  0
 74 79  1  0  0  0
 75 82  1  0  0  0
 76 86  1  0  0  0
 77 83  1  0  0  0
 77 87  1  0  0  0
 77 88  2  0  0  0
 78 80  1  0  0  0
 78150  1  0  0  0
 78151  1  0  0  0
 79 81  1  0  0  0
 79152  1  0  0  0
 79153  1  0  0  0
 80 81  1  0  0  0
 80154  1  0  0  0
 80155  1  0  0  0
 81156  1  0  0  0
 81157  1  0  0  0
 82 87  1  0  0  0
 82158  1  0  0  0
 82159  1  0  0  0
 83 84  1  0  0  0
 83160  1  0  0  0
 83161  1  0  0  0
 84 85  1  0  0  0
 84162  1  0  0  0
 84163  1  0  0  0
 85164  1  0  0  0
 85165  1  0  0  0
 86166  1  0  0  0
 87167  1  0  0  0
M  ISO  4   1 100  68 101  85 101  86 100
M  END
> <chiral flag>
0

> <version>
0

> <s_m_source_file>
/data/baiqing/PycharmProjects/Reinvent-master-3.2/result/LINK_invent/BTK/process_docking_weight1_custom_product_contain_oxygen_bond_distance_aromatic_linkinvent_7_9_3/rearranged_h_0005.sdf

> <i_m_source_file_index>
37

> <r_mmod_Potential_Energy-OPLS-2005>
-186.838897705078

> <r_mmod_Stretch_Energy-OPLS-2005>
35.0613098144531

> <r_mmod_Bend_Energy-OPLS-2005>
95.1913070678711

> <r_mmod_Torsional_Energy-OPLS-2005>
223.58430480957

> <r_mmod_Improper_Torsional_Energy-OPLS-2005>
2.6507682800293

> <r_mmod_Van_der_Waal_Energy-OPLS-2005>
166.987045288086

> <r_mmod_Electrostatic_Energy-OPLS-2005>
-484.410003662109

> <r_mmod_Solvation_Energy-OPLS-2005>
-234.511993408203

> <b_mmod_Minimization_Converged-OPLS-2005>
0

> <r_mmod_RMS_Derivative-OPLS-2005>
1.77839505672455

$$$$
37
                    3D
 Structure written by MMmdl.
152161  0  0  1  0            999 V2000
  -30.5352  -15.0865   20.4093 C   0  0  0  0  0  0
  -30.4373  -12.6900   19.4998 C   0  0  0  0  0  0
  -29.5219  -12.5448   18.2615 C   0  0  0  0  0  0
  -28.0654  -12.2884   18.6887 C   0  0  0  0  0  0
  -27.6181  -13.2396   19.8250 C   0  0  2  0  0  0
  -28.6654  -13.3372   20.9574 C   0  0  0  0  0  0
  -25.2380  -13.8138   20.5686 C   0  0  0  0  0  0
  -24.1728  -13.0372   20.9238 C   0  0  0  0  0  0
  -24.6365  -11.6870   20.8757 C   0  0  0  0  0  0
  -23.9065  -10.4261   21.0412 C   0  0  0  0  0  0
  -24.3627   -9.4184   21.9185 C   0  0  0  0  0  0
  -23.6298   -8.2225   22.0756 C   0  0  0  0  0  0
  -22.4275   -8.0270   21.3548 C   0  0  0  0  0  0
  -21.9907   -9.0242   20.4648 C   0  0  0  0  0  0
  -22.7240  -10.2115   20.3058 C   0  0  0  0  0  0
  -21.6851   -6.0731   22.5282 C   0  0  0  0  0  0
  -21.4014   -6.5634   23.8215 C   0  0  0  0  0  0
  -21.3656   -5.6784   24.9173 C   0  0  0  0  0  0
  -21.6044   -4.3048   24.7221 C   0  0  0  0  0  0
  -21.8821   -3.8142   23.4340 C   0  0  0  0  0  0
  -21.9194   -4.6961   22.3399 C   0  0  0  0  0  0
  -22.7756  -13.5163   21.1882 C   0  0  0  0  0  0
  -22.1665   -4.2154   21.0976 F   0  0  0  0  0  0
  -21.5625   -3.4523   25.7732 F   0  0  0  0  0  0
  -29.9132  -13.8190   20.3413 N   0  0  0  0  0  0
  -26.2822  -12.9376   20.3213 N   0  0  0  0  0  0
  -25.9293  -11.6513   20.5736 N   0  0  0  0  0  0
  -22.0403  -12.8183   22.0453 N   0  0  0  0  0  0
  -25.3865  -15.1865   20.4046 N   0  0  0  0  0  0
  -31.7516  -15.0546   20.1802 O   0  0  0  0  0  0
  -21.6633   -6.8874   21.4247 O   0  0  0  0  0  0
  -22.3444  -14.5457   20.6698 O   0  0  0  0  0  0
  -24.6506  -31.8369   23.1818 C   0  0  0  0  0  0
  -25.9245  -32.4665   23.8237 C   0  0  1  0  0  0
  -27.2237  -27.0642   20.1592 C   0  0  0  0  0  0
  -25.5976  -33.8474   24.2159 N   0  0  0  0  0  0
  -23.4590  -30.4553   21.5253 C   0  0  2  0  0  0
  -24.9110  -28.8669   20.1108 C   0  0  0  0  0  0
  -22.7596  -29.4527   22.4790 C   0  0  0  0  0  0
  -18.0317  -28.1398   22.8458 C   0  0  0  0  0  0
  -24.1491  -36.7246   23.2637 C   0  0  0  0  0  0
  -26.0191  -30.6900   21.3886 C   0  0  0  0  0  0
  -26.0920  -29.2924   20.7322 C   0  0  0  0  0  0
  -27.2479  -28.4109   20.7328 C   0  0  0  0  0  0
  -26.0124  -26.7577   19.4992 C   0  0  0  0  0  0
  -24.8886  -27.6148   19.4777 C   0  0  0  0  0  0
  -23.6925  -29.7807   20.1470 C   0  0  0  0  0  0
  -25.4123  -36.3008   24.0306 C   0  0  1  0  0  0
  -20.5931  -28.3749   23.1186 C   0  0  2  0  0  0
  -20.6798  -26.9442   22.5374 C   0  0  0  0  0  0
  -19.5776  -26.6373   21.5183 C   0  0  0  0  0  0
  -18.1964  -26.7934   22.1607 C   0  0  0  0  0  0
  -19.1576  -28.8885   23.2823 C   0  0  0  0  0  0
  -18.9494  -30.1469   23.8871 C   0  0  0  0  0  0
  -17.6495  -30.6596   24.0556 C   0  0  0  0  0  0
  -25.9076  -34.9391   23.5037 C   0  0  0  0  0  0
  -16.5384  -29.9092   23.6327 C   0  0  0  0  0  0
  -16.7303  -28.6501   23.0360 C   0  0  0  0  0  0
  -26.4550  -31.6553   25.0706 C   0  0  0  0  0  0
  -25.3727  -31.3758   26.1397 C   0  0  0  0  0  0
  -27.0410  -30.2938   24.6321 C   0  0  0  0  0  0
  -27.6074  -32.4333   25.7504 C   0  0  0  0  0  0
  -27.5569  -37.1779   24.8465 C   0  0  0  0  0  0
  -21.4274  -29.3081   22.3552 N   0  0  0  0  0  0
  -26.4277  -37.3729   23.9410 N   0  0  0  0  0  0
  -24.7299  -31.0162   22.0876 N   0  0  0  0  0  0
  -23.4201  -28.8062   23.2968 O   0  0  0  0  0  0
  -28.2666  -26.0422   20.2151 O   0  0  0  0  0  0
  -26.5652  -34.8902   22.4615 O   0  0  0  0  0  0
  -23.5607  -32.1272   23.6993 O   0  0  0  0  0  0
  -31.9155  -19.5918   19.7401 C   0  0  0  0  0  0
  -31.6235  -18.2138   19.9116 C   0  0  0  0  0  0
  -30.9522  -20.6268   19.9018 C   0  0  0  0  0  0
  -29.3585  -18.9010   20.4369 C   0  0  0  0  0  0
  -30.3226  -17.8098   20.2727 C   0  0  0  0  0  0
  -29.6005  -20.3848   20.2540 C   0  0  0  0  0  0
  -28.0935  -18.1749   20.8453 C   0  0  0  0  0  0
  -28.4185  -16.6159   20.8212 C   0  0  0  0  0  0
  -27.9906  -24.4720   20.1665 C   0  0  0  0  0  0
  -29.0476  -23.1002   20.2258 C   0  0  0  0  0  0
  -29.8455  -16.3797   20.4903 N   0  0  0  0  0  0
  -28.6925  -21.5583   20.3683 O   0  0  0  0  0  0
  -31.4622  -12.8646   19.1696 H   0  0  0  0  0  0
  -30.4704  -11.7575   20.0663 H   0  0  0  0  0  0
  -29.8749  -11.7345   17.6216 H   0  0  0  0  0  0
  -29.5753  -13.4551   17.6625 H   0  0  0  0  0  0
  -27.9981  -11.2539   19.0273 H   0  0  0  0  0  0
  -27.3963  -12.3738   17.8322 H   0  0  0  0  0  0
  -27.5491  -14.2070   19.3373 H   0  0  0  0  0  0
  -28.8077  -12.3689   21.4390 H   0  0  0  0  0  0
  -28.3311  -14.0074   21.7467 H   0  0  0  0  0  0
  -25.2775   -9.5660   22.4750 H   0  0  0  0  0  0
  -24.0009   -7.4611   22.7466 H   0  0  0  0  0  0
  -21.0838   -8.8757   19.8952 H   0  0  0  0  0  0
  -22.3700  -10.9655   19.6165 H   0  0  0  0  0  0
  -21.2005   -7.6139   23.9722 H   0  0  0  0  0  0
  -21.1476   -6.0508   25.9079 H   0  0  0  0  0  0
  -22.0602   -2.7605   23.2832 H   0  0  0  0  0  0
  -22.4043  -11.9897   22.4930 H   0  0  0  0  0  0
  -21.0997  -13.1189   22.2593 H   0  0  0  0  0  0
  -24.5985  -15.8169   20.5095 H   0  0  0  0  0  0
  -26.2086  -15.6378   20.0287 H   0  0  0  0  0  0
  -26.7320  -32.5262   23.0970 H   0  0  0  0  0  0
  -25.0153  -33.9582   25.0328 H   0  0  0  0  0  0
  -22.7673  -31.2847   21.3630 H   0  0  0  0  0  0
  -23.3757  -35.9572   23.3277 H   0  0  0  0  0  0
  -24.3567  -36.8902   22.2052 H   0  0  0  0  0  0
  -23.7245  -37.6434   23.6701 H   0  0  0  0  0  0
  -26.1799  -31.4405   20.6130 H   0  0  0  0  0  0
  -26.8871  -30.7464   22.0342 H   0  0  0  0  0  0
  -28.1494  -28.7359   21.2335 H   0  0  0  0  0  0
  -25.8994  -25.8066   19.0035 H   0  0  0  0  0  0
  -23.9907  -27.2834   18.9740 H   0  0  0  0  0  0
  -23.8466  -30.5560   19.3949 H   0  0  0  0  0  0
  -22.8049  -29.2329   19.8257 H   0  0  0  0  0  0
  -25.1314  -36.1816   25.0795 H   0  0  0  0  0  0
  -21.0044  -28.3352   24.1298 H   0  0  0  0  0  0
  -20.5653  -26.2379   23.3610 H   0  0  0  0  0  0
  -21.6671  -26.7417   22.1199 H   0  0  0  0  0  0
  -19.6944  -25.6261   21.1267 H   0  0  0  0  0  0
  -19.6717  -27.3136   20.6673 H   0  0  0  0  0  0
  -17.4222  -26.6651   21.4029 H   0  0  0  0  0  0
  -18.0400  -26.0082   22.9013 H   0  0  0  0  0  0
  -19.7973  -30.7275   24.2247 H   0  0  0  0  0  0
  -17.5058  -31.6273   24.5162 H   0  0  0  0  0  0
  -15.5391  -30.3004   23.7643 H   0  0  0  0  0  0
  -15.8701  -28.0804   22.7117 H   0  0  0  0  0  0
  -24.5914  -30.7105   25.7705 H   0  0  0  0  0  0
  -24.8922  -32.2946   26.4770 H   0  0  0  0  0  0
  -25.7998  -30.8955   27.0209 H   0  0  0  0  0  0
  -26.3019  -29.6668   24.1324 H   0  0  0  0  0  0
  -27.3986  -29.7242   25.4907 H   0  0  0  0  0  0
  -27.8952  -30.4148   23.9659 H   0  0  0  0  0  0
  -27.2660  -33.3654   26.2021 H   0  0  0  0  0  0
  -28.3927  -32.6858   25.0368 H   0  0  0  0  0  0
  -28.0712  -31.8506   26.5476 H   0  0  0  0  0  0
  -28.2568  -38.0086   24.7504 H   0  0  0  0  0  0
  -28.1076  -36.2617   24.6299 H   0  0  0  0  0  0
  -27.2290  -37.1430   25.8865 H   0  0  0  0  0  0
  -20.9483  -29.8838   21.6767 H   0  0  0  0  0  0
  -26.0136  -38.2787   24.1432 H   0  0  0  0  0  0
  -32.9260  -19.8700   19.4670 H   0  0  0  0  0  0
  -32.4117  -17.4899   19.7616 H   0  0  0  0  0  0
  -31.2878  -21.6407   19.7421 H   0  0  0  0  0  0
  -27.2763  -18.4236   20.1670 H   0  0  0  0  0  0
  -27.7997  -18.4948   21.8460 H   0  0  0  0  0  0
  -28.1400  -16.1636   21.7747 H   0  0  0  0  0  0
  -27.8194  -16.1718   20.0341 H   0  0  0  0  0  0
  -27.2770  -24.3095   20.9745 H   0  0  0  0  0  0
  -27.4183  -24.3108   19.2543 H   0  0  0  0  0  0
  -29.7429  -23.2968   21.0428 H   0  0  0  0  0  0
  -29.6550  -23.1709   19.3234 H   0  0  0  0  0  0
  1 25  1  0  0  0
  1 30  2  0  0  0
  1 81  1  0  0  0
  2  3  1  0  0  0
  2 25  1  0  0  0
  2 83  1  0  0  0
  2 84  1  0  0  0
  3  4  1  0  0  0
  3 85  1  0  0  0
  3 86  1  0  0  0
  4  5  1  0  0  0
  4 87  1  0  0  0
  4 88  1  0  0  0
  5  6  1  0  0  0
  5 26  1  0  0  0
  5 89  1  0  0  0
  6 25  1  0  0  0
  6 90  1  0  0  0
  6 91  1  0  0  0
  7  8  2  0  0  0
  7 26  1  0  0  0
  7 29  1  0  0  0
  8  9  1  0  0  0
  8 22  1  0  0  0
  9 10  1  0  0  0
  9 27  2  0  0  0
 10 11  2  0  0  0
 10 15  1  0  0  0
 11 12  1  0  0  0
 11 92  1  0  0  0
 12 13  2  0  0  0
 12 93  1  0  0  0
 13 14  1  0  0  0
 13 31  1  0  0  0
 14 15  2  0  0  0
 14 94  1  0  0  0
 15 95  1  0  0  0
 16 17  2  0  0  0
 16 21  1  0  0  0
 16 31  1  0  0  0
 17 18  1  0  0  0
 17 96  1  0  0  0
 18 19  2  0  0  0
 18 97  1  0  0  0
 19 20  1  0  0  0
 19 24  1  0  0  0
 20 21  2  0  0  0
 20 98  1  0  0  0
 21 23  1  0  0  0
 22 28  1  0  0  0
 22 32  2  0  0  0
 26 27  1  0  0  0
 28 99  1  0  0  0
 28100  1  0  0  0
 29101  1  0  0  0
 29102  1  0  0  0
 33 34  1  0  0  0
 33 66  1  0  0  0
 33 70  2  0  0  0
 34 36  1  0  0  0
 34 59  1  0  0  0
 34103  1  0  0  0
 35 44  2  0  0  0
 35 45  1  0  0  0
 35 68  1  0  0  0
 36 56  1  0  0  0
 36104  1  0  0  0
 37 39  1  0  0  0
 37 47  1  0  0  0
 37 66  1  0  0  0
 37105  1  0  0  0
 38 43  2  0  0  0
 38 46  1  0  0  0
 38 47  1  0  0  0
 39 64  1  0  0  0
 39 67  2  0  0  0
 40 52  1  0  0  0
 40 53  2  0  0  0
 40 58  1  0  0  0
 41106  1  0  0  0
 41107  1  0  0  0
 41108  1  0  0  0
 41 48  1  0  0  0
 42 43  1  0  0  0
 42 66  1  0  0  0
 42109  1  0  0  0
 42110  1  0  0  0
 43 44  1  0  0  0
 44111  1  0  0  0
 45 46  2  0  0  0
 45112  1  0  0  0
 46113  1  0  0  0
 47114  1  0  0  0
 47115  1  0  0  0
 48 56  1  0  0  0
 48 65  1  0  0  0
 48116  1  0  0  0
 49 50  1  0  0  0
 49 53  1  0  0  0
 49 64  1  0  0  0
 49117  1  0  0  0
 50 51  1  0  0  0
 50118  1  0  0  0
 50119  1  0  0  0
 51 52  1  0  0  0
 51120  1  0  0  0
 51121  1  0  0  0
 52122  1  0  0  0
 52123  1  0  0  0
 53 54  1  0  0  0
 54 55  2  0  0  0
 54124  1  0  0  0
 55 57  1  0  0  0
 55125  1  0  0  0
 56 69  2  0  0  0
 57 58  2  0  0  0
 57126  1  0  0  0
 58127  1  0  0  0
 59 60  1  0  0  0
 59 61  1  0  0  0
 59 62  1  0  0  0
 60128  1  0  0  0
 60129  1  0  0  0
 60130  1  0  0  0
 61131  1  0  0  0
 61132  1  0  0  0
 61133  1  0  0  0
 62134  1  0  0  0
 62135  1  0  0  0
 62136  1  0  0  0
 63 65  1  0  0  0
 63137  1  0  0  0
 63138  1  0  0  0
 63139  1  0  0  0
 64140  1  0  0  0
 65141  1  0  0  0
 68 79  1  0  0  0
 71 72  2  0  0  0
 71 73  1  0  0  0
 71142  1  0  0  0
 72 75  1  0  0  0
 72143  1  0  0  0
 73 76  2  0  0  0
 73144  1  0  0  0
 74 75  2  0  0  0
 74 76  1  0  0  0
 74 77  1  0  0  0
 75 81  1  0  0  0
 76 82  1  0  0  0
 77 78  1  0  0  0
 77145  1  0  0  0
 77146  1  0  0  0
 78 81  1  0  0  0
 78147  1  0  0  0
 78148  1  0  0  0
 79 80  1  0  0  0
 79149  1  0  0  0
 79150  1  0  0  0
 80 82  1  0  0  0
 80151  1  0  0  0
 80152  1  0  0  0
M  ISO  4   1 100  68 101  79 101  81 100
M  END
> <chiral flag>
0

> <version>
0

> <s_m_source_file>
/data/baiqing/PycharmProjects/Reinvent-master-3.2/result/LINK_invent/BTK/process_docking_weight1_custom_product_contain_oxygen_bond_distance_aromatic_linkinvent_7_9_3/rearranged_h_0005.sdf

> <i_m_source_file_index>
38

> <r_mmod_Potential_Energy-OPLS-2005>
910.418395996094

> <r_mmod_Stretch_Energy-OPLS-2005>
345.318756103516

> <r_mmod_Bend_Energy-OPLS-2005>
370.046966552734

> <r_mmod_Torsional_Energy-OPLS-2005>
270.321807861328

> <r_mmod_Improper_Torsional_Energy-OPLS-2005>
5.07360553741455

> <r_mmod_Van_der_Waal_Energy-OPLS-2005>
129.826278686523

> <r_mmod_Electrostatic_Energy-OPLS-2005>
-285.919555664062

> <r_mmod_Solvation_Energy-OPLS-2005>
-199.830383300781

> <b_mmod_Minimization_Converged-OPLS-2005>
0

> <r_mmod_RMS_Derivative-OPLS-2005>
1.76402795314789

$$$$
38
                    3D
 Structure written by MMmdl.
197206  0  0  1  0            999 V2000
  -31.0053  -14.1366   21.2178 C   0  0  0  0  0  0
  -31.0921  -13.1295   19.0036 C   0  0  0  0  0  0
  -30.2816  -14.0494   17.5336 C   0  0  0  0  0  0
  -27.1399  -14.0723   18.3316 C   0  0  0  0  0  0
  -27.2314  -13.4676   20.1334 C   0  0  2  0  0  0
  -28.7329  -12.7988   20.9534 C   0  0  0  0  0  0
  -24.9752  -13.8307   20.5536 C   0  0  0  0  0  0
  -23.9680  -13.0384   20.8918 C   0  0  0  0  0  0
  -24.4831  -11.6920   20.8651 C   0  0  0  0  0  0
  -23.7997  -10.4329   21.0503 C   0  0  0  0  0  0
  -24.3264   -9.4367   21.8935 C   0  0  0  0  0  0
  -23.6330   -8.2247   22.0727 C   0  0  0  0  0  0
  -22.4142   -8.0040   21.3919 C   0  0  0  0  0  0
  -21.9070   -9.0050   20.5536 C   0  0  0  0  0  0
  -22.5865  -10.2126   20.3903 C   0  0  0  0  0  0
  -21.7098   -6.0389   22.5481 C   0  0  0  0  0  0
  -21.4261   -6.5192   23.8418 C   0  0  0  0  0  0
  -21.3448   -5.6204   24.9193 C   0  0  0  0  0  0
  -21.6179   -4.2563   24.7308 C   0  0  0  0  0  0
  -21.9450   -3.7830   23.4389 C   0  0  0  0  0  0
  -21.9471   -4.6711   22.3509 C   0  0  0  0  0  0
  -22.6009  -13.5723   21.1213 C   0  0  0  0  0  0
  -22.1915   -4.2130   21.0972 F   0  0  0  0  0  0
  -21.5777   -3.4059   25.7763 F   0  0  0  0  0  0
  -30.3546  -13.1163   20.5462 N   0  0  0  0  0  0
  -26.0306  -12.9822   20.4745 N   0  0  0  0  0  0
  -25.7856  -11.6739   20.6212 N   0  0  0  0  0  0
  -21.7471  -12.8303   21.7655 N   0  0  0  0  0  0
  -25.0820  -15.1938   20.2406 N   0  0  0  0  0  0
  -31.8287  -14.8639   20.6418 O   0  0  0  0  0  0
  -21.6821   -6.8545   21.4440 O   0  0  0  0  0  0
  -22.2974  -14.7228   20.7866 O   0  0  0  0  0  0
  -24.6708  -31.8172   23.1639 C   0  0  0  0  0  0
  -25.9336  -32.4565   23.8130 C   0  0  1  0  0  0
  -27.1178  -26.7957   20.1064 C   0  0  0  0  0  0
  -25.5979  -33.8394   24.2042 N   0  0  0  0  0  0
  -23.4820  -30.4374   21.5245 C   0  0  2  0  0  0
  -24.9067  -28.7997   20.1168 C   0  0  0  0  0  0
  -22.7692  -29.4428   22.4799 C   0  0  0  0  0  0
  -18.0345  -28.1427   22.8494 C   0  0  0  0  0  0
  -24.1509  -36.7213   23.2633 C   0  0  0  0  0  0
  -26.0617  -30.5723   21.4114 C   0  0  0  0  0  0
  -26.1092  -29.1541   20.7425 C   0  0  0  0  0  0
  -27.2180  -28.1692   20.7109 C   0  0  0  0  0  0
  -25.8899  -26.6313   19.4485 C   0  0  0  0  0  0
  -24.8239  -27.5618   19.4632 C   0  0  0  0  0  0
  -23.7147  -29.7565   20.1538 C   0  0  0  0  0  0
  -25.4164  -36.2987   24.0274 C   0  0  1  0  0  0
  -20.5940  -28.3755   23.1208 C   0  0  2  0  0  0
  -20.6819  -26.9448   22.5411 C   0  0  0  0  0  0
  -19.5795  -26.6385   21.5242 C   0  0  0  0  0  0
  -18.1966  -26.7972   22.1637 C   0  0  0  0  0  0
  -19.1593  -28.8935   23.2819 C   0  0  0  0  0  0
  -18.9493  -30.1518   23.8858 C   0  0  0  0  0  0
  -17.6485  -30.6609   24.0562 C   0  0  0  0  0  0
  -25.9120  -34.9351   23.4986 C   0  0  0  0  0  0
  -16.5377  -29.9085   23.6344 C   0  0  0  0  0  0
  -16.7322  -28.6502   23.0363 C   0  0  0  0  0  0
  -26.4554  -31.6568   25.0725 C   0  0  0  0  0  0
  -25.3594  -31.3835   26.1308 C   0  0  0  0  0  0
  -27.0406  -30.2918   24.6496 C   0  0  0  0  0  0
  -27.6094  -32.4354   25.7480 C   0  0  0  0  0  0
  -27.5609  -37.1782   24.8455 C   0  0  0  0  0  0
  -21.4342  -29.3062   22.3574 N   0  0  0  0  0  0
  -26.4335  -37.3720   23.9370 N   0  0  0  0  0  0
  -24.7641  -30.9701   22.0867 N   0  0  0  0  0  0
  -23.4234  -28.7982   23.3048 O   0  0  0  0  0  0
  -28.0360  -25.5929   20.0211 O   0  0  0  0  0  0
  -26.5739  -34.8883   22.4582 O   0  0  0  0  0  0
  -23.5768  -32.1185   23.6693 O   0  0  0  0  0  0
  -28.4323  -12.6925   16.8992 C   0  0  0  0  0  0
  -28.8185  -12.7100   18.4802 C   0  0  0  0  0  0
  -28.2535  -14.1059   16.1563 C   0  0  0  0  0  0
  -29.0498  -14.7178   19.2232 C   0  0  0  0  0  0
  -28.4131  -15.5615   16.7992 C   0  0  0  0  0  0
  -27.3043  -13.9969   24.1287 C   0  0  0  0  0  0
  -28.2175  -15.7750   22.7041 C   0  0  0  0  0  0
  -25.8293  -15.6342   23.0816 C   0  0  0  0  0  0
  -28.7386  -16.0019   18.2842 C   0  0  0  0  0  0
  -28.4205  -14.6358   23.5217 C   0  0  0  0  0  0
  -25.9833  -14.4933   23.9427 C   0  0  0  0  0  0
  -26.9335  -16.2863   22.4199 C   0  0  0  0  0  0
  -27.6328  -18.3398   21.0433 C   0  0  0  0  0  0
  -18.9355   -9.4553   23.5019 C   0  0  0  0  0  0
  -18.9816  -11.6259   22.4715 C   0  0  0  0  0  0
  -28.8334  -17.7026   18.7939 C   0  0  0  0  0  0
  -29.8320  -14.0059   23.6113 C   0  0  0  0  0  0
  -24.7829  -13.9000   24.7677 C   0  0  0  0  0  0
  -22.0053  -10.9641   24.8030 C   0  0  0  0  0  0
  -22.8825  -12.2105   24.4020 C   0  0  0  0  0  0
  -20.4559  -11.1797   24.4817 C   0  0  0  0  0  0
  -27.9674  -22.2470   19.3564 C   0  0  0  0  0  0
  -27.7430  -23.9087   20.1909 C   0  0  0  0  0  0
  -27.8445  -19.0073   19.5971 C   0  0  2  0  0  0
  -26.7960  -17.2807   21.3368 N   0  0  0  0  0  0
  -30.7859  -14.3890   22.5395 N   0  0  0  0  0  0
  -24.3617  -12.4383   24.6510 N   0  3  0  0  0  0
  -28.2298  -20.6529   19.9414 N   0  3  0  0  0  0
  -19.8090  -10.6289   23.2225 N   0  3  0  0  0  0
  -28.2704  -18.8503   21.9636 O   0  0  0  0  0  0
  -32.1478  -13.3794   18.9936 H   0  0  0  0  0  0
  -31.1966  -12.0751   18.7579 H   0  0  0  0  0  0
  -30.6310  -13.5959   16.5980 H   0  0  0  0  0  0
  -30.7920  -15.0084   17.4822 H   0  0  0  0  0  0
  -26.4349  -13.3883   17.8449 H   0  0  0  0  0  0
  -26.5626  -15.0008   18.2341 H   0  0  0  0  0  0
  -27.2532  -14.3803   20.7269 H   0  0  0  0  0  0
  -28.6713  -11.7044   20.9247 H   0  0  0  0  0  0
  -28.5170  -12.8583   21.9942 H   0  0  0  0  0  0
  -25.2573   -9.6012   22.4101 H   0  0  0  0  0  0
  -24.0556   -7.4704   22.7223 H   0  0  0  0  0  0
  -20.9576   -8.8363   20.0777 H   0  0  0  0  0  0
  -22.1419  -10.9679   19.7667 H   0  0  0  0  0  0
  -21.2708   -7.5704   24.0074 H   0  0  0  0  0  0
  -21.0620   -5.9497   25.9073 H   0  0  0  0  0  0
  -22.1932   -2.7462   23.2883 H   0  0  0  0  0  0
  -21.8151  -11.8194   21.7331 H   0  0  0  0  0  0
  -20.8895  -13.2708   22.0774 H   0  0  0  0  0  0
  -24.2012  -15.6264   19.9754 H   0  0  0  0  0  0
  -25.8026  -15.4196   19.5703 H   0  0  0  0  0  0
  -26.7398  -32.5074   23.0809 H   0  0  0  0  0  0
  -25.0092  -33.9496   25.0182 H   0  0  0  0  0  0
  -22.7998  -31.2747   21.3604 H   0  0  0  0  0  0
  -23.3813  -35.9508   23.3235 H   0  0  0  0  0  0
  -24.3589  -36.8926   22.2069 H   0  0  0  0  0  0
  -23.7243  -37.6360   23.6737 H   0  0  0  0  0  0
  -26.2538  -31.3139   20.6345 H   0  0  0  0  0  0
  -26.9165  -30.6342   22.0678 H   0  0  0  0  0  0
  -28.1348  -28.4255   21.2207 H   0  0  0  0  0  0
  -25.7268  -25.7041   18.9157 H   0  0  0  0  0  0
  -23.9048  -27.2910   18.9626 H   0  0  0  0  0  0
  -23.8920  -30.5227   19.4036 H   0  0  0  0  0  0
  -22.8141  -29.2360   19.8281 H   0  0  0  0  0  0
  -25.1377  -36.1779   25.0783 H   0  0  0  0  0  0
  -21.0049  -28.3381   24.1313 H   0  0  0  0  0  0
  -20.5725  -26.2405   23.3648 H   0  0  0  0  0  0
  -21.6675  -26.7462   22.1198 H   0  0  0  0  0  0
  -19.6921  -25.6270   21.1325 H   0  0  0  0  0  0
  -19.6698  -27.3148   20.6727 H   0  0  0  0  0  0
  -17.4233  -26.6755   21.4008 H   0  0  0  0  0  0
  -18.0307  -26.0111   22.9030 H   0  0  0  0  0  0
  -19.7938  -30.7373   24.2189 H   0  0  0  0  0  0
  -17.4994  -31.6281   24.5155 H   0  0  0  0  0  0
  -15.5342  -30.2954   23.7671 H   0  0  0  0  0  0
  -15.8730  -28.0788   22.7080 H   0  0  0  0  0  0
  -24.5844  -30.7135   25.7540 H   0  0  0  0  0  0
  -24.8671  -32.3019   26.4515 H   0  0  0  0  0  0
  -25.7712  -30.9118   27.0219 H   0  0  0  0  0  0
  -26.3036  -29.6608   24.1491 H   0  0  0  0  0  0
  -27.3868  -29.7306   25.5169 H   0  0  0  0  0  0
  -27.9040  -30.4075   23.9941 H   0  0  0  0  0  0
  -27.2770  -33.3759   26.1841 H   0  0  0  0  0  0
  -28.3968  -32.6684   25.0322 H   0  0  0  0  0  0
  -28.0637  -31.8580   26.5511 H   0  0  0  0  0  0
  -28.2591  -38.0115   24.7531 H   0  0  0  0  0  0
  -28.1145  -36.2633   24.6262 H   0  0  0  0  0  0
  -27.2304  -37.1402   25.8853 H   0  0  0  0  0  0
  -20.9596  -29.8793   21.6719 H   0  0  0  0  0  0
  -26.0167  -38.2782   24.1349 H   0  0  0  0  0  0
  -28.2963  -11.7632   16.3728 H   0  0  0  0  0  0
  -28.9179  -11.7387   18.9250 H   0  0  0  0  0  0
  -28.0263  -14.0572   15.1016 H   0  0  0  0  0  0
  -29.1316  -15.1042   20.2140 H   0  0  0  0  0  0
  -28.2541  -16.3873   16.1095 H   0  0  0  0  0  0
  -27.4462  -13.1217   24.7569 H   0  0  0  0  0  0
  -29.0542  -16.2228   22.1964 H   0  0  0  0  0  0
  -24.8186  -15.9854   22.8880 H   0  0  0  0  0  0
  -18.1313   -9.7468   24.1784 H   0  0  0  0  0  0
  -19.5071   -8.6489   23.9434 H   0  0  0  0  0  0
  -18.4183   -9.0481   22.6309 H   0  0  0  0  0  0
  -18.5056  -11.1647   21.6058 H   0  0  0  0  0  0
  -19.4994  -12.4699   22.0664 H   0  0  0  0  0  0
  -18.1923  -12.0538   23.0788 H   0  0  0  0  0  0
  -29.2045  -18.1827   17.8960 H   0  0  0  0  0  0
  -29.7093  -17.6487   19.4386 H   0  0  0  0  0  0
  -29.7972  -12.9227   23.6972 H   0  0  0  0  0  0
  -30.2478  -14.3552   24.5600 H   0  0  0  0  0  0
  -23.9357  -14.5706   24.5787 H   0  0  0  0  0  0
  -24.9950  -14.0428   25.8234 H   0  0  0  0  0  0
  -22.0673  -10.8727   25.8821 H   0  0  0  0  0  0
  -22.3794  -10.0166   24.4154 H   0  0  0  0  0  0
  -22.2799  -13.1204   24.5300 H   0  0  0  0  0  0
  -23.0121  -11.9713   23.3770 H   0  0  0  0  0  0
  -20.2053  -12.2412   24.5671 H   0  0  0  0  0  0
  -19.9206  -10.7438   25.3279 H   0  0  0  0  0  0
  -28.8083  -22.3931   18.6779 H   0  0  0  0  0  0
  -27.1242  -22.1380   18.6789 H   0  0  0  0  0  0
  -28.2566  -23.7508   21.1367 H   0  0  0  0  0  0
  -26.6897  -23.8919   20.4683 H   0  0  0  0  0  0
  -26.8746  -19.0377   19.0943 H   0  0  0  0  0  0
  -26.0534  -17.0564   20.6809 H   0  0  0  0  0  0
  -31.4026  -15.1257   22.8650 H   0  0  0  0  0  0
  -24.7280  -11.8389   25.3828 H   0  0  0  0  0  0
  -24.7945  -12.1087   23.8105 H   0  0  0  0  0  0
  -27.7216  -20.7028   20.8135 H   0  0  0  0  0  0
  -29.1837  -20.6161   20.2595 H   0  0  0  0  0  0
  -20.5097  -10.3054   22.5757 H   0  0  0  0  0  0
  1 25  1  0  0  0
  1 30  2  0  0  0
  1 96  1  0  0  0
  2  3  1  0  0  0
  2 25  1  0  0  0
  2101  1  0  0  0
  2102  1  0  0  0
  3  4  1  0  0  0
  3103  1  0  0  0
  3104  1  0  0  0
  4  5  1  0  0  0
  4105  1  0  0  0
  4106  1  0  0  0
  5  6  1  0  0  0
  5 26  1  0  0  0
  5107  1  0  0  0
  6 25  1  0  0  0
  6108  1  0  0  0
  6109  1  0  0  0
  7  8  2  0  0  0
  7 26  1  0  0  0
  7 29  1  0  0  0
  8  9  1  0  0  0
  8 22  1  0  0  0
  9 10  1  0  0  0
  9 27  2  0  0  0
 10 11  2  0  0  0
 10 15  1  0  0  0
 11 12  1  0  0  0
 11110  1  0  0  0
 12 13  2  0  0  0
 12111  1  0  0  0
 13 14  1  0  0  0
 13 31  1  0  0  0
 14 15  2  0  0  0
 14112  1  0  0  0
 15113  1  0  0  0
 16 17  2  0  0  0
 16 21  1  0  0  0
 16 31  1  0  0  0
 17 18  1  0  0  0
 17114  1  0  0  0
 18 19  2  0  0  0
 18115  1  0  0  0
 19 20  1  0  0  0
 19 24  1  0  0  0
 20 21  2  0  0  0
 20116  1  0  0  0
 21 23  1  0  0  0
 22 28  1  0  0  0
 22 32  2  0  0  0
 26 27  1  0  0  0
 28117  1  0  0  0
 28118  1  0  0  0
 29119  1  0  0  0
 29120  1  0  0  0
 33 34  1  0  0  0
 33 66  1  0  0  0
 33 70  2  0  0  0
 34 36  1  0  0  0
 34 59  1  0  0  0
 34121  1  0  0  0
 35 44  2  0  0  0
 35 45  1  0  0  0
 35 68  1  0  0  0
 36 56  1  0  0  0
 36122  1  0  0  0
 37 39  1  0  0  0
 37 47  1  0  0  0
 37 66  1  0  0  0
 37123  1  0  0  0
 38 43  2  0  0  0
 38 46  1  0  0  0
 38 47  1  0  0  0
 39 64  1  0  0  0
 39 67  2  0  0  0
 40 52  1  0  0  0
 40 53  2  0  0  0
 40 58  1  0  0  0
 41124  1  0  0  0
 41125  1  0  0  0
 41126  1  0  0  0
 41 48  1  0  0  0
 42 43  1  0  0  0
 42 66  1  0  0  0
 42127  1  0  0  0
 42128  1  0  0  0
 43 44  1  0  0  0
 44129  1  0  0  0
 45 46  2  0  0  0
 45130  1  0  0  0
 46131  1  0  0  0
 47132  1  0  0  0
 47133  1  0  0  0
 48 56  1  0  0  0
 48 65  1  0  0  0
 48134  1  0  0  0
 49 50  1  0  0  0
 49 53  1  0  0  0
 49 64  1  0  0  0
 49135  1  0  0  0
 50 51  1  0  0  0
 50136  1  0  0  0
 50137  1  0  0  0
 51 52  1  0  0  0
 51138  1  0  0  0
 51139  1  0  0  0
 52140  1  0  0  0
 52141  1  0  0  0
 53 54  1  0  0  0
 54 55  2  0  0  0
 54142  1  0  0  0
 55 57  1  0  0  0
 55143  1  0  0  0
 56 69  2  0  0  0
 57 58  2  0  0  0
 57144  1  0  0  0
 58145  1  0  0  0
 59 60  1  0  0  0
 59 61  1  0  0  0
 59 62  1  0  0  0
 60146  1  0  0  0
 60147  1  0  0  0
 60148  1  0  0  0
 61149  1  0  0  0
 61150  1  0  0  0
 61151  1  0  0  0
 62152  1  0  0  0
 62153  1  0  0  0
 62154  1  0  0  0
 63 65  1  0  0  0
 63155  1  0  0  0
 63156  1  0  0  0
 63157  1  0  0  0
 64158  1  0  0  0
 65159  1  0  0  0
 68 93  1  0  0  0
 71 72  2  0  0  0
 71 73  1  0  0  0
 71160  1  0  0  0
 72 74  1  0  0  0
 72161  1  0  0  0
 73 75  2  0  0  0
 73162  1  0  0  0
 74 79  2  0  0  0
 74163  1  0  0  0
 75 79  1  0  0  0
 75164  1  0  0  0
 76 80  2  0  0  0
 76 81  1  0  0  0
 76165  1  0  0  0
 77 80  1  0  0  0
 77 82  2  0  0  0
 77166  1  0  0  0
 78 81  2  0  0  0
 78 82  1  0  0  0
 78167  1  0  0  0
 79 86  1  0  0  0
 80 87  1  0  0  0
 81 88  1  0  0  0
 82 95  1  0  0  0
 83 94  1  0  0  0
 83 95  1  0  0  0
 83100  2  0  0  0
 84168  1  0  0  0
 84169  1  0  0  0
 84170  1  0  0  0
 84 99  1  0  0  0
 85 99  1  0  0  0
 85171  1  0  0  0
 85172  1  0  0  0
 85173  1  0  0  0
 86174  1  0  0  0
 86175  1  0  0  0
 86 94  1  0  0  0
 87 96  1  0  0  0
 87176  1  0  0  0
 87177  1  0  0  0
 88 97  1  0  0  0
 88178  1  0  0  0
 88179  1  0  0  0
 89 90  1  0  0  0
 89 91  1  0  0  0
 89180  1  0  0  0
 89181  1  0  0  0
 90 97  1  0  0  0
 90182  1  0  0  0
 90183  1  0  0  0
 91 99  1  0  0  0
 91184  1  0  0  0
 91185  1  0  0  0
 92 93  1  0  0  0
 92 98  1  0  0  0
 92186  1  0  0  0
 92187  1  0  0  0
 93188  1  0  0  0
 93189  1  0  0  0
 94 98  1  0  0  0
 94190  1  0  0  0
 95191  1  0  0  0
 96192  1  0  0  0
 97193  1  0  0  0
 97194  1  0  0  0
 98195  1  0  0  0
 98196  1  0  0  0
 99197  1  0  0  0
M  CHG  3  97   1  98   1  99   1
M  ISO  4   1 100  68 101  93 101  96 100
M  END
> <chiral flag>
0

> <version>
0

> <s_m_source_file>
/data/baiqing/PycharmProjects/Reinvent-master-3.2/result/LINK_invent/BTK/process_docking_weight1_custom_product_contain_oxygen_bond_distance_aromatic_linkinvent_7_9_3/rearranged_h_0005.sdf

> <i_m_source_file_index>
39

> <r_mmod_Potential_Energy-OPLS-2005>
10557.783203125

> <r_mmod_Stretch_Energy-OPLS-2005>
6296.1240234375

> <r_mmod_Bend_Energy-OPLS-2005>
937.110046386719

> <r_mmod_Torsional_Energy-OPLS-2005>
384.525238037109

> <r_mmod_Improper_Torsional_Energy-OPLS-2005>
13.1369934082031

> <r_mmod_Van_der_Waal_Energy-OPLS-2005>
2806.32958984375

> <r_mmod_Electrostatic_Energy-OPLS-2005>
318.597351074219

> <r_mmod_Solvation_Energy-OPLS-2005>
-1524.33264160156

> <b_mmod_Minimization_Converged-OPLS-2005>
0

> <r_mmod_RMS_Derivative-OPLS-2005>
36.8422660827637

$$$$
39
                    3D
 Structure written by MMmdl.
174183  0  0  1  0            999 V2000
  -30.7373  -14.5036   20.5814 C   0  0  0  0  0  0
  -30.4105  -12.3489   19.4161 C   0  0  0  0  0  0
  -29.4798  -12.5199   18.1996 C   0  0  0  0  0  0
  -27.9997  -12.3904   18.6104 C   0  0  0  0  0  0
  -27.6544  -13.2080   19.8861 C   0  0  2  0  0  0
  -28.7093  -12.9582   20.9873 C   0  0  0  0  0  0
  -25.2545  -13.8145   20.5721 C   0  0  0  0  0  0
  -24.1825  -13.0424   20.9214 C   0  0  0  0  0  0
  -24.6401  -11.6892   20.8795 C   0  0  0  0  0  0
  -23.9063  -10.4287   21.0444 C   0  0  0  0  0  0
  -24.3615   -9.4195   21.9208 C   0  0  0  0  0  0
  -23.6292   -8.2234   22.0767 C   0  0  0  0  0  0
  -22.4271   -8.0291   21.3560 C   0  0  0  0  0  0
  -21.9915   -9.0259   20.4650 C   0  0  0  0  0  0
  -22.7242  -10.2141   20.3078 C   0  0  0  0  0  0
  -21.6829   -6.0755   22.5298 C   0  0  0  0  0  0
  -21.3990   -6.5655   23.8233 C   0  0  0  0  0  0
  -21.3676   -5.6805   24.9191 C   0  0  0  0  0  0
  -21.6054   -4.3069   24.7225 C   0  0  0  0  0  0
  -21.8808   -3.8166   23.4344 C   0  0  0  0  0  0
  -21.9184   -4.6989   22.3412 C   0  0  0  0  0  0
  -22.7840  -13.5219   21.1846 C   0  0  0  0  0  0
  -22.1652   -4.2181   21.0983 F   0  0  0  0  0  0
  -21.5655   -3.4550   25.7732 F   0  0  0  0  0  0
  -30.0025  -13.3575   20.4211 N   0  0  0  0  0  0
  -26.2993  -12.9326   20.3474 N   0  0  0  0  0  0
  -25.9327  -11.6484   20.5848 N   0  0  0  0  0  0
  -22.0478  -12.8223   22.0398 N   0  0  0  0  0  0
  -25.4224  -15.1864   20.4078 N   0  0  0  0  0  0
  -31.9191  -14.4951   20.2144 O   0  0  0  0  0  0
  -21.6633   -6.8893   21.4256 O   0  0  0  0  0  0
  -22.3545  -14.5550   20.6709 O   0  0  0  0  0  0
  -24.6112  -31.8702   23.2140 C   0  0  0  0  0  0
  -25.9011  -32.4832   23.8431 C   0  0  1  0  0  0
  -27.2171  -27.4182   20.1071 C   0  0  0  0  0  0
  -25.5878  -33.8640   24.2325 N   0  0  0  0  0  0
  -23.3986  -30.4977   21.5543 C   0  0  2  0  0  0
  -24.8399  -28.9664   20.1126 C   0  0  0  0  0  0
  -22.7392  -29.4674   22.4975 C   0  0  0  0  0  0
  -18.0243  -28.1392   22.8459 C   0  0  0  0  0  0
  -24.1488  -36.7310   23.2640 C   0  0  0  0  0  0
  -25.9311  -30.8282   21.3737 C   0  0  0  0  0  0
  -26.0024  -29.4666   20.7105 C   0  0  0  0  0  0
  -27.1906  -28.7010   20.7003 C   0  0  0  0  0  0
  -26.0302  -26.9292   19.5092 C   0  0  0  0  0  0
  -24.8504  -27.6968   19.5100 C   0  0  0  0  0  0
  -23.6033  -29.8376   20.1659 C   0  0  0  0  0  0
  -25.4123  -36.3122   24.0329 C   0  0  1  0  0  0
  -20.5839  -28.3682   23.1304 C   0  0  2  0  0  0
  -20.6760  -26.9412   22.5434 C   0  0  0  0  0  0
  -19.5753  -26.6391   21.5217 C   0  0  0  0  0  0
  -18.1915  -26.7936   22.1611 C   0  0  0  0  0  0
  -19.1502  -28.8843   23.2865 C   0  0  0  0  0  0
  -18.9447  -30.1450   23.8889 C   0  0  0  0  0  0
  -17.6459  -30.6593   24.0563 C   0  0  0  0  0  0
  -25.9039  -34.9484   23.5126 C   0  0  0  0  0  0
  -16.5335  -29.9113   23.6341 C   0  0  0  0  0  0
  -16.7238  -28.6537   23.0332 C   0  0  0  0  0  0
  -26.4450  -31.6641   25.0780 C   0  0  0  0  0  0
  -25.3701  -31.3772   26.1517 C   0  0  0  0  0  0
  -27.0277  -30.3065   24.6207 C   0  0  0  0  0  0
  -27.6015  -32.4392   25.7531 C   0  0  0  0  0  0
  -27.5583  -37.1808   24.8457 C   0  0  0  0  0  0
  -21.4121  -29.3039   22.3712 N   0  0  0  0  0  0
  -26.4303  -37.3809   23.9395 N   0  0  0  0  0  0
  -24.6653  -31.0802   22.1032 N   0  0  0  0  0  0
  -23.4168  -28.8176   23.2983 O   0  0  0  0  0  0
  -28.3985  -26.7020   20.1421 O   0  0  0  0  0  0
  -26.5623  -34.8926   22.4704 O   0  0  0  0  0  0
  -23.5312  -32.1471   23.7524 O   0  0  0  0  0  0
  -29.2381  -20.8012   25.8131 C   0  0  0  0  0  0
  -28.9805  -22.1726   25.1771 C   0  0  0  0  0  0
  -30.3715  -18.2866   20.6036 C   0  0  0  0  0  0
  -28.7853  -17.3730   22.2957 C   0  0  0  0  0  0
  -31.0260  -16.9058   20.4863 C   0  0  0  0  0  0
  -28.8207  -16.1478   21.3204 C   0  0  0  0  0  0
  -29.4839  -19.8470   24.6393 C   0  0  0  0  0  0
  -29.8018  -18.5063   22.0037 C   0  0  0  0  0  0
  -29.0802  -21.9536   23.6586 C   0  0  2  0  0  0
  -29.4855  -24.8425   22.6659 C   0  0  0  0  0  0
  -29.2854  -19.9805   22.1123 C   0  0  0  0  0  0
  -28.1121  -22.8682   22.8475 C   0  0  0  0  0  0
  -27.7803  -24.4394   21.0546 C   0  0  0  0  0  0
  -28.3914  -25.2845   19.8994 C   0  0  0  0  0  0
  -30.1727  -15.7399   20.8469 N   0  0  0  0  0  0
  -28.7853  -23.7939   21.9185 N   0  0  0  0  0  0
  -28.8729  -20.4910   23.4558 N   0  3  1  0  0  0
  -31.4471  -12.4468   19.0882 H   0  0  0  0  0  0
  -30.3416  -11.3392   19.8244 H   0  0  0  0  0  0
  -29.7201  -11.7859   17.4285 H   0  0  0  0  0  0
  -29.6466  -13.5010   17.7535 H   0  0  0  0  0  0
  -27.7912  -11.3324   18.7760 H   0  0  0  0  0  0
  -27.3563  -12.6983   17.7862 H   0  0  0  0  0  0
  -27.6959  -14.2575   19.5990 H   0  0  0  0  0  0
  -28.7276  -11.8932   21.2253 H   0  0  0  0  0  0
  -28.4909  -13.4116   21.9489 H   0  0  0  0  0  0
  -25.2764   -9.5658   22.4771 H   0  0  0  0  0  0
  -24.0018   -7.4607   22.7468 H   0  0  0  0  0  0
  -21.0863   -8.8764   19.8925 H   0  0  0  0  0  0
  -22.3717  -10.9685   19.6188 H   0  0  0  0  0  0
  -21.1956   -7.6157   23.9735 H   0  0  0  0  0  0
  -21.1525   -6.0543   25.9098 H   0  0  0  0  0  0
  -22.0573   -2.7630   23.2830 H   0  0  0  0  0  0
  -22.4066  -11.9869   22.4779 H   0  0  0  0  0  0
  -21.1104  -13.1267   22.2595 H   0  0  0  0  0  0
  -24.6487  -15.8344   20.5067 H   0  0  0  0  0  0
  -26.2704  -15.6272   20.0772 H   0  0  0  0  0  0
  -26.7056  -32.5520   23.1162 H   0  0  0  0  0  0
  -24.9957  -33.9826   25.0413 H   0  0  0  0  0  0
  -22.6854  -31.3145   21.4241 H   0  0  0  0  0  0
  -23.3751  -35.9637   23.3337 H   0  0  0  0  0  0
  -24.3553  -36.8926   22.2044 H   0  0  0  0  0  0
  -23.7236  -37.6521   23.6652 H   0  0  0  0  0  0
  -26.0643  -31.6025   20.6171 H   0  0  0  0  0  0
  -26.8097  -30.8605   22.0061 H   0  0  0  0  0  0
  -28.0875  -29.0830   21.1678 H   0  0  0  0  0  0
  -25.9816  -25.9572   19.0445 H   0  0  0  0  0  0
  -23.9517  -27.3034   19.0542 H   0  0  0  0  0  0
  -23.7084  -30.6208   19.4144 H   0  0  0  0  0  0
  -22.7236  -29.2651   19.8666 H   0  0  0  0  0  0
  -25.1295  -36.2008   25.0823 H   0  0  0  0  0  0
  -20.9900  -28.3272   24.1435 H   0  0  0  0  0  0
  -20.5692  -26.2267   23.3611 H   0  0  0  0  0  0
  -21.6618  -26.7481   22.1196 H   0  0  0  0  0  0
  -19.6922  -25.6310   21.1226 H   0  0  0  0  0  0
  -19.6718  -27.3211   20.6757 H   0  0  0  0  0  0
  -17.4183  -26.6632   21.4016 H   0  0  0  0  0  0
  -18.0319  -26.0119   22.9053 H   0  0  0  0  0  0
  -19.7932  -30.7239   24.2269 H   0  0  0  0  0  0
  -17.5031  -31.6277   24.5164 H   0  0  0  0  0  0
  -15.5339  -30.3004   23.7711 H   0  0  0  0  0  0
  -15.8629  -28.0870   22.7049 H   0  0  0  0  0  0
  -24.5817  -30.7201   25.7840 H   0  0  0  0  0  0
  -24.8937  -32.2932   26.5022 H   0  0  0  0  0  0
  -25.8012  -30.8875   27.0249 H   0  0  0  0  0  0
  -26.2845  -29.6857   24.1175 H   0  0  0  0  0  0
  -27.3904  -29.7305   25.4739 H   0  0  0  0  0  0
  -27.8765  -30.4359   23.9476 H   0  0  0  0  0  0
  -27.2609  -33.3668   26.2151 H   0  0  0  0  0  0
  -28.3782  -32.7022   25.0335 H   0  0  0  0  0  0
  -28.0725  -31.8507   26.5412 H   0  0  0  0  0  0
  -28.2604  -38.0104   24.7508 H   0  0  0  0  0  0
  -28.1077  -36.2627   24.6286 H   0  0  0  0  0  0
  -27.2277  -37.1470   25.8856 H   0  0  0  0  0  0
  -20.9280  -29.8778   21.6948 H   0  0  0  0  0  0
  -26.0202  -38.2889   24.1412 H   0  0  0  0  0  0
  -28.3599  -20.4864   26.3804 H   0  0  0  0  0  0
  -30.0824  -20.8119   26.5028 H   0  0  0  0  0  0
  -29.6910  -22.9297   25.5149 H   0  0  0  0  0  0
  -27.9844  -22.5185   25.4582 H   0  0  0  0  0  0
  -29.5905  -18.4010   19.8504 H   0  0  0  0  0  0
  -31.1251  -19.0447   20.3847 H   0  0  0  0  0  0
  -28.9521  -17.0144   23.3127 H   0  0  0  0  0  0
  -27.7716  -17.7784   22.2997 H   0  0  0  0  0  0
  -31.9163  -16.8966   21.1198 H   0  0  0  0  0  0
  -31.3793  -16.8062   19.4569 H   0  0  0  0  0  0
  -28.2451  -16.4040   20.4289 H   0  0  0  0  0  0
  -28.2563  -15.3680   21.8095 H   0  0  0  0  0  0
  -29.0723  -18.8552   24.8303 H   0  0  0  0  0  0
  -30.5592  -19.7471   24.4839 H   0  0  0  0  0  0
  -30.6442  -18.3817   22.6855 H   0  0  0  0  0  0
  -30.1161  -22.1624   23.3827 H   0  0  0  0  0  0
  -30.1982  -24.4384   23.3852 H   0  0  0  0  0  0
  -28.7868  -25.4813   23.2098 H   0  0  0  0  0  0
  -30.0592  -25.4848   21.9960 H   0  0  0  0  0  0
  -28.4524  -20.1312   21.4239 H   0  0  0  0  0  0
  -30.0812  -20.6291   21.7455 H   0  0  0  0  0  0
  -27.4614  -23.4344   23.5170 H   0  0  0  0  0  0
  -27.4441  -22.2282   22.2673 H   0  0  0  0  0  0
  -27.1878  -23.6494   20.5883 H   0  0  0  0  0  0
  -27.0752  -25.0286   21.6446 H   0  0  0  0  0  0
  -27.8975  -25.0496   18.9575 H   0  0  0  0  0  0
  -29.4241  -24.9757   19.7340 H   0  0  0  0  0  0
  -27.8811  -20.3234   23.5404 H   0  0  0  0  0  0
  1 25  1  0  0  0
  1 30  2  0  0  0
  1 85  1  0  0  0
  2  3  1  0  0  0
  2 25  1  0  0  0
  2 88  1  0  0  0
  2 89  1  0  0  0
  3  4  1  0  0  0
  3 90  1  0  0  0
  3 91  1  0  0  0
  4  5  1  0  0  0
  4 92  1  0  0  0
  4 93  1  0  0  0
  5  6  1  0  0  0
  5 26  1  0  0  0
  5 94  1  0  0  0
  6 25  1  0  0  0
  6 95  1  0  0  0
  6 96  1  0  0  0
  7  8  2  0  0  0
  7 26  1  0  0  0
  7 29  1  0  0  0
  8  9  1  0  0  0
  8 22  1  0  0  0
  9 10  1  0  0  0
  9 27  2  0  0  0
 10 11  2  0  0  0
 10 15  1  0  0  0
 11 12  1  0  0  0
 11 97  1  0  0  0
 12 13  2  0  0  0
 12 98  1  0  0  0
 13 14  1  0  0  0
 13 31  1  0  0  0
 14 15  2  0  0  0
 14 99  1  0  0  0
 15100  1  0  0  0
 16 17  2  0  0  0
 16 21  1  0  0  0
 16 31  1  0  0  0
 17 18  1  0  0  0
 17101  1  0  0  0
 18 19  2  0  0  0
 18102  1  0  0  0
 19 20  1  0  0  0
 19 24  1  0  0  0
 20 21  2  0  0  0
 20103  1  0  0  0
 21 23  1  0  0  0
 22 28  1  0  0  0
 22 32  2  0  0  0
 26 27  1  0  0  0
 28104  1  0  0  0
 28105  1  0  0  0
 29106  1  0  0  0
 29107  1  0  0  0
 33 34  1  0  0  0
 33 66  1  0  0  0
 33 70  2  0  0  0
 34 36  1  0  0  0
 34 59  1  0  0  0
 34108  1  0  0  0
 35 44  2  0  0  0
 35 45  1  0  0  0
 35 68  1  0  0  0
 36 56  1  0  0  0
 36109  1  0  0  0
 37 39  1  0  0  0
 37 47  1  0  0  0
 37 66  1  0  0  0
 37110  1  0  0  0
 38 43  2  0  0  0
 38 46  1  0  0  0
 38 47  1  0  0  0
 39 64  1  0  0  0
 39 67  2  0  0  0
 40 52  1  0  0  0
 40 53  2  0  0  0
 40 58  1  0  0  0
 41111  1  0  0  0
 41112  1  0  0  0
 41113  1  0  0  0
 41 48  1  0  0  0
 42 43  1  0  0  0
 42 66  1  0  0  0
 42114  1  0  0  0
 42115  1  0  0  0
 43 44  1  0  0  0
 44116  1  0  0  0
 45 46  2  0  0  0
 45117  1  0  0  0
 46118  1  0  0  0
 47119  1  0  0  0
 47120  1  0  0  0
 48 56  1  0  0  0
 48 65  1  0  0  0
 48121  1  0  0  0
 49 50  1  0  0  0
 49 53  1  0  0  0
 49 64  1  0  0  0
 49122  1  0  0  0
 50 51  1  0  0  0
 50123  1  0  0  0
 50124  1  0  0  0
 51 52  1  0  0  0
 51125  1  0  0  0
 51126  1  0  0  0
 52127  1  0  0  0
 52128  1  0  0  0
 53 54  1  0  0  0
 54 55  2  0  0  0
 54129  1  0  0  0
 55 57  1  0  0  0
 55130  1  0  0  0
 56 69  2  0  0  0
 57 58  2  0  0  0
 57131  1  0  0  0
 58132  1  0  0  0
 59 60  1  0  0  0
 59 61  1  0  0  0
 59 62  1  0  0  0
 60133  1  0  0  0
 60134  1  0  0  0
 60135  1  0  0  0
 61136  1  0  0  0
 61137  1  0  0  0
 61138  1  0  0  0
 62139  1  0  0  0
 62140  1  0  0  0
 62141  1  0  0  0
 63 65  1  0  0  0
 63142  1  0  0  0
 63143  1  0  0  0
 63144  1  0  0  0
 64145  1  0  0  0
 65146  1  0  0  0
 68 84  1  0  0  0
 71 72  1  0  0  0
 71 77  1  0  0  0
 71147  1  0  0  0
 71148  1  0  0  0
 72 79  1  0  0  0
 72149  1  0  0  0
 72150  1  0  0  0
 73 75  1  0  0  0
 73 78  1  0  0  0
 73151  1  0  0  0
 73152  1  0  0  0
 74 76  1  0  0  0
 74 78  1  0  0  0
 74153  1  0  0  0
 74154  1  0  0  0
 75 85  1  0  0  0
 75155  1  0  0  0
 75156  1  0  0  0
 76 85  1  0  0  0
 76157  1  0  0  0
 76158  1  0  0  0
 77 87  1  0  0  0
 77159  1  0  0  0
 77160  1  0  0  0
 78 81  1  0  0  0
 78161  1  0  0  0
 79 82  1  0  0  0
 79 87  1  0  0  0
 79162  1  0  0  0
 80 86  1  0  0  0
 80163  1  0  0  0
 80164  1  0  0  0
 80165  1  0  0  0
 81166  1  0  0  0
 81167  1  0  0  0
 81 87  1  0  0  0
 82 86  1  0  0  0
 82168  1  0  0  0
 82169  1  0  0  0
 83 84  1  0  0  0
 83 86  1  0  0  0
 83170  1  0  0  0
 83171  1  0  0  0
 84172  1  0  0  0
 84173  1  0  0  0
 87174  1  0  0  0
M  CHG  1  87   1
M  ISO  4   1 100  68 101  84 101  85 100
M  END
> <chiral flag>
0

> <version>
0

> <s_m_source_file>
/data/baiqing/PycharmProjects/Reinvent-master-3.2/result/LINK_invent/BTK/process_docking_weight1_custom_product_contain_oxygen_bond_distance_aromatic_linkinvent_7_9_3/rearranged_h_0005.sdf

> <i_m_source_file_index>
40

> <r_mmod_Potential_Energy-OPLS-2005>
313.860290527344

> <r_mmod_Stretch_Energy-OPLS-2005>
52.1100578308105

> <r_mmod_Bend_Energy-OPLS-2005>
189.306533813477

> <r_mmod_Torsional_Energy-OPLS-2005>
398.313110351562

> <r_mmod_Improper_Torsional_Energy-OPLS-2005>
7.21239042282104

> <r_mmod_Van_der_Waal_Energy-OPLS-2005>
165.403060913086

> <r_mmod_Electrostatic_Energy-OPLS-2005>
-98.8320693969727

> <r_mmod_Solvation_Energy-OPLS-2005>
-423.770965576172

> <b_mmod_Minimization_Converged-OPLS-2005>
0

> <r_mmod_RMS_Derivative-OPLS-2005>
3.08875608444214

$$$$
40
                    3D
 Structure written by MMmdl.
180189  0  0  1  0            999 V2000
  -30.6694  -14.4735   20.4719 C   0  0  0  0  0  0
  -30.4192  -12.2734   19.4378 C   0  0  0  0  0  0
  -29.5008  -12.4906   18.2155 C   0  0  0  0  0  0
  -28.0164  -12.3619   18.6141 C   0  0  0  0  0  0
  -27.6594  -13.1965   19.8721 C   0  0  2  0  0  0
  -28.7039  -12.9899   20.9987 C   0  0  0  0  0  0
  -25.2591  -13.8129   20.5673 C   0  0  0  0  0  0
  -24.1830  -13.0409   20.9159 C   0  0  0  0  0  0
  -24.6373  -11.6880   20.8717 C   0  0  0  0  0  0
  -23.9034  -10.4286   21.0378 C   0  0  0  0  0  0
  -24.3592   -9.4218   21.9178 C   0  0  0  0  0  0
  -23.6276   -8.2247   22.0763 C   0  0  0  0  0  0
  -22.4260   -8.0278   21.3550 C   0  0  0  0  0  0
  -21.9879   -9.0243   20.4652 C   0  0  0  0  0  0
  -22.7192  -10.2126   20.3049 C   0  0  0  0  0  0
  -21.6859   -6.0719   22.5267 C   0  0  0  0  0  0
  -21.4012   -6.5625   23.8197 C   0  0  0  0  0  0
  -21.3664   -5.6784   24.9165 C   0  0  0  0  0  0
  -21.6047   -4.3048   24.7220 C   0  0  0  0  0  0
  -21.8820   -3.8130   23.4345 C   0  0  0  0  0  0
  -21.9205   -4.6945   22.3399 C   0  0  0  0  0  0
  -22.7866  -13.5226   21.1853 C   0  0  0  0  0  0
  -22.1685   -4.2133   21.0980 F   0  0  0  0  0  0
  -21.5631   -3.4541   25.7743 F   0  0  0  0  0  0
  -30.0416  -13.2684   20.4500 N   0  0  0  0  0  0
  -26.3007  -12.9276   20.3354 N   0  0  0  0  0  0
  -25.9287  -11.6442   20.5726 N   0  0  0  0  0  0
  -22.0528  -12.8208   22.0410 N   0  0  0  0  0  0
  -25.4295  -15.1854   20.4073 N   0  0  0  0  0  0
  -31.8231  -14.6516   20.0757 O   0  0  0  0  0  0
  -21.6647   -6.8861   21.4233 O   0  0  0  0  0  0
  -22.3559  -14.5545   20.6731 O   0  0  0  0  0  0
  -24.6133  -31.8704   23.2148 C   0  0  0  0  0  0
  -25.9037  -32.4828   23.8423 C   0  0  1  0  0  0
  -27.2225  -27.4585   20.0889 C   0  0  0  0  0  0
  -25.5898  -33.8627   24.2345 N   0  0  0  0  0  0
  -23.3957  -30.4987   21.5559 C   0  0  2  0  0  0
  -24.8355  -28.9700   20.1154 C   0  0  0  0  0  0
  -22.7380  -29.4681   22.5016 C   0  0  0  0  0  0
  -18.0270  -28.1369   22.8509 C   0  0  0  0  0  0
  -24.1482  -36.7321   23.2639 C   0  0  0  0  0  0
  -25.9239  -30.8455   21.3606 C   0  0  0  0  0  0
  -25.9992  -29.4856   20.7010 C   0  0  0  0  0  0
  -27.1969  -28.7408   20.6779 C   0  0  0  0  0  0
  -26.0390  -26.9529   19.5019 C   0  0  0  0  0  0
  -24.8491  -27.7016   19.5141 C   0  0  0  0  0  0
  -23.5978  -29.8350   20.1690 C   0  0  0  0  0  0
  -25.4104  -36.3123   24.0341 C   0  0  1  0  0  0
  -20.5856  -28.3652   23.1327 C   0  0  2  0  0  0
  -20.6759  -26.9391   22.5416 C   0  0  0  0  0  0
  -19.5736  -26.6382   21.5213 C   0  0  0  0  0  0
  -18.1913  -26.7922   22.1628 C   0  0  0  0  0  0
  -19.1519  -28.8835   23.2913 C   0  0  0  0  0  0
  -18.9448  -30.1446   23.8917 C   0  0  0  0  0  0
  -17.6451  -30.6579   24.0573 C   0  0  0  0  0  0
  -25.9038  -34.9483   23.5144 C   0  0  0  0  0  0
  -16.5343  -29.9081   23.6333 C   0  0  0  0  0  0
  -16.7263  -28.6491   23.0365 C   0  0  0  0  0  0
  -26.4471  -31.6613   25.0750 C   0  0  0  0  0  0
  -25.3742  -31.3705   26.1509 C   0  0  0  0  0  0
  -27.0305  -30.3061   24.6120 C   0  0  0  0  0  0
  -27.6044  -32.4338   25.7503 C   0  0  0  0  0  0
  -27.5576  -37.1814   24.8462 C   0  0  0  0  0  0
  -21.4117  -29.3032   22.3738 N   0  0  0  0  0  0
  -26.4293  -37.3804   23.9417 N   0  0  0  0  0  0
  -24.6627  -31.0843   22.1020 N   0  0  0  0  0  0
  -23.4171  -28.8223   23.3034 O   0  0  0  0  0  0
  -28.3942  -26.7355   20.1134 O   0  0  0  0  0  0
  -26.5589  -34.8927   22.4703 O   0  0  0  0  0  0
  -23.5332  -32.1442   23.7573 O   0  0  0  0  0  0
  -30.3153  -18.5646   20.5224 C   0  0  0  0  0  0
  -30.7848  -19.8872   20.3840 C   0  0  0  0  0  0
  -30.4553  -18.2877   18.1113 C   0  0  0  0  0  0
  -30.1465  -17.7568   19.3811 C   0  0  0  0  0  0
  -31.0944  -20.4168   19.1107 C   0  0  0  0  0  0
  -30.9269  -19.6075   17.9581 C   0  0  0  0  0  0
  -28.9663  -20.1894   15.4553 C   0  0  0  0  0  0
  -26.6035  -21.5401   17.1980 C   0  0  0  0  0  0
  -26.0435  -19.7333   14.0171 C   0  0  0  0  0  0
  -27.1987  -20.6633   13.6666 C   0  0  0  0  0  0
  -25.5692  -20.2151   15.3891 C   0  0  0  0  0  0
  -27.7986  -21.0996   15.0161 C   0  0  1  0  0  0
  -31.6047  -21.8457   19.0026 C   0  0  0  0  0  0
  -29.5311  -16.3646   19.4456 C   0  0  0  0  0  0
  -31.2097  -20.1189   16.5450 C   0  0  0  0  0  0
  -27.7423  -22.4620   17.6678 C   0  0  0  0  0  0
  -27.4266  -23.3325   18.8986 C   0  0  0  0  0  0
  -28.3318  -24.5767   18.9533 C   0  0  0  0  0  0
  -28.2566  -25.3237   20.2942 C   0  0  0  0  0  0
  -26.6742  -20.9907   15.9611 N   0  0  0  0  0  0
  -30.0586  -20.7913   15.9473 N   0  0  0  0  0  0
  -29.8269  -15.5082   20.6043 N   0  0  0  0  0  0
  -28.8691  -18.9633   15.3611 O   0  0  0  0  0  0
  -25.6402  -21.3397   17.9438 O   0  0  0  0  0  0
  -31.4667  -12.3462   19.1427 H   0  0  0  0  0  0
  -30.2938  -11.2669   19.8392 H   0  0  0  0  0  0
  -29.7364  -11.7672   17.4356 H   0  0  0  0  0  0
  -29.6828  -13.4752   17.7814 H   0  0  0  0  0  0
  -27.8105  -11.3063   18.7987 H   0  0  0  0  0  0
  -27.3750  -12.6504   17.7796 H   0  0  0  0  0  0
  -27.6905  -14.2372   19.5576 H   0  0  0  0  0  0
  -28.6676  -11.9626   21.3618 H   0  0  0  0  0  0
  -28.4782  -13.6187   21.8620 H   0  0  0  0  0  0
  -25.2740   -9.5705   22.4742 H   0  0  0  0  0  0
  -24.0002   -7.4636   22.7465 H   0  0  0  0  0  0
  -21.0819   -8.8716   19.8949 H   0  0  0  0  0  0
  -22.3632  -10.9644   19.6152 H   0  0  0  0  0  0
  -21.1992   -7.6131   23.9690 H   0  0  0  0  0  0
  -21.1502   -6.0520   25.9060 H   0  0  0  0  0  0
  -22.0604   -2.7594   23.2846 H   0  0  0  0  0  0
  -22.4145  -11.9825   22.4707 H   0  0  0  0  0  0
  -21.1156  -13.1220   22.2701 H   0  0  0  0  0  0
  -24.6533  -15.8299   20.5080 H   0  0  0  0  0  0
  -26.2752  -15.6363   20.0865 H   0  0  0  0  0  0
  -26.7107  -32.5534   23.1186 H   0  0  0  0  0  0
  -25.0067  -33.9797   25.0499 H   0  0  0  0  0  0
  -22.6839  -31.3161   21.4232 H   0  0  0  0  0  0
  -23.3742  -35.9653   23.3315 H   0  0  0  0  0  0
  -24.3571  -36.8927   22.2049 H   0  0  0  0  0  0
  -23.7234  -37.6529   23.6648 H   0  0  0  0  0  0
  -26.0375  -31.6163   20.5979 H   0  0  0  0  0  0
  -26.8115  -30.8909   21.9802 H   0  0  0  0  0  0
  -28.0970  -29.1361   21.1275 H   0  0  0  0  0  0
  -26.0132  -25.9808   19.0336 H   0  0  0  0  0  0
  -23.9518  -27.2939   19.0679 H   0  0  0  0  0  0
  -23.7011  -30.6123   19.4113 H   0  0  0  0  0  0
  -22.7200  -29.2552   19.8757 H   0  0  0  0  0  0
  -25.1279  -36.1991   25.0832 H   0  0  0  0  0  0
  -20.9961  -28.3217   24.1444 H   0  0  0  0  0  0
  -20.5672  -26.2258   23.3599 H   0  0  0  0  0  0
  -21.6627  -26.7438   22.1203 H   0  0  0  0  0  0
  -19.6893  -25.6299   21.1231 H   0  0  0  0  0  0
  -19.6676  -27.3206   20.6756 H   0  0  0  0  0  0
  -17.4184  -26.6695   21.4020 H   0  0  0  0  0  0
  -18.0304  -26.0040   22.9002 H   0  0  0  0  0  0
  -19.7921  -30.7259   24.2280 H   0  0  0  0  0  0
  -17.5005  -31.6263   24.5163 H   0  0  0  0  0  0
  -15.5347  -30.2992   23.7646 H   0  0  0  0  0  0
  -15.8657  -28.0816   22.7084 H   0  0  0  0  0  0
  -24.5910  -30.7061   25.7854 H   0  0  0  0  0  0
  -24.8942  -32.2850   26.4998 H   0  0  0  0  0  0
  -25.8109  -30.8850   27.0246 H   0  0  0  0  0  0
  -26.2851  -29.6817   24.1188 H   0  0  0  0  0  0
  -27.4093  -29.7314   25.4583 H   0  0  0  0  0  0
  -27.8673  -30.4400   23.9264 H   0  0  0  0  0  0
  -27.2665  -33.3632   26.2110 H   0  0  0  0  0  0
  -28.3830  -32.6921   25.0310 H   0  0  0  0  0  0
  -28.0740  -31.8450   26.5395 H   0  0  0  0  0  0
  -28.2603  -38.0105   24.7523 H   0  0  0  0  0  0
  -28.1074  -36.2642   24.6282 H   0  0  0  0  0  0
  -27.2299  -37.1452   25.8867 H   0  0  0  0  0  0
  -20.9266  -29.8749   21.6965 H   0  0  0  0  0  0
  -26.0183  -38.2885   24.1425 H   0  0  0  0  0  0
  -30.0623  -18.1830   21.5007 H   0  0  0  0  0  0
  -30.8976  -20.4976   21.2708 H   0  0  0  0  0  0
  -30.3028  -17.6828   17.2277 H   0  0  0  0  0  0
  -26.4066  -18.7084   14.0921 H   0  0  0  0  0  0
  -25.2497  -19.7465   13.2691 H   0  0  0  0  0  0
  -26.8124  -21.5409   13.1486 H   0  0  0  0  0  0
  -27.9235  -20.1961   12.9978 H   0  0  0  0  0  0
  -25.2966  -19.3786   16.0341 H   0  0  0  0  0  0
  -24.6937  -20.8599   15.2923 H   0  0  0  0  0  0
  -28.1459  -22.1290   14.9173 H   0  0  0  0  0  0
  -31.5930  -22.3499   19.9699 H   0  0  0  0  0  0
  -30.9912  -22.4313   18.3159 H   0  0  0  0  0  0
  -32.6328  -21.8605   18.6365 H   0  0  0  0  0  0
  -29.7654  -15.8358   18.5194 H   0  0  0  0  0  0
  -28.4497  -16.5057   19.4217 H   0  0  0  0  0  0
  -31.5176  -19.2894   15.9069 H   0  0  0  0  0  0
  -32.0566  -20.8064   16.5484 H   0  0  0  0  0  0
  -27.9931  -23.1301   16.8446 H   0  0  0  0  0  0
  -28.6207  -21.8581   17.8834 H   0  0  0  0  0  0
  -27.5465  -22.7367   19.8048 H   0  0  0  0  0  0
  -26.3848  -23.6564   18.8835 H   0  0  0  0  0  0
  -28.0512  -25.2452   18.1388 H   0  0  0  0  0  0
  -29.3695  -24.3033   18.7625 H   0  0  0  0  0  0
  -29.0666  -24.9818   20.9395 H   0  0  0  0  0  0
  -27.3411  -25.0797   20.8370 H   0  0  0  0  0  0
  -30.0900  -21.8004   15.9357 H   0  0  0  0  0  0
  -29.0070  -15.2815   21.1446 H   0  0  0  0  0  0
  1 25  1  0  0  0
  1 30  2  0  0  0
  1 92  1  0  0  0
  2  3  1  0  0  0
  2 25  1  0  0  0
  2 95  1  0  0  0
  2 96  1  0  0  0
  3  4  1  0  0  0
  3 97  1  0  0  0
  3 98  1  0  0  0
  4  5  1  0  0  0
  4 99  1  0  0  0
  4100  1  0  0  0
  5  6  1  0  0  0
  5 26  1  0  0  0
  5101  1  0  0  0
  6 25  1  0  0  0
  6102  1  0  0  0
  6103  1  0  0  0
  7  8  2  0  0  0
  7 26  1  0  0  0
  7 29  1  0  0  0
  8  9  1  0  0  0
  8 22  1  0  0  0
  9 10  1  0  0  0
  9 27  2  0  0  0
 10 11  2  0  0  0
 10 15  1  0  0  0
 11 12  1  0  0  0
 11104  1  0  0  0
 12 13  2  0  0  0
 12105  1  0  0  0
 13 14  1  0  0  0
 13 31  1  0  0  0
 14 15  2  0  0  0
 14106  1  0  0  0
 15107  1  0  0  0
 16 17  2  0  0  0
 16 21  1  0  0  0
 16 31  1  0  0  0
 17 18  1  0  0  0
 17108  1  0  0  0
 18 19  2  0  0  0
 18109  1  0  0  0
 19 20  1  0  0  0
 19 24  1  0  0  0
 20 21  2  0  0  0
 20110  1  0  0  0
 21 23  1  0  0  0
 22 28  1  0  0  0
 22 32  2  0  0  0
 26 27  1  0  0  0
 28111  1  0  0  0
 28112  1  0  0  0
 29113  1  0  0  0
 29114  1  0  0  0
 33 34  1  0  0  0
 33 66  1  0  0  0
 33 70  2  0  0  0
 34 36  1  0  0  0
 34 59  1  0  0  0
 34115  1  0  0  0
 35 44  2  0  0  0
 35 45  1  0  0  0
 35 68  1  0  0  0
 36 56  1  0  0  0
 36116  1  0  0  0
 37 39  1  0  0  0
 37 47  1  0  0  0
 37 66  1  0  0  0
 37117  1  0  0  0
 38 43  2  0  0  0
 38 46  1  0  0  0
 38 47  1  0  0  0
 39 64  1  0  0  0
 39 67  2  0  0  0
 40 52  1  0  0  0
 40 53  2  0  0  0
 40 58  1  0  0  0
 41118  1  0  0  0
 41119  1  0  0  0
 41120  1  0  0  0
 41 48  1  0  0  0
 42 43  1  0  0  0
 42 66  1  0  0  0
 42121  1  0  0  0
 42122  1  0  0  0
 43 44  1  0  0  0
 44123  1  0  0  0
 45 46  2  0  0  0
 45124  1  0  0  0
 46125  1  0  0  0
 47126  1  0  0  0
 47127  1  0  0  0
 48 56  1  0  0  0
 48 65  1  0  0  0
 48128  1  0  0  0
 49 50  1  0  0  0
 49 53  1  0  0  0
 49 64  1  0  0  0
 49129  1  0  0  0
 50 51  1  0  0  0
 50130  1  0  0  0
 50131  1  0  0  0
 51 52  1  0  0  0
 51132  1  0  0  0
 51133  1  0  0  0
 52134  1  0  0  0
 52135  1  0  0  0
 53 54  1  0  0  0
 54 55  2  0  0  0
 54136  1  0  0  0
 55 57  1  0  0  0
 55137  1  0  0  0
 56 69  2  0  0  0
 57 58  2  0  0  0
 57138  1  0  0  0
 58139  1  0  0  0
 59 60  1  0  0  0
 59 61  1  0  0  0
 59 62  1  0  0  0
 60140  1  0  0  0
 60141  1  0  0  0
 60142  1  0  0  0
 61143  1  0  0  0
 61144  1  0  0  0
 61145  1  0  0  0
 62146  1  0  0  0
 62147  1  0  0  0
 62148  1  0  0  0
 63 65  1  0  0  0
 63149  1  0  0  0
 63150  1  0  0  0
 63151  1  0  0  0
 64152  1  0  0  0
 65153  1  0  0  0
 68 89  1  0  0  0
 71 72  2  0  0  0
 71 74  1  0  0  0
 71154  1  0  0  0
 72 75  1  0  0  0
 72155  1  0  0  0
 73 74  2  0  0  0
 73 76  1  0  0  0
 73156  1  0  0  0
 74 84  1  0  0  0
 75 76  2  0  0  0
 75 83  1  0  0  0
 76 85  1  0  0  0
 77 91  1  0  0  0
 77 93  2  0  0  0
 77 82  1  0  0  0
 78 86  1  0  0  0
 78 90  1  0  0  0
 78 94  2  0  0  0
 79 80  1  0  0  0
 79 81  1  0  0  0
 79157  1  0  0  0
 79158  1  0  0  0
 80 82  1  0  0  0
 80159  1  0  0  0
 80160  1  0  0  0
 81 90  1  0  0  0
 81161  1  0  0  0
 81162  1  0  0  0
 82 90  1  0  0  0
 82163  1  0  0  0
 83164  1  0  0  0
 83165  1  0  0  0
 83166  1  0  0  0
 84 92  1  0  0  0
 84167  1  0  0  0
 84168  1  0  0  0
 85 91  1  0  0  0
 85169  1  0  0  0
 85170  1  0  0  0
 86 87  1  0  0  0
 86171  1  0  0  0
 86172  1  0  0  0
 87 88  1  0  0  0
 87173  1  0  0  0
 87174  1  0  0  0
 88 89  1  0  0  0
 88175  1  0  0  0
 88176  1  0  0  0
 89177  1  0  0  0
 89178  1  0  0  0
 91179  1  0  0  0
 92180  1  0  0  0
M  ISO  4   1 100  68 101  89 101  92 100
M  END
> <chiral flag>
0

> <version>
0

> <s_m_source_file>
/data/baiqing/PycharmProjects/Reinvent-master-3.2/result/LINK_invent/BTK/process_docking_weight1_custom_product_contain_oxygen_bond_distance_aromatic_linkinvent_7_9_3/rearranged_h_0005.sdf

> <i_m_source_file_index>
41

> <r_mmod_Potential_Energy-OPLS-2005>
-145.097351074219

> <r_mmod_Stretch_Energy-OPLS-2005>
36.5634269714355

> <r_mmod_Bend_Energy-OPLS-2005>
117.304618835449

> <r_mmod_Torsional_Energy-OPLS-2005>
277.237091064453

> <r_mmod_Improper_Torsional_Energy-OPLS-2005>
14.3424987792969

> <r_mmod_Van_der_Waal_Energy-OPLS-2005>
150.970687866211

> <r_mmod_Electrostatic_Energy-OPLS-2005>
-482.144866943359

> <r_mmod_Solvation_Energy-OPLS-2005>
-274.638000488281

> <b_mmod_Minimization_Converged-OPLS-2005>
0

> <r_mmod_RMS_Derivative-OPLS-2005>
2.93880391120911

$$$$
41
                    3D
 Structure written by MMmdl.
176185  0  0  1  0            999 V2000
  -30.7470  -14.3648   20.6837 C   0  0  0  0  0  0
  -30.4229  -12.2890   19.3831 C   0  0  0  0  0  0
  -29.4841  -12.5323   18.1860 C   0  0  0  0  0  0
  -28.0071  -12.3884   18.6022 C   0  0  0  0  0  0
  -27.6685  -13.1987   19.8810 C   0  0  2  0  0  0
  -28.7058  -12.9119   20.9880 C   0  0  0  0  0  0
  -25.2621  -13.8149   20.5663 C   0  0  0  0  0  0
  -24.1858  -13.0436   20.9157 C   0  0  0  0  0  0
  -24.6393  -11.6899   20.8715 C   0  0  0  0  0  0
  -23.9055  -10.4290   21.0398 C   0  0  0  0  0  0
  -24.3612   -9.4205   21.9176 C   0  0  0  0  0  0
  -23.6291   -8.2241   22.0751 C   0  0  0  0  0  0
  -22.4274   -8.0277   21.3542 C   0  0  0  0  0  0
  -21.9906   -9.0248   20.4641 C   0  0  0  0  0  0
  -22.7232  -10.2127   20.3045 C   0  0  0  0  0  0
  -21.6850   -6.0733   22.5281 C   0  0  0  0  0  0
  -21.4012   -6.5635   23.8214 C   0  0  0  0  0  0
  -21.3656   -5.6786   24.9176 C   0  0  0  0  0  0
  -21.6045   -4.3048   24.7222 C   0  0  0  0  0  0
  -21.8820   -3.8143   23.4339 C   0  0  0  0  0  0
  -21.9192   -4.6963   22.3400 C   0  0  0  0  0  0
  -22.7883  -13.5242   21.1830 C   0  0  0  0  0  0
  -22.1661   -4.2151   21.0976 F   0  0  0  0  0  0
  -21.5626   -3.4529   25.7728 F   0  0  0  0  0  0
  -30.0495  -13.2210   20.4561 N   0  0  0  0  0  0
  -26.3055  -12.9305   20.3374 N   0  0  0  0  0  0
  -25.9314  -11.6470   20.5743 N   0  0  0  0  0  0
  -22.0514  -12.8232   22.0376 N   0  0  0  0  0  0
  -25.4374  -15.1862   20.4087 N   0  0  0  0  0  0
  -31.7778  -14.6578   20.0682 O   0  0  0  0  0  0
  -21.6634   -6.8877   21.4245 O   0  0  0  0  0  0
  -22.3570  -14.5549   20.6684 O   0  0  0  0  0  0
  -24.6094  -31.8717   23.2113 C   0  0  0  0  0  0
  -25.8995  -32.4847   23.8407 C   0  0  1  0  0  0
  -27.2378  -27.4731   20.0961 C   0  0  0  0  0  0
  -25.5868  -33.8647   24.2344 N   0  0  0  0  0  0
  -23.3962  -30.4925   21.5513 C   0  0  2  0  0  0
  -24.8430  -28.9566   20.1199 C   0  0  0  0  0  0
  -22.7380  -29.4673   22.5012 C   0  0  0  0  0  0
  -18.0261  -28.1382   22.8505 C   0  0  0  0  0  0
  -24.1483  -36.7312   23.2639 C   0  0  0  0  0  0
  -25.9196  -30.8485   21.3575 C   0  0  0  0  0  0
  -26.0000  -29.4844   20.7082 C   0  0  0  0  0  0
  -27.2024  -28.7503   20.6900 C   0  0  0  0  0  0
  -26.0675  -26.9413   19.5153 C   0  0  0  0  0  0
  -24.8698  -27.6826   19.5213 C   0  0  0  0  0  0
  -23.6030  -29.8190   20.1673 C   0  0  0  0  0  0
  -25.4106  -36.3130   24.0344 C   0  0  1  0  0  0
  -20.5853  -28.3655   23.1342 C   0  0  2  0  0  0
  -20.6761  -26.9401   22.5428 C   0  0  0  0  0  0
  -19.5746  -26.6401   21.5216 C   0  0  0  0  0  0
  -18.1918  -26.7935   22.1622 C   0  0  0  0  0  0
  -19.1513  -28.8832   23.2921 C   0  0  0  0  0  0
  -18.9447  -30.1444   23.8922 C   0  0  0  0  0  0
  -17.6456  -30.6591   24.0572 C   0  0  0  0  0  0
  -25.9038  -34.9495   23.5151 C   0  0  0  0  0  0
  -16.5344  -29.9098   23.6334 C   0  0  0  0  0  0
  -16.7252  -28.6515   23.0350 C   0  0  0  0  0  0
  -26.4446  -31.6609   25.0714 C   0  0  0  0  0  0
  -25.3724  -31.3688   26.1468 C   0  0  0  0  0  0
  -27.0276  -30.3072   24.6024 C   0  0  0  0  0  0
  -27.6035  -32.4313   25.7464 C   0  0  0  0  0  0
  -27.5588  -37.1814   24.8465 C   0  0  0  0  0  0
  -21.4114  -29.3031   22.3753 N   0  0  0  0  0  0
  -26.4298  -37.3809   23.9413 N   0  0  0  0  0  0
  -24.6598  -31.0840   22.0996 N   0  0  0  0  0  0
  -23.4168  -28.8217   23.3041 O   0  0  0  0  0  0
  -28.4208  -26.7839   20.0638 O   0  0  0  0  0  0
  -26.5606  -34.8942   22.4714 O   0  0  0  0  0  0
  -23.5295  -32.1442   23.7542 O   0  0  0  0  0  0
  -32.1011  -18.2929   22.4528 C   0  0  0  0  0  0
  -31.8440  -17.0076   21.9423 C   0  0  0  0  0  0
  -29.5422  -17.1959   22.6969 C   0  0  0  0  0  0
  -29.7790  -18.4977   23.1949 C   0  0  0  0  0  0
  -31.0873  -19.0451   23.0882 C   0  0  0  0  0  0
  -30.5546  -16.4473   22.0668 C   0  0  0  0  0  0
  -26.7245  -18.0891   24.9419 C   0  0  0  0  0  0
  -26.1707  -19.0667   23.9084 C   0  0  0  0  0  0
  -28.1637  -18.5545   25.1742 C   0  0  0  0  0  0
  -27.3564  -19.3473   22.9832 C   0  0  0  0  0  0
  -28.6170  -19.2361   23.8687 C   0  0  0  0  0  0
  -31.9033  -21.5907   21.5801 C   0  0  0  0  0  0
  -31.4722  -20.3906   23.6996 C   0  0  0  0  0  0
  -31.2381  -22.8187   23.6629 C   0  0  0  0  0  0
  -31.0946  -24.1318   22.8786 C   0  0  0  0  0  0
  -28.4106  -25.5125   20.7024 C   0  0  0  0  0  0
  -29.7558  -25.3839   21.4274 C   0  0  0  0  0  0
  -30.2140  -15.1369   21.6426 N   0  0  0  0  0  0
  -31.1387  -21.5682   22.8548 N   0  3  1  0  0  0
  -29.8606  -24.1716   22.1673 O   0  0  0  0  0  0
  -31.4637  -12.4015   19.0740 H   0  0  0  0  0  0
  -30.3307  -11.2606   19.7347 H   0  0  0  0  0  0
  -29.7144  -11.8365   17.3778 H   0  0  0  0  0  0
  -29.6551  -13.5332   17.7854 H   0  0  0  0  0  0
  -27.8082  -11.3294   18.7703 H   0  0  0  0  0  0
  -27.3539  -12.6923   17.7832 H   0  0  0  0  0  0
  -27.7344  -14.2565   19.6242 H   0  0  0  0  0  0
  -28.6684  -11.8582   21.2676 H   0  0  0  0  0  0
  -28.4476  -13.4497   21.8997 H   0  0  0  0  0  0
  -25.2765   -9.5675   22.4740 H   0  0  0  0  0  0
  -24.0000   -7.4631   22.7465 H   0  0  0  0  0  0
  -21.0836   -8.8758   19.8945 H   0  0  0  0  0  0
  -22.3694  -10.9658   19.6136 H   0  0  0  0  0  0
  -21.2003   -7.6143   23.9720 H   0  0  0  0  0  0
  -21.1474   -6.0511   25.9079 H   0  0  0  0  0  0
  -22.0599   -2.7607   23.2833 H   0  0  0  0  0  0
  -22.4121  -11.9883   22.4753 H   0  0  0  0  0  0
  -21.1128  -13.1257   22.2573 H   0  0  0  0  0  0
  -24.6757  -15.8463   20.5178 H   0  0  0  0  0  0
  -26.2999  -15.6216   20.1068 H   0  0  0  0  0  0
  -26.7061  -32.5574   23.1180 H   0  0  0  0  0  0
  -25.0027  -33.9817   25.0489 H   0  0  0  0  0  0
  -22.6835  -31.3077   21.4128 H   0  0  0  0  0  0
  -23.3770  -35.9623   23.3314 H   0  0  0  0  0  0
  -24.3583  -36.8908   22.2052 H   0  0  0  0  0  0
  -23.7209  -37.6510   23.6642 H   0  0  0  0  0  0
  -26.0246  -31.6145   20.5884 H   0  0  0  0  0  0
  -26.8111  -30.9066   21.9699 H   0  0  0  0  0  0
  -28.0999  -29.1567   21.1364 H   0  0  0  0  0  0
  -26.0858  -25.9658   19.0496 H   0  0  0  0  0  0
  -23.9795  -27.2716   19.0647 H   0  0  0  0  0  0
  -23.7040  -30.5916   19.4042 H   0  0  0  0  0  0
  -22.7290  -29.2333   19.8760 H   0  0  0  0  0  0
  -25.1284  -36.2009   25.0839 H   0  0  0  0  0  0
  -20.9947  -28.3211   24.1461 H   0  0  0  0  0  0
  -20.5686  -26.2251   23.3602 H   0  0  0  0  0  0
  -21.6632  -26.7474   22.1203 H   0  0  0  0  0  0
  -19.6913  -25.6319   21.1227 H   0  0  0  0  0  0
  -19.6691  -27.3233   20.6762 H   0  0  0  0  0  0
  -17.4201  -26.6698   21.4011 H   0  0  0  0  0  0
  -18.0312  -26.0062   22.9003 H   0  0  0  0  0  0
  -19.7924  -30.7258   24.2294 H   0  0  0  0  0  0
  -17.5015  -31.6272   24.5175 H   0  0  0  0  0  0
  -15.5347  -30.3014   23.7653 H   0  0  0  0  0  0
  -15.8650  -28.0855   22.7035 H   0  0  0  0  0  0
  -24.5882  -30.7056   25.7802 H   0  0  0  0  0  0
  -24.8924  -32.2835   26.4956 H   0  0  0  0  0  0
  -25.8083  -30.8826   27.0203 H   0  0  0  0  0  0
  -26.2802  -29.6846   24.1096 H   0  0  0  0  0  0
  -27.4119  -29.7279   25.4427 H   0  0  0  0  0  0
  -27.8597  -30.4447   23.9114 H   0  0  0  0  0  0
  -27.2674  -33.3614   26.2062 H   0  0  0  0  0  0
  -28.3826  -32.6874   25.0271 H   0  0  0  0  0  0
  -28.0724  -31.8422   26.5355 H   0  0  0  0  0  0
  -28.2613  -38.0111   24.7544 H   0  0  0  0  0  0
  -28.1083  -36.2649   24.6263 H   0  0  0  0  0  0
  -27.2314  -37.1416   25.8870 H   0  0  0  0  0  0
  -20.9259  -29.8739   21.6977 H   0  0  0  0  0  0
  -26.0200  -38.2897   24.1409 H   0  0  0  0  0  0
  -33.1031  -18.6917   22.3717 H   0  0  0  0  0  0
  -32.6570  -16.4612   21.4874 H   0  0  0  0  0  0
  -28.5579  -16.7635   22.8105 H   0  0  0  0  0  0
  -26.7276  -17.0796   24.5286 H   0  0  0  0  0  0
  -26.1350  -18.0673   25.8592 H   0  0  0  0  0  0
  -25.8568  -19.9881   24.4012 H   0  0  0  0  0  0
  -25.3085  -18.6647   23.3747 H   0  0  0  0  0  0
  -28.8157  -17.7349   25.4826 H   0  0  0  0  0  0
  -28.1779  -19.2854   25.9840 H   0  0  0  0  0  0
  -27.2800  -20.3179   22.4915 H   0  0  0  0  0  0
  -27.3558  -18.6009   22.1886 H   0  0  0  0  0  0
  -28.9022  -20.2551   24.1214 H   0  0  0  0  0  0
  -31.7693  -20.6663   21.0187 H   0  0  0  0  0  0
  -32.9709  -21.7226   21.7584 H   0  0  0  0  0  0
  -31.5647  -22.3876   20.9187 H   0  0  0  0  0  0
  -32.5445  -20.3979   23.9055 H   0  0  0  0  0  0
  -31.0049  -20.4744   24.6812 H   0  0  0  0  0  0
  -30.4785  -22.7906   24.4454 H   0  0  0  0  0  0
  -32.2015  -22.8376   24.1755 H   0  0  0  0  0  0
  -31.9398  -24.2673   22.2023 H   0  0  0  0  0  0
  -31.1343  -24.9621   23.5861 H   0  0  0  0  0  0
  -27.5937  -25.4230   21.4216 H   0  0  0  0  0  0
  -28.2888  -24.7235   19.9603 H   0  0  0  0  0  0
  -29.8694  -26.2361   22.1002 H   0  0  0  0  0  0
  -30.5658  -25.4436   20.6985 H   0  0  0  0  0  0
  -29.3642  -14.7600   22.0328 H   0  0  0  0  0  0
  -30.1688  -21.4783   22.5900 H   0  0  0  0  0  0
  1 25  1  0  0  0
  1 30  2  0  0  0
  1 88  1  0  0  0
  2  3  1  0  0  0
  2 25  1  0  0  0
  2 91  1  0  0  0
  2 92  1  0  0  0
  3  4  1  0  0  0
  3 93  1  0  0  0
  3 94  1  0  0  0
  4  5  1  0  0  0
  4 95  1  0  0  0
  4 96  1  0  0  0
  5  6  1  0  0  0
  5 26  1  0  0  0
  5 97  1  0  0  0
  6 25  1  0  0  0
  6 98  1  0  0  0
  6 99  1  0  0  0
  7  8  2  0  0  0
  7 26  1  0  0  0
  7 29  1  0  0  0
  8  9  1  0  0  0
  8 22  1  0  0  0
  9 10  1  0  0  0
  9 27  2  0  0  0
 10 11  2  0  0  0
 10 15  1  0  0  0
 11 12  1  0  0  0
 11100  1  0  0  0
 12 13  2  0  0  0
 12101  1  0  0  0
 13 14  1  0  0  0
 13 31  1  0  0  0
 14 15  2  0  0  0
 14102  1  0  0  0
 15103  1  0  0  0
 16 17  2  0  0  0
 16 21  1  0  0  0
 16 31  1  0  0  0
 17 18  1  0  0  0
 17104  1  0  0  0
 18 19  2  0  0  0
 18105  1  0  0  0
 19 20  1  0  0  0
 19 24  1  0  0  0
 20 21  2  0  0  0
 20106  1  0  0  0
 21 23  1  0  0  0
 22 28  1  0  0  0
 22 32  2  0  0  0
 26 27  1  0  0  0
 28107  1  0  0  0
 28108  1  0  0  0
 29109  1  0  0  0
 29110  1  0  0  0
 33 34  1  0  0  0
 33 66  1  0  0  0
 33 70  2  0  0  0
 34 36  1  0  0  0
 34 59  1  0  0  0
 34111  1  0  0  0
 35 44  2  0  0  0
 35 45  1  0  0  0
 35 68  1  0  0  0
 36 56  1  0  0  0
 36112  1  0  0  0
 37 39  1  0  0  0
 37 47  1  0  0  0
 37 66  1  0  0  0
 37113  1  0  0  0
 38 43  2  0  0  0
 38 46  1  0  0  0
 38 47  1  0  0  0
 39 64  1  0  0  0
 39 67  2  0  0  0
 40 52  1  0  0  0
 40 53  2  0  0  0
 40 58  1  0  0  0
 41114  1  0  0  0
 41115  1  0  0  0
 41116  1  0  0  0
 41 48  1  0  0  0
 42 43  1  0  0  0
 42 66  1  0  0  0
 42117  1  0  0  0
 42118  1  0  0  0
 43 44  1  0  0  0
 44119  1  0  0  0
 45 46  2  0  0  0
 45120  1  0  0  0
 46121  1  0  0  0
 47122  1  0  0  0
 47123  1  0  0  0
 48 56  1  0  0  0
 48 65  1  0  0  0
 48124  1  0  0  0
 49 50  1  0  0  0
 49 53  1  0  0  0
 49 64  1  0  0  0
 49125  1  0  0  0
 50 51  1  0  0  0
 50126  1  0  0  0
 50127  1  0  0  0
 51 52  1  0  0  0
 51128  1  0  0  0
 51129  1  0  0  0
 52130  1  0  0  0
 52131  1  0  0  0
 53 54  1  0  0  0
 54 55  2  0  0  0
 54132  1  0  0  0
 55 57  1  0  0  0
 55133  1  0  0  0
 56 69  2  0  0  0
 57 58  2  0  0  0
 57134  1  0  0  0
 58135  1  0  0  0
 59 60  1  0  0  0
 59 61  1  0  0  0
 59 62  1  0  0  0
 60136  1  0  0  0
 60137  1  0  0  0
 60138  1  0  0  0
 61139  1  0  0  0
 61140  1  0  0  0
 61141  1  0  0  0
 62142  1  0  0  0
 62143  1  0  0  0
 62144  1  0  0  0
 63 65  1  0  0  0
 63145  1  0  0  0
 63146  1  0  0  0
 63147  1  0  0  0
 64148  1  0  0  0
 65149  1  0  0  0
 68 86  1  0  0  0
 71 72  2  0  0  0
 71 75  1  0  0  0
 71150  1  0  0  0
 72 76  1  0  0  0
 72151  1  0  0  0
 73 74  1  0  0  0
 73 76  2  0  0  0
 73152  1  0  0  0
 74 75  2  0  0  0
 74 81  1  0  0  0
 75 83  1  0  0  0
 76 88  1  0  0  0
 77 78  1  0  0  0
 77 79  1  0  0  0
 77153  1  0  0  0
 77154  1  0  0  0
 78 80  1  0  0  0
 78155  1  0  0  0
 78156  1  0  0  0
 79 81  1  0  0  0
 79157  1  0  0  0
 79158  1  0  0  0
 80 81  1  0  0  0
 80159  1  0  0  0
 80160  1  0  0  0
 81161  1  0  0  0
 82162  1  0  0  0
 82163  1  0  0  0
 82164  1  0  0  0
 82 89  1  0  0  0
 83 89  1  0  0  0
 83165  1  0  0  0
 83166  1  0  0  0
 84 85  1  0  0  0
 84 89  1  0  0  0
 84167  1  0  0  0
 84168  1  0  0  0
 85 90  1  0  0  0
 85169  1  0  0  0
 85170  1  0  0  0
 86 87  1  0  0  0
 86171  1  0  0  0
 86172  1  0  0  0
 87 90  1  0  0  0
 87173  1  0  0  0
 87174  1  0  0  0
 88175  1  0  0  0
 89176  1  0  0  0
M  CHG  1  89   1
M  ISO  4   1 100  68 101  86 101  88 100
M  END
> <chiral flag>
0

> <version>
0

> <s_m_source_file>
/data/baiqing/PycharmProjects/Reinvent-master-3.2/result/LINK_invent/BTK/process_docking_weight1_custom_product_contain_oxygen_bond_distance_aromatic_linkinvent_7_9_3/rearranged_h_0005.sdf

> <i_m_source_file_index>
42

> <r_mmod_Potential_Energy-OPLS-2005>
-78.1022262573242

> <r_mmod_Stretch_Energy-OPLS-2005>
34.9515686035156

> <r_mmod_Bend_Energy-OPLS-2005>
125.683082580566

> <r_mmod_Torsional_Energy-OPLS-2005>
285.880401611328

> <r_mmod_Improper_Torsional_Energy-OPLS-2005>
2.16188430786133

> <r_mmod_Van_der_Waal_Energy-OPLS-2005>
158.623794555664

> <r_mmod_Electrostatic_Energy-OPLS-2005>
-280.699157714844

> <r_mmod_Solvation_Energy-OPLS-2005>
-411.453399658203

> <b_mmod_Minimization_Converged-OPLS-2005>
0

> <r_mmod_RMS_Derivative-OPLS-2005>
1.53307735919952

$$$$
42
                    3D
 Structure written by MMmdl.
161170  0  0  1  0            999 V2000
  -30.7007  -14.4679   20.4876 C   0  0  0  0  0  0
  -30.4101  -12.2750   19.4415 C   0  0  0  0  0  0
  -29.4950  -12.4837   18.2157 C   0  0  0  0  0  0
  -28.0150  -12.3567   18.6238 C   0  0  0  0  0  0
  -27.6575  -13.2083   19.8728 C   0  0  2  0  0  0
  -28.7006  -13.0217   21.0017 C   0  0  0  0  0  0
  -25.2567  -13.8168   20.5702 C   0  0  0  0  0  0
  -24.1822  -13.0443   20.9192 C   0  0  0  0  0  0
  -24.6383  -11.6910   20.8743 C   0  0  0  0  0  0
  -23.9054  -10.4295   21.0410 C   0  0  0  0  0  0
  -24.3610   -9.4210   21.9183 C   0  0  0  0  0  0
  -23.6293   -8.2241   22.0751 C   0  0  0  0  0  0
  -22.4275   -8.0277   21.3545 C   0  0  0  0  0  0
  -21.9912   -9.0249   20.4647 C   0  0  0  0  0  0
  -22.7231  -10.2134   20.3056 C   0  0  0  0  0  0
  -21.6849   -6.0741   22.5285 C   0  0  0  0  0  0
  -21.4015   -6.5642   23.8217 C   0  0  0  0  0  0
  -21.3658   -5.6797   24.9179 C   0  0  0  0  0  0
  -21.6038   -4.3058   24.7227 C   0  0  0  0  0  0
  -21.8817   -3.8150   23.4347 C   0  0  0  0  0  0
  -21.9193   -4.6971   22.3405 C   0  0  0  0  0  0
  -22.7841  -13.5229   21.1861 C   0  0  0  0  0  0
  -22.1666   -4.2158   21.0984 F   0  0  0  0  0  0
  -21.5623   -3.4541   25.7738 F   0  0  0  0  0  0
  -30.0333  -13.2860   20.4405 N   0  0  0  0  0  0
  -26.3003  -12.9340   20.3378 N   0  0  0  0  0  0
  -25.9312  -11.6499   20.5785 N   0  0  0  0  0  0
  -22.0494  -12.8212   22.0417 N   0  0  0  0  0  0
  -25.4277  -15.1891   20.4118 N   0  0  0  0  0  0
  -31.8769  -14.5869   20.1373 O   0  0  0  0  0  0
  -21.6634   -6.8880   21.4245 O   0  0  0  0  0  0
  -22.3520  -14.5540   20.6725 O   0  0  0  0  0  0
  -24.6149  -31.8676   23.2092 C   0  0  0  0  0  0
  -25.9046  -32.4812   23.8387 C   0  0  1  0  0  0
  -27.2335  -27.4344   20.0899 C   0  0  0  0  0  0
  -25.5905  -33.8609   24.2326 N   0  0  0  0  0  0
  -23.4020  -30.4913   21.5506 C   0  0  2  0  0  0
  -24.8451  -28.9564   20.1153 C   0  0  0  0  0  0
  -22.7412  -29.4658   22.4998 C   0  0  0  0  0  0
  -18.0273  -28.1362   22.8497 C   0  0  0  0  0  0
  -24.1491  -36.7321   23.2639 C   0  0  0  0  0  0
  -25.9310  -30.8325   21.3615 C   0  0  0  0  0  0
  -26.0058  -29.4672   20.7084 C   0  0  0  0  0  0
  -27.2013  -28.7144   20.6898 C   0  0  0  0  0  0
  -26.0498  -26.9352   19.4969 C   0  0  0  0  0  0
  -24.8623  -27.6902   19.5071 C   0  0  0  0  0  0
  -23.6080  -29.8232   20.1651 C   0  0  0  0  0  0
  -25.4107  -36.3105   24.0342 C   0  0  1  0  0  0
  -20.5865  -28.3654   23.1318 C   0  0  2  0  0  0
  -20.6763  -26.9392   22.5416 C   0  0  0  0  0  0
  -19.5740  -26.6379   21.5213 C   0  0  0  0  0  0
  -18.1918  -26.7910   22.1624 C   0  0  0  0  0  0
  -19.1523  -28.8823   23.2905 C   0  0  0  0  0  0
  -18.9448  -30.1429   23.8914 C   0  0  0  0  0  0
  -17.6452  -30.6571   24.0560 C   0  0  0  0  0  0
  -25.9033  -34.9471   23.5132 C   0  0  0  0  0  0
  -16.5343  -29.9075   23.6315 C   0  0  0  0  0  0
  -16.7264  -28.6488   23.0347 C   0  0  0  0  0  0
  -26.4472  -31.6583   25.0713 C   0  0  0  0  0  0
  -25.3749  -31.3677   26.1471 C   0  0  0  0  0  0
  -27.0295  -30.3027   24.6076 C   0  0  0  0  0  0
  -27.6051  -32.4299   25.7470 C   0  0  0  0  0  0
  -27.5583  -37.1813   24.8464 C   0  0  0  0  0  0
  -21.4141  -29.3028   22.3733 N   0  0  0  0  0  0
  -26.4294  -37.3791   23.9408 N   0  0  0  0  0  0
  -24.6676  -31.0783   22.0985 N   0  0  0  0  0  0
  -23.4188  -28.8205   23.3039 O   0  0  0  0  0  0
  -28.4198  -26.7271   20.1001 O   0  0  0  0  0  0
  -26.5595  -34.8928   22.4693 O   0  0  0  0  0  0
  -23.5344  -32.1427   23.7492 O   0  0  0  0  0  0
  -30.8045  -20.3259   20.5931 C   0  0  0  0  0  0
  -28.3968  -19.9993   20.6003 C   0  0  0  0  0  0
  -30.9910  -18.9508   20.3400 C   0  0  0  0  0  0
  -28.5816  -18.6199   20.3544 C   0  0  0  0  0  0
  -29.5040  -20.8767   20.6697 C   0  0  0  0  0  0
  -29.8799  -18.0955   20.1791 C   0  0  0  0  0  0
  -29.2895  -22.3604   20.8719 C   0  0  0  0  0  0
  -30.7212  -24.1489   17.9436 C   0  0  0  0  0  0
  -30.7773  -25.2007   19.0413 C   0  0  0  0  0  0
  -30.4669  -22.8485   18.7052 C   0  0  0  0  0  0
  -29.7784  -24.6981   20.0947 C   0  0  1  0  0  0
  -30.0864  -16.6797   19.6503 C   0  0  0  0  0  0
  -28.3731  -25.3118   19.8731 C   0  0  0  0  0  0
  -29.7944  -23.2269   19.9535 N   0  0  0  0  0  0
  -29.9123  -15.5543   20.5812 N   0  0  0  0  0  0
  -28.6539  -22.7384   21.8592 O   0  0  0  0  0  0
  -31.4602  -12.3391   19.1505 H   0  0  0  0  0  0
  -30.2756  -11.2725   19.8514 H   0  0  0  0  0  0
  -29.7307  -11.7548   17.4399 H   0  0  0  0  0  0
  -29.6746  -13.4674   17.7770 H   0  0  0  0  0  0
  -27.8203  -11.3024   18.8253 H   0  0  0  0  0  0
  -27.3698  -12.6303   17.7889 H   0  0  0  0  0  0
  -27.6899  -14.2493   19.5532 H   0  0  0  0  0  0
  -28.6645  -12.0035   21.3919 H   0  0  0  0  0  0
  -28.4854  -13.6748   21.8492 H   0  0  0  0  0  0
  -25.2765   -9.5682   22.4747 H   0  0  0  0  0  0
  -24.0006   -7.4629   22.7467 H   0  0  0  0  0  0
  -21.0846   -8.8763   19.8948 H   0  0  0  0  0  0
  -22.3694  -10.9669   19.6154 H   0  0  0  0  0  0
  -21.2008   -7.6154   23.9726 H   0  0  0  0  0  0
  -21.1481   -6.0529   25.9084 H   0  0  0  0  0  0
  -22.0596   -2.7615   23.2844 H   0  0  0  0  0  0
  -22.4121  -11.9870   22.4789 H   0  0  0  0  0  0
  -21.1110  -13.1215   22.2647 H   0  0  0  0  0  0
  -24.6594  -15.8418   20.5240 H   0  0  0  0  0  0
  -26.2765  -15.6310   20.0840 H   0  0  0  0  0  0
  -26.7121  -32.5516   23.1152 H   0  0  0  0  0  0
  -25.0059  -33.9764   25.0475 H   0  0  0  0  0  0
  -22.6913  -31.3085   21.4117 H   0  0  0  0  0  0
  -23.3744  -35.9663   23.3300 H   0  0  0  0  0  0
  -24.3591  -36.8934   22.2054 H   0  0  0  0  0  0
  -23.7260  -37.6535   23.6650 H   0  0  0  0  0  0
  -26.0466  -31.5978   20.5929 H   0  0  0  0  0  0
  -26.8187  -30.8823   21.9804 H   0  0  0  0  0  0
  -28.1003  -29.1065   21.1450 H   0  0  0  0  0  0
  -26.0215  -25.9691   19.0155 H   0  0  0  0  0  0
  -23.9706  -27.2912   19.0435 H   0  0  0  0  0  0
  -23.7160  -30.5972   19.4044 H   0  0  0  0  0  0
  -22.7313  -29.2432   19.8702 H   0  0  0  0  0  0
  -25.1283  -36.1970   25.0837 H   0  0  0  0  0  0
  -20.9958  -28.3214   24.1438 H   0  0  0  0  0  0
  -20.5659  -26.2265   23.3603 H   0  0  0  0  0  0
  -21.6634  -26.7427   22.1211 H   0  0  0  0  0  0
  -19.6901  -25.6298   21.1221 H   0  0  0  0  0  0
  -19.6669  -27.3209   20.6756 H   0  0  0  0  0  0
  -17.4191  -26.6669   21.4021 H   0  0  0  0  0  0
  -18.0309  -26.0036   22.9003 H   0  0  0  0  0  0
  -19.7923  -30.7236   24.2298 H   0  0  0  0  0  0
  -17.5004  -31.6251   24.5159 H   0  0  0  0  0  0
  -15.5343  -30.2982   23.7619 H   0  0  0  0  0  0
  -15.8667  -28.0808   22.7059 H   0  0  0  0  0  0
  -24.5925  -30.7016   25.7817 H   0  0  0  0  0  0
  -24.8936  -32.2822   26.4943 H   0  0  0  0  0  0
  -25.8119  -30.8837   27.0215 H   0  0  0  0  0  0
  -26.2823  -29.6787   24.1156 H   0  0  0  0  0  0
  -27.4099  -29.7257   25.4515 H   0  0  0  0  0  0
  -27.8645  -30.4346   23.9192 H   0  0  0  0  0  0
  -27.2676  -33.3594   26.2067 H   0  0  0  0  0  0
  -28.3845  -32.6864   25.0284 H   0  0  0  0  0  0
  -28.0735  -31.8411   26.5367 H   0  0  0  0  0  0
  -28.2600  -38.0109   24.7507 H   0  0  0  0  0  0
  -28.1078  -36.2641   24.6287 H   0  0  0  0  0  0
  -27.2303  -37.1466   25.8868 H   0  0  0  0  0  0
  -20.9305  -29.8756   21.6959 H   0  0  0  0  0  0
  -26.0183  -38.2872   24.1394 H   0  0  0  0  0  0
  -31.6705  -20.9642   20.6955 H   0  0  0  0  0  0
  -27.3941  -20.3946   20.6910 H   0  0  0  0  0  0
  -31.9955  -18.5681   20.2165 H   0  0  0  0  0  0
  -27.7171  -17.9805   20.2375 H   0  0  0  0  0  0
  -31.6283  -24.1154   17.3384 H   0  0  0  0  0  0
  -29.8850  -24.3570   17.2734 H   0  0  0  0  0  0
  -30.5575  -26.2042   18.6745 H   0  0  0  0  0  0
  -31.7804  -25.2253   19.4702 H   0  0  0  0  0  0
  -31.4228  -22.3739   18.9260 H   0  0  0  0  0  0
  -29.8714  -22.1499   18.1154 H   0  0  0  0  0  0
  -30.1300  -24.9716   21.0912 H   0  0  0  0  0  0
  -31.0559  -16.6536   19.1488 H   0  0  0  0  0  0
  -29.3659  -16.5298   18.8452 H   0  0  0  0  0  0
  -27.6506  -24.8603   20.5548 H   0  0  0  0  0  0
  -28.0421  -25.1000   18.8559 H   0  0  0  0  0  0
  -28.9758  -15.3952   20.9164 H   0  0  0  0  0  0
  1 25  1  0  0  0
  1 30  2  0  0  0
  1 85  1  0  0  0
  2  3  1  0  0  0
  2 25  1  0  0  0
  2 87  1  0  0  0
  2 88  1  0  0  0
  3  4  1  0  0  0
  3 89  1  0  0  0
  3 90  1  0  0  0
  4  5  1  0  0  0
  4 91  1  0  0  0
  4 92  1  0  0  0
  5  6  1  0  0  0
  5 26  1  0  0  0
  5 93  1  0  0  0
  6 25  1  0  0  0
  6 94  1  0  0  0
  6 95  1  0  0  0
  7  8  2  0  0  0
  7 26  1  0  0  0
  7 29  1  0  0  0
  8  9  1  0  0  0
  8 22  1  0  0  0
  9 10  1  0  0  0
  9 27  2  0  0  0
 10 11  2  0  0  0
 10 15  1  0  0  0
 11 12  1  0  0  0
 11 96  1  0  0  0
 12 13  2  0  0  0
 12 97  1  0  0  0
 13 14  1  0  0  0
 13 31  1  0  0  0
 14 15  2  0  0  0
 14 98  1  0  0  0
 15 99  1  0  0  0
 16 17  2  0  0  0
 16 21  1  0  0  0
 16 31  1  0  0  0
 17 18  1  0  0  0
 17100  1  0  0  0
 18 19  2  0  0  0
 18101  1  0  0  0
 19 20  1  0  0  0
 19 24  1  0  0  0
 20 21  2  0  0  0
 20102  1  0  0  0
 21 23  1  0  0  0
 22 28  1  0  0  0
 22 32  2  0  0  0
 26 27  1  0  0  0
 28103  1  0  0  0
 28104  1  0  0  0
 29105  1  0  0  0
 29106  1  0  0  0
 33 34  1  0  0  0
 33 66  1  0  0  0
 33 70  2  0  0  0
 34 36  1  0  0  0
 34 59  1  0  0  0
 34107  1  0  0  0
 35 44  2  0  0  0
 35 45  1  0  0  0
 35 68  1  0  0  0
 36 56  1  0  0  0
 36108  1  0  0  0
 37 39  1  0  0  0
 37 47  1  0  0  0
 37 66  1  0  0  0
 37109  1  0  0  0
 38 43  2  0  0  0
 38 46  1  0  0  0
 38 47  1  0  0  0
 39 64  1  0  0  0
 39 67  2  0  0  0
 40 52  1  0  0  0
 40 53  2  0  0  0
 40 58  1  0  0  0
 41110  1  0  0  0
 41111  1  0  0  0
 41112  1  0  0  0
 41 48  1  0  0  0
 42 43  1  0  0  0
 42 66  1  0  0  0
 42113  1  0  0  0
 42114  1  0  0  0
 43 44  1  0  0  0
 44115  1  0  0  0
 45 46  2  0  0  0
 45116  1  0  0  0
 46117  1  0  0  0
 47118  1  0  0  0
 47119  1  0  0  0
 48 56  1  0  0  0
 48 65  1  0  0  0
 48120  1  0  0  0
 49 50  1  0  0  0
 49 53  1  0  0  0
 49 64  1  0  0  0
 49121  1  0  0  0
 50 51  1  0  0  0
 50122  1  0  0  0
 50123  1  0  0  0
 51 52  1  0  0  0
 51124  1  0  0  0
 51125  1  0  0  0
 52126  1  0  0  0
 52127  1  0  0  0
 53 54  1  0  0  0
 54 55  2  0  0  0
 54128  1  0  0  0
 55 57  1  0  0  0
 55129  1  0  0  0
 56 69  2  0  0  0
 57 58  2  0  0  0
 57130  1  0  0  0
 58131  1  0  0  0
 59 60  1  0  0  0
 59 61  1  0  0  0
 59 62  1  0  0  0
 60132  1  0  0  0
 60133  1  0  0  0
 60134  1  0  0  0
 61135  1  0  0  0
 61136  1  0  0  0
 61137  1  0  0  0
 62138  1  0  0  0
 62139  1  0  0  0
 62140  1  0  0  0
 63 65  1  0  0  0
 63141  1  0  0  0
 63142  1  0  0  0
 63143  1  0  0  0
 64144  1  0  0  0
 65145  1  0  0  0
 68 83  1  0  0  0
 71 73  2  0  0  0
 71 75  1  0  0  0
 71146  1  0  0  0
 72 74  1  0  0  0
 72 75  2  0  0  0
 72147  1  0  0  0
 73 76  1  0  0  0
 73148  1  0  0  0
 74 76  2  0  0  0
 74149  1  0  0  0
 75 77  1  0  0  0
 76 82  1  0  0  0
 77 84  1  0  0  0
 77 86  2  0  0  0
 78 79  1  0  0  0
 78 80  1  0  0  0
 78150  1  0  0  0
 78151  1  0  0  0
 79 81  1  0  0  0
 79152  1  0  0  0
 79153  1  0  0  0
 80 84  1  0  0  0
 80154  1  0  0  0
 80155  1  0  0  0
 81 83  1  0  0  0
 81 84  1  0  0  0
 81156  1  0  0  0
 82 85  1  0  0  0
 82157  1  0  0  0
 82158  1  0  0  0
 83159  1  0  0  0
 83160  1  0  0  0
 85161  1  0  0  0
M  ISO  4   1 100  68 101  83 101  85 100
M  END
> <chiral flag>
0

> <version>
0

> <s_m_source_file>
/data/baiqing/PycharmProjects/Reinvent-master-3.2/result/LINK_invent/BTK/process_docking_weight1_custom_product_contain_oxygen_bond_distance_aromatic_linkinvent_7_9_3/rearranged_h_0005.sdf

> <i_m_source_file_index>
43

> <r_mmod_Potential_Energy-OPLS-2005>
71.9881439208984

> <r_mmod_Stretch_Energy-OPLS-2005>
37.7173919677734

> <r_mmod_Bend_Energy-OPLS-2005>
117.204399108887

> <r_mmod_Torsional_Energy-OPLS-2005>
332.864166259766

> <r_mmod_Improper_Torsional_Energy-OPLS-2005>
12.8330030441284

> <r_mmod_Van_der_Waal_Energy-OPLS-2005>
153.551696777344

> <r_mmod_Electrostatic_Energy-OPLS-2005>
-369.693542480469

> <r_mmod_Solvation_Energy-OPLS-2005>
-229.395309448242

> <b_mmod_Minimization_Converged-OPLS-2005>
0

> <r_mmod_RMS_Derivative-OPLS-2005>
1.16625022888184

$$$$
43
                    3D
 Structure written by MMmdl.
169177  0  0  1  0            999 V2000
  -30.6331  -14.6365   20.3646 C   0  0  0  0  0  0
  -30.4336  -12.3506   19.4602 C   0  0  0  0  0  0
  -29.5196  -12.4447   18.2185 C   0  0  0  0  0  0
  -28.0364  -12.3142   18.6306 C   0  0  0  0  0  0
  -27.6539  -13.2164   19.8393 C   0  0  2  0  0  0
  -28.7017  -13.0967   20.9665 C   0  0  0  0  0  0
  -25.2533  -13.8144   20.5648 C   0  0  0  0  0  0
  -24.1833  -13.0454   20.9145 C   0  0  0  0  0  0
  -24.6403  -11.6902   20.8619 C   0  0  0  0  0  0
  -23.9048  -10.4289   21.0300 C   0  0  0  0  0  0
  -24.3600   -9.4223   21.9088 C   0  0  0  0  0  0
  -23.6290   -8.2259   22.0700 C   0  0  0  0  0  0
  -22.4268   -8.0276   21.3540 C   0  0  0  0  0  0
  -21.9877   -9.0218   20.4625 C   0  0  0  0  0  0
  -22.7187  -10.2091   20.2986 C   0  0  0  0  0  0
  -21.6885   -6.0737   22.5279 C   0  0  0  0  0  0
  -21.4063   -6.5628   23.8211 C   0  0  0  0  0  0
  -21.3643   -5.6744   24.9158 C   0  0  0  0  0  0
  -21.6042   -4.3036   24.7193 C   0  0  0  0  0  0
  -21.8836   -3.8122   23.4317 C   0  0  0  0  0  0
  -21.9215   -4.6941   22.3384 C   0  0  0  0  0  0
  -22.7827  -13.5200   21.1843 C   0  0  0  0  0  0
  -22.1677   -4.2168   21.0938 F   0  0  0  0  0  0
  -21.5590   -3.4500   25.7678 F   0  0  0  0  0  0
  -30.0158  -13.4147   20.3925 N   0  0  0  0  0  0
  -26.2996  -12.9377   20.3203 N   0  0  0  0  0  0
  -25.9349  -11.6523   20.5629 N   0  0  0  0  0  0
  -22.0480  -12.8233   22.0416 N   0  0  0  0  0  0
  -25.4161  -15.1880   20.4093 N   0  0  0  0  0  0
  -31.8253  -14.7415   20.0751 O   0  0  0  0  0  0
  -21.6678   -6.8881   21.4258 O   0  0  0  0  0  0
  -22.3552  -14.5526   20.6682 O   0  0  0  0  0  0
  -24.6243  -31.8603   23.1953 C   0  0  0  0  0  0
  -25.9117  -32.4730   23.8251 C   0  0  1  0  0  0
  -27.2237  -27.3365   20.1002 C   0  0  0  0  0  0
  -25.5998  -33.8539   24.2240 N   0  0  0  0  0  0
  -23.4124  -30.4865   21.5359 C   0  0  2  0  0  0
  -24.8595  -28.9373   20.1051 C   0  0  0  0  0  0
  -22.7428  -29.4653   22.4863 C   0  0  0  0  0  0
  -18.0322  -28.1378   22.8442 C   0  0  0  0  0  0
  -24.1526  -36.7249   23.2644 C   0  0  0  0  0  0
  -25.9532  -30.7991   21.3664 C   0  0  0  0  0  0
  -26.0283  -29.4277   20.7029 C   0  0  0  0  0  0
  -27.2170  -28.6421   20.6834 C   0  0  0  0  0  0
  -26.0326  -26.8879   19.4968 C   0  0  0  0  0  0
  -24.8637  -27.6717   19.4977 C   0  0  0  0  0  0
  -23.6267  -29.8146   20.1522 C   0  0  0  0  0  0
  -25.4142  -36.3014   24.0311 C   0  0  1  0  0  0
  -20.5897  -28.3690   23.1244 C   0  0  2  0  0  0
  -20.6824  -26.9431   22.5363 C   0  0  0  0  0  0
  -19.5797  -26.6400   21.5189 C   0  0  0  0  0  0
  -18.1974  -26.7914   22.1593 C   0  0  0  0  0  0
  -19.1544  -28.8868   23.2872 C   0  0  0  0  0  0
  -18.9482  -30.1497   23.8867 C   0  0  0  0  0  0
  -17.6469  -30.6583   24.0560 C   0  0  0  0  0  0
  -25.9078  -34.9405   23.5051 C   0  0  0  0  0  0
  -16.5379  -29.9037   23.6310 C   0  0  0  0  0  0
  -16.7315  -28.6472   23.0306 C   0  0  0  0  0  0
  -26.4553  -31.6500   25.0608 C   0  0  0  0  0  0
  -25.3832  -31.3686   26.1359 C   0  0  0  0  0  0
  -27.0423  -30.2889   24.6133 C   0  0  0  0  0  0
  -27.6066  -32.4261   25.7425 C   0  0  0  0  0  0
  -27.5566  -37.1766   24.8448 C   0  0  0  0  0  0
  -21.4165  -29.3032   22.3599 N   0  0  0  0  0  0
  -26.4270  -37.3697   23.9416 N   0  0  0  0  0  0
  -24.6796  -31.0647   22.0876 N   0  0  0  0  0  0
  -23.4156  -28.8253   23.2980 O   0  0  0  0  0  0
  -28.3594  -26.5290   20.0668 O   0  0  0  0  0  0
  -26.5602  -34.8837   22.4606 O   0  0  0  0  0  0
  -23.5426  -32.1380   23.7304 O   0  0  0  0  0  0
  -30.6347  -20.2678   22.5725 C   0  0  0  0  0  0
  -29.4696  -20.3274   21.7882 C   0  0  0  0  0  0
  -31.3595  -18.3264   21.3351 C   0  0  0  0  0  0
  -31.6645  -19.3734   22.2241 C   0  0  0  0  0  0
  -29.2745  -19.4716   20.6759 C   0  0  0  0  0  0
  -30.1552  -18.3147   20.5887 C   0  0  0  0  0  0
  -26.9542  -19.0115   19.6384 C   0  0  0  0  0  0
  -35.1867  -20.6973   22.2095 C   0  0  0  0  0  0
  -30.0031  -17.0630   19.6821 C   0  0  0  0  0  0
  -33.1010  -19.5830   22.7174 C   0  0  0  0  0  0
  -28.0440  -24.0094   19.2424 C   0  0  0  0  0  0
  -28.6532  -22.5278   19.3863 C   0  0  0  0  0  0
  -28.2680  -25.0857   20.3896 C   0  0  0  0  0  0
  -28.1988  -19.9122   19.6170 C   0  0  1  0  0  0
  -29.8163  -15.7326   20.3639 N   0  0  0  0  0  0
  -27.7169  -21.3599   19.6525 N   0  3  0  0  0  0
  -33.8476  -20.3964   21.8017 O   0  0  0  0  0  0
  -31.4856  -12.4296   19.1749 H   0  0  0  0  0  0
  -30.3369  -11.3706   19.9361 H   0  0  0  0  0  0
  -29.7749  -11.6499   17.5178 H   0  0  0  0  0  0
  -29.6970  -13.3850   17.7004 H   0  0  0  0  0  0
  -27.8723  -11.2715   18.9011 H   0  0  0  0  0  0
  -27.3926  -12.5038   17.7726 H   0  0  0  0  0  0
  -27.6632  -14.2429   19.4780 H   0  0  0  0  0  0
  -28.7134  -12.0827   21.3679 H   0  0  0  0  0  0
  -28.4681  -13.7531   21.8013 H   0  0  0  0  0  0
  -25.2766   -9.5766   22.4655 H   0  0  0  0  0  0
  -24.0036   -7.4691   22.7427 H   0  0  0  0  0  0
  -21.0822   -8.8749   19.8945 H   0  0  0  0  0  0
  -22.3641  -10.9630   19.6087 H   0  0  0  0  0  0
  -21.2124   -7.6143   23.9774 H   0  0  0  0  0  0
  -21.1410   -6.0435   25.9071 H   0  0  0  0  0  0
  -22.0629   -2.7619   23.2784 H   0  0  0  0  0  0
  -22.4104  -11.9932   22.4888 H   0  0  0  0  0  0
  -21.1081  -13.1244   22.2552 H   0  0  0  0  0  0
  -24.6387  -15.8186   20.5428 H   0  0  0  0  0  0
  -26.2502  -15.6474   20.0799 H   0  0  0  0  0  0
  -26.7209  -32.5376   23.1004 H   0  0  0  0  0  0
  -25.0177  -33.9713   25.0402 H   0  0  0  0  0  0
  -22.7050  -31.3067   21.3856 H   0  0  0  0  0  0
  -23.3728  -35.9624   23.3264 H   0  0  0  0  0  0
  -24.3626  -36.8889   22.2058 H   0  0  0  0  0  0
  -23.7331  -37.6464   23.6699 H   0  0  0  0  0  0
  -26.1133  -31.5792   20.6178 H   0  0  0  0  0  0
  -26.8248  -30.8262   22.0077 H   0  0  0  0  0  0
  -28.1195  -29.0436   21.1242 H   0  0  0  0  0  0
  -26.0011  -25.9330   18.9992 H   0  0  0  0  0  0
  -23.9721  -27.2899   19.0231 H   0  0  0  0  0  0
  -23.7389  -30.5863   19.3879 H   0  0  0  0  0  0
  -22.7517  -29.2307   19.8563 H   0  0  0  0  0  0
  -25.1352  -36.1782   25.0781 H   0  0  0  0  0  0
  -21.0083  -28.3299   24.1338 H   0  0  0  0  0  0
  -20.5727  -26.2371   23.3586 H   0  0  0  0  0  0
  -21.6708  -26.7448   22.1199 H   0  0  0  0  0  0
  -19.6957  -25.6314   21.1224 H   0  0  0  0  0  0
  -19.6699  -27.3208   20.6726 H   0  0  0  0  0  0
  -17.4263  -26.6677   21.3985 H   0  0  0  0  0  0
  -18.0350  -26.0077   22.9026 H   0  0  0  0  0  0
  -19.7999  -30.7353   24.2116 H   0  0  0  0  0  0
  -17.5043  -31.6226   24.5261 H   0  0  0  0  0  0
  -15.5378  -30.2951   23.7676 H   0  0  0  0  0  0
  -15.8737  -28.0852   22.6922 H   0  0  0  0  0  0
  -24.5982  -30.7078   25.7715 H   0  0  0  0  0  0
  -24.9101  -32.2906   26.4726 H   0  0  0  0  0  0
  -25.8164  -30.8886   27.0139 H   0  0  0  0  0  0
  -26.3021  -29.6558   24.1250 H   0  0  0  0  0  0
  -27.4211  -29.7202   25.4645 H   0  0  0  0  0  0
  -27.8837  -30.4103   23.9311 H   0  0  0  0  0  0
  -27.2602  -33.3524   26.1994 H   0  0  0  0  0  0
  -28.3878  -32.6872   25.0298 H   0  0  0  0  0  0
  -28.0737  -31.8421   26.5352 H   0  0  0  0  0  0
  -28.2555  -38.0087   24.7496 H   0  0  0  0  0  0
  -28.1099  -36.2614   24.6273 H   0  0  0  0  0  0
  -27.2302  -37.1393   25.8851 H   0  0  0  0  0  0
  -20.9330  -29.8739   21.6823 H   0  0  0  0  0  0
  -26.0106  -38.2755   24.1360 H   0  0  0  0  0  0
  -30.7702  -20.9690   23.3840 H   0  0  0  0  0  0
  -28.7637  -21.1169   21.9940 H   0  0  0  0  0  0
  -32.0898  -17.5451   21.1773 H   0  0  0  0  0  0
  -26.3594  -19.1484   20.5355 H   0  0  0  0  0  0
  -27.2002  -17.9540   19.5637 H   0  0  0  0  0  0
  -26.3181  -19.2519   18.7880 H   0  0  0  0  0  0
  -35.6565  -21.4075   21.5286 H   0  0  0  0  0  0
  -35.8319  -19.8208   22.2253 H   0  0  0  0  0  0
  -35.2072  -21.1482   23.2015 H   0  0  0  0  0  0
  -30.9103  -17.0334   19.0763 H   0  0  0  0  0  0
  -29.2069  -17.2197   18.9572 H   0  0  0  0  0  0
  -33.6112  -18.6260   22.8492 H   0  0  0  0  0  0
  -33.0672  -20.0597   23.6949 H   0  0  0  0  0  0
  -26.9961  -23.9584   18.9399 H   0  0  0  0  0  0
  -28.5251  -24.4549   18.3704 H   0  0  0  0  0  0
  -29.4761  -22.5407   20.0975 H   0  0  0  0  0  0
  -29.1074  -22.2802   18.4238 H   0  0  0  0  0  0
  -29.2437  -24.8560   20.8227 H   0  0  0  0  0  0
  -27.5540  -24.9300   21.2043 H   0  0  0  0  0  0
  -28.6449  -19.7653   18.6336 H   0  0  0  0  0  0
  -28.8827  -15.5573   20.6905 H   0  0  0  0  0  0
  -27.0244  -21.3781   18.9169 H   0  0  0  0  0  0
  -27.1998  -21.4994   20.5062 H   0  0  0  0  0  0
  1 25  1  0  0  0
  1 30  2  0  0  0
  1 85  1  0  0  0
  2  3  1  0  0  0
  2 25  1  0  0  0
  2 88  1  0  0  0
  2 89  1  0  0  0
  3  4  1  0  0  0
  3 90  1  0  0  0
  3 91  1  0  0  0
  4  5  1  0  0  0
  4 92  1  0  0  0
  4 93  1  0  0  0
  5  6  1  0  0  0
  5 26  1  0  0  0
  5 94  1  0  0  0
  6 25  1  0  0  0
  6 95  1  0  0  0
  6 96  1  0  0  0
  7  8  2  0  0  0
  7 26  1  0  0  0
  7 29  1  0  0  0
  8  9  1  0  0  0
  8 22  1  0  0  0
  9 10  1  0  0  0
  9 27  2  0  0  0
 10 11  2  0  0  0
 10 15  1  0  0  0
 11 12  1  0  0  0
 11 97  1  0  0  0
 12 13  2  0  0  0
 12 98  1  0  0  0
 13 14  1  0  0  0
 13 31  1  0  0  0
 14 15  2  0  0  0
 14 99  1  0  0  0
 15100  1  0  0  0
 16 17  2  0  0  0
 16 21  1  0  0  0
 16 31  1  0  0  0
 17 18  1  0  0  0
 17101  1  0  0  0
 18 19  2  0  0  0
 18102  1  0  0  0
 19 20  1  0  0  0
 19 24  1  0  0  0
 20 21  2  0  0  0
 20103  1  0  0  0
 21 23  1  0  0  0
 22 28  1  0  0  0
 22 32  2  0  0  0
 26 27  1  0  0  0
 28104  1  0  0  0
 28105  1  0  0  0
 29106  1  0  0  0
 29107  1  0  0  0
 33 34  1  0  0  0
 33 66  1  0  0  0
 33 70  2  0  0  0
 34 36  1  0  0  0
 34 59  1  0  0  0
 34108  1  0  0  0
 35 44  2  0  0  0
 35 45  1  0  0  0
 35 68  1  0  0  0
 36 56  1  0  0  0
 36109  1  0  0  0
 37 39  1  0  0  0
 37 47  1  0  0  0
 37 66  1  0  0  0
 37110  1  0  0  0
 38 43  2  0  0  0
 38 46  1  0  0  0
 38 47  1  0  0  0
 39 64  1  0  0  0
 39 67  2  0  0  0
 40 52  1  0  0  0
 40 53  2  0  0  0
 40 58  1  0  0  0
 41111  1  0  0  0
 41112  1  0  0  0
 41113  1  0  0  0
 41 48  1  0  0  0
 42 43  1  0  0  0
 42 66  1  0  0  0
 42114  1  0  0  0
 42115  1  0  0  0
 43 44  1  0  0  0
 44116  1  0  0  0
 45 46  2  0  0  0
 45117  1  0  0  0
 46118  1  0  0  0
 47119  1  0  0  0
 47120  1  0  0  0
 48 56  1  0  0  0
 48 65  1  0  0  0
 48121  1  0  0  0
 49 50  1  0  0  0
 49 53  1  0  0  0
 49 64  1  0  0  0
 49122  1  0  0  0
 50 51  1  0  0  0
 50123  1  0  0  0
 50124  1  0  0  0
 51 52  1  0  0  0
 51125  1  0  0  0
 51126  1  0  0  0
 52127  1  0  0  0
 52128  1  0  0  0
 53 54  1  0  0  0
 54 55  2  0  0  0
 54129  1  0  0  0
 55 57  1  0  0  0
 55130  1  0  0  0
 56 69  2  0  0  0
 57 58  2  0  0  0
 57131  1  0  0  0
 58132  1  0  0  0
 59 60  1  0  0  0
 59 61  1  0  0  0
 59 62  1  0  0  0
 60133  1  0  0  0
 60134  1  0  0  0
 60135  1  0  0  0
 61136  1  0  0  0
 61137  1  0  0  0
 61138  1  0  0  0
 62139  1  0  0  0
 62140  1  0  0  0
 62141  1  0  0  0
 63 65  1  0  0  0
 63142  1  0  0  0
 63143  1  0  0  0
 63144  1  0  0  0
 64145  1  0  0  0
 65146  1  0  0  0
 68 83  1  0  0  0
 71 72  2  0  0  0
 71 74  1  0  0  0
 71147  1  0  0  0
 72 75  1  0  0  0
 72148  1  0  0  0
 73 74  2  0  0  0
 73 76  1  0  0  0
 73149  1  0  0  0
 74 80  1  0  0  0
 75 76  2  0  0  0
 75 84  1  0  0  0
 76 79  1  0  0  0
 77150  1  0  0  0
 77151  1  0  0  0
 77152  1  0  0  0
 77 84  1  0  0  0
 78 87  1  0  0  0
 78153  1  0  0  0
 78154  1  0  0  0
 78155  1  0  0  0
 79 85  1  0  0  0
 79156  1  0  0  0
 79157  1  0  0  0
 80 87  1  0  0  0
 80158  1  0  0  0
 80159  1  0  0  0
 81 82  1  0  0  0
 81 83  1  0  0  0
 81160  1  0  0  0
 81161  1  0  0  0
 82 86  1  0  0  0
 82162  1  0  0  0
 82163  1  0  0  0
 83164  1  0  0  0
 83165  1  0  0  0
 84 86  1  0  0  0
 84166  1  0  0  0
 85167  1  0  0  0
 86168  1  0  0  0
 86169  1  0  0  0
M  CHG  1  86   1
M  ISO  4   1 100  68 101  83 101  85 100
M  END
> <chiral flag>
0

> <version>
0

> <s_m_source_file>
/data/baiqing/PycharmProjects/Reinvent-master-3.2/result/LINK_invent/BTK/process_docking_weight1_custom_product_contain_oxygen_bond_distance_aromatic_linkinvent_7_9_3/rearranged_h_0005.sdf

> <i_m_source_file_index>
44

> <r_mmod_Potential_Energy-OPLS-2005>
-75.7203063964844

> <r_mmod_Stretch_Energy-OPLS-2005>
86.3753204345703

> <r_mmod_Bend_Energy-OPLS-2005>
170.51611328125

> <r_mmod_Torsional_Energy-OPLS-2005>
287.502227783203

> <r_mmod_Improper_Torsional_Energy-OPLS-2005>
9.19364643096924

> <r_mmod_Van_der_Waal_Energy-OPLS-2005>
132.604217529297

> <r_mmod_Electrostatic_Energy-OPLS-2005>
-322.643493652344

> <r_mmod_Solvation_Energy-OPLS-2005>
-487.981262207031

> <b_mmod_Minimization_Converged-OPLS-2005>
0

> <r_mmod_RMS_Derivative-OPLS-2005>
10.5800542831421

$$$$
44
                    3D
 Structure written by MMmdl.
156164  0  0  1  0            999 V2000
  -30.6835  -14.5295   20.5632 C   0  0  0  0  0  0
  -30.4341  -12.3320   19.4599 C   0  0  0  0  0  0
  -29.5156  -12.5135   18.2312 C   0  0  0  0  0  0
  -28.0307  -12.3770   18.6224 C   0  0  0  0  0  0
  -27.6662  -13.2184   19.8767 C   0  0  2  0  0  0
  -28.7035  -13.0154   21.0082 C   0  0  0  0  0  0
  -25.2565  -13.8191   20.5664 C   0  0  0  0  0  0
  -24.1842  -13.0447   20.9158 C   0  0  0  0  0  0
  -24.6418  -11.6921   20.8694 C   0  0  0  0  0  0
  -23.9083  -10.4304   21.0363 C   0  0  0  0  0  0
  -24.3628   -9.4221   21.9158 C   0  0  0  0  0  0
  -23.6309   -8.2253   22.0750 C   0  0  0  0  0  0
  -22.4293   -8.0281   21.3536 C   0  0  0  0  0  0
  -21.9910   -9.0256   20.4634 C   0  0  0  0  0  0
  -22.7236  -10.2135   20.3035 C   0  0  0  0  0  0
  -21.6862   -6.0727   22.5286 C   0  0  0  0  0  0
  -21.4006   -6.5627   23.8219 C   0  0  0  0  0  0
  -21.3667   -5.6780   24.9180 C   0  0  0  0  0  0
  -21.6059   -4.3047   24.7224 C   0  0  0  0  0  0
  -21.8821   -3.8135   23.4344 C   0  0  0  0  0  0
  -21.9185   -4.6952   22.3396 C   0  0  0  0  0  0
  -22.7849  -13.5228   21.1816 C   0  0  0  0  0  0
  -22.1667   -4.2156   21.0977 F   0  0  0  0  0  0
  -21.5632   -3.4528   25.7725 F   0  0  0  0  0  0
  -30.0437  -13.3243   20.4779 N   0  0  0  0  0  0
  -26.3049  -12.9409   20.3348 N   0  0  0  0  0  0
  -25.9364  -11.6556   20.5732 N   0  0  0  0  0  0
  -22.0492  -12.8248   22.0382 N   0  0  0  0  0  0
  -25.4221  -15.1916   20.4098 N   0  0  0  0  0  0
  -31.7525  -14.7466   19.9898 O   0  0  0  0  0  0
  -21.6655   -6.8875   21.4250 O   0  0  0  0  0  0
  -22.3526  -14.5518   20.6638 O   0  0  0  0  0  0
  -24.6172  -31.8680   23.2057 C   0  0  0  0  0  0
  -25.9059  -32.4821   23.8363 C   0  0  1  0  0  0
  -27.2388  -27.4039   20.0943 C   0  0  0  0  0  0
  -25.5908  -33.8615   24.2294 N   0  0  0  0  0  0
  -23.4038  -30.4913   21.5488 C   0  0  2  0  0  0
  -24.8511  -28.9550   20.1082 C   0  0  0  0  0  0
  -22.7420  -29.4658   22.4983 C   0  0  0  0  0  0
  -18.0286  -28.1375   22.8515 C   0  0  0  0  0  0
  -24.1480  -36.7317   23.2640 C   0  0  0  0  0  0
  -25.9357  -30.8241   21.3604 C   0  0  0  0  0  0
  -26.0125  -29.4546   20.7110 C   0  0  0  0  0  0
  -27.2027  -28.6869   20.7030 C   0  0  0  0  0  0
  -26.0539  -26.9384   19.4688 C   0  0  0  0  0  0
  -24.8706  -27.6981   19.4839 C   0  0  0  0  0  0
  -23.6118  -29.8222   20.1632 C   0  0  0  0  0  0
  -25.4104  -36.3130   24.0345 C   0  0  1  0  0  0
  -20.5875  -28.3665   23.1339 C   0  0  2  0  0  0
  -20.6779  -26.9406   22.5434 C   0  0  0  0  0  0
  -19.5749  -26.6395   21.5234 C   0  0  0  0  0  0
  -18.1926  -26.7917   22.1638 C   0  0  0  0  0  0
  -19.1530  -28.8832   23.2926 C   0  0  0  0  0  0
  -18.9462  -30.1446   23.8939 C   0  0  0  0  0  0
  -17.6468  -30.6588   24.0572 C   0  0  0  0  0  0
  -25.9057  -34.9493   23.5128 C   0  0  0  0  0  0
  -16.5365  -29.9098   23.6326 C   0  0  0  0  0  0
  -16.7277  -28.6503   23.0367 C   0  0  0  0  0  0
  -26.4456  -31.6601   25.0696 C   0  0  0  0  0  0
  -25.3690  -31.3734   26.1420 C   0  0  0  0  0  0
  -27.0262  -30.3054   24.6053 C   0  0  0  0  0  0
  -27.6023  -32.4315   25.7469 C   0  0  0  0  0  0
  -27.5579  -37.1818   24.8464 C   0  0  0  0  0  0
  -21.4142  -29.3034   22.3726 N   0  0  0  0  0  0
  -26.4294  -37.3809   23.9408 N   0  0  0  0  0  0
  -24.6711  -31.0744   22.0976 N   0  0  0  0  0  0
  -23.4193  -28.8203   23.3040 O   0  0  0  0  0  0
  -28.4155  -26.6650   20.1388 O   0  0  0  0  0  0
  -26.5626  -34.8946   22.4701 O   0  0  0  0  0  0
  -23.5369  -32.1436   23.7460 O   0  0  0  0  0  0
  -32.2584  -19.3377   19.8693 C   0  0  0  0  0  0
  -31.5944  -18.1111   20.0798 C   0  0  0  0  0  0
  -31.6310  -20.5625   20.1758 C   0  0  0  0  0  0
  -29.6476  -19.3341   20.8718 C   0  0  0  0  0  0
  -30.2755  -18.0860   20.5802 C   0  0  0  0  0  0
  -30.3139  -20.5812   20.6858 C   0  0  0  0  0  0
  -29.4760  -16.7617   20.6878 C   0  0  0  0  0  0
  -29.6828  -21.9228   21.1302 C   0  0  0  0  0  0
  -29.4132  -24.3886   20.5607 C   0  0  0  0  0  0
  -28.4145  -25.2679   19.7485 C   0  0  0  0  0  0
  -30.0431  -15.5047   21.2482 N   0  0  0  0  0  0
  -29.5257  -22.9702   20.0723 N   0  3  0  0  0  0
  -31.4835  -12.4255   19.1716 H   0  0  0  0  0  0
  -30.3307  -11.3257   19.8716 H   0  0  0  0  0  0
  -29.7670  -11.7776   17.4663 H   0  0  0  0  0  0
  -29.6928  -13.4940   17.7851 H   0  0  0  0  0  0
  -27.8315  -11.3210   18.8102 H   0  0  0  0  0  0
  -27.3934  -12.6576   17.7824 H   0  0  0  0  0  0
  -27.7046  -14.2652   19.5773 H   0  0  0  0  0  0
  -28.6803  -11.9828   21.3617 H   0  0  0  0  0  0
  -28.4426  -13.6174   21.8786 H   0  0  0  0  0  0
  -25.2792   -9.5691   22.4706 H   0  0  0  0  0  0
  -24.0017   -7.4654   22.7474 H   0  0  0  0  0  0
  -21.0838   -8.8776   19.8954 H   0  0  0  0  0  0
  -22.3713  -10.9659   19.6117 H   0  0  0  0  0  0
  -21.2012   -7.6140   23.9721 H   0  0  0  0  0  0
  -21.1486   -6.0511   25.9087 H   0  0  0  0  0  0
  -22.0587   -2.7601   23.2844 H   0  0  0  0  0  0
  -22.4145  -11.9953   22.4824 H   0  0  0  0  0  0
  -21.1085  -13.1246   22.2523 H   0  0  0  0  0  0
  -24.6428  -15.8342   20.5127 H   0  0  0  0  0  0
  -26.2743  -15.6454   20.1092 H   0  0  0  0  0  0
  -26.7118  -32.5520   23.1109 H   0  0  0  0  0  0
  -25.0006  -33.9756   25.0407 H   0  0  0  0  0  0
  -22.6947  -31.3102   21.4081 H   0  0  0  0  0  0
  -23.3744  -35.9644   23.3328 H   0  0  0  0  0  0
  -24.3587  -36.8918   22.2052 H   0  0  0  0  0  0
  -23.7221  -37.6534   23.6632 H   0  0  0  0  0  0
  -26.0422  -31.5858   20.5857 H   0  0  0  0  0  0
  -26.8283  -30.8881   21.9722 H   0  0  0  0  0  0
  -28.0930  -29.0729   21.1774 H   0  0  0  0  0  0
  -26.0098  -25.9920   18.9546 H   0  0  0  0  0  0
  -23.9804  -27.3114   19.0053 H   0  0  0  0  0  0
  -23.7113  -30.5944   19.3979 H   0  0  0  0  0  0
  -22.7352  -29.2406   19.8748 H   0  0  0  0  0  0
  -25.1277  -36.1997   25.0837 H   0  0  0  0  0  0
  -20.9986  -28.3227   24.1455 H   0  0  0  0  0  0
  -20.5703  -26.2274   23.3619 H   0  0  0  0  0  0
  -21.6641  -26.7465   22.1212 H   0  0  0  0  0  0
  -19.6916  -25.6315   21.1251 H   0  0  0  0  0  0
  -19.6678  -27.3220   20.6766 H   0  0  0  0  0  0
  -17.4210  -26.6721   21.4028 H   0  0  0  0  0  0
  -18.0297  -26.0041   22.9005 H   0  0  0  0  0  0
  -19.7946  -30.7250   24.2317 H   0  0  0  0  0  0
  -17.5032  -31.6265   24.5171 H   0  0  0  0  0  0
  -15.5366  -30.3024   23.7600 H   0  0  0  0  0  0
  -15.8682  -28.0829   22.7072 H   0  0  0  0  0  0
  -24.5898  -30.7030   25.7770 H   0  0  0  0  0  0
  -24.8803  -32.2888   26.4777 H   0  0  0  0  0  0
  -25.8019  -30.8988   27.0231 H   0  0  0  0  0  0
  -26.2796  -29.6857   24.1066 H   0  0  0  0  0  0
  -27.4014  -29.7251   25.4494 H   0  0  0  0  0  0
  -27.8633  -30.4397   23.9191 H   0  0  0  0  0  0
  -27.2656  -33.3640   26.2005 H   0  0  0  0  0  0
  -28.3849  -32.6840   25.0301 H   0  0  0  0  0  0
  -28.0638  -31.8442   26.5420 H   0  0  0  0  0  0
  -28.2615  -38.0108   24.7549 H   0  0  0  0  0  0
  -28.1078  -36.2657   24.6247 H   0  0  0  0  0  0
  -27.2321  -37.1416   25.8880 H   0  0  0  0  0  0
  -20.9301  -29.8741   21.6933 H   0  0  0  0  0  0
  -26.0198  -38.2898   24.1405 H   0  0  0  0  0  0
  -33.2621  -19.3381   19.4672 H   0  0  0  0  0  0
  -32.1019  -17.1973   19.8196 H   0  0  0  0  0  0
  -32.1749  -21.4846   20.0288 H   0  0  0  0  0  0
  -28.6381  -19.3318   21.2573 H   0  0  0  0  0  0
  -29.0816  -16.5433   19.6957 H   0  0  0  0  0  0
  -28.5949  -16.9694   21.2981 H   0  0  0  0  0  0
  -30.3127  -22.3113   21.9290 H   0  0  0  0  0  0
  -28.7070  -21.7354   21.5821 H   0  0  0  0  0  0
  -29.1047  -24.3986   21.6082 H   0  0  0  0  0  0
  -30.4044  -24.8454   20.5453 H   0  0  0  0  0  0
  -27.4406  -24.8113   19.9029 H   0  0  0  0  0  0
  -28.6307  -25.2157   18.6791 H   0  0  0  0  0  0
  -29.4342  -15.1138   21.9503 H   0  0  0  0  0  0
  -30.3200  -22.9108   19.4551 H   0  0  0  0  0  0
  -28.7167  -22.7315   19.5211 H   0  0  0  0  0  0
  1 25  1  0  0  0
  1 30  2  0  0  0
  1 81  1  0  0  0
  2  3  1  0  0  0
  2 25  1  0  0  0
  2 83  1  0  0  0
  2 84  1  0  0  0
  3  4  1  0  0  0
  3 85  1  0  0  0
  3 86  1  0  0  0
  4  5  1  0  0  0
  4 87  1  0  0  0
  4 88  1  0  0  0
  5  6  1  0  0  0
  5 26  1  0  0  0
  5 89  1  0  0  0
  6 25  1  0  0  0
  6 90  1  0  0  0
  6 91  1  0  0  0
  7  8  2  0  0  0
  7 26  1  0  0  0
  7 29  1  0  0  0
  8  9  1  0  0  0
  8 22  1  0  0  0
  9 10  1  0  0  0
  9 27  2  0  0  0
 10 11  2  0  0  0
 10 15  1  0  0  0
 11 12  1  0  0  0
 11 92  1  0  0  0
 12 13  2  0  0  0
 12 93  1  0  0  0
 13 14  1  0  0  0
 13 31  1  0  0  0
 14 15  2  0  0  0
 14 94  1  0  0  0
 15 95  1  0  0  0
 16 17  2  0  0  0
 16 21  1  0  0  0
 16 31  1  0  0  0
 17 18  1  0  0  0
 17 96  1  0  0  0
 18 19  2  0  0  0
 18 97  1  0  0  0
 19 20  1  0  0  0
 19 24  1  0  0  0
 20 21  2  0  0  0
 20 98  1  0  0  0
 21 23  1  0  0  0
 22 28  1  0  0  0
 22 32  2  0  0  0
 26 27  1  0  0  0
 28 99  1  0  0  0
 28100  1  0  0  0
 29101  1  0  0  0
 29102  1  0  0  0
 33 34  1  0  0  0
 33 66  1  0  0  0
 33 70  2  0  0  0
 34 36  1  0  0  0
 34 59  1  0  0  0
 34103  1  0  0  0
 35 44  2  0  0  0
 35 45  1  0  0  0
 35 68  1  0  0  0
 36 56  1  0  0  0
 36104  1  0  0  0
 37 39  1  0  0  0
 37 47  1  0  0  0
 37 66  1  0  0  0
 37105  1  0  0  0
 38 43  2  0  0  0
 38 46  1  0  0  0
 38 47  1  0  0  0
 39 64  1  0  0  0
 39 67  2  0  0  0
 40 52  1  0  0  0
 40 53  2  0  0  0
 40 58  1  0  0  0
 41106  1  0  0  0
 41107  1  0  0  0
 41108  1  0  0  0
 41 48  1  0  0  0
 42 43  1  0  0  0
 42 66  1  0  0  0
 42109  1  0  0  0
 42110  1  0  0  0
 43 44  1  0  0  0
 44111  1  0  0  0
 45 46  2  0  0  0
 45112  1  0  0  0
 46113  1  0  0  0
 47114  1  0  0  0
 47115  1  0  0  0
 48 56  1  0  0  0
 48 65  1  0  0  0
 48116  1  0  0  0
 49 50  1  0  0  0
 49 53  1  0  0  0
 49 64  1  0  0  0
 49117  1  0  0  0
 50 51  1  0  0  0
 50118  1  0  0  0
 50119  1  0  0  0
 51 52  1  0  0  0
 51120  1  0  0  0
 51121  1  0  0  0
 52122  1  0  0  0
 52123  1  0  0  0
 53 54  1  0  0  0
 54 55  2  0  0  0
 54124  1  0  0  0
 55 57  1  0  0  0
 55125  1  0  0  0
 56 69  2  0  0  0
 57 58  2  0  0  0
 57126  1  0  0  0
 58127  1  0  0  0
 59 60  1  0  0  0
 59 61  1  0  0  0
 59 62  1  0  0  0
 60128  1  0  0  0
 60129  1  0  0  0
 60130  1  0  0  0
 61131  1  0  0  0
 61132  1  0  0  0
 61133  1  0  0  0
 62134  1  0  0  0
 62135  1  0  0  0
 62136  1  0  0  0
 63 65  1  0  0  0
 63137  1  0  0  0
 63138  1  0  0  0
 63139  1  0  0  0
 64140  1  0  0  0
 65141  1  0  0  0
 68 80  1  0  0  0
 71 72  2  0  0  0
 71 73  1  0  0  0
 71142  1  0  0  0
 72 75  1  0  0  0
 72143  1  0  0  0
 73 76  2  0  0  0
 73144  1  0  0  0
 74 75  2  0  0  0
 74 76  1  0  0  0
 74145  1  0  0  0
 75 77  1  0  0  0
 76 78  1  0  0  0
 77 81  1  0  0  0
 77146  1  0  0  0
 77147  1  0  0  0
 78 82  1  0  0  0
 78148  1  0  0  0
 78149  1  0  0  0
 79 80  1  0  0  0
 79 82  1  0  0  0
 79150  1  0  0  0
 79151  1  0  0  0
 80152  1  0  0  0
 80153  1  0  0  0
 81154  1  0  0  0
 82155  1  0  0  0
 82156  1  0  0  0
M  CHG  1  82   1
M  ISO  4   1 100  68 101  80 101  81 100
M  END
> <chiral flag>
0

> <version>
0

> <s_m_source_file>
/data/baiqing/PycharmProjects/Reinvent-master-3.2/result/LINK_invent/BTK/process_docking_weight1_custom_product_contain_oxygen_bond_distance_aromatic_linkinvent_7_9_3/rearranged_h_0005.sdf

> <i_m_source_file_index>
45

> <r_mmod_Potential_Energy-OPLS-2005>
-209.389038085938

> <r_mmod_Stretch_Energy-OPLS-2005>
50.0219573974609

> <r_mmod_Bend_Energy-OPLS-2005>
120.731338500977

> <r_mmod_Torsional_Energy-OPLS-2005>
232.536804199219

> <r_mmod_Improper_Torsional_Energy-OPLS-2005>
6.64321374893188

> <r_mmod_Van_der_Waal_Energy-OPLS-2005>
145.139739990234

> <r_mmod_Electrostatic_Energy-OPLS-2005>
-312.71630859375

> <r_mmod_Solvation_Energy-OPLS-2005>
-471.622131347656

> <b_mmod_Minimization_Converged-OPLS-2005>
0

> <r_mmod_RMS_Derivative-OPLS-2005>
3.84647035598755

$$$$
45
                    3D
 Structure written by MMmdl.
162171  0  0  1  0            999 V2000
  -30.7032  -14.4958   20.5587 C   0  0  0  0  0  0
  -30.4191  -12.3196   19.4338 C   0  0  0  0  0  0
  -29.4948  -12.5022   18.2123 C   0  0  0  0  0  0
  -28.0166  -12.3602   18.6249 C   0  0  0  0  0  0
  -27.6579  -13.2110   19.8720 C   0  0  2  0  0  0
  -28.6997  -13.0208   20.9991 C   0  0  0  0  0  0
  -25.2574  -13.8177   20.5706 C   0  0  0  0  0  0
  -24.1824  -13.0450   20.9199 C   0  0  0  0  0  0
  -24.6380  -11.6919   20.8742 C   0  0  0  0  0  0
  -23.9050  -10.4300   21.0407 C   0  0  0  0  0  0
  -24.3604   -9.4213   21.9186 C   0  0  0  0  0  0
  -23.6288   -8.2244   22.0750 C   0  0  0  0  0  0
  -22.4272   -8.0282   21.3541 C   0  0  0  0  0  0
  -21.9906   -9.0252   20.4644 C   0  0  0  0  0  0
  -22.7226  -10.2135   20.3059 C   0  0  0  0  0  0
  -21.6854   -6.0739   22.5283 C   0  0  0  0  0  0
  -21.4010   -6.5643   23.8212 C   0  0  0  0  0  0
  -21.3658   -5.6796   24.9176 C   0  0  0  0  0  0
  -21.6046   -4.3055   24.7225 C   0  0  0  0  0  0
  -21.8817   -3.8152   23.4344 C   0  0  0  0  0  0
  -21.9190   -4.6971   22.3404 C   0  0  0  0  0  0
  -22.7849  -13.5253   21.1859 C   0  0  0  0  0  0
  -22.1662   -4.2162   21.0980 F   0  0  0  0  0  0
  -21.5634   -3.4531   25.7733 F   0  0  0  0  0  0
  -30.0280  -13.3194   20.4415 N   0  0  0  0  0  0
  -26.3002  -12.9350   20.3354 N   0  0  0  0  0  0
  -25.9307  -11.6507   20.5758 N   0  0  0  0  0  0
  -22.0474  -12.8238   22.0391 N   0  0  0  0  0  0
  -25.4308  -15.1898   20.4133 N   0  0  0  0  0  0
  -31.8383  -14.6559   20.1033 O   0  0  0  0  0  0
  -21.6643   -6.8878   21.4242 O   0  0  0  0  0  0
  -22.3540  -14.5562   20.6708 O   0  0  0  0  0  0
  -24.6173  -31.8672   23.2100 C   0  0  0  0  0  0
  -25.9068  -32.4815   23.8392 C   0  0  1  0  0  0
  -27.2226  -27.4005   20.1036 C   0  0  0  0  0  0
  -25.5917  -33.8611   24.2323 N   0  0  0  0  0  0
  -23.4055  -30.4938   21.5511 C   0  0  2  0  0  0
  -24.8505  -28.9634   20.1101 C   0  0  0  0  0  0
  -22.7425  -29.4663   22.4978 C   0  0  0  0  0  0
  -18.0282  -28.1383   22.8494 C   0  0  0  0  0  0
  -24.1486  -36.7308   23.2635 C   0  0  0  0  0  0
  -25.9390  -30.8236   21.3685 C   0  0  0  0  0  0
  -26.0141  -29.4586   20.7116 C   0  0  0  0  0  0
  -27.2024  -28.6856   20.7043 C   0  0  0  0  0  0
  -26.0407  -26.9458   19.4682 C   0  0  0  0  0  0
  -24.8616  -27.7090   19.4821 C   0  0  0  0  0  0
  -23.6149  -29.8330   20.1639 C   0  0  0  0  0  0
  -25.4109  -36.3103   24.0333 C   0  0  1  0  0  0
  -20.5871  -28.3680   23.1309 C   0  0  2  0  0  0
  -20.6770  -26.9415   22.5414 C   0  0  0  0  0  0
  -19.5746  -26.6396   21.5210 C   0  0  0  0  0  0
  -18.1927  -26.7930   22.1626 C   0  0  0  0  0  0
  -19.1529  -28.8848   23.2899 C   0  0  0  0  0  0
  -18.9452  -30.1452   23.8911 C   0  0  0  0  0  0
  -17.6454  -30.6589   24.0568 C   0  0  0  0  0  0
  -25.9040  -34.9468   23.5125 C   0  0  0  0  0  0
  -16.5346  -29.9091   23.6326 C   0  0  0  0  0  0
  -16.7269  -28.6508   23.0351 C   0  0  0  0  0  0
  -26.4482  -31.6599   25.0728 C   0  0  0  0  0  0
  -25.3744  -31.3713   26.1474 C   0  0  0  0  0  0
  -27.0309  -30.3033   24.6112 C   0  0  0  0  0  0
  -27.6052  -32.4317   25.7495 C   0  0  0  0  0  0
  -27.5579  -37.1812   24.8467 C   0  0  0  0  0  0
  -21.4153  -29.3045   22.3702 N   0  0  0  0  0  0
  -26.4290  -37.3793   23.9411 N   0  0  0  0  0  0
  -24.6723  -31.0756   22.1013 N   0  0  0  0  0  0
  -23.4187  -28.8202   23.3024 O   0  0  0  0  0  0
  -28.3657  -26.6125   20.1678 O   0  0  0  0  0  0
  -26.5592  -34.8923   22.4679 O   0  0  0  0  0  0
  -23.5361  -32.1435   23.7483 O   0  0  0  0  0  0
  -25.2938  -19.5106   23.3694 C   0  0  0  0  0  0
  -25.7060  -20.8535   23.3168 C   0  0  0  0  0  0
  -26.1452  -18.4992   22.8935 C   0  0  0  0  0  0
  -26.9646  -21.1869   22.7801 C   0  0  0  0  0  0
  -28.2445  -17.7791   21.9131 C   0  0  0  0  0  0
  -29.9264  -19.4183   21.2810 C   0  0  0  0  0  0
  -27.4083  -18.8238   22.3556 C   0  0  0  0  0  0
  -27.8305  -20.1820   22.2792 C   0  0  0  0  0  0
  -29.5223  -18.0602   21.3889 C   0  0  0  0  0  0
  -29.1020  -20.4924   21.7169 C   0  0  0  0  0  0
  -30.4861  -16.9411   20.9582 C   0  0  0  0  0  0
  -29.6351  -21.9438   21.6487 C   0  0  0  0  0  0
  -29.2227  -24.2952   20.7830 C   0  0  0  0  0  0
  -28.1835  -25.1770   20.0342 C   0  0  0  0  0  0
  -30.0071  -15.5458   21.0398 N   0  0  0  0  0  0
  -28.9214  -22.8266   20.6822 N   0  3  0  0  0  0
  -31.4649  -12.4107   19.1344 H   0  0  0  0  0  0
  -30.3156  -11.3160   19.8488 H   0  0  0  0  0  0
  -29.7366  -11.7690   17.4415 H   0  0  0  0  0  0
  -29.6621  -13.4832   17.7664 H   0  0  0  0  0  0
  -27.8315  -11.3060   18.8316 H   0  0  0  0  0  0
  -27.3648  -12.6239   17.7912 H   0  0  0  0  0  0
  -27.6950  -14.2544   19.5589 H   0  0  0  0  0  0
  -28.6800  -11.9948   21.3697 H   0  0  0  0  0  0
  -28.4610  -13.6481   21.8594 H   0  0  0  0  0  0
  -25.2742   -9.5696   22.4767 H   0  0  0  0  0  0
  -24.0002   -7.4641   22.7469 H   0  0  0  0  0  0
  -21.0838   -8.8763   19.8953 H   0  0  0  0  0  0
  -22.3676  -10.9674   19.6171 H   0  0  0  0  0  0
  -21.1998   -7.6150   23.9717 H   0  0  0  0  0  0
  -21.1483   -6.0526   25.9081 H   0  0  0  0  0  0
  -22.0595   -2.7620   23.2842 H   0  0  0  0  0  0
  -22.4087  -11.9891   22.4767 H   0  0  0  0  0  0
  -21.1099  -13.1272   22.2609 H   0  0  0  0  0  0
  -24.6604  -15.8419   20.5106 H   0  0  0  0  0  0
  -26.2755  -15.6236   20.0648 H   0  0  0  0  0  0
  -26.7136  -32.5522   23.1144 H   0  0  0  0  0  0
  -25.0072  -33.9768   25.0470 H   0  0  0  0  0  0
  -22.6951  -31.3121   21.4147 H   0  0  0  0  0  0
  -23.3737  -35.9653   23.3313 H   0  0  0  0  0  0
  -24.3577  -36.8912   22.2048 H   0  0  0  0  0  0
  -23.7249  -37.6521   23.6641 H   0  0  0  0  0  0
  -26.0571  -31.5904   20.6017 H   0  0  0  0  0  0
  -26.8246  -30.8732   21.9896 H   0  0  0  0  0  0
  -28.0966  -29.0587   21.1839 H   0  0  0  0  0  0
  -26.0002  -25.9964   18.9552 H   0  0  0  0  0  0
  -23.9701  -27.3266   19.0042 H   0  0  0  0  0  0
  -23.7259  -30.6108   19.4077 H   0  0  0  0  0  0
  -22.7369  -29.2581   19.8642 H   0  0  0  0  0  0
  -25.1288  -36.1967   25.0825 H   0  0  0  0  0  0
  -20.9968  -28.3247   24.1426 H   0  0  0  0  0  0
  -20.5672  -26.2285   23.3598 H   0  0  0  0  0  0
  -21.6642  -26.7453   22.1206 H   0  0  0  0  0  0
  -19.6901  -25.6309   21.1237 H   0  0  0  0  0  0
  -19.6685  -27.3206   20.6738 H   0  0  0  0  0  0
  -17.4196  -26.6681   21.4030 H   0  0  0  0  0  0
  -18.0330  -26.0065   22.9013 H   0  0  0  0  0  0
  -19.7928  -30.7270   24.2280 H   0  0  0  0  0  0
  -17.5012  -31.6271   24.5170 H   0  0  0  0  0  0
  -15.5347  -30.3004   23.7647 H   0  0  0  0  0  0
  -15.8666  -28.0840   22.7057 H   0  0  0  0  0  0
  -24.5915  -30.7056   25.7818 H   0  0  0  0  0  0
  -24.8931  -32.2874   26.4915 H   0  0  0  0  0  0
  -25.8100  -30.8894   27.0236 H   0  0  0  0  0  0
  -26.2855  -29.6800   24.1150 H   0  0  0  0  0  0
  -27.4053  -29.7268   25.4584 H   0  0  0  0  0  0
  -27.8710  -30.4339   23.9283 H   0  0  0  0  0  0
  -27.2662  -33.3608   26.2088 H   0  0  0  0  0  0
  -28.3853  -32.6892   25.0320 H   0  0  0  0  0  0
  -28.0717  -31.8428   26.5398 H   0  0  0  0  0  0
  -28.2608  -38.0098   24.7506 H   0  0  0  0  0  0
  -28.1065  -36.2631   24.6305 H   0  0  0  0  0  0
  -27.2295  -37.1482   25.8869 H   0  0  0  0  0  0
  -20.9297  -29.8772   21.6936 H   0  0  0  0  0  0
  -26.0178  -38.2872   24.1405 H   0  0  0  0  0  0
  -24.3278  -19.2540   23.7809 H   0  0  0  0  0  0
  -25.0539  -21.6305   23.6923 H   0  0  0  0  0  0
  -25.8230  -17.4688   22.9497 H   0  0  0  0  0  0
  -27.2386  -22.2306   22.7774 H   0  0  0  0  0  0
  -27.8998  -16.7587   22.0010 H   0  0  0  0  0  0
  -30.9071  -19.6348   20.8791 H   0  0  0  0  0  0
  -31.3925  -17.0275   21.5594 H   0  0  0  0  0  0
  -30.7828  -17.1472   19.9278 H   0  0  0  0  0  0
  -30.6972  -21.9377   21.3987 H   0  0  0  0  0  0
  -29.5758  -22.3727   22.6496 H   0  0  0  0  0  0
  -29.2269  -24.5889   21.8332 H   0  0  0  0  0  0
  -30.2261  -24.4895   20.4023 H   0  0  0  0  0  0
  -27.2124  -24.8859   20.4372 H   0  0  0  0  0  0
  -28.1787  -24.9237   18.9731 H   0  0  0  0  0  0
  -29.0728  -15.3787   21.3765 H   0  0  0  0  0  0
  -27.9352  -22.6847   20.8279 H   0  0  0  0  0  0
  -29.1302  -22.4982   19.7520 H   0  0  0  0  0  0
  1 25  1  0  0  0
  1 30  2  0  0  0
  1 85  1  0  0  0
  2  3  1  0  0  0
  2 25  1  0  0  0
  2 87  1  0  0  0
  2 88  1  0  0  0
  3  4  1  0  0  0
  3 89  1  0  0  0
  3 90  1  0  0  0
  4  5  1  0  0  0
  4 91  1  0  0  0
  4 92  1  0  0  0
  5  6  1  0  0  0
  5 26  1  0  0  0
  5 93  1  0  0  0
  6 25  1  0  0  0
  6 94  1  0  0  0
  6 95  1  0  0  0
  7  8  2  0  0  0
  7 26  1  0  0  0
  7 29  1  0  0  0
  8  9  1  0  0  0
  8 22  1  0  0  0
  9 10  1  0  0  0
  9 27  2  0  0  0
 10 11  2  0  0  0
 10 15  1  0  0  0
 11 12  1  0  0  0
 11 96  1  0  0  0
 12 13  2  0  0  0
 12 97  1  0  0  0
 13 14  1  0  0  0
 13 31  1  0  0  0
 14 15  2  0  0  0
 14 98  1  0  0  0
 15 99  1  0  0  0
 16 17  2  0  0  0
 16 21  1  0  0  0
 16 31  1  0  0  0
 17 18  1  0  0  0
 17100  1  0  0  0
 18 19  2  0  0  0
 18101  1  0  0  0
 19 20  1  0  0  0
 19 24  1  0  0  0
 20 21  2  0  0  0
 20102  1  0  0  0
 21 23  1  0  0  0
 22 28  1  0  0  0
 22 32  2  0  0  0
 26 27  1  0  0  0
 28103  1  0  0  0
 28104  1  0  0  0
 29105  1  0  0  0
 29106  1  0  0  0
 33 34  1  0  0  0
 33 66  1  0  0  0
 33 70  2  0  0  0
 34 36  1  0  0  0
 34 59  1  0  0  0
 34107  1  0  0  0
 35 44  2  0  0  0
 35 45  1  0  0  0
 35 68  1  0  0  0
 36 56  1  0  0  0
 36108  1  0  0  0
 37 39  1  0  0  0
 37 47  1  0  0  0
 37 66  1  0  0  0
 37109  1  0  0  0
 38 43  2  0  0  0
 38 46  1  0  0  0
 38 47  1  0  0  0
 39 64  1  0  0  0
 39 67  2  0  0  0
 40 52  1  0  0  0
 40 53  2  0  0  0
 40 58  1  0  0  0
 41110  1  0  0  0
 41111  1  0  0  0
 41112  1  0  0  0
 41 48  1  0  0  0
 42 43  1  0  0  0
 42 66  1  0  0  0
 42113  1  0  0  0
 42114  1  0  0  0
 43 44  1  0  0  0
 44115  1  0  0  0
 45 46  2  0  0  0
 45116  1  0  0  0
 46117  1  0  0  0
 47118  1  0  0  0
 47119  1  0  0  0
 48 56  1  0  0  0
 48 65  1  0  0  0
 48120  1  0  0  0
 49 50  1  0  0  0
 49 53  1  0  0  0
 49 64  1  0  0  0
 49121  1  0  0  0
 50 51  1  0  0  0
 50122  1  0  0  0
 50123  1  0  0  0
 51 52  1  0  0  0
 51124  1  0  0  0
 51125  1  0  0  0
 52126  1  0  0  0
 52127  1  0  0  0
 53 54  1  0  0  0
 54 55  2  0  0  0
 54128  1  0  0  0
 55 57  1  0  0  0
 55129  1  0  0  0
 56 69  2  0  0  0
 57 58  2  0  0  0
 57130  1  0  0  0
 58131  1  0  0  0
 59 60  1  0  0  0
 59 61  1  0  0  0
 59 62  1  0  0  0
 60132  1  0  0  0
 60133  1  0  0  0
 60134  1  0  0  0
 61135  1  0  0  0
 61136  1  0  0  0
 61137  1  0  0  0
 62138  1  0  0  0
 62139  1  0  0  0
 62140  1  0  0  0
 63 65  1  0  0  0
 63141  1  0  0  0
 63142  1  0  0  0
 63143  1  0  0  0
 64144  1  0  0  0
 65145  1  0  0  0
 68 84  1  0  0  0
 71 72  2  0  0  0
 71 73  1  0  0  0
 71146  1  0  0  0
 72 74  1  0  0  0
 72147  1  0  0  0
 73 77  2  0  0  0
 73148  1  0  0  0
 74 78  2  0  0  0
 74149  1  0  0  0
 75 77  1  0  0  0
 75 79  2  0  0  0
 75150  1  0  0  0
 76 79  1  0  0  0
 76 80  2  0  0  0
 76151  1  0  0  0
 77 78  1  0  0  0
 78 80  1  0  0  0
 79 81  1  0  0  0
 80 82  1  0  0  0
 81 85  1  0  0  0
 81152  1  0  0  0
 81153  1  0  0  0
 82 86  1  0  0  0
 82154  1  0  0  0
 82155  1  0  0  0
 83 84  1  0  0  0
 83 86  1  0  0  0
 83156  1  0  0  0
 83157  1  0  0  0
 84158  1  0  0  0
 84159  1  0  0  0
 85160  1  0  0  0
 86161  1  0  0  0
 86162  1  0  0  0
M  CHG  1  86   1
M  ISO  4   1 100  68 101  84 101  85 100
M  END
> <chiral flag>
0

> <version>
0

> <s_m_source_file>
/data/baiqing/PycharmProjects/Reinvent-master-3.2/result/LINK_invent/BTK/process_docking_weight1_custom_product_contain_oxygen_bond_distance_aromatic_linkinvent_7_9_3/rearranged_h_0005.sdf

> <i_m_source_file_index>
46

> <r_mmod_Potential_Energy-OPLS-2005>
-263.548309326172

> <r_mmod_Stretch_Energy-OPLS-2005>
46.7949676513672

> <r_mmod_Bend_Energy-OPLS-2005>
96.8008270263672

> <r_mmod_Torsional_Energy-OPLS-2005>
188.170639038086

> <r_mmod_Improper_Torsional_Energy-OPLS-2005>
4.17766380310059

> <r_mmod_Van_der_Waal_Energy-OPLS-2005>
169.13427734375

> <r_mmod_Electrostatic_Energy-OPLS-2005>
-329.348937988281

> <r_mmod_Solvation_Energy-OPLS-2005>
-458.896850585938

> <b_mmod_Minimization_Converged-OPLS-2005>
0

> <r_mmod_RMS_Derivative-OPLS-2005>
1.61069107055664

$$$$
46
                    3D
 Structure written by MMmdl.
183193  0  0  1  0            999 V2000
  -30.7561  -14.3794   20.7005 C   0  0  0  0  0  0
  -30.4317  -12.3107   19.3871 C   0  0  0  0  0  0
  -29.4844  -12.5105   18.1899 C   0  0  0  0  0  0
  -28.0115  -12.3593   18.6169 C   0  0  0  0  0  0
  -27.6657  -13.1935   19.8772 C   0  0  2  0  0  0
  -28.7054  -12.9351   20.9875 C   0  0  0  0  0  0
  -25.2623  -13.8129   20.5672 C   0  0  0  0  0  0
  -24.1854  -13.0430   20.9169 C   0  0  0  0  0  0
  -24.6385  -11.6890   20.8751 C   0  0  0  0  0  0
  -23.9053  -10.4285   21.0421 C   0  0  0  0  0  0
  -24.3603   -9.4202   21.9196 C   0  0  0  0  0  0
  -23.6280   -8.2238   22.0764 C   0  0  0  0  0  0
  -22.4265   -8.0278   21.3551 C   0  0  0  0  0  0
  -21.9895   -9.0261   20.4659 C   0  0  0  0  0  0
  -22.7224  -10.2138   20.3071 C   0  0  0  0  0  0
  -21.6850   -6.0734   22.5279 C   0  0  0  0  0  0
  -21.4006   -6.5641   23.8212 C   0  0  0  0  0  0
  -21.3658   -5.6793   24.9178 C   0  0  0  0  0  0
  -21.6043   -4.3060   24.7228 C   0  0  0  0  0  0
  -21.8817   -3.8146   23.4350 C   0  0  0  0  0  0
  -21.9189   -4.6957   22.3403 C   0  0  0  0  0  0
  -22.7882  -13.5255   21.1826 C   0  0  0  0  0  0
  -22.1660   -4.2143   21.0982 F   0  0  0  0  0  0
  -21.5628   -3.4543   25.7742 F   0  0  0  0  0  0
  -30.0409  -13.2537   20.4424 N   0  0  0  0  0  0
  -26.3041  -12.9273   20.3375 N   0  0  0  0  0  0
  -25.9309  -11.6447   20.5784 N   0  0  0  0  0  0
  -22.0513  -12.8277   22.0392 N   0  0  0  0  0  0
  -25.4380  -15.1840   20.4070 N   0  0  0  0  0  0
  -31.8074  -14.6725   20.1206 O   0  0  0  0  0  0
  -21.6633   -6.8873   21.4239 O   0  0  0  0  0  0
  -22.3589  -14.5568   20.6668 O   0  0  0  0  0  0
  -24.6101  -31.8709   23.2118 C   0  0  0  0  0  0
  -25.9011  -32.4843   23.8399 C   0  0  1  0  0  0
  -27.2411  -27.4678   20.0846 C   0  0  0  0  0  0
  -25.5889  -33.8642   24.2337 N   0  0  0  0  0  0
  -23.3945  -30.4946   21.5494 C   0  0  2  0  0  0
  -24.8391  -28.9591   20.1185 C   0  0  0  0  0  0
  -22.7388  -29.4668   22.4997 C   0  0  0  0  0  0
  -18.0272  -28.1360   22.8491 C   0  0  0  0  0  0
  -24.1485  -36.7310   23.2640 C   0  0  0  0  0  0
  -25.9190  -30.8470   21.3572 C   0  0  0  0  0  0
  -25.9946  -29.4811   20.7086 C   0  0  0  0  0  0
  -27.1931  -28.7415   20.6880 C   0  0  0  0  0  0
  -26.0608  -26.9406   19.5095 C   0  0  0  0  0  0
  -24.8649  -27.6862   19.5217 C   0  0  0  0  0  0
  -23.6003  -29.8237   20.1649 C   0  0  0  0  0  0
  -25.4106  -36.3126   24.0348 C   0  0  1  0  0  0
  -20.5854  -28.3632   23.1329 C   0  0  2  0  0  0
  -20.6760  -26.9374   22.5418 C   0  0  0  0  0  0
  -19.5743  -26.6367   21.5210 C   0  0  0  0  0  0
  -18.1920  -26.7905   22.1610 C   0  0  0  0  0  0
  -19.1522  -28.8812   23.2907 C   0  0  0  0  0  0
  -18.9455  -30.1422   23.8914 C   0  0  0  0  0  0
  -17.6464  -30.6571   24.0570 C   0  0  0  0  0  0
  -25.9024  -34.9489   23.5136 C   0  0  0  0  0  0
  -16.5352  -29.9078   23.6328 C   0  0  0  0  0  0
  -16.7261  -28.6494   23.0348 C   0  0  0  0  0  0
  -26.4444  -31.6625   25.0720 C   0  0  0  0  0  0
  -25.3721  -31.3759   26.1493 C   0  0  0  0  0  0
  -27.0259  -30.3078   24.6050 C   0  0  0  0  0  0
  -27.6034  -32.4341   25.7470 C   0  0  0  0  0  0
  -27.5586  -37.1801   24.8469 C   0  0  0  0  0  0
  -21.4114  -29.3027   22.3755 N   0  0  0  0  0  0
  -26.4296  -37.3811   23.9421 N   0  0  0  0  0  0
  -24.6591  -31.0855   22.0991 N   0  0  0  0  0  0
  -23.4196  -28.8207   23.3007 O   0  0  0  0  0  0
  -28.4695  -26.8476   20.0538 O   0  0  0  0  0  0
  -26.5591  -34.8939   22.4698 O   0  0  0  0  0  0
  -23.5297  -32.1429   23.7546 O   0  0  0  0  0  0
  -31.8723  -16.6623   22.6924 C   0  0  0  0  0  0
  -30.5341  -15.1112   24.0166 C   0  0  0  0  0  0
  -32.5289  -17.1041   23.8672 C   0  0  0  0  0  0
  -32.1920  -16.5264   25.1216 C   0  0  0  0  0  0
  -30.8899  -15.6498   22.7663 C   0  0  0  0  0  0
  -31.1872  -15.5361   25.1853 C   0  0  0  0  0  0
  -31.3282  -21.0257   23.2202 C   0  0  0  0  0  0
  -36.2145  -20.8153   22.8179 C   0  0  0  0  0  0
  -35.9249  -21.6579   24.0583 C   0  0  0  0  0  0
  -35.0001  -21.0382   21.9116 C   0  0  0  0  0  0
  -33.9472  -20.3183   25.0094 C   0  0  0  0  0  0
  -32.6968  -20.3664   22.9571 C   0  0  1  0  0  0
  -34.4047  -21.5710   24.2399 C   0  0  2  0  0  0
  -33.8196  -21.4231   22.8290 C   0  0  1  0  0  0
  -32.9009  -16.9371   26.4063 C   0  0  0  0  0  0
  -33.6063  -18.1782   23.7590 C   0  0  0  0  0  0
  -29.4673  -23.3877   20.9904 C   0  0  0  0  0  0
  -28.6292  -24.6732   21.0974 C   0  0  0  0  0  0
  -29.6472  -22.6375   22.3224 C   0  0  0  0  0  0
  -28.6087  -25.4610   19.7751 C   0  0  0  0  0  0
  -30.2035  -15.1711   21.6277 N   0  0  0  0  0  0
  -30.8085  -21.7589   22.2275 N   0  0  0  0  0  0
  -33.0739  -19.5208   24.1120 N   0  3  1  0  0  0
  -30.7699  -20.8894   24.3112 O   0  0  0  0  0  0
  -30.8478  -14.9753   26.3699 F   0  0  0  0  0  0
  -31.4681  -12.4448   19.0717 H   0  0  0  0  0  0
  -30.3679  -11.2898   19.7655 H   0  0  0  0  0  0
  -29.7197  -11.7905   17.4056 H   0  0  0  0  0  0
  -29.6420  -13.4987   17.7566 H   0  0  0  0  0  0
  -27.8331  -11.3016   18.8176 H   0  0  0  0  0  0
  -27.3500  -12.6271   17.7922 H   0  0  0  0  0  0
  -27.7251  -14.2465   19.5995 H   0  0  0  0  0  0
  -28.6843  -11.8869   21.2905 H   0  0  0  0  0  0
  -28.4394  -13.4896   21.8882 H   0  0  0  0  0  0
  -25.2752   -9.5672   22.4770 H   0  0  0  0  0  0
  -23.9988   -7.4625   22.7483 H   0  0  0  0  0  0
  -21.0825   -8.8791   19.8966 H   0  0  0  0  0  0
  -22.3697  -10.9684   19.6184 H   0  0  0  0  0  0
  -21.2000   -7.6149   23.9713 H   0  0  0  0  0  0
  -21.1477   -6.0529   25.9081 H   0  0  0  0  0  0
  -22.0592   -2.7604   23.2856 H   0  0  0  0  0  0
  -22.4123  -11.9955   22.4806 H   0  0  0  0  0  0
  -21.1130  -13.1332   22.2584 H   0  0  0  0  0  0
  -24.6746  -15.8428   20.5189 H   0  0  0  0  0  0
  -26.2946  -15.6200   20.0880 H   0  0  0  0  0  0
  -26.7078  -32.5562   23.1161 H   0  0  0  0  0  0
  -25.0120  -33.9834   25.0534 H   0  0  0  0  0  0
  -22.6803  -31.3091   21.4096 H   0  0  0  0  0  0
  -23.3766  -35.9629   23.3315 H   0  0  0  0  0  0
  -24.3589  -36.8905   22.2055 H   0  0  0  0  0  0
  -23.7198  -37.6503   23.6635 H   0  0  0  0  0  0
  -26.0245  -31.6120   20.5860 H   0  0  0  0  0  0
  -26.8120  -30.9045   21.9670 H   0  0  0  0  0  0
  -28.0898  -29.1517   21.1296 H   0  0  0  0  0  0
  -26.0371  -25.9742   19.0300 H   0  0  0  0  0  0
  -23.9722  -27.2784   19.0672 H   0  0  0  0  0  0
  -23.7024  -30.5960   19.4017 H   0  0  0  0  0  0
  -22.7259  -29.2379   19.8736 H   0  0  0  0  0  0
  -25.1264  -36.2009   25.0838 H   0  0  0  0  0  0
  -20.9947  -28.3179   24.1444 H   0  0  0  0  0  0
  -20.5644  -26.2234   23.3600 H   0  0  0  0  0  0
  -21.6624  -26.7407   22.1220 H   0  0  0  0  0  0
  -19.6914  -25.6285   21.1220 H   0  0  0  0  0  0
  -19.6693  -27.3202   20.6766 H   0  0  0  0  0  0
  -17.4193  -26.6679   21.4009 H   0  0  0  0  0  0
  -18.0299  -26.0030   22.8985 H   0  0  0  0  0  0
  -19.7943  -30.7229   24.2273 H   0  0  0  0  0  0
  -17.5032  -31.6255   24.5169 H   0  0  0  0  0  0
  -15.5359  -30.3002   23.7631 H   0  0  0  0  0  0
  -15.8654  -28.0831   22.7045 H   0  0  0  0  0  0
  -24.5948  -30.7002   25.7898 H   0  0  0  0  0  0
  -24.8836  -32.2921   26.4829 H   0  0  0  0  0  0
  -25.8103  -30.9072   27.0318 H   0  0  0  0  0  0
  -26.2777  -29.6865   24.1108 H   0  0  0  0  0  0
  -27.4074  -29.7281   25.4467 H   0  0  0  0  0  0
  -27.8587  -30.4433   23.9145 H   0  0  0  0  0  0
  -27.2671  -33.3674   26.2005 H   0  0  0  0  0  0
  -28.3854  -32.6854   25.0289 H   0  0  0  0  0  0
  -28.0670  -31.8482   26.5415 H   0  0  0  0  0  0
  -28.2608  -38.0102   24.7540 H   0  0  0  0  0  0
  -28.1076  -36.2633   24.6250 H   0  0  0  0  0  0
  -27.2319  -37.1394   25.8880 H   0  0  0  0  0  0
  -20.9255  -29.8772   21.7015 H   0  0  0  0  0  0
  -26.0196  -38.2894   24.1447 H   0  0  0  0  0  0
  -32.1274  -17.0936   21.7333 H   0  0  0  0  0  0
  -29.7739  -14.3468   24.0905 H   0  0  0  0  0  0
  -36.2929  -19.7612   23.0879 H   0  0  0  0  0  0
  -37.1508  -21.0980   22.3349 H   0  0  0  0  0  0
  -36.2106  -22.6937   23.8704 H   0  0  0  0  0  0
  -36.4837  -21.3261   24.9348 H   0  0  0  0  0  0
  -34.7966  -20.1746   21.2764 H   0  0  0  0  0  0
  -35.2125  -21.8731   21.2421 H   0  0  0  0  0  0
  -33.3618  -20.6172   25.8810 H   0  0  0  0  0  0
  -34.7930  -19.7524   25.4014 H   0  0  0  0  0  0
  -32.5881  -19.7780   22.0445 H   0  0  0  0  0  0
  -34.0187  -22.4628   24.7370 H   0  0  0  0  0  0
  -33.4284  -22.3826   22.4840 H   0  0  0  0  0  0
  -33.9556  -16.6641   26.3665 H   0  0  0  0  0  0
  -32.4778  -16.4464   27.2824 H   0  0  0  0  0  0
  -32.8222  -18.0097   26.5743 H   0  0  0  0  0  0
  -34.0483  -18.1799   22.7622 H   0  0  0  0  0  0
  -34.4296  -17.8899   24.4110 H   0  0  0  0  0  0
  -30.4515  -23.6686   20.6095 H   0  0  0  0  0  0
  -29.0336  -22.7177   20.2456 H   0  0  0  0  0  0
  -29.0732  -25.3043   21.8690 H   0  0  0  0  0  0
  -27.6112  -24.4632   21.4269 H   0  0  0  0  0  0
  -28.7508  -22.0669   22.5715 H   0  0  0  0  0  0
  -29.8076  -23.3476   23.1365 H   0  0  0  0  0  0
  -27.8963  -25.0518   19.0626 H   0  0  0  0  0  0
  -29.5783  -25.3706   19.2832 H   0  0  0  0  0  0
  -29.2615  -14.8678   21.8248 H   0  0  0  0  0  0
  -31.3207  -21.7819   21.3551 H   0  0  0  0  0  0
  -32.1997  -19.3821   24.6020 H   0  0  0  0  0  0
  1 25  1  0  0  0
  1 30  2  0  0  0
  1 91  1  0  0  0
  2  3  1  0  0  0
  2 25  1  0  0  0
  2 96  1  0  0  0
  2 97  1  0  0  0
  3  4  1  0  0  0
  3 98  1  0  0  0
  3 99  1  0  0  0
  4  5  1  0  0  0
  4100  1  0  0  0
  4101  1  0  0  0
  5  6  1  0  0  0
  5 26  1  0  0  0
  5102  1  0  0  0
  6 25  1  0  0  0
  6103  1  0  0  0
  6104  1  0  0  0
  7  8  2  0  0  0
  7 26  1  0  0  0
  7 29  1  0  0  0
  8  9  1  0  0  0
  8 22  1  0  0  0
  9 10  1  0  0  0
  9 27  2  0  0  0
 10 11  2  0  0  0
 10 15  1  0  0  0
 11 12  1  0  0  0
 11105  1  0  0  0
 12 13  2  0  0  0
 12106  1  0  0  0
 13 14  1  0  0  0
 13 31  1  0  0  0
 14 15  2  0  0  0
 14107  1  0  0  0
 15108  1  0  0  0
 16 17  2  0  0  0
 16 21  1  0  0  0
 16 31  1  0  0  0
 17 18  1  0  0  0
 17109  1  0  0  0
 18 19  2  0  0  0
 18110  1  0  0  0
 19 20  1  0  0  0
 19 24  1  0  0  0
 20 21  2  0  0  0
 20111  1  0  0  0
 21 23  1  0  0  0
 22 28  1  0  0  0
 22 32  2  0  0  0
 26 27  1  0  0  0
 28112  1  0  0  0
 28113  1  0  0  0
 29114  1  0  0  0
 29115  1  0  0  0
 33 34  1  0  0  0
 33 66  1  0  0  0
 33 70  2  0  0  0
 34 36  1  0  0  0
 34 59  1  0  0  0
 34116  1  0  0  0
 35 44  2  0  0  0
 35 45  1  0  0  0
 35 68  1  0  0  0
 36 56  1  0  0  0
 36117  1  0  0  0
 37 39  1  0  0  0
 37 47  1  0  0  0
 37 66  1  0  0  0
 37118  1  0  0  0
 38 43  2  0  0  0
 38 46  1  0  0  0
 38 47  1  0  0  0
 39 64  1  0  0  0
 39 67  2  0  0  0
 40 52  1  0  0  0
 40 53  2  0  0  0
 40 58  1  0  0  0
 41119  1  0  0  0
 41120  1  0  0  0
 41121  1  0  0  0
 41 48  1  0  0  0
 42 43  1  0  0  0
 42 66  1  0  0  0
 42122  1  0  0  0
 42123  1  0  0  0
 43 44  1  0  0  0
 44124  1  0  0  0
 45 46  2  0  0  0
 45125  1  0  0  0
 46126  1  0  0  0
 47127  1  0  0  0
 47128  1  0  0  0
 48 56  1  0  0  0
 48 65  1  0  0  0
 48129  1  0  0  0
 49 50  1  0  0  0
 49 53  1  0  0  0
 49 64  1  0  0  0
 49130  1  0  0  0
 50 51  1  0  0  0
 50131  1  0  0  0
 50132  1  0  0  0
 51 52  1  0  0  0
 51133  1  0  0  0
 51134  1  0  0  0
 52135  1  0  0  0
 52136  1  0  0  0
 53 54  1  0  0  0
 54 55  2  0  0  0
 54137  1  0  0  0
 55 57  1  0  0  0
 55138  1  0  0  0
 56 69  2  0  0  0
 57 58  2  0  0  0
 57139  1  0  0  0
 58140  1  0  0  0
 59 60  1  0  0  0
 59 61  1  0  0  0
 59 62  1  0  0  0
 60141  1  0  0  0
 60142  1  0  0  0
 60143  1  0  0  0
 61144  1  0  0  0
 61145  1  0  0  0
 61146  1  0  0  0
 62147  1  0  0  0
 62148  1  0  0  0
 62149  1  0  0  0
 63 65  1  0  0  0
 63150  1  0  0  0
 63151  1  0  0  0
 63152  1  0  0  0
 64153  1  0  0  0
 65154  1  0  0  0
 68 90  1  0  0  0
 71 73  2  0  0  0
 71 75  1  0  0  0
 71155  1  0  0  0
 72 75  2  0  0  0
 72 76  1  0  0  0
 72156  1  0  0  0
 73 74  1  0  0  0
 73 86  1  0  0  0
 74 76  2  0  0  0
 74 85  1  0  0  0
 75 91  1  0  0  0
 76 95  1  0  0  0
 77 92  1  0  0  0
 77 94  2  0  0  0
 77 82  1  0  0  0
 78 79  1  0  0  0
 78 80  1  0  0  0
 78157  1  0  0  0
 78158  1  0  0  0
 79159  1  0  0  0
 79160  1  0  0  0
 79 83  1  0  0  0
 80161  1  0  0  0
 80162  1  0  0  0
 80 84  1  0  0  0
 81 83  1  0  0  0
 81 93  1  0  0  0
 81163  1  0  0  0
 81164  1  0  0  0
 82 84  1  0  0  0
 82 93  1  0  0  0
 82165  1  0  0  0
 83 84  1  0  0  0
 83166  1  0  0  0
 84167  1  0  0  0
 85168  1  0  0  0
 85169  1  0  0  0
 85170  1  0  0  0
 86171  1  0  0  0
 86172  1  0  0  0
 86 93  1  0  0  0
 87 88  1  0  0  0
 87 89  1  0  0  0
 87173  1  0  0  0
 87174  1  0  0  0
 88 90  1  0  0  0
 88175  1  0  0  0
 88176  1  0  0  0
 89 92  1  0  0  0
 89177  1  0  0  0
 89178  1  0  0  0
 90179  1  0  0  0
 90180  1  0  0  0
 91181  1  0  0  0
 92182  1  0  0  0
 93183  1  0  0  0
M  CHG  1  93   1
M  ISO  4   1 100  68 101  90 101  91 100
M  END
> <chiral flag>
0

> <version>
0

> <s_m_source_file>
/data/baiqing/PycharmProjects/Reinvent-master-3.2/result/LINK_invent/BTK/process_docking_weight1_custom_product_contain_oxygen_bond_distance_aromatic_linkinvent_7_9_3/rearranged_h_0005.sdf

> <i_m_source_file_index>
47

> <r_mmod_Potential_Energy-OPLS-2005>
-103.118804931641

> <r_mmod_Stretch_Energy-OPLS-2005>
34.6981163024902

> <r_mmod_Bend_Energy-OPLS-2005>
147.369064331055

> <r_mmod_Torsional_Energy-OPLS-2005>
358.576263427734

> <r_mmod_Improper_Torsional_Energy-OPLS-2005>
5.40304899215698

> <r_mmod_Van_der_Waal_Energy-OPLS-2005>
150.968811035156

> <r_mmod_Electrostatic_Energy-OPLS-2005>
-377.273834228516

> <r_mmod_Solvation_Energy-OPLS-2005>
-432.496490478516

> <b_mmod_Minimization_Converged-OPLS-2005>
0

> <r_mmod_RMS_Derivative-OPLS-2005>
2.18618845939636

$$$$
47
                    3D
 Structure written by MMmdl.
160168  0  0  1  0            999 V2000
  -30.6688  -14.5397   20.4505 C   0  0  0  0  0  0
  -30.4228  -12.2933   19.4651 C   0  0  0  0  0  0
  -29.5118  -12.3969   18.2248 C   0  0  0  0  0  0
  -28.0193  -12.3339   18.6147 C   0  0  0  0  0  0
  -27.6517  -13.2104   19.8455 C   0  0  2  0  0  0
  -28.6905  -13.0668   20.9804 C   0  0  0  0  0  0
  -25.2573  -13.8178   20.5647 C   0  0  0  0  0  0
  -24.1833  -13.0455   20.9134 C   0  0  0  0  0  0
  -24.6355  -11.6924   20.8646 C   0  0  0  0  0  0
  -23.9000  -10.4322   21.0332 C   0  0  0  0  0  0
  -24.3570   -9.4269   21.9139 C   0  0  0  0  0  0
  -23.6285   -8.2286   22.0730 C   0  0  0  0  0  0
  -22.4270   -8.0287   21.3524 C   0  0  0  0  0  0
  -21.9861   -9.0236   20.4622 C   0  0  0  0  0  0
  -22.7146  -10.2138   20.3005 C   0  0  0  0  0  0
  -21.6884   -6.0738   22.5268 C   0  0  0  0  0  0
  -21.4023   -6.5639   23.8204 C   0  0  0  0  0  0
  -21.3660   -5.6779   24.9154 C   0  0  0  0  0  0
  -21.6050   -4.3048   24.7187 C   0  0  0  0  0  0
  -21.8833   -3.8138   23.4308 C   0  0  0  0  0  0
  -21.9205   -4.6963   22.3373 C   0  0  0  0  0  0
  -22.7876  -13.5271   21.1833 C   0  0  0  0  0  0
  -22.1681   -4.2145   21.0956 F   0  0  0  0  0  0
  -21.5628   -3.4528   25.7707 F   0  0  0  0  0  0
  -30.0160  -13.3442   20.4130 N   0  0  0  0  0  0
  -26.2975  -12.9341   20.3198 N   0  0  0  0  0  0
  -25.9281  -11.6503   20.5652 N   0  0  0  0  0  0
  -22.0516  -12.8248   22.0365 N   0  0  0  0  0  0
  -25.4292  -15.1904   20.4135 N   0  0  0  0  0  0
  -31.8603  -14.6555   20.1626 O   0  0  0  0  0  0
  -21.6659   -6.8870   21.4228 O   0  0  0  0  0  0
  -22.3600  -14.5612   20.6738 O   0  0  0  0  0  0
  -24.6155  -31.8677   23.2071 C   0  0  0  0  0  0
  -25.9056  -32.4825   23.8371 C   0  0  1  0  0  0
  -27.2355  -27.4177   20.1180 C   0  0  0  0  0  0
  -25.5914  -33.8620   24.2305 N   0  0  0  0  0  0
  -23.4049  -30.4904   21.5477 C   0  0  2  0  0  0
  -24.8550  -28.9601   20.1089 C   0  0  0  0  0  0
  -22.7426  -29.4667   22.4978 C   0  0  0  0  0  0
  -18.0280  -28.1389   22.8495 C   0  0  0  0  0  0
  -24.1495  -36.7307   23.2635 C   0  0  0  0  0  0
  -25.9353  -30.8345   21.3605 C   0  0  0  0  0  0
  -26.0160  -29.4693   20.7043 C   0  0  0  0  0  0
  -27.2114  -28.7108   20.6959 C   0  0  0  0  0  0
  -26.0575  -26.9347   19.5016 C   0  0  0  0  0  0
  -24.8742  -27.6964   19.4973 C   0  0  0  0  0  0
  -23.6130  -29.8213   20.1629 C   0  0  0  0  0  0
  -25.4121  -36.3108   24.0328 C   0  0  1  0  0  0
  -20.5874  -28.3672   23.1323 C   0  0  2  0  0  0
  -20.6782  -26.9410   22.5423 C   0  0  0  0  0  0
  -19.5763  -26.6391   21.5222 C   0  0  0  0  0  0
  -18.1930  -26.7939   22.1617 C   0  0  0  0  0  0
  -19.1530  -28.8849   23.2901 C   0  0  0  0  0  0
  -18.9454  -30.1458   23.8906 C   0  0  0  0  0  0
  -17.6457  -30.6599   24.0567 C   0  0  0  0  0  0
  -25.9042  -34.9481   23.5111 C   0  0  0  0  0  0
  -16.5347  -29.9095   23.6340 C   0  0  0  0  0  0
  -16.7268  -28.6514   23.0354 C   0  0  0  0  0  0
  -26.4471  -31.6615   25.0712 C   0  0  0  0  0  0
  -25.3712  -31.3771   26.1445 C   0  0  0  0  0  0
  -27.0291  -30.3042   24.6120 C   0  0  0  0  0  0
  -27.6042  -32.4336   25.7488 C   0  0  0  0  0  0
  -27.5589  -37.1803   24.8455 C   0  0  0  0  0  0
  -21.4150  -29.3028   22.3713 N   0  0  0  0  0  0
  -26.4300  -37.3794   23.9405 N   0  0  0  0  0  0
  -24.6700  -31.0793   22.0966 N   0  0  0  0  0  0
  -23.4199  -28.8214   23.3022 O   0  0  0  0  0  0
  -28.3849  -26.6457   20.1771 O   0  0  0  0  0  0
  -26.5599  -34.8931   22.4665 O   0  0  0  0  0  0
  -23.5347  -32.1428   23.7471 O   0  0  0  0  0  0
  -30.7022  -19.5927   19.1360 C   0  0  0  0  0  0
  -30.8172  -18.4929   18.2739 C   0  0  0  0  0  0
  -29.9914  -18.0914   20.9124 C   0  0  0  0  0  0
  -30.2096  -19.4218   20.4452 C   0  0  0  0  0  0
  -30.4697  -17.1894   18.6875 C   0  0  0  0  0  0
  -30.1530  -16.9544   20.0664 C   0  0  0  0  0  0
  -29.4584  -24.5231   20.9679 C   0  0  0  0  0  0
  -29.6826  -22.0063   20.5643 C   0  0  0  0  0  0
  -28.1874  -25.2305   20.4186 C   0  0  0  0  0  0
  -29.8960  -20.6500   21.3263 C   0  0  2  0  0  0
  -30.3136  -16.1360   17.5865 C   0  0  0  0  0  0
  -29.8899  -15.6377   20.6070 N   0  0  0  0  0  0
  -29.2454  -23.1173   21.4563 N   0  3  0  0  0  0
  -30.9006  -20.8349   22.3092 O   0  0  0  0  0  0
  -30.2556  -16.6925   16.3747 F   0  0  0  0  0  0
  -31.3137  -15.2579   17.5617 F   0  0  0  0  0  0
  -29.1527  -15.5109   17.7663 F   0  0  0  0  0  0
  -31.4722  -12.3720   19.1775 H   0  0  0  0  0  0
  -30.3168  -11.3100   19.9275 H   0  0  0  0  0  0
  -29.7383  -11.5868   17.5306 H   0  0  0  0  0  0
  -29.7342  -13.3042   17.6753 H   0  0  0  0  0  0
  -27.7950  -11.2880   18.8224 H   0  0  0  0  0  0
  -27.3970  -12.6062   17.7616 H   0  0  0  0  0  0
  -27.6703  -14.2433   19.4987 H   0  0  0  0  0  0
  -28.6660  -12.0571   21.3939 H   0  0  0  0  0  0
  -28.4521  -13.7381   21.8079 H   0  0  0  0  0  0
  -25.2689   -9.5819   22.4724 H   0  0  0  0  0  0
  -24.0021   -7.4698   22.7464 H   0  0  0  0  0  0
  -21.0790   -8.8700   19.8946 H   0  0  0  0  0  0
  -22.3533  -10.9662   19.6124 H   0  0  0  0  0  0
  -21.2010   -7.6146   23.9700 H   0  0  0  0  0  0
  -21.1485   -6.0505   25.9072 H   0  0  0  0  0  0
  -22.0605   -2.7601   23.2784 H   0  0  0  0  0  0
  -22.4134  -11.9893   22.4714 H   0  0  0  0  0  0
  -21.1153  -13.1313   22.2613 H   0  0  0  0  0  0
  -24.6595  -15.8414   20.5292 H   0  0  0  0  0  0
  -26.2679  -15.6301   20.0579 H   0  0  0  0  0  0
  -26.7134  -32.5538   23.1142 H   0  0  0  0  0  0
  -25.0094  -33.9788   25.0474 H   0  0  0  0  0  0
  -22.6918  -31.3057   21.4084 H   0  0  0  0  0  0
  -23.3764  -35.9628   23.3285 H   0  0  0  0  0  0
  -24.3595  -36.8931   22.2050 H   0  0  0  0  0  0
  -23.7230  -37.6501   23.6655 H   0  0  0  0  0  0
  -26.0507  -31.6068   20.5982 H   0  0  0  0  0  0
  -26.8204  -30.8828   21.9842 H   0  0  0  0  0  0
  -28.1054  -29.1050   21.1599 H   0  0  0  0  0  0
  -26.0355  -25.9680   19.0209 H   0  0  0  0  0  0
  -23.9868  -27.3023   19.0225 H   0  0  0  0  0  0
  -23.7068  -30.5933   19.3978 H   0  0  0  0  0  0
  -22.7402  -29.2306   19.8769 H   0  0  0  0  0  0
  -25.1300  -36.1962   25.0818 H   0  0  0  0  0  0
  -20.9966  -28.3236   24.1448 H   0  0  0  0  0  0
  -20.5721  -26.2269   23.3602 H   0  0  0  0  0  0
  -21.6644  -26.7484   22.1188 H   0  0  0  0  0  0
  -19.6923  -25.6302   21.1252 H   0  0  0  0  0  0
  -19.6721  -27.3204   20.6752 H   0  0  0  0  0  0
  -17.4216  -26.6704   21.3998 H   0  0  0  0  0  0
  -18.0315  -26.0082   22.9013 H   0  0  0  0  0  0
  -19.7926  -30.7271   24.2271 H   0  0  0  0  0  0
  -17.5017  -31.6281   24.5155 H   0  0  0  0  0  0
  -15.5348  -30.2995   23.7679 H   0  0  0  0  0  0
  -15.8665  -28.0842   22.7062 H   0  0  0  0  0  0
  -24.5881  -30.7124   25.7776 H   0  0  0  0  0  0
  -24.8918  -32.2962   26.4832 H   0  0  0  0  0  0
  -25.8036  -30.8975   27.0236 H   0  0  0  0  0  0
  -26.2845  -29.6829   24.1130 H   0  0  0  0  0  0
  -27.3978  -29.7264   25.4607 H   0  0  0  0  0  0
  -27.8720  -30.4324   23.9323 H   0  0  0  0  0  0
  -27.2647  -33.3626   26.2082 H   0  0  0  0  0  0
  -28.3859  -32.6913   25.0328 H   0  0  0  0  0  0
  -28.0704  -31.8451   26.5403 H   0  0  0  0  0  0
  -28.2592  -38.0116   24.7532 H   0  0  0  0  0  0
  -28.1101  -36.2650   24.6248 H   0  0  0  0  0  0
  -27.2311  -37.1406   25.8857 H   0  0  0  0  0  0
  -20.9307  -29.8725   21.6915 H   0  0  0  0  0  0
  -26.0189  -38.2867   24.1416 H   0  0  0  0  0  0
  -30.9344  -20.5684   18.7371 H   0  0  0  0  0  0
  -31.1098  -18.6757   17.2501 H   0  0  0  0  0  0
  -29.6726  -17.9471   21.9354 H   0  0  0  0  0  0
  -29.8101  -25.0990   21.8246 H   0  0  0  0  0  0
  -30.2652  -24.5644   20.2357 H   0  0  0  0  0  0
  -28.9348  -21.8802   19.7815 H   0  0  0  0  0  0
  -30.6085  -22.2970   20.0683 H   0  0  0  0  0  0
  -27.3848  -25.1055   21.1490 H   0  0  0  0  0  0
  -27.8658  -24.7402   19.4996 H   0  0  0  0  0  0
  -28.9684  -20.4133   21.8505 H   0  0  0  0  0  0
  -28.9667  -15.4818   20.9803 H   0  0  0  0  0  0
  -28.2826  -22.9790   21.7246 H   0  0  0  0  0  0
  -29.7912  -22.9966   22.2970 H   0  0  0  0  0  0
  -31.7444  -20.8189   21.8672 H   0  0  0  0  0  0
  1 25  1  0  0  0
  1 30  2  0  0  0
  1 82  1  0  0  0
  2  3  1  0  0  0
  2 25  1  0  0  0
  2 88  1  0  0  0
  2 89  1  0  0  0
  3  4  1  0  0  0
  3 90  1  0  0  0
  3 91  1  0  0  0
  4  5  1  0  0  0
  4 92  1  0  0  0
  4 93  1  0  0  0
  5  6  1  0  0  0
  5 26  1  0  0  0
  5 94  1  0  0  0
  6 25  1  0  0  0
  6 95  1  0  0  0
  6 96  1  0  0  0
  7  8  2  0  0  0
  7 26  1  0  0  0
  7 29  1  0  0  0
  8  9  1  0  0  0
  8 22  1  0  0  0
  9 10  1  0  0  0
  9 27  2  0  0  0
 10 11  2  0  0  0
 10 15  1  0  0  0
 11 12  1  0  0  0
 11 97  1  0  0  0
 12 13  2  0  0  0
 12 98  1  0  0  0
 13 14  1  0  0  0
 13 31  1  0  0  0
 14 15  2  0  0  0
 14 99  1  0  0  0
 15100  1  0  0  0
 16 17  2  0  0  0
 16 21  1  0  0  0
 16 31  1  0  0  0
 17 18  1  0  0  0
 17101  1  0  0  0
 18 19  2  0  0  0
 18102  1  0  0  0
 19 20  1  0  0  0
 19 24  1  0  0  0
 20 21  2  0  0  0
 20103  1  0  0  0
 21 23  1  0  0  0
 22 28  1  0  0  0
 22 32  2  0  0  0
 26 27  1  0  0  0
 28104  1  0  0  0
 28105  1  0  0  0
 29106  1  0  0  0
 29107  1  0  0  0
 33 34  1  0  0  0
 33 66  1  0  0  0
 33 70  2  0  0  0
 34 36  1  0  0  0
 34 59  1  0  0  0
 34108  1  0  0  0
 35 44  2  0  0  0
 35 45  1  0  0  0
 35 68  1  0  0  0
 36 56  1  0  0  0
 36109  1  0  0  0
 37 39  1  0  0  0
 37 47  1  0  0  0
 37 66  1  0  0  0
 37110  1  0  0  0
 38 43  2  0  0  0
 38 46  1  0  0  0
 38 47  1  0  0  0
 39 64  1  0  0  0
 39 67  2  0  0  0
 40 52  1  0  0  0
 40 53  2  0  0  0
 40 58  1  0  0  0
 41111  1  0  0  0
 41112  1  0  0  0
 41113  1  0  0  0
 41 48  1  0  0  0
 42 43  1  0  0  0
 42 66  1  0  0  0
 42114  1  0  0  0
 42115  1  0  0  0
 43 44  1  0  0  0
 44116  1  0  0  0
 45 46  2  0  0  0
 45117  1  0  0  0
 46118  1  0  0  0
 47119  1  0  0  0
 47120  1  0  0  0
 48 56  1  0  0  0
 48 65  1  0  0  0
 48121  1  0  0  0
 49 50  1  0  0  0
 49 53  1  0  0  0
 49 64  1  0  0  0
 49122  1  0  0  0
 50 51  1  0  0  0
 50123  1  0  0  0
 50124  1  0  0  0
 51 52  1  0  0  0
 51125  1  0  0  0
 51126  1  0  0  0
 52127  1  0  0  0
 52128  1  0  0  0
 53 54  1  0  0  0
 54 55  2  0  0  0
 54129  1  0  0  0
 55 57  1  0  0  0
 55130  1  0  0  0
 56 69  2  0  0  0
 57 58  2  0  0  0
 57131  1  0  0  0
 58132  1  0  0  0
 59 60  1  0  0  0
 59 61  1  0  0  0
 59 62  1  0  0  0
 60133  1  0  0  0
 60134  1  0  0  0
 60135  1  0  0  0
 61136  1  0  0  0
 61137  1  0  0  0
 61138  1  0  0  0
 62139  1  0  0  0
 62140  1  0  0  0
 62141  1  0  0  0
 63 65  1  0  0  0
 63142  1  0  0  0
 63143  1  0  0  0
 63144  1  0  0  0
 64145  1  0  0  0
 65146  1  0  0  0
 68 79  1  0  0  0
 71 72  2  0  0  0
 71 74  1  0  0  0
 71147  1  0  0  0
 72 75  1  0  0  0
 72148  1  0  0  0
 73 74  2  0  0  0
 73 76  1  0  0  0
 73149  1  0  0  0
 74 80  1  0  0  0
 75 76  2  0  0  0
 75 81  1  0  0  0
 76 82  1  0  0  0
 77 79  1  0  0  0
 77 83  1  0  0  0
 77150  1  0  0  0
 77151  1  0  0  0
 78 80  1  0  0  0
 78 83  1  0  0  0
 78152  1  0  0  0
 78153  1  0  0  0
 79154  1  0  0  0
 79155  1  0  0  0
 80 84  1  0  0  0
 80156  1  0  0  0
 81 85  1  0  0  0
 81 86  1  0  0  0
 81 87  1  0  0  0
 82157  1  0  0  0
 83158  1  0  0  0
 83159  1  0  0  0
 84160  1  0  0  0
M  CHG  1  83   1
M  ISO  4   1 100  68 101  79 101  82 100
M  END
> <chiral flag>
0

> <version>
0

> <s_m_source_file>
/data/baiqing/PycharmProjects/Reinvent-master-3.2/result/LINK_invent/BTK/process_docking_weight1_custom_product_contain_oxygen_bond_distance_aromatic_linkinvent_7_9_3/rearranged_h_0005.sdf

> <i_m_source_file_index>
48

> <r_mmod_Potential_Energy-OPLS-2005>
-116.993934631348

> <r_mmod_Stretch_Energy-OPLS-2005>
49.3550415039062

> <r_mmod_Bend_Energy-OPLS-2005>
101.380470275879

> <r_mmod_Torsional_Energy-OPLS-2005>
277.460723876953

> <r_mmod_Improper_Torsional_Energy-OPLS-2005>
6.09913682937622

> <r_mmod_Van_der_Waal_Energy-OPLS-2005>
155.150512695312

> <r_mmod_Electrostatic_Energy-OPLS-2005>
-249.232955932617

> <r_mmod_Solvation_Energy-OPLS-2005>
-485.866668701172

> <b_mmod_Minimization_Converged-OPLS-2005>
0

> <r_mmod_RMS_Derivative-OPLS-2005>
2.77698755264282

$$$$
48
                    3D
 Structure written by MMmdl.
170179  0  0  1  0            999 V2000
  -30.7886  -14.2819   20.7758 C   0  0  0  0  0  0
  -30.4234  -12.2909   19.3579 C   0  0  0  0  0  0
  -29.4753  -12.5503   18.1749 C   0  0  0  0  0  0
  -28.0046  -12.3898   18.5984 C   0  0  0  0  0  0
  -27.6704  -13.1954   19.8782 C   0  0  2  0  0  0
  -28.7057  -12.9021   20.9840 C   0  0  0  0  0  0
  -25.2629  -13.8143   20.5656 C   0  0  0  0  0  0
  -24.1867  -13.0439   20.9170 C   0  0  0  0  0  0
  -24.6400  -11.6902   20.8726 C   0  0  0  0  0  0
  -23.9063  -10.4293   21.0402 C   0  0  0  0  0  0
  -24.3619   -9.4210   21.9183 C   0  0  0  0  0  0
  -23.6296   -8.2243   22.0752 C   0  0  0  0  0  0
  -22.4276   -8.0282   21.3546 C   0  0  0  0  0  0
  -21.9912   -9.0254   20.4649 C   0  0  0  0  0  0
  -22.7236  -10.2135   20.3054 C   0  0  0  0  0  0
  -21.6853   -6.0740   22.5282 C   0  0  0  0  0  0
  -21.4013   -6.5641   23.8217 C   0  0  0  0  0  0
  -21.3660   -5.6789   24.9176 C   0  0  0  0  0  0
  -21.6046   -4.3053   24.7225 C   0  0  0  0  0  0
  -21.8819   -3.8152   23.4344 C   0  0  0  0  0  0
  -21.9192   -4.6969   22.3403 C   0  0  0  0  0  0
  -22.7889  -13.5250   21.1840 C   0  0  0  0  0  0
  -22.1661   -4.2157   21.0981 F   0  0  0  0  0  0
  -21.5633   -3.4536   25.7738 F   0  0  0  0  0  0
  -30.0615  -13.1828   20.4644 N   0  0  0  0  0  0
  -26.3067  -12.9295   20.3362 N   0  0  0  0  0  0
  -25.9320  -11.6463   20.5737 N   0  0  0  0  0  0
  -22.0525  -12.8244   22.0396 N   0  0  0  0  0  0
  -25.4365  -15.1861   20.4057 N   0  0  0  0  0  0
  -31.7078  -14.7314   20.0800 O   0  0  0  0  0  0
  -21.6640   -6.8882   21.4244 O   0  0  0  0  0  0
  -22.3577  -14.5563   20.6701 O   0  0  0  0  0  0
  -24.6062  -31.8719   23.2118 C   0  0  0  0  0  0
  -25.8977  -32.4843   23.8408 C   0  0  1  0  0  0
  -27.2635  -27.4952   20.0883 C   0  0  0  0  0  0
  -25.5840  -33.8637   24.2344 N   0  0  0  0  0  0
  -23.3935  -30.4921   21.5506 C   0  0  2  0  0  0
  -24.8445  -28.9588   20.1219 C   0  0  0  0  0  0
  -22.7369  -29.4673   22.5014 C   0  0  0  0  0  0
  -18.0260  -28.1390   22.8481 C   0  0  0  0  0  0
  -24.1486  -36.7349   23.2639 C   0  0  0  0  0  0
  -25.9107  -30.8581   21.3519 C   0  0  0  0  0  0
  -25.9946  -29.4878   20.7194 C   0  0  0  0  0  0
  -27.1995  -28.7604   20.7184 C   0  0  0  0  0  0
  -26.0931  -26.9687   19.5020 C   0  0  0  0  0  0
  -24.8831  -27.6901   19.5185 C   0  0  0  0  0  0
  -23.6017  -29.8177   20.1663 C   0  0  0  0  0  0
  -25.4094  -36.3135   24.0352 C   0  0  1  0  0  0
  -20.5846  -28.3660   23.1340 C   0  0  2  0  0  0
  -20.6755  -26.9401   22.5427 C   0  0  0  0  0  0
  -19.5740  -26.6404   21.5210 C   0  0  0  0  0  0
  -18.1917  -26.7935   22.1616 C   0  0  0  0  0  0
  -19.1508  -28.8835   23.2912 C   0  0  0  0  0  0
  -18.9439  -30.1434   23.8936 C   0  0  0  0  0  0
  -17.6447  -30.6591   24.0570 C   0  0  0  0  0  0
  -25.9005  -34.9492   23.5150 C   0  0  0  0  0  0
  -16.5338  -29.9110   23.6307 C   0  0  0  0  0  0
  -16.7250  -28.6525   23.0329 C   0  0  0  0  0  0
  -26.4432  -31.6584   25.0695 C   0  0  0  0  0  0
  -25.3723  -31.3657   26.1451 C   0  0  0  0  0  0
  -27.0228  -30.3038   24.5974 C   0  0  0  0  0  0
  -27.6035  -32.4260   25.7455 C   0  0  0  0  0  0
  -27.5582  -37.1820   24.8461 C   0  0  0  0  0  0
  -21.4103  -29.3037   22.3756 N   0  0  0  0  0  0
  -26.4292  -37.3806   23.9408 N   0  0  0  0  0  0
  -24.6550  -31.0875   22.0987 N   0  0  0  0  0  0
  -23.4158  -28.8230   23.3053 O   0  0  0  0  0  0
  -28.4081  -26.7389   19.9696 O   0  0  0  0  0  0
  -26.5586  -34.8935   22.4720 O   0  0  0  0  0  0
  -23.5266  -32.1429   23.7557 O   0  0  0  0  0  0
  -28.7460  -17.8105   22.8455 C   0  0  0  0  0  0
  -29.0309  -16.5314   22.3363 C   0  0  0  0  0  0
  -31.3667  -16.7781   23.0105 C   0  0  0  0  0  0
  -29.7631  -18.5809   23.4517 C   0  0  0  0  0  0
  -31.0755  -18.0578   23.5292 C   0  0  0  0  0  0
  -30.3412  -16.0167   22.4160 C   0  0  0  0  0  0
  -29.4432  -19.9337   24.0345 C   0  0  0  0  0  0
  -31.8875  -20.3861   23.9721 C   0  0  0  0  0  0
  -32.1618  -18.8843   24.1910 C   0  0  1  0  0  0
  -32.2780  -18.5368   25.6831 C   0  0  0  0  0  0
  -29.8959  -24.4854   23.4177 C   0  0  0  0  0  0
  -29.6405  -25.1269   22.0485 C   0  0  0  0  0  0
  -29.8997  -22.9596   23.2721 C   0  0  0  0  0  0
  -29.6994  -26.6598   22.0245 C   0  0  0  0  0  0
  -30.2813  -22.1924   24.5485 C   0  0  0  0  0  0
  -29.6225  -27.1749   20.5787 C   0  0  0  0  0  0
  -30.4890  -20.7740   24.2293 N   0  0  0  0  0  0
  -30.5716  -14.6842   22.0311 N   0  0  0  0  0  0
  -28.2686  -20.2511   24.2518 O   0  0  0  0  0  0
  -31.4610  -12.4258   19.0468 H   0  0  0  0  0  0
  -30.3435  -11.2542   19.6880 H   0  0  0  0  0  0
  -29.7043  -11.8707   17.3531 H   0  0  0  0  0  0
  -29.6366  -13.5588   17.7908 H   0  0  0  0  0  0
  -27.8154  -11.3290   18.7667 H   0  0  0  0  0  0
  -27.3441  -12.6898   17.7843 H   0  0  0  0  0  0
  -27.7396  -14.2540   19.6264 H   0  0  0  0  0  0
  -28.6545  -11.8532   21.2802 H   0  0  0  0  0  0
  -28.4404  -13.4669   21.8773 H   0  0  0  0  0  0
  -25.2761   -9.5690   22.4755 H   0  0  0  0  0  0
  -24.0013   -7.4632   22.7462 H   0  0  0  0  0  0
  -21.0845   -8.8770   19.8949 H   0  0  0  0  0  0
  -22.3697  -10.9673   19.6163 H   0  0  0  0  0  0
  -21.2001   -7.6145   23.9728 H   0  0  0  0  0  0
  -21.1485   -6.0514   25.9081 H   0  0  0  0  0  0
  -22.0600   -2.7614   23.2840 H   0  0  0  0  0  0
  -22.4124  -11.9891   22.4773 H   0  0  0  0  0  0
  -21.1150  -13.1285   22.2608 H   0  0  0  0  0  0
  -24.6700  -15.8422   20.5075 H   0  0  0  0  0  0
  -26.2882  -15.6212   20.0739 H   0  0  0  0  0  0
  -26.7070  -32.5622   23.1217 H   0  0  0  0  0  0
  -24.9943  -33.9797   25.0452 H   0  0  0  0  0  0
  -22.6805  -31.3068   21.4101 H   0  0  0  0  0  0
  -23.3728  -35.9701   23.3297 H   0  0  0  0  0  0
  -24.3599  -36.8950   22.2053 H   0  0  0  0  0  0
  -23.7257  -37.6570   23.6636 H   0  0  0  0  0  0
  -25.9931  -31.6134   20.5692 H   0  0  0  0  0  0
  -26.8102  -30.9406   21.9490 H   0  0  0  0  0  0
  -28.0619  -29.2011   21.1939 H   0  0  0  0  0  0
  -26.1256  -26.0017   19.0200 H   0  0  0  0  0  0
  -24.0001  -27.2704   19.0568 H   0  0  0  0  0  0
  -23.7066  -30.5872   19.4008 H   0  0  0  0  0  0
  -22.7292  -29.2307   19.8739 H   0  0  0  0  0  0
  -25.1264  -36.2020   25.0848 H   0  0  0  0  0  0
  -20.9928  -28.3222   24.1465 H   0  0  0  0  0  0
  -20.5661  -26.2260   23.3607 H   0  0  0  0  0  0
  -21.6627  -26.7463   22.1213 H   0  0  0  0  0  0
  -19.6901  -25.6324   21.1224 H   0  0  0  0  0  0
  -19.6687  -27.3228   20.6749 H   0  0  0  0  0  0
  -17.4183  -26.6659   21.4025 H   0  0  0  0  0  0
  -18.0322  -26.0098   22.9029 H   0  0  0  0  0  0
  -19.7921  -30.7225   24.2345 H   0  0  0  0  0  0
  -17.5012  -31.6277   24.5165 H   0  0  0  0  0  0
  -15.5341  -30.3034   23.7610 H   0  0  0  0  0  0
  -15.8647  -28.0866   22.7023 H   0  0  0  0  0  0
  -24.5936  -30.6952   25.7797 H   0  0  0  0  0  0
  -24.8851  -32.2788   26.4877 H   0  0  0  0  0  0
  -25.8096  -30.8859   27.0213 H   0  0  0  0  0  0
  -26.2728  -29.6845   24.1033 H   0  0  0  0  0  0
  -27.4028  -29.7212   25.4376 H   0  0  0  0  0  0
  -27.8553  -30.4374   23.9064 H   0  0  0  0  0  0
  -27.2694  -33.3584   26.2022 H   0  0  0  0  0  0
  -28.3852  -32.6762   25.0273 H   0  0  0  0  0  0
  -28.0678  -31.8362   26.5369 H   0  0  0  0  0  0
  -28.2591  -38.0127   24.7494 H   0  0  0  0  0  0
  -28.1089  -36.2646   24.6292 H   0  0  0  0  0  0
  -27.2303  -37.1480   25.8871 H   0  0  0  0  0  0
  -20.9259  -29.8763   21.6984 H   0  0  0  0  0  0
  -26.0190  -38.2890   24.1412 H   0  0  0  0  0  0
  -27.7355  -18.1907   22.7840 H   0  0  0  0  0  0
  -28.2311  -15.9459   21.9045 H   0  0  0  0  0  0
  -32.3647  -16.3720   23.0981 H   0  0  0  0  0  0
  -32.0967  -20.6321   22.9297 H   0  0  0  0  0  0
  -32.5846  -20.9765   24.5677 H   0  0  0  0  0  0
  -33.1135  -18.6432   23.7148 H   0  0  0  0  0  0
  -31.3516  -18.7447   26.2193 H   0  0  0  0  0  0
  -33.0712  -19.1142   26.1591 H   0  0  0  0  0  0
  -32.5122  -17.4813   25.8248 H   0  0  0  0  0  0
  -29.1360  -24.7984   24.1349 H   0  0  0  0  0  0
  -30.8578  -24.8194   23.8081 H   0  0  0  0  0  0
  -28.6682  -24.8000   21.6763 H   0  0  0  0  0  0
  -30.3780  -24.7434   21.3413 H   0  0  0  0  0  0
  -30.6013  -22.6876   22.4818 H   0  0  0  0  0  0
  -28.9171  -22.6334   22.9263 H   0  0  0  0  0  0
  -30.6337  -27.0014   22.4728 H   0  0  0  0  0  0
  -28.8933  -27.0820   22.6266 H   0  0  0  0  0  0
  -29.5056  -22.3042   25.3088 H   0  0  0  0  0  0
  -31.1832  -22.6217   24.9853 H   0  0  0  0  0  0
  -30.4424  -26.7412   20.0056 H   0  0  0  0  0  0
  -29.7862  -28.2491   20.5102 H   0  0  0  0  0  0
  -29.9841  -14.0202   22.5134 H   0  0  0  0  0  0
  1 25  1  0  0  0
  1 30  2  0  0  0
  1 88  1  0  0  0
  2  3  1  0  0  0
  2 25  1  0  0  0
  2 90  1  0  0  0
  2 91  1  0  0  0
  3  4  1  0  0  0
  3 92  1  0  0  0
  3 93  1  0  0  0
  4  5  1  0  0  0
  4 94  1  0  0  0
  4 95  1  0  0  0
  5  6  1  0  0  0
  5 26  1  0  0  0
  5 96  1  0  0  0
  6 25  1  0  0  0
  6 97  1  0  0  0
  6 98  1  0  0  0
  7  8  2  0  0  0
  7 26  1  0  0  0
  7 29  1  0  0  0
  8  9  1  0  0  0
  8 22  1  0  0  0
  9 10  1  0  0  0
  9 27  2  0  0  0
 10 11  2  0  0  0
 10 15  1  0  0  0
 11 12  1  0  0  0
 11 99  1  0  0  0
 12 13  2  0  0  0
 12100  1  0  0  0
 13 14  1  0  0  0
 13 31  1  0  0  0
 14 15  2  0  0  0
 14101  1  0  0  0
 15102  1  0  0  0
 16 17  2  0  0  0
 16 21  1  0  0  0
 16 31  1  0  0  0
 17 18  1  0  0  0
 17103  1  0  0  0
 18 19  2  0  0  0
 18104  1  0  0  0
 19 20  1  0  0  0
 19 24  1  0  0  0
 20 21  2  0  0  0
 20105  1  0  0  0
 21 23  1  0  0  0
 22 28  1  0  0  0
 22 32  2  0  0  0
 26 27  1  0  0  0
 28106  1  0  0  0
 28107  1  0  0  0
 29108  1  0  0  0
 29109  1  0  0  0
 33 34  1  0  0  0
 33 66  1  0  0  0
 33 70  2  0  0  0
 34 36  1  0  0  0
 34 59  1  0  0  0
 34110  1  0  0  0
 35 44  2  0  0  0
 35 45  1  0  0  0
 35 68  1  0  0  0
 36 56  1  0  0  0
 36111  1  0  0  0
 37 39  1  0  0  0
 37 47  1  0  0  0
 37 66  1  0  0  0
 37112  1  0  0  0
 38 43  2  0  0  0
 38 46  1  0  0  0
 38 47  1  0  0  0
 39 64  1  0  0  0
 39 67  2  0  0  0
 40 52  1  0  0  0
 40 53  2  0  0  0
 40 58  1  0  0  0
 41113  1  0  0  0
 41114  1  0  0  0
 41115  1  0  0  0
 41 48  1  0  0  0
 42 43  1  0  0  0
 42 66  1  0  0  0
 42116  1  0  0  0
 42117  1  0  0  0
 43 44  1  0  0  0
 44118  1  0  0  0
 45 46  2  0  0  0
 45119  1  0  0  0
 46120  1  0  0  0
 47121  1  0  0  0
 47122  1  0  0  0
 48 56  1  0  0  0
 48 65  1  0  0  0
 48123  1  0  0  0
 49 50  1  0  0  0
 49 53  1  0  0  0
 49 64  1  0  0  0
 49124  1  0  0  0
 50 51  1  0  0  0
 50125  1  0  0  0
 50126  1  0  0  0
 51 52  1  0  0  0
 51127  1  0  0  0
 51128  1  0  0  0
 52129  1  0  0  0
 52130  1  0  0  0
 53 54  1  0  0  0
 54 55  2  0  0  0
 54131  1  0  0  0
 55 57  1  0  0  0
 55132  1  0  0  0
 56 69  2  0  0  0
 57 58  2  0  0  0
 57133  1  0  0  0
 58134  1  0  0  0
 59 60  1  0  0  0
 59 61  1  0  0  0
 59 62  1  0  0  0
 60135  1  0  0  0
 60136  1  0  0  0
 60137  1  0  0  0
 61138  1  0  0  0
 61139  1  0  0  0
 61140  1  0  0  0
 62141  1  0  0  0
 62142  1  0  0  0
 62143  1  0  0  0
 63 65  1  0  0  0
 63144  1  0  0  0
 63145  1  0  0  0
 63146  1  0  0  0
 64147  1  0  0  0
 65148  1  0  0  0
 68 86  1  0  0  0
 71 72  2  0  0  0
 71 74  1  0  0  0
 71149  1  0  0  0
 72 76  1  0  0  0
 72150  1  0  0  0
 73 75  1  0  0  0
 73 76  2  0  0  0
 73151  1  0  0  0
 74 75  2  0  0  0
 74 77  1  0  0  0
 75 79  1  0  0  0
 76 88  1  0  0  0
 77 87  1  0  0  0
 77 89  2  0  0  0
 78 79  1  0  0  0
 78 87  1  0  0  0
 78152  1  0  0  0
 78153  1  0  0  0
 79 80  1  0  0  0
 79154  1  0  0  0
 80155  1  0  0  0
 80156  1  0  0  0
 80157  1  0  0  0
 81 82  1  0  0  0
 81 83  1  0  0  0
 81158  1  0  0  0
 81159  1  0  0  0
 82 84  1  0  0  0
 82160  1  0  0  0
 82161  1  0  0  0
 83 85  1  0  0  0
 83162  1  0  0  0
 83163  1  0  0  0
 84 86  1  0  0  0
 84164  1  0  0  0
 84165  1  0  0  0
 85 87  1  0  0  0
 85166  1  0  0  0
 85167  1  0  0  0
 86168  1  0  0  0
 86169  1  0  0  0
 88170  1  0  0  0
M  ISO  4   1 100  68 101  86 101  88 100
M  END
> <chiral flag>
0

> <version>
0

> <s_m_source_file>
/data/baiqing/PycharmProjects/Reinvent-master-3.2/result/LINK_invent/BTK/process_docking_weight1_custom_product_contain_oxygen_bond_distance_aromatic_linkinvent_7_9_3/rearranged_h_0005.sdf

> <i_m_source_file_index>
49

> <r_mmod_Potential_Energy-OPLS-2005>
37.538272857666

> <r_mmod_Stretch_Energy-OPLS-2005>
33.2797431945801

> <r_mmod_Bend_Energy-OPLS-2005>
101.543746948242

> <r_mmod_Torsional_Energy-OPLS-2005>
272.585784912109

> <r_mmod_Improper_Torsional_Energy-OPLS-2005>
9.53211116790771

> <r_mmod_Van_der_Waal_Energy-OPLS-2005>
165.360244750977

> <r_mmod_Electrostatic_Energy-OPLS-2005>
-336.285217285156

> <r_mmod_Solvation_Energy-OPLS-2005>
-217.1884765625

> <b_mmod_Minimization_Converged-OPLS-2005>
0

> <r_mmod_RMS_Derivative-OPLS-2005>
1.44322168827057

$$$$
49
                    3D
 Structure written by MMmdl.
178188  0  0  1  0            999 V2000
  -30.6992  -14.4687   20.3601 C   0  0  0  0  0  0
  -30.4141  -12.2479   19.4401 C   0  0  0  0  0  0
  -29.4922  -12.4140   18.2127 C   0  0  0  0  0  0
  -28.0088  -12.3251   18.6267 C   0  0  0  0  0  0
  -27.6516  -13.1945   19.8646 C   0  0  2  0  0  0
  -28.7093  -13.0599   20.9862 C   0  0  0  0  0  0
  -25.2569  -13.8127   20.5696 C   0  0  0  0  0  0
  -24.1816  -13.0421   20.9211 C   0  0  0  0  0  0
  -24.6363  -11.6887   20.8778 C   0  0  0  0  0  0
  -23.9031  -10.4281   21.0428 C   0  0  0  0  0  0
  -24.3591   -9.4194   21.9197 C   0  0  0  0  0  0
  -23.6278   -8.2226   22.0754 C   0  0  0  0  0  0
  -22.4262   -8.0267   21.3540 C   0  0  0  0  0  0
  -21.9891   -9.0243   20.4647 C   0  0  0  0  0  0
  -22.7211  -10.2127   20.3066 C   0  0  0  0  0  0
  -21.6851   -6.0724   22.5275 C   0  0  0  0  0  0
  -21.4009   -6.5630   23.8208 C   0  0  0  0  0  0
  -21.3660   -5.6785   24.9172 C   0  0  0  0  0  0
  -21.6050   -4.3049   24.7224 C   0  0  0  0  0  0
  -21.8819   -3.8139   23.4347 C   0  0  0  0  0  0
  -21.9191   -4.6953   22.3400 C   0  0  0  0  0  0
  -22.7841  -13.5231   21.1855 C   0  0  0  0  0  0
  -22.1657   -4.2140   21.0978 F   0  0  0  0  0  0
  -21.5635   -3.4534   25.7740 F   0  0  0  0  0  0
  -30.0397  -13.2872   20.4026 N   0  0  0  0  0  0
  -26.2988  -12.9262   20.3395 N   0  0  0  0  0  0
  -25.9289  -11.6446   20.5845 N   0  0  0  0  0  0
  -22.0468  -12.8237   22.0413 N   0  0  0  0  0  0
  -25.4266  -15.1849   20.4052 N   0  0  0  0  0  0
  -31.9224  -14.5697   20.2886 O   0  0  0  0  0  0
  -21.6630   -6.8861   21.4237 O   0  0  0  0  0  0
  -22.3536  -14.5537   20.6694 O   0  0  0  0  0  0
  -24.6096  -31.8707   23.2131 C   0  0  0  0  0  0
  -25.9009  -32.4837   23.8413 C   0  0  1  0  0  0
  -27.2443  -27.4815   20.0812 C   0  0  0  0  0  0
  -25.5880  -33.8635   24.2343 N   0  0  0  0  0  0
  -23.3967  -30.4931   21.5517 C   0  0  2  0  0  0
  -24.8460  -28.9617   20.1159 C   0  0  0  0  0  0
  -22.7384  -29.4663   22.5004 C   0  0  0  0  0  0
  -18.0264  -28.1372   22.8494 C   0  0  0  0  0  0
  -24.1486  -36.7326   23.2638 C   0  0  0  0  0  0
  -25.9207  -30.8460   21.3631 C   0  0  0  0  0  0
  -26.0001  -29.4813   20.7159 C   0  0  0  0  0  0
  -27.1995  -28.7407   20.7108 C   0  0  0  0  0  0
  -26.0746  -26.9570   19.4910 C   0  0  0  0  0  0
  -24.8743  -27.6939   19.5063 C   0  0  0  0  0  0
  -23.6046  -29.8231   20.1661 C   0  0  0  0  0  0
  -25.4102  -36.3124   24.0344 C   0  0  1  0  0  0
  -20.5852  -28.3649   23.1334 C   0  0  2  0  0  0
  -20.6754  -26.9388   22.5426 C   0  0  0  0  0  0
  -19.5738  -26.6382   21.5214 C   0  0  0  0  0  0
  -18.1913  -26.7922   22.1618 C   0  0  0  0  0  0
  -19.1513  -28.8826   23.2912 C   0  0  0  0  0  0
  -18.9444  -30.1434   23.8921 C   0  0  0  0  0  0
  -17.6448  -30.6580   24.0565 C   0  0  0  0  0  0
  -25.9026  -34.9486   23.5141 C   0  0  0  0  0  0
  -16.5339  -29.9084   23.6323 C   0  0  0  0  0  0
  -16.7255  -28.6501   23.0344 C   0  0  0  0  0  0
  -26.4458  -31.6607   25.0725 C   0  0  0  0  0  0
  -25.3741  -31.3710   26.1488 C   0  0  0  0  0  0
  -27.0275  -30.3053   24.6077 C   0  0  0  0  0  0
  -27.6050  -32.4317   25.7471 C   0  0  0  0  0  0
  -27.5585  -37.1810   24.8459 C   0  0  0  0  0  0
  -21.4117  -29.3021   22.3743 N   0  0  0  0  0  0
  -26.4293  -37.3802   23.9412 N   0  0  0  0  0  0
  -24.6600  -31.0838   22.1016 N   0  0  0  0  0  0
  -23.4173  -28.8207   23.3034 O   0  0  0  0  0  0
  -28.4149  -26.7690   20.0754 O   0  0  0  0  0  0
  -26.5591  -34.8931   22.4704 O   0  0  0  0  0  0
  -23.5300  -32.1440   23.7551 O   0  0  0  0  0  0
  -27.0123  -16.6352   16.9593 C   0  0  0  0  0  0
  -26.8108  -18.0143   16.8050 C   0  0  0  0  0  0
  -28.1570  -16.1738   17.6291 C   0  0  0  0  0  0
  -27.7553  -18.9191   17.3198 C   0  0  0  0  0  0
  -29.1024  -17.0679   18.1846 C   0  0  0  0  0  0
  -28.9023  -18.4706   18.0187 C   0  0  0  0  0  0
  -31.4628  -16.5481   16.4034 C   0  0  0  0  0  0
  -32.5557  -16.7106   17.4297 C   0  0  0  0  0  0
  -31.4647  -21.2194   17.9048 C   0  0  0  0  0  0
  -30.6282  -20.0281   17.4313 C   0  0  0  0  0  0
  -29.3963  -20.2195   19.6428 C   0  0  0  0  0  0
  -30.6653  -22.5324   17.9248 C   0  0  0  0  0  0
  -28.7717  -21.5905   19.2871 C   0  0  0  0  0  0
  -31.3038  -15.9380   17.7831 C   0  0  0  0  0  0
  -29.8398  -25.2725   18.8339 C   0  0  0  0  0  0
  -28.9862  -23.9965   19.0097 C   0  0  0  0  0  0
  -28.9751  -26.5387   18.7891 C   0  0  0  0  0  0
  -30.3385  -16.4646   18.8691 C   0  0  2  0  0  0
  -29.8330  -19.4171   18.4937 N   0  0  0  0  0  0
  -29.9288  -15.4530   19.8682 N   0  0  0  0  0  0
  -29.7397  -22.7079   19.0822 N   0  3  2  0  0  0
  -31.4630  -12.3139   19.1422 H   0  0  0  0  0  0
  -30.2866  -11.2611   19.8875 H   0  0  0  0  0  0
  -29.7144  -11.6403   17.4765 H   0  0  0  0  0  0
  -29.6870  -13.3600   17.7126 H   0  0  0  0  0  0
  -27.8021  -11.2771   18.8444 H   0  0  0  0  0  0
  -27.3655  -12.5870   17.7856 H   0  0  0  0  0  0
  -27.6529  -14.2264   19.5341 H   0  0  0  0  0  0
  -28.6704  -12.0681   21.4389 H   0  0  0  0  0  0
  -28.5126  -13.7740   21.7878 H   0  0  0  0  0  0
  -25.2735   -9.5682   22.4770 H   0  0  0  0  0  0
  -23.9997   -7.4617   22.7465 H   0  0  0  0  0  0
  -21.0825   -8.8764   19.8952 H   0  0  0  0  0  0
  -22.3672  -10.9669   19.6179 H   0  0  0  0  0  0
  -21.1998   -7.6137   23.9704 H   0  0  0  0  0  0
  -21.1484   -6.0517   25.9073 H   0  0  0  0  0  0
  -22.0600   -2.7603   23.2847 H   0  0  0  0  0  0
  -22.4062  -11.9896   22.4819 H   0  0  0  0  0  0
  -21.1088  -13.1278   22.2602 H   0  0  0  0  0  0
  -24.6534  -15.8327   20.5049 H   0  0  0  0  0  0
  -26.2641  -15.6285   20.0528 H   0  0  0  0  0  0
  -26.7083  -32.5569   23.1188 H   0  0  0  0  0  0
  -25.0036  -33.9805   25.0490 H   0  0  0  0  0  0
  -22.6833  -31.3083   21.4131 H   0  0  0  0  0  0
  -23.3743  -35.9665   23.3309 H   0  0  0  0  0  0
  -24.3583  -36.8927   22.2051 H   0  0  0  0  0  0
  -23.7244  -37.6540   23.6638 H   0  0  0  0  0  0
  -26.0274  -31.6108   20.5927 H   0  0  0  0  0  0
  -26.8110  -30.9028   21.9775 H   0  0  0  0  0  0
  -28.0926  -29.1372   21.1735 H   0  0  0  0  0  0
  -26.0905  -25.9821   19.0246 H   0  0  0  0  0  0
  -23.9851  -27.2839   19.0476 H   0  0  0  0  0  0
  -23.7077  -30.5965   19.4042 H   0  0  0  0  0  0
  -22.7309  -29.2378   19.8736 H   0  0  0  0  0  0
  -25.1274  -36.1997   25.0837 H   0  0  0  0  0  0
  -20.9946  -28.3214   24.1453 H   0  0  0  0  0  0
  -20.5651  -26.2254   23.3608 H   0  0  0  0  0  0
  -21.6629  -26.7431   22.1226 H   0  0  0  0  0  0
  -19.6900  -25.6299   21.1228 H   0  0  0  0  0  0
  -19.6686  -27.3207   20.6757 H   0  0  0  0  0  0
  -17.4189  -26.6678   21.4012 H   0  0  0  0  0  0
  -18.0304  -26.0055   22.9005 H   0  0  0  0  0  0
  -19.7921  -30.7239   24.2305 H   0  0  0  0  0  0
  -17.5005  -31.6265   24.5158 H   0  0  0  0  0  0
  -15.5339  -30.2993   23.7636 H   0  0  0  0  0  0
  -15.8654  -28.0828   22.7045 H   0  0  0  0  0  0
  -24.5910  -30.7054   25.7838 H   0  0  0  0  0  0
  -24.8933  -32.2864   26.4948 H   0  0  0  0  0  0
  -25.8112  -30.8881   27.0236 H   0  0  0  0  0  0
  -26.2801  -29.6828   24.1145 H   0  0  0  0  0  0
  -27.4064  -29.7279   25.4518 H   0  0  0  0  0  0
  -27.8629  -30.4374   23.9198 H   0  0  0  0  0  0
  -27.2680  -33.3600   26.2098 H   0  0  0  0  0  0
  -28.3826  -32.6907   25.0273 H   0  0  0  0  0  0
  -28.0757  -31.8413   26.5342 H   0  0  0  0  0  0
  -28.2605  -38.0107   24.7517 H   0  0  0  0  0  0
  -28.1078  -36.2641   24.6261 H   0  0  0  0  0  0
  -27.2312  -37.1444   25.8865 H   0  0  0  0  0  0
  -20.9266  -29.8745   21.6976 H   0  0  0  0  0  0
  -26.0189  -38.2883   24.1416 H   0  0  0  0  0  0
  -26.3019  -15.9312   16.5478 H   0  0  0  0  0  0
  -25.9434  -18.3799   16.2740 H   0  0  0  0  0  0
  -28.3199  -15.1106   17.6832 H   0  0  0  0  0  0
  -27.5843  -19.9674   17.1404 H   0  0  0  0  0  0
  -31.6522  -15.8634   15.5790 H   0  0  0  0  0  0
  -30.8555  -17.4093   16.1420 H   0  0  0  0  0  0
  -32.6894  -17.6897   17.8843 H   0  0  0  0  0  0
  -33.4703  -16.1364   17.2943 H   0  0  0  0  0  0
  -32.2717  -21.3492   17.1819 H   0  0  0  0  0  0
  -31.9632  -21.0233   18.8549 H   0  0  0  0  0  0
  -31.3195  -19.2803   17.0514 H   0  0  0  0  0  0
  -30.0044  -20.3149   16.5823 H   0  0  0  0  0  0
  -28.6488  -19.6405   20.1889 H   0  0  0  0  0  0
  -30.2217  -20.3442   20.3450 H   0  0  0  0  0  0
  -30.1196  -22.6511   16.9877 H   0  0  0  0  0  0
  -31.4087  -23.3281   17.9504 H   0  0  0  0  0  0
  -28.1412  -21.8611   20.1357 H   0  0  0  0  0  0
  -28.0933  -21.5266   18.4407 H   0  0  0  0  0  0
  -31.3886  -14.8547   17.7490 H   0  0  0  0  0  0
  -30.3891  -25.2399   17.8939 H   0  0  0  0  0  0
  -30.5799  -25.3553   19.6303 H   0  0  0  0  0  0
  -28.2673  -23.9398   18.1900 H   0  0  0  0  0  0
  -28.3947  -24.1061   19.9200 H   0  0  0  0  0  0
  -28.2216  -26.4460   18.0051 H   0  0  0  0  0  0
  -29.5915  -27.3996   18.5264 H   0  0  0  0  0  0
  -30.8559  -17.2448   19.4282 H   0  0  0  0  0  0
  -28.9372  -15.2975   19.9373 H   0  0  0  0  0  0
  -30.3104  -22.7483   19.9139 H   0  0  0  0  0  0
  1 25  1  0  0  0
  1 30  2  0  0  0
  1 90  1  0  0  0
  2  3  1  0  0  0
  2 25  1  0  0  0
  2 92  1  0  0  0
  2 93  1  0  0  0
  3  4  1  0  0  0
  3 94  1  0  0  0
  3 95  1  0  0  0
  4  5  1  0  0  0
  4 96  1  0  0  0
  4 97  1  0  0  0
  5  6  1  0  0  0
  5 26  1  0  0  0
  5 98  1  0  0  0
  6 25  1  0  0  0
  6 99  1  0  0  0
  6100  1  0  0  0
  7  8  2  0  0  0
  7 26  1  0  0  0
  7 29  1  0  0  0
  8  9  1  0  0  0
  8 22  1  0  0  0
  9 10  1  0  0  0
  9 27  2  0  0  0
 10 11  2  0  0  0
 10 15  1  0  0  0
 11 12  1  0  0  0
 11101  1  0  0  0
 12 13  2  0  0  0
 12102  1  0  0  0
 13 14  1  0  0  0
 13 31  1  0  0  0
 14 15  2  0  0  0
 14103  1  0  0  0
 15104  1  0  0  0
 16 17  2  0  0  0
 16 21  1  0  0  0
 16 31  1  0  0  0
 17 18  1  0  0  0
 17105  1  0  0  0
 18 19  2  0  0  0
 18106  1  0  0  0
 19 20  1  0  0  0
 19 24  1  0  0  0
 20 21  2  0  0  0
 20107  1  0  0  0
 21 23  1  0  0  0
 22 28  1  0  0  0
 22 32  2  0  0  0
 26 27  1  0  0  0
 28108  1  0  0  0
 28109  1  0  0  0
 29110  1  0  0  0
 29111  1  0  0  0
 33 34  1  0  0  0
 33 66  1  0  0  0
 33 70  2  0  0  0
 34 36  1  0  0  0
 34 59  1  0  0  0
 34112  1  0  0  0
 35 44  2  0  0  0
 35 45  1  0  0  0
 35 68  1  0  0  0
 36 56  1  0  0  0
 36113  1  0  0  0
 37 39  1  0  0  0
 37 47  1  0  0  0
 37 66  1  0  0  0
 37114  1  0  0  0
 38 43  2  0  0  0
 38 46  1  0  0  0
 38 47  1  0  0  0
 39 64  1  0  0  0
 39 67  2  0  0  0
 40 52  1  0  0  0
 40 53  2  0  0  0
 40 58  1  0  0  0
 41115  1  0  0  0
 41116  1  0  0  0
 41117  1  0  0  0
 41 48  1  0  0  0
 42 43  1  0  0  0
 42 66  1  0  0  0
 42118  1  0  0  0
 42119  1  0  0  0
 43 44  1  0  0  0
 44120  1  0  0  0
 45 46  2  0  0  0
 45121  1  0  0  0
 46122  1  0  0  0
 47123  1  0  0  0
 47124  1  0  0  0
 48 56  1  0  0  0
 48 65  1  0  0  0
 48125  1  0  0  0
 49 50  1  0  0  0
 49 53  1  0  0  0
 49 64  1  0  0  0
 49126  1  0  0  0
 50 51  1  0  0  0
 50127  1  0  0  0
 50128  1  0  0  0
 51 52  1  0  0  0
 51129  1  0  0  0
 51130  1  0  0  0
 52131  1  0  0  0
 52132  1  0  0  0
 53 54  1  0  0  0
 54 55  2  0  0  0
 54133  1  0  0  0
 55 57  1  0  0  0
 55134  1  0  0  0
 56 69  2  0  0  0
 57 58  2  0  0  0
 57135  1  0  0  0
 58136  1  0  0  0
 59 60  1  0  0  0
 59 61  1  0  0  0
 59 62  1  0  0  0
 60137  1  0  0  0
 60138  1  0  0  0
 60139  1  0  0  0
 61140  1  0  0  0
 61141  1  0  0  0
 61142  1  0  0  0
 62143  1  0  0  0
 62144  1  0  0  0
 62145  1  0  0  0
 63 65  1  0  0  0
 63146  1  0  0  0
 63147  1  0  0  0
 63148  1  0  0  0
 64149  1  0  0  0
 65150  1  0  0  0
 68 87  1  0  0  0
 71 72  2  0  0  0
 71 73  1  0  0  0
 71151  1  0  0  0
 72 74  1  0  0  0
 72152  1  0  0  0
 73 75  2  0  0  0
 73153  1  0  0  0
 74 76  2  0  0  0
 74154  1  0  0  0
 75 76  1  0  0  0
 75 88  1  0  0  0
 76 89  1  0  0  0
 77 78  1  0  0  0
 77155  1  0  0  0
 77156  1  0  0  0
 77 84  1  0  0  0
 78 84  1  0  0  0
 78157  1  0  0  0
 78158  1  0  0  0
 79 80  1  0  0  0
 79 82  1  0  0  0
 79159  1  0  0  0
 79160  1  0  0  0
 80 89  1  0  0  0
 80161  1  0  0  0
 80162  1  0  0  0
 81 83  1  0  0  0
 81 89  1  0  0  0
 81163  1  0  0  0
 81164  1  0  0  0
 82 91  1  0  0  0
 82165  1  0  0  0
 82166  1  0  0  0
 83 91  1  0  0  0
 83167  1  0  0  0
 83168  1  0  0  0
 84 88  1  0  0  0
 84169  1  0  0  0
 85 86  1  0  0  0
 85 87  1  0  0  0
 85170  1  0  0  0
 85171  1  0  0  0
 86172  1  0  0  0
 86173  1  0  0  0
 86 91  1  0  0  0
 87174  1  0  0  0
 87175  1  0  0  0
 88 90  1  0  0  0
 88176  1  0  0  0
 90177  1  0  0  0
 91178  1  0  0  0
M  CHG  1  91   1
M  ISO  4   1 100  68 101  87 101  90 100
M  END
> <chiral flag>
0

> <version>
0

> <s_m_source_file>
/data/baiqing/PycharmProjects/Reinvent-master-3.2/result/LINK_invent/BTK/process_docking_weight1_custom_product_contain_oxygen_bond_distance_aromatic_linkinvent_7_9_3/rearranged_h_0005.sdf

> <i_m_source_file_index>
50

> <r_mmod_Potential_Energy-OPLS-2005>
13.2298355102539

> <r_mmod_Stretch_Energy-OPLS-2005>
38.5310516357422

> <r_mmod_Bend_Energy-OPLS-2005>
112.399345397949

> <r_mmod_Torsional_Energy-OPLS-2005>
384.528076171875

> <r_mmod_Improper_Torsional_Energy-OPLS-2005>
21.2029228210449

> <r_mmod_Van_der_Waal_Energy-OPLS-2005>
155.533599853516

> <r_mmod_Electrostatic_Energy-OPLS-2005>
-297.945526123047

> <r_mmod_Solvation_Energy-OPLS-2005>
-431.101043701172

> <b_mmod_Minimization_Converged-OPLS-2005>
0

> <r_mmod_RMS_Derivative-OPLS-2005>
0.79929655790329

$$$$
50
                    3D
 Structure written by MMmdl.
173183  0  0  1  0            999 V2000
  -30.7417  -14.3852   20.6684 C   0  0  0  0  0  0
  -30.4151  -12.2876   19.4031 C   0  0  0  0  0  0
  -29.4897  -12.5273   18.1962 C   0  0  0  0  0  0
  -28.0113  -12.3761   18.6059 C   0  0  0  0  0  0
  -27.6644  -13.1962   19.8782 C   0  0  2  0  0  0
  -28.6982  -12.9373   20.9954 C   0  0  0  0  0  0
  -25.2628  -13.8149   20.5693 C   0  0  0  0  0  0
  -24.1855  -13.0444   20.9158 C   0  0  0  0  0  0
  -24.6366  -11.6901   20.8687 C   0  0  0  0  0  0
  -23.9011  -10.4293   21.0374 C   0  0  0  0  0  0
  -24.3581   -9.4226   21.9172 C   0  0  0  0  0  0
  -23.6257   -8.2260   22.0761 C   0  0  0  0  0  0
  -22.4248   -8.0274   21.3548 C   0  0  0  0  0  0
  -21.9850   -9.0243   20.4643 C   0  0  0  0  0  0
  -22.7171  -10.2130   20.3045 C   0  0  0  0  0  0
  -21.6851   -6.0723   22.5273 C   0  0  0  0  0  0
  -21.4021   -6.5639   23.8206 C   0  0  0  0  0  0
  -21.3659   -5.6801   24.9175 C   0  0  0  0  0  0
  -21.6050   -4.3060   24.7231 C   0  0  0  0  0  0
  -21.8815   -3.8134   23.4352 C   0  0  0  0  0  0
  -21.9188   -4.6947   22.3400 C   0  0  0  0  0  0
  -22.7888  -13.5274   21.1822 C   0  0  0  0  0  0
  -22.1663   -4.2123   21.0979 F   0  0  0  0  0  0
  -21.5612   -3.4559   25.7750 F   0  0  0  0  0  0
  -30.0401  -13.2403   20.4583 N   0  0  0  0  0  0
  -26.3022  -12.9276   20.3327 N   0  0  0  0  0  0
  -25.9276  -11.6455   20.5694 N   0  0  0  0  0  0
  -22.0488  -12.8289   22.0359 N   0  0  0  0  0  0
  -25.4458  -15.1862   20.4204 N   0  0  0  0  0  0
  -31.7867  -14.6479   20.0672 O   0  0  0  0  0  0
  -21.6630   -6.8856   21.4234 O   0  0  0  0  0  0
  -22.3614  -14.5607   20.6673 O   0  0  0  0  0  0
  -24.6127  -31.8705   23.2129 C   0  0  0  0  0  0
  -25.9039  -32.4826   23.8413 C   0  0  1  0  0  0
  -27.2322  -27.4471   20.0805 C   0  0  0  0  0  0
  -25.5920  -33.8625   24.2356 N   0  0  0  0  0  0
  -23.3978  -30.4953   21.5512 C   0  0  2  0  0  0
  -24.8409  -28.9606   20.1159 C   0  0  0  0  0  0
  -22.7392  -29.4674   22.4991 C   0  0  0  0  0  0
  -18.0275  -28.1364   22.8492 C   0  0  0  0  0  0
  -24.1472  -36.7303   23.2630 C   0  0  0  0  0  0
  -25.9266  -30.8378   21.3635 C   0  0  0  0  0  0
  -25.9999  -29.4728   20.7098 C   0  0  0  0  0  0
  -27.1931  -28.7198   20.6938 C   0  0  0  0  0  0
  -26.0449  -26.9361   19.5047 C   0  0  0  0  0  0
  -24.8565  -27.6897   19.5173 C   0  0  0  0  0  0
  -23.6043  -29.8286   20.1659 C   0  0  0  0  0  0
  -25.4091  -36.3111   24.0345 C   0  0  1  0  0  0
  -20.5862  -28.3646   23.1313 C   0  0  2  0  0  0
  -20.6759  -26.9379   22.5407 C   0  0  0  0  0  0
  -19.5738  -26.6372   21.5197 C   0  0  0  0  0  0
  -18.1918  -26.7916   22.1614 C   0  0  0  0  0  0
  -19.1522  -28.8823   23.2907 C   0  0  0  0  0  0
  -18.9456  -30.1431   23.8912 C   0  0  0  0  0  0
  -17.6458  -30.6573   24.0561 C   0  0  0  0  0  0
  -25.9032  -34.9475   23.5144 C   0  0  0  0  0  0
  -16.5349  -29.9075   23.6326 C   0  0  0  0  0  0
  -16.7265  -28.6489   23.0356 C   0  0  0  0  0  0
  -26.4468  -31.6585   25.0723 C   0  0  0  0  0  0
  -25.3752  -31.3711   26.1493 C   0  0  0  0  0  0
  -27.0269  -30.3019   24.6085 C   0  0  0  0  0  0
  -27.6078  -32.4275   25.7471 C   0  0  0  0  0  0
  -27.5580  -37.1796   24.8457 C   0  0  0  0  0  0
  -21.4123  -29.3023   22.3729 N   0  0  0  0  0  0
  -26.4273  -37.3800   23.9428 N   0  0  0  0  0  0
  -24.6638  -31.0823   22.1008 N   0  0  0  0  0  0
  -23.4176  -28.8226   23.3034 O   0  0  0  0  0  0
  -28.4352  -26.7721   20.0999 O   0  0  0  0  0  0
  -26.5579  -34.8921   22.4694 O   0  0  0  0  0  0
  -23.5334  -32.1459   23.7541 O   0  0  0  0  0  0
  -32.3567  -18.1402   22.5161 C   0  0  0  0  0  0
  -31.3872  -19.0649   22.9417 C   0  0  0  0  0  0
  -28.2318  -17.1575   22.3649 C   0  0  0  0  0  0
  -27.2798  -18.0979   22.8045 C   0  0  0  0  0  0
  -31.9658  -16.8727   22.0476 C   0  0  0  0  0  0
  -29.0622  -19.6566   23.3535 C   0  0  0  0  0  0
  -30.0194  -18.7255   22.8946 C   0  0  0  0  0  0
  -29.6151  -17.4542   22.4085 C   0  0  0  0  0  0
  -27.6843  -19.3476   23.3178 C   0  0  0  0  0  0
  -30.5972  -16.5149   21.9825 C   0  0  0  0  0  0
  -27.9018  -22.9852   21.8184 C   0  0  0  0  0  0
  -25.2490  -23.6035   23.4756 C   0  0  0  0  0  0
  -25.3426  -22.9195   22.1161 C   0  0  0  0  0  0
  -25.9006  -22.5920   24.4254 C   0  0  0  0  0  0
  -26.6666  -22.1357   22.1885 C   0  0  2  0  0  0
  -26.6342  -20.2873   23.9102 C   0  0  0  0  0  0
  -29.0594  -24.4106   20.1434 C   0  0  0  0  0  0
  -28.6664  -25.6237   19.2799 C   0  0  0  0  0  0
  -30.1860  -15.2151   21.5672 N   0  0  0  0  0  0
  -27.9118  -23.6534   20.6537 N   0  0  0  0  0  0
  -26.8008  -21.7330   23.6105 N   0  3  2  0  0  0
  -28.8560  -23.0184   22.6009 O   0  0  0  0  0  0
  -31.4625  -12.3776   19.1079 H   0  0  0  0  0  0
  -30.2983  -11.2668   19.7714 H   0  0  0  0  0  0
  -29.7282  -11.8273   17.3938 H   0  0  0  0  0  0
  -29.6632  -13.5266   17.7936 H   0  0  0  0  0  0
  -27.8190  -11.3161   18.7811 H   0  0  0  0  0  0
  -27.3630  -12.6720   17.7797 H   0  0  0  0  0  0
  -27.7210  -14.2492   19.6055 H   0  0  0  0  0  0
  -28.6643  -11.8910   21.3027 H   0  0  0  0  0  0
  -28.4378  -13.5043   21.8894 H   0  0  0  0  0  0
  -25.2721   -9.5742   22.4752 H   0  0  0  0  0  0
  -23.9963   -7.4677   22.7520 H   0  0  0  0  0  0
  -21.0765   -8.8752   19.8977 H   0  0  0  0  0  0
  -22.3589  -10.9673   19.6170 H   0  0  0  0  0  0
  -21.2033   -7.6154   23.9706 H   0  0  0  0  0  0
  -21.1486   -6.0536   25.9077 H   0  0  0  0  0  0
  -22.0585   -2.7589   23.2875 H   0  0  0  0  0  0
  -22.4033  -11.9919   22.4749 H   0  0  0  0  0  0
  -21.1119  -13.1395   22.2551 H   0  0  0  0  0  0
  -24.6947  -15.8511   20.5592 H   0  0  0  0  0  0
  -26.3001  -15.6148   20.0848 H   0  0  0  0  0  0
  -26.7110  -32.5529   23.1182 H   0  0  0  0  0  0
  -25.0089  -33.9791   25.0515 H   0  0  0  0  0  0
  -22.6837  -31.3098   21.4135 H   0  0  0  0  0  0
  -23.3740  -35.9627   23.3282 H   0  0  0  0  0  0
  -24.3572  -36.8920   22.2044 H   0  0  0  0  0  0
  -23.7210  -37.6502   23.6638 H   0  0  0  0  0  0
  -26.0367  -31.6045   20.5956 H   0  0  0  0  0  0
  -26.8171  -30.8905   21.9791 H   0  0  0  0  0  0
  -28.0901  -29.1153   21.1497 H   0  0  0  0  0  0
  -25.9951  -25.9578   19.0539 H   0  0  0  0  0  0
  -23.9592  -27.2829   19.0716 H   0  0  0  0  0  0
  -23.7102  -30.6029   19.4048 H   0  0  0  0  0  0
  -22.7281  -29.2481   19.8732 H   0  0  0  0  0  0
  -25.1249  -36.1976   25.0835 H   0  0  0  0  0  0
  -20.9959  -28.3209   24.1432 H   0  0  0  0  0  0
  -20.5629  -26.2251   23.3590 H   0  0  0  0  0  0
  -21.6635  -26.7399   22.1218 H   0  0  0  0  0  0
  -19.6889  -25.6291   21.1210 H   0  0  0  0  0  0
  -19.6678  -27.3191   20.6734 H   0  0  0  0  0  0
  -17.4181  -26.6663   21.4029 H   0  0  0  0  0  0
  -18.0325  -26.0052   22.8999 H   0  0  0  0  0  0
  -19.7934  -30.7246   24.2282 H   0  0  0  0  0  0
  -17.5014  -31.6261   24.5148 H   0  0  0  0  0  0
  -15.5353  -30.2982   23.7640 H   0  0  0  0  0  0
  -15.8665  -28.0814   22.7067 H   0  0  0  0  0  0
  -24.5901  -30.7073   25.7852 H   0  0  0  0  0  0
  -24.8970  -32.2873   26.4970 H   0  0  0  0  0  0
  -25.8123  -30.8861   27.0231 H   0  0  0  0  0  0
  -26.2798  -29.6805   24.1131 H   0  0  0  0  0  0
  -27.4020  -29.7240   25.4543 H   0  0  0  0  0  0
  -27.8649  -30.4321   23.9235 H   0  0  0  0  0  0
  -27.2738  -33.3578   26.2078 H   0  0  0  0  0  0
  -28.3878  -32.6817   25.0281 H   0  0  0  0  0  0
  -28.0740  -31.8356   26.5357 H   0  0  0  0  0  0
  -28.2581  -38.0114   24.7549 H   0  0  0  0  0  0
  -28.1096  -36.2655   24.6212 H   0  0  0  0  0  0
  -27.2314  -37.1363   25.8863 H   0  0  0  0  0  0
  -20.9268  -29.8762   21.6980 H   0  0  0  0  0  0
  -26.0162  -38.2865   24.1480 H   0  0  0  0  0  0
  -33.4051  -18.4002   22.5597 H   0  0  0  0  0  0
  -31.7003  -20.0318   23.3089 H   0  0  0  0  0  0
  -27.8716  -16.2058   22.0044 H   0  0  0  0  0  0
  -26.2311  -17.8319   22.7754 H   0  0  0  0  0  0
  -32.7406  -16.1794   21.7545 H   0  0  0  0  0  0
  -29.3991  -20.6019   23.7517 H   0  0  0  0  0  0
  -24.2211  -23.8364   23.7594 H   0  0  0  0  0  0
  -25.8129  -24.5376   23.4655 H   0  0  0  0  0  0
  -25.2826  -23.6248   21.2866 H   0  0  0  0  0  0
  -24.5144  -22.2181   22.0022 H   0  0  0  0  0  0
  -25.1194  -21.9917   24.8945 H   0  0  0  0  0  0
  -26.4481  -23.0837   25.2312 H   0  0  0  0  0  0
  -26.6489  -21.2697   21.5249 H   0  0  0  0  0  0
  -26.6597  -20.1458   24.9921 H   0  0  0  0  0  0
  -25.6387  -19.9768   23.5854 H   0  0  0  0  0  0
  -29.7169  -24.7425   20.9493 H   0  0  0  0  0  0
  -29.6535  -23.7260   19.5351 H   0  0  0  0  0  0
  -27.8967  -25.3748   18.5532 H   0  0  0  0  0  0
  -29.5302  -25.8837   18.6684 H   0  0  0  0  0  0
  -29.2939  -14.9051   21.9199 H   0  0  0  0  0  0
  -27.1013  -23.5762   20.0531 H   0  0  0  0  0  0
  -27.7576  -21.9933   23.8218 H   0  0  0  0  0  0
  1 25  1  0  0  0
  1 30  2  0  0  0
  1 89  1  0  0  0
  2  3  1  0  0  0
  2 25  1  0  0  0
  2 93  1  0  0  0
  2 94  1  0  0  0
  3  4  1  0  0  0
  3 95  1  0  0  0
  3 96  1  0  0  0
  4  5  1  0  0  0
  4 97  1  0  0  0
  4 98  1  0  0  0
  5  6  1  0  0  0
  5 26  1  0  0  0
  5 99  1  0  0  0
  6 25  1  0  0  0
  6100  1  0  0  0
  6101  1  0  0  0
  7  8  2  0  0  0
  7 26  1  0  0  0
  7 29  1  0  0  0
  8  9  1  0  0  0
  8 22  1  0  0  0
  9 10  1  0  0  0
  9 27  2  0  0  0
 10 11  2  0  0  0
 10 15  1  0  0  0
 11 12  1  0  0  0
 11102  1  0  0  0
 12 13  2  0  0  0
 12103  1  0  0  0
 13 14  1  0  0  0
 13 31  1  0  0  0
 14 15  2  0  0  0
 14104  1  0  0  0
 15105  1  0  0  0
 16 17  2  0  0  0
 16 21  1  0  0  0
 16 31  1  0  0  0
 17 18  1  0  0  0
 17106  1  0  0  0
 18 19  2  0  0  0
 18107  1  0  0  0
 19 20  1  0  0  0
 19 24  1  0  0  0
 20 21  2  0  0  0
 20108  1  0  0  0
 21 23  1  0  0  0
 22 28  1  0  0  0
 22 32  2  0  0  0
 26 27  1  0  0  0
 28109  1  0  0  0
 28110  1  0  0  0
 29111  1  0  0  0
 29112  1  0  0  0
 33 34  1  0  0  0
 33 66  1  0  0  0
 33 70  2  0  0  0
 34 36  1  0  0  0
 34 59  1  0  0  0
 34113  1  0  0  0
 35 44  2  0  0  0
 35 45  1  0  0  0
 35 68  1  0  0  0
 36 56  1  0  0  0
 36114  1  0  0  0
 37 39  1  0  0  0
 37 47  1  0  0  0
 37 66  1  0  0  0
 37115  1  0  0  0
 38 43  2  0  0  0
 38 46  1  0  0  0
 38 47  1  0  0  0
 39 64  1  0  0  0
 39 67  2  0  0  0
 40 52  1  0  0  0
 40 53  2  0  0  0
 40 58  1  0  0  0
 41116  1  0  0  0
 41117  1  0  0  0
 41118  1  0  0  0
 41 48  1  0  0  0
 42 43  1  0  0  0
 42 66  1  0  0  0
 42119  1  0  0  0
 42120  1  0  0  0
 43 44  1  0  0  0
 44121  1  0  0  0
 45 46  2  0  0  0
 45122  1  0  0  0
 46123  1  0  0  0
 47124  1  0  0  0
 47125  1  0  0  0
 48 56  1  0  0  0
 48 65  1  0  0  0
 48126  1  0  0  0
 49 50  1  0  0  0
 49 53  1  0  0  0
 49 64  1  0  0  0
 49127  1  0  0  0
 50 51  1  0  0  0
 50128  1  0  0  0
 50129  1  0  0  0
 51 52  1  0  0  0
 51130  1  0  0  0
 51131  1  0  0  0
 52132  1  0  0  0
 52133  1  0  0  0
 53 54  1  0  0  0
 54 55  2  0  0  0
 54134  1  0  0  0
 55 57  1  0  0  0
 55135  1  0  0  0
 56 69  2  0  0  0
 57 58  2  0  0  0
 57136  1  0  0  0
 58137  1  0  0  0
 59 60  1  0  0  0
 59 61  1  0  0  0
 59 62  1  0  0  0
 60138  1  0  0  0
 60139  1  0  0  0
 60140  1  0  0  0
 61141  1  0  0  0
 61142  1  0  0  0
 61143  1  0  0  0
 62144  1  0  0  0
 62145  1  0  0  0
 62146  1  0  0  0
 63 65  1  0  0  0
 63147  1  0  0  0
 63148  1  0  0  0
 63149  1  0  0  0
 64150  1  0  0  0
 65151  1  0  0  0
 68 88  1  0  0  0
 71 72  2  0  0  0
 71 75  1  0  0  0
 71152  1  0  0  0
 72 77  1  0  0  0
 72153  1  0  0  0
 73 74  1  0  0  0
 73 78  2  0  0  0
 73154  1  0  0  0
 74 79  2  0  0  0
 74155  1  0  0  0
 75 80  2  0  0  0
 75156  1  0  0  0
 76 77  2  0  0  0
 76 79  1  0  0  0
 76157  1  0  0  0
 77 78  1  0  0  0
 78 80  1  0  0  0
 79 86  1  0  0  0
 80 89  1  0  0  0
 81 90  1  0  0  0
 81 92  2  0  0  0
 81 85  1  0  0  0
 82 83  1  0  0  0
 82 84  1  0  0  0
 82158  1  0  0  0
 82159  1  0  0  0
 83 85  1  0  0  0
 83160  1  0  0  0
 83161  1  0  0  0
 84 91  1  0  0  0
 84162  1  0  0  0
 84163  1  0  0  0
 85 91  1  0  0  0
 85164  1  0  0  0
 86165  1  0  0  0
 86166  1  0  0  0
 86 91  1  0  0  0
 87 88  1  0  0  0
 87 90  1  0  0  0
 87167  1  0  0  0
 87168  1  0  0  0
 88169  1  0  0  0
 88170  1  0  0  0
 89171  1  0  0  0
 90172  1  0  0  0
 91173  1  0  0  0
M  CHG  1  91   1
M  ISO  4   1 100  68 101  88 101  89 100
M  END
> <chiral flag>
0

> <version>
0

> <s_m_source_file>
/data/baiqing/PycharmProjects/Reinvent-master-3.2/result/LINK_invent/BTK/process_docking_weight1_custom_product_contain_oxygen_bond_distance_aromatic_linkinvent_7_9_3/rearranged_h_0005.sdf

> <i_m_source_file_index>
51

> <r_mmod_Potential_Energy-OPLS-2005>
-243.724807739258

> <r_mmod_Stretch_Energy-OPLS-2005>
38.3318099975586

> <r_mmod_Bend_Energy-OPLS-2005>
136.528930664062

> <r_mmod_Torsional_Energy-OPLS-2005>
264.316253662109

> <r_mmod_Improper_Torsional_Energy-OPLS-2005>
2.27290391921997

> <r_mmod_Van_der_Waal_Energy-OPLS-2005>
172.766342163086

> <r_mmod_Electrostatic_Energy-OPLS-2005>
-418.693634033203

> <r_mmod_Solvation_Energy-OPLS-2005>
-447.971405029297

> <b_mmod_Minimization_Converged-OPLS-2005>
0

> <r_mmod_RMS_Derivative-OPLS-2005>
2.73231053352356

$$$$
51
                    3D
 Structure written by MMmdl.
158167  0  0  1  0            999 V2000
  -30.5847  -14.6524   20.5466 C   0  0  0  0  0  0
  -30.4516  -12.4174   19.4439 C   0  0  0  0  0  0
  -29.5055  -12.5305   18.2244 C   0  0  0  0  0  0
  -28.0313  -12.3497   18.6397 C   0  0  0  0  0  0
  -27.6580  -13.2085   19.8746 C   0  0  2  0  0  0
  -28.7015  -13.0285   20.9999 C   0  0  0  0  0  0
  -25.2578  -13.8149   20.5710 C   0  0  0  0  0  0
  -24.1827  -13.0426   20.9172 C   0  0  0  0  0  0
  -24.6380  -11.6892   20.8725 C   0  0  0  0  0  0
  -23.9049  -10.4286   21.0387 C   0  0  0  0  0  0
  -24.3601   -9.4208   21.9175 C   0  0  0  0  0  0
  -23.6280   -8.2241   22.0751 C   0  0  0  0  0  0
  -22.4267   -8.0266   21.3532 C   0  0  0  0  0  0
  -21.9888   -9.0240   20.4639 C   0  0  0  0  0  0
  -22.7210  -10.2122   20.3050 C   0  0  0  0  0  0
  -21.6855   -6.0719   22.5269 C   0  0  0  0  0  0
  -21.4016   -6.5632   23.8202 C   0  0  0  0  0  0
  -21.3669   -5.6791   24.9168 C   0  0  0  0  0  0
  -21.6047   -4.3045   24.7219 C   0  0  0  0  0  0
  -21.8822   -3.8137   23.4342 C   0  0  0  0  0  0
  -21.9194   -4.6949   22.3394 C   0  0  0  0  0  0
  -22.7856  -13.5230   21.1832 C   0  0  0  0  0  0
  -22.1667   -4.2134   21.0963 F   0  0  0  0  0  0
  -21.5630   -3.4535   25.7740 F   0  0  0  0  0  0
  -30.0177  -13.4059   20.4519 N   0  0  0  0  0  0
  -26.3004  -12.9319   20.3360 N   0  0  0  0  0  0
  -25.9311  -11.6478   20.5761 N   0  0  0  0  0  0
  -22.0510  -12.8225   22.0403 N   0  0  0  0  0  0
  -25.4293  -15.1868   20.4157 N   0  0  0  0  0  0
  -31.7126  -14.8870   20.1003 O   0  0  0  0  0  0
  -21.6632   -6.8862   21.4226 O   0  0  0  0  0  0
  -22.3555  -14.5540   20.6684 O   0  0  0  0  0  0
  -24.6226  -31.8581   23.2008 C   0  0  0  0  0  0
  -25.9068  -32.4787   23.8372 C   0  0  1  0  0  0
  -27.2326  -27.3248   20.1389 C   0  0  0  0  0  0
  -25.5882  -33.8588   24.2280 N   0  0  0  0  0  0
  -23.4190  -30.4745   21.5459 C   0  0  2  0  0  0
  -24.8719  -28.9250   20.1189 C   0  0  0  0  0  0
  -22.7484  -29.4562   22.4977 C   0  0  0  0  0  0
  -18.0284  -28.1321   22.8491 C   0  0  0  0  0  0
  -24.1483  -36.7314   23.2628 C   0  0  0  0  0  0
  -25.9575  -30.7950   21.3673 C   0  0  0  0  0  0
  -26.0386  -29.4189   20.7183 C   0  0  0  0  0  0
  -27.2259  -28.6308   20.7131 C   0  0  0  0  0  0
  -26.0488  -26.8731   19.5204 C   0  0  0  0  0  0
  -24.8774  -27.6591   19.5109 C   0  0  0  0  0  0
  -23.6343  -29.7992   20.1643 C   0  0  0  0  0  0
  -25.4112  -36.3098   24.0320 C   0  0  1  0  0  0
  -20.5881  -28.3607   23.1305 C   0  0  2  0  0  0
  -20.6762  -26.9332   22.5414 C   0  0  0  0  0  0
  -19.5730  -26.6326   21.5209 C   0  0  0  0  0  0
  -18.1903  -26.7866   22.1616 C   0  0  0  0  0  0
  -19.1536  -28.8787   23.2875 C   0  0  0  0  0  0
  -18.9464  -30.1400   23.8862 C   0  0  0  0  0  0
  -17.6466  -30.6529   24.0533 C   0  0  0  0  0  0
  -25.9039  -34.9457   23.5108 C   0  0  0  0  0  0
  -16.5355  -29.9025   23.6304 C   0  0  0  0  0  0
  -16.7282  -28.6439   23.0346 C   0  0  0  0  0  0
  -26.4448  -31.6602   25.0736 C   0  0  0  0  0  0
  -25.3663  -31.3738   26.1448 C   0  0  0  0  0  0
  -27.0282  -30.3039   24.6163 C   0  0  0  0  0  0
  -27.6017  -32.4326   25.7493 C   0  0  0  0  0  0
  -27.5583  -37.1802   24.8453 C   0  0  0  0  0  0
  -21.4186  -29.2997   22.3751 N   0  0  0  0  0  0
  -26.4297  -37.3801   23.9396 N   0  0  0  0  0  0
  -24.6853  -31.0581   22.0964 N   0  0  0  0  0  0
  -23.4212  -28.8083   23.3026 O   0  0  0  0  0  0
  -28.3539  -26.4888   20.1529 O   0  0  0  0  0  0
  -26.5635  -34.8920   22.4689 O   0  0  0  0  0  0
  -23.5384  -32.1398   23.7325 O   0  0  0  0  0  0
  -29.9968  -19.4284   20.3654 C   0  0  0  0  0  0
  -30.3502  -18.0308   20.3408 C   0  0  0  0  0  0
  -28.4940  -17.5560   21.7776 C   0  0  0  0  0  0
  -28.1376  -18.9289   21.7963 C   0  0  0  0  0  0
  -28.8620  -19.9325   21.0802 C   0  0  0  0  0  0
  -29.5917  -17.0521   21.0475 C   0  0  0  0  0  0
  -27.2119  -21.6450   21.7189 C   0  0  0  0  0  0
  -26.9313  -19.3301   22.6187 C   0  0  0  0  0  0
  -26.2219  -20.5058   21.9622 C   0  0  0  0  0  0
  -28.7227  -23.8581   20.0237 C   0  0  0  0  0  0
  -29.2874  -22.5575   20.8065 C   0  0  0  0  0  0
  -28.2251  -25.1637   20.7999 C   0  0  0  0  0  0
  -28.4083  -21.3612   21.1276 N   0  0  0  0  0  0
  -29.7615  -15.5989   21.0969 N   0  0  0  0  0  0
  -26.8902  -22.7637   22.1250 O   0  0  0  0  0  0
  -31.4845  -12.5821   19.1298 H   0  0  0  0  0  0
  -30.4229  -11.4120   19.8651 H   0  0  0  0  0  0
  -29.7708  -11.7907   17.4677 H   0  0  0  0  0  0
  -29.6317  -13.5080   17.7569 H   0  0  0  0  0  0
  -27.8734  -11.2950   18.8647 H   0  0  0  0  0  0
  -27.3729  -12.5864   17.8035 H   0  0  0  0  0  0
  -27.6849  -14.2492   19.5504 H   0  0  0  0  0  0
  -28.7215  -11.9929   21.3424 H   0  0  0  0  0  0
  -28.4302  -13.6118   21.8811 H   0  0  0  0  0  0
  -25.2741   -9.5693   22.4753 H   0  0  0  0  0  0
  -23.9995   -7.4641   22.7486 H   0  0  0  0  0  0
  -21.0817   -8.8747   19.8960 H   0  0  0  0  0  0
  -22.3648  -10.9658   19.6170 H   0  0  0  0  0  0
  -21.2009   -7.6143   23.9694 H   0  0  0  0  0  0
  -21.1495   -6.0522   25.9068 H   0  0  0  0  0  0
  -22.0593   -2.7597   23.2847 H   0  0  0  0  0  0
  -22.4141  -11.9892   22.4790 H   0  0  0  0  0  0
  -21.1136  -13.1256   22.2633 H   0  0  0  0  0  0
  -24.6564  -15.8352   20.5196 H   0  0  0  0  0  0
  -26.2763  -15.6318   20.0853 H   0  0  0  0  0  0
  -26.7153  -32.5469   23.1149 H   0  0  0  0  0  0
  -24.9971  -33.9740   25.0389 H   0  0  0  0  0  0
  -22.7106  -31.2912   21.3965 H   0  0  0  0  0  0
  -23.3740  -35.9642   23.3301 H   0  0  0  0  0  0
  -24.3575  -36.8963   22.2046 H   0  0  0  0  0  0
  -23.7259  -37.6521   23.6671 H   0  0  0  0  0  0
  -26.0722  -31.5523   20.5893 H   0  0  0  0  0  0
  -26.8436  -30.8624   21.9868 H   0  0  0  0  0  0
  -28.1266  -29.0023   21.1812 H   0  0  0  0  0  0
  -26.0220  -25.8960   19.0577 H   0  0  0  0  0  0
  -23.9809  -27.2788   19.0415 H   0  0  0  0  0  0
  -23.7495  -30.5686   19.4005 H   0  0  0  0  0  0
  -22.7574  -29.2214   19.8666 H   0  0  0  0  0  0
  -25.1295  -36.1967   25.0818 H   0  0  0  0  0  0
  -20.9959  -28.3164   24.1424 H   0  0  0  0  0  0
  -20.5642  -26.2201   23.3609 H   0  0  0  0  0  0
  -21.6627  -26.7314   22.1215 H   0  0  0  0  0  0
  -19.6860  -25.6232   21.1246 H   0  0  0  0  0  0
  -19.6656  -27.3122   20.6728 H   0  0  0  0  0  0
  -17.4169  -26.6626   21.4010 H   0  0  0  0  0  0
  -18.0277  -25.9979   22.8980 H   0  0  0  0  0  0
  -19.7945  -30.7229   24.2200 H   0  0  0  0  0  0
  -17.5013  -31.6212   24.5119 H   0  0  0  0  0  0
  -15.5352  -30.2913   23.7603 H   0  0  0  0  0  0
  -15.8690  -28.0756   22.7053 H   0  0  0  0  0  0
  -24.5811  -30.7125   25.7770 H   0  0  0  0  0  0
  -24.8833  -32.2888   26.4880 H   0  0  0  0  0  0
  -25.7929  -30.8898   27.0236 H   0  0  0  0  0  0
  -26.2857  -29.6818   24.1149 H   0  0  0  0  0  0
  -27.3990  -29.7267   25.4649 H   0  0  0  0  0  0
  -27.8714  -30.4386   23.9381 H   0  0  0  0  0  0
  -27.2677  -33.3661   26.2046 H   0  0  0  0  0  0
  -28.3808  -32.6851   25.0281 H   0  0  0  0  0  0
  -28.0695  -31.8463   26.5422 H   0  0  0  0  0  0
  -28.2576  -38.0115   24.7534 H   0  0  0  0  0  0
  -28.1118  -36.2660   24.6261 H   0  0  0  0  0  0
  -27.2309  -37.1449   25.8855 H   0  0  0  0  0  0
  -20.9356  -29.8824   21.7060 H   0  0  0  0  0  0
  -26.0185  -38.2866   24.1422 H   0  0  0  0  0  0
  -30.6191  -20.1073   19.8012 H   0  0  0  0  0  0
  -31.2100  -17.7219   19.7617 H   0  0  0  0  0  0
  -27.8835  -16.8673   22.3461 H   0  0  0  0  0  0
  -27.2528  -19.5912   23.6284 H   0  0  0  0  0  0
  -26.2379  -18.4942   22.7181 H   0  0  0  0  0  0
  -25.7802  -20.2057   21.0123 H   0  0  0  0  0  0
  -25.4033  -20.8516   22.5955 H   0  0  0  0  0  0
  -27.9714  -23.5559   19.2938 H   0  0  0  0  0  0
  -29.5607  -24.2102   19.4203 H   0  0  0  0  0  0
  -29.7438  -22.8905   21.7401 H   0  0  0  0  0  0
  -30.1241  -22.1832   20.2214 H   0  0  0  0  0  0
  -28.7951  -25.2297   21.7273 H   0  0  0  0  0  0
  -27.1930  -25.0170   21.1186 H   0  0  0  0  0  0
  -28.9697  -15.1410   21.5204 H   0  0  0  0  0  0
  1 25  1  0  0  0
  1 30  2  0  0  0
  1 84  1  0  0  0
  2  3  1  0  0  0
  2 25  1  0  0  0
  2 86  1  0  0  0
  2 87  1  0  0  0
  3  4  1  0  0  0
  3 88  1  0  0  0
  3 89  1  0  0  0
  4  5  1  0  0  0
  4 90  1  0  0  0
  4 91  1  0  0  0
  5  6  1  0  0  0
  5 26  1  0  0  0
  5 92  1  0  0  0
  6 25  1  0  0  0
  6 93  1  0  0  0
  6 94  1  0  0  0
  7  8  2  0  0  0
  7 26  1  0  0  0
  7 29  1  0  0  0
  8  9  1  0  0  0
  8 22  1  0  0  0
  9 10  1  0  0  0
  9 27  2  0  0  0
 10 11  2  0  0  0
 10 15  1  0  0  0
 11 12  1  0  0  0
 11 95  1  0  0  0
 12 13  2  0  0  0
 12 96  1  0  0  0
 13 14  1  0  0  0
 13 31  1  0  0  0
 14 15  2  0  0  0
 14 97  1  0  0  0
 15 98  1  0  0  0
 16 17  2  0  0  0
 16 21  1  0  0  0
 16 31  1  0  0  0
 17 18  1  0  0  0
 17 99  1  0  0  0
 18 19  2  0  0  0
 18100  1  0  0  0
 19 20  1  0  0  0
 19 24  1  0  0  0
 20 21  2  0  0  0
 20101  1  0  0  0
 21 23  1  0  0  0
 22 28  1  0  0  0
 22 32  2  0  0  0
 26 27  1  0  0  0
 28102  1  0  0  0
 28103  1  0  0  0
 29104  1  0  0  0
 29105  1  0  0  0
 33 34  1  0  0  0
 33 66  1  0  0  0
 33 70  2  0  0  0
 34 36  1  0  0  0
 34 59  1  0  0  0
 34106  1  0  0  0
 35 44  2  0  0  0
 35 45  1  0  0  0
 35 68  1  0  0  0
 36 56  1  0  0  0
 36107  1  0  0  0
 37 39  1  0  0  0
 37 47  1  0  0  0
 37 66  1  0  0  0
 37108  1  0  0  0
 38 43  2  0  0  0
 38 46  1  0  0  0
 38 47  1  0  0  0
 39 64  1  0  0  0
 39 67  2  0  0  0
 40 52  1  0  0  0
 40 53  2  0  0  0
 40 58  1  0  0  0
 41109  1  0  0  0
 41110  1  0  0  0
 41111  1  0  0  0
 41 48  1  0  0  0
 42 43  1  0  0  0
 42 66  1  0  0  0
 42112  1  0  0  0
 42113  1  0  0  0
 43 44  1  0  0  0
 44114  1  0  0  0
 45 46  2  0  0  0
 45115  1  0  0  0
 46116  1  0  0  0
 47117  1  0  0  0
 47118  1  0  0  0
 48 56  1  0  0  0
 48 65  1  0  0  0
 48119  1  0  0  0
 49 50  1  0  0  0
 49 53  1  0  0  0
 49 64  1  0  0  0
 49120  1  0  0  0
 50 51  1  0  0  0
 50121  1  0  0  0
 50122  1  0  0  0
 51 52  1  0  0  0
 51123  1  0  0  0
 51124  1  0  0  0
 52125  1  0  0  0
 52126  1  0  0  0
 53 54  1  0  0  0
 54 55  2  0  0  0
 54127  1  0  0  0
 55 57  1  0  0  0
 55128  1  0  0  0
 56 69  2  0  0  0
 57 58  2  0  0  0
 57129  1  0  0  0
 58130  1  0  0  0
 59 60  1  0  0  0
 59 61  1  0  0  0
 59 62  1  0  0  0
 60131  1  0  0  0
 60132  1  0  0  0
 60133  1  0  0  0
 61134  1  0  0  0
 61135  1  0  0  0
 61136  1  0  0  0
 62137  1  0  0  0
 62138  1  0  0  0
 62139  1  0  0  0
 63 65  1  0  0  0
 63140  1  0  0  0
 63141  1  0  0  0
 63142  1  0  0  0
 64143  1  0  0  0
 65144  1  0  0  0
 68 82  1  0  0  0
 71 72  2  0  0  0
 71 75  1  0  0  0
 71145  1  0  0  0
 72 76  1  0  0  0
 72146  1  0  0  0
 73 74  1  0  0  0
 73 76  2  0  0  0
 73147  1  0  0  0
 74 75  2  0  0  0
 74 78  1  0  0  0
 75 83  1  0  0  0
 76 84  1  0  0  0
 77 79  1  0  0  0
 77 83  1  0  0  0
 77 85  2  0  0  0
 78 79  1  0  0  0
 78148  1  0  0  0
 78149  1  0  0  0
 79150  1  0  0  0
 79151  1  0  0  0
 80 81  1  0  0  0
 80 82  1  0  0  0
 80152  1  0  0  0
 80153  1  0  0  0
 81 83  1  0  0  0
 81154  1  0  0  0
 81155  1  0  0  0
 82156  1  0  0  0
 82157  1  0  0  0
 84158  1  0  0  0
M  ISO  4   1 100  68 101  82 101  84 100
M  END
> <chiral flag>
0

> <version>
0

> <s_m_source_file>
/data/baiqing/PycharmProjects/Reinvent-master-3.2/result/LINK_invent/BTK/process_docking_weight1_custom_product_contain_oxygen_bond_distance_aromatic_linkinvent_7_9_3/rearranged_h_0005.sdf

> <i_m_source_file_index>
52

> <r_mmod_Potential_Energy-OPLS-2005>
169.990524291992

> <r_mmod_Stretch_Energy-OPLS-2005>
98.2175369262695

> <r_mmod_Bend_Energy-OPLS-2005>
174.615249633789

> <r_mmod_Torsional_Energy-OPLS-2005>
283.316284179688

> <r_mmod_Improper_Torsional_Energy-OPLS-2005>
3.63375854492188

> <r_mmod_Van_der_Waal_Energy-OPLS-2005>
156.404556274414

> <r_mmod_Electrostatic_Energy-OPLS-2005>
-378.820617675781

> <r_mmod_Solvation_Energy-OPLS-2005>
-217.251998901367

> <b_mmod_Minimization_Converged-OPLS-2005>
0

> <r_mmod_RMS_Derivative-OPLS-2005>
2.63849973678589

$$$$
52
                    3D
 Structure written by MMmdl.
160169  0  0  1  0            999 V2000
  -30.7209  -14.4368   20.6001 C   0  0  0  0  0  0
  -30.4209  -12.2911   19.4219 C   0  0  0  0  0  0
  -29.4958  -12.5163   18.2085 C   0  0  0  0  0  0
  -28.0178  -12.3753   18.6174 C   0  0  0  0  0  0
  -27.6667  -13.2068   19.8813 C   0  0  2  0  0  0
  -28.7038  -12.9655   21.0017 C   0  0  0  0  0  0
  -25.2600  -13.8160   20.5711 C   0  0  0  0  0  0
  -24.1843  -13.0426   20.9160 C   0  0  0  0  0  0
  -24.6403  -11.6894   20.8719 C   0  0  0  0  0  0
  -23.9074  -10.4282   21.0405 C   0  0  0  0  0  0
  -24.3626   -9.4189   21.9183 C   0  0  0  0  0  0
  -23.6295   -8.2225   22.0761 C   0  0  0  0  0  0
  -22.4274   -8.0274   21.3551 C   0  0  0  0  0  0
  -21.9920   -9.0250   20.4640 C   0  0  0  0  0  0
  -22.7251  -10.2124   20.3044 C   0  0  0  0  0  0
  -21.6838   -6.0727   22.5288 C   0  0  0  0  0  0
  -21.4007   -6.5642   23.8213 C   0  0  0  0  0  0
  -21.3663   -5.6795   24.9183 C   0  0  0  0  0  0
  -21.6045   -4.3056   24.7229 C   0  0  0  0  0  0
  -21.8811   -3.8140   23.4352 C   0  0  0  0  0  0
  -21.9186   -4.6956   22.3407 C   0  0  0  0  0  0
  -22.7859  -13.5219   21.1834 C   0  0  0  0  0  0
  -22.1645   -4.2138   21.0988 F   0  0  0  0  0  0
  -21.5644   -3.4545   25.7751 F   0  0  0  0  0  0
  -30.0465  -13.2615   20.4637 N   0  0  0  0  0  0
  -26.3046  -12.9342   20.3383 N   0  0  0  0  0  0
  -25.9334  -11.6485   20.5747 N   0  0  0  0  0  0
  -22.0498  -12.8200   22.0376 N   0  0  0  0  0  0
  -25.4333  -15.1885   20.4234 N   0  0  0  0  0  0
  -31.8089  -14.6460   20.0562 O   0  0  0  0  0  0
  -21.6626   -6.8877   21.4254 O   0  0  0  0  0  0
  -22.3529  -14.5520   20.6703 O   0  0  0  0  0  0
  -24.6132  -31.8690   23.2113 C   0  0  0  0  0  0
  -25.9035  -32.4825   23.8402 C   0  0  1  0  0  0
  -27.2361  -27.4400   20.0834 C   0  0  0  0  0  0
  -25.5897  -33.8623   24.2327 N   0  0  0  0  0  0
  -23.3990  -30.4945   21.5519 C   0  0  2  0  0  0
  -24.8430  -28.9620   20.1154 C   0  0  0  0  0  0
  -22.7393  -29.4663   22.4987 C   0  0  0  0  0  0
  -18.0268  -28.1382   22.8486 C   0  0  0  0  0  0
  -24.1481  -36.7315   23.2640 C   0  0  0  0  0  0
  -25.9286  -30.8346   21.3651 C   0  0  0  0  0  0
  -26.0025  -29.4703   20.7107 C   0  0  0  0  0  0
  -27.1956  -28.7153   20.6940 C   0  0  0  0  0  0
  -26.0465  -26.9372   19.5014 C   0  0  0  0  0  0
  -24.8602  -27.6941   19.5112 C   0  0  0  0  0  0
  -23.6061  -29.8301   20.1649 C   0  0  0  0  0  0
  -25.4103  -36.3115   24.0335 C   0  0  1  0  0  0
  -20.5856  -28.3665   23.1317 C   0  0  2  0  0  0
  -20.6760  -26.9402   22.5414 C   0  0  0  0  0  0
  -19.5739  -26.6389   21.5212 C   0  0  0  0  0  0
  -18.1916  -26.7927   22.1621 C   0  0  0  0  0  0
  -19.1518  -28.8839   23.2903 C   0  0  0  0  0  0
  -18.9446  -30.1452   23.8912 C   0  0  0  0  0  0
  -17.6451  -30.6591   24.0569 C   0  0  0  0  0  0
  -25.9036  -34.9479   23.5128 C   0  0  0  0  0  0
  -16.5342  -29.9095   23.6330 C   0  0  0  0  0  0
  -16.7259  -28.6515   23.0337 C   0  0  0  0  0  0
  -26.4465  -31.6611   25.0737 C   0  0  0  0  0  0
  -25.3737  -31.3720   26.1489 C   0  0  0  0  0  0
  -27.0301  -30.3055   24.6124 C   0  0  0  0  0  0
  -27.6045  -32.4335   25.7495 C   0  0  0  0  0  0
  -27.5579  -37.1809   24.8460 C   0  0  0  0  0  0
  -21.4121  -29.3038   22.3726 N   0  0  0  0  0  0
  -26.4289  -37.3800   23.9413 N   0  0  0  0  0  0
  -24.6652  -31.0794   22.1014 N   0  0  0  0  0  0
  -23.4178  -28.8191   23.3015 O   0  0  0  0  0  0
  -28.4433  -26.7662   20.1062 O   0  0  0  0  0  0
  -26.5598  -34.8926   22.4691 O   0  0  0  0  0  0
  -23.5336  -32.1430   23.7533 O   0  0  0  0  0  0
  -30.5328  -18.8386   19.8749 C   0  0  0  0  0  0
  -28.4834  -18.7237   21.1736 C   0  0  0  0  0  0
  -30.8395  -17.5099   20.2428 C   0  0  0  0  0  0
  -28.7865  -17.3967   21.5389 C   0  0  0  0  0  0
  -29.3331  -19.4447   20.3079 C   0  0  0  0  0  0
  -29.9428  -16.7560   21.0426 C   0  0  0  0  0  0
  -30.4679  -23.8342   20.0845 C   0  0  0  0  0  0
  -30.4558  -22.4606   20.7646 C   0  0  0  0  0  0
  -28.2032  -23.1174   20.2929 C   0  0  0  0  0  0
  -29.0701  -24.3913   20.3614 C   0  0  2  0  0  0
  -28.8901  -20.7986   19.7475 C   0  0  0  0  0  0
  -28.6472  -25.5360   19.4017 C   0  0  0  0  0  0
  -30.0999  -15.3688   21.3466 N   0  0  0  0  0  0
  -29.0663  -21.9583   20.6604 N   0  3  1  0  0  0
  -31.4673  -12.3770   19.1252 H   0  0  0  0  0  0
  -30.3082  -11.2756   19.8025 H   0  0  0  0  0  0
  -29.7321  -11.8087   17.4126 H   0  0  0  0  0  0
  -29.6674  -13.5119   17.7967 H   0  0  0  0  0  0
  -27.8239  -11.3186   18.8056 H   0  0  0  0  0  0
  -27.3721  -12.6604   17.7862 H   0  0  0  0  0  0
  -27.7196  -14.2596   19.6025 H   0  0  0  0  0  0
  -28.6648  -11.9252   21.3262 H   0  0  0  0  0  0
  -28.4537  -13.5508   21.8875 H   0  0  0  0  0  0
  -25.2782   -9.5643   22.4743 H   0  0  0  0  0  0
  -23.9986   -7.4606   22.7491 H   0  0  0  0  0  0
  -21.0853   -8.8778   19.8944 H   0  0  0  0  0  0
  -22.3730  -10.9666   19.6135 H   0  0  0  0  0  0
  -21.1984   -7.6147   23.9719 H   0  0  0  0  0  0
  -21.1504   -6.0533   25.9091 H   0  0  0  0  0  0
  -22.0585   -2.7605   23.2869 H   0  0  0  0  0  0
  -22.4136  -11.9852   22.4737 H   0  0  0  0  0  0
  -21.1106  -13.1206   22.2576 H   0  0  0  0  0  0
  -24.6766  -15.8500   20.5587 H   0  0  0  0  0  0
  -26.2979  -15.6288   20.1356 H   0  0  0  0  0  0
  -26.7105  -32.5529   23.1170 H   0  0  0  0  0  0
  -25.0046  -33.9792   25.0474 H   0  0  0  0  0  0
  -22.6877  -31.3121   21.4162 H   0  0  0  0  0  0
  -23.3743  -35.9646   23.3300 H   0  0  0  0  0  0
  -24.3571  -36.8935   22.2052 H   0  0  0  0  0  0
  -23.7234  -37.6518   23.6656 H   0  0  0  0  0  0
  -26.0450  -31.6032   20.5996 H   0  0  0  0  0  0
  -26.8157  -30.8821   21.9855 H   0  0  0  0  0  0
  -28.0930  -29.1106   21.1495 H   0  0  0  0  0  0
  -25.9863  -25.9656   19.0391 H   0  0  0  0  0  0
  -23.9655  -27.2920   19.0557 H   0  0  0  0  0  0
  -23.7172  -30.6085   19.4088 H   0  0  0  0  0  0
  -22.7276  -29.2550   19.8656 H   0  0  0  0  0  0
  -25.1282  -36.1976   25.0828 H   0  0  0  0  0  0
  -20.9950  -28.3239   24.1438 H   0  0  0  0  0  0
  -20.5665  -26.2275   23.3598 H   0  0  0  0  0  0
  -21.6629  -26.7449   22.1208 H   0  0  0  0  0  0
  -19.6902  -25.6305   21.1228 H   0  0  0  0  0  0
  -19.6682  -27.3212   20.6745 H   0  0  0  0  0  0
  -17.4181  -26.6671   21.4028 H   0  0  0  0  0  0
  -18.0323  -26.0072   22.9022 H   0  0  0  0  0  0
  -19.7926  -30.7261   24.2285 H   0  0  0  0  0  0
  -17.5011  -31.6267   24.5171 H   0  0  0  0  0  0
  -15.5347  -30.3007   23.7648 H   0  0  0  0  0  0
  -15.8651  -28.0855   22.7032 H   0  0  0  0  0  0
  -24.5894  -30.7083   25.7830 H   0  0  0  0  0  0
  -24.8947  -32.2876   26.4965 H   0  0  0  0  0  0
  -25.8094  -30.8865   27.0232 H   0  0  0  0  0  0
  -26.2852  -29.6818   24.1165 H   0  0  0  0  0  0
  -27.4048  -29.7293   25.4596 H   0  0  0  0  0  0
  -27.8694  -30.4369   23.9293 H   0  0  0  0  0  0
  -27.2665  -33.3624   26.2099 H   0  0  0  0  0  0
  -28.3839  -32.6911   25.0313 H   0  0  0  0  0  0
  -28.0725  -31.8441   26.5390 H   0  0  0  0  0  0
  -28.2590  -38.0114   24.7525 H   0  0  0  0  0  0
  -28.1081  -36.2645   24.6262 H   0  0  0  0  0  0
  -27.2294  -37.1438   25.8863 H   0  0  0  0  0  0
  -20.9270  -29.8785   21.6972 H   0  0  0  0  0  0
  -26.0172  -38.2871   24.1433 H   0  0  0  0  0  0
  -31.2054  -19.3710   19.2148 H   0  0  0  0  0  0
  -27.5564  -19.1605   21.5165 H   0  0  0  0  0  0
  -31.7527  -17.0776   19.8617 H   0  0  0  0  0  0
  -28.0898  -16.8555   22.1639 H   0  0  0  0  0  0
  -30.6137  -23.7005   19.0109 H   0  0  0  0  0  0
  -31.2650  -24.4818   20.4505 H   0  0  0  0  0  0
  -30.6947  -22.5761   21.8224 H   0  0  0  0  0  0
  -31.1994  -21.7859   20.3393 H   0  0  0  0  0  0
  -27.8184  -22.9892   19.2798 H   0  0  0  0  0  0
  -27.3363  -23.1796   20.9508 H   0  0  0  0  0  0
  -29.0497  -24.7586   21.3891 H   0  0  0  0  0  0
  -27.8306  -20.6970   19.5060 H   0  0  0  0  0  0
  -29.3891  -20.9967   18.7979 H   0  0  0  0  0  0
  -27.8377  -25.2236   18.7499 H   0  0  0  0  0  0
  -29.4642  -25.7394   18.7092 H   0  0  0  0  0  0
  -29.3589  -14.9816   21.9102 H   0  0  0  0  0  0
  -28.7911  -21.6496   21.5808 H   0  0  0  0  0  0
  1 25  1  0  0  0
  1 30  2  0  0  0
  1 83  1  0  0  0
  2  3  1  0  0  0
  2 25  1  0  0  0
  2 85  1  0  0  0
  2 86  1  0  0  0
  3  4  1  0  0  0
  3 87  1  0  0  0
  3 88  1  0  0  0
  4  5  1  0  0  0
  4 89  1  0  0  0
  4 90  1  0  0  0
  5  6  1  0  0  0
  5 26  1  0  0  0
  5 91  1  0  0  0
  6 25  1  0  0  0
  6 92  1  0  0  0
  6 93  1  0  0  0
  7  8  2  0  0  0
  7 26  1  0  0  0
  7 29  1  0  0  0
  8  9  1  0  0  0
  8 22  1  0  0  0
  9 10  1  0  0  0
  9 27  2  0  0  0
 10 11  2  0  0  0
 10 15  1  0  0  0
 11 12  1  0  0  0
 11 94  1  0  0  0
 12 13  2  0  0  0
 12 95  1  0  0  0
 13 14  1  0  0  0
 13 31  1  0  0  0
 14 15  2  0  0  0
 14 96  1  0  0  0
 15 97  1  0  0  0
 16 17  2  0  0  0
 16 21  1  0  0  0
 16 31  1  0  0  0
 17 18  1  0  0  0
 17 98  1  0  0  0
 18 19  2  0  0  0
 18 99  1  0  0  0
 19 20  1  0  0  0
 19 24  1  0  0  0
 20 21  2  0  0  0
 20100  1  0  0  0
 21 23  1  0  0  0
 22 28  1  0  0  0
 22 32  2  0  0  0
 26 27  1  0  0  0
 28101  1  0  0  0
 28102  1  0  0  0
 29103  1  0  0  0
 29104  1  0  0  0
 33 34  1  0  0  0
 33 66  1  0  0  0
 33 70  2  0  0  0
 34 36  1  0  0  0
 34 59  1  0  0  0
 34105  1  0  0  0
 35 44  2  0  0  0
 35 45  1  0  0  0
 35 68  1  0  0  0
 36 56  1  0  0  0
 36106  1  0  0  0
 37 39  1  0  0  0
 37 47  1  0  0  0
 37 66  1  0  0  0
 37107  1  0  0  0
 38 43  2  0  0  0
 38 46  1  0  0  0
 38 47  1  0  0  0
 39 64  1  0  0  0
 39 67  2  0  0  0
 40 52  1  0  0  0
 40 53  2  0  0  0
 40 58  1  0  0  0
 41108  1  0  0  0
 41109  1  0  0  0
 41110  1  0  0  0
 41 48  1  0  0  0
 42 43  1  0  0  0
 42 66  1  0  0  0
 42111  1  0  0  0
 42112  1  0  0  0
 43 44  1  0  0  0
 44113  1  0  0  0
 45 46  2  0  0  0
 45114  1  0  0  0
 46115  1  0  0  0
 47116  1  0  0  0
 47117  1  0  0  0
 48 56  1  0  0  0
 48 65  1  0  0  0
 48118  1  0  0  0
 49 50  1  0  0  0
 49 53  1  0  0  0
 49 64  1  0  0  0
 49119  1  0  0  0
 50 51  1  0  0  0
 50120  1  0  0  0
 50121  1  0  0  0
 51 52  1  0  0  0
 51122  1  0  0  0
 51123  1  0  0  0
 52124  1  0  0  0
 52125  1  0  0  0
 53 54  1  0  0  0
 54 55  2  0  0  0
 54126  1  0  0  0
 55 57  1  0  0  0
 55127  1  0  0  0
 56 69  2  0  0  0
 57 58  2  0  0  0
 57128  1  0  0  0
 58129  1  0  0  0
 59 60  1  0  0  0
 59 61  1  0  0  0
 59 62  1  0  0  0
 60130  1  0  0  0
 60131  1  0  0  0
 60132  1  0  0  0
 61133  1  0  0  0
 61134  1  0  0  0
 61135  1  0  0  0
 62136  1  0  0  0
 62137  1  0  0  0
 62138  1  0  0  0
 63 65  1  0  0  0
 63139  1  0  0  0
 63140  1  0  0  0
 63141  1  0  0  0
 64142  1  0  0  0
 65143  1  0  0  0
 68 82  1  0  0  0
 71 73  2  0  0  0
 71 75  1  0  0  0
 71144  1  0  0  0
 72 74  1  0  0  0
 72 75  2  0  0  0
 72145  1  0  0  0
 73 76  1  0  0  0
 73146  1  0  0  0
 74 76  2  0  0  0
 74147  1  0  0  0
 75 81  1  0  0  0
 76 83  1  0  0  0
 77 78  1  0  0  0
 77 80  1  0  0  0
 77148  1  0  0  0
 77149  1  0  0  0
 78 84  1  0  0  0
 78150  1  0  0  0
 78151  1  0  0  0
 79 80  1  0  0  0
 79 84  1  0  0  0
 79152  1  0  0  0
 79153  1  0  0  0
 80 82  1  0  0  0
 80154  1  0  0  0
 81155  1  0  0  0
 81156  1  0  0  0
 81 84  1  0  0  0
 82157  1  0  0  0
 82158  1  0  0  0
 83159  1  0  0  0
 84160  1  0  0  0
M  CHG  1  84   1
M  ISO  4   1 100  68 101  82 101  83 100
M  END
> <chiral flag>
0

> <version>
0

> <s_m_source_file>
/data/baiqing/PycharmProjects/Reinvent-master-3.2/result/LINK_invent/BTK/process_docking_weight1_custom_product_contain_oxygen_bond_distance_aromatic_linkinvent_7_9_3/rearranged_h_0005.sdf

> <i_m_source_file_index>
53

> <r_mmod_Potential_Energy-OPLS-2005>
-98.3063049316406

> <r_mmod_Stretch_Energy-OPLS-2005>
36.9532814025879

> <r_mmod_Bend_Energy-OPLS-2005>
133.901504516602

> <r_mmod_Torsional_Energy-OPLS-2005>
283.286407470703

> <r_mmod_Improper_Torsional_Energy-OPLS-2005>
4.44681596755981

> <r_mmod_Van_der_Waal_Energy-OPLS-2005>
153.652893066406

> <r_mmod_Electrostatic_Energy-OPLS-2005>
-269.971130371094

> <r_mmod_Solvation_Energy-OPLS-2005>
-450.916168212891

> <b_mmod_Minimization_Converged-OPLS-2005>
0

> <r_mmod_RMS_Derivative-OPLS-2005>
2.27252650260925

$$$$
53
                    3D
 Structure written by MMmdl.
178187  0  0  1  0            999 V2000
  -30.7589  -14.4011   20.5983 C   0  0  0  0  0  0
  -30.4036  -12.2782   19.4164 C   0  0  0  0  0  0
  -29.4859  -12.5116   18.2024 C   0  0  0  0  0  0
  -28.0080  -12.3809   18.6145 C   0  0  0  0  0  0
  -27.6621  -13.2122   19.8795 C   0  0  2  0  0  0
  -28.7022  -12.9893   21.0012 C   0  0  0  0  0  0
  -25.2580  -13.8185   20.5695 C   0  0  0  0  0  0
  -24.1835  -13.0455   20.9186 C   0  0  0  0  0  0
  -24.6394  -11.6922   20.8745 C   0  0  0  0  0  0
  -23.9063  -10.4304   21.0408 C   0  0  0  0  0  0
  -24.3616   -9.4218   21.9183 C   0  0  0  0  0  0
  -23.6296   -8.2250   22.0751 C   0  0  0  0  0  0
  -22.4277   -8.0288   21.3542 C   0  0  0  0  0  0
  -21.9911   -9.0261   20.4644 C   0  0  0  0  0  0
  -22.7237  -10.2144   20.3057 C   0  0  0  0  0  0
  -21.6853   -6.0741   22.5285 C   0  0  0  0  0  0
  -21.4007   -6.5643   23.8217 C   0  0  0  0  0  0
  -21.3658   -5.6796   24.9180 C   0  0  0  0  0  0
  -21.6052   -4.3060   24.7227 C   0  0  0  0  0  0
  -21.8813   -3.8150   23.4348 C   0  0  0  0  0  0
  -21.9188   -4.6969   22.3407 C   0  0  0  0  0  0
  -22.7855  -13.5244   21.1852 C   0  0  0  0  0  0
  -22.1661   -4.2158   21.0983 F   0  0  0  0  0  0
  -21.5629   -3.4543   25.7735 F   0  0  0  0  0  0
  -30.0381  -13.2619   20.4470 N   0  0  0  0  0  0
  -26.3022  -12.9368   20.3387 N   0  0  0  0  0  0
  -25.9324  -11.6519   20.5781 N   0  0  0  0  0  0
  -22.0486  -12.8234   22.0409 N   0  0  0  0  0  0
  -25.4309  -15.1900   20.4099 N   0  0  0  0  0  0
  -31.8553  -14.5738   20.0613 O   0  0  0  0  0  0
  -21.6641   -6.8886   21.4245 O   0  0  0  0  0  0
  -22.3544  -14.5558   20.6717 O   0  0  0  0  0  0
  -24.6110  -31.8703   23.2117 C   0  0  0  0  0  0
  -25.9030  -32.4825   23.8401 C   0  0  1  0  0  0
  -27.2358  -27.4631   20.0966 C   0  0  0  0  0  0
  -25.5929  -33.8621   24.2356 N   0  0  0  0  0  0
  -23.3985  -30.4921   21.5503 C   0  0  2  0  0  0
  -24.8472  -28.9585   20.1167 C   0  0  0  0  0  0
  -22.7400  -29.4647   22.4988 C   0  0  0  0  0  0
  -18.0259  -28.1366   22.8447 C   0  0  0  0  0  0
  -24.1502  -36.7303   23.2637 C   0  0  0  0  0  0
  -25.9234  -30.8453   21.3593 C   0  0  0  0  0  0
  -26.0033  -29.4775   20.7153 C   0  0  0  0  0  0
  -27.2008  -28.7331   20.7099 C   0  0  0  0  0  0
  -26.0726  -26.9518   19.4870 C   0  0  0  0  0  0
  -24.8743  -27.6918   19.5055 C   0  0  0  0  0  0
  -23.6072  -29.8231   20.1635 C   0  0  0  0  0  0
  -25.4120  -36.3104   24.0346 C   0  0  1  0  0  0
  -20.5854  -28.3633   23.1313 C   0  0  2  0  0  0
  -20.6769  -26.9375   22.5407 C   0  0  0  0  0  0
  -19.5765  -26.6367   21.5187 C   0  0  0  0  0  0
  -18.1925  -26.7908   22.1586 C   0  0  0  0  0  0
  -19.1512  -28.8815   23.2869 C   0  0  0  0  0  0
  -18.9458  -30.1417   23.8881 C   0  0  0  0  0  0
  -17.6470  -30.6571   24.0554 C   0  0  0  0  0  0
  -25.9051  -34.9475   23.5145 C   0  0  0  0  0  0
  -16.5352  -29.9079   23.6318 C   0  0  0  0  0  0
  -16.7254  -28.6498   23.0329 C   0  0  0  0  0  0
  -26.4482  -31.6591   25.0702 C   0  0  0  0  0  0
  -25.3777  -31.3688   26.1465 C   0  0  0  0  0  0
  -27.0310  -30.3055   24.6018 C   0  0  0  0  0  0
  -27.6074  -32.4298   25.7465 C   0  0  0  0  0  0
  -27.5597  -37.1800   24.8467 C   0  0  0  0  0  0
  -21.4128  -29.3007   22.3727 N   0  0  0  0  0  0
  -26.4303  -37.3789   23.9414 N   0  0  0  0  0  0
  -24.6620  -31.0834   22.0997 N   0  0  0  0  0  0
  -23.4176  -28.8196   23.3030 O   0  0  0  0  0  0
  -28.3916  -26.7298   20.0666 O   0  0  0  0  0  0
  -26.5569  -34.8919   22.4679 O   0  0  0  0  0  0
  -23.5320  -32.1455   23.7539 O   0  0  0  0  0  0
  -28.5540  -19.7033   21.6562 C   0  0  0  0  0  0
  -29.2069  -18.5388   21.2120 C   0  0  0  0  0  0
  -29.5506  -19.4064   23.8515 C   0  0  0  0  0  0
  -28.7470  -20.1657   22.9733 C   0  0  0  0  0  0
  -30.0581  -17.8113   22.0692 C   0  0  0  0  0  0
  -30.1994  -18.2259   23.4237 C   0  0  0  0  0  0
  -28.4093  -23.7004   22.4122 C   0  0  0  0  0  0
  -32.9237  -16.3612   25.0080 C   0  0  0  0  0  0
  -32.3923  -17.6693   24.4064 C   0  0  0  0  0  0
  -30.5681  -16.1391   24.6735 C   0  0  0  0  0  0
  -31.8681  -15.3164   24.6074 C   0  0  2  0  0  0
  -30.7593  -13.1431   25.0483 C   0  0  0  0  0  0
  -33.1487  -13.3855   25.5018 C   0  0  0  0  0  0
  -28.0855  -21.4507   23.4635 C   0  0  0  0  0  0
  -30.8699  -16.6837   21.4432 C   0  0  0  0  0  0
  -28.1117  -24.5598   21.1745 C   0  0  0  0  0  0
  -28.6565  -26.0018   21.2668 C   0  0  0  0  0  0
  -30.9406  -17.5229   24.3912 N   0  0  0  0  0  0
  -27.9104  -22.4560   22.4131 N   0  0  0  0  0  0
  -30.1979  -15.3896   21.3087 N   0  0  0  0  0  0
  -31.8404  -14.0811   25.4417 N   0  3  0  0  0  0
  -29.0711  -24.1482   23.3502 O   0  0  0  0  0  0
  -31.4517  -12.3437   19.1177 H   0  0  0  0  0  0
  -30.2738  -11.2666   19.8041 H   0  0  0  0  0  0
  -29.7179  -11.7981   17.4102 H   0  0  0  0  0  0
  -29.6684  -13.5029   17.7849 H   0  0  0  0  0  0
  -27.8073  -11.3245   18.7969 H   0  0  0  0  0  0
  -27.3608  -12.6725   17.7871 H   0  0  0  0  0  0
  -27.7100  -14.2624   19.5916 H   0  0  0  0  0  0
  -28.6612  -11.9587   21.3559 H   0  0  0  0  0  0
  -28.4704  -13.6061   21.8711 H   0  0  0  0  0  0
  -25.2756   -9.5694   22.4764 H   0  0  0  0  0  0
  -24.0010   -7.4632   22.7462 H   0  0  0  0  0  0
  -21.0844   -8.8778   19.8943 H   0  0  0  0  0  0
  -22.3691  -10.9686   19.6172 H   0  0  0  0  0  0
  -21.1999   -7.6146   23.9723 H   0  0  0  0  0  0
  -21.1486   -6.0525   25.9084 H   0  0  0  0  0  0
  -22.0592   -2.7614   23.2845 H   0  0  0  0  0  0
  -22.4076  -11.9887   22.4796 H   0  0  0  0  0  0
  -21.1103  -13.1265   22.2604 H   0  0  0  0  0  0
  -24.6672  -15.8489   20.5149 H   0  0  0  0  0  0
  -26.2911  -15.6272   20.1034 H   0  0  0  0  0  0
  -26.7093  -32.5580   23.1167 H   0  0  0  0  0  0
  -25.0156  -33.9779   25.0562 H   0  0  0  0  0  0
  -22.6845  -31.3074   21.4114 H   0  0  0  0  0  0
  -23.3757  -35.9646   23.3303 H   0  0  0  0  0  0
  -24.3609  -36.8913   22.2050 H   0  0  0  0  0  0
  -23.7249  -37.6515   23.6645 H   0  0  0  0  0  0
  -26.0263  -31.6085   20.5858 H   0  0  0  0  0  0
  -26.8168  -30.9051   21.9708 H   0  0  0  0  0  0
  -28.0965  -29.1296   21.1658 H   0  0  0  0  0  0
  -26.0946  -25.9843   19.0025 H   0  0  0  0  0  0
  -23.9863  -27.2877   19.0395 H   0  0  0  0  0  0
  -23.7154  -30.6010   19.4051 H   0  0  0  0  0  0
  -22.7336  -29.2408   19.8650 H   0  0  0  0  0  0
  -25.1284  -36.1981   25.0840 H   0  0  0  0  0  0
  -20.9915  -28.3204   24.1451 H   0  0  0  0  0  0
  -20.5707  -26.2235   23.3586 H   0  0  0  0  0  0
  -21.6640  -26.7455   22.1201 H   0  0  0  0  0  0
  -19.6953  -25.6280   21.1212 H   0  0  0  0  0  0
  -19.6742  -27.3194   20.6733 H   0  0  0  0  0  0
  -17.4216  -26.6631   21.3967 H   0  0  0  0  0  0
  -18.0313  -26.0059   22.8994 H   0  0  0  0  0  0
  -19.7957  -30.7195   24.2280 H   0  0  0  0  0  0
  -17.5049  -31.6266   24.5135 H   0  0  0  0  0  0
  -15.5354  -30.2986   23.7668 H   0  0  0  0  0  0
  -15.8642  -28.0830   22.7039 H   0  0  0  0  0  0
  -24.5938  -30.7044   25.7806 H   0  0  0  0  0  0
  -24.8970  -32.2845   26.4916 H   0  0  0  0  0  0
  -25.8133  -30.8853   27.0211 H   0  0  0  0  0  0
  -26.2815  -29.6801   24.1142 H   0  0  0  0  0  0
  -27.4206  -29.7280   25.4407 H   0  0  0  0  0  0
  -27.8599  -30.4399   23.9060 H   0  0  0  0  0  0
  -27.2697  -33.3580   26.2080 H   0  0  0  0  0  0
  -28.3863  -32.6888   25.0281 H   0  0  0  0  0  0
  -28.0774  -31.8401   26.5349 H   0  0  0  0  0  0
  -28.2587  -38.0120   24.7517 H   0  0  0  0  0  0
  -28.1097  -36.2636   24.6265 H   0  0  0  0  0  0
  -27.2300  -37.1434   25.8866 H   0  0  0  0  0  0
  -20.9288  -29.8740   21.6964 H   0  0  0  0  0  0
  -26.0187  -38.2863   24.1439 H   0  0  0  0  0  0
  -27.9237  -20.2446   20.9653 H   0  0  0  0  0  0
  -29.0819  -18.2237   20.1851 H   0  0  0  0  0  0
  -29.6751  -19.7375   24.8736 H   0  0  0  0  0  0
  -32.9731  -16.4563   26.0940 H   0  0  0  0  0  0
  -33.9244  -16.1207   24.6455 H   0  0  0  0  0  0
  -32.7844  -17.8295   23.4013 H   0  0  0  0  0  0
  -32.6945  -18.5287   25.0080 H   0  0  0  0  0  0
  -30.1405  -16.1056   25.6775 H   0  0  0  0  0  0
  -29.8091  -15.7608   23.9880 H   0  0  0  0  0  0
  -32.0549  -15.0190   23.5750 H   0  0  0  0  0  0
  -29.7746  -13.6064   25.1105 H   0  0  0  0  0  0
  -30.7384  -12.2751   25.7080 H   0  0  0  0  0  0
  -30.8991  -12.7825   24.0284 H   0  0  0  0  0  0
  -33.9195  -14.0163   25.9444 H   0  0  0  0  0  0
  -33.4828  -13.0852   24.5078 H   0  0  0  0  0  0
  -33.0836  -12.4872   26.1173 H   0  0  0  0  0  0
  -28.6567  -21.8498   24.3045 H   0  0  0  0  0  0
  -27.1033  -21.1947   23.8638 H   0  0  0  0  0  0
  -31.8187  -16.5555   21.9570 H   0  0  0  0  0  0
  -31.1581  -17.0264   20.4463 H   0  0  0  0  0  0
  -27.0329  -24.5843   21.0251 H   0  0  0  0  0  0
  -28.5393  -24.0671   20.3016 H   0  0  0  0  0  0
  -29.7371  -25.9773   21.4088 H   0  0  0  0  0  0
  -28.2460  -26.5097   22.1425 H   0  0  0  0  0  0
  -27.3782  -22.1739   21.6023 H   0  0  0  0  0  0
  -29.2738  -15.2661   21.6932 H   0  0  0  0  0  0
  -31.6329  -14.3687   26.3875 H   0  0  0  0  0  0
  1 25  1  0  0  0
  1 30  2  0  0  0
  1 90  1  0  0  0
  2  3  1  0  0  0
  2 25  1  0  0  0
  2 93  1  0  0  0
  2 94  1  0  0  0
  3  4  1  0  0  0
  3 95  1  0  0  0
  3 96  1  0  0  0
  4  5  1  0  0  0
  4 97  1  0  0  0
  4 98  1  0  0  0
  5  6  1  0  0  0
  5 26  1  0  0  0
  5 99  1  0  0  0
  6 25  1  0  0  0
  6100  1  0  0  0
  6101  1  0  0  0
  7  8  2  0  0  0
  7 26  1  0  0  0
  7 29  1  0  0  0
  8  9  1  0  0  0
  8 22  1  0  0  0
  9 10  1  0  0  0
  9 27  2  0  0  0
 10 11  2  0  0  0
 10 15  1  0  0  0
 11 12  1  0  0  0
 11102  1  0  0  0
 12 13  2  0  0  0
 12103  1  0  0  0
 13 14  1  0  0  0
 13 31  1  0  0  0
 14 15  2  0  0  0
 14104  1  0  0  0
 15105  1  0  0  0
 16 17  2  0  0  0
 16 21  1  0  0  0
 16 31  1  0  0  0
 17 18  1  0  0  0
 17106  1  0  0  0
 18 19  2  0  0  0
 18107  1  0  0  0
 19 20  1  0  0  0
 19 24  1  0  0  0
 20 21  2  0  0  0
 20108  1  0  0  0
 21 23  1  0  0  0
 22 28  1  0  0  0
 22 32  2  0  0  0
 26 27  1  0  0  0
 28109  1  0  0  0
 28110  1  0  0  0
 29111  1  0  0  0
 29112  1  0  0  0
 33 34  1  0  0  0
 33 66  1  0  0  0
 33 70  2  0  0  0
 34 36  1  0  0  0
 34 59  1  0  0  0
 34113  1  0  0  0
 35 44  2  0  0  0
 35 45  1  0  0  0
 35 68  1  0  0  0
 36 56  1  0  0  0
 36114  1  0  0  0
 37 39  1  0  0  0
 37 47  1  0  0  0
 37 66  1  0  0  0
 37115  1  0  0  0
 38 43  2  0  0  0
 38 46  1  0  0  0
 38 47  1  0  0  0
 39 64  1  0  0  0
 39 67  2  0  0  0
 40 52  1  0  0  0
 40 53  2  0  0  0
 40 58  1  0  0  0
 41116  1  0  0  0
 41117  1  0  0  0
 41118  1  0  0  0
 41 48  1  0  0  0
 42 43  1  0  0  0
 42 66  1  0  0  0
 42119  1  0  0  0
 42120  1  0  0  0
 43 44  1  0  0  0
 44121  1  0  0  0
 45 46  2  0  0  0
 45122  1  0  0  0
 46123  1  0  0  0
 47124  1  0  0  0
 47125  1  0  0  0
 48 56  1  0  0  0
 48 65  1  0  0  0
 48126  1  0  0  0
 49 50  1  0  0  0
 49 53  1  0  0  0
 49 64  1  0  0  0
 49127  1  0  0  0
 50 51  1  0  0  0
 50128  1  0  0  0
 50129  1  0  0  0
 51 52  1  0  0  0
 51130  1  0  0  0
 51131  1  0  0  0
 52132  1  0  0  0
 52133  1  0  0  0
 53 54  1  0  0  0
 54 55  2  0  0  0
 54134  1  0  0  0
 55 57  1  0  0  0
 55135  1  0  0  0
 56 69  2  0  0  0
 57 58  2  0  0  0
 57136  1  0  0  0
 58137  1  0  0  0
 59 60  1  0  0  0
 59 61  1  0  0  0
 59 62  1  0  0  0
 60138  1  0  0  0
 60139  1  0  0  0
 60140  1  0  0  0
 61141  1  0  0  0
 61142  1  0  0  0
 61143  1  0  0  0
 62144  1  0  0  0
 62145  1  0  0  0
 62146  1  0  0  0
 63 65  1  0  0  0
 63147  1  0  0  0
 63148  1  0  0  0
 63149  1  0  0  0
 64150  1  0  0  0
 65151  1  0  0  0
 68 87  1  0  0  0
 71 72  2  0  0  0
 71 74  1  0  0  0
 71152  1  0  0  0
 72 75  1  0  0  0
 72153  1  0  0  0
 73 74  2  0  0  0
 73 76  1  0  0  0
 73154  1  0  0  0
 74 84  1  0  0  0
 75 76  2  0  0  0
 75 85  1  0  0  0
 76 88  1  0  0  0
 77 86  1  0  0  0
 77 89  1  0  0  0
 77 92  2  0  0  0
 78 79  1  0  0  0
 78155  1  0  0  0
 78156  1  0  0  0
 78 81  1  0  0  0
 79 88  1  0  0  0
 79157  1  0  0  0
 79158  1  0  0  0
 80 81  1  0  0  0
 80 88  1  0  0  0
 80159  1  0  0  0
 80160  1  0  0  0
 81 91  1  0  0  0
 81161  1  0  0  0
 82162  1  0  0  0
 82163  1  0  0  0
 82164  1  0  0  0
 82 91  1  0  0  0
 83 91  1  0  0  0
 83165  1  0  0  0
 83166  1  0  0  0
 83167  1  0  0  0
 84 89  1  0  0  0
 84168  1  0  0  0
 84169  1  0  0  0
 85 90  1  0  0  0
 85170  1  0  0  0
 85171  1  0  0  0
 86 87  1  0  0  0
 86172  1  0  0  0
 86173  1  0  0  0
 87174  1  0  0  0
 87175  1  0  0  0
 89176  1  0  0  0
 90177  1  0  0  0
 91178  1  0  0  0
M  CHG  1  91   1
M  ISO  4   1 100  68 101  87 101  90 100
M  END
> <chiral flag>
0

> <version>
0

> <s_m_source_file>
/data/baiqing/PycharmProjects/Reinvent-master-3.2/result/LINK_invent/BTK/process_docking_weight1_custom_product_contain_oxygen_bond_distance_aromatic_linkinvent_7_9_3/rearranged_h_0005.sdf

> <i_m_source_file_index>
54

> <r_mmod_Potential_Energy-OPLS-2005>
-211.419906616211

> <r_mmod_Stretch_Energy-OPLS-2005>
35.0043907165527

> <r_mmod_Bend_Energy-OPLS-2005>
131.652740478516

> <r_mmod_Torsional_Energy-OPLS-2005>
313.644561767578

> <r_mmod_Improper_Torsional_Energy-OPLS-2005>
6.19874477386475

> <r_mmod_Van_der_Waal_Energy-OPLS-2005>
148.143005371094

> <r_mmod_Electrostatic_Energy-OPLS-2005>
-372.344970703125

> <r_mmod_Solvation_Energy-OPLS-2005>
-482.660461425781

> <b_mmod_Minimization_Converged-OPLS-2005>
0

> <r_mmod_RMS_Derivative-OPLS-2005>
2.54596161842346

$$$$
54
                    3D
 Structure written by MMmdl.
157165  0  0  1  0            999 V2000
  -30.6971  -14.4154   20.6721 C   0  0  0  0  0  0
  -30.4309  -12.3038   19.4105 C   0  0  0  0  0  0
  -29.5044  -12.5424   18.2032 C   0  0  0  0  0  0
  -28.0245  -12.3815   18.6052 C   0  0  0  0  0  0
  -27.6691  -13.1927   19.8801 C   0  0  2  0  0  0
  -28.6975  -12.9200   20.9967 C   0  0  0  0  0  0
  -25.2607  -13.8127   20.5636 C   0  0  0  0  0  0
  -24.1834  -13.0433   20.9127 C   0  0  0  0  0  0
  -24.6351  -11.6884   20.8663 C   0  0  0  0  0  0
  -23.8999  -10.4279   21.0355 C   0  0  0  0  0  0
  -24.3566   -9.4211   21.9146 C   0  0  0  0  0  0
  -23.6235   -8.2260   22.0754 C   0  0  0  0  0  0
  -22.4221   -8.0270   21.3562 C   0  0  0  0  0  0
  -21.9843   -9.0218   20.4645 C   0  0  0  0  0  0
  -22.7162  -10.2099   20.3027 C   0  0  0  0  0  0
  -21.6869   -6.0683   22.5266 C   0  0  0  0  0  0
  -21.4015   -6.5582   23.8191 C   0  0  0  0  0  0
  -21.3665   -5.6745   24.9165 C   0  0  0  0  0  0
  -21.6052   -4.3009   24.7226 C   0  0  0  0  0  0
  -21.8828   -3.8103   23.4348 C   0  0  0  0  0  0
  -21.9208   -4.6911   22.3395 C   0  0  0  0  0  0
  -22.7876  -13.5250   21.1814 C   0  0  0  0  0  0
  -22.1689   -4.2101   21.0981 F   0  0  0  0  0  0
  -21.5644   -3.4483   25.7730 F   0  0  0  0  0  0
  -30.0462  -13.2358   20.4816 N   0  0  0  0  0  0
  -26.3024  -12.9260   20.3300 N   0  0  0  0  0  0
  -25.9267  -11.6435   20.5652 N   0  0  0  0  0  0
  -22.0494  -12.8273   22.0376 N   0  0  0  0  0  0
  -25.4363  -15.1829   20.4070 N   0  0  0  0  0  0
  -31.7045  -14.7462   20.0413 O   0  0  0  0  0  0
  -21.6647   -6.8829   21.4232 O   0  0  0  0  0  0
  -22.3572  -14.5577   20.6660 O   0  0  0  0  0  0
  -24.6141  -31.8661   23.2088 C   0  0  0  0  0  0
  -25.9062  -32.4807   23.8361 C   0  0  1  0  0  0
  -27.2420  -27.4410   20.0825 C   0  0  0  0  0  0
  -25.5922  -33.8603   24.2308 N   0  0  0  0  0  0
  -23.3995  -30.4890   21.5468 C   0  0  2  0  0  0
  -24.8476  -28.9528   20.1111 C   0  0  0  0  0  0
  -22.7381  -29.4659   22.4971 C   0  0  0  0  0  0
  -18.0272  -28.1397   22.8468 C   0  0  0  0  0  0
  -24.1477  -36.7284   23.2629 C   0  0  0  0  0  0
  -25.9259  -30.8314   21.3623 C   0  0  0  0  0  0
  -26.0028  -29.4640   20.7132 C   0  0  0  0  0  0
  -27.1970  -28.7091   20.7070 C   0  0  0  0  0  0
  -26.0651  -26.9344   19.4876 C   0  0  0  0  0  0
  -24.8720  -27.6837   19.5021 C   0  0  0  0  0  0
  -23.6068  -29.8161   20.1632 C   0  0  0  0  0  0
  -25.4102  -36.3083   24.0324 C   0  0  1  0  0  0
  -20.5852  -28.3674   23.1312 C   0  0  2  0  0  0
  -20.6764  -26.9407   22.5411 C   0  0  0  0  0  0
  -19.5748  -26.6394   21.5193 C   0  0  0  0  0  0
  -18.1926  -26.7941   22.1604 C   0  0  0  0  0  0
  -19.1523  -28.8855   23.2884 C   0  0  0  0  0  0
  -18.9451  -30.1456   23.8899 C   0  0  0  0  0  0
  -17.6461  -30.6584   24.0581 C   0  0  0  0  0  0
  -25.9029  -34.9459   23.5104 C   0  0  0  0  0  0
  -16.5355  -29.9091   23.6338 C   0  0  0  0  0  0
  -16.7265  -28.6525   23.0329 C   0  0  0  0  0  0
  -26.4500  -31.6594   25.0690 C   0  0  0  0  0  0
  -25.3791  -31.3744   26.1461 C   0  0  0  0  0  0
  -27.0338  -30.3025   24.6087 C   0  0  0  0  0  0
  -27.6030  -32.4346   25.7503 C   0  0  0  0  0  0
  -27.5572  -37.1790   24.8462 C   0  0  0  0  0  0
  -21.4114  -29.3045   22.3727 N   0  0  0  0  0  0
  -26.4281  -37.3770   23.9414 N   0  0  0  0  0  0
  -24.6639  -31.0776   22.0979 N   0  0  0  0  0  0
  -23.4165  -28.8206   23.3018 O   0  0  0  0  0  0
  -28.4345  -26.7454   20.1088 O   0  0  0  0  0  0
  -26.5557  -34.8915   22.4647 O   0  0  0  0  0  0
  -23.5338  -32.1433   23.7484 O   0  0  0  0  0  0
  -28.5679  -19.0738   21.7703 C   0  0  0  0  0  0
  -28.2727  -18.1162   22.7612 C   0  0  0  0  0  0
  -30.0262  -17.4607   20.6592 C   0  0  0  0  0  0
  -29.4315  -18.7538   20.6940 C   0  0  0  0  0  0
  -29.7239  -16.4918   21.6522 C   0  0  0  0  0  0
  -28.8375  -16.8303   22.6957 C   0  0  0  0  0  0
  -29.6412  -19.7199   19.5472 C   0  0  0  0  0  0
  -29.4225  -23.3365   18.7345 C   0  0  0  0  0  0
  -28.5096  -24.3080   19.5236 C   0  0  0  0  0  0
  -28.9168  -21.8872   18.5432 C   0  0  0  0  0  0
  -28.7332  -25.7814   19.0957 C   0  0  0  0  0  0
  -30.2026  -15.1507   21.6786 N   0  0  0  0  0  0
  -29.1530  -20.9711   19.6710 N   0  0  0  0  0  0
  -30.2025  -19.3338   18.5185 O   0  0  0  0  0  0
  -28.5227  -15.9055   23.6360 F   0  0  0  0  0  0
  -31.4788  -12.4116   19.1244 H   0  0  0  0  0  0
  -30.3305  -11.2771   19.7644 H   0  0  0  0  0  0
  -29.7534  -11.8563   17.3905 H   0  0  0  0  0  0
  -29.6690  -13.5494   17.8165 H   0  0  0  0  0  0
  -27.8289  -11.3213   18.7697 H   0  0  0  0  0  0
  -27.3866  -12.6812   17.7754 H   0  0  0  0  0  0
  -27.7327  -14.2480   19.6169 H   0  0  0  0  0  0
  -28.6642  -11.8686   21.2798 H   0  0  0  0  0  0
  -28.4204  -13.4634   21.9014 H   0  0  0  0  0  0
  -25.2724   -9.5682   22.4708 H   0  0  0  0  0  0
  -23.9931   -7.4664   22.7498 H   0  0  0  0  0  0
  -21.0776   -8.8679   19.8958 H   0  0  0  0  0  0
  -22.3573  -10.9595   19.6118 H   0  0  0  0  0  0
  -21.1995   -7.6082   23.9639 H   0  0  0  0  0  0
  -21.1503   -6.0512   25.9054 H   0  0  0  0  0  0
  -22.0617   -2.7558   23.2873 H   0  0  0  0  0  0
  -22.4041  -11.9916   22.4749 H   0  0  0  0  0  0
  -21.1108  -13.1342   22.2518 H   0  0  0  0  0  0
  -24.6762  -15.8473   20.5090 H   0  0  0  0  0  0
  -26.2909  -15.6074   20.0679 H   0  0  0  0  0  0
  -26.7130  -32.5523   23.1114 H   0  0  0  0  0  0
  -25.0180  -33.9760   25.0526 H   0  0  0  0  0  0
  -22.6881  -31.3053   21.4054 H   0  0  0  0  0  0
  -23.3737  -35.9614   23.3298 H   0  0  0  0  0  0
  -24.3578  -36.8900   22.2043 H   0  0  0  0  0  0
  -23.7237  -37.6487   23.6653 H   0  0  0  0  0  0
  -26.0381  -31.5939   20.5903 H   0  0  0  0  0  0
  -26.8144  -30.8863   21.9800 H   0  0  0  0  0  0
  -28.0894  -29.0988   21.1765 H   0  0  0  0  0  0
  -26.0545  -25.9562   19.0278 H   0  0  0  0  0  0
  -23.9797  -27.2823   19.0422 H   0  0  0  0  0  0
  -23.7077  -30.5856   19.3971 H   0  0  0  0  0  0
  -22.7337  -29.2297   19.8720 H   0  0  0  0  0  0
  -25.1278  -36.1917   25.0809 H   0  0  0  0  0  0
  -20.9939  -28.3256   24.1434 H   0  0  0  0  0  0
  -20.5676  -26.2267   23.3590 H   0  0  0  0  0  0
  -21.6639  -26.7472   22.1203 H   0  0  0  0  0  0
  -19.6913  -25.6304   21.1217 H   0  0  0  0  0  0
  -19.6704  -27.3207   20.6722 H   0  0  0  0  0  0
  -17.4186  -26.6677   21.4010 H   0  0  0  0  0  0
  -18.0344  -26.0100   22.9022 H   0  0  0  0  0  0
  -19.7940  -30.7267   24.2260 H   0  0  0  0  0  0
  -17.5031  -31.6271   24.5181 H   0  0  0  0  0  0
  -15.5358  -30.2998   23.7682 H   0  0  0  0  0  0
  -15.8661  -28.0863   22.7022 H   0  0  0  0  0  0
  -24.5897  -30.7147   25.7847 H   0  0  0  0  0  0
  -24.9068  -32.2931   26.4935 H   0  0  0  0  0  0
  -25.8154  -30.8900   27.0200 H   0  0  0  0  0  0
  -26.2879  -29.6780   24.1142 H   0  0  0  0  0  0
  -27.4108  -29.7266   25.4552 H   0  0  0  0  0  0
  -27.8712  -30.4329   23.9228 H   0  0  0  0  0  0
  -27.2564  -33.3615   26.2087 H   0  0  0  0  0  0
  -28.3850  -32.6972   25.0372 H   0  0  0  0  0  0
  -28.0674  -31.8487   26.5441 H   0  0  0  0  0  0
  -28.2562  -38.0109   24.7514 H   0  0  0  0  0  0
  -28.1087  -36.2633   24.6270 H   0  0  0  0  0  0
  -27.2292  -37.1427   25.8866 H   0  0  0  0  0  0
  -20.9263  -29.8776   21.6962 H   0  0  0  0  0  0
  -26.0152  -38.2832   24.1446 H   0  0  0  0  0  0
  -28.0889  -20.0407   21.8402 H   0  0  0  0  0  0
  -27.5990  -18.3632   23.5683 H   0  0  0  0  0  0
  -30.6844  -17.2022   19.8400 H   0  0  0  0  0  0
  -30.4262  -23.3364   19.1644 H   0  0  0  0  0  0
  -29.5443  -23.7488   17.7302 H   0  0  0  0  0  0
  -28.7055  -24.1871   20.5893 H   0  0  0  0  0  0
  -27.4602  -24.0514   19.3711 H   0  0  0  0  0  0
  -29.3928  -21.4991   17.6400 H   0  0  0  0  0  0
  -27.8490  -21.8910   18.3223 H   0  0  0  0  0  0
  -28.2177  -25.9998   18.1592 H   0  0  0  0  0  0
  -29.7908  -25.9297   18.8711 H   0  0  0  0  0  0
  -29.6924  -14.5919   22.3456 H   0  0  0  0  0  0
  -28.7569  -21.2157   20.5671 H   0  0  0  0  0  0
  1 25  1  0  0  0
  1 30  2  0  0  0
  1 82  1  0  0  0
  2  3  1  0  0  0
  2 25  1  0  0  0
  2 86  1  0  0  0
  2 87  1  0  0  0
  3  4  1  0  0  0
  3 88  1  0  0  0
  3 89  1  0  0  0
  4  5  1  0  0  0
  4 90  1  0  0  0
  4 91  1  0  0  0
  5  6  1  0  0  0
  5 26  1  0  0  0
  5 92  1  0  0  0
  6 25  1  0  0  0
  6 93  1  0  0  0
  6 94  1  0  0  0
  7  8  2  0  0  0
  7 26  1  0  0  0
  7 29  1  0  0  0
  8  9  1  0  0  0
  8 22  1  0  0  0
  9 10  1  0  0  0
  9 27  2  0  0  0
 10 11  2  0  0  0
 10 15  1  0  0  0
 11 12  1  0  0  0
 11 95  1  0  0  0
 12 13  2  0  0  0
 12 96  1  0  0  0
 13 14  1  0  0  0
 13 31  1  0  0  0
 14 15  2  0  0  0
 14 97  1  0  0  0
 15 98  1  0  0  0
 16 17  2  0  0  0
 16 21  1  0  0  0
 16 31  1  0  0  0
 17 18  1  0  0  0
 17 99  1  0  0  0
 18 19  2  0  0  0
 18100  1  0  0  0
 19 20  1  0  0  0
 19 24  1  0  0  0
 20 21  2  0  0  0
 20101  1  0  0  0
 21 23  1  0  0  0
 22 28  1  0  0  0
 22 32  2  0  0  0
 26 27  1  0  0  0
 28102  1  0  0  0
 28103  1  0  0  0
 29104  1  0  0  0
 29105  1  0  0  0
 33 34  1  0  0  0
 33 66  1  0  0  0
 33 70  2  0  0  0
 34 36  1  0  0  0
 34 59  1  0  0  0
 34106  1  0  0  0
 35 44  2  0  0  0
 35 45  1  0  0  0
 35 68  1  0  0  0
 36 56  1  0  0  0
 36107  1  0  0  0
 37 39  1  0  0  0
 37 47  1  0  0  0
 37 66  1  0  0  0
 37108  1  0  0  0
 38 43  2  0  0  0
 38 46  1  0  0  0
 38 47  1  0  0  0
 39 64  1  0  0  0
 39 67  2  0  0  0
 40 52  1  0  0  0
 40 53  2  0  0  0
 40 58  1  0  0  0
 41109  1  0  0  0
 41110  1  0  0  0
 41111  1  0  0  0
 41 48  1  0  0  0
 42 43  1  0  0  0
 42 66  1  0  0  0
 42112  1  0  0  0
 42113  1  0  0  0
 43 44  1  0  0  0
 44114  1  0  0  0
 45 46  2  0  0  0
 45115  1  0  0  0
 46116  1  0  0  0
 47117  1  0  0  0
 47118  1  0  0  0
 48 56  1  0  0  0
 48 65  1  0  0  0
 48119  1  0  0  0
 49 50  1  0  0  0
 49 53  1  0  0  0
 49 64  1  0  0  0
 49120  1  0  0  0
 50 51  1  0  0  0
 50121  1  0  0  0
 50122  1  0  0  0
 51 52  1  0  0  0
 51123  1  0  0  0
 51124  1  0  0  0
 52125  1  0  0  0
 52126  1  0  0  0
 53 54  1  0  0  0
 54 55  2  0  0  0
 54127  1  0  0  0
 55 57  1  0  0  0
 55128  1  0  0  0
 56 69  2  0  0  0
 57 58  2  0  0  0
 57129  1  0  0  0
 58130  1  0  0  0
 59 60  1  0  0  0
 59 61  1  0  0  0
 59 62  1  0  0  0
 60131  1  0  0  0
 60132  1  0  0  0
 60133  1  0  0  0
 61134  1  0  0  0
 61135  1  0  0  0
 61136  1  0  0  0
 62137  1  0  0  0
 62138  1  0  0  0
 62139  1  0  0  0
 63 65  1  0  0  0
 63140  1  0  0  0
 63141  1  0  0  0
 63142  1  0  0  0
 64143  1  0  0  0
 65144  1  0  0  0
 68 81  1  0  0  0
 71 72  2  0  0  0
 71 74  1  0  0  0
 71145  1  0  0  0
 72 76  1  0  0  0
 72146  1  0  0  0
 73 74  2  0  0  0
 73 75  1  0  0  0
 73147  1  0  0  0
 74 77  1  0  0  0
 75 76  2  0  0  0
 75 82  1  0  0  0
 76 85  1  0  0  0
 77 83  1  0  0  0
 77 84  2  0  0  0
 78 79  1  0  0  0
 78 80  1  0  0  0
 78148  1  0  0  0
 78149  1  0  0  0
 79 81  1  0  0  0
 79150  1  0  0  0
 79151  1  0  0  0
 80 83  1  0  0  0
 80152  1  0  0  0
 80153  1  0  0  0
 81154  1  0  0  0
 81155  1  0  0  0
 82156  1  0  0  0
 83157  1  0  0  0
M  ISO  4   1 100  68 101  81 101  82 100
M  END
> <chiral flag>
0

> <version>
0

> <s_m_source_file>
/data/baiqing/PycharmProjects/Reinvent-master-3.2/result/LINK_invent/BTK/process_docking_weight1_custom_product_contain_oxygen_bond_distance_aromatic_linkinvent_7_9_3/rearranged_h_0005.sdf

> <i_m_source_file_index>
55

> <r_mmod_Potential_Energy-OPLS-2005>
-124.596313476562

> <r_mmod_Stretch_Energy-OPLS-2005>
37.4343910217285

> <r_mmod_Bend_Energy-OPLS-2005>
113.12134552002

> <r_mmod_Torsional_Energy-OPLS-2005>
249.015548706055

> <r_mmod_Improper_Torsional_Energy-OPLS-2005>
6.17560577392578

> <r_mmod_Van_der_Waal_Energy-OPLS-2005>
154.829208374023

> <r_mmod_Electrostatic_Energy-OPLS-2005>
-468.927337646484

> <r_mmod_Solvation_Energy-OPLS-2005>
-227.297637939453

> <b_mmod_Minimization_Converged-OPLS-2005>
0

> <r_mmod_RMS_Derivative-OPLS-2005>
3.63514566421509

$$$$
55
                    3D
 Structure written by MMmdl.
188198  0  0  1  0            999 V2000
  -30.6719  -14.4036   20.5949 C   0  0  0  0  0  0
  -30.4195  -12.2756   19.4041 C   0  0  0  0  0  0
  -29.4896  -12.5376   18.1998 C   0  0  0  0  0  0
  -28.0008  -12.4064   18.5918 C   0  0  0  0  0  0
  -27.6589  -13.1827   19.8949 C   0  0  2  0  0  0
  -28.6995  -12.9065   21.0079 C   0  0  0  0  0  0
  -25.2557  -13.8083   20.5654 C   0  0  0  0  0  0
  -24.1822  -13.0404   20.9175 C   0  0  0  0  0  0
  -24.6340  -11.6836   20.8812 C   0  0  0  0  0  0
  -23.8992  -10.4256   21.0449 C   0  0  0  0  0  0
  -24.3586   -9.4189   21.9205 C   0  0  0  0  0  0
  -23.6287   -8.2217   22.0772 C   0  0  0  0  0  0
  -22.4281   -8.0252   21.3547 C   0  0  0  0  0  0
  -21.9888   -9.0204   20.4647 C   0  0  0  0  0  0
  -22.7166  -10.2096   20.3064 C   0  0  0  0  0  0
  -21.6832   -6.0751   22.5295 C   0  0  0  0  0  0
  -21.3990   -6.5665   23.8221 C   0  0  0  0  0  0
  -21.3692   -5.6827   24.9193 C   0  0  0  0  0  0
  -21.6042   -4.3096   24.7230 C   0  0  0  0  0  0
  -21.8818   -3.8165   23.4363 C   0  0  0  0  0  0
  -21.9191   -4.6980   22.3423 C   0  0  0  0  0  0
  -22.7859  -13.5226   21.1810 C   0  0  0  0  0  0
  -22.1628   -4.2169   21.0990 F   0  0  0  0  0  0
  -21.5670   -3.4573   25.7742 F   0  0  0  0  0  0
  -30.0382  -13.2097   20.4709 N   0  0  0  0  0  0
  -26.2971  -12.9187   20.3422 N   0  0  0  0  0  0
  -25.9249  -11.6375   20.5840 N   0  0  0  0  0  0
  -22.0468  -12.8273   22.0373 N   0  0  0  0  0  0
  -25.4308  -15.1823   20.4069 N   0  0  0  0  0  0
  -31.7933  -14.6383   20.1382 O   0  0  0  0  0  0
  -21.6631   -6.8865   21.4247 O   0  0  0  0  0  0
  -22.3574  -14.5524   20.6630 O   0  0  0  0  0  0
  -24.6091  -31.8652   23.2091 C   0  0  0  0  0  0
  -25.8990  -32.4807   23.8393 C   0  0  1  0  0  0
  -27.2311  -27.4466   20.1264 C   0  0  0  0  0  0
  -25.5860  -33.8610   24.2329 N   0  0  0  0  0  0
  -23.3961  -30.4967   21.5425 C   0  0  2  0  0  0
  -24.8464  -28.9540   20.1256 C   0  0  0  0  0  0
  -22.7387  -29.4653   22.4882 C   0  0  0  0  0  0
  -18.0297  -28.1375   22.8455 C   0  0  0  0  0  0
  -24.1479  -36.7310   23.2634 C   0  0  0  0  0  0
  -25.9230  -30.8409   21.3588 C   0  0  0  0  0  0
  -26.0002  -29.4696   20.7248 C   0  0  0  0  0  0
  -27.1998  -28.7225   20.7260 C   0  0  0  0  0  0
  -26.0637  -26.9367   19.5210 C   0  0  0  0  0  0
  -24.8686  -27.6860   19.5207 C   0  0  0  0  0  0
  -23.6071  -29.8204   20.1601 C   0  0  0  0  0  0
  -25.4094  -36.3102   24.0331 C   0  0  1  0  0  0
  -20.5877  -28.3649   23.1245 C   0  0  2  0  0  0
  -20.6765  -26.9366   22.5391 C   0  0  0  0  0  0
  -19.5756  -26.6358   21.5182 C   0  0  0  0  0  0
  -18.1933  -26.7941   22.1585 C   0  0  0  0  0  0
  -19.1535  -28.8831   23.2880 C   0  0  0  0  0  0
  -18.9467  -30.1429   23.8905 C   0  0  0  0  0  0
  -17.6467  -30.6587   24.0555 C   0  0  0  0  0  0
  -25.9000  -34.9467   23.5129 C   0  0  0  0  0  0
  -16.5356  -29.9088   23.6327 C   0  0  0  0  0  0
  -16.7267  -28.6516   23.0337 C   0  0  0  0  0  0
  -26.4467  -31.6609   25.0713 C   0  0  0  0  0  0
  -25.3779  -31.3705   26.1510 C   0  0  0  0  0  0
  -27.0289  -30.3069   24.6035 C   0  0  0  0  0  0
  -27.6053  -32.4320   25.7508 C   0  0  0  0  0  0
  -27.5579  -37.1809   24.8469 C   0  0  0  0  0  0
  -21.4113  -29.3032   22.3649 N   0  0  0  0  0  0
  -26.4294  -37.3777   23.9400 N   0  0  0  0  0  0
  -24.6600  -31.0814   22.0964 N   0  0  0  0  0  0
  -23.4184  -28.8140   23.2843 O   0  0  0  0  0  0
  -28.4112  -26.7622   19.9793 O   0  0  0  0  0  0
  -26.5567  -34.8912   22.4686 O   0  0  0  0  0  0
  -23.5284  -32.1313   23.7517 O   0  0  0  0  0  0
  -34.9215  -21.0004   20.5090 C   0  0  0  0  0  0
  -35.1960  -22.0428   21.4053 C   0  0  0  0  0  0
  -33.7832  -21.0589   19.6882 C   0  0  0  0  0  0
  -34.3510  -23.1673   21.4468 C   0  0  0  0  0  0
  -30.0036  -17.8087   20.9622 C   0  0  0  0  0  0
  -29.2299  -16.5149   19.0173 C   0  0  0  0  0  0
  -29.9731  -18.9458   20.1413 C   0  0  0  0  0  0
  -29.6278  -18.8824   18.7934 C   0  0  0  0  0  0
  -32.8768  -22.1465   19.7673 C   0  0  0  0  0  0
  -33.2010  -23.2409   20.6270 C   0  0  0  0  0  0
  -29.2119  -17.6663   18.2042 C   0  0  0  0  0  0
  -29.6825  -16.5735   20.3652 C   0  0  0  0  0  0
  -30.5767  -20.2839   20.4569 C   0  0  0  0  0  0
  -30.0370  -20.1768   18.1157 C   0  0  0  0  0  0
  -25.3307  -14.1271   15.7944 C   0  0  0  0  0  0
  -28.9202  -17.5310   16.7134 C   0  0  0  0  0  0
  -31.5700  -22.0457   18.9583 C   0  0  0  0  0  0
  -32.4669  -24.5801   20.5687 C   0  0  0  0  0  0
  -27.4422  -17.2990   16.3319 C   0  0  0  0  0  0
  -26.9385  -15.8557   16.5430 C   0  0  0  0  0  0
  -30.3997  -25.8548   20.7242 C   0  0  0  0  0  0
  -28.8921  -25.9489   21.0509 C   0  0  0  0  0  0
  -29.8939  -15.3801   21.0889 N   0  0  0  0  0  0
  -31.0248  -20.6789   19.1031 N   0  3  1  0  0  0
  -25.7316  -15.5496   15.7434 N   0  3  0  0  0  0
  -31.1463  -24.6729   21.2374 N   0  3  0  0  0  0
  -31.4635  -12.3868   19.1062 H   0  0  0  0  0  0
  -30.3059  -11.2438   19.7420 H   0  0  0  0  0  0
  -29.7253  -11.8543   17.3798 H   0  0  0  0  0  0
  -29.6795  -13.5403   17.8184 H   0  0  0  0  0  0
  -27.7728  -11.3448   18.7080 H   0  0  0  0  0  0
  -27.3660  -12.7592   17.7761 H   0  0  0  0  0  0
  -27.7047  -14.2408   19.6624 H   0  0  0  0  0  0
  -28.6545  -11.8605   21.3136 H   0  0  0  0  0  0
  -28.4679  -13.4721   21.9132 H   0  0  0  0  0  0
  -25.2752   -9.5740   22.4733 H   0  0  0  0  0  0
  -24.0062   -7.4644   22.7496 H   0  0  0  0  0  0
  -21.0826   -8.8674   19.8946 H   0  0  0  0  0  0
  -22.3603  -10.9635   19.6181 H   0  0  0  0  0  0
  -21.1908   -7.6156   23.9742 H   0  0  0  0  0  0
  -21.1542   -6.0535   25.9105 H   0  0  0  0  0  0
  -22.0569   -2.7622   23.2845 H   0  0  0  0  0  0
  -22.4023  -11.9941   22.4851 H   0  0  0  0  0  0
  -21.1076  -13.1335   22.2444 H   0  0  0  0  0  0
  -24.6731  -15.8419   20.5536 H   0  0  0  0  0  0
  -26.3145  -15.6366   20.2215 H   0  0  0  0  0  0
  -26.7036  -32.5540   23.1140 H   0  0  0  0  0  0
  -25.0134  -33.9810   25.0562 H   0  0  0  0  0  0
  -22.6824  -31.3144   21.3976 H   0  0  0  0  0  0
  -23.3743  -35.9645   23.3305 H   0  0  0  0  0  0
  -24.3565  -36.8897   22.2042 H   0  0  0  0  0  0
  -23.7252  -37.6520   23.6657 H   0  0  0  0  0  0
  -26.0236  -31.5958   20.5795 H   0  0  0  0  0  0
  -26.8160  -30.9040   21.9715 H   0  0  0  0  0  0
  -28.1053  -29.1339   21.1477 H   0  0  0  0  0  0
  -26.0819  -25.9742   19.0321 H   0  0  0  0  0  0
  -23.9811  -27.2930   19.0445 H   0  0  0  0  0  0
  -23.7115  -30.5913   19.3940 H   0  0  0  0  0  0
  -22.7351  -29.2364   19.8643 H   0  0  0  0  0  0
  -25.1273  -36.1954   25.0823 H   0  0  0  0  0  0
  -21.0008  -28.3244   24.1343 H   0  0  0  0  0  0
  -20.5611  -26.2241   23.3579 H   0  0  0  0  0  0
  -21.6629  -26.7361   22.1198 H   0  0  0  0  0  0
  -19.6906  -25.6273   21.1180 H   0  0  0  0  0  0
  -19.6738  -27.3202   20.6737 H   0  0  0  0  0  0
  -17.4191  -26.6656   21.4008 H   0  0  0  0  0  0
  -18.0349  -26.0123   22.9001 H   0  0  0  0  0  0
  -19.7951  -30.7231   24.2268 H   0  0  0  0  0  0
  -17.5041  -31.6261   24.5146 H   0  0  0  0  0  0
  -15.5362  -30.2976   23.7676 H   0  0  0  0  0  0
  -15.8680  -28.0835   22.7033 H   0  0  0  0  0  0
  -24.5975  -30.6986   25.7932 H   0  0  0  0  0  0
  -24.8956  -32.2851   26.4983 H   0  0  0  0  0  0
  -25.8182  -30.8943   27.0276 H   0  0  0  0  0  0
  -26.2800  -29.6859   24.1108 H   0  0  0  0  0  0
  -27.4119  -29.7274   25.4446 H   0  0  0  0  0  0
  -27.8615  -30.4420   23.9120 H   0  0  0  0  0  0
  -27.2683  -33.3611   26.2127 H   0  0  0  0  0  0
  -28.3922  -32.6857   25.0396 H   0  0  0  0  0  0
  -28.0679  -31.8400   26.5436 H   0  0  0  0  0  0
  -28.2593  -38.0106   24.7506 H   0  0  0  0  0  0
  -28.1066  -36.2626   24.6312 H   0  0  0  0  0  0
  -27.2277  -37.1487   25.8866 H   0  0  0  0  0  0
  -20.9221  -29.8838   21.7002 H   0  0  0  0  0  0
  -26.0171  -38.2832   24.1459 H   0  0  0  0  0  0
  -35.5871  -20.1518   20.4421 H   0  0  0  0  0  0
  -36.0786  -22.0007   22.0280 H   0  0  0  0  0  0
  -33.6157  -20.2408   19.0004 H   0  0  0  0  0  0
  -34.6304  -23.9945   22.0883 H   0  0  0  0  0  0
  -30.3819  -17.8657   21.9772 H   0  0  0  0  0  0
  -29.0075  -15.5664   18.5566 H   0  0  0  0  0  0
  -31.4090  -20.2191   21.1609 H   0  0  0  0  0  0
  -29.8146  -20.9602   20.8441 H   0  0  0  0  0  0
  -29.1910  -20.8528   17.9871 H   0  0  0  0  0  0
  -30.5035  -20.0090   17.1455 H   0  0  0  0  0  0
  -24.5355  -13.9206   15.0745 H   0  0  0  0  0  0
  -24.9697  -13.8630   16.7888 H   0  0  0  0  0  0
  -26.1718  -13.4733   15.5542 H   0  0  0  0  0  0
  -29.5369  -16.7247   16.3150 H   0  0  0  0  0  0
  -29.2700  -18.4235   16.2004 H   0  0  0  0  0  0
  -31.7559  -22.2623   17.9059 H   0  0  0  0  0  0
  -30.8129  -22.7492   19.3003 H   0  0  0  0  0  0
  -32.3870  -24.8251   19.5110 H   0  0  0  0  0  0
  -33.1004  -25.3569   20.9934 H   0  0  0  0  0  0
  -27.3676  -17.5218   15.2659 H   0  0  0  0  0  0
  -26.7953  -18.0169   16.8390 H   0  0  0  0  0  0
  -26.7205  -15.6796   17.5965 H   0  0  0  0  0  0
  -27.7208  -15.1543   16.2518 H   0  0  0  0  0  0
  -30.9032  -26.7721   21.0431 H   0  0  0  0  0  0
  -30.4803  -25.8164   19.6359 H   0  0  0  0  0  0
  -28.7247  -26.3783   22.0405 H   0  0  0  0  0  0
  -28.4037  -24.9703   21.0045 H   0  0  0  0  0  0
  -29.0969  -15.0523   21.6103 H   0  0  0  0  0  0
  -31.8201  -20.0806   18.9450 H   0  0  0  0  0  0
  -24.9586  -16.1139   16.0524 H   0  0  0  0  0  0
  -25.8988  -15.7910   14.7809 H   0  0  0  0  0  0
  -31.3046  -24.7671   22.2277 H   0  0  0  0  0  0
  -30.6246  -23.8259   21.0977 H   0  0  0  0  0  0
  1 25  1  0  0  0
  1 30  2  0  0  0
  1 93  1  0  0  0
  2  3  1  0  0  0
  2 25  1  0  0  0
  2 97  1  0  0  0
  2 98  1  0  0  0
  3  4  1  0  0  0
  3 99  1  0  0  0
  3100  1  0  0  0
  4  5  1  0  0  0
  4101  1  0  0  0
  4102  1  0  0  0
  5  6  1  0  0  0
  5 26  1  0  0  0
  5103  1  0  0  0
  6 25  1  0  0  0
  6104  1  0  0  0
  6105  1  0  0  0
  7  8  2  0  0  0
  7 26  1  0  0  0
  7 29  1  0  0  0
  8  9  1  0  0  0
  8 22  1  0  0  0
  9 10  1  0  0  0
  9 27  2  0  0  0
 10 11  2  0  0  0
 10 15  1  0  0  0
 11 12  1  0  0  0
 11106  1  0  0  0
 12 13  2  0  0  0
 12107  1  0  0  0
 13 14  1  0  0  0
 13 31  1  0  0  0
 14 15  2  0  0  0
 14108  1  0  0  0
 15109  1  0  0  0
 16 17  2  0  0  0
 16 21  1  0  0  0
 16 31  1  0  0  0
 17 18  1  0  0  0
 17110  1  0  0  0
 18 19  2  0  0  0
 18111  1  0  0  0
 19 20  1  0  0  0
 19 24  1  0  0  0
 20 21  2  0  0  0
 20112  1  0  0  0
 21 23  1  0  0  0
 22 28  1  0  0  0
 22 32  2  0  0  0
 26 27  1  0  0  0
 28113  1  0  0  0
 28114  1  0  0  0
 29115  1  0  0  0
 29116  1  0  0  0
 33 34  1  0  0  0
 33 66  1  0  0  0
 33 70  2  0  0  0
 34 36  1  0  0  0
 34 59  1  0  0  0
 34117  1  0  0  0
 35 44  2  0  0  0
 35 45  1  0  0  0
 35 68  1  0  0  0
 36 56  1  0  0  0
 36118  1  0  0  0
 37 39  1  0  0  0
 37 47  1  0  0  0
 37 66  1  0  0  0
 37119  1  0  0  0
 38 43  2  0  0  0
 38 46  1  0  0  0
 38 47  1  0  0  0
 39 64  1  0  0  0
 39 67  2  0  0  0
 40 52  1  0  0  0
 40 53  2  0  0  0
 40 58  1  0  0  0
 41120  1  0  0  0
 41121  1  0  0  0
 41122  1  0  0  0
 41 48  1  0  0  0
 42 43  1  0  0  0
 42 66  1  0  0  0
 42123  1  0  0  0
 42124  1  0  0  0
 43 44  1  0  0  0
 44125  1  0  0  0
 45 46  2  0  0  0
 45126  1  0  0  0
 46127  1  0  0  0
 47128  1  0  0  0
 47129  1  0  0  0
 48 56  1  0  0  0
 48 65  1  0  0  0
 48130  1  0  0  0
 49 50  1  0  0  0
 49 53  1  0  0  0
 49 64  1  0  0  0
 49131  1  0  0  0
 50 51  1  0  0  0
 50132  1  0  0  0
 50133  1  0  0  0
 51 52  1  0  0  0
 51134  1  0  0  0
 51135  1  0  0  0
 52136  1  0  0  0
 52137  1  0  0  0
 53 54  1  0  0  0
 54 55  2  0  0  0
 54138  1  0  0  0
 55 57  1  0  0  0
 55139  1  0  0  0
 56 69  2  0  0  0
 57 58  2  0  0  0
 57140  1  0  0  0
 58141  1  0  0  0
 59 60  1  0  0  0
 59 61  1  0  0  0
 59 62  1  0  0  0
 60142  1  0  0  0
 60143  1  0  0  0
 60144  1  0  0  0
 61145  1  0  0  0
 61146  1  0  0  0
 61147  1  0  0  0
 62148  1  0  0  0
 62149  1  0  0  0
 62150  1  0  0  0
 63 65  1  0  0  0
 63151  1  0  0  0
 63152  1  0  0  0
 63153  1  0  0  0
 64154  1  0  0  0
 65155  1  0  0  0
 68 92  1  0  0  0
 71 72  2  0  0  0
 71 73  1  0  0  0
 71156  1  0  0  0
 72 74  1  0  0  0
 72157  1  0  0  0
 73 79  2  0  0  0
 73158  1  0  0  0
 74 80  2  0  0  0
 74159  1  0  0  0
 75 77  2  0  0  0
 75 82  1  0  0  0
 75160  1  0  0  0
 76 81  1  0  0  0
 76 82  2  0  0  0
 76161  1  0  0  0
 77 78  1  0  0  0
 77 83  1  0  0  0
 78 81  2  0  0  0
 78 84  1  0  0  0
 79 80  1  0  0  0
 79 87  1  0  0  0
 80 88  1  0  0  0
 81 86  1  0  0  0
 82 93  1  0  0  0
 83 94  1  0  0  0
 83162  1  0  0  0
 83163  1  0  0  0
 84 94  1  0  0  0
 84164  1  0  0  0
 84165  1  0  0  0
 85 95  1  0  0  0
 85166  1  0  0  0
 85167  1  0  0  0
 85168  1  0  0  0
 86 89  1  0  0  0
 86169  1  0  0  0
 86170  1  0  0  0
 87171  1  0  0  0
 87172  1  0  0  0
 87 94  1  0  0  0
 88 96  1  0  0  0
 88173  1  0  0  0
 88174  1  0  0  0
 89 90  1  0  0  0
 89175  1  0  0  0
 89176  1  0  0  0
 90 95  1  0  0  0
 90177  1  0  0  0
 90178  1  0  0  0
 91 92  1  0  0  0
 91 96  1  0  0  0
 91179  1  0  0  0
 91180  1  0  0  0
 92181  1  0  0  0
 92182  1  0  0  0
 93183  1  0  0  0
 94184  1  0  0  0
 95185  1  0  0  0
 95186  1  0  0  0
 96187  1  0  0  0
 96188  1  0  0  0
M  CHG  3  94   1  95   1  96   1
M  ISO  4   1 100  68 101  92 101  93 100
M  END
> <chiral flag>
0

> <version>
0

> <s_m_source_file>
/data/baiqing/PycharmProjects/Reinvent-master-3.2/result/LINK_invent/BTK/process_docking_weight1_custom_product_contain_oxygen_bond_distance_aromatic_linkinvent_7_9_3/rearranged_h_0005.sdf

> <i_m_source_file_index>
56

> <r_mmod_Potential_Energy-OPLS-2005>
-414.3955078125

> <r_mmod_Stretch_Energy-OPLS-2005>
38.7076377868652

> <r_mmod_Bend_Energy-OPLS-2005>
183.112518310547

> <r_mmod_Torsional_Energy-OPLS-2005>
299.223358154297

> <r_mmod_Improper_Torsional_Energy-OPLS-2005>
13.157603263855

> <r_mmod_Van_der_Waal_Energy-OPLS-2005>
149.949813842773

> <r_mmod_Electrostatic_Energy-OPLS-2005>
396.563720703125

> <r_mmod_Solvation_Energy-OPLS-2005>
-1504.18310546875

> <b_mmod_Minimization_Converged-OPLS-2005>
0

> <r_mmod_RMS_Derivative-OPLS-2005>
6.42424535751343

$$$$
56
                    3D
 Structure written by MMmdl.
185195  0  0  1  0            999 V2000
  -30.7820  -14.3130   20.6637 C   0  0  0  0  0  0
  -30.4092  -12.2559   19.3696 C   0  0  0  0  0  0
  -29.4762  -12.5429   18.1793 C   0  0  0  0  0  0
  -27.9972  -12.4228   18.5927 C   0  0  0  0  0  0
  -27.6728  -13.2060   19.8917 C   0  0  2  0  0  0
  -28.7152  -12.9019   20.9912 C   0  0  0  0  0  0
  -25.2618  -13.8176   20.5675 C   0  0  0  0  0  0
  -24.1859  -13.0443   20.9169 C   0  0  0  0  0  0
  -24.6416  -11.6910   20.8725 C   0  0  0  0  0  0
  -23.9075  -10.4296   21.0399 C   0  0  0  0  0  0
  -24.3630   -9.4206   21.9174 C   0  0  0  0  0  0
  -23.6303   -8.2243   22.0747 C   0  0  0  0  0  0
  -22.4282   -8.0288   21.3543 C   0  0  0  0  0  0
  -21.9921   -9.0258   20.4641 C   0  0  0  0  0  0
  -22.7247  -10.2138   20.3044 C   0  0  0  0  0  0
  -21.6856   -6.0744   22.5278 C   0  0  0  0  0  0
  -21.4017   -6.5644   23.8212 C   0  0  0  0  0  0
  -21.3660   -5.6794   24.9177 C   0  0  0  0  0  0
  -21.6045   -4.3057   24.7225 C   0  0  0  0  0  0
  -21.8816   -3.8153   23.4345 C   0  0  0  0  0  0
  -21.9192   -4.6973   22.3399 C   0  0  0  0  0  0
  -22.7876  -13.5233   21.1824 C   0  0  0  0  0  0
  -22.1655   -4.2150   21.0980 F   0  0  0  0  0  0
  -21.5634   -3.4538   25.7739 F   0  0  0  0  0  0
  -30.0635  -13.1829   20.4551 N   0  0  0  0  0  0
  -26.3090  -12.9349   20.3461 N   0  0  0  0  0  0
  -25.9351  -11.6501   20.5782 N   0  0  0  0  0  0
  -22.0529  -12.8218   22.0401 N   0  0  0  0  0  0
  -25.4334  -15.1890   20.4054 N   0  0  0  0  0  0
  -31.7982  -14.6013   20.0210 O   0  0  0  0  0  0
  -21.6640   -6.8891   21.4240 O   0  0  0  0  0  0
  -22.3545  -14.5539   20.6690 O   0  0  0  0  0  0
  -24.6129  -31.8697   23.2083 C   0  0  0  0  0  0
  -25.9039  -32.4841   23.8351 C   0  0  1  0  0  0
  -27.2536  -27.5025   20.0914 C   0  0  0  0  0  0
  -25.5925  -33.8622   24.2333 N   0  0  0  0  0  0
  -23.3973  -30.4891   21.5489 C   0  0  2  0  0  0
  -24.8507  -28.9725   20.0948 C   0  0  0  0  0  0
  -22.7409  -29.4629   22.4978 C   0  0  0  0  0  0
  -18.0281  -28.1353   22.8464 C   0  0  0  0  0  0
  -24.1490  -36.7312   23.2637 C   0  0  0  0  0  0
  -25.9133  -30.8694   21.3385 C   0  0  0  0  0  0
  -26.0022  -29.5135   20.6777 C   0  0  0  0  0  0
  -27.2094  -28.7928   20.6639 C   0  0  0  0  0  0
  -26.1006  -26.9761   19.4744 C   0  0  0  0  0  0
  -24.8933  -27.7053   19.4809 C   0  0  0  0  0  0
  -23.6021  -29.8213   20.1594 C   0  0  0  0  0  0
  -25.4095  -36.3112   24.0358 C   0  0  1  0  0  0
  -20.5852  -28.3631   23.1326 C   0  0  2  0  0  0
  -20.6765  -26.9362   22.5434 C   0  0  0  0  0  0
  -19.5765  -26.6334   21.5213 C   0  0  0  0  0  0
  -18.1928  -26.7898   22.1588 C   0  0  0  0  0  0
  -19.1522  -28.8805   23.2888 C   0  0  0  0  0  0
  -18.9467  -30.1410   23.8889 C   0  0  0  0  0  0
  -17.6480  -30.6579   24.0553 C   0  0  0  0  0  0
  -25.9023  -34.9493   23.5134 C   0  0  0  0  0  0
  -16.5359  -29.9087   23.6330 C   0  0  0  0  0  0
  -16.7268  -28.6489   23.0360 C   0  0  0  0  0  0
  -26.4491  -31.6594   25.0640 C   0  0  0  0  0  0
  -25.3743  -31.3671   26.1354 C   0  0  0  0  0  0
  -27.0312  -30.3038   24.5918 C   0  0  0  0  0  0
  -27.6038  -32.4297   25.7466 C   0  0  0  0  0  0
  -27.5574  -37.1837   24.8477 C   0  0  0  0  0  0
  -21.4135  -29.2982   22.3723 N   0  0  0  0  0  0
  -26.4277  -37.3798   23.9431 N   0  0  0  0  0  0
  -24.6602  -31.0839   22.0944 N   0  0  0  0  0  0
  -23.4202  -28.8165   23.3005 O   0  0  0  0  0  0
  -28.3429  -26.6853   20.2773 O   0  0  0  0  0  0
  -26.5533  -34.8971   22.4662 O   0  0  0  0  0  0
  -23.5344  -32.1387   23.7553 O   0  0  0  0  0  0
  -30.6452  -20.6991   21.7499 C   0  0  0  0  0  0
  -31.7761  -18.5376   21.6069 C   0  0  0  0  0  0
  -29.4650  -21.4414   21.9327 C   0  0  0  0  0  0
  -31.7129  -17.1329   21.5913 C   0  0  0  0  0  0
  -28.1730  -19.3825   22.0977 C   0  0  0  0  0  0
  -29.2915  -17.2319   21.9009 C   0  0  0  0  0  0
  -30.5955  -19.2929   21.7540 C   0  0  0  0  0  0
  -29.3510  -18.6357   21.9130 C   0  0  0  0  0  0
  -28.2315  -20.7885   22.1372 C   0  0  0  0  0  0
  -30.4638  -16.4797   21.7124 C   0  0  0  0  0  0
  -28.3827  -23.4898   24.5074 C   0  0  0  0  0  0
  -29.7499  -25.4636   21.9205 C   0  0  0  0  0  0
  -27.3594  -26.0740   22.4767 C   0  0  0  0  0  0
  -29.9321  -25.1310   23.4351 C   0  0  0  0  0  0
  -27.6789  -25.8308   23.9485 C   0  0  0  0  0  0
  -28.6319  -26.4995   21.6835 C   0  0  0  0  0  0
  -26.4022  -21.5847   28.3276 C   0  0  0  0  0  0
  -26.1228  -24.2427   26.7170 C   0  0  0  0  0  0
  -26.9863  -21.5807   22.4889 C   0  0  0  0  0  0
  -27.1231  -21.9033   27.0034 C   0  0  0  0  0  0
  -26.9216  -22.9662   24.6034 C   0  0  2  0  0  0
  -26.3447  -22.8650   26.0611 C   0  0  2  0  0  0
  -28.6426  -24.7368   24.0337 N   0  0  0  0  0  0
  -30.3317  -15.0779   21.6618 N   0  0  0  0  0  0
  -26.8631  -21.6308   23.9615 N   0  3  0  0  0  0
  -29.2904  -22.6990   24.7795 O   0  0  0  0  0  0
  -31.4531  -12.3406   19.0612 H   0  0  0  0  0  0
  -30.2884  -11.2247   19.7069 H   0  0  0  0  0  0
  -29.6888  -11.8616   17.3540 H   0  0  0  0  0  0
  -29.6692  -13.5480   17.8018 H   0  0  0  0  0  0
  -27.7647  -11.3658   18.7228 H   0  0  0  0  0  0
  -27.3579  -12.7767   17.7822 H   0  0  0  0  0  0
  -27.7432  -14.2688   19.6585 H   0  0  0  0  0  0
  -28.6630  -11.8480   21.2676 H   0  0  0  0  0  0
  -28.4781  -13.4464   21.9056 H   0  0  0  0  0  0
  -25.2785   -9.5676   22.4738 H   0  0  0  0  0  0
  -24.0016   -7.4632   22.7458 H   0  0  0  0  0  0
  -21.0860   -8.8781   19.8947 H   0  0  0  0  0  0
  -22.3714  -10.9680   19.6149 H   0  0  0  0  0  0
  -21.2005   -7.6149   23.9718 H   0  0  0  0  0  0
  -21.1485   -6.0525   25.9080 H   0  0  0  0  0  0
  -22.0596   -2.7613   23.2843 H   0  0  0  0  0  0
  -22.4158  -11.9877   22.4776 H   0  0  0  0  0  0
  -21.1137  -13.1213   22.2598 H   0  0  0  0  0  0
  -24.6646  -15.8449   20.4886 H   0  0  0  0  0  0
  -26.2905  -15.6248   20.0890 H   0  0  0  0  0  0
  -26.7118  -32.5625   23.1119 H   0  0  0  0  0  0
  -25.0250  -33.9776   25.0597 H   0  0  0  0  0  0
  -22.6833  -31.3035   21.4113 H   0  0  0  0  0  0
  -23.3762  -35.9646   23.3303 H   0  0  0  0  0  0
  -24.3598  -36.8896   22.2044 H   0  0  0  0  0  0
  -23.7228  -37.6514   23.6647 H   0  0  0  0  0  0
  -26.0092  -31.6453   20.5777 H   0  0  0  0  0  0
  -26.8057  -30.9271   21.9481 H   0  0  0  0  0  0
  -28.0885  -29.2119   21.1317 H   0  0  0  0  0  0
  -26.1223  -25.9832   19.0466 H   0  0  0  0  0  0
  -24.0063  -27.2810   19.0324 H   0  0  0  0  0  0
  -23.6996  -30.5982   19.4008 H   0  0  0  0  0  0
  -22.7299  -29.2347   19.8656 H   0  0  0  0  0  0
  -25.1244  -36.1981   25.0841 H   0  0  0  0  0  0
  -20.9967  -28.3210   24.1434 H   0  0  0  0  0  0
  -20.5688  -26.2231   23.3630 H   0  0  0  0  0  0
  -21.6647  -26.7408   22.1219 H   0  0  0  0  0  0
  -19.6971  -25.6255   21.1243 H   0  0  0  0  0  0
  -19.6752  -27.3147   20.6750 H   0  0  0  0  0  0
  -17.4216  -26.6652   21.3974 H   0  0  0  0  0  0
  -18.0308  -26.0052   22.8978 H   0  0  0  0  0  0
  -19.7969  -30.7206   24.2275 H   0  0  0  0  0  0
  -17.5059  -31.6283   24.5133 H   0  0  0  0  0  0
  -15.5366  -30.3010   23.7674 H   0  0  0  0  0  0
  -15.8646  -28.0830   22.7098 H   0  0  0  0  0  0
  -24.6035  -30.6924   25.7598 H   0  0  0  0  0  0
  -24.8820  -32.2783   26.4758 H   0  0  0  0  0  0
  -25.8053  -30.8898   27.0154 H   0  0  0  0  0  0
  -26.2786  -29.6800   24.1048 H   0  0  0  0  0  0
  -27.4166  -29.7293   25.4336 H   0  0  0  0  0  0
  -27.8607  -30.4300   23.8942 H   0  0  0  0  0  0
  -27.2645  -33.3537   26.2172 H   0  0  0  0  0  0
  -28.3801  -32.6959   25.0273 H   0  0  0  0  0  0
  -28.0718  -31.8368   26.5337 H   0  0  0  0  0  0
  -28.2595  -38.0133   24.7528 H   0  0  0  0  0  0
  -28.1049  -36.2660   24.6300 H   0  0  0  0  0  0
  -27.2284  -37.1469   25.8873 H   0  0  0  0  0  0
  -20.9305  -29.8656   21.6906 H   0  0  0  0  0  0
  -26.0170  -38.2873   24.1446 H   0  0  0  0  0  0
  -31.5858  -21.2175   21.6294 H   0  0  0  0  0  0
  -32.7316  -19.0330   21.5003 H   0  0  0  0  0  0
  -29.5293  -22.5160   21.9616 H   0  0  0  0  0  0
  -32.6252  -16.5651   21.4724 H   0  0  0  0  0  0
  -27.2288  -18.8743   22.2407 H   0  0  0  0  0  0
  -28.3395  -16.7326   22.0125 H   0  0  0  0  0  0
  -29.5051  -24.5651   21.3576 H   0  0  0  0  0  0
  -30.6924  -25.8304   21.5062 H   0  0  0  0  0  0
  -26.5785  -26.8337   22.4384 H   0  0  0  0  0  0
  -26.9342  -25.1750   22.0321 H   0  0  0  0  0  0
  -30.3144  -26.0017   23.9710 H   0  0  0  0  0  0
  -30.6940  -24.3574   23.5460 H   0  0  0  0  0  0
  -26.7660  -25.6678   24.5122 H   0  0  0  0  0  0
  -28.1144  -26.7328   24.3847 H   0  0  0  0  0  0
  -29.0033  -27.4390   22.0966 H   0  0  0  0  0  0
  -26.9572  -20.8394   28.8989 H   0  0  0  0  0  0
  -25.3985  -21.1892   28.1592 H   0  0  0  0  0  0
  -26.3105  -22.4598   28.9709 H   0  0  0  0  0  0
  -25.6435  -24.1554   27.6911 H   0  0  0  0  0  0
  -25.4629  -24.8627   26.1109 H   0  0  0  0  0  0
  -27.0593  -24.7813   26.8678 H   0  0  0  0  0  0
  -26.1131  -21.0778   22.0749 H   0  0  0  0  0  0
  -27.0146  -22.5719   22.0325 H   0  0  0  0  0  0
  -27.3029  -20.9503   26.5017 H   0  0  0  0  0  0
  -28.1086  -22.3118   27.2307 H   0  0  0  0  0  0
  -26.2537  -23.6041   24.0234 H   0  0  0  0  0  0
  -25.3452  -22.4395   25.9491 H   0  0  0  0  0  0
  -29.5287  -14.6929   22.1363 H   0  0  0  0  0  0
  -27.6484  -21.1144   24.3284 H   0  0  0  0  0  0
  -26.0157  -21.1575   24.2235 H   0  0  0  0  0  0
  1 25  1  0  0  0
  1 30  2  0  0  0
  1 94  1  0  0  0
  2  3  1  0  0  0
  2 25  1  0  0  0
  2 97  1  0  0  0
  2 98  1  0  0  0
  3  4  1  0  0  0
  3 99  1  0  0  0
  3100  1  0  0  0
  4  5  1  0  0  0
  4101  1  0  0  0
  4102  1  0  0  0
  5  6  1  0  0  0
  5 26  1  0  0  0
  5103  1  0  0  0
  6 25  1  0  0  0
  6104  1  0  0  0
  6105  1  0  0  0
  7  8  2  0  0  0
  7 26  1  0  0  0
  7 29  1  0  0  0
  8  9  1  0  0  0
  8 22  1  0  0  0
  9 10  1  0  0  0
  9 27  2  0  0  0
 10 11  2  0  0  0
 10 15  1  0  0  0
 11 12  1  0  0  0
 11106  1  0  0  0
 12 13  2  0  0  0
 12107  1  0  0  0
 13 14  1  0  0  0
 13 31  1  0  0  0
 14 15  2  0  0  0
 14108  1  0  0  0
 15109  1  0  0  0
 16 17  2  0  0  0
 16 21  1  0  0  0
 16 31  1  0  0  0
 17 18  1  0  0  0
 17110  1  0  0  0
 18 19  2  0  0  0
 18111  1  0  0  0
 19 20  1  0  0  0
 19 24  1  0  0  0
 20 21  2  0  0  0
 20112  1  0  0  0
 21 23  1  0  0  0
 22 28  1  0  0  0
 22 32  2  0  0  0
 26 27  1  0  0  0
 28113  1  0  0  0
 28114  1  0  0  0
 29115  1  0  0  0
 29116  1  0  0  0
 33 34  1  0  0  0
 33 66  1  0  0  0
 33 70  2  0  0  0
 34 36  1  0  0  0
 34 59  1  0  0  0
 34117  1  0  0  0
 35 44  2  0  0  0
 35 45  1  0  0  0
 35 68  1  0  0  0
 36 56  1  0  0  0
 36118  1  0  0  0
 37 39  1  0  0  0
 37 47  1  0  0  0
 37 66  1  0  0  0
 37119  1  0  0  0
 38 43  2  0  0  0
 38 46  1  0  0  0
 38 47  1  0  0  0
 39 64  1  0  0  0
 39 67  2  0  0  0
 40 52  1  0  0  0
 40 53  2  0  0  0
 40 58  1  0  0  0
 41120  1  0  0  0
 41121  1  0  0  0
 41122  1  0  0  0
 41 48  1  0  0  0
 42 43  1  0  0  0
 42 66  1  0  0  0
 42123  1  0  0  0
 42124  1  0  0  0
 43 44  1  0  0  0
 44125  1  0  0  0
 45 46  2  0  0  0
 45126  1  0  0  0
 46127  1  0  0  0
 47128  1  0  0  0
 47129  1  0  0  0
 48 56  1  0  0  0
 48 65  1  0  0  0
 48130  1  0  0  0
 49 50  1  0  0  0
 49 53  1  0  0  0
 49 64  1  0  0  0
 49131  1  0  0  0
 50 51  1  0  0  0
 50132  1  0  0  0
 50133  1  0  0  0
 51 52  1  0  0  0
 51134  1  0  0  0
 51135  1  0  0  0
 52136  1  0  0  0
 52137  1  0  0  0
 53 54  1  0  0  0
 54 55  2  0  0  0
 54138  1  0  0  0
 55 57  1  0  0  0
 55139  1  0  0  0
 56 69  2  0  0  0
 57 58  2  0  0  0
 57140  1  0  0  0
 58141  1  0  0  0
 59 60  1  0  0  0
 59 61  1  0  0  0
 59 62  1  0  0  0
 60142  1  0  0  0
 60143  1  0  0  0
 60144  1  0  0  0
 61145  1  0  0  0
 61146  1  0  0  0
 61147  1  0  0  0
 62148  1  0  0  0
 62149  1  0  0  0
 62150  1  0  0  0
 63 65  1  0  0  0
 63151  1  0  0  0
 63152  1  0  0  0
 63153  1  0  0  0
 64154  1  0  0  0
 65155  1  0  0  0
 68 86  1  0  0  0
 71 73  2  0  0  0
 71 77  1  0  0  0
 71156  1  0  0  0
 72 74  1  0  0  0
 72 77  2  0  0  0
 72157  1  0  0  0
 73 79  1  0  0  0
 73158  1  0  0  0
 74 80  2  0  0  0
 74159  1  0  0  0
 75 78  1  0  0  0
 75 79  2  0  0  0
 75160  1  0  0  0
 76 78  2  0  0  0
 76 80  1  0  0  0
 76161  1  0  0  0
 77 78  1  0  0  0
 79 89  1  0  0  0
 80 94  1  0  0  0
 81 91  1  0  0  0
 81 93  1  0  0  0
 81 96  2  0  0  0
 82 84  1  0  0  0
 82 86  1  0  0  0
 82162  1  0  0  0
 82163  1  0  0  0
 83 85  1  0  0  0
 83 86  1  0  0  0
 83164  1  0  0  0
 83165  1  0  0  0
 84 93  1  0  0  0
 84166  1  0  0  0
 84167  1  0  0  0
 85 93  1  0  0  0
 85168  1  0  0  0
 85169  1  0  0  0
 86170  1  0  0  0
 87 90  1  0  0  0
 87171  1  0  0  0
 87172  1  0  0  0
 87173  1  0  0  0
 88174  1  0  0  0
 88175  1  0  0  0
 88176  1  0  0  0
 88 92  1  0  0  0
 89 95  1  0  0  0
 89177  1  0  0  0
 89178  1  0  0  0
 90 92  1  0  0  0
 90179  1  0  0  0
 90180  1  0  0  0
 91 92  1  0  0  0
 91 95  1  0  0  0
 91181  1  0  0  0
 92182  1  0  0  0
 94183  1  0  0  0
 95184  1  0  0  0
 95185  1  0  0  0
M  CHG  1  95   1
M  ISO  4   1 100  68 101  86 101  94 100
M  END
> <chiral flag>
0

> <version>
0

> <s_m_source_file>
/data/baiqing/PycharmProjects/Reinvent-master-3.2/result/LINK_invent/BTK/process_docking_weight1_custom_product_contain_oxygen_bond_distance_aromatic_linkinvent_7_9_3/rearranged_h_0005.sdf

> <i_m_source_file_index>
57

> <r_mmod_Potential_Energy-OPLS-2005>
-123.524070739746

> <r_mmod_Stretch_Energy-OPLS-2005>
42.0452766418457

> <r_mmod_Bend_Energy-OPLS-2005>
107.476409912109

> <r_mmod_Torsional_Energy-OPLS-2005>
344.390014648438

> <r_mmod_Improper_Torsional_Energy-OPLS-2005>
5.89952278137207

> <r_mmod_Van_der_Waal_Energy-OPLS-2005>
183.313079833984

> <r_mmod_Electrostatic_Energy-OPLS-2005>
-363.185943603516

> <r_mmod_Solvation_Energy-OPLS-2005>
-458.7080078125

> <b_mmod_Minimization_Converged-OPLS-2005>
0

> <r_mmod_RMS_Derivative-OPLS-2005>
3.80823111534119

$$$$
57
                    3D
 Structure written by MMmdl.
170179  0  0  1  0            999 V2000
  -30.7403  -14.3756   20.6455 C   0  0  0  0  0  0
  -30.4132  -12.2816   19.3889 C   0  0  0  0  0  0
  -29.4821  -12.5273   18.1864 C   0  0  0  0  0  0
  -28.0010  -12.3774   18.5917 C   0  0  0  0  0  0
  -27.6556  -13.1789   19.8732 C   0  0  2  0  0  0
  -28.6997  -12.9274   20.9858 C   0  0  0  0  0  0
  -25.2602  -13.8071   20.5748 C   0  0  0  0  0  0
  -24.1824  -13.0385   20.9206 C   0  0  0  0  0  0
  -24.6350  -11.6858   20.8736 C   0  0  0  0  0  0
  -23.9018  -10.4268   21.0421 C   0  0  0  0  0  0
  -24.3583   -9.4182   21.9199 C   0  0  0  0  0  0
  -23.6271   -8.2215   22.0753 C   0  0  0  0  0  0
  -22.4254   -8.0263   21.3544 C   0  0  0  0  0  0
  -21.9874   -9.0233   20.4658 C   0  0  0  0  0  0
  -22.7187  -10.2120   20.3071 C   0  0  0  0  0  0
  -21.6839   -6.0744   22.5289 C   0  0  0  0  0  0
  -21.4005   -6.5650   23.8228 C   0  0  0  0  0  0
  -21.3652   -5.6799   24.9184 C   0  0  0  0  0  0
  -21.6037   -4.3065   24.7233 C   0  0  0  0  0  0
  -21.8811   -3.8159   23.4357 C   0  0  0  0  0  0
  -21.9183   -4.6973   22.3414 C   0  0  0  0  0  0
  -22.7856  -13.5228   21.1873 C   0  0  0  0  0  0
  -22.1654   -4.2161   21.0993 F   0  0  0  0  0  0
  -21.5620   -3.4541   25.7749 F   0  0  0  0  0  0
  -30.0423  -13.2277   20.4496 N   0  0  0  0  0  0
  -26.2968  -12.9181   20.3344 N   0  0  0  0  0  0
  -25.9248  -11.6369   20.5708 N   0  0  0  0  0  0
  -22.0487  -12.8244   22.0440 N   0  0  0  0  0  0
  -25.4349  -15.1801   20.4320 N   0  0  0  0  0  0
  -31.8018  -14.6368   20.0698 O   0  0  0  0  0  0
  -21.6610   -6.8862   21.4258 O   0  0  0  0  0  0
  -22.3570  -14.5529   20.6712 O   0  0  0  0  0  0
  -24.6123  -31.8718   23.2113 C   0  0  0  0  0  0
  -25.9017  -32.4831   23.8426 C   0  0  1  0  0  0
  -27.2150  -27.4495   20.0877 C   0  0  0  0  0  0
  -25.5874  -33.8639   24.2338 N   0  0  0  0  0  0
  -23.3973  -30.4959   21.5524 C   0  0  2  0  0  0
  -24.8402  -28.9685   20.1173 C   0  0  0  0  0  0
  -22.7411  -29.4657   22.4977 C   0  0  0  0  0  0
  -18.0273  -28.1362   22.8457 C   0  0  0  0  0  0
  -24.1498  -36.7326   23.2638 C   0  0  0  0  0  0
  -25.9308  -30.8367   21.3711 C   0  0  0  0  0  0
  -26.0025  -29.4777   20.7085 C   0  0  0  0  0  0
  -27.1949  -28.7261   20.6892 C   0  0  0  0  0  0
  -26.0357  -26.9553   19.4861 C   0  0  0  0  0  0
  -24.8501  -27.7080   19.5030 C   0  0  0  0  0  0
  -23.6066  -29.8362   20.1643 C   0  0  0  0  0  0
  -25.4116  -36.3115   24.0342 C   0  0  1  0  0  0
  -20.5842  -28.3675   23.1326 C   0  0  2  0  0  0
  -20.6772  -26.9367   22.5566 C   0  0  0  0  0  0
  -19.5804  -26.6181   21.5370 C   0  0  0  0  0  0
  -18.1931  -26.7861   22.1665 C   0  0  0  0  0  0
  -19.1502  -28.8850   23.2844 C   0  0  0  0  0  0
  -18.9439  -30.1449   23.8853 C   0  0  0  0  0  0
  -17.6441  -30.6594   24.0515 C   0  0  0  0  0  0
  -25.9043  -34.9482   23.5135 C   0  0  0  0  0  0
  -16.5334  -29.9084   23.6283 C   0  0  0  0  0  0
  -16.7251  -28.6482   23.0324 C   0  0  0  0  0  0
  -26.4465  -31.6607   25.0747 C   0  0  0  0  0  0
  -25.3742  -31.3745   26.1506 C   0  0  0  0  0  0
  -27.0327  -30.3030   24.6176 C   0  0  0  0  0  0
  -27.6038  -32.4330   25.7494 C   0  0  0  0  0  0
  -27.5596  -37.1807   24.8455 C   0  0  0  0  0  0
  -21.4140  -29.2989   22.3694 N   0  0  0  0  0  0
  -26.4308  -37.3797   23.9403 N   0  0  0  0  0  0
  -24.6643  -31.0845   22.1015 N   0  0  0  0  0  0
  -23.4213  -28.8216   23.3012 O   0  0  0  0  0  0
  -28.3823  -26.7214   20.1161 O   0  0  0  0  0  0
  -26.5619  -34.8928   22.4704 O   0  0  0  0  0  0
  -23.5315  -32.1459   23.7499 O   0  0  0  0  0  0
  -31.4530  -17.0756   22.3950 C   0  0  0  0  0  0
  -31.6829  -18.4519   22.5418 C   0  0  0  0  0  0
  -29.6522  -17.5468   20.7943 C   0  0  0  0  0  0
  -29.8754  -18.9405   20.9568 C   0  0  0  0  0  0
  -30.4336  -16.6214   21.5380 C   0  0  0  0  0  0
  -30.8935  -19.3826   21.8420 C   0  0  0  0  0  0
  -27.3612  -21.7075   20.6591 C   0  0  0  0  0  0
  -24.2693  -23.1577   22.0230 C   0  0  0  0  0  0
  -25.2087  -21.9480   22.0067 C   0  0  0  0  0  0
  -25.1814  -24.3846   21.9068 C   0  0  0  0  0  0
  -26.6183  -22.5074   21.7342 C   0  0  2  0  0  0
  -28.5968  -17.0526   19.8105 C   0  0  0  0  0  0
  -29.0370  -19.9690   20.1984 C   0  0  0  0  0  0
  -27.6217  -24.8074   21.4975 C   0  0  0  0  0  0
  -28.2699  -25.2933   20.1708 C   0  0  0  0  0  0
  -30.1684  -15.2357   21.4966 N   0  0  0  0  0  0
  -28.1153  -20.6851   21.0677 N   0  0  0  0  0  0
  -26.4398  -23.9107   21.2930 N   0  3  2  0  0  0
  -27.2752  -22.0458   19.4749 O   0  0  0  0  0  0
  -31.1941  -21.0667   22.1014 Cl  0  0  0  0  0  0
  -31.4579  -12.3808   19.0897 H   0  0  0  0  0  0
  -30.3029  -11.2578   19.7499 H   0  0  0  0  0  0
  -29.7183  -11.8363   17.3770 H   0  0  0  0  0  0
  -29.6541  -13.5297   17.7894 H   0  0  0  0  0  0
  -27.7937  -11.3166   18.7396 H   0  0  0  0  0  0
  -27.3577  -12.6977   17.7707 H   0  0  0  0  0  0
  -27.6834  -14.2210   19.5870 H   0  0  0  0  0  0
  -28.6692  -11.8790   21.2843 H   0  0  0  0  0  0
  -28.4450  -13.4860   21.8860 H   0  0  0  0  0  0
  -25.2740   -9.5658   22.4759 H   0  0  0  0  0  0
  -23.9990   -7.4599   22.7463 H   0  0  0  0  0  0
  -21.0790   -8.8748   19.8971 H   0  0  0  0  0  0
  -22.3642  -10.9664   19.6174 H   0  0  0  0  0  0
  -21.1996   -7.6156   23.9731 H   0  0  0  0  0  0
  -21.1476   -6.0535   25.9087 H   0  0  0  0  0  0
  -22.0593   -2.7620   23.2854 H   0  0  0  0  0  0
  -22.4083  -11.9894   22.4828 H   0  0  0  0  0  0
  -21.1117  -13.1312   22.2675 H   0  0  0  0  0  0
  -24.6801  -15.8344   20.6019 H   0  0  0  0  0  0
  -26.2955  -15.6294   20.1534 H   0  0  0  0  0  0
  -26.7076  -32.5533   23.1201 H   0  0  0  0  0  0
  -25.0023  -33.9820   25.0473 H   0  0  0  0  0  0
  -22.6790  -31.3075   21.4164 H   0  0  0  0  0  0
  -23.3760  -35.9655   23.3305 H   0  0  0  0  0  0
  -24.3594  -36.8941   22.2043 H   0  0  0  0  0  0
  -23.7242  -37.6538   23.6650 H   0  0  0  0  0  0
  -26.0659  -31.6104   20.6147 H   0  0  0  0  0  0
  -26.8113  -30.8717   22.0004 H   0  0  0  0  0  0
  -28.0943  -29.1091   21.1503 H   0  0  0  0  0  0
  -26.0001  -25.9996   18.9914 H   0  0  0  0  0  0
  -23.9569  -27.3183   19.0353 H   0  0  0  0  0  0
  -23.7217  -30.6165   19.4133 H   0  0  0  0  0  0
  -22.7344  -29.2595   19.8510 H   0  0  0  0  0  0
  -25.1281  -36.2014   25.0838 H   0  0  0  0  0  0
  -20.9864  -28.3353   24.1487 H   0  0  0  0  0  0
  -20.5646  -26.2379   23.3871 H   0  0  0  0  0  0
  -21.6658  -26.7337   22.1440 H   0  0  0  0  0  0
  -19.6980  -25.5980   21.1686 H   0  0  0  0  0  0
  -19.6852  -27.2780   20.6746 H   0  0  0  0  0  0
  -17.4236  -26.6547   21.4022 H   0  0  0  0  0  0
  -18.0249  -26.0094   22.9148 H   0  0  0  0  0  0
  -19.7927  -30.7227   24.2241 H   0  0  0  0  0  0
  -17.5004  -31.6281   24.5112 H   0  0  0  0  0  0
  -15.5329  -30.2998   23.7612 H   0  0  0  0  0  0
  -15.8617  -28.0792   22.7100 H   0  0  0  0  0  0
  -24.5838  -30.7182   25.7853 H   0  0  0  0  0  0
  -24.9048  -32.2943   26.5003 H   0  0  0  0  0  0
  -25.8090  -30.8854   27.0232 H   0  0  0  0  0  0
  -26.2901  -29.6730   24.1262 H   0  0  0  0  0  0
  -27.4116  -29.7313   25.4665 H   0  0  0  0  0  0
  -27.8732  -30.4328   23.9346 H   0  0  0  0  0  0
  -27.2633  -33.3576   26.2166 H   0  0  0  0  0  0
  -28.3806  -32.6975   25.0309 H   0  0  0  0  0  0
  -28.0776  -31.8419   26.5346 H   0  0  0  0  0  0
  -28.2602  -38.0115   24.7522 H   0  0  0  0  0  0
  -28.1103  -36.2647   24.6254 H   0  0  0  0  0  0
  -27.2320  -37.1429   25.8860 H   0  0  0  0  0  0
  -20.9336  -29.8630   21.6820 H   0  0  0  0  0  0
  -26.0211  -38.2889   24.1396 H   0  0  0  0  0  0
  -32.0527  -16.3692   22.9526 H   0  0  0  0  0  0
  -32.4612  -18.7944   23.2072 H   0  0  0  0  0  0
  -23.6572  -23.1910   22.9250 H   0  0  0  0  0  0
  -23.5864  -23.1113   21.1764 H   0  0  0  0  0  0
  -24.8889  -21.2338   21.2454 H   0  0  0  0  0  0
  -25.1858  -21.4214   22.9629 H   0  0  0  0  0  0
  -25.3810  -24.7743   22.9064 H   0  0  0  0  0  0
  -24.7145  -25.1842   21.3335 H   0  0  0  0  0  0
  -27.1746  -22.4883   22.6714 H   0  0  0  0  0  0
  -27.5913  -17.2372   20.1888 H   0  0  0  0  0  0
  -28.7016  -15.9989   19.6016 H   0  0  0  0  0  0
  -28.7023  -17.5182   18.8312 H   0  0  0  0  0  0
  -28.4684  -19.5425   19.3757 H   0  0  0  0  0  0
  -29.7162  -20.6803   19.7273 H   0  0  0  0  0  0
  -27.3350  -25.6630   22.1078 H   0  0  0  0  0  0
  -28.3884  -24.3021   22.0861 H   0  0  0  0  0  0
  -29.2844  -24.8970   20.1018 H   0  0  0  0  0  0
  -27.7753  -24.8910   19.2857 H   0  0  0  0  0  0
  -29.3120  -14.9196   21.9271 H   0  0  0  0  0  0
  -28.1165  -20.4445   22.0485 H   0  0  0  0  0  0
  -26.2834  -23.8112   20.2961 H   0  0  0  0  0  0
  1 25  1  0  0  0
  1 30  2  0  0  0
  1 86  1  0  0  0
  2  3  1  0  0  0
  2 25  1  0  0  0
  2 91  1  0  0  0
  2 92  1  0  0  0
  3  4  1  0  0  0
  3 93  1  0  0  0
  3 94  1  0  0  0
  4  5  1  0  0  0
  4 95  1  0  0  0
  4 96  1  0  0  0
  5  6  1  0  0  0
  5 26  1  0  0  0
  5 97  1  0  0  0
  6 25  1  0  0  0
  6 98  1  0  0  0
  6 99  1  0  0  0
  7  8  2  0  0  0
  7 26  1  0  0  0
  7 29  1  0  0  0
  8  9  1  0  0  0
  8 22  1  0  0  0
  9 10  1  0  0  0
  9 27  2  0  0  0
 10 11  2  0  0  0
 10 15  1  0  0  0
 11 12  1  0  0  0
 11100  1  0  0  0
 12 13  2  0  0  0
 12101  1  0  0  0
 13 14  1  0  0  0
 13 31  1  0  0  0
 14 15  2  0  0  0
 14102  1  0  0  0
 15103  1  0  0  0
 16 17  2  0  0  0
 16 21  1  0  0  0
 16 31  1  0  0  0
 17 18  1  0  0  0
 17104  1  0  0  0
 18 19  2  0  0  0
 18105  1  0  0  0
 19 20  1  0  0  0
 19 24  1  0  0  0
 20 21  2  0  0  0
 20106  1  0  0  0
 21 23  1  0  0  0
 22 28  1  0  0  0
 22 32  2  0  0  0
 26 27  1  0  0  0
 28107  1  0  0  0
 28108  1  0  0  0
 29109  1  0  0  0
 29110  1  0  0  0
 33 34  1  0  0  0
 33 66  1  0  0  0
 33 70  2  0  0  0
 34 36  1  0  0  0
 34 59  1  0  0  0
 34111  1  0  0  0
 35 44  2  0  0  0
 35 45  1  0  0  0
 35 68  1  0  0  0
 36 56  1  0  0  0
 36112  1  0  0  0
 37 39  1  0  0  0
 37 47  1  0  0  0
 37 66  1  0  0  0
 37113  1  0  0  0
 38 43  2  0  0  0
 38 46  1  0  0  0
 38 47  1  0  0  0
 39 64  1  0  0  0
 39 67  2  0  0  0
 40 52  1  0  0  0
 40 53  2  0  0  0
 40 58  1  0  0  0
 41114  1  0  0  0
 41115  1  0  0  0
 41116  1  0  0  0
 41 48  1  0  0  0
 42 43  1  0  0  0
 42 66  1  0  0  0
 42117  1  0  0  0
 42118  1  0  0  0
 43 44  1  0  0  0
 44119  1  0  0  0
 45 46  2  0  0  0
 45120  1  0  0  0
 46121  1  0  0  0
 47122  1  0  0  0
 47123  1  0  0  0
 48 56  1  0  0  0
 48 65  1  0  0  0
 48124  1  0  0  0
 49 50  1  0  0  0
 49 53  1  0  0  0
 49 64  1  0  0  0
 49125  1  0  0  0
 50 51  1  0  0  0
 50126  1  0  0  0
 50127  1  0  0  0
 51 52  1  0  0  0
 51128  1  0  0  0
 51129  1  0  0  0
 52130  1  0  0  0
 52131  1  0  0  0
 53 54  1  0  0  0
 54 55  2  0  0  0
 54132  1  0  0  0
 55 57  1  0  0  0
 55133  1  0  0  0
 56 69  2  0  0  0
 57 58  2  0  0  0
 57134  1  0  0  0
 58135  1  0  0  0
 59 60  1  0  0  0
 59 61  1  0  0  0
 59 62  1  0  0  0
 60136  1  0  0  0
 60137  1  0  0  0
 60138  1  0  0  0
 61139  1  0  0  0
 61140  1  0  0  0
 61141  1  0  0  0
 62142  1  0  0  0
 62143  1  0  0  0
 62144  1  0  0  0
 63 65  1  0  0  0
 63145  1  0  0  0
 63146  1  0  0  0
 63147  1  0  0  0
 64148  1  0  0  0
 65149  1  0  0  0
 68 85  1  0  0  0
 71 72  2  0  0  0
 71 75  1  0  0  0
 71150  1  0  0  0
 72 76  1  0  0  0
 72151  1  0  0  0
 73 74  1  0  0  0
 73 75  2  0  0  0
 73 82  1  0  0  0
 74 76  2  0  0  0
 74 83  1  0  0  0
 75 86  1  0  0  0
 76 90  1  0  0  0
 77 87  1  0  0  0
 77 89  2  0  0  0
 77 81  1  0  0  0
 78 79  1  0  0  0
 78 80  1  0  0  0
 78152  1  0  0  0
 78153  1  0  0  0
 79 81  1  0  0  0
 79154  1  0  0  0
 79155  1  0  0  0
 80 88  1  0  0  0
 80156  1  0  0  0
 80157  1  0  0  0
 81 88  1  0  0  0
 81158  1  0  0  0
 82159  1  0  0  0
 82160  1  0  0  0
 82161  1  0  0  0
 83 87  1  0  0  0
 83162  1  0  0  0
 83163  1  0  0  0
 84 85  1  0  0  0
 84164  1  0  0  0
 84165  1  0  0  0
 84 88  1  0  0  0
 85166  1  0  0  0
 85167  1  0  0  0
 86168  1  0  0  0
 87169  1  0  0  0
 88170  1  0  0  0
M  CHG  1  88   1
M  ISO  4   1 100  68 101  85 101  86 100
M  END
> <chiral flag>
0

> <version>
0

> <s_m_source_file>
/data/baiqing/PycharmProjects/Reinvent-master-3.2/result/LINK_invent/BTK/process_docking_weight1_custom_product_contain_oxygen_bond_distance_aromatic_linkinvent_7_9_3/rearranged_h_0005.sdf

> <i_m_source_file_index>
58

> <r_mmod_Potential_Energy-OPLS-2005>
-143.56330871582

> <r_mmod_Stretch_Energy-OPLS-2005>
35.5666046142578

> <r_mmod_Bend_Energy-OPLS-2005>
111.628120422363

> <r_mmod_Torsional_Energy-OPLS-2005>
324.913360595703

> <r_mmod_Improper_Torsional_Energy-OPLS-2005>
2.95380592346191

> <r_mmod_Van_der_Waal_Energy-OPLS-2005>
157.554016113281

> <r_mmod_Electrostatic_Energy-OPLS-2005>
-370.130798339844

> <r_mmod_Solvation_Energy-OPLS-2005>
-415.563049316406

> <b_mmod_Minimization_Converged-OPLS-2005>
0

> <r_mmod_RMS_Derivative-OPLS-2005>
3.57079935073853

$$$$
58
                    3D
 Structure written by MMmdl.
194203  0  0  1  0            999 V2000
  -30.9607  -14.1410   20.8693 C   0  0  0  0  0  0
  -30.4245  -12.3047   19.3542 C   0  0  0  0  0  0
  -29.4569  -12.5603   18.1926 C   0  0  0  0  0  0
  -28.0156  -12.3288   18.6462 C   0  0  0  0  0  0
  -27.6688  -13.2030   19.8668 C   0  0  2  0  0  0
  -28.7154  -13.0477   21.0013 C   0  0  0  0  0  0
  -25.2668  -13.8148   20.5708 C   0  0  0  0  0  0
  -24.1920  -13.0413   20.9239 C   0  0  0  0  0  0
  -24.6478  -11.6886   20.8763 C   0  0  0  0  0  0
  -23.9137  -10.4257   21.0385 C   0  0  0  0  0  0
  -24.3658   -9.4153   21.9153 C   0  0  0  0  0  0
  -23.6282   -8.2227   22.0753 C   0  0  0  0  0  0
  -22.4281   -8.0267   21.3548 C   0  0  0  0  0  0
  -21.9940   -9.0274   20.4677 C   0  0  0  0  0  0
  -22.7314  -10.2124   20.3044 C   0  0  0  0  0  0
  -21.6853   -6.0689   22.5289 C   0  0  0  0  0  0
  -21.3992   -6.5615   23.8215 C   0  0  0  0  0  0
  -21.3645   -5.6781   24.9198 C   0  0  0  0  0  0
  -21.6064   -4.3039   24.7270 C   0  0  0  0  0  0
  -21.8814   -3.8111   23.4398 C   0  0  0  0  0  0
  -21.9180   -4.6904   22.3432 C   0  0  0  0  0  0
  -22.7948  -13.5175   21.1891 C   0  0  0  0  0  0
  -22.1650   -4.2082   21.1017 F   0  0  0  0  0  0
  -21.5679   -3.4531   25.7776 F   0  0  0  0  0  0
  -30.1002  -13.1625   20.5046 N   0  0  0  0  0  0
  -26.3110  -12.9319   20.3364 N   0  0  0  0  0  0
  -25.9399  -11.6463   20.5780 N   0  0  0  0  0  0
  -22.0596  -12.8188   22.0487 N   0  0  0  0  0  0
  -25.4396  -15.1853   20.4067 N   0  0  0  0  0  0
  -31.6626  -14.7558   20.0597 O   0  0  0  0  0  0
  -21.6656   -6.8853   21.4257 O   0  0  0  0  0  0
  -22.3613  -14.5437   20.6686 O   0  0  0  0  0  0
  -24.6118  -31.8707   23.2180 C   0  0  0  0  0  0
  -25.9045  -32.4837   23.8426 C   0  0  1  0  0  0
  -27.2195  -27.4616   20.0799 C   0  0  0  0  0  0
  -25.5935  -33.8640   24.2363 N   0  0  0  0  0  0
  -23.3973  -30.4970   21.5561 C   0  0  2  0  0  0
  -24.8445  -28.9783   20.1137 C   0  0  0  0  0  0
  -22.7391  -29.4666   22.5007 C   0  0  0  0  0  0
  -18.0278  -28.1367   22.8471 C   0  0  0  0  0  0
  -24.1510  -36.7318   23.2613 C   0  0  0  0  0  0
  -25.9251  -30.8408   21.3739 C   0  0  0  0  0  0
  -26.0025  -29.4795   20.7221 C   0  0  0  0  0  0
  -27.1962  -28.7202   20.7181 C   0  0  0  0  0  0
  -26.0573  -27.0020   19.4293 C   0  0  0  0  0  0
  -24.8639  -27.7373   19.4641 C   0  0  0  0  0  0
  -23.6051  -29.8393   20.1676 C   0  0  0  0  0  0
  -25.4119  -36.3106   24.0331 C   0  0  1  0  0  0
  -20.5854  -28.3641   23.1330 C   0  0  2  0  0  0
  -20.6780  -26.9402   22.5415 C   0  0  0  0  0  0
  -19.5771  -26.6385   21.5189 C   0  0  0  0  0  0
  -18.1931  -26.7931   22.1604 C   0  0  0  0  0  0
  -19.1515  -28.8828   23.2897 C   0  0  0  0  0  0
  -18.9458  -30.1425   23.8907 C   0  0  0  0  0  0
  -17.6452  -30.6579   24.0552 C   0  0  0  0  0  0
  -25.9013  -34.9471   23.5130 C   0  0  0  0  0  0
  -16.5342  -29.9078   23.6316 C   0  0  0  0  0  0
  -16.7264  -28.6505   23.0337 C   0  0  0  0  0  0
  -26.4490  -31.6583   25.0726 C   0  0  0  0  0  0
  -25.3762  -31.3757   26.1490 C   0  0  0  0  0  0
  -27.0222  -30.2994   24.6050 C   0  0  0  0  0  0
  -27.6086  -32.4268   25.7480 C   0  0  0  0  0  0
  -27.5608  -37.1804   24.8448 C   0  0  0  0  0  0
  -21.4120  -29.3030   22.3751 N   0  0  0  0  0  0
  -26.4319  -37.3785   23.9392 N   0  0  0  0  0  0
  -24.6617  -31.0834   22.1069 N   0  0  0  0  0  0
  -23.4181  -28.8178   23.3019 O   0  0  0  0  0  0
  -28.3547  -26.6871   20.0841 O   0  0  0  0  0  0
  -26.5543  -34.8911   22.4660 O   0  0  0  0  0  0
  -23.5323  -32.1474   23.7577 O   0  0  0  0  0  0
  -31.7990  -15.0866   26.8489 C   0  0  0  0  0  0
  -31.3797  -16.4073   26.6220 C   0  0  0  0  0  0
  -31.6852  -14.1233   25.8259 C   0  0  0  0  0  0
  -30.6453  -15.7720   24.3911 C   0  0  0  0  0  0
  -30.8235  -16.7656   25.3811 C   0  0  0  0  0  0
  -31.0922  -14.4478   24.5783 C   0  0  0  0  0  0
  -30.5369  -18.2006   25.0640 C   0  0  0  0  0  0
  -33.4040  -10.6250   23.9858 C   0  0  0  0  0  0
  -33.0392  -11.9543   23.3258 C   0  0  0  0  0  0
  -32.4383  -10.5357   25.1672 C   0  0  0  0  0  0
  -31.5178  -12.0304   23.5138 C   0  0  2  0  0  0
  -30.0173  -10.4026   24.6918 C   0  0  0  0  0  0
  -25.9859  -22.4058   18.1157 C   0  0  0  0  0  0
  -29.0032  -20.0943   20.8957 C   0  0  0  0  0  0
  -28.6918  -19.1376   22.0493 C   0  0  0  0  0  0
  -27.8336  -20.3193   19.9376 C   0  0  0  0  0  0
  -28.3765  -24.2418   20.5712 C   0  0  0  0  0  0
  -29.4287  -19.5484   23.3308 C   0  0  0  0  0  0
  -28.0639  -21.5824   19.0878 C   0  0  0  0  0  0
  -27.2332  -23.9302   19.5743 C   0  0  0  0  0  0
  -28.3472  -25.6902   21.1171 C   0  0  0  0  0  0
  -30.9022  -13.4711   23.3984 C   0  0  2  0  0  0
  -29.5446  -18.3955   24.1941 N   0  0  0  0  0  0
  -31.3489  -14.1518   22.1592 N   0  0  0  0  0  0
  -31.2122  -11.2719   24.7628 N   0  3  1  0  0  0
  -26.9215  -22.5084   19.2594 N   0  3  1  0  0  0
  -31.2164  -19.1121   25.5411 O   0  0  0  0  0  0
  -31.4478  -12.4612   19.0054 H   0  0  0  0  0  0
  -30.3804  -11.2610   19.6616 H   0  0  0  0  0  0
  -29.6944  -11.9074   17.3553 H   0  0  0  0  0  0
  -29.5623  -13.5808   17.8284 H   0  0  0  0  0  0
  -27.8946  -11.2723   18.8909 H   0  0  0  0  0  0
  -27.3172  -12.5376   17.8367 H   0  0  0  0  0  0
  -27.7027  -14.2382   19.5227 H   0  0  0  0  0  0
  -28.6053  -12.0897   21.5064 H   0  0  0  0  0  0
  -28.5139  -13.8239   21.7431 H   0  0  0  0  0  0
  -25.2805   -9.5607   22.4732 H   0  0  0  0  0  0
  -23.9957   -7.4614   22.7462 H   0  0  0  0  0  0
  -21.0873   -8.8857   19.8973 H   0  0  0  0  0  0
  -22.3790  -10.9688   19.6174 H   0  0  0  0  0  0
  -21.1989   -7.6122   23.9676 H   0  0  0  0  0  0
  -21.1478   -6.0546   25.9094 H   0  0  0  0  0  0
  -22.0610   -2.7566   23.2962 H   0  0  0  0  0  0
  -22.4113  -11.9757   22.4814 H   0  0  0  0  0  0
  -21.1192  -13.1226   22.2588 H   0  0  0  0  0  0
  -24.6844  -15.8522   20.5219 H   0  0  0  0  0  0
  -26.2989  -15.6169   20.0942 H   0  0  0  0  0  0
  -26.7099  -32.5568   23.1169 H   0  0  0  0  0  0
  -25.0140  -33.9804   25.0549 H   0  0  0  0  0  0
  -22.6833  -31.3120   21.4218 H   0  0  0  0  0  0
  -23.3760  -35.9665   23.3283 H   0  0  0  0  0  0
  -24.3595  -36.8920   22.2022 H   0  0  0  0  0  0
  -23.7291  -37.6546   23.6612 H   0  0  0  0  0  0
  -26.0326  -31.6083   20.6063 H   0  0  0  0  0  0
  -26.8165  -30.8948   21.9873 H   0  0  0  0  0  0
  -28.0890  -29.0890   21.1995 H   0  0  0  0  0  0
  -26.0532  -26.0936   18.8563 H   0  0  0  0  0  0
  -23.9838  -27.3648   18.9597 H   0  0  0  0  0  0
  -23.7077  -30.6170   19.4110 H   0  0  0  0  0  0
  -22.7321  -29.2541   19.8703 H   0  0  0  0  0  0
  -25.1301  -36.1963   25.0832 H   0  0  0  0  0  0
  -20.9921  -28.3207   24.1460 H   0  0  0  0  0  0
  -20.5671  -26.2243   23.3567 H   0  0  0  0  0  0
  -21.6646  -26.7444   22.1210 H   0  0  0  0  0  0
  -19.6924  -25.6289   21.1219 H   0  0  0  0  0  0
  -19.6733  -27.3187   20.6703 H   0  0  0  0  0  0
  -17.4206  -26.6641   21.4023 H   0  0  0  0  0  0
  -18.0374  -26.0070   22.9000 H   0  0  0  0  0  0
  -19.7912  -30.7233   24.2309 H   0  0  0  0  0  0
  -17.5001  -31.6261   24.5146 H   0  0  0  0  0  0
  -15.5343  -30.2978   23.7622 H   0  0  0  0  0  0
  -15.8669  -28.0797   22.7058 H   0  0  0  0  0  0
  -24.5957  -30.7045   25.7910 H   0  0  0  0  0  0
  -24.8932  -32.2940   26.4839 H   0  0  0  0  0  0
  -25.8139  -30.9058   27.0298 H   0  0  0  0  0  0
  -26.2713  -29.6858   24.1062 H   0  0  0  0  0  0
  -27.3918  -29.7148   25.4478 H   0  0  0  0  0  0
  -27.8616  -30.4274   23.9210 H   0  0  0  0  0  0
  -27.2713  -33.3540   26.2128 H   0  0  0  0  0  0
  -28.3875  -32.6865   25.0299 H   0  0  0  0  0  0
  -28.0765  -31.8333   26.5345 H   0  0  0  0  0  0
  -28.2601  -38.0122   24.7491 H   0  0  0  0  0  0
  -28.1137  -36.2645   24.6276 H   0  0  0  0  0  0
  -27.2314  -37.1453   25.8850 H   0  0  0  0  0  0
  -20.9256  -29.8773   21.6991 H   0  0  0  0  0  0
  -26.0207  -38.2873   24.1395 H   0  0  0  0  0  0
  -32.2447  -14.8191   27.7966 H   0  0  0  0  0  0
  -31.5215  -17.1606   27.3847 H   0  0  0  0  0  0
  -32.1016  -13.1604   26.0561 H   0  0  0  0  0  0
  -30.1961  -16.0474   23.4421 H   0  0  0  0  0  0
  -34.4477  -10.5546   24.2927 H   0  0  0  0  0  0
  -33.1997   -9.8046   23.2961 H   0  0  0  0  0  0
  -33.3195  -11.9877   22.2746 H   0  0  0  0  0  0
  -33.5345  -12.7827   23.8324 H   0  0  0  0  0  0
  -32.8863  -11.0195   26.0401 H   0  0  0  0  0  0
  -32.2536   -9.4956   25.4451 H   0  0  0  0  0  0
  -31.0936  -11.4466   22.6966 H   0  0  0  0  0  0
  -29.6988  -10.1068   25.6937 H   0  0  0  0  0  0
  -30.2342   -9.4925   24.1344 H   0  0  0  0  0  0
  -29.1765  -10.9183   24.2182 H   0  0  0  0  0  0
  -25.6778  -21.3748   17.9444 H   0  0  0  0  0  0
  -26.4647  -22.7618   17.2007 H   0  0  0  0  0  0
  -25.0909  -23.0044   18.2772 H   0  0  0  0  0  0
  -29.8739  -19.7357   20.3413 H   0  0  0  0  0  0
  -29.2884  -21.0572   21.3186 H   0  0  0  0  0  0
  -28.9589  -18.1231   21.7445 H   0  0  0  0  0  0
  -27.6243  -19.1152   22.2696 H   0  0  0  0  0  0
  -26.9114  -20.4172   20.5114 H   0  0  0  0  0  0
  -27.6847  -19.4425   19.3062 H   0  0  0  0  0  0
  -29.3450  -24.0878   20.0988 H   0  0  0  0  0  0
  -28.3353  -23.5597   21.4218 H   0  0  0  0  0  0
  -28.8997  -20.3576   23.8397 H   0  0  0  0  0  0
  -30.4246  -19.9278   23.0804 H   0  0  0  0  0  0
  -28.1977  -21.3103   18.0422 H   0  0  0  0  0  0
  -29.0046  -22.0536   19.3564 H   0  0  0  0  0  0
  -27.4511  -24.4517   18.6423 H   0  0  0  0  0  0
  -26.3098  -24.3329   19.9907 H   0  0  0  0  0  0
  -29.2326  -25.8557   21.7345 H   0  0  0  0  0  0
  -27.4964  -25.8091   21.7930 H   0  0  0  0  0  0
  -29.8244  -13.3505   23.3592 H   0  0  0  0  0  0
  -29.0018  -17.5789   23.9453 H   0  0  0  0  0  0
  -32.1074  -14.7972   22.3246 H   0  0  0  0  0  0
  -31.0242  -11.9399   25.4957 H   0  0  0  0  0  0
  -26.4183  -22.1652   20.0648 H   0  0  0  0  0  0
  1 25  1  0  0  0
  1 30  2  0  0  0
  1 94  1  0  0  0
  2  3  1  0  0  0
  2 25  1  0  0  0
  2 98  1  0  0  0
  2 99  1  0  0  0
  3  4  1  0  0  0
  3100  1  0  0  0
  3101  1  0  0  0
  4  5  1  0  0  0
  4102  1  0  0  0
  4103  1  0  0  0
  5  6  1  0  0  0
  5 26  1  0  0  0
  5104  1  0  0  0
  6 25  1  0  0  0
  6105  1  0  0  0
  6106  1  0  0  0
  7  8  2  0  0  0
  7 26  1  0  0  0
  7 29  1  0  0  0
  8  9  1  0  0  0
  8 22  1  0  0  0
  9 10  1  0  0  0
  9 27  2  0  0  0
 10 11  2  0  0  0
 10 15  1  0  0  0
 11 12  1  0  0  0
 11107  1  0  0  0
 12 13  2  0  0  0
 12108  1  0  0  0
 13 14  1  0  0  0
 13 31  1  0  0  0
 14 15  2  0  0  0
 14109  1  0  0  0
 15110  1  0  0  0
 16 17  2  0  0  0
 16 21  1  0  0  0
 16 31  1  0  0  0
 17 18  1  0  0  0
 17111  1  0  0  0
 18 19  2  0  0  0
 18112  1  0  0  0
 19 20  1  0  0  0
 19 24  1  0  0  0
 20 21  2  0  0  0
 20113  1  0  0  0
 21 23  1  0  0  0
 22 28  1  0  0  0
 22 32  2  0  0  0
 26 27  1  0  0  0
 28114  1  0  0  0
 28115  1  0  0  0
 29116  1  0  0  0
 29117  1  0  0  0
 33 34  1  0  0  0
 33 66  1  0  0  0
 33 70  2  0  0  0
 34 36  1  0  0  0
 34 59  1  0  0  0
 34118  1  0  0  0
 35 44  2  0  0  0
 35 45  1  0  0  0
 35 68  1  0  0  0
 36 56  1  0  0  0
 36119  1  0  0  0
 37 39  1  0  0  0
 37 47  1  0  0  0
 37 66  1  0  0  0
 37120  1  0  0  0
 38 43  2  0  0  0
 38 46  1  0  0  0
 38 47  1  0  0  0
 39 64  1  0  0  0
 39 67  2  0  0  0
 40 52  1  0  0  0
 40 53  2  0  0  0
 40 58  1  0  0  0
 41121  1  0  0  0
 41122  1  0  0  0
 41123  1  0  0  0
 41 48  1  0  0  0
 42 43  1  0  0  0
 42 66  1  0  0  0
 42124  1  0  0  0
 42125  1  0  0  0
 43 44  1  0  0  0
 44126  1  0  0  0
 45 46  2  0  0  0
 45127  1  0  0  0
 46128  1  0  0  0
 47129  1  0  0  0
 47130  1  0  0  0
 48 56  1  0  0  0
 48 65  1  0  0  0
 48131  1  0  0  0
 49 50  1  0  0  0
 49 53  1  0  0  0
 49 64  1  0  0  0
 49132  1  0  0  0
 50 51  1  0  0  0
 50133  1  0  0  0
 50134  1  0  0  0
 51 52  1  0  0  0
 51135  1  0  0  0
 51136  1  0  0  0
 52137  1  0  0  0
 52138  1  0  0  0
 53 54  1  0  0  0
 54 55  2  0  0  0
 54139  1  0  0  0
 55 57  1  0  0  0
 55140  1  0  0  0
 56 69  2  0  0  0
 57 58  2  0  0  0
 57141  1  0  0  0
 58142  1  0  0  0
 59 60  1  0  0  0
 59 61  1  0  0  0
 59 62  1  0  0  0
 60143  1  0  0  0
 60144  1  0  0  0
 60145  1  0  0  0
 61146  1  0  0  0
 61147  1  0  0  0
 61148  1  0  0  0
 62149  1  0  0  0
 62150  1  0  0  0
 62151  1  0  0  0
 63 65  1  0  0  0
 63152  1  0  0  0
 63153  1  0  0  0
 63154  1  0  0  0
 64155  1  0  0  0
 65156  1  0  0  0
 68 91  1  0  0  0
 71 72  2  0  0  0
 71 73  1  0  0  0
 71157  1  0  0  0
 72 75  1  0  0  0
 72158  1  0  0  0
 73 76  2  0  0  0
 73159  1  0  0  0
 74 75  2  0  0  0
 74 76  1  0  0  0
 74160  1  0  0  0
 75 77  1  0  0  0
 76 92  1  0  0  0
 77 93  1  0  0  0
 77 97  2  0  0  0
 78 79  1  0  0  0
 78 80  1  0  0  0
 78161  1  0  0  0
 78162  1  0  0  0
 79163  1  0  0  0
 79164  1  0  0  0
 79 81  1  0  0  0
 80 95  1  0  0  0
 80165  1  0  0  0
 80166  1  0  0  0
 81 92  1  0  0  0
 81 95  1  0  0  0
 81167  1  0  0  0
 82168  1  0  0  0
 82169  1  0  0  0
 82170  1  0  0  0
 82 95  1  0  0  0
 83171  1  0  0  0
 83172  1  0  0  0
 83173  1  0  0  0
 83 96  1  0  0  0
 84 85  1  0  0  0
 84 86  1  0  0  0
 84174  1  0  0  0
 84175  1  0  0  0
 85 88  1  0  0  0
 85176  1  0  0  0
 85177  1  0  0  0
 86 89  1  0  0  0
 86178  1  0  0  0
 86179  1  0  0  0
 87 90  1  0  0  0
 87 91  1  0  0  0
 87180  1  0  0  0
 87181  1  0  0  0
 88 93  1  0  0  0
 88182  1  0  0  0
 88183  1  0  0  0
 89 96  1  0  0  0
 89184  1  0  0  0
 89185  1  0  0  0
 90 96  1  0  0  0
 90186  1  0  0  0
 90187  1  0  0  0
 91188  1  0  0  0
 91189  1  0  0  0
 92 94  1  0  0  0
 92190  1  0  0  0
 93191  1  0  0  0
 94192  1  0  0  0
 95193  1  0  0  0
 96194  1  0  0  0
M  CHG  2  95   1  96   1
M  ISO  4   1 100  68 101  91 101  94 100
M  END
> <chiral flag>
0

> <version>
0

> <s_m_source_file>
/data/baiqing/PycharmProjects/Reinvent-master-3.2/result/LINK_invent/BTK/process_docking_weight1_custom_product_contain_oxygen_bond_distance_aromatic_linkinvent_7_9_3/rearranged_h_0005.sdf

> <i_m_source_file_index>
59

> <r_mmod_Potential_Energy-OPLS-2005>
-116.988426208496

> <r_mmod_Stretch_Energy-OPLS-2005>
38.7905082702637

> <r_mmod_Bend_Energy-OPLS-2005>
157.203750610352

> <r_mmod_Torsional_Energy-OPLS-2005>
433.743865966797

> <r_mmod_Improper_Torsional_Energy-OPLS-2005>
12.572491645813

> <r_mmod_Van_der_Waal_Energy-OPLS-2005>
157.216995239258

> <r_mmod_Electrostatic_Energy-OPLS-2005>
-123.857383728027

> <r_mmod_Solvation_Energy-OPLS-2005>
-819.165588378906

> <b_mmod_Minimization_Converged-OPLS-2005>
0

> <r_mmod_RMS_Derivative-OPLS-2005>
6.45248031616211

$$$$
59
                    3D
 Structure written by MMmdl.
184192  0  0  1  0            999 V2000
  -30.7938  -14.2969   20.7730 C   0  0  0  0  0  0
  -30.4208  -12.2982   19.3639 C   0  0  0  0  0  0
  -29.4755  -12.5439   18.1749 C   0  0  0  0  0  0
  -28.0026  -12.3885   18.5959 C   0  0  0  0  0  0
  -27.6673  -13.1965   19.8747 C   0  0  2  0  0  0
  -28.7016  -12.9085   20.9817 C   0  0  0  0  0  0
  -25.2619  -13.8147   20.5653 C   0  0  0  0  0  0
  -24.1856  -13.0441   20.9153 C   0  0  0  0  0  0
  -24.6394  -11.6901   20.8712 C   0  0  0  0  0  0
  -23.9054  -10.4292   21.0399 C   0  0  0  0  0  0
  -24.3609   -9.4208   21.9180 C   0  0  0  0  0  0
  -23.6281   -8.2243   22.0755 C   0  0  0  0  0  0
  -22.4261   -8.0281   21.3547 C   0  0  0  0  0  0
  -21.9901   -9.0251   20.4640 C   0  0  0  0  0  0
  -22.7235  -10.2128   20.3048 C   0  0  0  0  0  0
  -21.6850   -6.0731   22.5276 C   0  0  0  0  0  0
  -21.4006   -6.5636   23.8207 C   0  0  0  0  0  0
  -21.3654   -5.6790   24.9174 C   0  0  0  0  0  0
  -21.6047   -4.3055   24.7226 C   0  0  0  0  0  0
  -21.8821   -3.8146   23.4348 C   0  0  0  0  0  0
  -21.9187   -4.6960   22.3405 C   0  0  0  0  0  0
  -22.7880  -13.5242   21.1824 C   0  0  0  0  0  0
  -22.1661   -4.2148   21.0981 F   0  0  0  0  0  0
  -21.5629   -3.4541   25.7741 F   0  0  0  0  0  0
  -30.0512  -13.2059   20.4580 N   0  0  0  0  0  0
  -26.3048  -12.9303   20.3342 N   0  0  0  0  0  0
  -25.9310  -11.6466   20.5720 N   0  0  0  0  0  0
  -22.0513  -12.8227   22.0364 N   0  0  0  0  0  0
  -25.4381  -15.1863   20.4071 N   0  0  0  0  0  0
  -31.7555  -14.6840   20.0960 O   0  0  0  0  0  0
  -21.6631   -6.8876   21.4238 O   0  0  0  0  0  0
  -22.3567  -14.5551   20.6673 O   0  0  0  0  0  0
  -24.6086  -31.8718   23.2139 C   0  0  0  0  0  0
  -25.9016  -32.4850   23.8403 C   0  0  1  0  0  0
  -27.2485  -27.4779   20.0961 C   0  0  0  0  0  0
  -25.5890  -33.8647   24.2334 N   0  0  0  0  0  0
  -23.3935  -30.4929   21.5529 C   0  0  2  0  0  0
  -24.8438  -28.9620   20.1183 C   0  0  0  0  0  0
  -22.7374  -29.4668   22.5032 C   0  0  0  0  0  0
  -18.0259  -28.1360   22.8494 C   0  0  0  0  0  0
  -24.1487  -36.7309   23.2634 C   0  0  0  0  0  0
  -25.9174  -30.8485   21.3659 C   0  0  0  0  0  0
  -25.9980  -29.4854   20.7149 C   0  0  0  0  0  0
  -27.1996  -28.7502   20.7138 C   0  0  0  0  0  0
  -26.0774  -26.9591   19.5092 C   0  0  0  0  0  0
  -24.8740  -27.6900   19.5198 C   0  0  0  0  0  0
  -23.6023  -29.8223   20.1673 C   0  0  0  0  0  0
  -25.4111  -36.3133   24.0342 C   0  0  1  0  0  0
  -20.5843  -28.3640   23.1344 C   0  0  2  0  0  0
  -20.6749  -26.9381   22.5427 C   0  0  0  0  0  0
  -19.5741  -26.6369   21.5210 C   0  0  0  0  0  0
  -18.1908  -26.7906   22.1608 C   0  0  0  0  0  0
  -19.1506  -28.8811   23.2911 C   0  0  0  0  0  0
  -18.9443  -30.1417   23.8917 C   0  0  0  0  0  0
  -17.6454  -30.6578   24.0557 C   0  0  0  0  0  0
  -25.9034  -34.9500   23.5136 C   0  0  0  0  0  0
  -16.5347  -29.9086   23.6318 C   0  0  0  0  0  0
  -16.7253  -28.6499   23.0347 C   0  0  0  0  0  0
  -26.4447  -31.6620   25.0727 C   0  0  0  0  0  0
  -25.3729  -31.3758   26.1500 C   0  0  0  0  0  0
  -27.0271  -30.3053   24.6102 C   0  0  0  0  0  0
  -27.6006  -32.4346   25.7510 C   0  0  0  0  0  0
  -27.5576  -37.1838   24.8467 C   0  0  0  0  0  0
  -21.4111  -29.3013   22.3764 N   0  0  0  0  0  0
  -26.4295  -37.3821   23.9404 N   0  0  0  0  0  0
  -24.6563  -31.0853   22.1019 N   0  0  0  0  0  0
  -23.4165  -28.8214   23.3059 O   0  0  0  0  0  0
  -28.3742  -26.6910   20.0165 O   0  0  0  0  0  0
  -26.5597  -34.8950   22.4698 O   0  0  0  0  0  0
  -23.5302  -32.1449   23.7577 O   0  0  0  0  0  0
  -32.1883  -17.6742   24.6290 C   0  0  0  0  0  0
  -33.1048  -18.7996   22.6760 C   0  0  0  0  0  0
  -33.4819  -19.7220   24.9056 C   0  0  0  0  0  0
  -32.3612  -17.7371   23.2255 C   0  0  0  0  0  0
  -32.7309  -18.6691   25.4718 C   0  0  0  0  0  0
  -33.6613  -19.7896   23.5081 C   0  0  0  0  0  0
  -31.7510  -16.7509   22.3199 C   0  0  0  0  0  0
  -28.9018  -20.0656   27.1911 C   0  0  0  0  0  0
  -30.9976  -18.4772   29.7463 C   0  0  0  0  0  0
  -32.4918  -18.6097   26.9767 C   0  0  0  0  0  0
  -34.3481  -20.9796   22.8754 C   0  0  0  0  0  0
  -32.6493  -24.0090   21.6870 C   0  0  0  0  0  0
  -30.0406  -19.0758   26.8832 C   0  0  0  0  0  0
  -31.3910  -19.7075   28.9040 C   0  0  0  0  0  0
  -32.9529  -25.2747   20.8652 C   0  0  0  0  0  0
  -30.6100  -26.0164   20.4116 C   0  0  0  0  0  0
  -33.8268  -23.0313   21.7755 C   0  0  0  0  0  0
  -29.5749  -27.1269   20.6420 C   0  0  0  0  0  0
  -31.0872  -15.7427   22.7755 N   0  0  0  0  0  0
  -30.4578  -14.8265   21.9680 N   0  0  0  0  0  0
  -31.9186  -26.3185   21.0398 N   0  3  0  0  0  0
  -31.3698  -19.4788   27.4300 N   0  3  0  0  0  0
  -33.3594  -21.9386   22.5424 O   0  0  0  0  0  0
  -31.4593  -12.4270   19.0512 H   0  0  0  0  0  0
  -30.3419  -11.2646   19.7051 H   0  0  0  0  0  0
  -29.7056  -11.8541   17.3622 H   0  0  0  0  0  0
  -29.6389  -13.5476   17.7802 H   0  0  0  0  0  0
  -27.8090  -11.3286   18.7657 H   0  0  0  0  0  0
  -27.3455  -12.6911   17.7796 H   0  0  0  0  0  0
  -27.7345  -14.2543   19.6185 H   0  0  0  0  0  0
  -28.6613  -11.8562   21.2683 H   0  0  0  0  0  0
  -28.4304  -13.4610   21.8808 H   0  0  0  0  0  0
  -25.2752   -9.5680   22.4757 H   0  0  0  0  0  0
  -23.9985   -7.4638   22.7485 H   0  0  0  0  0  0
  -21.0833   -8.8771   19.8947 H   0  0  0  0  0  0
  -22.3699  -10.9663   19.6151 H   0  0  0  0  0  0
  -21.2000   -7.6142   23.9709 H   0  0  0  0  0  0
  -21.1474   -6.0523   25.9075 H   0  0  0  0  0  0
  -22.0604   -2.7608   23.2852 H   0  0  0  0  0  0
  -22.4111  -11.9866   22.4732 H   0  0  0  0  0  0
  -21.1129  -13.1251   22.2567 H   0  0  0  0  0  0
  -24.6807  -15.8520   20.5190 H   0  0  0  0  0  0
  -26.3057  -15.6184   20.1115 H   0  0  0  0  0  0
  -26.7095  -32.5577   23.1176 H   0  0  0  0  0  0
  -25.0102  -33.9818   25.0520 H   0  0  0  0  0  0
  -22.6799  -31.3070   21.4142 H   0  0  0  0  0  0
  -23.3783  -35.9606   23.3307 H   0  0  0  0  0  0
  -24.3570  -36.8917   22.2041 H   0  0  0  0  0  0
  -23.7198  -37.6497   23.6646 H   0  0  0  0  0  0
  -26.0332  -31.6200   20.6037 H   0  0  0  0  0  0
  -26.8011  -30.8952   21.9895 H   0  0  0  0  0  0
  -28.0720  -29.1787   21.1850 H   0  0  0  0  0  0
  -26.1020  -25.9830   19.0452 H   0  0  0  0  0  0
  -23.9843  -27.2715   19.0698 H   0  0  0  0  0  0
  -23.7024  -30.5961   19.4050 H   0  0  0  0  0  0
  -22.7286  -29.2355   19.8747 H   0  0  0  0  0  0
  -25.1282  -36.2003   25.0834 H   0  0  0  0  0  0
  -20.9912  -28.3185   24.1472 H   0  0  0  0  0  0
  -20.5649  -26.2235   23.3601 H   0  0  0  0  0  0
  -21.6627  -26.7416   22.1232 H   0  0  0  0  0  0
  -19.6910  -25.6277   21.1240 H   0  0  0  0  0  0
  -19.6694  -27.3172   20.6736 H   0  0  0  0  0  0
  -17.4179  -26.6661   21.4001 H   0  0  0  0  0  0
  -18.0293  -26.0037   22.8995 H   0  0  0  0  0  0
  -19.7929  -30.7211   24.2306 H   0  0  0  0  0  0
  -17.5025  -31.6260   24.5142 H   0  0  0  0  0  0
  -15.5356  -30.3002   23.7631 H   0  0  0  0  0  0
  -15.8653  -28.0836   22.7054 H   0  0  0  0  0  0
  -24.5825  -30.7190   25.7855 H   0  0  0  0  0  0
  -24.9027  -32.2951   26.5003 H   0  0  0  0  0  0
  -25.8089  -30.8865   27.0221 H   0  0  0  0  0  0
  -26.2828  -29.6872   24.1072 H   0  0  0  0  0  0
  -27.3932  -29.7222   25.4566 H   0  0  0  0  0  0
  -27.8715  -30.4352   23.9329 H   0  0  0  0  0  0
  -27.2574  -33.3624   26.2099 H   0  0  0  0  0  0
  -28.3823  -32.6955   25.0367 H   0  0  0  0  0  0
  -28.0656  -31.8474   26.5435 H   0  0  0  0  0  0
  -28.2631  -38.0103   24.7495 H   0  0  0  0  0  0
  -28.1038  -36.2643   24.6324 H   0  0  0  0  0  0
  -27.2287  -37.1528   25.8869 H   0  0  0  0  0  0
  -20.9257  -29.8740   21.7006 H   0  0  0  0  0  0
  -26.0194  -38.2903   24.1409 H   0  0  0  0  0  0
  -31.6081  -16.8725   25.0653 H   0  0  0  0  0  0
  -33.2239  -18.8815   21.6048 H   0  0  0  0  0  0
  -33.8977  -20.4975   25.5354 H   0  0  0  0  0  0
  -31.8579  -16.9144   21.2472 H   0  0  0  0  0  0
  -27.9855  -19.7486   26.6923 H   0  0  0  0  0  0
  -29.1334  -21.0691   26.8341 H   0  0  0  0  0  0
  -28.6765  -20.1228   28.2553 H   0  0  0  0  0  0
  -31.1030  -18.6977   30.8084 H   0  0  0  0  0  0
  -31.6287  -17.6141   29.5367 H   0  0  0  0  0  0
  -29.9598  -18.1862   29.5841 H   0  0  0  0  0  0
  -33.4162  -18.9069   27.4727 H   0  0  0  0  0  0
  -32.3073  -17.5779   27.2754 H   0  0  0  0  0  0
  -34.8881  -20.6566   21.9824 H   0  0  0  0  0  0
  -35.0835  -21.4046   23.5629 H   0  0  0  0  0  0
  -31.7885  -23.4903   21.2626 H   0  0  0  0  0  0
  -32.3684  -24.2955   22.6999 H   0  0  0  0  0  0
  -30.1042  -18.9973   25.7985 H   0  0  0  0  0  0
  -29.7762  -18.0793   27.2384 H   0  0  0  0  0  0
  -32.3866  -20.0403   29.1995 H   0  0  0  0  0  0
  -30.7356  -20.5412   29.1567 H   0  0  0  0  0  0
  -33.0688  -25.0276   19.8085 H   0  0  0  0  0  0
  -33.9053  -25.6959   21.1911 H   0  0  0  0  0  0
  -30.7497  -25.8709   19.3392 H   0  0  0  0  0  0
  -30.2091  -25.0824   20.8075 H   0  0  0  0  0  0
  -34.6802  -23.5026   22.2655 H   0  0  0  0  0  0
  -34.1438  -22.6995   20.7848 H   0  0  0  0  0  0
  -29.9177  -28.0651   20.2023 H   0  0  0  0  0  0
  -29.4138  -27.2818   21.7109 H   0  0  0  0  0  0
  -29.7221  -14.3198   22.4414 H   0  0  0  0  0  0
  -32.2811  -27.1709   20.6409 H   0  0  0  0  0  0
  -31.8002  -26.4839   22.0273 H   0  0  0  0  0  0
  -31.5728  -20.3803   27.0236 H   0  0  0  0  0  0
  1 25  1  0  0  0
  1 30  2  0  0  0
  1 90  1  0  0  0
  2  3  1  0  0  0
  2 25  1  0  0  0
  2 94  1  0  0  0
  2 95  1  0  0  0
  3  4  1  0  0  0
  3 96  1  0  0  0
  3 97  1  0  0  0
  4  5  1  0  0  0
  4 98  1  0  0  0
  4 99  1  0  0  0
  5  6  1  0  0  0
  5 26  1  0  0  0
  5100  1  0  0  0
  6 25  1  0  0  0
  6101  1  0  0  0
  6102  1  0  0  0
  7  8  2  0  0  0
  7 26  1  0  0  0
  7 29  1  0  0  0
  8  9  1  0  0  0
  8 22  1  0  0  0
  9 10  1  0  0  0
  9 27  2  0  0  0
 10 11  2  0  0  0
 10 15  1  0  0  0
 11 12  1  0  0  0
 11103  1  0  0  0
 12 13  2  0  0  0
 12104  1  0  0  0
 13 14  1  0  0  0
 13 31  1  0  0  0
 14 15  2  0  0  0
 14105  1  0  0  0
 15106  1  0  0  0
 16 17  2  0  0  0
 16 21  1  0  0  0
 16 31  1  0  0  0
 17 18  1  0  0  0
 17107  1  0  0  0
 18 19  2  0  0  0
 18108  1  0  0  0
 19 20  1  0  0  0
 19 24  1  0  0  0
 20 21  2  0  0  0
 20109  1  0  0  0
 21 23  1  0  0  0
 22 28  1  0  0  0
 22 32  2  0  0  0
 26 27  1  0  0  0
 28110  1  0  0  0
 28111  1  0  0  0
 29112  1  0  0  0
 29113  1  0  0  0
 33 34  1  0  0  0
 33 66  1  0  0  0
 33 70  2  0  0  0
 34 36  1  0  0  0
 34 59  1  0  0  0
 34114  1  0  0  0
 35 44  2  0  0  0
 35 45  1  0  0  0
 35 68  1  0  0  0
 36 56  1  0  0  0
 36115  1  0  0  0
 37 39  1  0  0  0
 37 47  1  0  0  0
 37 66  1  0  0  0
 37116  1  0  0  0
 38 43  2  0  0  0
 38 46  1  0  0  0
 38 47  1  0  0  0
 39 64  1  0  0  0
 39 67  2  0  0  0
 40 52  1  0  0  0
 40 53  2  0  0  0
 40 58  1  0  0  0
 41117  1  0  0  0
 41118  1  0  0  0
 41119  1  0  0  0
 41 48  1  0  0  0
 42 43  1  0  0  0
 42 66  1  0  0  0
 42120  1  0  0  0
 42121  1  0  0  0
 43 44  1  0  0  0
 44122  1  0  0  0
 45 46  2  0  0  0
 45123  1  0  0  0
 46124  1  0  0  0
 47125  1  0  0  0
 47126  1  0  0  0
 48 56  1  0  0  0
 48 65  1  0  0  0
 48127  1  0  0  0
 49 50  1  0  0  0
 49 53  1  0  0  0
 49 64  1  0  0  0
 49128  1  0  0  0
 50 51  1  0  0  0
 50129  1  0  0  0
 50130  1  0  0  0
 51 52  1  0  0  0
 51131  1  0  0  0
 51132  1  0  0  0
 52133  1  0  0  0
 52134  1  0  0  0
 53 54  1  0  0  0
 54 55  2  0  0  0
 54135  1  0  0  0
 55 57  1  0  0  0
 55136  1  0  0  0
 56 69  2  0  0  0
 57 58  2  0  0  0
 57137  1  0  0  0
 58138  1  0  0  0
 59 60  1  0  0  0
 59 61  1  0  0  0
 59 62  1  0  0  0
 60139  1  0  0  0
 60140  1  0  0  0
 60141  1  0  0  0
 61142  1  0  0  0
 61143  1  0  0  0
 61144  1  0  0  0
 62145  1  0  0  0
 62146  1  0  0  0
 62147  1  0  0  0
 63 65  1  0  0  0
 63148  1  0  0  0
 63149  1  0  0  0
 63150  1  0  0  0
 64151  1  0  0  0
 65152  1  0  0  0
 68 88  1  0  0  0
 71 74  2  0  0  0
 71 75  1  0  0  0
 71153  1  0  0  0
 72 74  1  0  0  0
 72 76  2  0  0  0
 72154  1  0  0  0
 73 75  2  0  0  0
 73 76  1  0  0  0
 73155  1  0  0  0
 74 77  1  0  0  0
 75 80  1  0  0  0
 76 81  1  0  0  0
 77 89  2  0  0  0
 77156  1  0  0  0
 78 83  1  0  0  0
 78157  1  0  0  0
 78158  1  0  0  0
 78159  1  0  0  0
 79 84  1  0  0  0
 79160  1  0  0  0
 79161  1  0  0  0
 79162  1  0  0  0
 80163  1  0  0  0
 80164  1  0  0  0
 80 92  1  0  0  0
 81 93  1  0  0  0
 81165  1  0  0  0
 81166  1  0  0  0
 82 85  1  0  0  0
 82 87  1  0  0  0
 82167  1  0  0  0
 82168  1  0  0  0
 83 92  1  0  0  0
 83169  1  0  0  0
 83170  1  0  0  0
 84 92  1  0  0  0
 84171  1  0  0  0
 84172  1  0  0  0
 85 91  1  0  0  0
 85173  1  0  0  0
 85174  1  0  0  0
 86 88  1  0  0  0
 86 91  1  0  0  0
 86175  1  0  0  0
 86176  1  0  0  0
 87 93  1  0  0  0
 87177  1  0  0  0
 87178  1  0  0  0
 88179  1  0  0  0
 88180  1  0  0  0
 89 90  1  0  0  0
 90181  1  0  0  0
 91182  1  0  0  0
 91183  1  0  0  0
 92184  1  0  0  0
M  CHG  2  91   1  92   1
M  ISO  4   1 100  68 101  88 101  90 100
M  END
> <chiral flag>
0

> <version>
0

> <s_m_source_file>
/data/baiqing/PycharmProjects/Reinvent-master-3.2/result/LINK_invent/BTK/process_docking_weight1_custom_product_contain_oxygen_bond_distance_aromatic_linkinvent_7_9_3/rearranged_h_0005.sdf

> <i_m_source_file_index>
60

> <r_mmod_Potential_Energy-OPLS-2005>
-259.683319091797

> <r_mmod_Stretch_Energy-OPLS-2005>
35.7478904724121

> <r_mmod_Bend_Energy-OPLS-2005>
121.51091003418

> <r_mmod_Torsional_Energy-OPLS-2005>
205.258102416992

> <r_mmod_Improper_Torsional_Energy-OPLS-2005>
3.47028732299805

> <r_mmod_Van_der_Waal_Energy-OPLS-2005>
170.415618896484

> <r_mmod_Electrostatic_Energy-OPLS-2005>
32.1646537780762

> <r_mmod_Solvation_Energy-OPLS-2005>
-836.346557617188

> <b_mmod_Minimization_Converged-OPLS-2005>
0

> <r_mmod_RMS_Derivative-OPLS-2005>
2.12328577041626

$$$$
60
                    3D
 Structure written by MMmdl.
165173  0  0  1  0            999 V2000
  -30.7416  -14.4409   20.5238 C   0  0  0  0  0  0
  -30.4065  -12.2764   19.4273 C   0  0  0  0  0  0
  -29.4883  -12.4837   18.2073 C   0  0  0  0  0  0
  -28.0104  -12.3500   18.6217 C   0  0  0  0  0  0
  -27.6561  -13.2025   19.8692 C   0  0  2  0  0  0
  -28.7019  -13.0242   20.9946 C   0  0  0  0  0  0
  -25.2549  -13.8123   20.5717 C   0  0  0  0  0  0
  -24.1810  -13.0397   20.9200 C   0  0  0  0  0  0
  -24.6379  -11.6876   20.8745 C   0  0  0  0  0  0
  -23.9053  -10.4268   21.0402 C   0  0  0  0  0  0
  -24.3609   -9.4187   21.9179 C   0  0  0  0  0  0
  -23.6281   -8.2228   22.0753 C   0  0  0  0  0  0
  -22.4263   -8.0270   21.3545 C   0  0  0  0  0  0
  -21.9896   -9.0244   20.4645 C   0  0  0  0  0  0
  -22.7229  -10.2119   20.3047 C   0  0  0  0  0  0
  -21.6848   -6.0727   22.5275 C   0  0  0  0  0  0
  -21.4013   -6.5632   23.8211 C   0  0  0  0  0  0
  -21.3654   -5.6787   24.9174 C   0  0  0  0  0  0
  -21.6041   -4.3050   24.7224 C   0  0  0  0  0  0
  -21.8821   -3.8140   23.4347 C   0  0  0  0  0  0
  -21.9194   -4.6956   22.3399 C   0  0  0  0  0  0
  -22.7834  -13.5199   21.1856 C   0  0  0  0  0  0
  -22.1660   -4.2142   21.0976 F   0  0  0  0  0  0
  -21.5626   -3.4539   25.7738 F   0  0  0  0  0  0
  -30.0333  -13.2864   20.4285 N   0  0  0  0  0  0
  -26.2991  -12.9306   20.3367 N   0  0  0  0  0  0
  -25.9303  -11.6467   20.5782 N   0  0  0  0  0  0
  -22.0482  -12.8196   22.0415 N   0  0  0  0  0  0
  -25.4200  -15.1833   20.4177 N   0  0  0  0  0  0
  -31.9059  -14.5343   20.1309 O   0  0  0  0  0  0
  -21.6628   -6.8870   21.4240 O   0  0  0  0  0  0
  -22.3513  -14.5502   20.6702 O   0  0  0  0  0  0
  -24.6098  -31.8703   23.2124 C   0  0  0  0  0  0
  -25.9010  -32.4835   23.8408 C   0  0  1  0  0  0
  -27.2433  -27.4837   20.0849 C   0  0  0  0  0  0
  -25.5879  -33.8631   24.2341 N   0  0  0  0  0  0
  -23.3972  -30.4921   21.5502 C   0  0  2  0  0  0
  -24.8474  -28.9629   20.1110 C   0  0  0  0  0  0
  -22.7385  -29.4660   22.4999 C   0  0  0  0  0  0
  -18.0268  -28.1374   22.8489 C   0  0  0  0  0  0
  -24.1484  -36.7321   23.2634 C   0  0  0  0  0  0
  -25.9196  -30.8489   21.3599 C   0  0  0  0  0  0
  -26.0009  -29.4858   20.7099 C   0  0  0  0  0  0
  -27.2010  -28.7469   20.7057 C   0  0  0  0  0  0
  -26.0806  -26.9584   19.4873 C   0  0  0  0  0  0
  -24.8792  -27.6947   19.5001 C   0  0  0  0  0  0
  -23.6044  -29.8217   20.1643 C   0  0  0  0  0  0
  -25.4097  -36.3117   24.0343 C   0  0  1  0  0  0
  -20.5853  -28.3654   23.1329 C   0  0  2  0  0  0
  -20.6755  -26.9392   22.5429 C   0  0  0  0  0  0
  -19.5746  -26.6386   21.5207 C   0  0  0  0  0  0
  -18.1917  -26.7928   22.1604 C   0  0  0  0  0  0
  -19.1514  -28.8829   23.2909 C   0  0  0  0  0  0
  -18.9445  -30.1434   23.8926 C   0  0  0  0  0  0
  -17.6450  -30.6580   24.0569 C   0  0  0  0  0  0
  -25.9023  -34.9482   23.5139 C   0  0  0  0  0  0
  -16.5342  -29.9088   23.6320 C   0  0  0  0  0  0
  -16.7257  -28.6502   23.0346 C   0  0  0  0  0  0
  -26.4457  -31.6606   25.0719 C   0  0  0  0  0  0
  -25.3741  -31.3710   26.1484 C   0  0  0  0  0  0
  -27.0268  -30.3051   24.6063 C   0  0  0  0  0  0
  -27.6053  -32.4310   25.7462 C   0  0  0  0  0  0
  -27.5587  -37.1800   24.8450 C   0  0  0  0  0  0
  -21.4120  -29.3026   22.3735 N   0  0  0  0  0  0
  -26.4284  -37.3801   23.9418 N   0  0  0  0  0  0
  -24.6597  -31.0841   22.1001 N   0  0  0  0  0  0
  -23.4172  -28.8211   23.3033 O   0  0  0  0  0  0
  -28.3916  -26.7429   20.1272 O   0  0  0  0  0  0
  -26.5586  -34.8929   22.4700 O   0  0  0  0  0  0
  -23.5302  -32.1431   23.7551 O   0  0  0  0  0  0
  -29.8392  -18.7008   18.8958 C   0  0  0  0  0  0
  -31.6646  -17.4010   20.5808 C   0  0  0  0  0  0
  -31.1500  -19.2005   19.0170 C   0  0  0  0  0  0
  -30.3853  -16.8308   20.3665 C   0  0  0  0  0  0
  -32.0676  -18.5762   19.8932 C   0  0  0  0  0  0
  -29.4556  -17.5257   19.5630 C   0  0  0  0  0  0
  -32.1118  -22.6504   18.0903 C   0  0  0  0  0  0
  -34.2608  -18.5287   20.8829 C   0  0  0  0  0  0
  -31.5816  -20.3462   18.1171 C   0  0  0  0  0  0
  -31.4389  -25.8475   18.1260 C   0  0  0  0  0  0
  -30.4333  -25.9471   19.2825 C   0  0  0  0  0  0
  -32.7007  -25.0466   18.5001 C   0  0  0  0  0  0
  -29.1823  -26.7691   18.9532 C   0  0  0  0  0  0
  -30.0493  -15.5384   20.8758 N   0  0  0  0  0  0
  -32.3799  -23.6943   18.9487 N   0  0  0  0  0  0
  -32.1298  -22.7038   16.8593 O   0  0  0  0  0  0
  -33.3280  -19.1282   19.9925 O   0  0  0  0  0  0
  -31.8245  -21.5614   18.8093 O   0  0  0  0  0  0
  -27.8644  -16.9166   19.3078 Cl  0  0  0  0  0  0
  -31.4535  -12.3411   19.1258 H   0  0  0  0  0  0
  -30.2785  -11.2746   19.8405 H   0  0  0  0  0  0
  -29.7258  -11.7560   17.4302 H   0  0  0  0  0  0
  -29.6649  -13.4678   17.7700 H   0  0  0  0  0  0
  -27.8221  -11.2962   18.8297 H   0  0  0  0  0  0
  -27.3591  -12.6167   17.7885 H   0  0  0  0  0  0
  -27.6875  -14.2388   19.5450 H   0  0  0  0  0  0
  -28.6682  -12.0078   21.3891 H   0  0  0  0  0  0
  -28.4810  -13.6781   21.8396 H   0  0  0  0  0  0
  -25.2761   -9.5661   22.4744 H   0  0  0  0  0  0
  -23.9993   -7.4617   22.7466 H   0  0  0  0  0  0
  -21.0830   -8.8766   19.8949 H   0  0  0  0  0  0
  -22.3698  -10.9656   19.6149 H   0  0  0  0  0  0
  -21.2010   -7.6141   23.9710 H   0  0  0  0  0  0
  -21.1469   -6.0517   25.9074 H   0  0  0  0  0  0
  -22.0608   -2.7603   23.2849 H   0  0  0  0  0  0
  -22.4092  -11.9846   22.4787 H   0  0  0  0  0  0
  -21.1100  -13.1219   22.2627 H   0  0  0  0  0  0
  -24.6514  -15.8347   20.5256 H   0  0  0  0  0  0
  -26.2663  -15.6297   20.0829 H   0  0  0  0  0  0
  -26.7089  -32.5568   23.1187 H   0  0  0  0  0  0
  -25.0039  -33.9800   25.0491 H   0  0  0  0  0  0
  -22.6840  -31.3071   21.4116 H   0  0  0  0  0  0
  -23.3750  -35.9648   23.3283 H   0  0  0  0  0  0
  -24.3595  -36.8947   22.2053 H   0  0  0  0  0  0
  -23.7230  -37.6520   23.6654 H   0  0  0  0  0  0
  -26.0240  -31.6152   20.5908 H   0  0  0  0  0  0
  -26.8103  -30.9073   21.9732 H   0  0  0  0  0  0
  -28.0903  -29.1394   21.1787 H   0  0  0  0  0  0
  -26.1044  -25.9803   19.0274 H   0  0  0  0  0  0
  -23.9907  -27.2827   19.0419 H   0  0  0  0  0  0
  -23.7038  -30.5949   19.4014 H   0  0  0  0  0  0
  -22.7311  -29.2343   19.8745 H   0  0  0  0  0  0
  -25.1265  -36.1985   25.0836 H   0  0  0  0  0  0
  -20.9944  -28.3225   24.1449 H   0  0  0  0  0  0
  -20.5632  -26.2264   23.3614 H   0  0  0  0  0  0
  -21.6634  -26.7433   22.1238 H   0  0  0  0  0  0
  -19.6909  -25.6303   21.1225 H   0  0  0  0  0  0
  -19.6694  -27.3206   20.6746 H   0  0  0  0  0  0
  -17.4195  -26.6695   21.3994 H   0  0  0  0  0  0
  -18.0302  -26.0058   22.8982 H   0  0  0  0  0  0
  -19.7923  -30.7234   24.2315 H   0  0  0  0  0  0
  -17.5011  -31.6265   24.5164 H   0  0  0  0  0  0
  -15.5345  -30.2998   23.7628 H   0  0  0  0  0  0
  -15.8656  -28.0825   22.7055 H   0  0  0  0  0  0
  -24.5924  -30.7033   25.7846 H   0  0  0  0  0  0
  -24.8917  -32.2865   26.4922 H   0  0  0  0  0  0
  -25.8116  -30.8907   27.0244 H   0  0  0  0  0  0
  -26.2790  -29.6831   24.1130 H   0  0  0  0  0  0
  -27.4065  -29.7269   25.4498 H   0  0  0  0  0  0
  -27.8617  -30.4377   23.9177 H   0  0  0  0  0  0
  -27.2688  -33.3597   26.2085 H   0  0  0  0  0  0
  -28.3826  -32.6890   25.0255 H   0  0  0  0  0  0
  -28.0760  -31.8407   26.5333 H   0  0  0  0  0  0
  -28.2581  -38.0119   24.7543 H   0  0  0  0  0  0
  -28.1103  -36.2661   24.6196 H   0  0  0  0  0  0
  -27.2330  -37.1373   25.8858 H   0  0  0  0  0  0
  -20.9271  -29.8743   21.6962 H   0  0  0  0  0  0
  -26.0176  -38.2872   24.1452 H   0  0  0  0  0  0
  -29.1339  -19.1866   18.2372 H   0  0  0  0  0  0
  -32.3544  -16.8737   21.2223 H   0  0  0  0  0  0
  -35.1896  -19.0991   20.8671 H   0  0  0  0  0  0
  -34.4993  -17.5069   20.5854 H   0  0  0  0  0  0
  -33.8921  -18.5292   21.9096 H   0  0  0  0  0  0
  -30.8169  -20.5052   17.3548 H   0  0  0  0  0  0
  -32.4888  -20.0468   17.5900 H   0  0  0  0  0  0
  -31.7354  -26.8507   17.8160 H   0  0  0  0  0  0
  -30.9571  -25.3946   17.2582 H   0  0  0  0  0  0
  -30.9290  -26.3842   20.1502 H   0  0  0  0  0  0
  -30.1182  -24.9470   19.5822 H   0  0  0  0  0  0
  -33.2400  -25.5558   19.3002 H   0  0  0  0  0  0
  -33.3857  -25.0071   17.6506 H   0  0  0  0  0  0
  -28.6407  -26.3347   18.1118 H   0  0  0  0  0  0
  -29.4502  -27.7948   18.6940 H   0  0  0  0  0  0
  -29.0744  -15.3780   21.0783 H   0  0  0  0  0  0
  -32.3426  -23.4822   19.9374 H   0  0  0  0  0  0
  1 25  1  0  0  0
  1 30  2  0  0  0
  1 84  1  0  0  0
  2  3  1  0  0  0
  2 25  1  0  0  0
  2 90  1  0  0  0
  2 91  1  0  0  0
  3  4  1  0  0  0
  3 92  1  0  0  0
  3 93  1  0  0  0
  4  5  1  0  0  0
  4 94  1  0  0  0
  4 95  1  0  0  0
  5  6  1  0  0  0
  5 26  1  0  0  0
  5 96  1  0  0  0
  6 25  1  0  0  0
  6 97  1  0  0  0
  6 98  1  0  0  0
  7  8  2  0  0  0
  7 26  1  0  0  0
  7 29  1  0  0  0
  8  9  1  0  0  0
  8 22  1  0  0  0
  9 10  1  0  0  0
  9 27  2  0  0  0
 10 11  2  0  0  0
 10 15  1  0  0  0
 11 12  1  0  0  0
 11 99  1  0  0  0
 12 13  2  0  0  0
 12100  1  0  0  0
 13 14  1  0  0  0
 13 31  1  0  0  0
 14 15  2  0  0  0
 14101  1  0  0  0
 15102  1  0  0  0
 16 17  2  0  0  0
 16 21  1  0  0  0
 16 31  1  0  0  0
 17 18  1  0  0  0
 17103  1  0  0  0
 18 19  2  0  0  0
 18104  1  0  0  0
 19 20  1  0  0  0
 19 24  1  0  0  0
 20 21  2  0  0  0
 20105  1  0  0  0
 21 23  1  0  0  0
 22 28  1  0  0  0
 22 32  2  0  0  0
 26 27  1  0  0  0
 28106  1  0  0  0
 28107  1  0  0  0
 29108  1  0  0  0
 29109  1  0  0  0
 33 34  1  0  0  0
 33 66  1  0  0  0
 33 70  2  0  0  0
 34 36  1  0  0  0
 34 59  1  0  0  0
 34110  1  0  0  0
 35 44  2  0  0  0
 35 45  1  0  0  0
 35 68  1  0  0  0
 36 56  1  0  0  0
 36111  1  0  0  0
 37 39  1  0  0  0
 37 47  1  0  0  0
 37 66  1  0  0  0
 37112  1  0  0  0
 38 43  2  0  0  0
 38 46  1  0  0  0
 38 47  1  0  0  0
 39 64  1  0  0  0
 39 67  2  0  0  0
 40 52  1  0  0  0
 40 53  2  0  0  0
 40 58  1  0  0  0
 41113  1  0  0  0
 41114  1  0  0  0
 41115  1  0  0  0
 41 48  1  0  0  0
 42 43  1  0  0  0
 42 66  1  0  0  0
 42116  1  0  0  0
 42117  1  0  0  0
 43 44  1  0  0  0
 44118  1  0  0  0
 45 46  2  0  0  0
 45119  1  0  0  0
 46120  1  0  0  0
 47121  1  0  0  0
 47122  1  0  0  0
 48 56  1  0  0  0
 48 65  1  0  0  0
 48123  1  0  0  0
 49 50  1  0  0  0
 49 53  1  0  0  0
 49 64  1  0  0  0
 49124  1  0  0  0
 50 51  1  0  0  0
 50125  1  0  0  0
 50126  1  0  0  0
 51 52  1  0  0  0
 51127  1  0  0  0
 51128  1  0  0  0
 52129  1  0  0  0
 52130  1  0  0  0
 53 54  1  0  0  0
 54 55  2  0  0  0
 54131  1  0  0  0
 55 57  1  0  0  0
 55132  1  0  0  0
 56 69  2  0  0  0
 57 58  2  0  0  0
 57133  1  0  0  0
 58134  1  0  0  0
 59 60  1  0  0  0
 59 61  1  0  0  0
 59 62  1  0  0  0
 60135  1  0  0  0
 60136  1  0  0  0
 60137  1  0  0  0
 61138  1  0  0  0
 61139  1  0  0  0
 61140  1  0  0  0
 62141  1  0  0  0
 62142  1  0  0  0
 62143  1  0  0  0
 63 65  1  0  0  0
 63144  1  0  0  0
 63145  1  0  0  0
 63146  1  0  0  0
 64147  1  0  0  0
 65148  1  0  0  0
 68 83  1  0  0  0
 71 73  2  0  0  0
 71 76  1  0  0  0
 71149  1  0  0  0
 72 74  1  0  0  0
 72 75  2  0  0  0
 72150  1  0  0  0
 73 75  1  0  0  0
 73 79  1  0  0  0
 74 76  2  0  0  0
 74 84  1  0  0  0
 75 87  1  0  0  0
 76 89  1  0  0  0
 77 85  1  0  0  0
 77 86  2  0  0  0
 77 88  1  0  0  0
 78 87  1  0  0  0
 78151  1  0  0  0
 78152  1  0  0  0
 78153  1  0  0  0
 79 88  1  0  0  0
 79154  1  0  0  0
 79155  1  0  0  0
 80 81  1  0  0  0
 80 82  1  0  0  0
 80156  1  0  0  0
 80157  1  0  0  0
 81 83  1  0  0  0
 81158  1  0  0  0
 81159  1  0  0  0
 82 85  1  0  0  0
 82160  1  0  0  0
 82161  1  0  0  0
 83162  1  0  0  0
 83163  1  0  0  0
 84164  1  0  0  0
 85165  1  0  0  0
M  ISO  4   1 100  68 101  83 101  84 100
M  END
> <chiral flag>
0

> <version>
0

> <s_m_source_file>
/data/baiqing/PycharmProjects/Reinvent-master-3.2/result/LINK_invent/BTK/process_docking_weight1_custom_product_contain_oxygen_bond_distance_aromatic_linkinvent_7_9_3/rearranged_h_0005.sdf

> <i_m_source_file_index>
61

> <r_mmod_Potential_Energy-OPLS-2005>
-151.066604614258

> <r_mmod_Stretch_Energy-OPLS-2005>
32.3485946655273

> <r_mmod_Bend_Energy-OPLS-2005>
95.1849517822266

> <r_mmod_Torsional_Energy-OPLS-2005>
268.203338623047

> <r_mmod_Improper_Torsional_Energy-OPLS-2005>
7.43136882781982

> <r_mmod_Van_der_Waal_Energy-OPLS-2005>
159.191070556641

> <r_mmod_Electrostatic_Energy-OPLS-2005>
-504.964935302734

> <r_mmod_Solvation_Energy-OPLS-2005>
-224.087829589844

> <b_mmod_Minimization_Converged-OPLS-2005>
0

> <r_mmod_RMS_Derivative-OPLS-2005>
0.826067984104156

$$$$
61
                    3D
 Structure written by MMmdl.
170179  0  0  1  0            999 V2000
  -30.6421  -14.5285   20.4902 C   0  0  0  0  0  0
  -30.4612  -12.2884   19.4886 C   0  0  0  0  0  0
  -29.5472  -12.3622   18.2455 C   0  0  0  0  0  0
  -28.0475  -12.3189   18.6216 C   0  0  0  0  0  0
  -27.6642  -13.1912   19.8512 C   0  0  2  0  0  0
  -28.6929  -13.0189   20.9887 C   0  0  0  0  0  0
  -25.2639  -13.8085   20.5548 C   0  0  0  0  0  0
  -24.1825  -13.0435   20.9070 C   0  0  0  0  0  0
  -24.6331  -11.6883   20.8645 C   0  0  0  0  0  0
  -23.8990  -10.4282   21.0363 C   0  0  0  0  0  0
  -24.3552   -9.4187   21.9121 C   0  0  0  0  0  0
  -23.6277   -8.2198   22.0720 C   0  0  0  0  0  0
  -22.4234   -8.0200   21.3521 C   0  0  0  0  0  0
  -21.9833   -9.0181   20.4647 C   0  0  0  0  0  0
  -22.7151  -10.2065   20.3049 C   0  0  0  0  0  0
  -21.6833   -6.0683   22.5257 C   0  0  0  0  0  0
  -21.4020   -6.5606   23.8180 C   0  0  0  0  0  0
  -21.3677   -5.6769   24.9139 C   0  0  0  0  0  0
  -21.6031   -4.3029   24.7214 C   0  0  0  0  0  0
  -21.8841   -3.8112   23.4336 C   0  0  0  0  0  0
  -21.9197   -4.6927   22.3385 C   0  0  0  0  0  0
  -22.7859  -13.5282   21.1761 C   0  0  0  0  0  0
  -22.1665   -4.2161   21.0951 F   0  0  0  0  0  0
  -21.5664   -3.4516   25.7735 F   0  0  0  0  0  0
  -30.0223  -13.3174   20.4442 N   0  0  0  0  0  0
  -26.3019  -12.9218   20.3129 N   0  0  0  0  0  0
  -25.9250  -11.6434   20.5630 N   0  0  0  0  0  0
  -22.0512  -12.8311   22.0358 N   0  0  0  0  0  0
  -25.4505  -15.1789   20.4016 N   0  0  0  0  0  0
  -31.8042  -14.7022   20.1144 O   0  0  0  0  0  0
  -21.6628   -6.8801   21.4203 O   0  0  0  0  0  0
  -22.3538  -14.5569   20.6618 O   0  0  0  0  0  0
  -24.6121  -31.8703   23.2149 C   0  0  0  0  0  0
  -25.9025  -32.4837   23.8441 C   0  0  1  0  0  0
  -27.2425  -27.4840   20.0640 C   0  0  0  0  0  0
  -25.5885  -33.8641   24.2372 N   0  0  0  0  0  0
  -23.3990  -30.4930   21.5538 C   0  0  2  0  0  0
  -24.8477  -28.9625   20.1155 C   0  0  0  0  0  0
  -22.7393  -29.4674   22.5003 C   0  0  0  0  0  0
  -18.0264  -28.1380   22.8466 C   0  0  0  0  0  0
  -24.1484  -36.7330   23.2637 C   0  0  0  0  0  0
  -25.9237  -30.8482   21.3600 C   0  0  0  0  0  0
  -26.0035  -29.4852   20.7052 C   0  0  0  0  0  0
  -27.2075  -28.7511   20.6831 C   0  0  0  0  0  0
  -26.0697  -26.9541   19.4926 C   0  0  0  0  0  0
  -24.8700  -27.6918   19.5103 C   0  0  0  0  0  0
  -23.6081  -29.8257   20.1665 C   0  0  0  0  0  0
  -25.4090  -36.3124   24.0356 C   0  0  1  0  0  0
  -20.5852  -28.3669   23.1323 C   0  0  2  0  0  0
  -20.6758  -26.9398   22.5431 C   0  0  0  0  0  0
  -19.5753  -26.6399   21.5195 C   0  0  0  0  0  0
  -18.1916  -26.7935   22.1588 C   0  0  0  0  0  0
  -19.1511  -28.8844   23.2894 C   0  0  0  0  0  0
  -18.9443  -30.1438   23.8926 C   0  0  0  0  0  0
  -17.6455  -30.6582   24.0576 C   0  0  0  0  0  0
  -25.9014  -34.9474   23.5158 C   0  0  0  0  0  0
  -16.5344  -29.9087   23.6318 C   0  0  0  0  0  0
  -16.7264  -28.6500   23.0332 C   0  0  0  0  0  0
  -26.4476  -31.6608   25.0741 C   0  0  0  0  0  0
  -25.3779  -31.3724   26.1527 C   0  0  0  0  0  0
  -27.0259  -30.3051   24.6072 C   0  0  0  0  0  0
  -27.6116  -32.4294   25.7419 C   0  0  0  0  0  0
  -27.5582  -37.1799   24.8454 C   0  0  0  0  0  0
  -21.4130  -29.3027   22.3729 N   0  0  0  0  0  0
  -26.4287  -37.3794   23.9423 N   0  0  0  0  0  0
  -24.6630  -31.0850   22.1021 N   0  0  0  0  0  0
  -23.4169  -28.8198   23.3037 O   0  0  0  0  0  0
  -28.3889  -26.7374   20.0214 O   0  0  0  0  0  0
  -26.5571  -34.8917   22.4714 O   0  0  0  0  0  0
  -23.5319  -32.1446   23.7563 O   0  0  0  0  0  0
  -29.9906  -19.4299   18.9654 C   0  0  0  0  0  0
  -29.8276  -18.2824   18.1761 C   0  0  0  0  0  0
  -29.9969  -18.0307   20.9642 C   0  0  0  0  0  0
  -30.0123  -19.3174   20.3728 C   0  0  0  0  0  0
  -29.8926  -16.8593   20.1731 C   0  0  0  0  0  0
  -29.7213  -17.0135   18.7713 C   0  0  0  0  0  0
  -30.3060  -22.7771   20.1774 C   0  0  0  0  0  0
  -33.5389  -22.7577   19.4787 C   0  0  0  0  0  0
  -33.1900  -21.4421   20.1892 C   0  0  0  0  0  0
  -32.3530  -23.4271   18.7693 C   0  0  0  0  0  0
  -32.1778  -21.6124   21.3359 C   0  0  0  0  0  0
  -31.2412  -23.9255   19.7225 C   0  0  1  0  0  0
  -29.9317  -20.5693   21.2476 C   0  0  0  0  0  0
  -30.6254  -26.3613   19.3531 C   0  0  0  0  0  0
  -29.3550  -27.1792   19.0722 C   0  0  0  0  0  0
  -30.7937  -21.7052   20.8529 N   0  0  0  0  0  0
  -29.8434  -15.5752   20.8080 N   0  0  0  0  0  0
  -30.4084  -24.9303   19.0228 N   0  3  0  0  0  0
  -29.1058  -22.8756   19.8877 O   0  0  0  0  0  0
  -29.2584  -15.7230   17.7350 Cl  0  0  0  0  0  0
  -31.5046  -12.4269   19.1960 H   0  0  0  0  0  0
  -30.4150  -11.3062   19.9614 H   0  0  0  0  0  0
  -29.7850  -11.5233   17.5882 H   0  0  0  0  0  0
  -29.7890  -13.2407   17.6567 H   0  0  0  0  0  0
  -27.8047  -11.2775   18.8306 H   0  0  0  0  0  0
  -27.4435  -12.6000   17.7587 H   0  0  0  0  0  0
  -27.6996  -14.2279   19.5197 H   0  0  0  0  0  0
  -28.6745  -11.9963   21.3688 H   0  0  0  0  0  0
  -28.4451  -13.6512   21.8430 H   0  0  0  0  0  0
  -25.2721   -9.5730   22.4623 H   0  0  0  0  0  0
  -24.0039   -7.4604   22.7437 H   0  0  0  0  0  0
  -21.0744   -8.8688   19.8944 H   0  0  0  0  0  0
  -22.3601  -10.9570   19.6142 H   0  0  0  0  0  0
  -21.2003   -7.6131   23.9678 H   0  0  0  0  0  0
  -21.1488   -6.0489   25.9046 H   0  0  0  0  0  0
  -22.0621   -2.7573   23.2799 H   0  0  0  0  0  0
  -22.4171  -12.0078   22.4930 H   0  0  0  0  0  0
  -21.1116  -13.1326   22.2469 H   0  0  0  0  0  0
  -24.6947  -15.8445   20.5178 H   0  0  0  0  0  0
  -26.2987  -15.5936   20.0374 H   0  0  0  0  0  0
  -26.7093  -32.5558   23.1207 H   0  0  0  0  0  0
  -25.0043  -33.9809   25.0521 H   0  0  0  0  0  0
  -22.6859  -31.3078   21.4127 H   0  0  0  0  0  0
  -23.3732  -35.9674   23.3304 H   0  0  0  0  0  0
  -24.3610  -36.8952   22.2060 H   0  0  0  0  0  0
  -23.7253  -37.6545   23.6640 H   0  0  0  0  0  0
  -26.0284  -31.6163   20.5926 H   0  0  0  0  0  0
  -26.8163  -30.9105   21.9713 H   0  0  0  0  0  0
  -28.1034  -29.1536   21.1332 H   0  0  0  0  0  0
  -26.0954  -25.9818   19.0249 H   0  0  0  0  0  0
  -23.9802  -27.2787   19.0578 H   0  0  0  0  0  0
  -23.7146  -30.6009   19.4073 H   0  0  0  0  0  0
  -22.7374  -29.2406   19.8728 H   0  0  0  0  0  0
  -25.1253  -36.1997   25.0852 H   0  0  0  0  0  0
  -20.9943  -28.3241   24.1443 H   0  0  0  0  0  0
  -20.5626  -26.2277   23.3612 H   0  0  0  0  0  0
  -21.6642  -26.7429   22.1254 H   0  0  0  0  0  0
  -19.6916  -25.6298   21.1234 H   0  0  0  0  0  0
  -19.6721  -27.3215   20.6723 H   0  0  0  0  0  0
  -17.4198  -26.6702   21.3965 H   0  0  0  0  0  0
  -18.0298  -26.0065   22.8968 H   0  0  0  0  0  0
  -19.7918  -30.7234   24.2324 H   0  0  0  0  0  0
  -17.5010  -31.6271   24.5164 H   0  0  0  0  0  0
  -15.5340  -30.3007   23.7641 H   0  0  0  0  0  0
  -15.8651  -28.0846   22.7040 H   0  0  0  0  0  0
  -24.5941  -30.7053   25.7910 H   0  0  0  0  0  0
  -24.8970  -32.2876   26.5004 H   0  0  0  0  0  0
  -25.8180  -30.8902   27.0268 H   0  0  0  0  0  0
  -26.2746  -29.6796   24.1244 H   0  0  0  0  0  0
  -27.4168  -29.7316   25.4487 H   0  0  0  0  0  0
  -27.8540  -30.4372   23.9109 H   0  0  0  0  0  0
  -27.2821  -33.3608   26.2046 H   0  0  0  0  0  0
  -28.3863  -32.6839   25.0158 H   0  0  0  0  0  0
  -28.0858  -31.8386   26.5274 H   0  0  0  0  0  0
  -28.2599  -38.0085   24.7501 H   0  0  0  0  0  0
  -28.1075  -36.2644   24.6233 H   0  0  0  0  0  0
  -27.2337  -37.1435   25.8863 H   0  0  0  0  0  0
  -20.9271  -29.8765   21.6973 H   0  0  0  0  0  0
  -26.0182  -38.2870   24.1443 H   0  0  0  0  0  0
  -30.0091  -20.3889   18.4745 H   0  0  0  0  0  0
  -29.7219  -18.3815   17.1051 H   0  0  0  0  0  0
  -30.0448  -17.9512   22.0425 H   0  0  0  0  0  0
  -34.3117  -22.5626   18.7308 H   0  0  0  0  0  0
  -33.9918  -23.4567   20.1847 H   0  0  0  0  0  0
  -34.1112  -21.0298   20.6014 H   0  0  0  0  0  0
  -32.8319  -20.7031   19.4672 H   0  0  0  0  0  0
  -31.9362  -22.7486   18.0226 H   0  0  0  0  0  0
  -32.7493  -24.2734   18.2078 H   0  0  0  0  0  0
  -32.4204  -22.4847   21.9427 H   0  0  0  0  0  0
  -32.2846  -20.7747   22.0286 H   0  0  0  0  0  0
  -31.6862  -24.3776   20.6074 H   0  0  0  0  0  0
  -30.1228  -20.3017   22.2847 H   0  0  0  0  0  0
  -28.8809  -20.8609   21.2424 H   0  0  0  0  0  0
  -30.8772  -26.4884   20.4065 H   0  0  0  0  0  0
  -31.4648  -26.7565   18.7753 H   0  0  0  0  0  0
  -28.9977  -27.0171   18.0544 H   0  0  0  0  0  0
  -29.5561  -28.2476   19.1851 H   0  0  0  0  0  0
  -28.9691  -15.3440   21.2490 H   0  0  0  0  0  0
  -29.4719  -24.6571   19.3005 H   0  0  0  0  0  0
  -30.4633  -24.7761   18.0300 H   0  0  0  0  0  0
  1 25  1  0  0  0
  1 30  2  0  0  0
  1 87  1  0  0  0
  2  3  1  0  0  0
  2 25  1  0  0  0
  2 91  1  0  0  0
  2 92  1  0  0  0
  3  4  1  0  0  0
  3 93  1  0  0  0
  3 94  1  0  0  0
  4  5  1  0  0  0
  4 95  1  0  0  0
  4 96  1  0  0  0
  5  6  1  0  0  0
  5 26  1  0  0  0
  5 97  1  0  0  0
  6 25  1  0  0  0
  6 98  1  0  0  0
  6 99  1  0  0  0
  7  8  2  0  0  0
  7 26  1  0  0  0
  7 29  1  0  0  0
  8  9  1  0  0  0
  8 22  1  0  0  0
  9 10  1  0  0  0
  9 27  2  0  0  0
 10 11  2  0  0  0
 10 15  1  0  0  0
 11 12  1  0  0  0
 11100  1  0  0  0
 12 13  2  0  0  0
 12101  1  0  0  0
 13 14  1  0  0  0
 13 31  1  0  0  0
 14 15  2  0  0  0
 14102  1  0  0  0
 15103  1  0  0  0
 16 17  2  0  0  0
 16 21  1  0  0  0
 16 31  1  0  0  0
 17 18  1  0  0  0
 17104  1  0  0  0
 18 19  2  0  0  0
 18105  1  0  0  0
 19 20  1  0  0  0
 19 24  1  0  0  0
 20 21  2  0  0  0
 20106  1  0  0  0
 21 23  1  0  0  0
 22 28  1  0  0  0
 22 32  2  0  0  0
 26 27  1  0  0  0
 28107  1  0  0  0
 28108  1  0  0  0
 29109  1  0  0  0
 29110  1  0  0  0
 33 34  1  0  0  0
 33 66  1  0  0  0
 33 70  2  0  0  0
 34 36  1  0  0  0
 34 59  1  0  0  0
 34111  1  0  0  0
 35 44  2  0  0  0
 35 45  1  0  0  0
 35 68  1  0  0  0
 36 56  1  0  0  0
 36112  1  0  0  0
 37 39  1  0  0  0
 37 47  1  0  0  0
 37 66  1  0  0  0
 37113  1  0  0  0
 38 43  2  0  0  0
 38 46  1  0  0  0
 38 47  1  0  0  0
 39 64  1  0  0  0
 39 67  2  0  0  0
 40 52  1  0  0  0
 40 53  2  0  0  0
 40 58  1  0  0  0
 41114  1  0  0  0
 41115  1  0  0  0
 41116  1  0  0  0
 41 48  1  0  0  0
 42 43  1  0  0  0
 42 66  1  0  0  0
 42117  1  0  0  0
 42118  1  0  0  0
 43 44  1  0  0  0
 44119  1  0  0  0
 45 46  2  0  0  0
 45120  1  0  0  0
 46121  1  0  0  0
 47122  1  0  0  0
 47123  1  0  0  0
 48 56  1  0  0  0
 48 65  1  0  0  0
 48124  1  0  0  0
 49 50  1  0  0  0
 49 53  1  0  0  0
 49 64  1  0  0  0
 49125  1  0  0  0
 50 51  1  0  0  0
 50126  1  0  0  0
 50127  1  0  0  0
 51 52  1  0  0  0
 51128  1  0  0  0
 51129  1  0  0  0
 52130  1  0  0  0
 52131  1  0  0  0
 53 54  1  0  0  0
 54 55  2  0  0  0
 54132  1  0  0  0
 55 57  1  0  0  0
 55133  1  0  0  0
 56 69  2  0  0  0
 57 58  2  0  0  0
 57134  1  0  0  0
 58135  1  0  0  0
 59 60  1  0  0  0
 59 61  1  0  0  0
 59 62  1  0  0  0
 60136  1  0  0  0
 60137  1  0  0  0
 60138  1  0  0  0
 61139  1  0  0  0
 61140  1  0  0  0
 61141  1  0  0  0
 62142  1  0  0  0
 62143  1  0  0  0
 62144  1  0  0  0
 63 65  1  0  0  0
 63145  1  0  0  0
 63146  1  0  0  0
 63147  1  0  0  0
 64148  1  0  0  0
 65149  1  0  0  0
 68 85  1  0  0  0
 71 72  2  0  0  0
 71 74  1  0  0  0
 71150  1  0  0  0
 72 76  1  0  0  0
 72151  1  0  0  0
 73 74  2  0  0  0
 73 75  1  0  0  0
 73152  1  0  0  0
 74 83  1  0  0  0
 75 76  2  0  0  0
 75 87  1  0  0  0
 76 90  1  0  0  0
 77 82  1  0  0  0
 77 86  1  0  0  0
 77 89  2  0  0  0
 78 79  1  0  0  0
 78 80  1  0  0  0
 78153  1  0  0  0
 78154  1  0  0  0
 79 81  1  0  0  0
 79155  1  0  0  0
 79156  1  0  0  0
 80 82  1  0  0  0
 80157  1  0  0  0
 80158  1  0  0  0
 81 86  1  0  0  0
 81159  1  0  0  0
 81160  1  0  0  0
 82 88  1  0  0  0
 82161  1  0  0  0
 83 86  1  0  0  0
 83162  1  0  0  0
 83163  1  0  0  0
 84 85  1  0  0  0
 84 88  1  0  0  0
 84164  1  0  0  0
 84165  1  0  0  0
 85166  1  0  0  0
 85167  1  0  0  0
 87168  1  0  0  0
 88169  1  0  0  0
 88170  1  0  0  0
M  CHG  1  88   1
M  ISO  4   1 100  68 101  85 101  87 100
M  END
> <chiral flag>
0

> <version>
0

> <s_m_source_file>
/data/baiqing/PycharmProjects/Reinvent-master-3.2/result/LINK_invent/BTK/process_docking_weight1_custom_product_contain_oxygen_bond_distance_aromatic_linkinvent_7_9_3/rearranged_h_0005.sdf

> <i_m_source_file_index>
62

> <r_mmod_Potential_Energy-OPLS-2005>
-157.57861328125

> <r_mmod_Stretch_Energy-OPLS-2005>
39.3090553283691

> <r_mmod_Bend_Energy-OPLS-2005>
103.774909973145

> <r_mmod_Torsional_Energy-OPLS-2005>
323.962341308594

> <r_mmod_Improper_Torsional_Energy-OPLS-2005>
6.37137269973755

> <r_mmod_Van_der_Waal_Energy-OPLS-2005>
158.63151550293

> <r_mmod_Electrostatic_Energy-OPLS-2005>
-368.997192382812

> <r_mmod_Solvation_Energy-OPLS-2005>
-442.898193359375

> <b_mmod_Minimization_Converged-OPLS-2005>
0

> <r_mmod_RMS_Derivative-OPLS-2005>
7.14250707626343

$$$$
62
                    3D
 Structure written by MMmdl.
176186  0  0  1  0            999 V2000
  -30.8727  -14.2229   20.7412 C   0  0  0  0  0  0
  -30.3910  -12.2537   19.3672 C   0  0  0  0  0  0
  -29.4661  -12.5469   18.1770 C   0  0  0  0  0  0
  -27.9965  -12.4053   18.6040 C   0  0  0  0  0  0
  -27.6713  -13.2112   19.8879 C   0  0  2  0  0  0
  -28.7134  -12.9595   21.0040 C   0  0  0  0  0  0
  -25.2607  -13.8164   20.5713 C   0  0  0  0  0  0
  -24.1864  -13.0453   20.9172 C   0  0  0  0  0  0
  -24.6430  -11.6909   20.8742 C   0  0  0  0  0  0
  -23.9091  -10.4310   21.0389 C   0  0  0  0  0  0
  -24.3631   -9.4220   21.9178 C   0  0  0  0  0  0
  -23.6303   -8.2259   22.0762 C   0  0  0  0  0  0
  -22.4279   -8.0302   21.3551 C   0  0  0  0  0  0
  -21.9931   -9.0271   20.4640 C   0  0  0  0  0  0
  -22.7262  -10.2144   20.3049 C   0  0  0  0  0  0
  -21.6856   -6.0754   22.5276 C   0  0  0  0  0  0
  -21.4011   -6.5651   23.8210 C   0  0  0  0  0  0
  -21.3668   -5.6799   24.9168 C   0  0  0  0  0  0
  -21.6050   -4.3062   24.7209 C   0  0  0  0  0  0
  -21.8823   -3.8161   23.4329 C   0  0  0  0  0  0
  -21.9186   -4.6983   22.3390 C   0  0  0  0  0  0
  -22.7884  -13.5225   21.1845 C   0  0  0  0  0  0
  -22.1661   -4.2176   21.0964 F   0  0  0  0  0  0
  -21.5628   -3.4545   25.7721 F   0  0  0  0  0  0
  -30.0671  -13.1718   20.4626 N   0  0  0  0  0  0
  -26.3092  -12.9382   20.3464 N   0  0  0  0  0  0
  -25.9364  -11.6523   20.5790 N   0  0  0  0  0  0
  -22.0518  -12.8218   22.0380 N   0  0  0  0  0  0
  -25.4296  -15.1906   20.4096 N   0  0  0  0  0  0
  -31.7313  -14.6362   19.9594 O   0  0  0  0  0  0
  -21.6640   -6.8891   21.4238 O   0  0  0  0  0  0
  -22.3560  -14.5547   20.6707 O   0  0  0  0  0  0
  -24.6065  -31.8672   23.2120 C   0  0  0  0  0  0
  -25.8993  -32.4802   23.8378 C   0  0  1  0  0  0
  -27.2321  -27.5228   20.0847 C   0  0  0  0  0  0
  -25.5859  -33.8601   24.2312 N   0  0  0  0  0  0
  -23.3877  -30.4898   21.5524 C   0  0  2  0  0  0
  -24.8377  -28.9768   20.0997 C   0  0  0  0  0  0
  -22.7356  -29.4604   22.5006 C   0  0  0  0  0  0
  -18.0251  -28.1346   22.8493 C   0  0  0  0  0  0
  -24.1456  -36.7390   23.2615 C   0  0  0  0  0  0
  -25.8974  -30.8831   21.3308 C   0  0  0  0  0  0
  -25.9883  -29.5203   20.6867 C   0  0  0  0  0  0
  -27.1957  -28.7993   20.6759 C   0  0  0  0  0  0
  -26.0770  -26.9770   19.4904 C   0  0  0  0  0  0
  -24.8768  -27.7108   19.4876 C   0  0  0  0  0  0
  -23.5832  -29.8168   20.1629 C   0  0  0  0  0  0
  -25.4065  -36.3107   24.0324 C   0  0  1  0  0  0
  -20.5833  -28.3605   23.1352 C   0  0  2  0  0  0
  -20.6764  -26.9377   22.5414 C   0  0  0  0  0  0
  -19.5749  -26.6378   21.5204 C   0  0  0  0  0  0
  -18.1896  -26.7903   22.1581 C   0  0  0  0  0  0
  -19.1490  -28.8800   23.2918 C   0  0  0  0  0  0
  -18.9424  -30.1422   23.8908 C   0  0  0  0  0  0
  -17.6429  -30.6572   24.0528 C   0  0  0  0  0  0
  -25.8972  -34.9462   23.5097 C   0  0  0  0  0  0
  -16.5310  -29.9079   23.6333 C   0  0  0  0  0  0
  -16.7234  -28.6475   23.0385 C   0  0  0  0  0  0
  -26.4476  -31.6583   25.0666 C   0  0  0  0  0  0
  -25.3798  -31.3653   26.1439 C   0  0  0  0  0  0
  -27.0339  -30.3025   24.6035 C   0  0  0  0  0  0
  -27.5993  -32.4341   25.7508 C   0  0  0  0  0  0
  -27.5546  -37.1815   24.8428 C   0  0  0  0  0  0
  -21.4078  -29.2981   22.3754 N   0  0  0  0  0  0
  -26.4223  -37.3830   23.9418 N   0  0  0  0  0  0
  -24.6504  -31.0900   22.0943 N   0  0  0  0  0  0
  -23.4179  -28.8145   23.2993 O   0  0  0  0  0  0
  -28.3675  -26.7799   20.2171 O   0  0  0  0  0  0
  -26.5564  -34.8906   22.4681 O   0  0  0  0  0  0
  -23.5295  -32.1301   23.7651 O   0  0  0  0  0  0
  -32.5168  -17.3214   20.9913 C   0  0  0  0  0  0
  -32.3004  -18.5722   20.3822 C   0  0  0  0  0  0
  -30.7812  -17.7993   22.6250 C   0  0  0  0  0  0
  -30.5998  -19.0755   22.0583 C   0  0  0  0  0  0
  -31.7236  -16.9120   22.0827 C   0  0  0  0  0  0
  -31.3310  -19.4527   20.9020 C   0  0  0  0  0  0
  -26.1556  -24.0168   22.8179 C   0  0  0  0  0  0
  -28.1793  -19.4946   22.5880 C   0  0  0  0  0  0
  -29.9225  -21.4367   20.6214 C   0  0  0  0  0  0
  -27.2102  -20.4045   23.3414 C   0  0  0  0  0  0
  -28.5832  -22.3524   22.6656 C   0  0  0  0  0  0
  -29.6160  -20.0171   22.7228 C   0  0  2  0  0  0
  -29.7124  -21.4360   22.1515 C   0  0  1  0  0  0
  -31.8250  -15.5019   22.6322 C   0  0  0  0  0  0
  -26.2431  -22.6412   23.4760 C   0  0  0  0  0  0
  -27.4829  -26.1040   22.5180 C   0  0  0  0  0  0
  -28.1998  -25.7328   21.1747 C   0  0  0  0  0  0
  -31.1223  -20.6859   20.2681 N   0  0  0  0  0  0
  -27.0624  -24.9121   23.2446 N   0  0  0  0  0  0
  -30.8446  -14.6061   22.0200 N   0  0  0  0  0  0
  -27.2071  -21.7614   22.7536 N   0  3  2  0  0  0
  -25.3892  -24.2061   21.8743 O   0  0  0  0  0  0
  -31.4377  -12.3237   19.0643 H   0  0  0  0  0  0
  -30.2511  -11.2258   19.7063 H   0  0  0  0  0  0
  -29.6834  -11.8652   17.3536 H   0  0  0  0  0  0
  -29.6495  -13.5554   17.7974 H   0  0  0  0  0  0
  -27.7947  -11.3462   18.7646 H   0  0  0  0  0  0
  -27.3401  -12.7224   17.7926 H   0  0  0  0  0  0
  -27.7282  -14.2680   19.6242 H   0  0  0  0  0  0
  -28.6397  -11.9373   21.3759 H   0  0  0  0  0  0
  -28.4920  -13.6067   21.8525 H   0  0  0  0  0  0
  -25.2769   -9.5696   22.4765 H   0  0  0  0  0  0
  -24.0004   -7.4650   22.7499 H   0  0  0  0  0  0
  -21.0860   -8.8785   19.8938 H   0  0  0  0  0  0
  -22.3720  -10.9685   19.6169 H   0  0  0  0  0  0
  -21.2015   -7.6159   23.9720 H   0  0  0  0  0  0
  -21.1486   -6.0528   25.9069 H   0  0  0  0  0  0
  -22.0597   -2.7633   23.2814 H   0  0  0  0  0  0
  -22.4090  -11.9822   22.4717 H   0  0  0  0  0  0
  -21.1142  -13.1269   22.2606 H   0  0  0  0  0  0
  -24.6588  -15.8421   20.5067 H   0  0  0  0  0  0
  -26.2850  -15.6332   20.1011 H   0  0  0  0  0  0
  -26.7073  -32.5537   23.1179 H   0  0  0  0  0  0
  -24.9955  -33.9816   25.0431 H   0  0  0  0  0  0
  -22.6698  -31.3021   21.4184 H   0  0  0  0  0  0
  -23.3648  -35.9774   23.3199 H   0  0  0  0  0  0
  -24.3516  -36.9131   22.2040 H   0  0  0  0  0  0
  -23.7296  -37.6610   23.6722 H   0  0  0  0  0  0
  -25.9638  -31.6493   20.5567 H   0  0  0  0  0  0
  -26.7985  -30.9631   21.9237 H   0  0  0  0  0  0
  -28.0825  -29.1946   21.1577 H   0  0  0  0  0  0
  -26.1007  -25.9828   19.0669 H   0  0  0  0  0  0
  -23.9938  -27.2866   19.0294 H   0  0  0  0  0  0
  -23.6614  -30.5834   19.3911 H   0  0  0  0  0  0
  -22.7108  -29.2182   19.8938 H   0  0  0  0  0  0
  -25.1270  -36.1872   25.0821 H   0  0  0  0  0  0
  -20.9927  -28.3154   24.1467 H   0  0  0  0  0  0
  -20.5720  -26.2222   23.3596 H   0  0  0  0  0  0
  -21.6627  -26.7515   22.1141 H   0  0  0  0  0  0
  -19.6948  -25.6310   21.1224 H   0  0  0  0  0  0
  -19.6671  -27.3199   20.6739 H   0  0  0  0  0  0
  -17.4217  -26.6659   21.3924 H   0  0  0  0  0  0
  -18.0223  -26.0039   22.8956 H   0  0  0  0  0  0
  -19.7884  -30.7227   24.2253 H   0  0  0  0  0  0
  -17.4987  -31.6240   24.5112 H   0  0  0  0  0  0
  -15.5311  -30.2981   23.7666 H   0  0  0  0  0  0
  -15.8607  -28.0771   22.7185 H   0  0  0  0  0  0
  -24.6047  -30.6906   25.7805 H   0  0  0  0  0  0
  -24.8920  -32.2802   26.4811 H   0  0  0  0  0  0
  -25.8270  -30.8935   27.0213 H   0  0  0  0  0  0
  -26.2890  -29.6615   24.1274 H   0  0  0  0  0  0
  -27.4301  -29.7410   25.4514 H   0  0  0  0  0  0
  -27.8621  -30.4311   23.9039 H   0  0  0  0  0  0
  -27.2579  -33.3651   26.2061 H   0  0  0  0  0  0
  -28.3902  -32.6886   25.0442 H   0  0  0  0  0  0
  -28.0551  -31.8460   26.5492 H   0  0  0  0  0  0
  -28.2473  -38.0195   24.7588 H   0  0  0  0  0  0
  -28.1178  -36.2756   24.6130 H   0  0  0  0  0  0
  -27.2299  -37.1280   25.8833 H   0  0  0  0  0  0
  -20.9232  -29.8769   21.7024 H   0  0  0  0  0  0
  -26.0047  -38.2868   24.1537 H   0  0  0  0  0  0
  -33.2613  -16.6493   20.5863 H   0  0  0  0  0  0
  -32.8811  -18.8391   19.5079 H   0  0  0  0  0  0
  -30.1876  -17.5005   23.4778 H   0  0  0  0  0  0
  -27.9026  -19.4378   21.5353 H   0  0  0  0  0  0
  -28.0909  -18.4817   22.9810 H   0  0  0  0  0  0
  -30.0441  -22.4604   20.2588 H   0  0  0  0  0  0
  -29.0660  -21.0128   20.0915 H   0  0  0  0  0  0
  -27.4996  -20.4632   24.3934 H   0  0  0  0  0  0
  -26.2057  -19.9798   23.3110 H   0  0  0  0  0  0
  -28.5757  -23.2091   22.0007 H   0  0  0  0  0  0
  -28.8634  -22.7155   23.6572 H   0  0  0  0  0  0
  -29.8860  -20.0706   23.7800 H   0  0  0  0  0  0
  -30.6295  -21.8770   22.5490 H   0  0  0  0  0  0
  -31.6700  -15.5304   23.7123 H   0  0  0  0  0  0
  -32.8344  -15.1162   22.4704 H   0  0  0  0  0  0
  -25.2496  -22.1864   23.4946 H   0  0  0  0  0  0
  -26.5477  -22.7436   24.5196 H   0  0  0  0  0  0
  -26.5867  -26.7059   22.3863 H   0  0  0  0  0  0
  -28.1524  -26.6961   23.1460 H   0  0  0  0  0  0
  -27.6713  -24.9259   20.6660 H   0  0  0  0  0  0
  -29.1940  -25.3505   21.4040 H   0  0  0  0  0  0
  -31.5299  -20.8334   19.3448 H   0  0  0  0  0  0
  -27.5958  -24.6987   24.0777 H   0  0  0  0  0  0
  -30.1944  -14.1309   22.6285 H   0  0  0  0  0  0
  -26.8496  -21.6700   21.8132 H   0  0  0  0  0  0
  1 25  1  0  0  0
  1 30  2  0  0  0
  1 90  1  0  0  0
  2  3  1  0  0  0
  2 25  1  0  0  0
  2 93  1  0  0  0
  2 94  1  0  0  0
  3  4  1  0  0  0
  3 95  1  0  0  0
  3 96  1  0  0  0
  4  5  1  0  0  0
  4 97  1  0  0  0
  4 98  1  0  0  0
  5  6  1  0  0  0
  5 26  1  0  0  0
  5 99  1  0  0  0
  6 25  1  0  0  0
  6100  1  0  0  0
  6101  1  0  0  0
  7  8  2  0  0  0
  7 26  1  0  0  0
  7 29  1  0  0  0
  8  9  1  0  0  0
  8 22  1  0  0  0
  9 10  1  0  0  0
  9 27  2  0  0  0
 10 11  2  0  0  0
 10 15  1  0  0  0
 11 12  1  0  0  0
 11102  1  0  0  0
 12 13  2  0  0  0
 12103  1  0  0  0
 13 14  1  0  0  0
 13 31  1  0  0  0
 14 15  2  0  0  0
 14104  1  0  0  0
 15105  1  0  0  0
 16 17  2  0  0  0
 16 21  1  0  0  0
 16 31  1  0  0  0
 17 18  1  0  0  0
 17106  1  0  0  0
 18 19  2  0  0  0
 18107  1  0  0  0
 19 20  1  0  0  0
 19 24  1  0  0  0
 20 21  2  0  0  0
 20108  1  0  0  0
 21 23  1  0  0  0
 22 28  1  0  0  0
 22 32  2  0  0  0
 26 27  1  0  0  0
 28109  1  0  0  0
 28110  1  0  0  0
 29111  1  0  0  0
 29112  1  0  0  0
 33 34  1  0  0  0
 33 66  1  0  0  0
 33 70  2  0  0  0
 34 36  1  0  0  0
 34 59  1  0  0  0
 34113  1  0  0  0
 35 44  2  0  0  0
 35 45  1  0  0  0
 35 68  1  0  0  0
 36 56  1  0  0  0
 36114  1  0  0  0
 37 39  1  0  0  0
 37 47  1  0  0  0
 37 66  1  0  0  0
 37115  1  0  0  0
 38 43  2  0  0  0
 38 46  1  0  0  0
 38 47  1  0  0  0
 39 64  1  0  0  0
 39 67  2  0  0  0
 40 52  1  0  0  0
 40 53  2  0  0  0
 40 58  1  0  0  0
 41116  1  0  0  0
 41117  1  0  0  0
 41118  1  0  0  0
 41 48  1  0  0  0
 42 43  1  0  0  0
 42 66  1  0  0  0
 42119  1  0  0  0
 42120  1  0  0  0
 43 44  1  0  0  0
 44121  1  0  0  0
 45 46  2  0  0  0
 45122  1  0  0  0
 46123  1  0  0  0
 47124  1  0  0  0
 47125  1  0  0  0
 48 56  1  0  0  0
 48 65  1  0  0  0
 48126  1  0  0  0
 49 50  1  0  0  0
 49 53  1  0  0  0
 49 64  1  0  0  0
 49127  1  0  0  0
 50 51  1  0  0  0
 50128  1  0  0  0
 50129  1  0  0  0
 51 52  1  0  0  0
 51130  1  0  0  0
 51131  1  0  0  0
 52132  1  0  0  0
 52133  1  0  0  0
 53 54  1  0  0  0
 54 55  2  0  0  0
 54134  1  0  0  0
 55 57  1  0  0  0
 55135  1  0  0  0
 56 69  2  0  0  0
 57 58  2  0  0  0
 57136  1  0  0  0
 58137  1  0  0  0
 59 60  1  0  0  0
 59 61  1  0  0  0
 59 62  1  0  0  0
 60138  1  0  0  0
 60139  1  0  0  0
 60140  1  0  0  0
 61141  1  0  0  0
 61142  1  0  0  0
 61143  1  0  0  0
 62144  1  0  0  0
 62145  1  0  0  0
 62146  1  0  0  0
 63 65  1  0  0  0
 63147  1  0  0  0
 63148  1  0  0  0
 63149  1  0  0  0
 64150  1  0  0  0
 65151  1  0  0  0
 68 87  1  0  0  0
 71 72  2  0  0  0
 71 75  1  0  0  0
 71152  1  0  0  0
 72 76  1  0  0  0
 72153  1  0  0  0
 73 74  1  0  0  0
 73 75  2  0  0  0
 73154  1  0  0  0
 74 76  2  0  0  0
 74 82  1  0  0  0
 75 84  1  0  0  0
 76 88  1  0  0  0
 77 85  1  0  0  0
 77 89  1  0  0  0
 77 92  2  0  0  0
 78 80  1  0  0  0
 78155  1  0  0  0
 78156  1  0  0  0
 78 82  1  0  0  0
 79 88  1  0  0  0
 79157  1  0  0  0
 79158  1  0  0  0
 79 83  1  0  0  0
 80 91  1  0  0  0
 80159  1  0  0  0
 80160  1  0  0  0
 81 83  1  0  0  0
 81 91  1  0  0  0
 81161  1  0  0  0
 81162  1  0  0  0
 82 83  1  0  0  0
 82163  1  0  0  0
 83164  1  0  0  0
 84 90  1  0  0  0
 84165  1  0  0  0
 84166  1  0  0  0
 85167  1  0  0  0
 85168  1  0  0  0
 85 91  1  0  0  0
 86 87  1  0  0  0
 86 89  1  0  0  0
 86169  1  0  0  0
 86170  1  0  0  0
 87171  1  0  0  0
 87172  1  0  0  0
 88173  1  0  0  0
 89174  1  0  0  0
 90175  1  0  0  0
 91176  1  0  0  0
M  CHG  1  91   1
M  ISO  4   1 100  68 101  87 101  90 100
M  END
> <chiral flag>
0

> <version>
0

> <s_m_source_file>
/data/baiqing/PycharmProjects/Reinvent-master-3.2/result/LINK_invent/BTK/process_docking_weight1_custom_product_contain_oxygen_bond_distance_aromatic_linkinvent_7_9_3/rearranged_h_0005.sdf

> <i_m_source_file_index>
63

> <r_mmod_Potential_Energy-OPLS-2005>
-322.302093505859

> <r_mmod_Stretch_Energy-OPLS-2005>
34.5442008972168

> <r_mmod_Bend_Energy-OPLS-2005>
104.533126831055

> <r_mmod_Torsional_Energy-OPLS-2005>
287.711395263672

> <r_mmod_Improper_Torsional_Energy-OPLS-2005>
9.72791290283203

> <r_mmod_Van_der_Waal_Energy-OPLS-2005>
177.550216674805

> <r_mmod_Electrostatic_Energy-OPLS-2005>
-453.212524414062

> <r_mmod_Solvation_Energy-OPLS-2005>
-498.919769287109

> <b_mmod_Minimization_Converged-OPLS-2005>
0

> <r_mmod_RMS_Derivative-OPLS-2005>
7.25679445266724

$$$$
63
                    3D
 Structure written by MMmdl.
168176  0  0  1  0            999 V2000
  -30.7002  -14.4303   20.5647 C   0  0  0  0  0  0
  -30.4238  -12.2773   19.4137 C   0  0  0  0  0  0
  -29.4936  -12.4916   18.2010 C   0  0  0  0  0  0
  -28.0114  -12.3737   18.6098 C   0  0  0  0  0  0
  -27.6655  -13.1965   19.8802 C   0  0  2  0  0  0
  -28.7066  -12.9478   20.9957 C   0  0  0  0  0  0
  -25.2619  -13.8139   20.5667 C   0  0  0  0  0  0
  -24.1848  -13.0443   20.9153 C   0  0  0  0  0  0
  -24.6374  -11.6901   20.8713 C   0  0  0  0  0  0
  -23.9036  -10.4293   21.0390 C   0  0  0  0  0  0
  -24.3594   -9.4218   21.9171 C   0  0  0  0  0  0
  -23.6274   -8.2252   22.0748 C   0  0  0  0  0  0
  -22.4260   -8.0284   21.3539 C   0  0  0  0  0  0
  -21.9882   -9.0254   20.4641 C   0  0  0  0  0  0
  -22.7208  -10.2135   20.3046 C   0  0  0  0  0  0
  -21.6855   -6.0725   22.5269 C   0  0  0  0  0  0
  -21.4024   -6.5630   23.8201 C   0  0  0  0  0  0
  -21.3664   -5.6788   24.9165 C   0  0  0  0  0  0
  -21.6051   -4.3048   24.7217 C   0  0  0  0  0  0
  -21.8820   -3.8138   23.4338 C   0  0  0  0  0  0
  -21.9189   -4.6950   22.3392 C   0  0  0  0  0  0
  -22.7874  -13.5261   21.1825 C   0  0  0  0  0  0
  -22.1660   -4.2140   21.0965 F   0  0  0  0  0  0
  -21.5624   -3.4527   25.7730 F   0  0  0  0  0  0
  -30.0445  -13.2465   20.4515 N   0  0  0  0  0  0
  -26.3040  -12.9281   20.3376 N   0  0  0  0  0  0
  -25.9302  -11.6453   20.5758 N   0  0  0  0  0  0
  -22.0506  -12.8261   22.0383 N   0  0  0  0  0  0
  -25.4406  -15.1845   20.4072 N   0  0  0  0  0  0
  -31.8133  -14.6456   20.0754 O   0  0  0  0  0  0
  -21.6642   -6.8867   21.4229 O   0  0  0  0  0  0
  -22.3573  -14.5575   20.6686 O   0  0  0  0  0  0
  -24.6124  -31.8695   23.2114 C   0  0  0  0  0  0
  -25.9028  -32.4829   23.8402 C   0  0  1  0  0  0
  -27.2390  -27.4585   20.0940 C   0  0  0  0  0  0
  -25.5896  -33.8626   24.2337 N   0  0  0  0  0  0
  -23.3995  -30.4927   21.5510 C   0  0  2  0  0  0
  -24.8471  -28.9597   20.1173 C   0  0  0  0  0  0
  -22.7396  -29.4665   22.4995 C   0  0  0  0  0  0
  -18.0269  -28.1385   22.8488 C   0  0  0  0  0  0
  -24.1482  -36.7316   23.2635 C   0  0  0  0  0  0
  -25.9255  -30.8434   21.3601 C   0  0  0  0  0  0
  -26.0054  -29.4784   20.7097 C   0  0  0  0  0  0
  -27.2065  -28.7364   20.6919 C   0  0  0  0  0  0
  -26.0649  -26.9472   19.4987 C   0  0  0  0  0  0
  -24.8703  -27.6919   19.5100 C   0  0  0  0  0  0
  -23.6078  -29.8242   20.1657 C   0  0  0  0  0  0
  -25.4098  -36.3112   24.0339 C   0  0  1  0  0  0
  -20.5856  -28.3666   23.1321 C   0  0  2  0  0  0
  -20.6762  -26.9405   22.5419 C   0  0  0  0  0  0
  -19.5744  -26.6388   21.5213 C   0  0  0  0  0  0
  -18.1920  -26.7930   22.1622 C   0  0  0  0  0  0
  -19.1519  -28.8839   23.2904 C   0  0  0  0  0  0
  -18.9451  -30.1443   23.8926 C   0  0  0  0  0  0
  -17.6458  -30.6587   24.0573 C   0  0  0  0  0  0
  -25.9028  -34.9478   23.5132 C   0  0  0  0  0  0
  -16.5347  -29.9099   23.6321 C   0  0  0  0  0  0
  -16.7261  -28.6514   23.0339 C   0  0  0  0  0  0
  -26.4466  -31.6599   25.0717 C   0  0  0  0  0  0
  -25.3743  -31.3701   26.1474 C   0  0  0  0  0  0
  -27.0290  -30.3043   24.6070 C   0  0  0  0  0  0
  -27.6051  -32.4306   25.7482 C   0  0  0  0  0  0
  -27.5579  -37.1806   24.8458 C   0  0  0  0  0  0
  -21.4128  -29.3033   22.3728 N   0  0  0  0  0  0
  -26.4280  -37.3798   23.9415 N   0  0  0  0  0  0
  -24.6639  -31.0815   22.1002 N   0  0  0  0  0  0
  -23.4175  -28.8199   23.3020 O   0  0  0  0  0  0
  -28.4153  -26.7478   20.0592 O   0  0  0  0  0  0
  -26.5591  -34.8927   22.4695 O   0  0  0  0  0  0
  -23.5328  -32.1440   23.7525 O   0  0  0  0  0  0
  -29.3991  -19.3127   19.6314 C   0  0  0  0  0  0
  -29.1957  -18.1944   18.8024 C   0  0  0  0  0  0
  -30.0809  -17.8336   21.4481 C   0  0  0  0  0  0
  -29.8652  -19.1431   20.9533 C   0  0  0  0  0  0
  -29.8664  -16.7083   20.6242 C   0  0  0  0  0  0
  -29.4265  -16.8967   19.2912 C   0  0  0  0  0  0
  -34.4366  -19.0878   21.6853 C   0  0  0  0  0  0
  -30.0987  -20.3540   21.8593 C   0  0  0  0  0  0
  -33.1273  -19.7473   22.1388 C   0  0  0  0  0  0
  -29.7016  -23.2976   21.0291 C   0  0  0  0  0  0
  -29.5957  -24.6290   20.2566 C   0  0  0  0  0  0
  -32.4626  -20.5799   21.0224 C   0  0  0  0  0  0
  -30.8321  -22.3719   20.5159 C   0  0  0  0  0  0
  -28.3677  -25.4583   20.6701 C   0  0  0  0  0  0
  -30.0053  -15.4040   21.1672 N   0  0  0  0  0  0
  -31.2102  -21.2683   21.4517 N   0  3  1  0  0  0
  -29.1872  -15.8395   18.4807 F   0  0  0  0  0  0
  -31.4672  -12.3774   19.1090 H   0  0  0  0  0  0
  -30.3239  -11.2622   19.7999 H   0  0  0  0  0  0
  -29.7188  -11.7630   17.4207 H   0  0  0  0  0  0
  -29.6788  -13.4726   17.7616 H   0  0  0  0  0  0
  -27.7988  -11.3181   18.7827 H   0  0  0  0  0  0
  -27.3717  -12.6786   17.7805 H   0  0  0  0  0  0
  -27.7140  -14.2481   19.6051 H   0  0  0  0  0  0
  -28.6722  -11.9055   21.3155 H   0  0  0  0  0  0
  -28.4692  -13.5280   21.8882 H   0  0  0  0  0  0
  -25.2734   -9.5698   22.4751 H   0  0  0  0  0  0
  -23.9983   -7.4647   22.7473 H   0  0  0  0  0  0
  -21.0810   -8.8773   19.8950 H   0  0  0  0  0  0
  -22.3659  -10.9674   19.6159 H   0  0  0  0  0  0
  -21.2034   -7.6146   23.9701 H   0  0  0  0  0  0
  -21.1485   -6.0519   25.9067 H   0  0  0  0  0  0
  -22.0593   -2.7599   23.2841 H   0  0  0  0  0  0
  -22.4097  -11.9906   22.4762 H   0  0  0  0  0  0
  -21.1133  -13.1311   22.2593 H   0  0  0  0  0  0
  -24.6824  -15.8499   20.5151 H   0  0  0  0  0  0
  -26.2984  -15.6098   20.0784 H   0  0  0  0  0  0
  -26.7103  -32.5553   23.1177 H   0  0  0  0  0  0
  -25.0046  -33.9787   25.0483 H   0  0  0  0  0  0
  -22.6872  -31.3085   21.4121 H   0  0  0  0  0  0
  -23.3741  -35.9652   23.3301 H   0  0  0  0  0  0
  -24.3584  -36.8928   22.2050 H   0  0  0  0  0  0
  -23.7240  -37.6523   23.6647 H   0  0  0  0  0  0
  -26.0313  -31.6095   20.5907 H   0  0  0  0  0  0
  -26.8155  -30.9003   21.9749 H   0  0  0  0  0  0
  -28.1049  -29.1379   21.1400 H   0  0  0  0  0  0
  -26.0726  -25.9830   19.0106 H   0  0  0  0  0  0
  -23.9805  -27.2890   19.0458 H   0  0  0  0  0  0
  -23.7149  -30.5995   19.4061 H   0  0  0  0  0  0
  -22.7323  -29.2435   19.8695 H   0  0  0  0  0  0
  -25.1272  -36.1979   25.0832 H   0  0  0  0  0  0
  -20.9945  -28.3238   24.1442 H   0  0  0  0  0  0
  -20.5662  -26.2276   23.3605 H   0  0  0  0  0  0
  -21.6637  -26.7451   22.1216 H   0  0  0  0  0  0
  -19.6906  -25.6303   21.1230 H   0  0  0  0  0  0
  -19.6680  -27.3207   20.6749 H   0  0  0  0  0  0
  -17.4186  -26.6672   21.4028 H   0  0  0  0  0  0
  -18.0324  -26.0073   22.9019 H   0  0  0  0  0  0
  -19.7930  -30.7244   24.2313 H   0  0  0  0  0  0
  -17.5017  -31.6267   24.5177 H   0  0  0  0  0  0
  -15.5352  -30.3013   23.7628 H   0  0  0  0  0  0
  -15.8659  -28.0845   22.7039 H   0  0  0  0  0  0
  -24.5905  -30.7059   25.7815 H   0  0  0  0  0  0
  -24.8947  -32.2859   26.4940 H   0  0  0  0  0  0
  -25.8101  -30.8856   27.0219 H   0  0  0  0  0  0
  -26.2824  -29.6814   24.1128 H   0  0  0  0  0  0
  -27.4078  -29.7266   25.4511 H   0  0  0  0  0  0
  -27.8650  -30.4370   23.9199 H   0  0  0  0  0  0
  -27.2675  -33.3590   26.2103 H   0  0  0  0  0  0
  -28.3843  -32.6890   25.0301 H   0  0  0  0  0  0
  -28.0736  -31.8402   26.5367 H   0  0  0  0  0  0
  -28.2585  -38.0116   24.7534 H   0  0  0  0  0  0
  -28.1087  -36.2653   24.6240 H   0  0  0  0  0  0
  -27.2308  -37.1408   25.8862 H   0  0  0  0  0  0
  -20.9284  -29.8765   21.6966 H   0  0  0  0  0  0
  -26.0171  -38.2870   24.1442 H   0  0  0  0  0  0
  -29.1849  -20.2952   19.2380 H   0  0  0  0  0  0
  -28.8422  -18.3269   17.7905 H   0  0  0  0  0  0
  -30.4019  -17.6843   22.4695 H   0  0  0  0  0  0
  -34.8853  -18.5170   22.4989 H   0  0  0  0  0  0
  -35.1679  -19.8300   21.3620 H   0  0  0  0  0  0
  -34.2674  -18.4001   20.8558 H   0  0  0  0  0  0
  -30.3370  -19.9892   22.8592 H   0  0  0  0  0  0
  -29.1575  -20.8849   21.9897 H   0  0  0  0  0  0
  -33.3310  -20.3837   23.0006 H   0  0  0  0  0  0
  -32.4586  -18.9618   22.4875 H   0  0  0  0  0  0
  -28.7427  -22.7839   20.9581 H   0  0  0  0  0  0
  -29.8572  -23.5229   22.0851 H   0  0  0  0  0  0
  -29.5462  -24.4335   19.1845 H   0  0  0  0  0  0
  -30.5011  -25.2149   20.4213 H   0  0  0  0  0  0
  -32.2745  -19.9620   20.1433 H   0  0  0  0  0  0
  -33.1852  -21.3311   20.6987 H   0  0  0  0  0  0
  -31.7163  -22.9906   20.3556 H   0  0  0  0  0  0
  -30.5781  -21.9724   19.5349 H   0  0  0  0  0  0
  -28.3543  -25.5929   21.7528 H   0  0  0  0  0  0
  -27.4645  -24.9062   20.4094 H   0  0  0  0  0  0
  -29.2064  -15.0776   21.6890 H   0  0  0  0  0  0
  -31.4593  -21.7509   22.3016 H   0  0  0  0  0  0
  1 25  1  0  0  0
  1 30  2  0  0  0
  1 85  1  0  0  0
  2  3  1  0  0  0
  2 25  1  0  0  0
  2 88  1  0  0  0
  2 89  1  0  0  0
  3  4  1  0  0  0
  3 90  1  0  0  0
  3 91  1  0  0  0
  4  5  1  0  0  0
  4 92  1  0  0  0
  4 93  1  0  0  0
  5  6  1  0  0  0
  5 26  1  0  0  0
  5 94  1  0  0  0
  6 25  1  0  0  0
  6 95  1  0  0  0
  6 96  1  0  0  0
  7  8  2  0  0  0
  7 26  1  0  0  0
  7 29  1  0  0  0
  8  9  1  0  0  0
  8 22  1  0  0  0
  9 10  1  0  0  0
  9 27  2  0  0  0
 10 11  2  0  0  0
 10 15  1  0  0  0
 11 12  1  0  0  0
 11 97  1  0  0  0
 12 13  2  0  0  0
 12 98  1  0  0  0
 13 14  1  0  0  0
 13 31  1  0  0  0
 14 15  2  0  0  0
 14 99  1  0  0  0
 15100  1  0  0  0
 16 17  2  0  0  0
 16 21  1  0  0  0
 16 31  1  0  0  0
 17 18  1  0  0  0
 17101  1  0  0  0
 18 19  2  0  0  0
 18102  1  0  0  0
 19 20  1  0  0  0
 19 24  1  0  0  0
 20 21  2  0  0  0
 20103  1  0  0  0
 21 23  1  0  0  0
 22 28  1  0  0  0
 22 32  2  0  0  0
 26 27  1  0  0  0
 28104  1  0  0  0
 28105  1  0  0  0
 29106  1  0  0  0
 29107  1  0  0  0
 33 34  1  0  0  0
 33 66  1  0  0  0
 33 70  2  0  0  0
 34 36  1  0  0  0
 34 59  1  0  0  0
 34108  1  0  0  0
 35 44  2  0  0  0
 35 45  1  0  0  0
 35 68  1  0  0  0
 36 56  1  0  0  0
 36109  1  0  0  0
 37 39  1  0  0  0
 37 47  1  0  0  0
 37 66  1  0  0  0
 37110  1  0  0  0
 38 43  2  0  0  0
 38 46  1  0  0  0
 38 47  1  0  0  0
 39 64  1  0  0  0
 39 67  2  0  0  0
 40 52  1  0  0  0
 40 53  2  0  0  0
 40 58  1  0  0  0
 41111  1  0  0  0
 41112  1  0  0  0
 41113  1  0  0  0
 41 48  1  0  0  0
 42 43  1  0  0  0
 42 66  1  0  0  0
 42114  1  0  0  0
 42115  1  0  0  0
 43 44  1  0  0  0
 44116  1  0  0  0
 45 46  2  0  0  0
 45117  1  0  0  0
 46118  1  0  0  0
 47119  1  0  0  0
 47120  1  0  0  0
 48 56  1  0  0  0
 48 65  1  0  0  0
 48121  1  0  0  0
 49 50  1  0  0  0
 49 53  1  0  0  0
 49 64  1  0  0  0
 49122  1  0  0  0
 50 51  1  0  0  0
 50123  1  0  0  0
 50124  1  0  0  0
 51 52  1  0  0  0
 51125  1  0  0  0
 51126  1  0  0  0
 52127  1  0  0  0
 52128  1  0  0  0
 53 54  1  0  0  0
 54 55  2  0  0  0
 54129  1  0  0  0
 55 57  1  0  0  0
 55130  1  0  0  0
 56 69  2  0  0  0
 57 58  2  0  0  0
 57131  1  0  0  0
 58132  1  0  0  0
 59 60  1  0  0  0
 59 61  1  0  0  0
 59 62  1  0  0  0
 60133  1  0  0  0
 60134  1  0  0  0
 60135  1  0  0  0
 61136  1  0  0  0
 61137  1  0  0  0
 61138  1  0  0  0
 62139  1  0  0  0
 62140  1  0  0  0
 62141  1  0  0  0
 63 65  1  0  0  0
 63142  1  0  0  0
 63143  1  0  0  0
 63144  1  0  0  0
 64145  1  0  0  0
 65146  1  0  0  0
 68 84  1  0  0  0
 71 72  2  0  0  0
 71 74  1  0  0  0
 71147  1  0  0  0
 72 76  1  0  0  0
 72148  1  0  0  0
 73 74  2  0  0  0
 73 75  1  0  0  0
 73149  1  0  0  0
 74 78  1  0  0  0
 75 76  2  0  0  0
 75 85  1  0  0  0
 76 87  1  0  0  0
 77 79  1  0  0  0
 77150  1  0  0  0
 77151  1  0  0  0
 77152  1  0  0  0
 78153  1  0  0  0
 78154  1  0  0  0
 78 86  1  0  0  0
 79 82  1  0  0  0
 79155  1  0  0  0
 79156  1  0  0  0
 80 81  1  0  0  0
 80 83  1  0  0  0
 80157  1  0  0  0
 80158  1  0  0  0
 81 84  1  0  0  0
 81159  1  0  0  0
 81160  1  0  0  0
 82 86  1  0  0  0
 82161  1  0  0  0
 82162  1  0  0  0
 83 86  1  0  0  0
 83163  1  0  0  0
 83164  1  0  0  0
 84165  1  0  0  0
 84166  1  0  0  0
 85167  1  0  0  0
 86168  1  0  0  0
M  CHG  1  86   1
M  ISO  4   1 100  68 101  84 101  85 100
M  END
> <chiral flag>
0

> <version>
0

> <s_m_source_file>
/data/baiqing/PycharmProjects/Reinvent-master-3.2/result/LINK_invent/BTK/process_docking_weight1_custom_product_contain_oxygen_bond_distance_aromatic_linkinvent_7_9_3/rearranged_h_0005.sdf

> <i_m_source_file_index>
64

> <r_mmod_Potential_Energy-OPLS-2005>
-166.447509765625

> <r_mmod_Stretch_Energy-OPLS-2005>
35.3743629455566

> <r_mmod_Bend_Energy-OPLS-2005>
95.0144882202148

> <r_mmod_Torsional_Energy-OPLS-2005>
261.762573242188

> <r_mmod_Improper_Torsional_Energy-OPLS-2005>
5.5436372756958

> <r_mmod_Van_der_Waal_Energy-OPLS-2005>
151.075378417969

> <r_mmod_Electrostatic_Energy-OPLS-2005>
-274.279205322266

> <r_mmod_Solvation_Energy-OPLS-2005>
-450.070648193359

> <b_mmod_Minimization_Converged-OPLS-2005>
0

> <r_mmod_RMS_Derivative-OPLS-2005>
1.30353784561157

$$$$
64
                    3D
 Structure written by MMmdl.
168176  0  0  1  0            999 V2000
  -30.7458  -14.3465   20.7010 C   0  0  0  0  0  0
  -30.4314  -12.2879   19.3862 C   0  0  0  0  0  0
  -29.4822  -12.5199   18.1925 C   0  0  0  0  0  0
  -28.0076  -12.3637   18.6156 C   0  0  0  0  0  0
  -27.6691  -13.1887   19.8834 C   0  0  2  0  0  0
  -28.7055  -12.9042   20.9927 C   0  0  0  0  0  0
  -25.2641  -13.8137   20.5689 C   0  0  0  0  0  0
  -24.1839  -13.0436   20.9158 C   0  0  0  0  0  0
  -24.6365  -11.6890   20.8744 C   0  0  0  0  0  0
  -23.9024  -10.4279   21.0412 C   0  0  0  0  0  0
  -24.3582   -9.4191   21.9182 C   0  0  0  0  0  0
  -23.6255   -8.2228   22.0759 C   0  0  0  0  0  0
  -22.4244   -8.0264   21.3539 C   0  0  0  0  0  0
  -21.9859   -9.0240   20.4648 C   0  0  0  0  0  0
  -22.7192  -10.2125   20.3055 C   0  0  0  0  0  0
  -21.6859   -6.0714   22.5283 C   0  0  0  0  0  0
  -21.4017   -6.5631   23.8207 C   0  0  0  0  0  0
  -21.3656   -5.6790   24.9169 C   0  0  0  0  0  0
  -21.6042   -4.3052   24.7222 C   0  0  0  0  0  0
  -21.8816   -3.8135   23.4349 C   0  0  0  0  0  0
  -21.9193   -4.6943   22.3401 C   0  0  0  0  0  0
  -22.7867  -13.5268   21.1840 C   0  0  0  0  0  0
  -22.1665   -4.2122   21.0977 F   0  0  0  0  0  0
  -21.5628   -3.4544   25.7745 F   0  0  0  0  0  0
  -30.0521  -13.2075   20.4651 N   0  0  0  0  0  0
  -26.3053  -12.9267   20.3416 N   0  0  0  0  0  0
  -25.9288  -11.6447   20.5803 N   0  0  0  0  0  0
  -22.0506  -12.8257   22.0409 N   0  0  0  0  0  0
  -25.4465  -15.1827   20.4143 N   0  0  0  0  0  0
  -31.7455  -14.6942   20.0654 O   0  0  0  0  0  0
  -21.6625   -6.8850   21.4239 O   0  0  0  0  0  0
  -22.3547  -14.5570   20.6709 O   0  0  0  0  0  0
  -24.6119  -31.8718   23.2142 C   0  0  0  0  0  0
  -25.9019  -32.4850   23.8417 C   0  0  1  0  0  0
  -27.2370  -27.4596   20.0881 C   0  0  0  0  0  0
  -25.5899  -33.8646   24.2363 N   0  0  0  0  0  0
  -23.3996  -30.4945   21.5546 C   0  0  2  0  0  0
  -24.8452  -28.9604   20.1281 C   0  0  0  0  0  0
  -22.7392  -29.4669   22.5021 C   0  0  0  0  0  0
  -18.0262  -28.1374   22.8505 C   0  0  0  0  0  0
  -24.1478  -36.7313   23.2637 C   0  0  0  0  0  0
  -25.9275  -30.8410   21.3676 C   0  0  0  0  0  0
  -26.0039  -29.4742   20.7232 C   0  0  0  0  0  0
  -27.2029  -28.7286   20.7063 C   0  0  0  0  0  0
  -26.0636  -26.9657   19.4769 C   0  0  0  0  0  0
  -24.8667  -27.7002   19.5110 C   0  0  0  0  0  0
  -23.6096  -29.8265   20.1707 C   0  0  0  0  0  0
  -25.4102  -36.3133   24.0346 C   0  0  1  0  0  0
  -20.5847  -28.3658   23.1338 C   0  0  2  0  0  0
  -20.6759  -26.9399   22.5443 C   0  0  0  0  0  0
  -19.5753  -26.6384   21.5233 C   0  0  0  0  0  0
  -18.1928  -26.7917   22.1644 C   0  0  0  0  0  0
  -19.1512  -28.8838   23.2913 C   0  0  0  0  0  0
  -18.9435  -30.1441   23.8932 C   0  0  0  0  0  0
  -17.6445  -30.6595   24.0570 C   0  0  0  0  0  0
  -25.9028  -34.9493   23.5150 C   0  0  0  0  0  0
  -16.5343  -29.9100   23.6334 C   0  0  0  0  0  0
  -16.7253  -28.6511   23.0353 C   0  0  0  0  0  0
  -26.4463  -31.6621   25.0733 C   0  0  0  0  0  0
  -25.3739  -31.3712   26.1488 C   0  0  0  0  0  0
  -27.0280  -30.3067   24.6090 C   0  0  0  0  0  0
  -27.6063  -32.4321   25.7479 C   0  0  0  0  0  0
  -27.5581  -37.1817   24.8472 C   0  0  0  0  0  0
  -21.4120  -29.3026   22.3744 N   0  0  0  0  0  0
  -26.4304  -37.3810   23.9408 N   0  0  0  0  0  0
  -24.6640  -31.0817   22.1047 N   0  0  0  0  0  0
  -23.4168  -28.8203   23.3056 O   0  0  0  0  0  0
  -28.4322  -26.7833   20.0117 O   0  0  0  0  0  0
  -26.5589  -34.8939   22.4707 O   0  0  0  0  0  0
  -23.5315  -32.1467   23.7548 O   0  0  0  0  0  0
  -26.7463  -18.6151   22.2324 C   0  0  0  0  0  0
  -27.2323  -17.9395   23.3668 C   0  0  0  0  0  0
  -28.6771  -17.8508   20.9603 C   0  0  0  0  0  0
  -27.4763  -18.5857   21.0289 C   0  0  0  0  0  0
  -28.4629  -17.2506   23.3216 C   0  0  0  0  0  0
  -29.1961  -17.2113   22.1057 C   0  0  0  0  0  0
  -30.5161  -16.4681   21.9751 C   0  0  0  0  0  0
  -27.0417  -19.4345   19.8482 C   0  0  0  0  0  0
  -28.9676  -16.5946   24.6000 C   0  0  0  0  0  0
  -28.3731  -22.9694   20.0134 C   0  0  0  0  0  0
  -27.8373  -24.3773   19.7400 C   0  0  0  0  0  0
  -27.4641  -21.8755   19.4261 C   0  0  0  0  0  0
  -28.5105  -25.4760   20.5809 C   0  0  0  0  0  0
  -30.2485  -15.0693   21.7050 N   0  0  0  0  0  0
  -29.7918  -17.5371   25.3671 N   0  3  0  0  0  0
  -28.0056  -20.5433   19.7402 N   0  3  0  0  0  0
  -31.4698  -12.4220   19.0734 H   0  0  0  0  0  0
  -30.3626  -11.2609   19.7467 H   0  0  0  0  0  0
  -29.7134  -11.8245   17.3851 H   0  0  0  0  0  0
  -29.6422  -13.5202   17.7912 H   0  0  0  0  0  0
  -27.8240  -11.3050   18.8057 H   0  0  0  0  0  0
  -27.3435  -12.6415   17.7976 H   0  0  0  0  0  0
  -27.7358  -14.2423   19.6123 H   0  0  0  0  0  0
  -28.6738  -11.8536   21.2822 H   0  0  0  0  0  0
  -28.4378  -13.4488   21.8995 H   0  0  0  0  0  0
  -25.2724   -9.5665   22.4747 H   0  0  0  0  0  0
  -23.9964   -7.4620   22.7470 H   0  0  0  0  0  0
  -21.0796   -8.8733   19.8954 H   0  0  0  0  0  0
  -22.3634  -10.9647   19.6151 H   0  0  0  0  0  0
  -21.2020   -7.6141   23.9695 H   0  0  0  0  0  0
  -21.1491   -6.0530   25.9071 H   0  0  0  0  0  0
  -22.0601   -2.7596   23.2861 H   0  0  0  0  0  0
  -22.4118  -11.9892   22.4741 H   0  0  0  0  0  0
  -21.1137  -13.1310   22.2658 H   0  0  0  0  0  0
  -24.7055  -15.8556   20.5687 H   0  0  0  0  0  0
  -26.3346  -15.6142   20.1941 H   0  0  0  0  0  0
  -26.7097  -32.5585   23.1192 H   0  0  0  0  0  0
  -25.0058  -33.9817   25.0512 H   0  0  0  0  0  0
  -22.6873  -31.3102   21.4137 H   0  0  0  0  0  0
  -23.3755  -35.9638   23.3334 H   0  0  0  0  0  0
  -24.3567  -36.8890   22.2049 H   0  0  0  0  0  0
  -23.7231  -37.6529   23.6614 H   0  0  0  0  0  0
  -26.0350  -31.6054   20.5966 H   0  0  0  0  0  0
  -26.8165  -30.8985   21.9831 H   0  0  0  0  0  0
  -28.1027  -29.1278   21.1535 H   0  0  0  0  0  0
  -26.0613  -26.0429   18.9221 H   0  0  0  0  0  0
  -23.9813  -27.3043   19.0358 H   0  0  0  0  0  0
  -23.7265  -30.5990   19.4105 H   0  0  0  0  0  0
  -22.7353  -29.2471   19.8714 H   0  0  0  0  0  0
  -25.1277  -36.2014   25.0846 H   0  0  0  0  0  0
  -20.9925  -28.3246   24.1466 H   0  0  0  0  0  0
  -20.5658  -26.2267   23.3622 H   0  0  0  0  0  0
  -21.6628  -26.7438   22.1242 H   0  0  0  0  0  0
  -19.6910  -25.6302   21.1251 H   0  0  0  0  0  0
  -19.6696  -27.3203   20.6765 H   0  0  0  0  0  0
  -17.4192  -26.6655   21.4044 H   0  0  0  0  0  0
  -18.0360  -26.0057   22.9041 H   0  0  0  0  0  0
  -19.7912  -30.7244   24.2321 H   0  0  0  0  0  0
  -17.4996  -31.6268   24.5174 H   0  0  0  0  0  0
  -15.5343  -30.3009   23.7639 H   0  0  0  0  0  0
  -15.8645  -28.0843   22.7071 H   0  0  0  0  0  0
  -24.5903  -30.7073   25.7817 H   0  0  0  0  0  0
  -24.8930  -32.2862   26.4964 H   0  0  0  0  0  0
  -25.8102  -30.8857   27.0229 H   0  0  0  0  0  0
  -26.2814  -29.6849   24.1140 H   0  0  0  0  0  0
  -27.4053  -29.7289   25.4539 H   0  0  0  0  0  0
  -27.8648  -30.4395   23.9226 H   0  0  0  0  0  0
  -27.2706  -33.3607   26.2112 H   0  0  0  0  0  0
  -28.3836  -32.6916   25.0273 H   0  0  0  0  0  0
  -28.0772  -31.8408   26.5348 H   0  0  0  0  0  0
  -28.2630  -38.0085   24.7506 H   0  0  0  0  0  0
  -28.1047  -36.2625   24.6312 H   0  0  0  0  0  0
  -27.2291  -37.1492   25.8873 H   0  0  0  0  0  0
  -20.9284  -29.8753   21.6968 H   0  0  0  0  0  0
  -26.0203  -38.2895   24.1407 H   0  0  0  0  0  0
  -25.8238  -19.1741   22.3059 H   0  0  0  0  0  0
  -26.6618  -17.9716   24.2841 H   0  0  0  0  0  0
  -29.2270  -17.8112   20.0296 H   0  0  0  0  0  0
  -31.1214  -16.5664   22.8764 H   0  0  0  0  0  0
  -31.0981  -16.9239   21.1730 H   0  0  0  0  0  0
  -26.0259  -19.7940   20.0177 H   0  0  0  0  0  0
  -27.0218  -18.8474   18.9285 H   0  0  0  0  0  0
  -29.5270  -15.6857   24.3808 H   0  0  0  0  0  0
  -28.1184  -16.2841   25.2089 H   0  0  0  0  0  0
  -28.4478  -22.8253   21.0935 H   0  0  0  0  0  0
  -29.3858  -22.8749   19.6168 H   0  0  0  0  0  0
  -26.7728  -24.3710   19.9673 H   0  0  0  0  0  0
  -27.9439  -24.5994   18.6767 H   0  0  0  0  0  0
  -27.3547  -21.9821   18.3452 H   0  0  0  0  0  0
  -26.4682  -21.9897   19.8571 H   0  0  0  0  0  0
  -29.5735  -25.2513   20.6689 H   0  0  0  0  0  0
  -28.1232  -25.4739   21.6012 H   0  0  0  0  0  0
  -29.4692  -14.6528   22.1904 H   0  0  0  0  0  0
  -30.5858  -17.8377   24.8340 H   0  0  0  0  0  0
  -30.1165  -17.0996   26.2110 H   0  0  0  0  0  0
  -29.2511  -18.3465   25.6126 H   0  0  0  0  0  0
  -28.7213  -20.2967   19.0745 H   0  0  0  0  0  0
  -28.4379  -20.6043   20.6467 H   0  0  0  0  0  0
  1 25  1  0  0  0
  1 30  2  0  0  0
  1 84  1  0  0  0
  2  3  1  0  0  0
  2 25  1  0  0  0
  2 87  1  0  0  0
  2 88  1  0  0  0
  3  4  1  0  0  0
  3 89  1  0  0  0
  3 90  1  0  0  0
  4  5  1  0  0  0
  4 91  1  0  0  0
  4 92  1  0  0  0
  5  6  1  0  0  0
  5 26  1  0  0  0
  5 93  1  0  0  0
  6 25  1  0  0  0
  6 94  1  0  0  0
  6 95  1  0  0  0
  7  8  2  0  0  0
  7 26  1  0  0  0
  7 29  1  0  0  0
  8  9  1  0  0  0
  8 22  1  0  0  0
  9 10  1  0  0  0
  9 27  2  0  0  0
 10 11  2  0  0  0
 10 15  1  0  0  0
 11 12  1  0  0  0
 11 96  1  0  0  0
 12 13  2  0  0  0
 12 97  1  0  0  0
 13 14  1  0  0  0
 13 31  1  0  0  0
 14 15  2  0  0  0
 14 98  1  0  0  0
 15 99  1  0  0  0
 16 17  2  0  0  0
 16 21  1  0  0  0
 16 31  1  0  0  0
 17 18  1  0  0  0
 17100  1  0  0  0
 18 19  2  0  0  0
 18101  1  0  0  0
 19 20  1  0  0  0
 19 24  1  0  0  0
 20 21  2  0  0  0
 20102  1  0  0  0
 21 23  1  0  0  0
 22 28  1  0  0  0
 22 32  2  0  0  0
 26 27  1  0  0  0
 28103  1  0  0  0
 28104  1  0  0  0
 29105  1  0  0  0
 29106  1  0  0  0
 33 34  1  0  0  0
 33 66  1  0  0  0
 33 70  2  0  0  0
 34 36  1  0  0  0
 34 59  1  0  0  0
 34107  1  0  0  0
 35 44  2  0  0  0
 35 45  1  0  0  0
 35 68  1  0  0  0
 36 56  1  0  0  0
 36108  1  0  0  0
 37 39  1  0  0  0
 37 47  1  0  0  0
 37 66  1  0  0  0
 37109  1  0  0  0
 38 43  2  0  0  0
 38 46  1  0  0  0
 38 47  1  0  0  0
 39 64  1  0  0  0
 39 67  2  0  0  0
 40 52  1  0  0  0
 40 53  2  0  0  0
 40 58  1  0  0  0
 41110  1  0  0  0
 41111  1  0  0  0
 41112  1  0  0  0
 41 48  1  0  0  0
 42 43  1  0  0  0
 42 66  1  0  0  0
 42113  1  0  0  0
 42114  1  0  0  0
 43 44  1  0  0  0
 44115  1  0  0  0
 45 46  2  0  0  0
 45116  1  0  0  0
 46117  1  0  0  0
 47118  1  0  0  0
 47119  1  0  0  0
 48 56  1  0  0  0
 48 65  1  0  0  0
 48120  1  0  0  0
 49 50  1  0  0  0
 49 53  1  0  0  0
 49 64  1  0  0  0
 49121  1  0  0  0
 50 51  1  0  0  0
 50122  1  0  0  0
 50123  1  0  0  0
 51 52  1  0  0  0
 51124  1  0  0  0
 51125  1  0  0  0
 52126  1  0  0  0
 52127  1  0  0  0
 53 54  1  0  0  0
 54 55  2  0  0  0
 54128  1  0  0  0
 55 57  1  0  0  0
 55129  1  0  0  0
 56 69  2  0  0  0
 57 58  2  0  0  0
 57130  1  0  0  0
 58131  1  0  0  0
 59 60  1  0  0  0
 59 61  1  0  0  0
 59 62  1  0  0  0
 60132  1  0  0  0
 60133  1  0  0  0
 60134  1  0  0  0
 61135  1  0  0  0
 61136  1  0  0  0
 61137  1  0  0  0
 62138  1  0  0  0
 62139  1  0  0  0
 62140  1  0  0  0
 63 65  1  0  0  0
 63141  1  0  0  0
 63142  1  0  0  0
 63143  1  0  0  0
 64144  1  0  0  0
 65145  1  0  0  0
 68 83  1  0  0  0
 71 72  2  0  0  0
 71 74  1  0  0  0
 71146  1  0  0  0
 72 75  1  0  0  0
 72147  1  0  0  0
 73 74  2  0  0  0
 73 76  1  0  0  0
 73148  1  0  0  0
 74 78  1  0  0  0
 75 76  2  0  0  0
 75 79  1  0  0  0
 76 77  1  0  0  0
 77 84  1  0  0  0
 77149  1  0  0  0
 77150  1  0  0  0
 78 86  1  0  0  0
 78151  1  0  0  0
 78152  1  0  0  0
 79 85  1  0  0  0
 79153  1  0  0  0
 79154  1  0  0  0
 80 81  1  0  0  0
 80 82  1  0  0  0
 80155  1  0  0  0
 80156  1  0  0  0
 81 83  1  0  0  0
 81157  1  0  0  0
 81158  1  0  0  0
 82 86  1  0  0  0
 82159  1  0  0  0
 82160  1  0  0  0
 83161  1  0  0  0
 83162  1  0  0  0
 84163  1  0  0  0
 85164  1  0  0  0
 85165  1  0  0  0
 85166  1  0  0  0
 86167  1  0  0  0
 86168  1  0  0  0
M  CHG  2  85   1  86   1
M  ISO  4   1 100  68 101  83 101  84 100
M  END
> <chiral flag>
0

> <version>
0

> <s_m_source_file>
/data/baiqing/PycharmProjects/Reinvent-master-3.2/result/LINK_invent/BTK/process_docking_weight1_custom_product_contain_oxygen_bond_distance_aromatic_linkinvent_7_9_3/rearranged_h_0005.sdf

> <i_m_source_file_index>
65

> <r_mmod_Potential_Energy-OPLS-2005>
-600.583984375

> <r_mmod_Stretch_Energy-OPLS-2005>
31.3826656341553

> <r_mmod_Bend_Energy-OPLS-2005>
95.0932846069336

> <r_mmod_Torsional_Energy-OPLS-2005>
214.351257324219

> <r_mmod_Improper_Torsional_Energy-OPLS-2005>
2.80064105987549

> <r_mmod_Van_der_Waal_Energy-OPLS-2005>
150.132171630859

> <r_mmod_Electrostatic_Energy-OPLS-2005>
-116.55224609375

> <r_mmod_Solvation_Energy-OPLS-2005>
-985.482299804688

> <b_mmod_Minimization_Converged-OPLS-2005>
0

> <r_mmod_RMS_Derivative-OPLS-2005>
3.48096871376038

$$$$
65
                    3D
 Structure written by MMmdl.
166175  0  0  1  0            999 V2000
  -30.7496  -14.0090   20.9870 C   0  0  0  0  0  0
  -30.4118  -12.1447   19.3174 C   0  0  0  0  0  0
  -29.4226  -12.0894   18.1020 C   0  0  0  0  0  0
  -27.9200  -12.0803   18.5406 C   0  0  0  0  0  0
  -27.5411  -13.2666   19.4543 C   0  0  2  0  0  0
  -28.8598  -13.8115   19.9553 C   0  0  0  0  0  0
  -25.3858  -14.3223   20.8757 C   0  0  0  0  0  0
  -24.2634  -13.3072   20.8160 C   0  0  0  0  0  0
  -24.6883  -11.9152   20.8101 C   0  0  0  0  0  0
  -23.9598  -10.5746   20.9853 C   0  0  0  0  0  0
  -24.3938   -9.5531   21.8818 C   0  0  0  0  0  0
  -23.6730   -8.3376   22.0626 C   0  0  0  0  0  0
  -22.4723   -8.0993   21.3551 C   0  0  0  0  0  0
  -22.0489   -9.0850   20.4453 C   0  0  0  0  0  0
  -22.7749  -10.2855   20.2601 C   0  0  0  0  0  0
  -21.7216   -6.1097   22.5233 C   0  0  0  0  0  0
  -21.4296   -6.5874   23.8194 C   0  0  0  0  0  0
  -21.3744   -5.6955   24.9115 C   0  0  0  0  0  0
  -21.6039   -4.3192   24.7117 C   0  0  0  0  0  0
  -21.8758   -3.8346   23.4196 C   0  0  0  0  0  0
  -21.9280   -4.7256   22.3310 C   0  0  0  0  0  0
  -22.7480  -13.4960   20.9823 C   0  0  0  0  0  0
  -22.1680   -4.2395   21.0893 F   0  0  0  0  0  0
  -21.5557   -3.4620   25.7590 F   0  0  0  0  0  0
  -29.9853  -13.0748   20.3769 N   0  0  0  0  0  0
  -26.2813  -13.2338   20.2760 N   0  0  0  0  0  0
  -25.9449  -11.9247   20.5299 N   0  0  0  0  0  0
  -22.1124  -12.7999   21.9302 N   0  0  0  0  0  0
  -25.9007  -16.4465   22.2663 N   0  0  0  0  0  0
  -31.8022  -14.4535   20.4906 O   0  0  0  0  0  0
  -21.7205   -6.9391   21.4255 O   0  0  0  0  0  0
  -22.1413  -14.3567   20.3613 O   0  0  0  0  0  0
  -24.6578  -31.8383   23.1911 C   0  0  0  0  0  0
  -25.9323  -32.4641   23.8282 C   0  0  1  0  0  0
  -26.9686  -26.9314   20.1247 C   0  0  0  0  0  0
  -25.6046  -33.8462   24.2165 N   0  0  0  0  0  0
  -23.4537  -30.4793   21.5470 C   0  0  2  0  0  0
  -24.8566  -28.9194   20.0837 C   0  0  0  0  0  0
  -22.7604  -29.4544   22.4833 C   0  0  0  0  0  0
  -18.0315  -28.1403   22.8477 C   0  0  0  0  0  0
  -24.1499  -36.7234   23.2633 C   0  0  0  0  0  0
  -26.0270  -30.6322   21.4280 C   0  0  0  0  0  0
  -26.0465  -29.2394   20.7506 C   0  0  0  0  0  0
  -27.1203  -28.2467   20.7728 C   0  0  0  0  0  0
  -25.8352  -26.8393   19.3107 C   0  0  0  0  0  0
  -24.7797  -27.7481   19.3364 C   0  0  0  0  0  0
  -23.6696  -29.8584   20.1498 C   0  0  0  0  0  0
  -25.4134  -36.2998   24.0294 C   0  0  1  0  0  0
  -20.5933  -28.3733   23.1211 C   0  0  2  0  0  0
  -20.6798  -26.9433   22.5392 C   0  0  0  0  0  0
  -19.5764  -26.6378   21.5212 C   0  0  0  0  0  0
  -18.1947  -26.7936   22.1625 C   0  0  0  0  0  0
  -19.1576  -28.8889   23.2834 C   0  0  0  0  0  0
  -18.9481  -30.1480   23.8864 C   0  0  0  0  0  0
  -17.6476  -30.6594   24.0557 C   0  0  0  0  0  0
  -25.9110  -34.9380   23.5031 C   0  0  0  0  0  0
  -16.5367  -29.9084   23.6343 C   0  0  0  0  0  0
  -16.7295  -28.6506   23.0357 C   0  0  0  0  0  0
  -26.4570  -31.6570   25.0798 C   0  0  0  0  0  0
  -25.3694  -31.3828   26.1455 C   0  0  0  0  0  0
  -27.0446  -30.2927   24.6536 C   0  0  0  0  0  0
  -27.6070  -32.4374   25.7580 C   0  0  0  0  0  0
  -27.5584  -37.1770   24.8450 C   0  0  0  0  0  0
  -21.4283  -29.3054   22.3580 N   0  0  0  0  0  0
  -26.4279  -37.3732   23.9414 N   0  0  0  0  0  0
  -24.7368  -31.0097   22.1058 N   0  0  0  0  0  0
  -23.4232  -28.8031   23.2951 O   0  0  0  0  0  0
  -27.7031  -25.6681   20.2115 O   0  0  0  0  0  0
  -26.5681  -34.8883   22.4601 O   0  0  0  0  0  0
  -23.5679  -32.1368   23.7069 O   0  0  0  0  0  0
  -23.9784  -16.1707   21.1336 C   0  0  0  0  0  0
  -24.1665  -15.0949   22.7044 C   0  0  0  0  0  0
  -27.0969  -15.8672   20.4707 C   0  0  0  0  0  0
  -27.3717  -14.7533   22.0503 C   0  0  0  0  0  0
  -25.4521  -16.6143   20.0659 C   0  0  0  0  0  0
  -25.8493  -14.3566   23.1325 C   0  0  0  0  0  0
  -30.2049  -13.4244   24.4485 C   0  0  0  0  0  0
  -28.7745  -13.4780   23.9072 C   0  0  0  0  0  0
  -31.0900  -14.0656   23.3621 C   0  0  0  0  0  0
  -28.7994  -14.5032   22.7647 C   0  0  1  0  0  0
  -25.5133  -18.2506   19.5477 C   0  0  0  0  0  0
  -27.2382  -22.5024   20.1265 C   0  0  0  0  0  0
  -26.1513  -21.1205   19.8895 C   0  0  0  0  0  0
  -26.8891  -24.2357   20.1543 C   0  0  0  0  0  0
  -30.2202  -14.3320   22.2150 N   0  0  0  0  0  0
  -26.4225  -19.5070   20.0829 N   0  3  0  0  0  0
  -25.9470  -13.6178   24.2595 F   0  0  0  0  0  0
  -31.4178  -12.3887   18.9613 H   0  0  0  0  0  0
  -30.4723  -11.1472   19.7630 H   0  0  0  0  0  0
  -29.6167  -11.1864   17.5271 H   0  0  0  0  0  0
  -29.6007  -12.9048   17.4059 H   0  0  0  0  0  0
  -27.7215  -11.1333   19.0398 H   0  0  0  0  0  0
  -27.2759  -12.0972   17.6591 H   0  0  0  0  0  0
  -27.2549  -14.0045   18.7045 H   0  0  0  0  0  0
  -28.9623  -14.8521   20.1306 H   0  0  0  0  0  0
  -29.2388  -14.2070   19.0080 H   0  0  0  0  0  0
  -25.2986   -9.7149   22.4521 H   0  0  0  0  0  0
  -24.0518   -7.5936   22.7511 H   0  0  0  0  0  0
  -21.1479   -8.9199   19.8662 H   0  0  0  0  0  0
  -22.4007  -11.0091   19.5479 H   0  0  0  0  0  0
  -21.2452   -7.6389   23.9786 H   0  0  0  0  0  0
  -21.1590   -6.0666   25.9033 H   0  0  0  0  0  0
  -22.0411   -2.7799   23.2619 H   0  0  0  0  0  0
  -22.5960  -12.1152   22.4970 H   0  0  0  0  0  0
  -21.1249  -12.9409   22.0808 H   0  0  0  0  0  0
  -25.1937  -16.9221   22.8123 H   0  0  0  0  0  0
  -26.8538  -16.7126   22.4853 H   0  0  0  0  0  0
  -26.7369  -32.5118   23.0960 H   0  0  0  0  0  0
  -25.0189  -33.9580   25.0314 H   0  0  0  0  0  0
  -22.7620  -31.3148   21.4184 H   0  0  0  0  0  0
  -23.3779  -35.9545   23.3238 H   0  0  0  0  0  0
  -24.3591  -36.8935   22.2063 H   0  0  0  0  0  0
  -23.7228  -37.6394   23.6719 H   0  0  0  0  0  0
  -26.2297  -31.3811   20.6626 H   0  0  0  0  0  0
  -26.8858  -30.6545   22.0853 H   0  0  0  0  0  0
  -28.0028  -28.4418   21.3667 H   0  0  0  0  0  0
  -25.6812  -26.0141   18.6399 H   0  0  0  0  0  0
  -23.8973  -27.5433   18.7440 H   0  0  0  0  0  0
  -23.8362  -30.6551   19.4234 H   0  0  0  0  0  0
  -22.7659  -29.3430   19.8184 H   0  0  0  0  0  0
  -25.1321  -36.1808   25.0782 H   0  0  0  0  0  0
  -21.0021  -28.3320   24.1332 H   0  0  0  0  0  0
  -20.5706  -26.2346   23.3614 H   0  0  0  0  0  0
  -21.6657  -26.7438   22.1176 H   0  0  0  0  0  0
  -19.6918  -25.6279   21.1265 H   0  0  0  0  0  0
  -19.6692  -27.3167   20.6725 H   0  0  0  0  0  0
  -17.4211  -26.6681   21.4029 H   0  0  0  0  0  0
  -18.0341  -26.0089   22.9034 H   0  0  0  0  0  0
  -19.7952  -30.7309   24.2212 H   0  0  0  0  0  0
  -17.5023  -31.6265   24.5167 H   0  0  0  0  0  0
  -15.5364  -30.2967   23.7686 H   0  0  0  0  0  0
  -15.8693  -28.0808   22.7089 H   0  0  0  0  0  0
  -24.5894  -30.7148   25.7785 H   0  0  0  0  0  0
  -24.8863  -32.3031   26.4745 H   0  0  0  0  0  0
  -25.7932  -30.9099   27.0324 H   0  0  0  0  0  0
  -26.3096  -29.6608   24.1536 H   0  0  0  0  0  0
  -27.3944  -29.7296   25.5200 H   0  0  0  0  0  0
  -27.9075  -30.4097   23.9975 H   0  0  0  0  0  0
  -27.2641  -33.3708   26.2056 H   0  0  0  0  0  0
  -28.3927  -32.6885   25.0442 H   0  0  0  0  0  0
  -28.0686  -31.8578   26.5583 H   0  0  0  0  0  0
  -28.2536  -38.0132   24.7569 H   0  0  0  0  0  0
  -28.1148  -36.2662   24.6185 H   0  0  0  0  0  0
  -27.2315  -37.1298   25.8852 H   0  0  0  0  0  0
  -20.9496  -29.8841   21.6819 H   0  0  0  0  0  0
  -26.0130  -38.2783   24.1457 H   0  0  0  0  0  0
  -23.0502  -16.7028   20.9875 H   0  0  0  0  0  0
  -23.3305  -14.9406   23.3677 H   0  0  0  0  0  0
  -27.9031  -16.4403   20.0357 H   0  0  0  0  0  0
  -30.4938  -12.3929   24.6853 H   0  0  0  0  0  0
  -30.2931  -14.0000   25.3730 H   0  0  0  0  0  0
  -28.1161  -13.7691   24.7247 H   0  0  0  0  0  0
  -28.4654  -12.4957   23.5342 H   0  0  0  0  0  0
  -31.5026  -15.0138   23.7176 H   0  0  0  0  0  0
  -31.9331  -13.4069   23.1271 H   0  0  0  0  0  0
  -28.8926  -15.4660   23.2736 H   0  0  0  0  0  0
  -24.4846  -18.5964   19.6691 H   0  0  0  0  0  0
  -25.6572  -18.2215   18.4650 H   0  0  0  0  0  0
  -27.9938  -22.3934   19.3455 H   0  0  0  0  0  0
  -27.7848  -22.3005   21.0472 H   0  0  0  0  0  0
  -25.7646  -21.2221   18.8770 H   0  0  0  0  0  0
  -25.2859  -21.3182   20.5213 H   0  0  0  0  0  0
  -26.2100  -24.3339   21.0010 H   0  0  0  0  0  0
  -26.2391  -24.2672   19.2908 H   0  0  0  0  0  0
  -27.3339  -19.3342   19.6973 H   0  0  0  0  0  0
  -26.5029  -19.3559   21.0719 H   0  0  0  0  0  0
  1 25  1  0  0  0
  1 30  2  0  0  0
  1 85  1  0  0  0
  2  3  1  0  0  0
  2 25  1  0  0  0
  2 88  1  0  0  0
  2 89  1  0  0  0
  3  4  1  0  0  0
  3 90  1  0  0  0
  3 91  1  0  0  0
  4  5  1  0  0  0
  4 92  1  0  0  0
  4 93  1  0  0  0
  5  6  1  0  0  0
  5 26  1  0  0  0
  5 94  1  0  0  0
  6 25  1  0  0  0
  6 95  1  0  0  0
  6 96  1  0  0  0
  7  8  2  0  0  0
  7 26  1  0  0  0
  7 29  1  0  0  0
  8  9  1  0  0  0
  8 22  1  0  0  0
  9 10  1  0  0  0
  9 27  2  0  0  0
 10 11  2  0  0  0
 10 15  1  0  0  0
 11 12  1  0  0  0
 11 97  1  0  0  0
 12 13  2  0  0  0
 12 98  1  0  0  0
 13 14  1  0  0  0
 13 31  1  0  0  0
 14 15  2  0  0  0
 14 99  1  0  0  0
 15100  1  0  0  0
 16 17  2  0  0  0
 16 21  1  0  0  0
 16 31  1  0  0  0
 17 18  1  0  0  0
 17101  1  0  0  0
 18 19  2  0  0  0
 18102  1  0  0  0
 19 20  1  0  0  0
 19 24  1  0  0  0
 20 21  2  0  0  0
 20103  1  0  0  0
 21 23  1  0  0  0
 22 28  1  0  0  0
 22 32  2  0  0  0
 26 27  1  0  0  0
 28104  1  0  0  0
 28105  1  0  0  0
 29106  1  0  0  0
 29107  1  0  0  0
 33 34  1  0  0  0
 33 66  1  0  0  0
 33 70  2  0  0  0
 34 36  1  0  0  0
 34 59  1  0  0  0
 34108  1  0  0  0
 35 44  2  0  0  0
 35 45  1  0  0  0
 35 68  1  0  0  0
 36 56  1  0  0  0
 36109  1  0  0  0
 37 39  1  0  0  0
 37 47  1  0  0  0
 37 66  1  0  0  0
 37110  1  0  0  0
 38 43  2  0  0  0
 38 46  1  0  0  0
 38 47  1  0  0  0
 39 64  1  0  0  0
 39 67  2  0  0  0
 40 52  1  0  0  0
 40 53  2  0  0  0
 40 58  1  0  0  0
 41111  1  0  0  0
 41112  1  0  0  0
 41113  1  0  0  0
 41 48  1  0  0  0
 42 43  1  0  0  0
 42 66  1  0  0  0
 42114  1  0  0  0
 42115  1  0  0  0
 43 44  1  0  0  0
 44116  1  0  0  0
 45 46  2  0  0  0
 45117  1  0  0  0
 46118  1  0  0  0
 47119  1  0  0  0
 47120  1  0  0  0
 48 56  1  0  0  0
 48 65  1  0  0  0
 48121  1  0  0  0
 49 50  1  0  0  0
 49 53  1  0  0  0
 49 64  1  0  0  0
 49122  1  0  0  0
 50 51  1  0  0  0
 50123  1  0  0  0
 50124  1  0  0  0
 51 52  1  0  0  0
 51125  1  0  0  0
 51126  1  0  0  0
 52127  1  0  0  0
 52128  1  0  0  0
 53 54  1  0  0  0
 54 55  2  0  0  0
 54129  1  0  0  0
 55 57  1  0  0  0
 55130  1  0  0  0
 56 69  2  0  0  0
 57 58  2  0  0  0
 57131  1  0  0  0
 58132  1  0  0  0
 59 60  1  0  0  0
 59 61  1  0  0  0
 59 62  1  0  0  0
 60133  1  0  0  0
 60134  1  0  0  0
 60135  1  0  0  0
 61136  1  0  0  0
 61137  1  0  0  0
 61138  1  0  0  0
 62139  1  0  0  0
 62140  1  0  0  0
 62141  1  0  0  0
 63 65  1  0  0  0
 63142  1  0  0  0
 63143  1  0  0  0
 63144  1  0  0  0
 64145  1  0  0  0
 65146  1  0  0  0
 68 84  1  0  0  0
 71 72  2  0  0  0
 71 75  1  0  0  0
 71147  1  0  0  0
 72 76  1  0  0  0
 72148  1  0  0  0
 73 74  1  0  0  0
 73 75  2  0  0  0
 73149  1  0  0  0
 74 76  2  0  0  0
 74 80  1  0  0  0
 75 81  1  0  0  0
 76 87  1  0  0  0
 77 78  1  0  0  0
 77 79  1  0  0  0
 77150  1  0  0  0
 77151  1  0  0  0
 78 80  1  0  0  0
 78152  1  0  0  0
 78153  1  0  0  0
 79 85  1  0  0  0
 79154  1  0  0  0
 79155  1  0  0  0
 80 85  1  0  0  0
 80156  1  0  0  0
 81 86  1  0  0  0
 81157  1  0  0  0
 81158  1  0  0  0
 82 83  1  0  0  0
 82 84  1  0  0  0
 82159  1  0  0  0
 82160  1  0  0  0
 83 86  1  0  0  0
 83161  1  0  0  0
 83162  1  0  0  0
 84163  1  0  0  0
 84164  1  0  0  0
 86165  1  0  0  0
 86166  1  0  0  0
M  CHG  1  86   1
M  ISO  4   1 100  68 101  84 101  85 100
M  END
> <chiral flag>
0

> <version>
0

> <s_m_source_file>
/data/baiqing/PycharmProjects/Reinvent-master-3.2/result/LINK_invent/BTK/process_docking_weight1_custom_product_contain_oxygen_bond_distance_aromatic_linkinvent_7_9_3/rearranged_h_0005.sdf

> <i_m_source_file_index>
66

> <r_mmod_Potential_Energy-OPLS-2005>
10760.03125

> <r_mmod_Stretch_Energy-OPLS-2005>
6026.57958984375

> <r_mmod_Bend_Energy-OPLS-2005>
685.405883789062

> <r_mmod_Torsional_Energy-OPLS-2005>
550.004089355469

> <r_mmod_Improper_Torsional_Energy-OPLS-2005>
38.8738822937012

> <r_mmod_Van_der_Waal_Energy-OPLS-2005>
2951.5615234375

> <r_mmod_Electrostatic_Energy-OPLS-2005>
-223.210403442383

> <r_mmod_Solvation_Energy-OPLS-2005>
-469.333404541016

> <b_mmod_Minimization_Converged-OPLS-2005>
0

> <r_mmod_RMS_Derivative-OPLS-2005>
13.7022409439087

$$$$
66
                    3D
 Structure written by MMmdl.
188199  0  0  1  0            999 V2000
  -30.7821  -14.3556   20.6467 C   0  0  0  0  0  0
  -30.4060  -12.2728   19.3996 C   0  0  0  0  0  0
  -29.4798  -12.5243   18.1955 C   0  0  0  0  0  0
  -28.0041  -12.3824   18.6101 C   0  0  0  0  0  0
  -27.6652  -13.2027   19.8823 C   0  0  2  0  0  0
  -28.7062  -12.9557   20.9981 C   0  0  0  0  0  0
  -25.2600  -13.8151   20.5666 C   0  0  0  0  0  0
  -24.1849  -13.0444   20.9151 C   0  0  0  0  0  0
  -24.6387  -11.6906   20.8723 C   0  0  0  0  0  0
  -23.9049  -10.4295   21.0390 C   0  0  0  0  0  0
  -24.3611   -9.4214   21.9174 C   0  0  0  0  0  0
  -23.6292   -8.2249   22.0755 C   0  0  0  0  0  0
  -22.4275   -8.0280   21.3542 C   0  0  0  0  0  0
  -21.9899   -9.0250   20.4640 C   0  0  0  0  0  0
  -22.7219  -10.2132   20.3047 C   0  0  0  0  0  0
  -21.6857   -6.0731   22.5275 C   0  0  0  0  0  0
  -21.4014   -6.5632   23.8206 C   0  0  0  0  0  0
  -21.3660   -5.6792   24.9167 C   0  0  0  0  0  0
  -21.6047   -4.3054   24.7222 C   0  0  0  0  0  0
  -21.8824   -3.8143   23.4340 C   0  0  0  0  0  0
  -21.9190   -4.6958   22.3394 C   0  0  0  0  0  0
  -22.7861  -13.5239   21.1825 C   0  0  0  0  0  0
  -22.1661   -4.2139   21.0972 F   0  0  0  0  0  0
  -21.5633   -3.4542   25.7739 F   0  0  0  0  0  0
  -30.0507  -13.2277   20.4566 N   0  0  0  0  0  0
  -26.3043  -12.9319   20.3394 N   0  0  0  0  0  0
  -25.9313  -11.6481   20.5770 N   0  0  0  0  0  0
  -22.0513  -12.8244   22.0371 N   0  0  0  0  0  0
  -25.4319  -15.1878   20.4076 N   0  0  0  0  0  0
  -31.8133  -14.6068   20.0183 O   0  0  0  0  0  0
  -21.6644   -6.8878   21.4241 O   0  0  0  0  0  0
  -22.3547  -14.5547   20.6665 O   0  0  0  0  0  0
  -24.6079  -31.8713   23.2151 C   0  0  0  0  0  0
  -25.9006  -32.4848   23.8408 C   0  0  1  0  0  0
  -27.2340  -27.4984   20.0617 C   0  0  0  0  0  0
  -25.5908  -33.8651   24.2374 N   0  0  0  0  0  0
  -23.3933  -30.4973   21.5531 C   0  0  2  0  0  0
  -24.8374  -28.9715   20.1077 C   0  0  0  0  0  0
  -22.7366  -29.4648   22.4972 C   0  0  0  0  0  0
  -18.0246  -28.1388   22.8469 C   0  0  0  0  0  0
  -24.1509  -36.7334   23.2634 C   0  0  0  0  0  0
  -25.9162  -30.8542   21.3588 C   0  0  0  0  0  0
  -25.9926  -29.4945   20.7006 C   0  0  0  0  0  0
  -27.1938  -28.7631   20.6756 C   0  0  0  0  0  0
  -26.0687  -26.9737   19.4624 C   0  0  0  0  0  0
  -24.8653  -27.7060   19.4908 C   0  0  0  0  0  0
  -23.5980  -29.8338   20.1640 C   0  0  0  0  0  0
  -25.4130  -36.3155   24.0349 C   0  0  1  0  0  0
  -20.5821  -28.3652   23.1296 C   0  0  2  0  0  0
  -20.6782  -26.9368   22.5428 C   0  0  0  0  0  0
  -19.5775  -26.6372   21.5213 C   0  0  0  0  0  0
  -18.1914  -26.7933   22.1577 C   0  0  0  0  0  0
  -19.1487  -28.8830   23.2892 C   0  0  0  0  0  0
  -18.9441  -30.1434   23.8900 C   0  0  0  0  0  0
  -17.6458  -30.6594   24.0554 C   0  0  0  0  0  0
  -25.9051  -34.9494   23.5154 C   0  0  0  0  0  0
  -16.5343  -29.9112   23.6327 C   0  0  0  0  0  0
  -16.7240  -28.6532   23.0336 C   0  0  0  0  0  0
  -26.4472  -31.6566   25.0685 C   0  0  0  0  0  0
  -25.3790  -31.3629   26.1457 C   0  0  0  0  0  0
  -27.0260  -30.3008   24.6008 C   0  0  0  0  0  0
  -27.6047  -32.4233   25.7487 C   0  0  0  0  0  0
  -27.5598  -37.1830   24.8464 C   0  0  0  0  0  0
  -21.4089  -29.3034   22.3715 N   0  0  0  0  0  0
  -26.4336  -37.3822   23.9391 N   0  0  0  0  0  0
  -24.6571  -31.0859   22.1034 N   0  0  0  0  0  0
  -23.4168  -28.8117   23.2937 O   0  0  0  0  0  0
  -28.4035  -26.7854   20.0728 O   0  0  0  0  0  0
  -26.5588  -34.8924   22.4694 O   0  0  0  0  0  0
  -23.5283  -32.1393   23.7617 O   0  0  0  0  0  0
  -29.0381  -22.4829   25.5156 C   0  0  0  0  0  0
  -27.0331  -21.6643   24.4150 C   0  0  0  0  0  0
  -29.7133  -21.2955   25.1838 C   0  0  0  0  0  0
  -27.7019  -20.4658   24.1095 C   0  0  0  0  0  0
  -27.7058  -22.7062   25.0980 C   0  0  0  0  0  0
  -29.0555  -20.2746   24.4675 C   0  0  0  0  0  0
  -30.8014  -19.3006   19.2386 C   0  0  0  0  0  0
  -30.2021  -17.9034   19.0196 C   0  0  0  0  0  0
  -31.4025  -19.4433   20.6478 C   0  0  0  0  0  0
  -29.1803  -17.5531   20.1175 C   0  0  0  0  0  0
  -28.6175  -17.5017   22.5852 C   0  0  0  0  0  0
  -25.8095  -24.3662   24.5078 C   0  0  0  0  0  0
  -29.0454  -17.8411   24.0345 C   0  0  0  0  0  0
  -30.8647  -19.3105   23.1722 C   0  0  0  0  0  0
  -26.3412  -24.6795   23.1008 C   0  0  0  0  0  0
  -27.9738  -25.1862   24.7257 C   0  0  0  0  0  0
  -27.0790  -24.0916   25.3304 C   0  0  2  0  0  0
  -30.3602  -19.0852   21.7313 C   0  0  2  0  0  0
  -29.7665  -17.6526   21.5557 C   0  0  2  0  0  0
  -30.8309  -16.5434   21.8112 C   0  0  0  0  0  0
  -28.3159  -26.0697   22.4158 C   0  0  0  0  0  0
  -28.3567  -25.6482   20.9251 C   0  0  0  0  0  0
  -29.7678  -19.1123   24.1216 N   0  0  0  0  0  0
  -30.3068  -15.2003   21.5644 N   0  0  0  0  0  0
  -27.7797  -24.9973   23.2776 N   0  3  2  0  0  0
  -31.4515  -12.3510   19.0961 H   0  0  0  0  0  0
  -30.2833  -11.2536   19.7702 H   0  0  0  0  0  0
  -29.7129  -11.8313   17.3861 H   0  0  0  0  0  0
  -29.6517  -13.5270   17.7999 H   0  0  0  0  0  0
  -27.8076  -11.3237   18.7841 H   0  0  0  0  0  0
  -27.3531  -12.6785   17.7871 H   0  0  0  0  0  0
  -27.7195  -14.2552   19.6059 H   0  0  0  0  0  0
  -28.6602  -11.9183   21.3339 H   0  0  0  0  0  0
  -28.4598  -13.5503   21.8775 H   0  0  0  0  0  0
  -25.2754   -9.5701   22.4745 H   0  0  0  0  0  0
  -23.9999   -7.4648   22.7475 H   0  0  0  0  0  0
  -21.0832   -8.8752   19.8949 H   0  0  0  0  0  0
  -22.3659  -10.9670   19.6158 H   0  0  0  0  0  0
  -21.2009   -7.6145   23.9701 H   0  0  0  0  0  0
  -21.1481   -6.0526   25.9071 H   0  0  0  0  0  0
  -22.0604   -2.7605   23.2844 H   0  0  0  0  0  0
  -22.4146  -11.9912   22.4772 H   0  0  0  0  0  0
  -21.1128  -13.1261   22.2600 H   0  0  0  0  0  0
  -24.6639  -15.8417   20.5105 H   0  0  0  0  0  0
  -26.2903  -15.6270   20.1044 H   0  0  0  0  0  0
  -26.7061  -32.5577   23.1152 H   0  0  0  0  0  0
  -25.0149  -33.9867   25.0579 H   0  0  0  0  0  0
  -22.6781  -31.3106   21.4167 H   0  0  0  0  0  0
  -23.3797  -35.9647   23.3337 H   0  0  0  0  0  0
  -24.3586  -36.8926   22.2042 H   0  0  0  0  0  0
  -23.7239  -37.6531   23.6625 H   0  0  0  0  0  0
  -26.0226  -31.6287   20.5989 H   0  0  0  0  0  0
  -26.8097  -30.9048   21.9707 H   0  0  0  0  0  0
  -28.0841  -29.1534   21.1431 H   0  0  0  0  0  0
  -26.0916  -26.0131   18.9665 H   0  0  0  0  0  0
  -23.9781  -27.2994   19.0261 H   0  0  0  0  0  0
  -23.6953  -30.6134   19.4077 H   0  0  0  0  0  0
  -22.7255  -29.2505   19.8671 H   0  0  0  0  0  0
  -25.1277  -36.2076   25.0852 H   0  0  0  0  0  0
  -20.9893  -28.3258   24.1421 H   0  0  0  0  0  0
  -20.5722  -26.2210   23.3597 H   0  0  0  0  0  0
  -21.6642  -26.7468   22.1155 H   0  0  0  0  0  0
  -19.6958  -25.6296   21.1216 H   0  0  0  0  0  0
  -19.6796  -27.3177   20.6739 H   0  0  0  0  0  0
  -17.4189  -26.6638   21.3980 H   0  0  0  0  0  0
  -18.0339  -26.0106   22.9003 H   0  0  0  0  0  0
  -19.7948  -30.7222   24.2259 H   0  0  0  0  0  0
  -17.5052  -31.6276   24.5139 H   0  0  0  0  0  0
  -15.5350  -30.3028   23.7719 H   0  0  0  0  0  0
  -15.8617  -28.0902   22.7046 H   0  0  0  0  0  0
  -24.5949  -30.7022   25.7775 H   0  0  0  0  0  0
  -24.9002  -32.2774   26.4941 H   0  0  0  0  0  0
  -25.8152  -30.8727   27.0178 H   0  0  0  0  0  0
  -26.2716  -29.6786   24.1193 H   0  0  0  0  0  0
  -27.4173  -29.7228   25.4390 H   0  0  0  0  0  0
  -27.8511  -30.4302   23.9009 H   0  0  0  0  0  0
  -27.2648  -33.3510   26.2097 H   0  0  0  0  0  0
  -28.3857  -32.6831   25.0340 H   0  0  0  0  0  0
  -28.0723  -31.8333   26.5387 H   0  0  0  0  0  0
  -28.2603  -38.0141   24.7468 H   0  0  0  0  0  0
  -28.1092  -36.2648   24.6318 H   0  0  0  0  0  0
  -27.2273  -37.1475   25.8860 H   0  0  0  0  0  0
  -20.9210  -29.8764   21.6971 H   0  0  0  0  0  0
  -26.0258  -38.2905   24.1439 H   0  0  0  0  0  0
  -29.5720  -23.2404   26.0689 H   0  0  0  0  0  0
  -26.0091  -21.7558   24.0838 H   0  0  0  0  0  0
  -30.7475  -21.1780   25.4768 H   0  0  0  0  0  0
  -27.1605  -19.7144   23.5604 H   0  0  0  0  0  0
  -30.0246  -20.0531   19.0955 H   0  0  0  0  0  0
  -31.5595  -19.5069   18.4821 H   0  0  0  0  0  0
  -30.9986  -17.1600   18.9933 H   0  0  0  0  0  0
  -29.7190  -17.8605   18.0422 H   0  0  0  0  0  0
  -31.7457  -20.4702   20.7850 H   0  0  0  0  0  0
  -32.2938  -18.8232   20.7400 H   0  0  0  0  0  0
  -28.7677  -16.5627   19.9284 H   0  0  0  0  0  0
  -28.3346  -18.2366   20.0233 H   0  0  0  0  0  0
  -27.7925  -18.1423   22.2840 H   0  0  0  0  0  0
  -28.1990  -16.4943   22.5616 H   0  0  0  0  0  0
  -25.0435  -23.5945   24.5360 H   0  0  0  0  0  0
  -25.3295  -25.2652   24.8946 H   0  0  0  0  0  0
  -29.6862  -17.0544   24.4346 H   0  0  0  0  0  0
  -28.1721  -17.8557   24.6876 H   0  0  0  0  0  0
  -31.2891  -20.3113   23.2664 H   0  0  0  0  0  0
  -31.6777  -18.6261   23.4153 H   0  0  0  0  0  0
  -25.7739  -25.4919   22.6437 H   0  0  0  0  0  0
  -26.2654  -23.8092   22.4501 H   0  0  0  0  0  0
  -29.0224  -25.1306   25.0124 H   0  0  0  0  0  0
  -27.6179  -26.1746   25.0213 H   0  0  0  0  0  0
  -26.9055  -24.2393   26.3972 H   0  0  0  0  0  0
  -29.5452  -19.7957   21.5809 H   0  0  0  0  0  0
  -31.1877  -16.5565   22.8389 H   0  0  0  0  0  0
  -31.7187  -16.7306   21.2088 H   0  0  0  0  0  0
  -27.7100  -26.9571   22.5892 H   0  0  0  0  0  0
  -29.3246  -26.3284   22.7373 H   0  0  0  0  0  0
  -27.5017  -25.0291   20.6500 H   0  0  0  0  0  0
  -29.2380  -25.0330   20.7351 H   0  0  0  0  0  0
  -29.4843  -14.9153   22.0731 H   0  0  0  0  0  0
  -28.2912  -24.1515   23.0660 H   0  0  0  0  0  0
  1 25  1  0  0  0
  1 30  2  0  0  0
  1 94  1  0  0  0
  2  3  1  0  0  0
  2 25  1  0  0  0
  2 96  1  0  0  0
  2 97  1  0  0  0
  3  4  1  0  0  0
  3 98  1  0  0  0
  3 99  1  0  0  0
  4  5  1  0  0  0
  4100  1  0  0  0
  4101  1  0  0  0
  5  6  1  0  0  0
  5 26  1  0  0  0
  5102  1  0  0  0
  6 25  1  0  0  0
  6103  1  0  0  0
  6104  1  0  0  0
  7  8  2  0  0  0
  7 26  1  0  0  0
  7 29  1  0  0  0
  8  9  1  0  0  0
  8 22  1  0  0  0
  9 10  1  0  0  0
  9 27  2  0  0  0
 10 11  2  0  0  0
 10 15  1  0  0  0
 11 12  1  0  0  0
 11105  1  0  0  0
 12 13  2  0  0  0
 12106  1  0  0  0
 13 14  1  0  0  0
 13 31  1  0  0  0
 14 15  2  0  0  0
 14107  1  0  0  0
 15108  1  0  0  0
 16 17  2  0  0  0
 16 21  1  0  0  0
 16 31  1  0  0  0
 17 18  1  0  0  0
 17109  1  0  0  0
 18 19  2  0  0  0
 18110  1  0  0  0
 19 20  1  0  0  0
 19 24  1  0  0  0
 20 21  2  0  0  0
 20111  1  0  0  0
 21 23  1  0  0  0
 22 28  1  0  0  0
 22 32  2  0  0  0
 26 27  1  0  0  0
 28112  1  0  0  0
 28113  1  0  0  0
 29114  1  0  0  0
 29115  1  0  0  0
 33 34  1  0  0  0
 33 66  1  0  0  0
 33 70  2  0  0  0
 34 36  1  0  0  0
 34 59  1  0  0  0
 34116  1  0  0  0
 35 44  2  0  0  0
 35 45  1  0  0  0
 35 68  1  0  0  0
 36 56  1  0  0  0
 36117  1  0  0  0
 37 39  1  0  0  0
 37 47  1  0  0  0
 37 66  1  0  0  0
 37118  1  0  0  0
 38 43  2  0  0  0
 38 46  1  0  0  0
 38 47  1  0  0  0
 39 64  1  0  0  0
 39 67  2  0  0  0
 40 52  1  0  0  0
 40 53  2  0  0  0
 40 58  1  0  0  0
 41119  1  0  0  0
 41120  1  0  0  0
 41121  1  0  0  0
 41 48  1  0  0  0
 42 43  1  0  0  0
 42 66  1  0  0  0
 42122  1  0  0  0
 42123  1  0  0  0
 43 44  1  0  0  0
 44124  1  0  0  0
 45 46  2  0  0  0
 45125  1  0  0  0
 46126  1  0  0  0
 47127  1  0  0  0
 47128  1  0  0  0
 48 56  1  0  0  0
 48 65  1  0  0  0
 48129  1  0  0  0
 49 50  1  0  0  0
 49 53  1  0  0  0
 49 64  1  0  0  0
 49130  1  0  0  0
 50 51  1  0  0  0
 50131  1  0  0  0
 50132  1  0  0  0
 51 52  1  0  0  0
 51133  1  0  0  0
 51134  1  0  0  0
 52135  1  0  0  0
 52136  1  0  0  0
 53 54  1  0  0  0
 54 55  2  0  0  0
 54137  1  0  0  0
 55 57  1  0  0  0
 55138  1  0  0  0
 56 69  2  0  0  0
 57 58  2  0  0  0
 57139  1  0  0  0
 58140  1  0  0  0
 59 60  1  0  0  0
 59 61  1  0  0  0
 59 62  1  0  0  0
 60141  1  0  0  0
 60142  1  0  0  0
 60143  1  0  0  0
 61144  1  0  0  0
 61145  1  0  0  0
 61146  1  0  0  0
 62147  1  0  0  0
 62148  1  0  0  0
 62149  1  0  0  0
 63 65  1  0  0  0
 63150  1  0  0  0
 63151  1  0  0  0
 63152  1  0  0  0
 64153  1  0  0  0
 65154  1  0  0  0
 68 92  1  0  0  0
 71 73  2  0  0  0
 71 75  1  0  0  0
 71155  1  0  0  0
 72 74  1  0  0  0
 72 75  2  0  0  0
 72156  1  0  0  0
 73 76  1  0  0  0
 73157  1  0  0  0
 74 76  2  0  0  0
 74158  1  0  0  0
 75 87  1  0  0  0
 76 93  1  0  0  0
 77 78  1  0  0  0
 77 79  1  0  0  0
 77159  1  0  0  0
 77160  1  0  0  0
 78 80  1  0  0  0
 78161  1  0  0  0
 78162  1  0  0  0
 79163  1  0  0  0
 79164  1  0  0  0
 79 88  1  0  0  0
 80 89  1  0  0  0
 80165  1  0  0  0
 80166  1  0  0  0
 81 83  1  0  0  0
 81 89  1  0  0  0
 81167  1  0  0  0
 81168  1  0  0  0
 82 85  1  0  0  0
 82 87  1  0  0  0
 82169  1  0  0  0
 82170  1  0  0  0
 83 93  1  0  0  0
 83171  1  0  0  0
 83172  1  0  0  0
 84 88  1  0  0  0
 84 93  1  0  0  0
 84173  1  0  0  0
 84174  1  0  0  0
 85 95  1  0  0  0
 85175  1  0  0  0
 85176  1  0  0  0
 86 87  1  0  0  0
 86 95  1  0  0  0
 86177  1  0  0  0
 86178  1  0  0  0
 87179  1  0  0  0
 88 89  1  0  0  0
 88180  1  0  0  0
 89 90  1  0  0  0
 90 94  1  0  0  0
 90181  1  0  0  0
 90182  1  0  0  0
 91 92  1  0  0  0
 91183  1  0  0  0
 91184  1  0  0  0
 91 95  1  0  0  0
 92185  1  0  0  0
 92186  1  0  0  0
 94187  1  0  0  0
 95188  1  0  0  0
M  CHG  1  95   1
M  ISO  4   1 100  68 101  92 101  94 100
M  END
> <chiral flag>
0

> <version>
0

> <s_m_source_file>
/data/baiqing/PycharmProjects/Reinvent-master-3.2/result/LINK_invent/BTK/process_docking_weight1_custom_product_contain_oxygen_bond_distance_aromatic_linkinvent_7_9_3/rearranged_h_0005.sdf

> <i_m_source_file_index>
67

> <r_mmod_Potential_Energy-OPLS-2005>
-17.0728054046631

> <r_mmod_Stretch_Energy-OPLS-2005>
38.0644302368164

> <r_mmod_Bend_Energy-OPLS-2005>
149.594055175781

> <r_mmod_Torsional_Energy-OPLS-2005>
364.516357421875

> <r_mmod_Improper_Torsional_Energy-OPLS-2005>
4.6298131942749

> <r_mmod_Van_der_Waal_Energy-OPLS-2005>
170.800964355469

> <r_mmod_Electrostatic_Energy-OPLS-2005>
-326.986419677734

> <r_mmod_Solvation_Energy-OPLS-2005>
-425.408355712891

> <b_mmod_Minimization_Converged-OPLS-2005>
0

> <r_mmod_RMS_Derivative-OPLS-2005>
4.02093315124512

$$$$
67
                    3D
 Structure written by MMmdl.
185193  0  0  1  0            999 V2000
  -30.7431  -14.4256   20.5634 C   0  0  0  0  0  0
  -30.4142  -12.2845   19.3946 C   0  0  0  0  0  0
  -29.4815  -12.5114   18.1879 C   0  0  0  0  0  0
  -28.0034  -12.3955   18.6020 C   0  0  0  0  0  0
  -27.6654  -13.2057   19.8818 C   0  0  2  0  0  0
  -28.7181  -12.9715   20.9927 C   0  0  0  0  0  0
  -25.2681  -13.8063   20.5735 C   0  0  0  0  0  0
  -24.1840  -13.0437   20.9165 C   0  0  0  0  0  0
  -24.6387  -11.6891   20.8747 C   0  0  0  0  0  0
  -23.9051  -10.4293   21.0426 C   0  0  0  0  0  0
  -24.3603   -9.4206   21.9176 C   0  0  0  0  0  0
  -23.6278   -8.2249   22.0740 C   0  0  0  0  0  0
  -22.4258   -8.0284   21.3540 C   0  0  0  0  0  0
  -21.9892   -9.0269   20.4643 C   0  0  0  0  0  0
  -22.7234  -10.2155   20.3059 C   0  0  0  0  0  0
  -21.6855   -6.0720   22.5265 C   0  0  0  0  0  0
  -21.4038   -6.5635   23.8202 C   0  0  0  0  0  0
  -21.3659   -5.6790   24.9156 C   0  0  0  0  0  0
  -21.6046   -4.3050   24.7214 C   0  0  0  0  0  0
  -21.8815   -3.8136   23.4322 C   0  0  0  0  0  0
  -21.9198   -4.6947   22.3393 C   0  0  0  0  0  0
  -22.7902  -13.5354   21.1774 C   0  0  0  0  0  0
  -22.1652   -4.2136   21.0962 F   0  0  0  0  0  0
  -21.5621   -3.4545   25.7726 F   0  0  0  0  0  0
  -30.0499  -13.2615   20.4320 N   0  0  0  0  0  0
  -26.3081  -12.9250   20.3392 N   0  0  0  0  0  0
  -25.9336  -11.6427   20.5770 N   0  0  0  0  0  0
  -22.0467  -12.8378   22.0267 N   0  0  0  0  0  0
  -25.4595  -15.1709   20.4273 N   0  0  0  0  0  0
  -31.8445  -14.6110   20.0471 O   0  0  0  0  0  0
  -21.6624   -6.8876   21.4231 O   0  0  0  0  0  0
  -22.3723  -14.5775   20.6640 O   0  0  0  0  0  0
  -24.6177  -31.8753   23.2266 C   0  0  0  0  0  0
  -25.9071  -32.4867   23.8531 C   0  0  1  0  0  0
  -27.1838  -27.4346   20.0630 C   0  0  0  0  0  0
  -25.5955  -33.8665   24.2472 N   0  0  0  0  0  0
  -23.4010  -30.5067   21.5736 C   0  0  2  0  0  0
  -24.8332  -29.0024   20.1051 C   0  0  0  0  0  0
  -22.7469  -29.4609   22.5123 C   0  0  0  0  0  0
  -18.0244  -28.1333   22.8491 C   0  0  0  0  0  0
  -24.1474  -36.7330   23.2632 C   0  0  0  0  0  0
  -25.9350  -30.8226   21.3956 C   0  0  0  0  0  0
  -25.9944  -29.4656   20.7362 C   0  0  0  0  0  0
  -27.1700  -28.6766   20.7409 C   0  0  0  0  0  0
  -26.0555  -27.0920   19.3015 C   0  0  0  0  0  0
  -24.8529  -27.8062   19.3846 C   0  0  0  0  0  0
  -23.6062  -29.8776   20.1743 C   0  0  0  0  0  0
  -25.4087  -36.3150   24.0369 C   0  0  1  0  0  0
  -20.5854  -28.3593   23.1378 C   0  0  2  0  0  0
  -20.6755  -26.9385   22.5392 C   0  0  0  0  0  0
  -19.5713  -26.6463   21.5179 C   0  0  0  0  0  0
  -18.1896  -26.7885   22.1647 C   0  0  0  0  0  0
  -19.1496  -28.8793   23.2908 C   0  0  0  0  0  0
  -18.9430  -30.1434   23.8867 C   0  0  0  0  0  0
  -17.6429  -30.6574   24.0501 C   0  0  0  0  0  0
  -25.9014  -34.9509   23.5207 C   0  0  0  0  0  0
  -16.5314  -29.9075   23.6272 C   0  0  0  0  0  0
  -16.7233  -28.6466   23.0346 C   0  0  0  0  0  0
  -26.4475  -31.6619   25.0844 C   0  0  0  0  0  0
  -25.3789  -31.3710   26.1658 C   0  0  0  0  0  0
  -27.0296  -30.3066   24.6192 C   0  0  0  0  0  0
  -27.6067  -32.4352   25.7588 C   0  0  0  0  0  0
  -27.5583  -37.1833   24.8463 C   0  0  0  0  0  0
  -21.4213  -29.2973   22.3875 N   0  0  0  0  0  0
  -26.4282  -37.3824   23.9429 N   0  0  0  0  0  0
  -24.6694  -31.0831   22.1196 N   0  0  0  0  0  0
  -23.4292  -28.8128   23.3103 O   0  0  0  0  0  0
  -28.2710  -26.5896   20.1346 O   0  0  0  0  0  0
  -26.5520  -34.8919   22.4738 O   0  0  0  0  0  0
  -23.5365  -32.1521   23.7643 O   0  0  0  0  0  0
  -28.5657  -19.6820   19.3924 C   0  0  0  0  0  0
  -29.6033  -18.8108   19.7830 C   0  0  0  0  0  0
  -27.2580  -19.4830   19.8693 C   0  0  0  0  0  0
  -28.0238  -17.5418   21.1327 C   0  0  0  0  0  0
  -29.3409  -17.7392   20.6631 C   0  0  0  0  0  0
  -26.9742  -18.3964   20.7290 C   0  0  0  0  0  0
  -24.5461  -23.3725   20.7797 C   0  0  0  0  0  0
  -23.0647  -24.0802   18.9100 C   0  0  0  0  0  0
  -30.4714  -16.8334   21.1418 C   0  0  0  0  0  0
  -25.7273  -23.9603   19.9807 C   0  0  0  0  0  0
  -27.0460  -24.3665   20.7079 C   0  0  0  0  0  0
  -21.6397  -20.6509   20.6372 C   0  0  0  0  0  0
  -21.1637  -22.0849   20.3687 C   0  0  0  0  0  0
  -20.8128  -19.6043   19.8625 C   0  0  0  0  0  0
  -22.0544  -23.1986   20.9761 C   0  0  0  0  0  0
  -20.9560  -18.1413   20.3406 C   0  0  0  0  0  0
  -23.3496  -17.8323   20.9922 C   0  0  0  0  0  0
  -28.0633  -25.1854   19.8281 C   0  0  0  0  0  0
  -24.6458  -18.2542   20.2867 C   0  0  0  0  0  0
  -30.0908  -15.4181   21.1801 N   0  0  0  0  0  0
  -23.2992  -23.4514   20.2250 N   0  0  0  0  0  0
  -22.2697  -17.5449   20.0222 N   0  3  0  0  0  0
  -24.7549  -22.8932   21.8975 O   0  0  0  0  0  0
  -25.7157  -18.1532   21.2210 O   0  0  0  0  0  0
  -31.4562  -12.3735   19.0777 H   0  0  0  0  0  0
  -30.3084  -11.2672   19.7758 H   0  0  0  0  0  0
  -29.7055  -11.8008   17.3950 H   0  0  0  0  0  0
  -29.6652  -13.5007   17.7663 H   0  0  0  0  0  0
  -27.7761  -11.3416   18.7501 H   0  0  0  0  0  0
  -27.3646  -12.7255   17.7823 H   0  0  0  0  0  0
  -27.7155  -14.2596   19.6056 H   0  0  0  0  0  0
  -28.6872  -11.9374   21.3337 H   0  0  0  0  0  0
  -28.4890  -13.5733   21.8764 H   0  0  0  0  0  0
  -25.2745   -9.5676   22.4762 H   0  0  0  0  0  0
  -23.9986   -7.4628   22.7469 H   0  0  0  0  0  0
  -21.0818   -8.8793   19.8958 H   0  0  0  0  0  0
  -22.3672  -10.9700   19.6170 H   0  0  0  0  0  0
  -21.2047   -7.6143   23.9709 H   0  0  0  0  0  0
  -21.1496   -6.0501   25.9064 H   0  0  0  0  0  0
  -22.0604   -2.7606   23.2811 H   0  0  0  0  0  0
  -22.3981  -11.9973   22.4586 H   0  0  0  0  0  0
  -21.1084  -13.1469   22.2476 H   0  0  0  0  0  0
  -24.8018  -15.8215   20.8255 H   0  0  0  0  0  0
  -26.3629  -15.5803   20.2300 H   0  0  0  0  0  0
  -26.7154  -32.5581   23.1306 H   0  0  0  0  0  0
  -25.0230  -33.9844   25.0710 H   0  0  0  0  0  0
  -22.6819  -31.3212   21.4580 H   0  0  0  0  0  0
  -23.3749  -35.9648   23.3301 H   0  0  0  0  0  0
  -24.3545  -36.8932   22.2034 H   0  0  0  0  0  0
  -23.7207  -37.6548   23.6608 H   0  0  0  0  0  0
  -26.0709  -31.5863   20.6290 H   0  0  0  0  0  0
  -26.8178  -30.8593   22.0240 H   0  0  0  0  0  0
  -28.0516  -29.0083   21.2720 H   0  0  0  0  0  0
  -26.1023  -26.2888   18.5869 H   0  0  0  0  0  0
  -23.9890  -27.4842   18.8216 H   0  0  0  0  0  0
  -23.7325  -30.6723   19.4397 H   0  0  0  0  0  0
  -22.7216  -29.3189   19.8626 H   0  0  0  0  0  0
  -25.1245  -36.2048   25.0856 H   0  0  0  0  0  0
  -20.9841  -28.3044   24.1544 H   0  0  0  0  0  0
  -20.5635  -26.2178   23.3532 H   0  0  0  0  0  0
  -21.6634  -26.7462   22.1195 H   0  0  0  0  0  0
  -19.6866  -25.6436   21.1039 H   0  0  0  0  0  0
  -19.6615  -27.3403   20.6810 H   0  0  0  0  0  0
  -17.4188  -26.6623   21.4066 H   0  0  0  0  0  0
  -18.0357  -25.9971   22.8990 H   0  0  0  0  0  0
  -19.7879  -30.7241   24.2300 H   0  0  0  0  0  0
  -17.4966  -31.6251   24.5089 H   0  0  0  0  0  0
  -15.5317  -30.2989   23.7545 H   0  0  0  0  0  0
  -15.8641  -28.0756   22.7119 H   0  0  0  0  0  0
  -24.5951  -30.7025   25.8083 H   0  0  0  0  0  0
  -24.8982  -32.2840   26.5165 H   0  0  0  0  0  0
  -25.8208  -30.8902   27.0401 H   0  0  0  0  0  0
  -26.2829  -29.6895   24.1177 H   0  0  0  0  0  0
  -27.4016  -29.7212   25.4611 H   0  0  0  0  0  0
  -27.8698  -30.4433   23.9393 H   0  0  0  0  0  0
  -27.2683  -33.3647   26.2181 H   0  0  0  0  0  0
  -28.3830  -32.6943   25.0382 H   0  0  0  0  0  0
  -28.0773  -31.8494   26.5501 H   0  0  0  0  0  0
  -28.2626  -38.0109   24.7507 H   0  0  0  0  0  0
  -28.1071  -36.2657   24.6297 H   0  0  0  0  0  0
  -27.2296  -37.1482   25.8863 H   0  0  0  0  0  0
  -20.9408  -29.8906   21.7261 H   0  0  0  0  0  0
  -26.0203  -38.2922   24.1424 H   0  0  0  0  0  0
  -28.7757  -20.5179   18.7378 H   0  0  0  0  0  0
  -30.6062  -18.9862   19.4135 H   0  0  0  0  0  0
  -26.4930  -20.1935   19.5887 H   0  0  0  0  0  0
  -27.8092  -16.7317   21.8120 H   0  0  0  0  0  0
  -23.6918  -23.6309   18.1351 H   0  0  0  0  0  0
  -23.2778  -25.1494   18.9532 H   0  0  0  0  0  0
  -22.0340  -24.0035   18.5735 H   0  0  0  0  0  0
  -30.7588  -17.1611   22.1405 H   0  0  0  0  0  0
  -31.3468  -16.9997   20.5084 H   0  0  0  0  0  0
  -25.2752  -24.8613   19.6287 H   0  0  0  0  0  0
  -25.9347  -23.3484   19.1057 H   0  0  0  0  0  0
  -27.5352  -23.4460   21.0162 H   0  0  0  0  0  0
  -26.8322  -24.9072   21.6288 H   0  0  0  0  0  0
  -21.5680  -20.4553   21.7081 H   0  0  0  0  0  0
  -22.6874  -20.5682   20.3668 H   0  0  0  0  0  0
  -20.1624  -22.1870   20.7946 H   0  0  0  0  0  0
  -21.0334  -22.2222   19.2931 H   0  0  0  0  0  0
  -21.0428  -19.6731   18.7957 H   0  0  0  0  0  0
  -19.7584  -19.8617   19.9489 H   0  0  0  0  0  0
  -22.2490  -22.9793   22.0299 H   0  0  0  0  0  0
  -21.4866  -24.1317   20.9720 H   0  0  0  0  0  0
  -20.2058  -17.5408   19.8250 H   0  0  0  0  0  0
  -20.7333  -18.0422   21.4062 H   0  0  0  0  0  0
  -23.0645  -18.5988   21.7108 H   0  0  0  0  0  0
  -23.5098  -16.9287   21.5794 H   0  0  0  0  0  0
  -29.0460  -24.7374   19.9826 H   0  0  0  0  0  0
  -27.8557  -25.0380   18.7657 H   0  0  0  0  0  0
  -24.5380  -19.2627   19.8909 H   0  0  0  0  0  0
  -24.8488  -17.5954   19.4390 H   0  0  0  0  0  0
  -29.2041  -15.1880   21.5970 H   0  0  0  0  0  0
  -22.5375  -17.8295   19.0921 H   0  0  0  0  0  0
  -22.1554  -16.5366   20.0028 H   0  0  0  0  0  0
  1 25  1  0  0  0
  1 30  2  0  0  0
  1 90  1  0  0  0
  2  3  1  0  0  0
  2 25  1  0  0  0
  2 95  1  0  0  0
  2 96  1  0  0  0
  3  4  1  0  0  0
  3 97  1  0  0  0
  3 98  1  0  0  0
  4  5  1  0  0  0
  4 99  1  0  0  0
  4100  1  0  0  0
  5  6  1  0  0  0
  5 26  1  0  0  0
  5101  1  0  0  0
  6 25  1  0  0  0
  6102  1  0  0  0
  6103  1  0  0  0
  7  8  2  0  0  0
  7 26  1  0  0  0
  7 29  1  0  0  0
  8  9  1  0  0  0
  8 22  1  0  0  0
  9 10  1  0  0  0
  9 27  2  0  0  0
 10 11  2  0  0  0
 10 15  1  0  0  0
 11 12  1  0  0  0
 11104  1  0  0  0
 12 13  2  0  0  0
 12105  1  0  0  0
 13 14  1  0  0  0
 13 31  1  0  0  0
 14 15  2  0  0  0
 14106  1  0  0  0
 15107  1  0  0  0
 16 17  2  0  0  0
 16 21  1  0  0  0
 16 31  1  0  0  0
 17 18  1  0  0  0
 17108  1  0  0  0
 18 19  2  0  0  0
 18109  1  0  0  0
 19 20  1  0  0  0
 19 24  1  0  0  0
 20 21  2  0  0  0
 20110  1  0  0  0
 21 23  1  0  0  0
 22 28  1  0  0  0
 22 32  2  0  0  0
 26 27  1  0  0  0
 28111  1  0  0  0
 28112  1  0  0  0
 29113  1  0  0  0
 29114  1  0  0  0
 33 34  1  0  0  0
 33 66  1  0  0  0
 33 70  2  0  0  0
 34 36  1  0  0  0
 34 59  1  0  0  0
 34115  1  0  0  0
 35 44  2  0  0  0
 35 45  1  0  0  0
 35 68  1  0  0  0
 36 56  1  0  0  0
 36116  1  0  0  0
 37 39  1  0  0  0
 37 47  1  0  0  0
 37 66  1  0  0  0
 37117  1  0  0  0
 38 43  2  0  0  0
 38 46  1  0  0  0
 38 47  1  0  0  0
 39 64  1  0  0  0
 39 67  2  0  0  0
 40 52  1  0  0  0
 40 53  2  0  0  0
 40 58  1  0  0  0
 41118  1  0  0  0
 41119  1  0  0  0
 41120  1  0  0  0
 41 48  1  0  0  0
 42 43  1  0  0  0
 42 66  1  0  0  0
 42121  1  0  0  0
 42122  1  0  0  0
 43 44  1  0  0  0
 44123  1  0  0  0
 45 46  2  0  0  0
 45124  1  0  0  0
 46125  1  0  0  0
 47126  1  0  0  0
 47127  1  0  0  0
 48 56  1  0  0  0
 48 65  1  0  0  0
 48128  1  0  0  0
 49 50  1  0  0  0
 49 53  1  0  0  0
 49 64  1  0  0  0
 49129  1  0  0  0
 50 51  1  0  0  0
 50130  1  0  0  0
 50131  1  0  0  0
 51 52  1  0  0  0
 51132  1  0  0  0
 51133  1  0  0  0
 52134  1  0  0  0
 52135  1  0  0  0
 53 54  1  0  0  0
 54 55  2  0  0  0
 54136  1  0  0  0
 55 57  1  0  0  0
 55137  1  0  0  0
 56 69  2  0  0  0
 57 58  2  0  0  0
 57138  1  0  0  0
 58139  1  0  0  0
 59 60  1  0  0  0
 59 61  1  0  0  0
 59 62  1  0  0  0
 60140  1  0  0  0
 60141  1  0  0  0
 60142  1  0  0  0
 61143  1  0  0  0
 61144  1  0  0  0
 61145  1  0  0  0
 62146  1  0  0  0
 62147  1  0  0  0
 62148  1  0  0  0
 63 65  1  0  0  0
 63149  1  0  0  0
 63150  1  0  0  0
 63151  1  0  0  0
 64152  1  0  0  0
 65153  1  0  0  0
 68 88  1  0  0  0
 71 72  2  0  0  0
 71 73  1  0  0  0
 71154  1  0  0  0
 72 75  1  0  0  0
 72155  1  0  0  0
 73 76  2  0  0  0
 73156  1  0  0  0
 74 75  2  0  0  0
 74 76  1  0  0  0
 74157  1  0  0  0
 75 79  1  0  0  0
 76 94  1  0  0  0
 77 80  1  0  0  0
 77 91  1  0  0  0
 77 93  2  0  0  0
 78 91  1  0  0  0
 78158  1  0  0  0
 78159  1  0  0  0
 78160  1  0  0  0
 79 90  1  0  0  0
 79161  1  0  0  0
 79162  1  0  0  0
 80 81  1  0  0  0
 80163  1  0  0  0
 80164  1  0  0  0
 81 88  1  0  0  0
 81165  1  0  0  0
 81166  1  0  0  0
 82 83  1  0  0  0
 82 84  1  0  0  0
 82167  1  0  0  0
 82168  1  0  0  0
 83 85  1  0  0  0
 83169  1  0  0  0
 83170  1  0  0  0
 84 86  1  0  0  0
 84171  1  0  0  0
 84172  1  0  0  0
 85 91  1  0  0  0
 85173  1  0  0  0
 85174  1  0  0  0
 86 92  1  0  0  0
 86175  1  0  0  0
 86176  1  0  0  0
 87 89  1  0  0  0
 87 92  1  0  0  0
 87177  1  0  0  0
 87178  1  0  0  0
 88179  1  0  0  0
 88180  1  0  0  0
 89 94  1  0  0  0
 89181  1  0  0  0
 89182  1  0  0  0
 90183  1  0  0  0
 92184  1  0  0  0
 92185  1  0  0  0
M  CHG  1  92   1
M  ISO  4   1 100  68 101  88 101  90 100
M  END
> <chiral flag>
0

> <version>
0

> <s_m_source_file>
/data/baiqing/PycharmProjects/Reinvent-master-3.2/result/LINK_invent/BTK/process_docking_weight1_custom_product_contain_oxygen_bond_distance_aromatic_linkinvent_7_9_3/rearranged_h_0005.sdf

> <i_m_source_file_index>
68

> <r_mmod_Potential_Energy-OPLS-2005>
-164.599426269531

> <r_mmod_Stretch_Energy-OPLS-2005>
44.0531349182129

> <r_mmod_Bend_Energy-OPLS-2005>
121.830459594727

> <r_mmod_Torsional_Energy-OPLS-2005>
284.909515380859

> <r_mmod_Improper_Torsional_Energy-OPLS-2005>
5.15809345245361

> <r_mmod_Van_der_Waal_Energy-OPLS-2005>
163.080657958984

> <r_mmod_Electrostatic_Energy-OPLS-2005>
-364.969757080078

> <r_mmod_Solvation_Energy-OPLS-2005>
-445.736267089844

> <b_mmod_Minimization_Converged-OPLS-2005>
0

> <r_mmod_RMS_Derivative-OPLS-2005>
7.01510143280029

$$$$
68
                    3D
 Structure written by MMmdl.
159168  0  0  1  0            999 V2000
  -30.7424  -14.3804   20.6658 C   0  0  0  0  0  0
  -30.4209  -12.2890   19.3942 C   0  0  0  0  0  0
  -29.4853  -12.5210   18.1920 C   0  0  0  0  0  0
  -28.0082  -12.3794   18.6078 C   0  0  0  0  0  0
  -27.6660  -13.1990   19.8802 C   0  0  2  0  0  0
  -28.7037  -12.9301   20.9916 C   0  0  0  0  0  0
  -25.2605  -13.8150   20.5668 C   0  0  0  0  0  0
  -24.1844  -13.0438   20.9164 C   0  0  0  0  0  0
  -24.6383  -11.6900   20.8727 C   0  0  0  0  0  0
  -23.9048  -10.4292   21.0404 C   0  0  0  0  0  0
  -24.3606   -9.4210   21.9182 C   0  0  0  0  0  0
  -23.6283   -8.2245   22.0754 C   0  0  0  0  0  0
  -22.4267   -8.0279   21.3543 C   0  0  0  0  0  0
  -21.9898   -9.0252   20.4648 C   0  0  0  0  0  0
  -22.7224  -10.2133   20.3053 C   0  0  0  0  0  0
  -21.6851   -6.0731   22.5278 C   0  0  0  0  0  0
  -21.4015   -6.5637   23.8211 C   0  0  0  0  0  0
  -21.3659   -5.6791   24.9177 C   0  0  0  0  0  0
  -21.6045   -4.3054   24.7231 C   0  0  0  0  0  0
  -21.8819   -3.8143   23.4352 C   0  0  0  0  0  0
  -21.9194   -4.6956   22.3406 C   0  0  0  0  0  0
  -22.7870  -13.5245   21.1836 C   0  0  0  0  0  0
  -22.1661   -4.2139   21.0981 F   0  0  0  0  0  0
  -21.5631   -3.4539   25.7746 F   0  0  0  0  0  0
  -30.0432  -13.2355   20.4533 N   0  0  0  0  0  0
  -26.3036  -12.9303   20.3378 N   0  0  0  0  0  0
  -25.9305  -11.6469   20.5754 N   0  0  0  0  0  0
  -22.0508  -12.8238   22.0396 N   0  0  0  0  0  0
  -25.4354  -15.1865   20.4079 N   0  0  0  0  0  0
  -31.8072  -14.6379   20.0932 O   0  0  0  0  0  0
  -21.6638   -6.8873   21.4238 O   0  0  0  0  0  0
  -22.3558  -14.5554   20.6691 O   0  0  0  0  0  0
  -24.6100  -31.8698   23.2128 C   0  0  0  0  0  0
  -25.9010  -32.4835   23.8410 C   0  0  1  0  0  0
  -27.2408  -27.4732   20.0942 C   0  0  0  0  0  0
  -25.5877  -33.8630   24.2345 N   0  0  0  0  0  0
  -23.3977  -30.4910   21.5521 C   0  0  2  0  0  0
  -24.8473  -28.9575   20.1197 C   0  0  0  0  0  0
  -22.7387  -29.4656   22.5012 C   0  0  0  0  0  0
  -18.0262  -28.1366   22.8493 C   0  0  0  0  0  0
  -24.1485  -36.7325   23.2638 C   0  0  0  0  0  0
  -25.9208  -30.8455   21.3623 C   0  0  0  0  0  0
  -26.0014  -29.4787   20.7189 C   0  0  0  0  0  0
  -27.2027  -28.7398   20.7124 C   0  0  0  0  0  0
  -26.0782  -26.9558   19.4907 C   0  0  0  0  0  0
  -24.8768  -27.6905   19.5074 C   0  0  0  0  0  0
  -23.6066  -29.8199   20.1672 C   0  0  0  0  0  0
  -25.4103  -36.3121   24.0340 C   0  0  1  0  0  0
  -20.5845  -28.3648   23.1327 C   0  0  2  0  0  0
  -20.6756  -26.9386   22.5421 C   0  0  0  0  0  0
  -19.5738  -26.6380   21.5209 C   0  0  0  0  0  0
  -18.1913  -26.7915   22.1617 C   0  0  0  0  0  0
  -19.1510  -28.8822   23.2908 C   0  0  0  0  0  0
  -18.9445  -30.1431   23.8915 C   0  0  0  0  0  0
  -17.6451  -30.6581   24.0559 C   0  0  0  0  0  0
  -25.9022  -34.9482   23.5141 C   0  0  0  0  0  0
  -16.5339  -29.9087   23.6316 C   0  0  0  0  0  0
  -16.7253  -28.6496   23.0346 C   0  0  0  0  0  0
  -26.4459  -31.6603   25.0722 C   0  0  0  0  0  0
  -25.3740  -31.3693   26.1484 C   0  0  0  0  0  0
  -27.0288  -30.3054   24.6063 C   0  0  0  0  0  0
  -27.6045  -32.4315   25.7476 C   0  0  0  0  0  0
  -27.5584  -37.1814   24.8461 C   0  0  0  0  0  0
  -21.4119  -29.3023   22.3750 N   0  0  0  0  0  0
  -26.4296  -37.3800   23.9406 N   0  0  0  0  0  0
  -24.6607  -31.0822   22.1019 N   0  0  0  0  0  0
  -23.4175  -28.8205   23.3046 O   0  0  0  0  0  0
  -28.4071  -26.7591   20.0181 O   0  0  0  0  0  0
  -26.5587  -34.8931   22.4704 O   0  0  0  0  0  0
  -23.5300  -32.1436   23.7542 O   0  0  0  0  0  0
  -32.3241  -18.0672   22.6739 C   0  0  0  0  0  0
  -31.9229  -16.7695   22.3089 C   0  0  0  0  0  0
  -29.6909  -17.6065   21.7984 C   0  0  0  0  0  0
  -30.0923  -18.9169   22.1444 C   0  0  0  0  0  0
  -31.4221  -19.1467   22.5859 C   0  0  0  0  0  0
  -30.6059  -16.5368   21.8591 C   0  0  0  0  0  0
  -29.1240  -20.0409   22.0176 C   0  0  0  0  0  0
  -28.7841  -23.7464   22.2486 C   0  0  0  0  0  0
  -31.1462  -21.5623   22.4022 C   0  0  0  0  0  0
  -29.6156  -21.4074   22.5209 C   0  0  1  0  0  0
  -28.0759  -24.7232   21.3062 C   0  0  0  0  0  0
  -28.7863  -26.0878   21.2157 C   0  0  0  0  0  0
  -31.8785  -20.4230   22.9432 N   0  0  0  0  0  0
  -30.1589  -15.2389   21.5155 N   0  0  0  0  0  0
  -28.9360  -22.4914   21.8139 N   0  0  0  0  0  0
  -27.9934  -19.8976   21.5332 O   0  0  0  0  0  0
  -29.1980  -24.1214   23.3469 O   0  0  0  0  0  0
  -31.4631  -12.3973   19.0878 H   0  0  0  0  0  0
  -30.3268  -11.2659   19.7608 H   0  0  0  0  0  0
  -29.7173  -11.8159   17.3927 H   0  0  0  0  0  0
  -29.6561  -13.5172   17.7806 H   0  0  0  0  0  0
  -27.8122  -11.3213   18.7850 H   0  0  0  0  0  0
  -27.3563  -12.6746   17.7852 H   0  0  0  0  0  0
  -27.7269  -14.2542   19.6122 H   0  0  0  0  0  0
  -28.6692  -11.8811   21.2902 H   0  0  0  0  0  0
  -28.4527  -13.4862   21.8950 H   0  0  0  0  0  0
  -25.2752   -9.5688   22.4754 H   0  0  0  0  0  0
  -23.9996   -7.4638   22.7472 H   0  0  0  0  0  0
  -21.0832   -8.8771   19.8954 H   0  0  0  0  0  0
  -22.3683  -10.9671   19.6163 H   0  0  0  0  0  0
  -21.2004   -7.6146   23.9713 H   0  0  0  0  0  0
  -21.1482   -6.0524   25.9080 H   0  0  0  0  0  0
  -22.0599   -2.7602   23.2860 H   0  0  0  0  0  0
  -22.4117  -11.9894   22.4779 H   0  0  0  0  0  0
  -21.1129  -13.1274   22.2606 H   0  0  0  0  0  0
  -24.6726  -15.8466   20.5146 H   0  0  0  0  0  0
  -26.2931  -15.6215   20.0900 H   0  0  0  0  0  0
  -26.7090  -32.5565   23.1189 H   0  0  0  0  0  0
  -25.0046  -33.9795   25.0504 H   0  0  0  0  0  0
  -22.6848  -31.3064   21.4128 H   0  0  0  0  0  0
  -23.3740  -35.9667   23.3306 H   0  0  0  0  0  0
  -24.3586  -36.8929   22.2053 H   0  0  0  0  0  0
  -23.7246  -37.6535   23.6647 H   0  0  0  0  0  0
  -26.0230  -31.6097   20.5906 H   0  0  0  0  0  0
  -26.8118  -30.9052   21.9750 H   0  0  0  0  0  0
  -28.0986  -29.1430   21.1639 H   0  0  0  0  0  0
  -26.1069  -25.9898   19.0066 H   0  0  0  0  0  0
  -23.9913  -27.2822   19.0401 H   0  0  0  0  0  0
  -23.7123  -30.5936   19.4058 H   0  0  0  0  0  0
  -22.7333  -29.2350   19.8737 H   0  0  0  0  0  0
  -25.1278  -36.1998   25.0832 H   0  0  0  0  0  0
  -20.9922  -28.3214   24.1452 H   0  0  0  0  0  0
  -20.5650  -26.2252   23.3603 H   0  0  0  0  0  0
  -21.6633  -26.7445   22.1214 H   0  0  0  0  0  0
  -19.6899  -25.6297   21.1224 H   0  0  0  0  0  0
  -19.6680  -27.3207   20.6749 H   0  0  0  0  0  0
  -17.4183  -26.6658   21.4018 H   0  0  0  0  0  0
  -18.0312  -26.0054   22.9008 H   0  0  0  0  0  0
  -19.7927  -30.7229   24.2301 H   0  0  0  0  0  0
  -17.5012  -31.6265   24.5162 H   0  0  0  0  0  0
  -15.5338  -30.2995   23.7636 H   0  0  0  0  0  0
  -15.8648  -28.0825   22.7053 H   0  0  0  0  0  0
  -24.5903  -30.7045   25.7829 H   0  0  0  0  0  0
  -24.8940  -32.2842   26.4966 H   0  0  0  0  0  0
  -25.8103  -30.8844   27.0226 H   0  0  0  0  0  0
  -26.2819  -29.6813   24.1136 H   0  0  0  0  0  0
  -27.4098  -29.7286   25.4503 H   0  0  0  0  0  0
  -27.8636  -30.4386   23.9176 H   0  0  0  0  0  0
  -27.2664  -33.3598   26.2097 H   0  0  0  0  0  0
  -28.3825  -32.6899   25.0277 H   0  0  0  0  0  0
  -28.0742  -31.8407   26.5351 H   0  0  0  0  0  0
  -28.2604  -38.0115   24.7519 H   0  0  0  0  0  0
  -28.1080  -36.2643   24.6271 H   0  0  0  0  0  0
  -27.2301  -37.1450   25.8866 H   0  0  0  0  0  0
  -20.9275  -29.8751   21.6984 H   0  0  0  0  0  0
  -26.0188  -38.2877   24.1419 H   0  0  0  0  0  0
  -33.3368  -18.2229   23.0184 H   0  0  0  0  0  0
  -32.6323  -15.9574   22.3843 H   0  0  0  0  0  0
  -28.6776  -17.4262   21.4656 H   0  0  0  0  0  0
  -31.4706  -22.4649   22.9218 H   0  0  0  0  0  0
  -31.4300  -21.6895   21.3561 H   0  0  0  0  0  0
  -29.3469  -21.4647   23.5775 H   0  0  0  0  0  0
  -27.0417  -24.8514   21.6269 H   0  0  0  0  0  0
  -28.0388  -24.2800   20.3099 H   0  0  0  0  0  0
  -29.8675  -25.9468   21.1778 H   0  0  0  0  0  0
  -28.5834  -26.6930   22.1017 H   0  0  0  0  0  0
  -32.8773  -20.5453   23.1005 H   0  0  0  0  0  0
  -29.2381  -14.9727   21.8299 H   0  0  0  0  0  0
  -28.5238  -22.2357   20.9262 H   0  0  0  0  0  0
  1 25  1  0  0  0
  1 30  2  0  0  0
  1 84  1  0  0  0
  2  3  1  0  0  0
  2 25  1  0  0  0
  2 88  1  0  0  0
  2 89  1  0  0  0
  3  4  1  0  0  0
  3 90  1  0  0  0
  3 91  1  0  0  0
  4  5  1  0  0  0
  4 92  1  0  0  0
  4 93  1  0  0  0
  5  6  1  0  0  0
  5 26  1  0  0  0
  5 94  1  0  0  0
  6 25  1  0  0  0
  6 95  1  0  0  0
  6 96  1  0  0  0
  7  8  2  0  0  0
  7 26  1  0  0  0
  7 29  1  0  0  0
  8  9  1  0  0  0
  8 22  1  0  0  0
  9 10  1  0  0  0
  9 27  2  0  0  0
 10 11  2  0  0  0
 10 15  1  0  0  0
 11 12  1  0  0  0
 11 97  1  0  0  0
 12 13  2  0  0  0
 12 98  1  0  0  0
 13 14  1  0  0  0
 13 31  1  0  0  0
 14 15  2  0  0  0
 14 99  1  0  0  0
 15100  1  0  0  0
 16 17  2  0  0  0
 16 21  1  0  0  0
 16 31  1  0  0  0
 17 18  1  0  0  0
 17101  1  0  0  0
 18 19  2  0  0  0
 18102  1  0  0  0
 19 20  1  0  0  0
 19 24  1  0  0  0
 20 21  2  0  0  0
 20103  1  0  0  0
 21 23  1  0  0  0
 22 28  1  0  0  0
 22 32  2  0  0  0
 26 27  1  0  0  0
 28104  1  0  0  0
 28105  1  0  0  0
 29106  1  0  0  0
 29107  1  0  0  0
 33 34  1  0  0  0
 33 66  1  0  0  0
 33 70  2  0  0  0
 34 36  1  0  0  0
 34 59  1  0  0  0
 34108  1  0  0  0
 35 44  2  0  0  0
 35 45  1  0  0  0
 35 68  1  0  0  0
 36 56  1  0  0  0
 36109  1  0  0  0
 37 39  1  0  0  0
 37 47  1  0  0  0
 37 66  1  0  0  0
 37110  1  0  0  0
 38 43  2  0  0  0
 38 46  1  0  0  0
 38 47  1  0  0  0
 39 64  1  0  0  0
 39 67  2  0  0  0
 40 52  1  0  0  0
 40 53  2  0  0  0
 40 58  1  0  0  0
 41111  1  0  0  0
 41112  1  0  0  0
 41113  1  0  0  0
 41 48  1  0  0  0
 42 43  1  0  0  0
 42 66  1  0  0  0
 42114  1  0  0  0
 42115  1  0  0  0
 43 44  1  0  0  0
 44116  1  0  0  0
 45 46  2  0  0  0
 45117  1  0  0  0
 46118  1  0  0  0
 47119  1  0  0  0
 47120  1  0  0  0
 48 56  1  0  0  0
 48 65  1  0  0  0
 48121  1  0  0  0
 49 50  1  0  0  0
 49 53  1  0  0  0
 49 64  1  0  0  0
 49122  1  0  0  0
 50 51  1  0  0  0
 50123  1  0  0  0
 50124  1  0  0  0
 51 52  1  0  0  0
 51125  1  0  0  0
 51126  1  0  0  0
 52127  1  0  0  0
 52128  1  0  0  0
 53 54  1  0  0  0
 54 55  2  0  0  0
 54129  1  0  0  0
 55 57  1  0  0  0
 55130  1  0  0  0
 56 69  2  0  0  0
 57 58  2  0  0  0
 57131  1  0  0  0
 58132  1  0  0  0
 59 60  1  0  0  0
 59 61  1  0  0  0
 59 62  1  0  0  0
 60133  1  0  0  0
 60134  1  0  0  0
 60135  1  0  0  0
 61136  1  0  0  0
 61137  1  0  0  0
 61138  1  0  0  0
 62139  1  0  0  0
 62140  1  0  0  0
 62141  1  0  0  0
 63 65  1  0  0  0
 63142  1  0  0  0
 63143  1  0  0  0
 63144  1  0  0  0
 64145  1  0  0  0
 65146  1  0  0  0
 68 82  1  0  0  0
 71 72  2  0  0  0
 71 75  1  0  0  0
 71147  1  0  0  0
 72 76  1  0  0  0
 72148  1  0  0  0
 73 74  1  0  0  0
 73 76  2  0  0  0
 73149  1  0  0  0
 74 75  2  0  0  0
 74 77  1  0  0  0
 75 83  1  0  0  0
 76 84  1  0  0  0
 77 80  1  0  0  0
 77 86  2  0  0  0
 78 81  1  0  0  0
 78 85  1  0  0  0
 78 87  2  0  0  0
 79 80  1  0  0  0
 79 83  1  0  0  0
 79150  1  0  0  0
 79151  1  0  0  0
 80 85  1  0  0  0
 80152  1  0  0  0
 81 82  1  0  0  0
 81153  1  0  0  0
 81154  1  0  0  0
 82155  1  0  0  0
 82156  1  0  0  0
 83157  1  0  0  0
 84158  1  0  0  0
 85159  1  0  0  0
M  ISO  4   1 100  68 101  82 101  84 100
M  END
> <chiral flag>
0

> <version>
0

> <s_m_source_file>
/data/baiqing/PycharmProjects/Reinvent-master-3.2/result/LINK_invent/BTK/process_docking_weight1_custom_product_contain_oxygen_bond_distance_aromatic_linkinvent_7_9_3/rearranged_h_0005.sdf

> <i_m_source_file_index>
69

> <r_mmod_Potential_Energy-OPLS-2005>
-216.932266235352

> <r_mmod_Stretch_Energy-OPLS-2005>
32.6544151306152

> <r_mmod_Bend_Energy-OPLS-2005>
91.9102096557617

> <r_mmod_Torsional_Energy-OPLS-2005>
241.410751342773

> <r_mmod_Improper_Torsional_Energy-OPLS-2005>
4.62000131607056

> <r_mmod_Van_der_Waal_Energy-OPLS-2005>
166.262680053711

> <r_mmod_Electrostatic_Energy-OPLS-2005>
-507.401245117188

> <r_mmod_Solvation_Energy-OPLS-2005>
-252.739028930664

> <b_mmod_Minimization_Converged-OPLS-2005>
0

> <r_mmod_RMS_Derivative-OPLS-2005>
0.939327657222748

$$$$
69
                    3D
 Structure written by MMmdl.
202213  0  0  1  0            999 V2000
  -30.7101  -14.4073   20.5914 C   0  0  0  0  0  0
  -30.4187  -12.2808   19.3968 C   0  0  0  0  0  0
  -29.4852  -12.5203   18.1934 C   0  0  0  0  0  0
  -28.0063  -12.3890   18.6082 C   0  0  0  0  0  0
  -27.6660  -13.2011   19.8862 C   0  0  2  0  0  0
  -28.7082  -12.9349   20.9955 C   0  0  0  0  0  0
  -25.2607  -13.8157   20.5702 C   0  0  0  0  0  0
  -24.1842  -13.0431   20.9179 C   0  0  0  0  0  0
  -24.6390  -11.6904   20.8745 C   0  0  0  0  0  0
  -23.9042  -10.4289   21.0420 C   0  0  0  0  0  0
  -24.3599   -9.4202   21.9187 C   0  0  0  0  0  0
  -23.6283   -8.2235   22.0758 C   0  0  0  0  0  0
  -22.4265   -8.0274   21.3553 C   0  0  0  0  0  0
  -21.9889   -9.0245   20.4658 C   0  0  0  0  0  0
  -22.7212  -10.2130   20.3074 C   0  0  0  0  0  0
  -21.6855   -6.0719   22.5275 C   0  0  0  0  0  0
  -21.4016   -6.5635   23.8200 C   0  0  0  0  0  0
  -21.3653   -5.6795   24.9167 C   0  0  0  0  0  0
  -21.6050   -4.3058   24.7231 C   0  0  0  0  0  0
  -21.8815   -3.8142   23.4354 C   0  0  0  0  0  0
  -21.9192   -4.6948   22.3405 C   0  0  0  0  0  0
  -22.7870  -13.5241   21.1816 C   0  0  0  0  0  0
  -22.1664   -4.2136   21.0983 F   0  0  0  0  0  0
  -21.5621   -3.4541   25.7743 F   0  0  0  0  0  0
  -30.0429  -13.2361   20.4469 N   0  0  0  0  0  0
  -26.3039  -12.9312   20.3422 N   0  0  0  0  0  0
  -25.9316  -11.6471   20.5787 N   0  0  0  0  0  0
  -22.0522  -12.8262   22.0418 N   0  0  0  0  0  0
  -25.4322  -15.1853   20.4040 N   0  0  0  0  0  0
  -31.8118  -14.6337   20.0810 O   0  0  0  0  0  0
  -21.6643   -6.8863   21.4239 O   0  0  0  0  0  0
  -22.3536  -14.5508   20.6629 O   0  0  0  0  0  0
  -24.6061  -31.8711   23.2105 C   0  0  0  0  0  0
  -25.8966  -32.4843   23.8386 C   0  0  1  0  0  0
  -27.2547  -27.4712   20.1291 C   0  0  0  0  0  0
  -25.5849  -33.8637   24.2326 N   0  0  0  0  0  0
  -23.3937  -30.4924   21.5481 C   0  0  2  0  0  0
  -24.8506  -28.9612   20.1129 C   0  0  0  0  0  0
  -22.7380  -29.4649   22.4983 C   0  0  0  0  0  0
  -18.0281  -28.1355   22.8511 C   0  0  0  0  0  0
  -24.1499  -36.7314   23.2645 C   0  0  0  0  0  0
  -25.9137  -30.8562   21.3514 C   0  0  0  0  0  0
  -26.0008  -29.4849   20.7170 C   0  0  0  0  0  0
  -27.2008  -28.7478   20.7289 C   0  0  0  0  0  0
  -26.0980  -26.9602   19.5035 C   0  0  0  0  0  0
  -24.8941  -27.6940   19.5014 C   0  0  0  0  0  0
  -23.6061  -29.8210   20.1622 C   0  0  0  0  0  0
  -25.4111  -36.3099   24.0350 C   0  0  1  0  0  0
  -20.5879  -28.3615   23.1330 C   0  0  2  0  0  0
  -20.6768  -26.9344   22.5433 C   0  0  0  0  0  0
  -19.5750  -26.6369   21.5217 C   0  0  0  0  0  0
  -18.1921  -26.7911   22.1621 C   0  0  0  0  0  0
  -19.1539  -28.8802   23.2925 C   0  0  0  0  0  0
  -18.9460  -30.1417   23.8912 C   0  0  0  0  0  0
  -17.6465  -30.6574   24.0569 C   0  0  0  0  0  0
  -25.9027  -34.9479   23.5131 C   0  0  0  0  0  0
  -16.5357  -29.9076   23.6328 C   0  0  0  0  0  0
  -16.7268  -28.6496   23.0348 C   0  0  0  0  0  0
  -26.4436  -31.6602   25.0683 C   0  0  0  0  0  0
  -25.3703  -31.3737   26.1430 C   0  0  0  0  0  0
  -27.0281  -30.3073   24.5978 C   0  0  0  0  0  0
  -27.6013  -32.4310   25.7458 C   0  0  0  0  0  0
  -27.5585  -37.1801   24.8475 C   0  0  0  0  0  0
  -21.4111  -29.2991   22.3725 N   0  0  0  0  0  0
  -26.4306  -37.3777   23.9416 N   0  0  0  0  0  0
  -24.6557  -31.0878   22.0961 N   0  0  0  0  0  0
  -23.4191  -28.8193   23.2995 O   0  0  0  0  0  0
  -28.4007  -26.7086   20.1383 O   0  0  0  0  0  0
  -26.5601  -34.8921   22.4700 O   0  0  0  0  0  0
  -23.5268  -32.1406   23.7527 O   0  0  0  0  0  0
  -23.0005  -17.6571   23.6508 C   0  0  0  0  0  0
  -23.1093  -16.2599   23.7694 C   0  0  0  0  0  0
  -23.9807  -18.4897   24.2232 C   0  0  0  0  0  0
  -28.1175  -17.6815   21.8650 C   0  0  0  0  0  0
  -27.2980  -18.4111   22.7440 C   0  0  0  0  0  0
  -24.2095  -15.6976   24.4437 C   0  0  0  0  0  0
  -30.0561  -18.2917   23.1950 C   0  0  0  0  0  0
  -29.5013  -17.6022   22.1022 C   0  0  0  0  0  0
  -25.0808  -17.9364   24.9144 C   0  0  0  0  0  0
  -29.2555  -19.0644   24.0639 C   0  0  0  0  0  0
  -27.8392  -19.0789   23.8665 C   0  0  0  0  0  0
  -25.1932  -16.5303   25.0138 C   0  0  0  0  0  0
  -25.7505  -23.8829   25.2258 C   0  0  0  0  0  0
  -25.7702  -23.2447   23.8268 C   0  0  0  0  0  0
  -26.8680  -23.3236   26.1231 C   0  0  0  0  0  0
  -25.6915  -21.7126   23.9253 C   0  0  0  0  0  0
  -26.8573  -21.7864   26.1669 C   0  0  0  0  0  0
  -32.7000  -22.0114   24.0426 C   0  0  0  0  0  0
  -32.1219  -20.6080   24.2755 C   0  0  0  0  0  0
  -30.2924  -22.0245   24.2612 C   0  0  0  0  0  0
  -26.8696  -21.1665   24.7496 C   0  0  0  0  0  0
  -31.4872  -22.9610   24.0149 C   0  0  2  0  0  0
  -29.9521  -19.7523   25.2450 C   0  0  0  0  0  0
  -30.3935  -16.7760   21.1974 C   0  0  0  0  0  0
  -26.0931  -18.8458   25.6022 C   0  0  0  0  0  0
  -30.0477  -25.4059   21.4078 C   0  0  0  0  0  0
  -30.4283  -24.8744   22.8082 C   0  0  0  0  0  0
  -28.9814  -26.5208   21.4358 C   0  0  0  0  0  0
  -30.8633  -20.8793   24.9577 N   0  0  0  0  0  0
  -30.0220  -15.3706   21.2093 N   0  0  0  0  0  0
  -26.9485  -19.7026   24.7651 N   0  0  0  0  0  0
  -31.3630  -23.7214   22.7460 N   0  3  0  0  0  0
  -26.2356  -15.9686   25.6740 F   0  0  0  0  0  0
  -31.4617  -12.3834   19.0923 H   0  0  0  0  0  0
  -30.3179  -11.2594   19.7646 H   0  0  0  0  0  0
  -29.7122  -11.8177   17.3910 H   0  0  0  0  0  0
  -29.6614  -13.5165   17.7850 H   0  0  0  0  0  0
  -27.7971  -11.3320   18.7724 H   0  0  0  0  0  0
  -27.3591  -12.7008   17.7877 H   0  0  0  0  0  0
  -27.7246  -14.2566   19.6219 H   0  0  0  0  0  0
  -28.6731  -11.8886   21.3029 H   0  0  0  0  0  0
  -28.4765  -13.5034   21.8965 H   0  0  0  0  0  0
  -25.2740   -9.5680   22.4760 H   0  0  0  0  0  0
  -23.9987   -7.4635   22.7483 H   0  0  0  0  0  0
  -21.0807   -8.8764   19.8983 H   0  0  0  0  0  0
  -22.3651  -10.9673   19.6194 H   0  0  0  0  0  0
  -21.2019   -7.6147   23.9700 H   0  0  0  0  0  0
  -21.1479   -6.0531   25.9068 H   0  0  0  0  0  0
  -22.0603   -2.7605   23.2862 H   0  0  0  0  0  0
  -22.4130  -11.9923   22.4806 H   0  0  0  0  0  0
  -21.1127  -13.1265   22.2591 H   0  0  0  0  0  0
  -24.6696  -15.8410   20.5296 H   0  0  0  0  0  0
  -26.2788  -15.6168   20.0596 H   0  0  0  0  0  0
  -26.7038  -32.5602   23.1172 H   0  0  0  0  0  0
  -24.9986  -33.9845   25.0446 H   0  0  0  0  0  0
  -22.6744  -31.3037   21.4104 H   0  0  0  0  0  0
  -23.3754  -35.9659   23.3328 H   0  0  0  0  0  0
  -24.3604  -36.8905   22.2059 H   0  0  0  0  0  0
  -23.7265  -37.6528   23.6655 H   0  0  0  0  0  0
  -26.0051  -31.6133   20.5716 H   0  0  0  0  0  0
  -26.8095  -30.9300   21.9566 H   0  0  0  0  0  0
  -28.0795  -29.1645   21.2023 H   0  0  0  0  0  0
  -26.1294  -25.9841   19.0408 H   0  0  0  0  0  0
  -24.0117  -27.2858   19.0276 H   0  0  0  0  0  0
  -23.6961  -30.5968   19.3998 H   0  0  0  0  0  0
  -22.7332  -29.2338   19.8702 H   0  0  0  0  0  0
  -25.1281  -36.1964   25.0847 H   0  0  0  0  0  0
  -21.0001  -28.3172   24.1442 H   0  0  0  0  0  0
  -20.5684  -26.2184   23.3597 H   0  0  0  0  0  0
  -21.6632  -26.7389   22.1194 H   0  0  0  0  0  0
  -19.6909  -25.6296   21.1201 H   0  0  0  0  0  0
  -19.6720  -27.3221   20.6789 H   0  0  0  0  0  0
  -17.4195  -26.6681   21.4016 H   0  0  0  0  0  0
  -18.0295  -26.0052   22.9002 H   0  0  0  0  0  0
  -19.7947  -30.7235   24.2264 H   0  0  0  0  0  0
  -17.5035  -31.6267   24.5139 H   0  0  0  0  0  0
  -15.5355  -30.2984   23.7667 H   0  0  0  0  0  0
  -15.8667  -28.0840   22.7026 H   0  0  0  0  0  0
  -24.5856  -30.7113   25.7772 H   0  0  0  0  0  0
  -24.8932  -32.2929   26.4844 H   0  0  0  0  0  0
  -25.8031  -30.8919   27.0198 H   0  0  0  0  0  0
  -26.2808  -29.6840   24.1063 H   0  0  0  0  0  0
  -27.4158  -29.7295   25.4372 H   0  0  0  0  0  0
  -27.8572  -30.4485   23.9041 H   0  0  0  0  0  0
  -27.2620  -33.3605   26.2049 H   0  0  0  0  0  0
  -28.3824  -32.6858   25.0283 H   0  0  0  0  0  0
  -28.0648  -31.8398   26.5376 H   0  0  0  0  0  0
  -28.2580  -38.0106   24.7488 H   0  0  0  0  0  0
  -28.1083  -36.2629   24.6319 H   0  0  0  0  0  0
  -27.2302  -37.1457   25.8875 H   0  0  0  0  0  0
  -20.9200  -29.8730   21.7005 H   0  0  0  0  0  0
  -26.0193  -38.2860   24.1406 H   0  0  0  0  0  0
  -22.1585  -18.0935   23.1320 H   0  0  0  0  0  0
  -22.3479  -15.6211   23.3462 H   0  0  0  0  0  0
  -23.8695  -19.5578   24.1369 H   0  0  0  0  0  0
  -27.6781  -17.1710   21.0202 H   0  0  0  0  0  0
  -26.2345  -18.4381   22.5521 H   0  0  0  0  0  0
  -24.2928  -14.6248   24.5356 H   0  0  0  0  0  0
  -31.1145  -18.1965   23.3856 H   0  0  0  0  0  0
  -24.7837  -23.6964   25.6969 H   0  0  0  0  0  0
  -25.8450  -24.9659   25.1398 H   0  0  0  0  0  0
  -26.6790  -23.5350   23.2985 H   0  0  0  0  0  0
  -24.9391  -23.6272   23.2320 H   0  0  0  0  0  0
  -26.7587  -23.7088   27.1397 H   0  0  0  0  0  0
  -27.8329  -23.6824   25.7712 H   0  0  0  0  0  0
  -25.6891  -21.2812   22.9237 H   0  0  0  0  0  0
  -24.7450  -21.4482   24.3937 H   0  0  0  0  0  0
  -25.9668  -21.4810   26.7153 H   0  0  0  0  0  0
  -27.7032  -21.4411   26.7583 H   0  0  0  0  0  0
  -33.3000  -22.0429   23.1313 H   0  0  0  0  0  0
  -33.3643  -22.2784   24.8684 H   0  0  0  0  0  0
  -32.7835  -19.9719   24.8659 H   0  0  0  0  0  0
  -31.9516  -20.1330   23.3102 H   0  0  0  0  0  0
  -29.8681  -21.6892   23.3126 H   0  0  0  0  0  0
  -29.5144  -22.5120   24.8439 H   0  0  0  0  0  0
  -27.7638  -21.5123   24.2419 H   0  0  0  0  0  0
  -31.5801  -23.6608   24.8478 H   0  0  0  0  0  0
  -30.5245  -18.9835   25.7692 H   0  0  0  0  0  0
  -29.2084  -20.0874   25.9649 H   0  0  0  0  0  0
  -31.4367  -16.8925   21.4957 H   0  0  0  0  0  0
  -30.3153  -17.1589   20.1777 H   0  0  0  0  0  0
  -26.7509  -18.2402   26.2255 H   0  0  0  0  0  0
  -25.5241  -19.4524   26.3024 H   0  0  0  0  0  0
  -29.6723  -24.5794   20.8066 H   0  0  0  0  0  0
  -30.9380  -25.7769   20.9007 H   0  0  0  0  0  0
  -29.5216  -24.5666   23.3292 H   0  0  0  0  0  0
  -30.8727  -25.6722   23.4076 H   0  0  0  0  0  0
  -29.4309  -27.4481   21.7943 H   0  0  0  0  0  0
  -28.1931  -26.2484   22.1407 H   0  0  0  0  0  0
  -29.1230  -15.1292   21.5967 H   0  0  0  0  0  0
  -31.0668  -23.0876   22.0196 H   0  0  0  0  0  0
  -32.2714  -24.0748   22.4889 H   0  0  0  0  0  0
  1 25  1  0  0  0
  1 30  2  0  0  0
  1100  1  0  0  0
  2  3  1  0  0  0
  2 25  1  0  0  0
  2104  1  0  0  0
  2105  1  0  0  0
  3  4  1  0  0  0
  3106  1  0  0  0
  3107  1  0  0  0
  4  5  1  0  0  0
  4108  1  0  0  0
  4109  1  0  0  0
  5  6  1  0  0  0
  5 26  1  0  0  0
  5110  1  0  0  0
  6 25  1  0  0  0
  6111  1  0  0  0
  6112  1  0  0  0
  7  8  2  0  0  0
  7 26  1  0  0  0
  7 29  1  0  0  0
  8  9  1  0  0  0
  8 22  1  0  0  0
  9 10  1  0  0  0
  9 27  2  0  0  0
 10 11  2  0  0  0
 10 15  1  0  0  0
 11 12  1  0  0  0
 11113  1  0  0  0
 12 13  2  0  0  0
 12114  1  0  0  0
 13 14  1  0  0  0
 13 31  1  0  0  0
 14 15  2  0  0  0
 14115  1  0  0  0
 15116  1  0  0  0
 16 17  2  0  0  0
 16 21  1  0  0  0
 16 31  1  0  0  0
 17 18  1  0  0  0
 17117  1  0  0  0
 18 19  2  0  0  0
 18118  1  0  0  0
 19 20  1  0  0  0
 19 24  1  0  0  0
 20 21  2  0  0  0
 20119  1  0  0  0
 21 23  1  0  0  0
 22 28  1  0  0  0
 22 32  2  0  0  0
 26 27  1  0  0  0
 28120  1  0  0  0
 28121  1  0  0  0
 29122  1  0  0  0
 29123  1  0  0  0
 33 34  1  0  0  0
 33 66  1  0  0  0
 33 70  2  0  0  0
 34 36  1  0  0  0
 34 59  1  0  0  0
 34124  1  0  0  0
 35 44  2  0  0  0
 35 45  1  0  0  0
 35 68  1  0  0  0
 36 56  1  0  0  0
 36125  1  0  0  0
 37 39  1  0  0  0
 37 47  1  0  0  0
 37 66  1  0  0  0
 37126  1  0  0  0
 38 43  2  0  0  0
 38 46  1  0  0  0
 38 47  1  0  0  0
 39 64  1  0  0  0
 39 67  2  0  0  0
 40 52  1  0  0  0
 40 53  2  0  0  0
 40 58  1  0  0  0
 41127  1  0  0  0
 41128  1  0  0  0
 41129  1  0  0  0
 41 48  1  0  0  0
 42 43  1  0  0  0
 42 66  1  0  0  0
 42130  1  0  0  0
 42131  1  0  0  0
 43 44  1  0  0  0
 44132  1  0  0  0
 45 46  2  0  0  0
 45133  1  0  0  0
 46134  1  0  0  0
 47135  1  0  0  0
 47136  1  0  0  0
 48 56  1  0  0  0
 48 65  1  0  0  0
 48137  1  0  0  0
 49 50  1  0  0  0
 49 53  1  0  0  0
 49 64  1  0  0  0
 49138  1  0  0  0
 50 51  1  0  0  0
 50139  1  0  0  0
 50140  1  0  0  0
 51 52  1  0  0  0
 51141  1  0  0  0
 51142  1  0  0  0
 52143  1  0  0  0
 52144  1  0  0  0
 53 54  1  0  0  0
 54 55  2  0  0  0
 54145  1  0  0  0
 55 57  1  0  0  0
 55146  1  0  0  0
 56 69  2  0  0  0
 57 58  2  0  0  0
 57147  1  0  0  0
 58148  1  0  0  0
 59 60  1  0  0  0
 59 61  1  0  0  0
 59 62  1  0  0  0
 60149  1  0  0  0
 60150  1  0  0  0
 60151  1  0  0  0
 61152  1  0  0  0
 61153  1  0  0  0
 61154  1  0  0  0
 62155  1  0  0  0
 62156  1  0  0  0
 62157  1  0  0  0
 63 65  1  0  0  0
 63158  1  0  0  0
 63159  1  0  0  0
 63160  1  0  0  0
 64161  1  0  0  0
 65162  1  0  0  0
 68 98  1  0  0  0
 71 72  2  0  0  0
 71 73  1  0  0  0
 71163  1  0  0  0
 72 76  1  0  0  0
 72164  1  0  0  0
 73 79  2  0  0  0
 73165  1  0  0  0
 74 75  2  0  0  0
 74 78  1  0  0  0
 74166  1  0  0  0
 75 81  1  0  0  0
 75167  1  0  0  0
 76 82  2  0  0  0
 76168  1  0  0  0
 77 78  2  0  0  0
 77 80  1  0  0  0
 77169  1  0  0  0
 78 94  1  0  0  0
 79 82  1  0  0  0
 79 95  1  0  0  0
 80 81  2  0  0  0
 80 93  1  0  0  0
 81101  1  0  0  0
 82103  1  0  0  0
 83 84  1  0  0  0
 83 85  1  0  0  0
 83170  1  0  0  0
 83171  1  0  0  0
 84 86  1  0  0  0
 84172  1  0  0  0
 84173  1  0  0  0
 85 87  1  0  0  0
 85174  1  0  0  0
 85175  1  0  0  0
 86 91  1  0  0  0
 86176  1  0  0  0
 86177  1  0  0  0
 87 91  1  0  0  0
 87178  1  0  0  0
 87179  1  0  0  0
 88 89  1  0  0  0
 88 92  1  0  0  0
 88180  1  0  0  0
 88181  1  0  0  0
 89 99  1  0  0  0
 89182  1  0  0  0
 89183  1  0  0  0
 90 92  1  0  0  0
 90 99  1  0  0  0
 90184  1  0  0  0
 90185  1  0  0  0
 91101  1  0  0  0
 91186  1  0  0  0
 92102  1  0  0  0
 92187  1  0  0  0
 93 99  1  0  0  0
 93188  1  0  0  0
 93189  1  0  0  0
 94100  1  0  0  0
 94190  1  0  0  0
 94191  1  0  0  0
 95101  1  0  0  0
 95192  1  0  0  0
 95193  1  0  0  0
 96 97  1  0  0  0
 96 98  1  0  0  0
 96194  1  0  0  0
 96195  1  0  0  0
 97102  1  0  0  0
 97196  1  0  0  0
 97197  1  0  0  0
 98198  1  0  0  0
 98199  1  0  0  0
100200  1  0  0  0
102201  1  0  0  0
102202  1  0  0  0
M  CHG  1 102   1
M  ISO  4   1 100  68 101  98 101 100 100
M  END
> <chiral flag>
0

> <version>
0

> <s_m_source_file>
/data/baiqing/PycharmProjects/Reinvent-master-3.2/result/LINK_invent/BTK/process_docking_weight1_custom_product_contain_oxygen_bond_distance_aromatic_linkinvent_7_9_3/rearranged_h_0005.sdf

> <i_m_source_file_index>
70

> <r_mmod_Potential_Energy-OPLS-2005>
-96.0228805541992

> <r_mmod_Stretch_Energy-OPLS-2005>
39.9060134887695

> <r_mmod_Bend_Energy-OPLS-2005>
143.129989624023

> <r_mmod_Torsional_Energy-OPLS-2005>
345.442504882812

> <r_mmod_Improper_Torsional_Energy-OPLS-2005>
4.02675724029541

> <r_mmod_Van_der_Waal_Energy-OPLS-2005>
147.379974365234

> <r_mmod_Electrostatic_Energy-OPLS-2005>
-329.824890136719

> <r_mmod_Solvation_Energy-OPLS-2005>
-454.627990722656

> <b_mmod_Minimization_Converged-OPLS-2005>
0

> <r_mmod_RMS_Derivative-OPLS-2005>
3.47978711128235

$$$$
70
                    3D
 Structure written by MMmdl.
172181  0  0  1  0            999 V2000
  -30.7141  -14.4427   20.7203 C   0  0  0  0  0  0
  -30.4581  -12.3482   19.3978 C   0  0  0  0  0  0
  -29.5080  -12.5698   18.1926 C   0  0  0  0  0  0
  -28.0184  -12.4212   18.5847 C   0  0  0  0  0  0
  -27.6744  -13.1796   19.8936 C   0  0  2  0  0  0
  -28.7215  -12.7647   20.9431 C   0  0  0  0  0  0
  -25.2620  -13.8038   20.5662 C   0  0  0  0  0  0
  -24.1844  -13.0385   20.9191 C   0  0  0  0  0  0
  -24.6353  -11.6826   20.8736 C   0  0  0  0  0  0
  -23.9003  -10.4234   21.0430 C   0  0  0  0  0  0
  -24.3569   -9.4131   21.9190 C   0  0  0  0  0  0
  -23.6247   -8.2174   22.0756 C   0  0  0  0  0  0
  -22.4229   -8.0227   21.3551 C   0  0  0  0  0  0
  -21.9859   -9.0186   20.4644 C   0  0  0  0  0  0
  -22.7186  -10.2067   20.3063 C   0  0  0  0  0  0
  -21.6819   -6.0705   22.5278 C   0  0  0  0  0  0
  -21.3974   -6.5625   23.8200 C   0  0  0  0  0  0
  -21.3687   -5.6808   24.9176 C   0  0  0  0  0  0
  -21.6059   -4.3061   24.7248 C   0  0  0  0  0  0
  -21.8813   -3.8126   23.4375 C   0  0  0  0  0  0
  -21.9167   -4.6931   22.3410 C   0  0  0  0  0  0
  -22.7866  -13.5191   21.1948 C   0  0  0  0  0  0
  -22.1645   -4.2110   21.0992 F   0  0  0  0  0  0
  -21.5654   -3.4558   25.7773 F   0  0  0  0  0  0
  -30.0456  -13.2520   20.4943 N   0  0  0  0  0  0
  -26.3065  -12.9166   20.3401 N   0  0  0  0  0  0
  -25.9270  -11.6350   20.5722 N   0  0  0  0  0  0
  -22.0499  -12.8152   22.0464 N   0  0  0  0  0  0
  -25.4369  -15.1760   20.4049 N   0  0  0  0  0  0
  -31.7824  -14.6433   20.1283 O   0  0  0  0  0  0
  -21.6595   -6.8839   21.4242 O   0  0  0  0  0  0
  -22.3545  -14.5543   20.6871 O   0  0  0  0  0  0
  -24.6165  -31.8687   23.2119 C   0  0  0  0  0  0
  -25.9074  -32.4798   23.8451 C   0  0  1  0  0  0
  -27.2449  -27.4454   20.0869 C   0  0  0  0  0  0
  -25.5963  -33.8615   24.2360 N   0  0  0  0  0  0
  -23.4052  -30.4940   21.5498 C   0  0  2  0  0  0
  -24.8511  -28.9610   20.1161 C   0  0  0  0  0  0
  -22.7435  -29.4678   22.4981 C   0  0  0  0  0  0
  -18.0291  -28.1372   22.8506 C   0  0  0  0  0  0
  -24.1486  -36.7286   23.2644 C   0  0  0  0  0  0
  -25.9351  -30.8391   21.3623 C   0  0  0  0  0  0
  -26.0122  -29.4761   20.7035 C   0  0  0  0  0  0
  -27.2110  -28.7302   20.6746 C   0  0  0  0  0  0
  -26.0556  -26.9356   19.5088 C   0  0  0  0  0  0
  -24.8668  -27.6892   19.5177 C   0  0  0  0  0  0
  -23.6161  -29.8313   20.1628 C   0  0  0  0  0  0
  -25.4118  -36.3076   24.0331 C   0  0  1  0  0  0
  -20.5881  -28.3671   23.1293 C   0  0  2  0  0  0
  -20.6762  -26.9402   22.5406 C   0  0  0  0  0  0
  -19.5726  -26.6378   21.5210 C   0  0  0  0  0  0
  -18.1910  -26.7924   22.1634 C   0  0  0  0  0  0
  -19.1543  -28.8835   23.2905 C   0  0  0  0  0  0
  -18.9456  -30.1425   23.8925 C   0  0  0  0  0  0
  -17.6462  -30.6576   24.0572 C   0  0  0  0  0  0
  -25.9069  -34.9451   23.5144 C   0  0  0  0  0  0
  -16.5356  -29.9087   23.6305 C   0  0  0  0  0  0
  -16.7279  -28.6496   23.0349 C   0  0  0  0  0  0
  -26.4450  -31.6541   25.0805 C   0  0  0  0  0  0
  -25.3697  -31.3735   26.1572 C   0  0  0  0  0  0
  -27.0206  -30.2958   24.6186 C   0  0  0  0  0  0
  -27.6054  -32.4205   25.7579 C   0  0  0  0  0  0
  -27.5560  -37.1796   24.8471 C   0  0  0  0  0  0
  -21.4162  -29.3050   22.3708 N   0  0  0  0  0  0
  -26.4285  -37.3772   23.9400 N   0  0  0  0  0  0
  -24.6712  -31.0794   22.1008 N   0  0  0  0  0  0
  -23.4196  -28.8215   23.3036 O   0  0  0  0  0  0
  -28.4394  -26.7514   20.0852 O   0  0  0  0  0  0
  -26.5617  -34.8869   22.4707 O   0  0  0  0  0  0
  -23.5363  -32.1442   23.7509 O   0  0  0  0  0  0
  -29.4392  -19.1209   21.8852 C   0  0  0  0  0  0
  -30.3899  -19.7123   21.0434 C   0  0  0  0  0  0
  -31.2264  -17.4985   20.4719 C   0  0  0  0  0  0
  -29.4094  -17.7278   22.0581 C   0  0  0  0  0  0
  -31.3214  -18.9127   20.3515 C   0  0  0  0  0  0
  -30.2765  -16.8599   21.3322 C   0  0  0  0  0  0
  -28.4659  -17.1846   23.1018 C   0  0  0  0  0  0
  -29.1801  -16.0567   23.8307 C   0  0  0  0  0  0
  -29.4894  -14.9792   22.7952 C   0  0  0  0  0  0
  -32.4829  -19.5299   19.5469 C   0  0  0  0  0  0
  -31.3915  -23.8624   18.1992 C   0  0  0  0  0  0
  -30.6830  -25.0529   18.8834 C   0  0  0  0  0  0
  -32.6822  -23.3538   18.8800 C   0  0  0  0  0  0
  -29.7999  -24.6934   20.0947 C   0  0  0  0  0  0
  -32.5721  -22.0487   19.7020 C   0  0  0  0  0  0
  -28.3881  -25.3219   20.0376 C   0  0  0  0  0  0
  -30.1750  -15.4084   21.5530 N   0  0  0  0  0  0
  -32.2388  -20.8453   18.8896 N   0  3  0  0  0  0
  -31.4937  -12.4902   19.0906 H   0  0  0  0  0  0
  -30.4235  -11.3066   19.7228 H   0  0  0  0  0  0
  -29.7616  -11.8714   17.3941 H   0  0  0  0  0  0
  -29.6780  -13.5670   17.7835 H   0  0  0  0  0  0
  -27.8165  -11.3575   18.7090 H   0  0  0  0  0  0
  -27.3671  -12.7537   17.7746 H   0  0  0  0  0  0
  -27.7666  -14.2490   19.7068 H   0  0  0  0  0  0
  -28.7394  -11.6734   20.9466 H   0  0  0  0  0  0
  -28.4362  -12.8844   21.9758 H   0  0  0  0  0  0
  -25.2729   -9.5557   22.4768 H   0  0  0  0  0  0
  -23.9925   -7.4560   22.7488 H   0  0  0  0  0  0
  -21.0782   -8.8707   19.8966 H   0  0  0  0  0  0
  -22.3659  -10.9606   19.6169 H   0  0  0  0  0  0
  -21.1926   -7.6125   23.9674 H   0  0  0  0  0  0
  -21.1561   -6.0558   25.9084 H   0  0  0  0  0  0
  -22.0575   -2.7590   23.2895 H   0  0  0  0  0  0
  -22.4050  -11.9717   22.4741 H   0  0  0  0  0  0
  -21.1142  -13.1195   22.2766 H   0  0  0  0  0  0
  -24.6729  -15.8368   20.4982 H   0  0  0  0  0  0
  -26.2931  -15.6012   20.0781 H   0  0  0  0  0  0
  -26.7187  -32.5488   23.1268 H   0  0  0  0  0  0
  -25.0162  -33.9828   25.0519 H   0  0  0  0  0  0
  -22.6959  -31.3133   21.4124 H   0  0  0  0  0  0
  -23.3714  -35.9635   23.3350 H   0  0  0  0  0  0
  -24.3560  -36.8880   22.2044 H   0  0  0  0  0  0
  -23.7269  -37.6513   23.6656 H   0  0  0  0  0  0
  -26.0533  -31.6105   20.5999 H   0  0  0  0  0  0
  -26.8229  -30.8848   21.9838 H   0  0  0  0  0  0
  -28.1183  -29.1335   21.1030 H   0  0  0  0  0  0
  -26.0229  -25.9668   19.0354 H   0  0  0  0  0  0
  -23.9710  -27.2903   19.0616 H   0  0  0  0  0  0
  -23.7370  -30.6117   19.4110 H   0  0  0  0  0  0
  -22.7357  -29.2659   19.8535 H   0  0  0  0  0  0
  -25.1303  -36.1913   25.0826 H   0  0  0  0  0  0
  -20.9990  -28.3226   24.1404 H   0  0  0  0  0  0
  -20.5623  -26.2291   23.3600 H   0  0  0  0  0  0
  -21.6620  -26.7408   22.1200 H   0  0  0  0  0  0
  -19.6861  -25.6280   21.1229 H   0  0  0  0  0  0
  -19.6631  -27.3191   20.6735 H   0  0  0  0  0  0
  -17.4173  -26.6702   21.4043 H   0  0  0  0  0  0
  -18.0303  -26.0052   22.9010 H   0  0  0  0  0  0
  -19.7925  -30.7240   24.2312 H   0  0  0  0  0  0
  -17.5005  -31.6241   24.5186 H   0  0  0  0  0  0
  -15.5345  -30.3004   23.7561 H   0  0  0  0  0  0
  -15.8690  -28.0799   22.7060 H   0  0  0  0  0  0
  -24.5901  -30.7013   25.7999 H   0  0  0  0  0  0
  -24.8805  -32.2903   26.4900 H   0  0  0  0  0  0
  -25.8016  -30.9045   27.0407 H   0  0  0  0  0  0
  -26.2679  -29.6782   24.1283 H   0  0  0  0  0  0
  -27.8529  -30.4215   23.9264 H   0  0  0  0  0  0
  -27.3994  -29.7176   25.4632 H   0  0  0  0  0  0
  -27.2719  -33.3486   26.2227 H   0  0  0  0  0  0
  -28.3866  -32.6767   25.0413 H   0  0  0  0  0  0
  -28.0709  -31.8237   26.5446 H   0  0  0  0  0  0
  -28.2572  -38.0095   24.7507 H   0  0  0  0  0  0
  -28.1081  -36.2638   24.6304 H   0  0  0  0  0  0
  -27.2286  -37.1412   25.8874 H   0  0  0  0  0  0
  -20.9317  -29.8828   21.6974 H   0  0  0  0  0  0
  -26.0148  -38.2838   24.1391 H   0  0  0  0  0  0
  -28.7596  -19.7509   22.4426 H   0  0  0  0  0  0
  -30.3931  -20.7872   20.9919 H   0  0  0  0  0  0
  -31.9550  -16.9290   19.9193 H   0  0  0  0  0  0
  -27.5596  -16.8331   22.6005 H   0  0  0  0  0  0
  -28.1612  -17.9611   23.8023 H   0  0  0  0  0  0
  -30.0821  -16.4035   24.3359 H   0  0  0  0  0  0
  -28.5221  -15.6515   24.6025 H   0  0  0  0  0  0
  -28.4776  -14.7243   22.5088 H   0  0  0  0  0  0
  -29.9966  -14.1296   23.2590 H   0  0  0  0  0  0
  -33.3669  -19.5949   20.1847 H   0  0  0  0  0  0
  -32.7465  -18.8222   18.7595 H   0  0  0  0  0  0
  -31.6818  -24.2177   17.2092 H   0  0  0  0  0  0
  -30.6898  -23.0509   18.0137 H   0  0  0  0  0  0
  -30.0489  -25.5227   18.1319 H   0  0  0  0  0  0
  -31.4045  -25.8223   19.1640 H   0  0  0  0  0  0
  -33.0746  -24.1441   19.5227 H   0  0  0  0  0  0
  -33.4484  -23.2184   18.1154 H   0  0  0  0  0  0
  -30.3138  -24.9701   21.0173 H   0  0  0  0  0  0
  -29.6739  -23.6105   20.1379 H   0  0  0  0  0  0
  -31.8618  -22.1980   20.5114 H   0  0  0  0  0  0
  -33.5421  -21.8825   20.1759 H   0  0  0  0  0  0
  -27.7986  -24.9591   20.8829 H   0  0  0  0  0  0
  -27.8966  -24.9670   19.1320 H   0  0  0  0  0  0
  -31.3015  -20.8816   18.5255 H   0  0  0  0  0  0
  -32.8604  -20.8665   18.0958 H   0  0  0  0  0  0
  1 25  1  0  0  0
  1 30  2  0  0  0
  1 87  1  0  0  0
  2  3  1  0  0  0
  2 25  1  0  0  0
  2 89  1  0  0  0
  2 90  1  0  0  0
  3  4  1  0  0  0
  3 91  1  0  0  0
  3 92  1  0  0  0
  4  5  1  0  0  0
  4 93  1  0  0  0
  4 94  1  0  0  0
  5  6  1  0  0  0
  5 26  1  0  0  0
  5 95  1  0  0  0
  6 25  1  0  0  0
  6 96  1  0  0  0
  6 97  1  0  0  0
  7  8  2  0  0  0
  7 26  1  0  0  0
  7 29  1  0  0  0
  8  9  1  0  0  0
  8 22  1  0  0  0
  9 10  1  0  0  0
  9 27  2  0  0  0
 10 11  2  0  0  0
 10 15  1  0  0  0
 11 12  1  0  0  0
 11 98  1  0  0  0
 12 13  2  0  0  0
 12 99  1  0  0  0
 13 14  1  0  0  0
 13 31  1  0  0  0
 14 15  2  0  0  0
 14100  1  0  0  0
 15101  1  0  0  0
 16 17  2  0  0  0
 16 21  1  0  0  0
 16 31  1  0  0  0
 17 18  1  0  0  0
 17102  1  0  0  0
 18 19  2  0  0  0
 18103  1  0  0  0
 19 20  1  0  0  0
 19 24  1  0  0  0
 20 21  2  0  0  0
 20104  1  0  0  0
 21 23  1  0  0  0
 22 28  1  0  0  0
 22 32  2  0  0  0
 26 27  1  0  0  0
 28105  1  0  0  0
 28106  1  0  0  0
 29107  1  0  0  0
 29108  1  0  0  0
 33 34  1  0  0  0
 33 66  1  0  0  0
 33 70  2  0  0  0
 34 36  1  0  0  0
 34 59  1  0  0  0
 34109  1  0  0  0
 35 44  2  0  0  0
 35 45  1  0  0  0
 35 68  1  0  0  0
 36 56  1  0  0  0
 36110  1  0  0  0
 37 39  1  0  0  0
 37 47  1  0  0  0
 37 66  1  0  0  0
 37111  1  0  0  0
 38 43  2  0  0  0
 38 46  1  0  0  0
 38 47  1  0  0  0
 39 64  1  0  0  0
 39 67  2  0  0  0
 40 52  1  0  0  0
 40 53  2  0  0  0
 40 58  1  0  0  0
 41112  1  0  0  0
 41113  1  0  0  0
 41114  1  0  0  0
 41 48  1  0  0  0
 42 43  1  0  0  0
 42 66  1  0  0  0
 42115  1  0  0  0
 42116  1  0  0  0
 43 44  1  0  0  0
 44117  1  0  0  0
 45 46  2  0  0  0
 45118  1  0  0  0
 46119  1  0  0  0
 47120  1  0  0  0
 47121  1  0  0  0
 48 56  1  0  0  0
 48 65  1  0  0  0
 48122  1  0  0  0
 49 50  1  0  0  0
 49 53  1  0  0  0
 49 64  1  0  0  0
 49123  1  0  0  0
 50 51  1  0  0  0
 50124  1  0  0  0
 50125  1  0  0  0
 51 52  1  0  0  0
 51126  1  0  0  0
 51127  1  0  0  0
 52128  1  0  0  0
 52129  1  0  0  0
 53 54  1  0  0  0
 54 55  2  0  0  0
 54130  1  0  0  0
 55 57  1  0  0  0
 55131  1  0  0  0
 56 69  2  0  0  0
 57 58  2  0  0  0
 57132  1  0  0  0
 58133  1  0  0  0
 59 60  1  0  0  0
 59 61  1  0  0  0
 59 62  1  0  0  0
 60134  1  0  0  0
 60135  1  0  0  0
 60136  1  0  0  0
 61137  1  0  0  0
 61138  1  0  0  0
 61139  1  0  0  0
 62140  1  0  0  0
 62141  1  0  0  0
 62142  1  0  0  0
 63 65  1  0  0  0
 63143  1  0  0  0
 63144  1  0  0  0
 63145  1  0  0  0
 64146  1  0  0  0
 65147  1  0  0  0
 68 86  1  0  0  0
 71 72  2  0  0  0
 71 74  1  0  0  0
 71148  1  0  0  0
 72 75  1  0  0  0
 72149  1  0  0  0
 73 75  2  0  0  0
 73 76  1  0  0  0
 73150  1  0  0  0
 74 76  2  0  0  0
 74 77  1  0  0  0
 75 80  1  0  0  0
 76 87  1  0  0  0
 77 78  1  0  0  0
 77151  1  0  0  0
 77152  1  0  0  0
 78 79  1  0  0  0
 78153  1  0  0  0
 78154  1  0  0  0
 79 87  1  0  0  0
 79155  1  0  0  0
 79156  1  0  0  0
 80 88  1  0  0  0
 80157  1  0  0  0
 80158  1  0  0  0
 81 82  1  0  0  0
 81 83  1  0  0  0
 81159  1  0  0  0
 81160  1  0  0  0
 82 84  1  0  0  0
 82161  1  0  0  0
 82162  1  0  0  0
 83 85  1  0  0  0
 83163  1  0  0  0
 83164  1  0  0  0
 84 86  1  0  0  0
 84165  1  0  0  0
 84166  1  0  0  0
 85 88  1  0  0  0
 85167  1  0  0  0
 85168  1  0  0  0
 86169  1  0  0  0
 86170  1  0  0  0
 88171  1  0  0  0
 88172  1  0  0  0
M  CHG  1  88   1
M  ISO  4   1 100  68 101  86 101  87 100
M  END
> <chiral flag>
0

> <version>
0

> <s_m_source_file>
/data/baiqing/PycharmProjects/Reinvent-master-3.2/result/LINK_invent/BTK/process_docking_weight1_custom_product_contain_oxygen_bond_distance_aromatic_linkinvent_7_9_3/rearranged_h_0005.sdf

> <i_m_source_file_index>
71

> <r_mmod_Potential_Energy-OPLS-2005>
69.6998977661133

> <r_mmod_Stretch_Energy-OPLS-2005>
58.6734657287598

> <r_mmod_Bend_Energy-OPLS-2005>
164.213088989258

> <r_mmod_Torsional_Energy-OPLS-2005>
306.820404052734

> <r_mmod_Improper_Torsional_Energy-OPLS-2005>
2.45586538314819

> <r_mmod_Van_der_Waal_Energy-OPLS-2005>
189.718734741211

> <r_mmod_Electrostatic_Energy-OPLS-2005>
-228.258056640625

> <r_mmod_Solvation_Energy-OPLS-2005>
-440.336853027344

> <b_mmod_Minimization_Converged-OPLS-2005>
0

> <r_mmod_RMS_Derivative-OPLS-2005>
5.33278846740723

$$$$
71
                    3D
 Structure written by MMmdl.
156164  0  0  1  0            999 V2000
  -30.6195  -14.7250   20.4916 C   0  0  0  0  0  0
  -30.4377  -12.4506   19.4601 C   0  0  0  0  0  0
  -29.5074  -12.4957   18.2278 C   0  0  0  0  0  0
  -28.0346  -12.3203   18.6474 C   0  0  0  0  0  0
  -27.6424  -13.2234   19.8469 C   0  0  2  0  0  0
  -28.6891  -13.1487   20.9801 C   0  0  0  0  0  0
  -25.2536  -13.8182   20.5685 C   0  0  0  0  0  0
  -24.1821  -13.0450   20.9214 C   0  0  0  0  0  0
  -24.6382  -11.6912   20.8742 C   0  0  0  0  0  0
  -23.9048  -10.4301   21.0402 C   0  0  0  0  0  0
  -24.3607   -9.4219   21.9180 C   0  0  0  0  0  0
  -23.6292   -8.2248   22.0741 C   0  0  0  0  0  0
  -22.4278   -8.0279   21.3533 C   0  0  0  0  0  0
  -21.9908   -9.0244   20.4632 C   0  0  0  0  0  0
  -22.7219  -10.2134   20.3047 C   0  0  0  0  0  0
  -21.6854   -6.0743   22.5278 C   0  0  0  0  0  0
  -21.4010   -6.5642   23.8214 C   0  0  0  0  0  0
  -21.3670   -5.6791   24.9175 C   0  0  0  0  0  0
  -21.6044   -4.3052   24.7221 C   0  0  0  0  0  0
  -21.8823   -3.8150   23.4343 C   0  0  0  0  0  0
  -21.9189   -4.6971   22.3400 C   0  0  0  0  0  0
  -22.7838  -13.5241   21.1876 C   0  0  0  0  0  0
  -22.1661   -4.2160   21.0978 F   0  0  0  0  0  0
  -21.5634   -3.4528   25.7735 F   0  0  0  0  0  0
  -29.9889  -13.5055   20.3954 N   0  0  0  0  0  0
  -26.2945  -12.9369   20.3257 N   0  0  0  0  0  0
  -25.9310  -11.6527   20.5739 N   0  0  0  0  0  0
  -22.0466  -12.8224   22.0417 N   0  0  0  0  0  0
  -25.4242  -15.1908   20.4081 N   0  0  0  0  0  0
  -31.8013  -14.8378   20.1598 O   0  0  0  0  0  0
  -21.6636   -6.8884   21.4240 O   0  0  0  0  0  0
  -22.3526  -14.5566   20.6742 O   0  0  0  0  0  0
  -24.6298  -31.8552   23.1999 C   0  0  0  0  0  0
  -25.9119  -32.4771   23.8357 C   0  0  1  0  0  0
  -27.2198  -27.2638   20.1529 C   0  0  0  0  0  0
  -25.5929  -33.8571   24.2265 N   0  0  0  0  0  0
  -23.4293  -30.4755   21.5404 C   0  0  2  0  0  0
  -24.8813  -28.9239   20.1131 C   0  0  0  0  0  0
  -22.7512  -29.4550   22.4888 C   0  0  0  0  0  0
  -18.0288  -28.1390   22.8459 C   0  0  0  0  0  0
  -24.1490  -36.7287   23.2642 C   0  0  0  0  0  0
  -25.9733  -30.7738   21.3790 C   0  0  0  0  0  0
  -26.0497  -29.3934   20.7272 C   0  0  0  0  0  0
  -27.2258  -28.5768   20.7315 C   0  0  0  0  0  0
  -26.0330  -26.8609   19.5059 C   0  0  0  0  0  0
  -24.8771  -27.6664   19.4892 C   0  0  0  0  0  0
  -23.6536  -29.8139   20.1541 C   0  0  0  0  0  0
  -25.4121  -36.3069   24.0327 C   0  0  1  0  0  0
  -20.5902  -28.3684   23.1265 C   0  0  2  0  0  0
  -20.6783  -26.9407   22.5399 C   0  0  0  0  0  0
  -19.5766  -26.6385   21.5197 C   0  0  0  0  0  0
  -18.1932  -26.7930   22.1599 C   0  0  0  0  0  0
  -19.1550  -28.8849   23.2855 C   0  0  0  0  0  0
  -18.9476  -30.1452   23.8881 C   0  0  0  0  0  0
  -17.6473  -30.6591   24.0549 C   0  0  0  0  0  0
  -25.9049  -34.9441   23.5098 C   0  0  0  0  0  0
  -16.5357  -29.9092   23.6326 C   0  0  0  0  0  0
  -16.7273  -28.6514   23.0335 C   0  0  0  0  0  0
  -26.4498  -31.6611   25.0743 C   0  0  0  0  0  0
  -25.3728  -31.3754   26.1473 C   0  0  0  0  0  0
  -27.0357  -30.3041   24.6212 C   0  0  0  0  0  0
  -27.6063  -32.4350   25.7500 C   0  0  0  0  0  0
  -27.5574  -37.1803   24.8464 C   0  0  0  0  0  0
  -21.4210  -29.3035   22.3658 N   0  0  0  0  0  0
  -26.4290  -37.3770   23.9407 N   0  0  0  0  0  0
  -24.6957  -31.0526   22.0975 N   0  0  0  0  0  0
  -23.4213  -28.8049   23.2953 O   0  0  0  0  0  0
  -28.3177  -26.3775   20.1793 O   0  0  0  0  0  0
  -26.5602  -34.8895   22.4647 O   0  0  0  0  0  0
  -23.5441  -32.1352   23.7285 O   0  0  0  0  0  0
  -30.8067  -19.9787   21.7926 C   0  0  0  0  0  0
  -31.3790  -18.8846   22.4681 C   0  0  0  0  0  0
  -29.5858  -18.4024   20.4144 C   0  0  0  0  0  0
  -29.8729  -19.7899   20.7598 C   0  0  0  0  0  0
  -31.0708  -17.5359   22.1623 C   0  0  0  0  0  0
  -30.1905  -17.2449   21.0693 C   0  0  0  0  0  0
  -29.3657  -21.0893   19.9793 C   0  0  0  0  0  0
  -28.8946  -23.7100   20.0215 C   0  0  0  0  0  0
  -28.1109  -24.9697   20.6728 C   0  0  0  0  0  0
  -31.6922  -16.4726   23.0822 C   0  0  0  0  0  0
  -29.8346  -15.8454   20.7156 N   0  0  0  0  0  0
  -28.8510  -22.3316   20.7259 N   0  3  0  0  0  0
  -31.9883  -16.9911   24.2761 F   0  0  0  0  0  0
  -30.8691  -15.4509   23.3203 F   0  0  0  0  0  0
  -32.8279  -16.0134   22.5604 F   0  0  0  0  0  0
  -31.4752  -12.5879   19.1500 H   0  0  0  0  0  0
  -30.3945  -11.4726   19.9426 H   0  0  0  0  0  0
  -29.7867  -11.7143   17.5192 H   0  0  0  0  0  0
  -29.6320  -13.4430   17.7012 H   0  0  0  0  0  0
  -27.8941  -11.2725   18.9141 H   0  0  0  0  0  0
  -27.3750  -12.5058   17.7990 H   0  0  0  0  0  0
  -27.6387  -14.2432   19.4633 H   0  0  0  0  0  0
  -28.7257  -12.1464   21.4089 H   0  0  0  0  0  0
  -28.4253  -13.8200   21.7987 H   0  0  0  0  0  0
  -25.2747   -9.5713   22.4754 H   0  0  0  0  0  0
  -24.0010   -7.4646   22.7453 H   0  0  0  0  0  0
  -21.0845   -8.8763   19.8922 H   0  0  0  0  0  0
  -22.3676  -10.9677   19.6165 H   0  0  0  0  0  0
  -21.1997   -7.6145   23.9730 H   0  0  0  0  0  0
  -21.1489   -6.0510   25.9086 H   0  0  0  0  0  0
  -22.0591   -2.7607   23.2832 H   0  0  0  0  0  0
  -22.4061  -11.9871   22.4795 H   0  0  0  0  0  0
  -21.1081  -13.1252   22.2617 H   0  0  0  0  0  0
  -24.6506  -15.8412   20.5014 H   0  0  0  0  0  0
  -26.2647  -15.6261   20.0525 H   0  0  0  0  0  0
  -26.7190  -32.5427   23.1104 H   0  0  0  0  0  0
  -25.0119  -33.9726   25.0440 H   0  0  0  0  0  0
  -22.7256  -31.2969   21.3937 H   0  0  0  0  0  0
  -23.3743  -35.9624   23.3304 H   0  0  0  0  0  0
  -24.3583  -36.8907   22.2054 H   0  0  0  0  0  0
  -23.7247  -37.6493   23.6668 H   0  0  0  0  0  0
  -26.1071  -31.5346   20.6077 H   0  0  0  0  0  0
  -26.8521  -30.8297   22.0095 H   0  0  0  0  0  0
  -28.1245  -28.9275   21.2206 H   0  0  0  0  0  0
  -25.9876  -25.9004   19.0123 H   0  0  0  0  0  0
  -23.9864  -27.3080   18.9926 H   0  0  0  0  0  0
  -23.7902  -30.5941   19.4038 H   0  0  0  0  0  0
  -22.7733  -29.2530   19.8374 H   0  0  0  0  0  0
  -25.1302  -36.1919   25.0824 H   0  0  0  0  0  0
  -20.9983  -28.3265   24.1393 H   0  0  0  0  0  0
  -20.5693  -26.2285   23.3594 H   0  0  0  0  0  0
  -21.6647  -26.7431   22.1196 H   0  0  0  0  0  0
  -19.6934  -25.6290   21.1251 H   0  0  0  0  0  0
  -19.6734  -27.3167   20.6706 H   0  0  0  0  0  0
  -17.4203  -26.6649   21.4006 H   0  0  0  0  0  0
  -18.0343  -26.0082   22.9010 H   0  0  0  0  0  0
  -19.7956  -30.7251   24.2274 H   0  0  0  0  0  0
  -17.5036  -31.6280   24.5139 H   0  0  0  0  0  0
  -15.5367  -30.2986   23.7690 H   0  0  0  0  0  0
  -15.8657  -28.0846   22.7060 H   0  0  0  0  0  0
  -24.5923  -30.7073   25.7810 H   0  0  0  0  0  0
  -24.8895  -32.2924   26.4864 H   0  0  0  0  0  0
  -25.8064  -30.8978   27.0265 H   0  0  0  0  0  0
  -26.2943  -29.6780   24.1230 H   0  0  0  0  0  0
  -27.4059  -29.7311   25.4722 H   0  0  0  0  0  0
  -27.8807  -30.4347   23.9437 H   0  0  0  0  0  0
  -27.2708  -33.3671   26.2046 H   0  0  0  0  0  0
  -28.3891  -32.6872   25.0340 H   0  0  0  0  0  0
  -28.0704  -31.8492   26.5443 H   0  0  0  0  0  0
  -28.2584  -38.0095   24.7499 H   0  0  0  0  0  0
  -28.1072  -36.2632   24.6313 H   0  0  0  0  0  0
  -27.2288  -37.1468   25.8860 H   0  0  0  0  0  0
  -20.9370  -29.8796   21.6909 H   0  0  0  0  0  0
  -26.0159  -38.2832   24.1439 H   0  0  0  0  0  0
  -31.1122  -20.9759   22.0767 H   0  0  0  0  0  0
  -32.0802  -19.0976   23.2619 H   0  0  0  0  0  0
  -28.9022  -18.2219   19.5973 H   0  0  0  0  0  0
  -28.6124  -20.7900   19.2502 H   0  0  0  0  0  0
  -30.2201  -21.4209   19.3872 H   0  0  0  0  0  0
  -29.9447  -23.9903   19.9303 H   0  0  0  0  0  0
  -28.5286  -23.5789   19.0027 H   0  0  0  0  0  0
  -27.0476  -24.7245   20.6805 H   0  0  0  0  0  0
  -28.3828  -25.0019   21.7283 H   0  0  0  0  0  0
  -28.8444  -15.6554   20.7024 H   0  0  0  0  0  0
  -27.8986  -22.1262   20.9846 H   0  0  0  0  0  0
  -29.3694  -22.4068   21.5869 H   0  0  0  0  0  0
  1 25  1  0  0  0
  1 30  2  0  0  0
  1 81  1  0  0  0
  2  3  1  0  0  0
  2 25  1  0  0  0
  2 86  1  0  0  0
  2 87  1  0  0  0
  3  4  1  0  0  0
  3 88  1  0  0  0
  3 89  1  0  0  0
  4  5  1  0  0  0
  4 90  1  0  0  0
  4 91  1  0  0  0
  5  6  1  0  0  0
  5 26  1  0  0  0
  5 92  1  0  0  0
  6 25  1  0  0  0
  6 93  1  0  0  0
  6 94  1  0  0  0
  7  8  2  0  0  0
  7 26  1  0  0  0
  7 29  1  0  0  0
  8  9  1  0  0  0
  8 22  1  0  0  0
  9 10  1  0  0  0
  9 27  2  0  0  0
 10 11  2  0  0  0
 10 15  1  0  0  0
 11 12  1  0  0  0
 11 95  1  0  0  0
 12 13  2  0  0  0
 12 96  1  0  0  0
 13 14  1  0  0  0
 13 31  1  0  0  0
 14 15  2  0  0  0
 14 97  1  0  0  0
 15 98  1  0  0  0
 16 17  2  0  0  0
 16 21  1  0  0  0
 16 31  1  0  0  0
 17 18  1  0  0  0
 17 99  1  0  0  0
 18 19  2  0  0  0
 18100  1  0  0  0
 19 20  1  0  0  0
 19 24  1  0  0  0
 20 21  2  0  0  0
 20101  1  0  0  0
 21 23  1  0  0  0
 22 28  1  0  0  0
 22 32  2  0  0  0
 26 27  1  0  0  0
 28102  1  0  0  0
 28103  1  0  0  0
 29104  1  0  0  0
 29105  1  0  0  0
 33 34  1  0  0  0
 33 66  1  0  0  0
 33 70  2  0  0  0
 34 36  1  0  0  0
 34 59  1  0  0  0
 34106  1  0  0  0
 35 44  2  0  0  0
 35 45  1  0  0  0
 35 68  1  0  0  0
 36 56  1  0  0  0
 36107  1  0  0  0
 37 39  1  0  0  0
 37 47  1  0  0  0
 37 66  1  0  0  0
 37108  1  0  0  0
 38 43  2  0  0  0
 38 46  1  0  0  0
 38 47  1  0  0  0
 39 64  1  0  0  0
 39 67  2  0  0  0
 40 52  1  0  0  0
 40 53  2  0  0  0
 40 58  1  0  0  0
 41109  1  0  0  0
 41110  1  0  0  0
 41111  1  0  0  0
 41 48  1  0  0  0
 42 43  1  0  0  0
 42 66  1  0  0  0
 42112  1  0  0  0
 42113  1  0  0  0
 43 44  1  0  0  0
 44114  1  0  0  0
 45 46  2  0  0  0
 45115  1  0  0  0
 46116  1  0  0  0
 47117  1  0  0  0
 47118  1  0  0  0
 48 56  1  0  0  0
 48 65  1  0  0  0
 48119  1  0  0  0
 49 50  1  0  0  0
 49 53  1  0  0  0
 49 64  1  0  0  0
 49120  1  0  0  0
 50 51  1  0  0  0
 50121  1  0  0  0
 50122  1  0  0  0
 51 52  1  0  0  0
 51123  1  0  0  0
 51124  1  0  0  0
 52125  1  0  0  0
 52126  1  0  0  0
 53 54  1  0  0  0
 54 55  2  0  0  0
 54127  1  0  0  0
 55 57  1  0  0  0
 55128  1  0  0  0
 56 69  2  0  0  0
 57 58  2  0  0  0
 57129  1  0  0  0
 58130  1  0  0  0
 59 60  1  0  0  0
 59 61  1  0  0  0
 59 62  1  0  0  0
 60131  1  0  0  0
 60132  1  0  0  0
 60133  1  0  0  0
 61134  1  0  0  0
 61135  1  0  0  0
 61136  1  0  0  0
 62137  1  0  0  0
 62138  1  0  0  0
 62139  1  0  0  0
 63 65  1  0  0  0
 63140  1  0  0  0
 63141  1  0  0  0
 63142  1  0  0  0
 64143  1  0  0  0
 65144  1  0  0  0
 68 79  1  0  0  0
 71 72  2  0  0  0
 71 74  1  0  0  0
 71145  1  0  0  0
 72 75  1  0  0  0
 72146  1  0  0  0
 73 74  2  0  0  0
 73 76  1  0  0  0
 73147  1  0  0  0
 74 77  1  0  0  0
 75 76  2  0  0  0
 75 80  1  0  0  0
 76 81  1  0  0  0
 77 82  1  0  0  0
 77148  1  0  0  0
 77149  1  0  0  0
 78 79  1  0  0  0
 78 82  1  0  0  0
 78150  1  0  0  0
 78151  1  0  0  0
 79152  1  0  0  0
 79153  1  0  0  0
 80 83  1  0  0  0
 80 84  1  0  0  0
 80 85  1  0  0  0
 81154  1  0  0  0
 82155  1  0  0  0
 82156  1  0  0  0
M  CHG  1  82   1
M  ISO  4   1 100  68 101  79 101  81 100
M  END
> <chiral flag>
0

> <version>
0

> <s_m_source_file>
/data/baiqing/PycharmProjects/Reinvent-master-3.2/result/LINK_invent/BTK/process_docking_weight1_custom_product_contain_oxygen_bond_distance_aromatic_linkinvent_7_9_3/rearranged_h_0005.sdf

> <i_m_source_file_index>
72

> <r_mmod_Potential_Energy-OPLS-2005>
59.2368812561035

> <r_mmod_Stretch_Energy-OPLS-2005>
123.212295532227

> <r_mmod_Bend_Energy-OPLS-2005>
158.014236450195

> <r_mmod_Torsional_Energy-OPLS-2005>
243.938812255859

> <r_mmod_Improper_Torsional_Energy-OPLS-2005>
6.74169826507568

> <r_mmod_Van_der_Waal_Energy-OPLS-2005>
139.208572387695

> <r_mmod_Electrostatic_Energy-OPLS-2005>
-208.305160522461

> <r_mmod_Solvation_Energy-OPLS-2005>
-483.317443847656

> <b_mmod_Minimization_Converged-OPLS-2005>
0

> <r_mmod_RMS_Derivative-OPLS-2005>
2.42849826812744

$$$$
73
                    3D
 Structure written by MMmdl.
175184  0  0  1  0            999 V2000
  -29.0940  -18.0850   20.4334 C   0  0  0  0  0  0
  -29.9336  -14.9622   19.6309 C   0  0  0  0  0  0
  -29.5320  -13.6834   18.6336 C   0  0  0  0  0  0
  -28.3903  -12.7888   19.1090 C   0  0  0  0  0  0
  -27.5280  -13.7525   19.9181 C   0  0  2  0  0  0
  -28.2372  -14.9000   20.8876 C   0  0  0  0  0  0
  -25.1534  -13.9090   20.6123 C   0  0  0  0  0  0
  -24.1421  -13.0619   20.9369 C   0  0  0  0  0  0
  -24.6784  -11.7377   20.8674 C   0  0  0  0  0  0
  -23.9597  -10.4470   21.0216 C   0  0  0  0  0  0
  -24.3955   -9.4347   21.9082 C   0  0  0  0  0  0
  -23.6498   -8.2422   22.0745 C   0  0  0  0  0  0
  -22.4464   -8.0428   21.3549 C   0  0  0  0  0  0
  -22.0204   -9.0423   20.4616 C   0  0  0  0  0  0
  -22.7681  -10.2242   20.2947 C   0  0  0  0  0  0
  -21.6934   -6.0833   22.5275 C   0  0  0  0  0  0
  -21.4077   -6.5694   23.8218 C   0  0  0  0  0  0
  -21.3688   -5.6821   24.9163 C   0  0  0  0  0  0
  -21.6044   -4.3079   24.7196 C   0  0  0  0  0  0
  -21.8816   -3.8199   23.4304 C   0  0  0  0  0  0
  -21.9218   -4.7045   22.3377 C   0  0  0  0  0  0
  -22.7326  -13.4943   21.1937 C   0  0  0  0  0  0
  -22.1678   -4.2213   21.0958 F   0  0  0  0  0  0
  -21.5618   -3.4556   25.7707 F   0  0  0  0  0  0
  -28.9326  -16.2572   20.2393 N   0  0  0  0  0  0
  -26.2729  -13.1476   20.4053 N   0  0  0  0  0  0
  -25.9946  -11.8030   20.5692 N   0  0  0  0  0  0
  -22.0171  -12.7783   22.0502 N   0  0  0  0  0  0
  -25.2143  -15.2883   20.4394 N   0  0  0  0  0  0
  -30.3533  -17.6782   20.3595 O   0  0  0  0  0  0
  -21.6777   -6.9028   21.4258 O   0  0  0  0  0  0
  -22.2826  -14.5191   20.6813 O   0  0  0  0  0  0
  -24.7416  -31.4092   23.2675 C   0  0  0  0  0  0
  -25.9347  -32.2709   23.8373 C   0  0  1  0  0  0
  -28.4347  -25.9064   19.2369 C   0  0  0  0  0  0
  -25.5326  -33.7012   24.0985 N   0  0  0  0  0  0
  -23.4617  -29.7053   21.5981 C   0  0  2  0  0  0
  -25.1886  -27.2695   19.7077 C   0  0  0  0  0  0
  -22.5483  -29.2096   22.6530 C   0  0  0  0  0  0
  -17.9441  -28.1619   22.7386 C   0  0  0  0  0  0
  -24.1413  -36.6518   23.2641 C   0  0  0  0  0  0
  -26.5035  -29.2271   22.5770 C   0  0  0  0  0  0
  -26.9807  -27.7425   21.3115 C   0  0  0  0  0  0
  -28.4604  -26.9193   20.8381 C   0  0  0  0  0  0
  -27.0281  -25.8357   18.1687 C   0  0  0  0  0  0
  -25.5305  -26.4678   18.4063 C   0  0  0  0  0  0
  -23.5174  -28.4394   19.9687 C   0  0  0  0  0  0
  -25.4147  -36.2062   24.0076 C   0  0  1  0  0  0
  -20.4194  -28.3165   23.2410 C   0  0  2  0  0  0
  -20.3766  -26.8322   22.8880 C   0  0  0  0  0  0
  -19.6371  -26.6084   21.5712 C   0  0  0  0  0  0
  -18.1467  -26.9050   21.8652 C   0  0  0  0  0  0
  -19.0381  -28.8893   23.2582 C   0  0  0  0  0  0
  -18.8627  -30.1397   23.8851 C   0  0  0  0  0  0
  -17.5638  -30.6361   24.0371 C   0  0  0  0  0  0
  -25.9141  -34.8316   23.4660 C   0  0  0  0  0  0
  -16.4452  -29.8751   23.6081 C   0  0  0  0  0  0
  -16.6414  -28.6444   22.9733 C   0  0  0  0  0  0
  -26.4856  -31.6990   25.2021 C   0  0  0  0  0  0
  -25.3595  -31.4842   26.2405 C   0  0  0  0  0  0
  -27.2092  -30.3568   25.1220 C   0  0  0  0  0  0
  -27.5589  -32.6459   25.7923 C   0  0  0  0  0  0
  -27.5480  -37.1330   24.8458 C   0  0  0  0  0  0
  -21.2770  -29.0879   22.3639 N   0  0  0  0  0  0
  -26.4177  -37.2995   23.9363 N   0  0  0  0  0  0
  -24.9019  -30.1537   22.6156 N   0  0  0  0  0  0
  -23.0436  -28.7939   23.6972 O   0  0  0  0  0  0
  -28.3184  -24.4982   19.1656 O   0  0  0  0  0  0
  -26.6302  -34.8164   22.4649 O   0  0  0  0  0  0
  -23.6308  -31.9241   23.4835 O   0  0  0  0  0  0
  -27.2622  -27.8383   19.1563 C   0  0  0  0  0  0
  -26.6475  -29.2127   19.4011 C   0  0  0  0  0  0
  -25.5464  -25.9787   21.7594 C   0  0  0  0  0  0
  -26.6481  -25.4796   20.5553 C   0  0  0  0  0  0
  -24.7893  -27.5762   21.8476 C   0  0  0  0  0  0
  -25.5587  -29.3241   20.4866 C   0  0  0  0  0  0
  -23.5480  -22.3389   20.7843 C   0  0  0  0  0  0
  -24.9788  -22.2836   20.2109 C   0  0  0  0  0  0
  -23.3666  -23.6340   21.6791 C   0  0  0  0  0  0
  -24.0371  -24.4727   19.4651 C   0  0  0  0  0  0
  -25.3112  -23.3907   19.1430 C   0  0  1  0  0  0
  -28.2385  -21.4649   17.4311 C   0  0  0  0  0  0
  -28.4142  -23.5551   16.1569 C   0  0  0  0  0  0
  -27.7274  -22.7601   20.8638 C   0  0  0  0  0  0
  -23.5049  -26.3760   21.6654 C   0  0  0  0  0  0
  -27.0152  -23.5371   18.5468 C   0  0  1  0  0  0
  -27.4853  -22.8198   17.1691 C   0  0  0  0  0  0
  -28.2430  -20.1117   20.5744 N   0  0  0  0  0  0
  -23.4339  -24.8896   20.8588 N   0  3  2  0  0  0
  -25.1422  -31.0139   19.9947 Cl  0  0  0  0  0  0
  -30.6711  -15.5063   19.0413 H   0  0  0  0  0  0
  -30.5604  -14.5827   20.4416 H   0  0  0  0  0  0
  -30.4183  -13.0727   18.4515 H   0  0  0  0  0  0
  -29.2617  -14.1035   17.6629 H   0  0  0  0  0  0
  -28.7751  -12.0003   19.7530 H   0  0  0  0  0  0
  -27.8538  -12.3265   18.2792 H   0  0  0  0  0  0
  -27.1596  -14.3838   19.1063 H   0  0  0  0  0  0
  -28.8525  -14.4140   21.6522 H   0  0  0  0  0  0
  -27.4584  -15.3239   21.5208 H   0  0  0  0  0  0
  -25.3068   -9.5802   22.4715 H   0  0  0  0  0  0
  -24.0167   -7.4847   22.7523 H   0  0  0  0  0  0
  -21.1134   -8.9013   19.8901 H   0  0  0  0  0  0
  -22.4149  -10.9769   19.6038 H   0  0  0  0  0  0
  -21.2096   -7.6203   23.9736 H   0  0  0  0  0  0
  -21.1499   -6.0546   25.9067 H   0  0  0  0  0  0
  -22.0551   -2.7652   23.2795 H   0  0  0  0  0  0
  -22.4033  -11.9568   22.4927 H   0  0  0  0  0  0
  -21.0717  -13.0572   22.2746 H   0  0  0  0  0  0
  -24.4067  -15.8956   20.5230 H   0  0  0  0  0  0
  -26.0564  -15.7659   20.1478 H   0  0  0  0  0  0
  -26.7187  -32.2442   23.0857 H   0  0  0  0  0  0
  -24.8715  -33.8071   24.8524 H   0  0  0  0  0  0
  -22.9525  -30.6054   21.2708 H   0  0  0  0  0  0
  -23.3721  -35.8786   23.3071 H   0  0  0  0  0  0
  -24.3417  -36.8533   22.2111 H   0  0  0  0  0  0
  -23.7172  -37.5528   23.7082 H   0  0  0  0  0  0
  -27.3464  -29.9099   22.5087 H   0  0  0  0  0  0
  -26.5324  -28.6086   23.4660 H   0  0  0  0  0  0
  -29.3365  -26.9693   21.4733 H   0  0  0  0  0  0
  -27.1900  -25.4794   17.1672 H   0  0  0  0  0  0
  -24.8282  -26.4226   17.5879 H   0  0  0  0  0  0
  -23.5170  -29.1084   19.1025 H   0  0  0  0  0  0
  -22.5861  -27.9147   19.7695 H   0  0  0  0  0  0
  -25.1473  -36.0734   25.0564 H   0  0  0  0  0  0
  -20.7431  -28.3815   24.2822 H   0  0  0  0  0  0
  -19.7542  -26.3890   23.6720 H   0  0  0  0  0  0
  -21.2960  -26.2937   23.0907 H   0  0  0  0  0  0
  -19.7569  -25.5863   21.1939 H   0  0  0  0  0  0
  -20.0650  -27.2770   20.8152 H   0  0  0  0  0  0
  -17.6639  -27.0920   20.8988 H   0  0  0  0  0  0
  -17.6617  -26.0146   22.2844 H   0  0  0  0  0  0
  -19.7241  -30.6638   24.2821 H   0  0  0  0  0  0
  -17.4090  -31.5828   24.5253 H   0  0  0  0  0  0
  -15.4348  -30.2514   23.7419 H   0  0  0  0  0  0
  -15.7906  -28.0579   22.6428 H   0  0  0  0  0  0
  -24.6257  -30.7402   25.9251 H   0  0  0  0  0  0
  -24.8247  -32.4137   26.4384 H   0  0  0  0  0  0
  -25.7552  -31.1376   27.1970 H   0  0  0  0  0  0
  -26.5129  -29.5296   25.1633 H   0  0  0  0  0  0
  -27.7687  -30.1894   26.0425 H   0  0  0  0  0  0
  -27.9866  -30.2865   24.3727 H   0  0  0  0  0  0
  -27.1423  -33.6205   26.0616 H   0  0  0  0  0  0
  -28.3691  -32.8271   25.0798 H   0  0  0  0  0  0
  -28.0055  -32.2602   26.7128 H   0  0  0  0  0  0
  -28.2341  -37.9765   24.7507 H   0  0  0  0  0  0
  -28.1064  -36.2214   24.6287 H   0  0  0  0  0  0
  -27.2080  -37.0920   25.8812 H   0  0  0  0  0  0
  -20.9038  -29.3768   21.4673 H   0  0  0  0  0  0
  -25.9800  -38.1971   24.1279 H   0  0  0  0  0  0
  -28.0436  -28.0035   18.4089 H   0  0  0  0  0  0
  -27.0163  -30.0638   18.8407 H   0  0  0  0  0  0
  -25.3235  -25.2118   22.4778 H   0  0  0  0  0  0
  -23.4525  -21.4571   21.4122 H   0  0  0  0  0  0
  -22.8183  -22.2800   19.9662 H   0  0  0  0  0  0
  -25.2530  -21.3017   19.8240 H   0  0  0  0  0  0
  -25.4494  -22.4082   21.1762 H   0  0  0  0  0  0
  -24.0827  -23.5880   22.5082 H   0  0  0  0  0  0
  -22.4068  -23.6403   22.1905 H   0  0  0  0  0  0
  -23.4428  -24.8211   18.6068 H   0  0  0  0  0  0
  -24.5396  -25.1967   19.8330 H   0  0  0  0  0  0
  -24.8947  -22.9330   18.2397 H   0  0  0  0  0  0
  -28.8604  -21.1756   16.5899 H   0  0  0  0  0  0
  -27.5543  -20.6398   17.6543 H   0  0  0  0  0  0
  -28.9242  -21.5415   18.2801 H   0  0  0  0  0  0
  -28.7111  -22.8856   15.3376 H   0  0  0  0  0  0
  -29.3447  -23.8731   16.6346 H   0  0  0  0  0  0
  -27.9671  -24.3962   15.6327 H   0  0  0  0  0  0
  -27.4400  -22.6402   21.9045 H   0  0  0  0  0  0
  -28.7669  -23.0476   21.0105 H   0  0  0  0  0  0
  -23.3078  -26.1309   22.7132 H   0  0  0  0  0  0
  -22.5461  -26.8045   21.4183 H   0  0  0  0  0  0
  -27.0289  -22.5167   18.8537 H   0  0  0  0  0  0
  -26.5890  -22.5734   16.5943 H   0  0  0  0  0  0
  -27.2850  -19.7943   20.5366 H   0  0  0  0  0  0
  -22.4742  -24.9178   20.5440 H   0  0  0  0  0  0
  1 25  1  0  0  0
  1 30  2  0  0  0
  1 88  1  0  0  0
  2  3  1  0  0  0
  2 25  1  0  0  0
  2 91  1  0  0  0
  2 92  1  0  0  0
  3  4  1  0  0  0
  3 93  1  0  0  0
  3 94  1  0  0  0
  4  5  1  0  0  0
  4 95  1  0  0  0
  4 96  1  0  0  0
  5  6  1  0  0  0
  5 26  1  0  0  0
  5 97  1  0  0  0
  6 25  1  0  0  0
  6 98  1  0  0  0
  6 99  1  0  0  0
  7  8  2  0  0  0
  7 26  1  0  0  0
  7 29  1  0  0  0
  8  9  1  0  0  0
  8 22  1  0  0  0
  9 10  1  0  0  0
  9 27  2  0  0  0
 10 11  2  0  0  0
 10 15  1  0  0  0
 11 12  1  0  0  0
 11100  1  0  0  0
 12 13  2  0  0  0
 12101  1  0  0  0
 13 14  1  0  0  0
 13 31  1  0  0  0
 14 15  2  0  0  0
 14102  1  0  0  0
 15103  1  0  0  0
 16 17  2  0  0  0
 16 21  1  0  0  0
 16 31  1  0  0  0
 17 18  1  0  0  0
 17104  1  0  0  0
 18 19  2  0  0  0
 18105  1  0  0  0
 19 20  1  0  0  0
 19 24  1  0  0  0
 20 21  2  0  0  0
 20106  1  0  0  0
 21 23  1  0  0  0
 22 28  1  0  0  0
 22 32  2  0  0  0
 26 27  1  0  0  0
 28107  1  0  0  0
 28108  1  0  0  0
 29109  1  0  0  0
 29110  1  0  0  0
 33 34  1  0  0  0
 33 66  1  0  0  0
 33 70  2  0  0  0
 34 36  1  0  0  0
 34 59  1  0  0  0
 34111  1  0  0  0
 35 44  2  0  0  0
 35 45  1  0  0  0
 35 68  1  0  0  0
 36 56  1  0  0  0
 36112  1  0  0  0
 37 39  1  0  0  0
 37 47  1  0  0  0
 37 66  1  0  0  0
 37113  1  0  0  0
 38 43  2  0  0  0
 38 46  1  0  0  0
 38 47  1  0  0  0
 39 64  1  0  0  0
 39 67  2  0  0  0
 40 52  1  0  0  0
 40 53  2  0  0  0
 40 58  1  0  0  0
 41114  1  0  0  0
 41115  1  0  0  0
 41116  1  0  0  0
 41 48  1  0  0  0
 42 43  1  0  0  0
 42 66  1  0  0  0
 42117  1  0  0  0
 42118  1  0  0  0
 43 44  1  0  0  0
 44119  1  0  0  0
 45 46  2  0  0  0
 45120  1  0  0  0
 46121  1  0  0  0
 47122  1  0  0  0
 47123  1  0  0  0
 48 56  1  0  0  0
 48 65  1  0  0  0
 48124  1  0  0  0
 49 50  1  0  0  0
 49 53  1  0  0  0
 49 64  1  0  0  0
 49125  1  0  0  0
 50 51  1  0  0  0
 50126  1  0  0  0
 50127  1  0  0  0
 51 52  1  0  0  0
 51128  1  0  0  0
 51129  1  0  0  0
 52130  1  0  0  0
 52131  1  0  0  0
 53 54  1  0  0  0
 54 55  2  0  0  0
 54132  1  0  0  0
 55 57  1  0  0  0
 55133  1  0  0  0
 56 69  2  0  0  0
 57 58  2  0  0  0
 57134  1  0  0  0
 58135  1  0  0  0
 59 60  1  0  0  0
 59 61  1  0  0  0
 59 62  1  0  0  0
 60136  1  0  0  0
 60137  1  0  0  0
 60138  1  0  0  0
 61139  1  0  0  0
 61140  1  0  0  0
 61141  1  0  0  0
 62142  1  0  0  0
 62143  1  0  0  0
 62144  1  0  0  0
 63 65  1  0  0  0
 63145  1  0  0  0
 63146  1  0  0  0
 63147  1  0  0  0
 64148  1  0  0  0
 65149  1  0  0  0
 68 86  1  0  0  0
 71 72  2  0  0  0
 71 74  1  0  0  0
 71150  1  0  0  0
 72 76  1  0  0  0
 72151  1  0  0  0
 73 74  2  0  0  0
 73 75  1  0  0  0
 73152  1  0  0  0
 74 84  1  0  0  0
 75 76  2  0  0  0
 75 85  1  0  0  0
 76 90  1  0  0  0
 77 78  1  0  0  0
 77 79  1  0  0  0
 77153  1  0  0  0
 77154  1  0  0  0
 78155  1  0  0  0
 78156  1  0  0  0
 78 81  1  0  0  0
 79 89  1  0  0  0
 79157  1  0  0  0
 79158  1  0  0  0
 80 81  1  0  0  0
 80 89  1  0  0  0
 80159  1  0  0  0
 80160  1  0  0  0
 81 86  1  0  0  0
 81161  1  0  0  0
 82162  1  0  0  0
 82163  1  0  0  0
 82164  1  0  0  0
 82 87  1  0  0  0
 83 87  1  0  0  0
 83165  1  0  0  0
 83166  1  0  0  0
 83167  1  0  0  0
 84 88  1  0  0  0
 84168  1  0  0  0
 84169  1  0  0  0
 85170  1  0  0  0
 85171  1  0  0  0
 85 89  1  0  0  0
 86 87  1  0  0  0
 86172  1  0  0  0
 87173  1  0  0  0
 88174  1  0  0  0
 89175  1  0  0  0
M  CHG  1  89   1
M  ISO  4   1 100  68 101  86 101  88 100
M  END
> <chiral flag>
0

> <version>
0

> <s_m_source_file>
/data/baiqing/PycharmProjects/Reinvent-master-3.2/result/LINK_invent/BTK/process_docking_weight1_custom_product_contain_oxygen_bond_distance_aromatic_linkinvent_7_9_3/rearranged_h_0005.sdf

> <i_m_source_file_index>
73

> <r_mmod_Potential_Energy-OPLS-2005>
36053.25390625

> <r_mmod_Stretch_Energy-OPLS-2005>
18840.392578125

> <r_mmod_Bend_Energy-OPLS-2005>
2407.67114257812

> <r_mmod_Torsional_Energy-OPLS-2005>
595.517395019531

> <r_mmod_Improper_Torsional_Energy-OPLS-2005>
68.5435562133789

> <r_mmod_Van_der_Waal_Energy-OPLS-2005>
5547.70361328125

> <r_mmod_Electrostatic_Energy-OPLS-2005>
-251.507369995117

> <r_mmod_Solvation_Energy-OPLS-2005>
-472.346343994141

> <b_mmod_Minimization_Converged-OPLS-2005>
0

> <r_mmod_RMS_Derivative-OPLS-2005>
29.5213737487793

$$$$
74
                    3D
 Structure written by MMmdl.
159168  0  0  1  0            999 V2000
  -30.5855  -14.7541   20.4443 C   0  0  0  0  0  0
  -30.4615  -12.4461   19.4918 C   0  0  0  0  0  0
  -29.5338  -12.4085   18.2521 C   0  0  0  0  0  0
  -28.0434  -12.3172   18.6496 C   0  0  0  0  0  0
  -27.6522  -13.2179   19.8542 C   0  0  2  0  0  0
  -28.6956  -13.1419   20.9886 C   0  0  0  0  0  0
  -25.2563  -13.8164   20.5680 C   0  0  0  0  0  0
  -24.1842  -13.0441   20.9247 C   0  0  0  0  0  0
  -24.6417  -11.6908   20.8803 C   0  0  0  0  0  0
  -23.9090  -10.4283   21.0458 C   0  0  0  0  0  0
  -24.3641   -9.4191   21.9228 C   0  0  0  0  0  0
  -23.6305   -8.2228   22.0769 C   0  0  0  0  0  0
  -22.4272   -8.0297   21.3567 C   0  0  0  0  0  0
  -21.9927   -9.0276   20.4670 C   0  0  0  0  0  0
  -22.7264  -10.2148   20.3106 C   0  0  0  0  0  0
  -21.6828   -6.0757   22.5296 C   0  0  0  0  0  0
  -21.3980   -6.5649   23.8237 C   0  0  0  0  0  0
  -21.3670   -5.6803   24.9201 C   0  0  0  0  0  0
  -21.6053   -4.3066   24.7244 C   0  0  0  0  0  0
  -21.8809   -3.8166   23.4357 C   0  0  0  0  0  0
  -21.9174   -4.6986   22.3414 C   0  0  0  0  0  0
  -22.7856  -13.5252   21.1876 C   0  0  0  0  0  0
  -22.1648   -4.2183   21.0987 F   0  0  0  0  0  0
  -21.5657   -3.4555   25.7757 F   0  0  0  0  0  0
  -29.9950  -13.5094   20.4122 N   0  0  0  0  0  0
  -26.2994  -12.9348   20.3311 N   0  0  0  0  0  0
  -25.9339  -11.6508   20.5807 N   0  0  0  0  0  0
  -22.0440  -12.8274   22.0410 N   0  0  0  0  0  0
  -25.4276  -15.1874   20.4022 N   0  0  0  0  0  0
  -31.7625  -14.8842   20.0972 O   0  0  0  0  0  0
  -21.6618   -6.8905   21.4259 O   0  0  0  0  0  0
  -22.3582  -14.5575   20.6725 O   0  0  0  0  0  0
  -24.6271  -31.8582   23.2022 C   0  0  0  0  0  0
  -25.9113  -32.4765   23.8363 C   0  0  1  0  0  0
  -27.2247  -27.2862   20.1255 C   0  0  0  0  0  0
  -25.5930  -33.8571   24.2271 N   0  0  0  0  0  0
  -23.4233  -30.4814   21.5431 C   0  0  2  0  0  0
  -24.8734  -28.9359   20.1094 C   0  0  0  0  0  0
  -22.7483  -29.4598   22.4894 C   0  0  0  0  0  0
  -18.0286  -28.1392   22.8454 C   0  0  0  0  0  0
  -24.1484  -36.7283   23.2634 C   0  0  0  0  0  0
  -25.9688  -30.7756   21.3852 C   0  0  0  0  0  0
  -26.0418  -29.4016   20.7246 C   0  0  0  0  0  0
  -27.2173  -28.5875   20.7273 C   0  0  0  0  0  0
  -26.0360  -26.8935   19.4650 C   0  0  0  0  0  0
  -24.8747  -27.6876   19.4705 C   0  0  0  0  0  0
  -23.6439  -29.8215   20.1567 C   0  0  0  0  0  0
  -25.4113  -36.3069   24.0312 C   0  0  1  0  0  0
  -20.5887  -28.3696   23.1256 C   0  0  2  0  0  0
  -20.6777  -26.9412   22.5397 C   0  0  0  0  0  0
  -19.5762  -26.6377   21.5190 C   0  0  0  0  0  0
  -18.1937  -26.7930   22.1596 C   0  0  0  0  0  0
  -19.1540  -28.8856   23.2849 C   0  0  0  0  0  0
  -18.9472  -30.1454   23.8872 C   0  0  0  0  0  0
  -17.6477  -30.6592   24.0557 C   0  0  0  0  0  0
  -25.9055  -34.9442   23.5090 C   0  0  0  0  0  0
  -16.5363  -29.9094   23.6333 C   0  0  0  0  0  0
  -16.7276  -28.6514   23.0339 C   0  0  0  0  0  0
  -26.4488  -31.6592   25.0750 C   0  0  0  0  0  0
  -25.3721  -31.3753   26.1484 C   0  0  0  0  0  0
  -27.0346  -30.3007   24.6254 C   0  0  0  0  0  0
  -27.6024  -32.4339   25.7555 C   0  0  0  0  0  0
  -27.5575  -37.1795   24.8444 C   0  0  0  0  0  0
  -21.4193  -29.3049   22.3656 N   0  0  0  0  0  0
  -26.4276  -37.3777   23.9410 N   0  0  0  0  0  0
  -24.6911  -31.0562   22.0996 N   0  0  0  0  0  0
  -23.4192  -28.8124   23.2974 O   0  0  0  0  0  0
  -28.3255  -26.4038   20.2055 O   0  0  0  0  0  0
  -26.5618  -34.8909   22.4652 O   0  0  0  0  0  0
  -23.5420  -32.1404   23.7310 O   0  0  0  0  0  0
  -28.9387  -17.4152   15.7952 C   0  0  0  0  0  0
  -29.0209  -16.1673   16.4305 C   0  0  0  0  0  0
  -29.0709  -18.5862   16.5584 C   0  0  0  0  0  0
  -29.2679  -16.0997   17.8132 C   0  0  0  0  0  0
  -29.3446  -19.7248   18.6644 C   0  0  0  0  0  0
  -29.6734  -18.4586   20.7146 C   0  0  0  0  0  0
  -29.2972  -18.5153   17.9509 C   0  0  0  0  0  0
  -29.4375  -17.2560   18.6057 C   0  0  0  0  0  0
  -29.4950  -19.7491   20.0609 C   0  0  0  0  0  0
  -29.6880  -17.1820   20.0125 C   0  0  0  0  0  0
  -29.5168  -21.1726   20.7748 C   0  0  0  0  0  0
  -29.0768  -23.8020   20.5437 C   0  0  0  0  0  0
  -28.1161  -24.9445   19.9365 C   0  0  0  0  0  0
  -29.7768  -15.8563   20.6967 N   0  0  0  0  0  0
  -28.8079  -22.3536   20.0981 N   0  3  0  0  0  0
  -31.4957  -12.5980   19.1758 H   0  0  0  0  0  0
  -30.4558  -11.4884   20.0125 H   0  0  0  0  0  0
  -29.7936  -11.5432   17.6400 H   0  0  0  0  0  0
  -29.7177  -13.2557   17.5988 H   0  0  0  0  0  0
  -27.8426  -11.2736   18.8921 H   0  0  0  0  0  0
  -27.4122  -12.5469   17.7916 H   0  0  0  0  0  0
  -27.6449  -14.2416   19.4831 H   0  0  0  0  0  0
  -28.7415  -12.1355   21.4091 H   0  0  0  0  0  0
  -28.4242  -13.8036   21.8127 H   0  0  0  0  0  0
  -25.2788   -9.5655   22.4821 H   0  0  0  0  0  0
  -24.0029   -7.4596   22.7452 H   0  0  0  0  0  0
  -21.0881   -8.8802   19.8948 H   0  0  0  0  0  0
  -22.3749  -10.9709   19.6234 H   0  0  0  0  0  0
  -21.1936   -7.6148   23.9758 H   0  0  0  0  0  0
  -21.1522   -6.0524   25.9116 H   0  0  0  0  0  0
  -22.0575   -2.7631   23.2841 H   0  0  0  0  0  0
  -22.3975  -11.9934   22.4849 H   0  0  0  0  0  0
  -21.1080  -13.1379   22.2564 H   0  0  0  0  0  0
  -24.6582  -15.8413   20.4996 H   0  0  0  0  0  0
  -26.2660  -15.6150   20.0269 H   0  0  0  0  0  0
  -26.7175  -32.5413   23.1103 H   0  0  0  0  0  0
  -25.0105  -33.9734   25.0430 H   0  0  0  0  0  0
  -22.7167  -31.3010   21.3988 H   0  0  0  0  0  0
  -23.3760  -35.9601   23.3270 H   0  0  0  0  0  0
  -24.3580  -36.8946   22.2056 H   0  0  0  0  0  0
  -23.7224  -37.6462   23.6693 H   0  0  0  0  0  0
  -26.1117  -31.5389   20.6190 H   0  0  0  0  0  0
  -26.8432  -30.8181   22.0228 H   0  0  0  0  0  0
  -28.1056  -28.9366   21.2354 H   0  0  0  0  0  0
  -25.9668  -25.9508   18.9445 H   0  0  0  0  0  0
  -23.9839  -27.3263   18.9756 H   0  0  0  0  0  0
  -23.7767  -30.6032   19.4074 H   0  0  0  0  0  0
  -22.7625  -29.2605   19.8413 H   0  0  0  0  0  0
  -25.1290  -36.1913   25.0803 H   0  0  0  0  0  0
  -20.9964  -28.3284   24.1382 H   0  0  0  0  0  0
  -20.5667  -26.2307   23.3602 H   0  0  0  0  0  0
  -21.6655  -26.7441   22.1205 H   0  0  0  0  0  0
  -19.6940  -25.6277   21.1247 H   0  0  0  0  0  0
  -19.6727  -27.3164   20.6700 H   0  0  0  0  0  0
  -17.4205  -26.6642   21.4001 H   0  0  0  0  0  0
  -18.0363  -26.0087   22.9015 H   0  0  0  0  0  0
  -19.7958  -30.7261   24.2235 H   0  0  0  0  0  0
  -17.5050  -31.6272   24.5167 H   0  0  0  0  0  0
  -15.5367  -30.3000   23.7685 H   0  0  0  0  0  0
  -15.8666  -28.0843   22.7068 H   0  0  0  0  0  0
  -24.5846  -30.7161   25.7819 H   0  0  0  0  0  0
  -24.8978  -32.2941   26.4949 H   0  0  0  0  0  0
  -25.8037  -30.8889   27.0241 H   0  0  0  0  0  0
  -26.2953  -29.6769   24.1224 H   0  0  0  0  0  0
  -27.3961  -29.7259   25.4789 H   0  0  0  0  0  0
  -27.8857  -30.4282   23.9562 H   0  0  0  0  0  0
  -27.2601  -33.3623   26.2152 H   0  0  0  0  0  0
  -28.3854  -32.6937   25.0416 H   0  0  0  0  0  0
  -28.0686  -31.8466   26.5479 H   0  0  0  0  0  0
  -28.2532  -38.0145   24.7535 H   0  0  0  0  0  0
  -28.1120  -36.2668   24.6204 H   0  0  0  0  0  0
  -27.2294  -37.1366   25.8843 H   0  0  0  0  0  0
  -20.9365  -29.8823   21.6916 H   0  0  0  0  0  0
  -26.0138  -38.2831   24.1471 H   0  0  0  0  0  0
  -28.7511  -17.4746   14.7318 H   0  0  0  0  0  0
  -28.8877  -15.2571   15.8639 H   0  0  0  0  0  0
  -28.9746  -19.5432   16.0646 H   0  0  0  0  0  0
  -29.2939  -15.1270   18.2544 H   0  0  0  0  0  0
  -29.2269  -20.6492   18.1162 H   0  0  0  0  0  0
  -29.8018  -18.4536   21.7881 H   0  0  0  0  0  0
  -30.5641  -21.4409   20.9184 H   0  0  0  0  0  0
  -29.0939  -21.0595   21.7728 H   0  0  0  0  0  0
  -29.0082  -23.8395   21.6313 H   0  0  0  0  0  0
  -30.1112  -24.0470   20.2988 H   0  0  0  0  0  0
  -27.1179  -24.6720   20.2765 H   0  0  0  0  0  0
  -28.1061  -24.8331   18.8515 H   0  0  0  0  0  0
  -28.9318  -15.6113   21.1916 H   0  0  0  0  0  0
  -27.8194  -22.1694   20.1747 H   0  0  0  0  0  0
  -29.0353  -22.3027   19.1196 H   0  0  0  0  0  0
  1 25  1  0  0  0
  1 30  2  0  0  0
  1 84  1  0  0  0
  2  3  1  0  0  0
  2 25  1  0  0  0
  2 86  1  0  0  0
  2 87  1  0  0  0
  3  4  1  0  0  0
  3 88  1  0  0  0
  3 89  1  0  0  0
  4  5  1  0  0  0
  4 90  1  0  0  0
  4 91  1  0  0  0
  5  6  1  0  0  0
  5 26  1  0  0  0
  5 92  1  0  0  0
  6 25  1  0  0  0
  6 93  1  0  0  0
  6 94  1  0  0  0
  7  8  2  0  0  0
  7 26  1  0  0  0
  7 29  1  0  0  0
  8  9  1  0  0  0
  8 22  1  0  0  0
  9 10  1  0  0  0
  9 27  2  0  0  0
 10 11  2  0  0  0
 10 15  1  0  0  0
 11 12  1  0  0  0
 11 95  1  0  0  0
 12 13  2  0  0  0
 12 96  1  0  0  0
 13 14  1  0  0  0
 13 31  1  0  0  0
 14 15  2  0  0  0
 14 97  1  0  0  0
 15 98  1  0  0  0
 16 17  2  0  0  0
 16 21  1  0  0  0
 16 31  1  0  0  0
 17 18  1  0  0  0
 17 99  1  0  0  0
 18 19  2  0  0  0
 18100  1  0  0  0
 19 20  1  0  0  0
 19 24  1  0  0  0
 20 21  2  0  0  0
 20101  1  0  0  0
 21 23  1  0  0  0
 22 28  1  0  0  0
 22 32  2  0  0  0
 26 27  1  0  0  0
 28102  1  0  0  0
 28103  1  0  0  0
 29104  1  0  0  0
 29105  1  0  0  0
 33 34  1  0  0  0
 33 66  1  0  0  0
 33 70  2  0  0  0
 34 36  1  0  0  0
 34 59  1  0  0  0
 34106  1  0  0  0
 35 44  2  0  0  0
 35 45  1  0  0  0
 35 68  1  0  0  0
 36 56  1  0  0  0
 36107  1  0  0  0
 37 39  1  0  0  0
 37 47  1  0  0  0
 37 66  1  0  0  0
 37108  1  0  0  0
 38 43  2  0  0  0
 38 46  1  0  0  0
 38 47  1  0  0  0
 39 64  1  0  0  0
 39 67  2  0  0  0
 40 52  1  0  0  0
 40 53  2  0  0  0
 40 58  1  0  0  0
 41109  1  0  0  0
 41110  1  0  0  0
 41111  1  0  0  0
 41 48  1  0  0  0
 42 43  1  0  0  0
 42 66  1  0  0  0
 42112  1  0  0  0
 42113  1  0  0  0
 43 44  1  0  0  0
 44114  1  0  0  0
 45 46  2  0  0  0
 45115  1  0  0  0
 46116  1  0  0  0
 47117  1  0  0  0
 47118  1  0  0  0
 48 56  1  0  0  0
 48 65  1  0  0  0
 48119  1  0  0  0
 49 50  1  0  0  0
 49 53  1  0  0  0
 49 64  1  0  0  0
 49120  1  0  0  0
 50 51  1  0  0  0
 50121  1  0  0  0
 50122  1  0  0  0
 51 52  1  0  0  0
 51123  1  0  0  0
 51124  1  0  0  0
 52125  1  0  0  0
 52126  1  0  0  0
 53 54  1  0  0  0
 54 55  2  0  0  0
 54127  1  0  0  0
 55 57  1  0  0  0
 55128  1  0  0  0
 56 69  2  0  0  0
 57 58  2  0  0  0
 57129  1  0  0  0
 58130  1  0  0  0
 59 60  1  0  0  0
 59 61  1  0  0  0
 59 62  1  0  0  0
 60131  1  0  0  0
 60132  1  0  0  0
 60133  1  0  0  0
 61134  1  0  0  0
 61135  1  0  0  0
 61136  1  0  0  0
 62137  1  0  0  0
 62138  1  0  0  0
 62139  1  0  0  0
 63 65  1  0  0  0
 63140  1  0  0  0
 63141  1  0  0  0
 63142  1  0  0  0
 64143  1  0  0  0
 65144  1  0  0  0
 68 83  1  0  0  0
 71 72  2  0  0  0
 71 73  1  0  0  0
 71145  1  0  0  0
 72 74  1  0  0  0
 72146  1  0  0  0
 73 77  2  0  0  0
 73147  1  0  0  0
 74 78  2  0  0  0
 74148  1  0  0  0
 75 77  1  0  0  0
 75 79  2  0  0  0
 75149  1  0  0  0
 76 79  1  0  0  0
 76 80  2  0  0  0
 76150  1  0  0  0
 77 78  1  0  0  0
 78 80  1  0  0  0
 79 81  1  0  0  0
 80 84  1  0  0  0
 81 85  1  0  0  0
 81151  1  0  0  0
 81152  1  0  0  0
 82 83  1  0  0  0
 82 85  1  0  0  0
 82153  1  0  0  0
 82154  1  0  0  0
 83155  1  0  0  0
 83156  1  0  0  0
 84157  1  0  0  0
 85158  1  0  0  0
 85159  1  0  0  0
M  CHG  1  85   1
M  ISO  4   1 100  68 101  83 101  84 100
M  END
> <chiral flag>
0

> <version>
0

> <s_m_source_file>
/data/baiqing/PycharmProjects/Reinvent-master-3.2/result/LINK_invent/BTK/process_docking_weight1_custom_product_contain_oxygen_bond_distance_aromatic_linkinvent_7_9_3/rearranged_h_0005.sdf

> <i_m_source_file_index>
74

> <r_mmod_Potential_Energy-OPLS-2005>
5.5701961517334

> <r_mmod_Stretch_Energy-OPLS-2005>
118.363868713379

> <r_mmod_Bend_Energy-OPLS-2005>
149.037368774414

> <r_mmod_Torsional_Energy-OPLS-2005>
247.086486816406

> <r_mmod_Improper_Torsional_Energy-OPLS-2005>
6.27719163894653

> <r_mmod_Van_der_Waal_Energy-OPLS-2005>
162.56379699707

> <r_mmod_Electrostatic_Energy-OPLS-2005>
-281.173248291016

> <r_mmod_Solvation_Energy-OPLS-2005>
-480.832672119141

> <b_mmod_Minimization_Converged-OPLS-2005>
0

> <r_mmod_RMS_Derivative-OPLS-2005>
2.72197127342224

$$$$
75
                    3D
 Structure written by MMmdl.
168177  0  0  1  0            999 V2000
  -30.7678  -14.3689   20.6702 C   0  0  0  0  0  0
  -30.4143  -12.2822   19.4103 C   0  0  0  0  0  0
  -29.4879  -12.5388   18.2064 C   0  0  0  0  0  0
  -28.0123  -12.3946   18.6184 C   0  0  0  0  0  0
  -27.6691  -13.2135   19.8902 C   0  0  2  0  0  0
  -28.7065  -12.9545   21.0078 C   0  0  0  0  0  0
  -25.2580  -13.8196   20.5689 C   0  0  0  0  0  0
  -24.1843  -13.0456   20.9177 C   0  0  0  0  0  0
  -24.6423  -11.6927   20.8744 C   0  0  0  0  0  0
  -23.9098  -10.4307   21.0416 C   0  0  0  0  0  0
  -24.3641   -9.4221   21.9196 C   0  0  0  0  0  0
  -23.6319   -8.2251   22.0750 C   0  0  0  0  0  0
  -22.4294   -8.0289   21.3547 C   0  0  0  0  0  0
  -21.9938   -9.0274   20.4646 C   0  0  0  0  0  0
  -22.7274  -10.2150   20.3069 C   0  0  0  0  0  0
  -21.6850   -6.0758   22.5296 C   0  0  0  0  0  0
  -21.4005   -6.5655   23.8232 C   0  0  0  0  0  0
  -21.3662   -5.6798   24.9193 C   0  0  0  0  0  0
  -21.6046   -4.3064   24.7231 C   0  0  0  0  0  0
  -21.8815   -3.8166   23.4348 C   0  0  0  0  0  0
  -21.9181   -4.6986   22.3409 C   0  0  0  0  0  0
  -22.7854  -13.5222   21.1850 C   0  0  0  0  0  0
  -22.1653   -4.2174   21.0989 F   0  0  0  0  0  0
  -21.5633   -3.4542   25.7743 F   0  0  0  0  0  0
  -30.0572  -13.2269   20.4787 N   0  0  0  0  0  0
  -26.3056  -12.9389   20.3429 N   0  0  0  0  0  0
  -25.9349  -11.6533   20.5776 N   0  0  0  0  0  0
  -22.0489  -12.8217   22.0404 N   0  0  0  0  0  0
  -25.4253  -15.1926   20.4080 N   0  0  0  0  0  0
  -31.7739  -14.6547   20.0140 O   0  0  0  0  0  0
  -21.6644   -6.8895   21.4254 O   0  0  0  0  0  0
  -22.3529  -14.5532   20.6701 O   0  0  0  0  0  0
  -24.6102  -31.8727   23.2140 C   0  0  0  0  0  0
  -25.9003  -32.4853   23.8452 C   0  0  1  0  0  0
  -27.2395  -27.4783   20.0749 C   0  0  0  0  0  0
  -25.5885  -33.8654   24.2372 N   0  0  0  0  0  0
  -23.3964  -30.4968   21.5537 C   0  0  2  0  0  0
  -24.8429  -28.9665   20.1209 C   0  0  0  0  0  0
  -22.7418  -29.4681   22.5033 C   0  0  0  0  0  0
  -18.0267  -28.1375   22.8483 C   0  0  0  0  0  0
  -24.1478  -36.7332   23.2638 C   0  0  0  0  0  0
  -25.9224  -30.8492   21.3616 C   0  0  0  0  0  0
  -26.0013  -29.4857   20.7108 C   0  0  0  0  0  0
  -27.2046  -28.7477   20.6863 C   0  0  0  0  0  0
  -26.0644  -26.9658   19.4830 C   0  0  0  0  0  0
  -24.8657  -27.7021   19.5091 C   0  0  0  0  0  0
  -23.6006  -29.8253   20.1694 C   0  0  0  0  0  0
  -25.4090  -36.3130   24.0345 C   0  0  1  0  0  0
  -20.5862  -28.3651   23.1333 C   0  0  2  0  0  0
  -20.6761  -26.9397   22.5414 C   0  0  0  0  0  0
  -19.5730  -26.6389   21.5215 C   0  0  0  0  0  0
  -18.1906  -26.7918   22.1621 C   0  0  0  0  0  0
  -19.1519  -28.8831   23.2909 C   0  0  0  0  0  0
  -18.9438  -30.1436   23.8919 C   0  0  0  0  0  0
  -17.6440  -30.6580   24.0554 C   0  0  0  0  0  0
  -25.9012  -34.9494   23.5151 C   0  0  0  0  0  0
  -16.5334  -29.9073   23.6323 C   0  0  0  0  0  0
  -16.7259  -28.6496   23.0339 C   0  0  0  0  0  0
  -26.4458  -31.6603   25.0746 C   0  0  0  0  0  0
  -25.3737  -31.3663   26.1499 C   0  0  0  0  0  0
  -27.0295  -30.3059   24.6078 C   0  0  0  0  0  0
  -27.6075  -32.4302   25.7466 C   0  0  0  0  0  0
  -27.5578  -37.1797   24.8462 C   0  0  0  0  0  0
  -21.4151  -29.3038   22.3772 N   0  0  0  0  0  0
  -26.4284  -37.3803   23.9417 N   0  0  0  0  0  0
  -24.6609  -31.0878   22.1011 N   0  0  0  0  0  0
  -23.4214  -28.8232   23.3063 O   0  0  0  0  0  0
  -28.4224  -26.7800   20.0272 O   0  0  0  0  0  0
  -26.5573  -34.8939   22.4709 O   0  0  0  0  0  0
  -23.5299  -32.1461   23.7561 O   0  0  0  0  0  0
  -30.8986  -18.5267   23.1728 C   0  0  0  0  0  0
  -30.7520  -17.1304   23.0509 C   0  0  0  0  0  0
  -30.0090  -24.6884   17.6937 C   0  0  0  0  0  0
  -30.4002  -24.6146   16.3416 C   0  0  0  0  0  0
  -30.4808  -17.3917   20.6512 C   0  0  0  0  0  0
  -29.8989  -22.2318   16.3277 C   0  0  0  0  0  0
  -30.5815  -18.7964   20.7670 C   0  0  0  0  0  0
  -30.8182  -19.3777   22.0439 C   0  0  0  0  0  0
  -29.4894  -22.2986   17.6762 C   0  0  0  0  0  0
  -30.5533  -16.5516   21.7833 C   0  0  0  0  0  0
  -29.5777  -23.5266   18.3728 C   0  0  0  0  0  0
  -30.3608  -23.3827   15.6631 C   0  0  0  0  0  0
  -30.4236  -19.5973   19.5058 C   0  0  0  0  0  0
  -28.8430  -21.0730   18.3103 C   0  0  0  0  0  0
  -28.4601  -25.6018   20.8292 C   0  0  0  0  0  0
  -28.1053  -24.3276   20.0401 C   0  0  0  0  0  0
  -30.9664  -20.8880   22.2431 C   0  0  0  0  0  0
  -30.3508  -15.1502   21.6775 N   0  0  0  0  0  0
  -29.4823  -20.5472   19.5132 N   0  0  0  0  0  0
  -31.0243  -19.2645   18.4819 O   0  0  0  0  0  0
  -29.2555  -23.5656   19.7049 O   0  0  0  0  0  0
  -31.4557  -21.1727   23.4505 F   0  0  0  0  0  0
  -31.7933  -21.4237   21.3453 F   0  0  0  0  0  0
  -29.7699  -21.4651   22.1384 F   0  0  0  0  0  0
  -30.8594  -23.2808   14.0142 Cl  0  0  0  0  0  0
  -31.4592  -12.3703   19.1085 H   0  0  0  0  0  0
  -30.2969  -11.2592   19.7712 H   0  0  0  0  0  0
  -29.7201  -11.8504   17.3939 H   0  0  0  0  0  0
  -29.6637  -13.5427   17.8172 H   0  0  0  0  0  0
  -27.8177  -11.3362   18.7971 H   0  0  0  0  0  0
  -27.3624  -12.6931   17.7962 H   0  0  0  0  0  0
  -27.7241  -14.2674   19.6155 H   0  0  0  0  0  0
  -28.6575  -11.9138   21.3319 H   0  0  0  0  0  0
  -28.4582  -13.5430   21.8909 H   0  0  0  0  0  0
  -25.2788   -9.5690   22.4773 H   0  0  0  0  0  0
  -24.0024   -7.4632   22.7463 H   0  0  0  0  0  0
  -21.0871   -8.8825   19.8944 H   0  0  0  0  0  0
  -22.3766  -10.9700   19.6176 H   0  0  0  0  0  0
  -21.2005   -7.6161   23.9751 H   0  0  0  0  0  0
  -21.1477   -6.0524   25.9093 H   0  0  0  0  0  0
  -22.0583   -2.7626   23.2846 H   0  0  0  0  0  0
  -22.4050  -11.9884   22.4857 H   0  0  0  0  0  0
  -21.1102  -13.1250   22.2578 H   0  0  0  0  0  0
  -24.6558  -15.8462   20.5057 H   0  0  0  0  0  0
  -26.2853  -15.6341   20.1055 H   0  0  0  0  0  0
  -26.7079  -32.5572   23.1238 H   0  0  0  0  0  0
  -25.0042  -33.9840   25.0522 H   0  0  0  0  0  0
  -22.6796  -31.3084   21.4144 H   0  0  0  0  0  0
  -23.3736  -35.9665   23.3293 H   0  0  0  0  0  0
  -24.3597  -36.8949   22.2057 H   0  0  0  0  0  0
  -23.7230  -37.6540   23.6651 H   0  0  0  0  0  0
  -26.0257  -31.6148   20.5916 H   0  0  0  0  0  0
  -26.8140  -30.9074   21.9739 H   0  0  0  0  0  0
  -28.1050  -29.1490   21.1281 H   0  0  0  0  0  0
  -26.0581  -26.0168   18.9736 H   0  0  0  0  0  0
  -23.9752  -27.3027   19.0439 H   0  0  0  0  0  0
  -23.6934  -30.5926   19.3997 H   0  0  0  0  0  0
  -22.7303  -29.2311   19.8849 H   0  0  0  0  0  0
  -25.1249  -36.2013   25.0834 H   0  0  0  0  0  0
  -20.9935  -28.3192   24.1462 H   0  0  0  0  0  0
  -20.5658  -26.2273   23.3606 H   0  0  0  0  0  0
  -21.6631  -26.7443   22.1205 H   0  0  0  0  0  0
  -19.6899  -25.6306   21.1228 H   0  0  0  0  0  0
  -19.6660  -27.3212   20.6753 H   0  0  0  0  0  0
  -17.4189  -26.6673   21.4012 H   0  0  0  0  0  0
  -18.0296  -26.0056   22.9011 H   0  0  0  0  0  0
  -19.7913  -30.7244   24.2314 H   0  0  0  0  0  0
  -17.4987  -31.6256   24.5148 H   0  0  0  0  0  0
  -15.5328  -30.2964   23.7659 H   0  0  0  0  0  0
  -15.8662  -28.0824   22.7039 H   0  0  0  0  0  0
  -24.5919  -30.7012   25.7817 H   0  0  0  0  0  0
  -24.8918  -32.2791   26.5001 H   0  0  0  0  0  0
  -25.8103  -30.8790   27.0225 H   0  0  0  0  0  0
  -26.2822  -29.6798   24.1191 H   0  0  0  0  0  0
  -27.4155  -29.7319   25.4516 H   0  0  0  0  0  0
  -27.8620  -30.4413   23.9170 H   0  0  0  0  0  0
  -27.2750  -33.3598   26.2097 H   0  0  0  0  0  0
  -28.3839  -32.6854   25.0239 H   0  0  0  0  0  0
  -28.0793  -31.8380   26.5316 H   0  0  0  0  0  0
  -28.2585  -38.0100   24.7540 H   0  0  0  0  0  0
  -28.1085  -36.2645   24.6243 H   0  0  0  0  0  0
  -27.2325  -37.1402   25.8870 H   0  0  0  0  0  0
  -20.9337  -29.8789   21.7003 H   0  0  0  0  0  0
  -26.0186  -38.2887   24.1410 H   0  0  0  0  0  0
  -31.0612  -18.9486   24.1531 H   0  0  0  0  0  0
  -30.8055  -16.5119   23.9361 H   0  0  0  0  0  0
  -30.0444  -25.6391   18.2059 H   0  0  0  0  0  0
  -30.7367  -25.5008   15.8244 H   0  0  0  0  0  0
  -30.3026  -16.9662   19.6720 H   0  0  0  0  0  0
  -29.8442  -21.2953   15.7907 H   0  0  0  0  0  0
  -28.7461  -20.2802   17.5668 H   0  0  0  0  0  0
  -27.8185  -21.3448   18.5684 H   0  0  0  0  0  0
  -29.4593  -25.5050   21.2555 H   0  0  0  0  0  0
  -27.7880  -25.7093   21.6843 H   0  0  0  0  0  0
  -27.5039  -24.5373   19.1588 H   0  0  0  0  0  0
  -27.4955  -23.6867   20.6757 H   0  0  0  0  0  0
  -29.7124  -14.7300   22.3360 H   0  0  0  0  0  0
  -29.0410  -20.7737   20.3951 H   0  0  0  0  0  0
  1 25  1  0  0  0
  1 30  2  0  0  0
  1 88  1  0  0  0
  2  3  1  0  0  0
  2 25  1  0  0  0
  2 96  1  0  0  0
  2 97  1  0  0  0
  3  4  1  0  0  0
  3 98  1  0  0  0
  3 99  1  0  0  0
  4  5  1  0  0  0
  4100  1  0  0  0
  4101  1  0  0  0
  5  6  1  0  0  0
  5 26  1  0  0  0
  5102  1  0  0  0
  6 25  1  0  0  0
  6103  1  0  0  0
  6104  1  0  0  0
  7  8  2  0  0  0
  7 26  1  0  0  0
  7 29  1  0  0  0
  8  9  1  0  0  0
  8 22  1  0  0  0
  9 10  1  0  0  0
  9 27  2  0  0  0
 10 11  2  0  0  0
 10 15  1  0  0  0
 11 12  1  0  0  0
 11105  1  0  0  0
 12 13  2  0  0  0
 12106  1  0  0  0
 13 14  1  0  0  0
 13 31  1  0  0  0
 14 15  2  0  0  0
 14107  1  0  0  0
 15108  1  0  0  0
 16 17  2  0  0  0
 16 21  1  0  0  0
 16 31  1  0  0  0
 17 18  1  0  0  0
 17109  1  0  0  0
 18 19  2  0  0  0
 18110  1  0  0  0
 19 20  1  0  0  0
 19 24  1  0  0  0
 20 21  2  0  0  0
 20111  1  0  0  0
 21 23  1  0  0  0
 22 28  1  0  0  0
 22 32  2  0  0  0
 26 27  1  0  0  0
 28112  1  0  0  0
 28113  1  0  0  0
 29114  1  0  0  0
 29115  1  0  0  0
 33 34  1  0  0  0
 33 66  1  0  0  0
 33 70  2  0  0  0
 34 36  1  0  0  0
 34 59  1  0  0  0
 34116  1  0  0  0
 35 44  2  0  0  0
 35 45  1  0  0  0
 35 68  1  0  0  0
 36 56  1  0  0  0
 36117  1  0  0  0
 37 39  1  0  0  0
 37 47  1  0  0  0
 37 66  1  0  0  0
 37118  1  0  0  0
 38 43  2  0  0  0
 38 46  1  0  0  0
 38 47  1  0  0  0
 39 64  1  0  0  0
 39 67  2  0  0  0
 40 52  1  0  0  0
 40 53  2  0  0  0
 40 58  1  0  0  0
 41119  1  0  0  0
 41120  1  0  0  0
 41121  1  0  0  0
 41 48  1  0  0  0
 42 43  1  0  0  0
 42 66  1  0  0  0
 42122  1  0  0  0
 42123  1  0  0  0
 43 44  1  0  0  0
 44124  1  0  0  0
 45 46  2  0  0  0
 45125  1  0  0  0
 46126  1  0  0  0
 47127  1  0  0  0
 47128  1  0  0  0
 48 56  1  0  0  0
 48 65  1  0  0  0
 48129  1  0  0  0
 49 50  1  0  0  0
 49 53  1  0  0  0
 49 64  1  0  0  0
 49130  1  0  0  0
 50 51  1  0  0  0
 50131  1  0  0  0
 50132  1  0  0  0
 51 52  1  0  0  0
 51133  1  0  0  0
 51134  1  0  0  0
 52135  1  0  0  0
 52136  1  0  0  0
 53 54  1  0  0  0
 54 55  2  0  0  0
 54137  1  0  0  0
 55 57  1  0  0  0
 55138  1  0  0  0
 56 69  2  0  0  0
 57 58  2  0  0  0
 57139  1  0  0  0
 58140  1  0  0  0
 59 60  1  0  0  0
 59 61  1  0  0  0
 59 62  1  0  0  0
 60141  1  0  0  0
 60142  1  0  0  0
 60143  1  0  0  0
 61144  1  0  0  0
 61145  1  0  0  0
 61146  1  0  0  0
 62147  1  0  0  0
 62148  1  0  0  0
 62149  1  0  0  0
 63 65  1  0  0  0
 63150  1  0  0  0
 63151  1  0  0  0
 63152  1  0  0  0
 64153  1  0  0  0
 65154  1  0  0  0
 68 85  1  0  0  0
 71 72  2  0  0  0
 71 78  1  0  0  0
 71155  1  0  0  0
 72 80  1  0  0  0
 72156  1  0  0  0
 73 74  2  0  0  0
 73 81  1  0  0  0
 73157  1  0  0  0
 74 82  1  0  0  0
 74158  1  0  0  0
 75 77  1  0  0  0
 75 80  2  0  0  0
 75159  1  0  0  0
 76 79  1  0  0  0
 76 82  2  0  0  0
 76160  1  0  0  0
 77 78  2  0  0  0
 77 83  1  0  0  0
 78 87  1  0  0  0
 79 81  2  0  0  0
 79 84  1  0  0  0
 80 88  1  0  0  0
 81 91  1  0  0  0
 82 95  1  0  0  0
 83 89  1  0  0  0
 83 90  2  0  0  0
 84 89  1  0  0  0
 84161  1  0  0  0
 84162  1  0  0  0
 85 86  1  0  0  0
 85163  1  0  0  0
 85164  1  0  0  0
 86 91  1  0  0  0
 86165  1  0  0  0
 86166  1  0  0  0
 87 92  1  0  0  0
 87 93  1  0  0  0
 87 94  1  0  0  0
 88167  1  0  0  0
 89168  1  0  0  0
M  ISO  4   1 100  68 101  85 101  88 100
M  END
> <chiral flag>
0

> <version>
0

> <s_m_source_file>
/data/baiqing/PycharmProjects/Reinvent-master-3.2/result/LINK_invent/BTK/process_docking_weight1_custom_product_contain_oxygen_bond_distance_aromatic_linkinvent_7_9_3/rearranged_h_0005.sdf

> <i_m_source_file_index>
75

> <r_mmod_Potential_Energy-OPLS-2005>
-118.889991760254

> <r_mmod_Stretch_Energy-OPLS-2005>
35.1007080078125

> <r_mmod_Bend_Energy-OPLS-2005>
94.3921890258789

> <r_mmod_Torsional_Energy-OPLS-2005>
293.034606933594

> <r_mmod_Improper_Torsional_Energy-OPLS-2005>
5.6574821472168

> <r_mmod_Van_der_Waal_Energy-OPLS-2005>
174.635101318359

> <r_mmod_Electrostatic_Energy-OPLS-2005>
-492.242126464844

> <r_mmod_Solvation_Energy-OPLS-2005>
-236.233489990234

> <b_mmod_Minimization_Converged-OPLS-2005>
0

> <r_mmod_RMS_Derivative-OPLS-2005>
2.66359496116638

$$$$
76
                    3D
 Structure written by MMmdl.
179189  0  0  1  0            999 V2000
  -30.7559  -14.4343   20.6191 C   0  0  0  0  0  0
  -30.4156  -12.3178   19.3892 C   0  0  0  0  0  0
  -29.4779  -12.5383   18.1850 C   0  0  0  0  0  0
  -28.0042  -12.3769   18.6032 C   0  0  0  0  0  0
  -27.6663  -13.1909   19.8770 C   0  0  2  0  0  0
  -28.7196  -12.9303   20.9861 C   0  0  0  0  0  0
  -25.2603  -13.8129   20.5645 C   0  0  0  0  0  0
  -24.1846  -13.0450   20.9185 C   0  0  0  0  0  0
  -24.6382  -11.6904   20.8740 C   0  0  0  0  0  0
  -23.9037  -10.4293   21.0402 C   0  0  0  0  0  0
  -24.3596   -9.4210   21.9180 C   0  0  0  0  0  0
  -23.6281   -8.2243   22.0752 C   0  0  0  0  0  0
  -22.4264   -8.0264   21.3544 C   0  0  0  0  0  0
  -21.9882   -9.0238   20.4649 C   0  0  0  0  0  0
  -22.7209  -10.2121   20.3048 C   0  0  0  0  0  0
  -21.6849   -6.0714   22.5282 C   0  0  0  0  0  0
  -21.3999   -6.5623   23.8207 C   0  0  0  0  0  0
  -21.3664   -5.6778   24.9175 C   0  0  0  0  0  0
  -21.6054   -4.3040   24.7221 C   0  0  0  0  0  0
  -21.8824   -3.8129   23.4345 C   0  0  0  0  0  0
  -21.9197   -4.6947   22.3401 C   0  0  0  0  0  0
  -22.7858  -13.5251   21.1844 C   0  0  0  0  0  0
  -22.1656   -4.2141   21.0973 F   0  0  0  0  0  0
  -21.5655   -3.4517   25.7729 F   0  0  0  0  0  0
  -30.0412  -13.2800   20.4437 N   0  0  0  0  0  0
  -26.3051  -12.9288   20.3385 N   0  0  0  0  0  0
  -25.9316  -11.6468   20.5796 N   0  0  0  0  0  0
  -22.0463  -12.8264   22.0383 N   0  0  0  0  0  0
  -25.4299  -15.1854   20.4014 N   0  0  0  0  0  0
  -31.8306  -14.6037   20.0323 O   0  0  0  0  0  0
  -21.6645   -6.8860   21.4239 O   0  0  0  0  0  0
  -22.3565  -14.5565   20.6688 O   0  0  0  0  0  0
  -24.6096  -31.8765   23.2125 C   0  0  0  0  0  0
  -25.9007  -32.4869   23.8423 C   0  0  1  0  0  0
  -27.2362  -27.4889   20.0835 C   0  0  0  0  0  0
  -25.5885  -33.8681   24.2342 N   0  0  0  0  0  0
  -23.3923  -30.4976   21.5538 C   0  0  2  0  0  0
  -24.8383  -28.9593   20.1272 C   0  0  0  0  0  0
  -22.7335  -29.4737   22.5058 C   0  0  0  0  0  0
  -18.0238  -28.1382   22.8512 C   0  0  0  0  0  0
  -24.1486  -36.7330   23.2637 C   0  0  0  0  0  0
  -25.9148  -30.8555   21.3569 C   0  0  0  0  0  0
  -25.9948  -29.4871   20.7190 C   0  0  0  0  0  0
  -27.1981  -28.7564   20.7007 C   0  0  0  0  0  0
  -26.0611  -26.9445   19.5286 C   0  0  0  0  0  0
  -24.8623  -27.6822   19.5353 C   0  0  0  0  0  0
  -23.5982  -29.8226   20.1700 C   0  0  0  0  0  0
  -25.4114  -36.3148   24.0336 C   0  0  1  0  0  0
  -20.5830  -28.3668   23.1370 C   0  0  2  0  0  0
  -20.6740  -26.9420   22.5452 C   0  0  0  0  0  0
  -19.5734  -26.6399   21.5244 C   0  0  0  0  0  0
  -18.1897  -26.7924   22.1647 C   0  0  0  0  0  0
  -19.1484  -28.8819   23.2946 C   0  0  0  0  0  0
  -18.9433  -30.1413   23.8979 C   0  0  0  0  0  0
  -17.6446  -30.6592   24.0560 C   0  0  0  0  0  0
  -25.9044  -34.9524   23.5141 C   0  0  0  0  0  0
  -16.5329  -29.9106   23.6323 C   0  0  0  0  0  0
  -16.7227  -28.6515   23.0360 C   0  0  0  0  0  0
  -26.4449  -31.6624   25.0722 C   0  0  0  0  0  0
  -25.3724  -31.3749   26.1483 C   0  0  0  0  0  0
  -27.0214  -30.3059   24.6040 C   0  0  0  0  0  0
  -27.6027  -32.4319   25.7521 C   0  0  0  0  0  0
  -27.5590  -37.1817   24.8468 C   0  0  0  0  0  0
  -21.4082  -29.3052   22.3769 N   0  0  0  0  0  0
  -26.4310  -37.3816   23.9409 N   0  0  0  0  0  0
  -24.6566  -31.0895   22.1008 N   0  0  0  0  0  0
  -23.4109  -28.8318   23.3114 O   0  0  0  0  0  0
  -28.4125  -26.8036   19.9576 O   0  0  0  0  0  0
  -26.5628  -34.8976   22.4718 O   0  0  0  0  0  0
  -23.5310  -32.1506   23.7550 O   0  0  0  0  0  0
  -30.5570  -19.3503   18.8505 C   0  0  0  0  0  0
  -30.4541  -20.4462   17.9736 C   0  0  0  0  0  0
  -29.6537  -20.7152   20.6500 C   0  0  0  0  0  0
  -30.1349  -19.4706   20.1921 C   0  0  0  0  0  0
  -29.9363  -21.6807   18.4189 C   0  0  0  0  0  0
  -29.5585  -21.8139   19.7772 C   0  0  0  0  0  0
  -31.6130  -26.4496   19.3442 C   0  0  0  0  0  0
  -29.0626  -17.2436   20.6389 C   0  0  0  0  0  0
  -31.4750  -17.5760   21.3231 C   0  0  0  0  0  0
  -29.0392  -16.0233   21.5679 C   0  0  0  0  0  0
  -31.3500  -16.2633   22.1457 C   0  0  0  0  0  0
  -30.7341  -24.0227   17.8014 C   0  0  0  0  0  0
  -28.6708  -24.9597   17.3200 C   0  0  0  0  0  0
  -30.1057  -18.2622   21.1208 C   0  0  0  0  0  0
  -29.8253  -22.8412   17.4292 C   0  0  2  0  0  0
  -28.4113  -23.4479   17.3135 C   0  0  2  0  0  0
  -29.2681  -27.4043   18.9767 C   0  0  0  0  0  0
  -30.3508  -26.4280   18.4509 C   0  0  2  0  0  0
  -30.3515  -15.3495   21.5475 N   0  0  0  0  0  0
  -29.8017  -25.0625   18.2382 N   0  0  0  0  0  0
  -32.7882  -26.3186   18.7385 N   0  0  0  0  0  0
  -27.6633  -22.9876   16.1286 N   0  3  0  0  0  0
  -31.5421  -26.5462   20.5694 O   0  0  0  0  0  0
  -29.0838  -22.9868   20.2585 F   0  0  0  0  0  0
  -31.4561  -12.4144   19.0732 H   0  0  0  0  0  0
  -30.3240  -11.2948   19.7585 H   0  0  0  0  0  0
  -29.7167  -11.8350   17.3864 H   0  0  0  0  0  0
  -29.6333  -13.5359   17.7679 H   0  0  0  0  0  0
  -27.8149  -11.3174   18.7744 H   0  0  0  0  0  0
  -27.3481  -12.6747   17.7846 H   0  0  0  0  0  0
  -27.7140  -14.2346   19.5716 H   0  0  0  0  0  0
  -28.7091  -11.8739   21.2614 H   0  0  0  0  0  0
  -28.4930  -13.4402   21.9199 H   0  0  0  0  0  0
  -25.2730   -9.5712   22.4765 H   0  0  0  0  0  0
  -23.9998   -7.4641   22.7466 H   0  0  0  0  0  0
  -21.0811   -8.8750   19.8955 H   0  0  0  0  0  0
  -22.3658  -10.9652   19.6153 H   0  0  0  0  0  0
  -21.1948   -7.6124   23.9703 H   0  0  0  0  0  0
  -21.1486   -6.0504   25.9081 H   0  0  0  0  0  0
  -22.0592   -2.7588   23.2848 H   0  0  0  0  0  0
  -22.4066  -11.9958   22.4852 H   0  0  0  0  0  0
  -21.1066  -13.1302   22.2519 H   0  0  0  0  0  0
  -24.6565  -15.8327   20.5066 H   0  0  0  0  0  0
  -26.2789  -15.6284   20.0780 H   0  0  0  0  0  0
  -26.7087  -32.5605   23.1222 H   0  0  0  0  0  0
  -24.9869  -33.9881   25.0363 H   0  0  0  0  0  0
  -22.6793  -31.3143   21.4106 H   0  0  0  0  0  0
  -23.3757  -35.9657   23.3326 H   0  0  0  0  0  0
  -24.3566  -36.8932   22.2042 H   0  0  0  0  0  0
  -23.7223  -37.6532   23.6654 H   0  0  0  0  0  0
  -26.0101  -31.6095   20.5741 H   0  0  0  0  0  0
  -26.8091  -30.9229   21.9635 H   0  0  0  0  0  0
  -28.0982  -29.1667   21.1368 H   0  0  0  0  0  0
  -26.0796  -25.9670   19.0720 H   0  0  0  0  0  0
  -23.9725  -27.2598   19.0872 H   0  0  0  0  0  0
  -23.6949  -30.5937   19.4035 H   0  0  0  0  0  0
  -22.7245  -29.2356   19.8803 H   0  0  0  0  0  0
  -25.1289  -36.2057   25.0829 H   0  0  0  0  0  0
  -20.9892  -28.3232   24.1507 H   0  0  0  0  0  0
  -20.5664  -26.2286   23.3629 H   0  0  0  0  0  0
  -21.6607  -26.7491   22.1236 H   0  0  0  0  0  0
  -19.6886  -25.6321   21.1240 H   0  0  0  0  0  0
  -19.6684  -27.3237   20.6806 H   0  0  0  0  0  0
  -17.4171  -26.6682   21.4030 H   0  0  0  0  0  0
  -18.0285  -26.0054   22.9041 H   0  0  0  0  0  0
  -19.7918  -30.7169   24.2421 H   0  0  0  0  0  0
  -17.5027  -31.6308   24.5118 H   0  0  0  0  0  0
  -15.5341  -30.3053   23.7601 H   0  0  0  0  0  0
  -15.8623  -28.0848   22.7079 H   0  0  0  0  0  0
  -24.5841  -30.7180   25.7815 H   0  0  0  0  0  0
  -24.8994  -32.2916   26.5007 H   0  0  0  0  0  0
  -25.8037  -30.8832   27.0205 H   0  0  0  0  0  0
  -26.2694  -29.6942   24.1025 H   0  0  0  0  0  0
  -27.3875  -29.7220   25.4498 H   0  0  0  0  0  0
  -27.8626  -30.4352   23.9214 H   0  0  0  0  0  0
  -27.2569  -33.3552   26.2196 H   0  0  0  0  0  0
  -28.3790  -32.6983   25.0332 H   0  0  0  0  0  0
  -28.0742  -31.8383   26.5371 H   0  0  0  0  0  0
  -28.2605  -38.0115   24.7494 H   0  0  0  0  0  0
  -28.1055  -36.2636   24.6280 H   0  0  0  0  0  0
  -27.2298  -37.1433   25.8866 H   0  0  0  0  0  0
  -20.9201  -29.8765   21.7011 H   0  0  0  0  0  0
  -26.0218  -38.2907   24.1411 H   0  0  0  0  0  0
  -30.9368  -18.4103   18.4740 H   0  0  0  0  0  0
  -30.7677  -20.3272   16.9464 H   0  0  0  0  0  0
  -29.3305  -20.8354   21.6749 H   0  0  0  0  0  0
  -28.0763  -17.7069   20.6034 H   0  0  0  0  0  0
  -29.2850  -16.9222   19.6207 H   0  0  0  0  0  0
  -31.9184  -17.3409   20.3561 H   0  0  0  0  0  0
  -32.1615  -18.2656   21.8152 H   0  0  0  0  0  0
  -28.2025  -15.4063   21.2799 H   0  0  0  0  0  0
  -28.8106  -16.3344   22.5884 H   0  0  0  0  0  0
  -31.0637  -16.4859   23.1745 H   0  0  0  0  0  0
  -32.3286  -15.7829   22.2208 H   0  0  0  0  0  0
  -31.2775  -24.3595   16.9163 H   0  0  0  0  0  0
  -31.4734  -23.7563   18.5591 H   0  0  0  0  0  0
  -27.7964  -25.5198   17.6497 H   0  0  0  0  0  0
  -28.9481  -25.3232   16.3274 H   0  0  0  0  0  0
  -29.7803  -18.6136   22.1027 H   0  0  0  0  0  0
  -30.1471  -22.4825   16.4506 H   0  0  0  0  0  0
  -27.8194  -23.2080   18.1957 H   0  0  0  0  0  0
  -28.6770  -27.7539   18.1258 H   0  0  0  0  0  0
  -29.7375  -28.2980   19.3912 H   0  0  0  0  0  0
  -30.6671  -26.8134   17.4793 H   0  0  0  0  0  0
  -32.8359  -26.2357   17.7326 H   0  0  0  0  0  0
  -33.6438  -26.3086   19.2759 H   0  0  0  0  0  0
  -28.1044  -23.3014   15.2826 H   0  0  0  0  0  0
  -26.7222  -23.3433   16.1443 H   0  0  0  0  0  0
  -27.6066  -21.9856   16.1137 H   0  0  0  0  0  0
  1 25  1  0  0  0
  1 30  2  0  0  0
  1 89  1  0  0  0
  2  3  1  0  0  0
  2 25  1  0  0  0
  2 95  1  0  0  0
  2 96  1  0  0  0
  3  4  1  0  0  0
  3 97  1  0  0  0
  3 98  1  0  0  0
  4  5  1  0  0  0
  4 99  1  0  0  0
  4100  1  0  0  0
  5  6  1  0  0  0
  5 26  1  0  0  0
  5101  1  0  0  0
  6 25  1  0  0  0
  6102  1  0  0  0
  6103  1  0  0  0
  7  8  2  0  0  0
  7 26  1  0  0  0
  7 29  1  0  0  0
  8  9  1  0  0  0
  8 22  1  0  0  0
  9 10  1  0  0  0
  9 27  2  0  0  0
 10 11  2  0  0  0
 10 15  1  0  0  0
 11 12  1  0  0  0
 11104  1  0  0  0
 12 13  2  0  0  0
 12105  1  0  0  0
 13 14  1  0  0  0
 13 31  1  0  0  0
 14 15  2  0  0  0
 14106  1  0  0  0
 15107  1  0  0  0
 16 17  2  0  0  0
 16 21  1  0  0  0
 16 31  1  0  0  0
 17 18  1  0  0  0
 17108  1  0  0  0
 18 19  2  0  0  0
 18109  1  0  0  0
 19 20  1  0  0  0
 19 24  1  0  0  0
 20 21  2  0  0  0
 20110  1  0  0  0
 21 23  1  0  0  0
 22 28  1  0  0  0
 22 32  2  0  0  0
 26 27  1  0  0  0
 28111  1  0  0  0
 28112  1  0  0  0
 29113  1  0  0  0
 29114  1  0  0  0
 33 34  1  0  0  0
 33 66  1  0  0  0
 33 70  2  0  0  0
 34 36  1  0  0  0
 34 59  1  0  0  0
 34115  1  0  0  0
 35 44  2  0  0  0
 35 45  1  0  0  0
 35 68  1  0  0  0
 36 56  1  0  0  0
 36116  1  0  0  0
 37 39  1  0  0  0
 37 47  1  0  0  0
 37 66  1  0  0  0
 37117  1  0  0  0
 38 43  2  0  0  0
 38 46  1  0  0  0
 38 47  1  0  0  0
 39 64  1  0  0  0
 39 67  2  0  0  0
 40 52  1  0  0  0
 40 53  2  0  0  0
 40 58  1  0  0  0
 41118  1  0  0  0
 41119  1  0  0  0
 41120  1  0  0  0
 41 48  1  0  0  0
 42 43  1  0  0  0
 42 66  1  0  0  0
 42121  1  0  0  0
 42122  1  0  0  0
 43 44  1  0  0  0
 44123  1  0  0  0
 45 46  2  0  0  0
 45124  1  0  0  0
 46125  1  0  0  0
 47126  1  0  0  0
 47127  1  0  0  0
 48 56  1  0  0  0
 48 65  1  0  0  0
 48128  1  0  0  0
 49 50  1  0  0  0
 49 53  1  0  0  0
 49 64  1  0  0  0
 49129  1  0  0  0
 50 51  1  0  0  0
 50130  1  0  0  0
 50131  1  0  0  0
 51 52  1  0  0  0
 51132  1  0  0  0
 51133  1  0  0  0
 52134  1  0  0  0
 52135  1  0  0  0
 53 54  1  0  0  0
 54 55  2  0  0  0
 54136  1  0  0  0
 55 57  1  0  0  0
 55137  1  0  0  0
 56 69  2  0  0  0
 57 58  2  0  0  0
 57138  1  0  0  0
 58139  1  0  0  0
 59 60  1  0  0  0
 59 61  1  0  0  0
 59 62  1  0  0  0
 60140  1  0  0  0
 60141  1  0  0  0
 60142  1  0  0  0
 61143  1  0  0  0
 61144  1  0  0  0
 61145  1  0  0  0
 62146  1  0  0  0
 62147  1  0  0  0
 62148  1  0  0  0
 63 65  1  0  0  0
 63149  1  0  0  0
 63150  1  0  0  0
 63151  1  0  0  0
 64152  1  0  0  0
 65153  1  0  0  0
 68 87  1  0  0  0
 71 72  2  0  0  0
 71 74  1  0  0  0
 71154  1  0  0  0
 72 75  1  0  0  0
 72155  1  0  0  0
 73 74  2  0  0  0
 73 76  1  0  0  0
 73156  1  0  0  0
 74 84  1  0  0  0
 75 76  2  0  0  0
 75 85  1  0  0  0
 76 94  1  0  0  0
 77 88  1  0  0  0
 77 91  1  0  0  0
 77 93  2  0  0  0
 78 80  1  0  0  0
 78 84  1  0  0  0
 78157  1  0  0  0
 78158  1  0  0  0
 79 81  1  0  0  0
 79 84  1  0  0  0
 79159  1  0  0  0
 79160  1  0  0  0
 80 89  1  0  0  0
 80161  1  0  0  0
 80162  1  0  0  0
 81 89  1  0  0  0
 81163  1  0  0  0
 81164  1  0  0  0
 82 85  1  0  0  0
 82 90  1  0  0  0
 82165  1  0  0  0
 82166  1  0  0  0
 83 86  1  0  0  0
 83 90  1  0  0  0
 83167  1  0  0  0
 83168  1  0  0  0
 84169  1  0  0  0
 85 86  1  0  0  0
 85170  1  0  0  0
 86 92  1  0  0  0
 86171  1  0  0  0
 87172  1  0  0  0
 87173  1  0  0  0
 87 88  1  0  0  0
 88 90  1  0  0  0
 88174  1  0  0  0
 91175  1  0  0  0
 91176  1  0  0  0
 92177  1  0  0  0
 92178  1  0  0  0
 92179  1  0  0  0
M  CHG  1  92   1
M  ISO  4   1 100  68 101  87 101  89 100
M  END
> <chiral flag>
0

> <version>
0

> <s_m_source_file>
/data/baiqing/PycharmProjects/Reinvent-master-3.2/result/LINK_invent/BTK/process_docking_weight1_custom_product_contain_oxygen_bond_distance_aromatic_linkinvent_7_9_3/rearranged_h_0005.sdf

> <i_m_source_file_index>
76

> <r_mmod_Potential_Energy-OPLS-2005>
-84.4632949829102

> <r_mmod_Stretch_Energy-OPLS-2005>
41.5520324707031

> <r_mmod_Bend_Energy-OPLS-2005>
142.86962890625

> <r_mmod_Torsional_Energy-OPLS-2005>
400.424072265625

> <r_mmod_Improper_Torsional_Energy-OPLS-2005>
5.82093381881714

> <r_mmod_Van_der_Waal_Energy-OPLS-2005>
166.795776367188

> <r_mmod_Electrostatic_Energy-OPLS-2005>
-295.990478515625

> <r_mmod_Solvation_Energy-OPLS-2005>
-555.329895019531

> <b_mmod_Minimization_Converged-OPLS-2005>
0

> <r_mmod_RMS_Derivative-OPLS-2005>
3.71853184700012

$$$$
77
                    3D
 Structure written by MMmdl.
196207  0  0  1  0            999 V2000
  -30.7054  -14.5915   20.2687 C   0  0  0  0  0  0
  -30.4079  -12.3121   19.4080 C   0  0  0  0  0  0
  -29.4620  -12.3492   18.1929 C   0  0  0  0  0  0
  -27.9879  -12.2906   18.6323 C   0  0  0  0  0  0
  -27.6406  -13.2122   19.8308 C   0  0  2  0  0  0
  -28.7138  -13.1664   20.9346 C   0  0  0  0  0  0
  -25.2569  -13.8160   20.5727 C   0  0  0  0  0  0
  -24.1842  -13.0471   20.9251 C   0  0  0  0  0  0
  -24.6405  -11.6930   20.8816 C   0  0  0  0  0  0
  -23.9109  -10.4307   21.0401 C   0  0  0  0  0  0
  -24.3635   -9.4215   21.9185 C   0  0  0  0  0  0
  -23.6298   -8.2262   22.0769 C   0  0  0  0  0  0
  -22.4312   -8.0279   21.3518 C   0  0  0  0  0  0
  -21.9924   -9.0277   20.4653 C   0  0  0  0  0  0
  -22.7274  -10.2145   20.3060 C   0  0  0  0  0  0
  -21.6856   -6.0749   22.5300 C   0  0  0  0  0  0
  -21.4003   -6.5644   23.8235 C   0  0  0  0  0  0
  -21.3672   -5.6785   24.9178 C   0  0  0  0  0  0
  -21.6045   -4.3055   24.7208 C   0  0  0  0  0  0
  -21.8832   -3.8162   23.4333 C   0  0  0  0  0  0
  -21.9178   -4.6974   22.3393 C   0  0  0  0  0  0
  -22.7854  -13.5238   21.1850 C   0  0  0  0  0  0
  -22.1668   -4.2159   21.0975 F   0  0  0  0  0  0
  -21.5619   -3.4553   25.7728 F   0  0  0  0  0  0
  -30.0119  -13.4185   20.2908 N   0  0  0  0  0  0
  -26.3011  -12.9364   20.3341 N   0  0  0  0  0  0
  -25.9341  -11.6547   20.5861 N   0  0  0  0  0  0
  -22.0531  -12.8218   22.0390 N   0  0  0  0  0  0
  -25.4321  -15.1915   20.4174 N   0  0  0  0  0  0
  -31.9372  -14.6081   20.2679 O   0  0  0  0  0  0
  -21.6655   -6.8896   21.4261 O   0  0  0  0  0  0
  -22.3549  -14.5560   20.6673 O   0  0  0  0  0  0
  -24.6181  -31.8637   23.2121 C   0  0  0  0  0  0
  -25.9083  -32.4812   23.8463 C   0  0  1  0  0  0
  -27.2675  -27.4586   20.1099 C   0  0  0  0  0  0
  -25.5925  -33.8602   24.2310 N   0  0  0  0  0  0
  -23.4043  -30.4802   21.5488 C   0  0  2  0  0  0
  -24.8572  -28.9396   20.1364 C   0  0  0  0  0  0
  -22.7397  -29.4648   22.5037 C   0  0  0  0  0  0
  -18.0264  -28.1419   22.8479 C   0  0  0  0  0  0
  -24.1506  -36.7348   23.2641 C   0  0  0  0  0  0
  -25.9323  -30.8430   21.3631 C   0  0  0  0  0  0
  -26.0142  -29.4682   20.7256 C   0  0  0  0  0  0
  -27.2206  -28.7357   20.7067 C   0  0  0  0  0  0
  -26.0943  -26.9289   19.5297 C   0  0  0  0  0  0
  -24.8906  -27.6643   19.5411 C   0  0  0  0  0  0
  -23.6225  -29.8060   20.1663 C   0  0  0  0  0  0
  -25.4134  -36.3082   24.0315 C   0  0  1  0  0  0
  -20.5823  -28.3669   23.1335 C   0  0  2  0  0  0
  -20.6779  -26.9442   22.5414 C   0  0  0  0  0  0
  -19.5749  -26.6421   21.5202 C   0  0  0  0  0  0
  -18.1922  -26.7957   22.1617 C   0  0  0  0  0  0
  -19.1505  -28.8861   23.2897 C   0  0  0  0  0  0
  -18.9444  -30.1464   23.8903 C   0  0  0  0  0  0
  -17.6449  -30.6597   24.0578 C   0  0  0  0  0  0
  -25.9060  -34.9443   23.5126 C   0  0  0  0  0  0
  -16.5348  -29.9101   23.6337 C   0  0  0  0  0  0
  -16.7266  -28.6542   23.0322 C   0  0  0  0  0  0
  -26.4503  -31.6612   25.0787 C   0  0  0  0  0  0
  -25.3810  -31.3726   26.1543 C   0  0  0  0  0  0
  -27.0316  -30.3050   24.6152 C   0  0  0  0  0  0
  -27.6013  -32.4384   25.7553 C   0  0  0  0  0  0
  -27.5575  -37.1817   24.8454 C   0  0  0  0  0  0
  -21.4111  -29.3027   22.3743 N   0  0  0  0  0  0
  -26.4257  -37.3779   23.9439 N   0  0  0  0  0  0
  -24.6691  -31.0723   22.1038 N   0  0  0  0  0  0
  -23.4172  -28.8106   23.3014 O   0  0  0  0  0  0
  -28.4745  -26.8004   20.0156 O   0  0  0  0  0  0
  -26.5588  -34.8888   22.4635 O   0  0  0  0  0  0
  -23.5358  -32.1394   23.7499 O   0  0  0  0  0  0
  -31.8683  -20.8233   16.1027 C   0  0  0  0  0  0
  -29.7803  -23.4150   17.7685 C   0  0  0  0  0  0
  -31.3503  -19.6376   16.6587 C   0  0  0  0  0  0
  -30.5080  -24.5827   17.4378 C   0  0  0  0  0  0
  -29.7106  -20.9336   17.9013 C   0  0  0  0  0  0
  -32.0521  -23.2400   16.1267 C   0  0  0  0  0  0
  -30.2750  -22.1371   17.3945 C   0  0  0  0  0  0
  -31.3795  -22.0703   16.5180 C   0  0  0  0  0  0
  -30.2780  -19.6730   17.5943 C   0  0  0  0  0  0
  -31.7094  -24.4804   16.6941 C   0  0  0  0  0  0
  -33.2234  -26.0818   17.6798 C   0  0  0  0  0  0
  -34.5834  -24.2042   19.9607 C   0  0  0  0  0  0
  -36.7207  -27.0139   18.7951 C   0  0  0  0  0  0
  -35.6103  -27.0845   17.7480 C   0  0  0  0  0  0
  -29.8095  -18.3198   19.7825 C   0  0  0  0  0  0
  -30.3422  -17.1011   17.6567 C   0  0  0  0  0  0
  -36.3840  -25.8338   19.7120 C   0  0  0  0  0  0
  -30.4538  -17.0304   20.4071 C   0  0  0  0  0  0
  -29.8690  -15.8072   18.3443 C   0  0  0  0  0  0
  -29.7204  -18.3726   18.2353 C   0  0  0  0  0  0
  -34.7332  -25.8215   17.9256 C   0  0  1  0  0  0
  -33.1613  -23.6747   19.7249 C   0  0  0  0  0  0
  -30.6441  -24.2406   21.9135 C   0  0  0  0  0  0
  -30.2163  -25.4927   21.0784 C   0  0  0  0  0  0
  -31.1642  -22.9911   21.1338 C   0  0  0  0  0  0
  -28.6880  -25.6675   20.8652 C   0  0  0  0  0  0
  -35.1477  -25.2025   19.2167 N   0  0  0  0  0  0
  -30.0499  -15.7152   19.8232 N   0  0  0  0  0  0
  -32.6861  -25.5033   16.5889 N   0  0  0  0  0  0
  -32.6320  -22.9318   20.9011 N   0  3  0  0  0  0
  -32.5663  -26.7804   18.4636 O   0  0  0  0  0  0
  -35.2020  -23.6931   20.8988 O   0  0  0  0  0  0
  -31.4495  -12.3976   19.0839 H   0  0  0  0  0  0
  -30.3212  -11.3621   19.9356 H   0  0  0  0  0  0
  -29.6703  -11.4964   17.5513 H   0  0  0  0  0  0
  -29.6292  -13.2141   17.5623 H   0  0  0  0  0  0
  -27.7960  -11.2528   18.9039 H   0  0  0  0  0  0
  -27.3279  -12.4940   17.7868 H   0  0  0  0  0  0
  -27.6301  -14.2209   19.4317 H   0  0  0  0  0  0
  -28.7253  -12.2066   21.4482 H   0  0  0  0  0  0
  -28.5080  -13.9249   21.6963 H   0  0  0  0  0  0
  -25.2772   -9.5683   22.4770 H   0  0  0  0  0  0
  -24.0014   -7.4635   22.7470 H   0  0  0  0  0  0
  -21.0863   -8.8796   19.8924 H   0  0  0  0  0  0
  -22.3743  -10.9688   19.6171 H   0  0  0  0  0  0
  -21.2027   -7.6162   23.9724 H   0  0  0  0  0  0
  -21.1477   -6.0524   25.9066 H   0  0  0  0  0  0
  -22.0590   -2.7637   23.2836 H   0  0  0  0  0  0
  -22.4133  -11.9865   22.4770 H   0  0  0  0  0  0
  -21.1155  -13.1219   22.2605 H   0  0  0  0  0  0
  -24.6708  -15.8494   20.5417 H   0  0  0  0  0  0
  -26.2959  -15.6344   20.1331 H   0  0  0  0  0  0
  -26.7185  -32.5511   23.1277 H   0  0  0  0  0  0
  -25.0074  -33.9764   25.0435 H   0  0  0  0  0  0
  -22.6938  -31.2934   21.3962 H   0  0  0  0  0  0
  -23.3690  -35.9738   23.3288 H   0  0  0  0  0  0
  -24.3554  -36.8974   22.2045 H   0  0  0  0  0  0
  -23.7325  -37.6570   23.6679 H   0  0  0  0  0  0
  -26.0311  -31.5987   20.5860 H   0  0  0  0  0  0
  -26.8185  -30.8997   21.9814 H   0  0  0  0  0  0
  -28.1196  -29.1360   21.1486 H   0  0  0  0  0  0
  -26.1281  -25.9729   19.0326 H   0  0  0  0  0  0
  -24.0097  -27.2414   19.0781 H   0  0  0  0  0  0
  -23.7543  -30.5782   19.4052 H   0  0  0  0  0  0
  -22.7442  -29.2336   19.8698 H   0  0  0  0  0  0
  -25.1305  -36.1910   25.0787 H   0  0  0  0  0  0
  -20.9923  -28.3279   24.1431 H   0  0  0  0  0  0
  -20.5645  -26.2339   23.3609 H   0  0  0  0  0  0
  -21.6664  -26.7469   22.1217 H   0  0  0  0  0  0
  -19.6927  -25.6312   21.1265 H   0  0  0  0  0  0
  -19.6713  -27.3215   20.6711 H   0  0  0  0  0  0
  -17.4238  -26.6697   21.4028 H   0  0  0  0  0  0
  -18.0329  -26.0081   22.8997 H   0  0  0  0  0  0
  -19.7910  -30.7276   24.2330 H   0  0  0  0  0  0
  -17.5004  -31.6252   24.5196 H   0  0  0  0  0  0
  -15.5354  -30.3019   23.7610 H   0  0  0  0  0  0
  -15.8687  -28.0854   22.7018 H   0  0  0  0  0  0
  -24.5948  -30.7112   25.7900 H   0  0  0  0  0  0
  -24.9099  -32.2909   26.5058 H   0  0  0  0  0  0
  -25.8192  -30.8862   27.0253 H   0  0  0  0  0  0
  -26.2825  -29.6772   24.1331 H   0  0  0  0  0  0
  -27.4178  -29.7318   25.4577 H   0  0  0  0  0  0
  -27.8628  -30.4305   23.9209 H   0  0  0  0  0  0
  -27.2509  -33.3586   26.2212 H   0  0  0  0  0  0
  -28.3752  -32.7109   25.0380 H   0  0  0  0  0  0
  -28.0772  -31.8548   26.5419 H   0  0  0  0  0  0
  -28.2585  -38.0134   24.7495 H   0  0  0  0  0  0
  -28.1072  -36.2635   24.6268 H   0  0  0  0  0  0
  -27.2290  -37.1499   25.8854 H   0  0  0  0  0  0
  -20.9342  -29.8722   21.6940 H   0  0  0  0  0  0
  -26.0132  -38.2832   24.1396 H   0  0  0  0  0  0
  -32.6817  -20.7730   15.3897 H   0  0  0  0  0  0
  -28.9123  -23.5118   18.4061 H   0  0  0  0  0  0
  -31.7957  -18.7136   16.3245 H   0  0  0  0  0  0
  -30.1864  -25.5308   17.8424 H   0  0  0  0  0  0
  -28.8547  -20.9754   18.5553 H   0  0  0  0  0  0
  -32.9224  -23.1611   15.4946 H   0  0  0  0  0  0
  -36.7652  -27.9338   19.3767 H   0  0  0  0  0  0
  -37.7010  -26.9004   18.3293 H   0  0  0  0  0  0
  -36.0463  -27.1234   16.7449 H   0  0  0  0  0  0
  -35.0323  -28.0047   17.8707 H   0  0  0  0  0  0
  -28.8027  -18.4249   20.1800 H   0  0  0  0  0  0
  -30.3526  -19.1889   20.1507 H   0  0  0  0  0  0
  -30.1110  -17.0514   16.5878 H   0  0  0  0  0  0
  -31.4270  -17.1751   17.7279 H   0  0  0  0  0  0
  -36.2864  -26.1528   20.7510 H   0  0  0  0  0  0
  -37.2039  -25.1074   19.6892 H   0  0  0  0  0  0
  -31.5310  -17.1345   20.2876 H   0  0  0  0  0  0
  -30.2784  -17.0219   21.4833 H   0  0  0  0  0  0
  -28.8258  -15.6142   18.0849 H   0  0  0  0  0  0
  -30.4740  -15.0492   17.8537 H   0  0  0  0  0  0
  -28.6575  -18.3625   18.0028 H   0  0  0  0  0  0
  -35.0629  -25.1082   17.1577 H   0  0  0  0  0  0
  -33.1287  -23.0628   18.8280 H   0  0  0  0  0  0
  -32.4981  -24.5100   19.5801 H   0  0  0  0  0  0
  -29.7588  -23.9222   22.4646 H   0  0  0  0  0  0
  -31.3690  -24.5026   22.6816 H   0  0  0  0  0  0
  -30.7285  -25.5277   20.1195 H   0  0  0  0  0  0
  -30.5798  -26.3725   21.6097 H   0  0  0  0  0  0
  -30.6157  -22.8509   20.2067 H   0  0  0  0  0  0
  -30.9428  -22.1184   21.7514 H   0  0  0  0  0  0
  -28.1973  -25.8202   21.8310 H   0  0  0  0  0  0
  -28.2424  -24.7816   20.4065 H   0  0  0  0  0  0
  -33.4029  -25.2686   15.9094 H   0  0  0  0  0  0
  -33.1341  -23.2337   21.7228 H   0  0  0  0  0  0
  -32.8821  -21.9587   20.7791 H   0  0  0  0  0  0
  1 25  1  0  0  0
  1 30  2  0  0  0
  1 98  1  0  0  0
  2  3  1  0  0  0
  2 25  1  0  0  0
  2103  1  0  0  0
  2104  1  0  0  0
  3  4  1  0  0  0
  3105  1  0  0  0
  3106  1  0  0  0
  4  5  1  0  0  0
  4107  1  0  0  0
  4108  1  0  0  0
  5  6  1  0  0  0
  5 26  1  0  0  0
  5109  1  0  0  0
  6 25  1  0  0  0
  6110  1  0  0  0
  6111  1  0  0  0
  7  8  2  0  0  0
  7 26  1  0  0  0
  7 29  1  0  0  0
  8  9  1  0  0  0
  8 22  1  0  0  0
  9 10  1  0  0  0
  9 27  2  0  0  0
 10 11  2  0  0  0
 10 15  1  0  0  0
 11 12  1  0  0  0
 11112  1  0  0  0
 12 13  2  0  0  0
 12113  1  0  0  0
 13 14  1  0  0  0
 13 31  1  0  0  0
 14 15  2  0  0  0
 14114  1  0  0  0
 15115  1  0  0  0
 16 17  2  0  0  0
 16 21  1  0  0  0
 16 31  1  0  0  0
 17 18  1  0  0  0
 17116  1  0  0  0
 18 19  2  0  0  0
 18117  1  0  0  0
 19 20  1  0  0  0
 19 24  1  0  0  0
 20 21  2  0  0  0
 20118  1  0  0  0
 21 23  1  0  0  0
 22 28  1  0  0  0
 22 32  2  0  0  0
 26 27  1  0  0  0
 28119  1  0  0  0
 28120  1  0  0  0
 29121  1  0  0  0
 29122  1  0  0  0
 33 34  1  0  0  0
 33 66  1  0  0  0
 33 70  2  0  0  0
 34 36  1  0  0  0
 34 59  1  0  0  0
 34123  1  0  0  0
 35 44  2  0  0  0
 35 45  1  0  0  0
 35 68  1  0  0  0
 36 56  1  0  0  0
 36124  1  0  0  0
 37 39  1  0  0  0
 37 47  1  0  0  0
 37 66  1  0  0  0
 37125  1  0  0  0
 38 43  2  0  0  0
 38 46  1  0  0  0
 38 47  1  0  0  0
 39 64  1  0  0  0
 39 67  2  0  0  0
 40 52  1  0  0  0
 40 53  2  0  0  0
 40 58  1  0  0  0
 41126  1  0  0  0
 41127  1  0  0  0
 41128  1  0  0  0
 41 48  1  0  0  0
 42 43  1  0  0  0
 42 66  1  0  0  0
 42129  1  0  0  0
 42130  1  0  0  0
 43 44  1  0  0  0
 44131  1  0  0  0
 45 46  2  0  0  0
 45132  1  0  0  0
 46133  1  0  0  0
 47134  1  0  0  0
 47135  1  0  0  0
 48 56  1  0  0  0
 48 65  1  0  0  0
 48136  1  0  0  0
 49 50  1  0  0  0
 49 53  1  0  0  0
 49 64  1  0  0  0
 49137  1  0  0  0
 50 51  1  0  0  0
 50138  1  0  0  0
 50139  1  0  0  0
 51 52  1  0  0  0
 51140  1  0  0  0
 51141  1  0  0  0
 52142  1  0  0  0
 52143  1  0  0  0
 53 54  1  0  0  0
 54 55  2  0  0  0
 54144  1  0  0  0
 55 57  1  0  0  0
 55145  1  0  0  0
 56 69  2  0  0  0
 57 58  2  0  0  0
 57146  1  0  0  0
 58147  1  0  0  0
 59 60  1  0  0  0
 59 61  1  0  0  0
 59 62  1  0  0  0
 60148  1  0  0  0
 60149  1  0  0  0
 60150  1  0  0  0
 61151  1  0  0  0
 61152  1  0  0  0
 61153  1  0  0  0
 62154  1  0  0  0
 62155  1  0  0  0
 62156  1  0  0  0
 63 65  1  0  0  0
 63157  1  0  0  0
 63158  1  0  0  0
 63159  1  0  0  0
 64160  1  0  0  0
 65161  1  0  0  0
 68 96  1  0  0  0
 71 73  2  0  0  0
 71 78  1  0  0  0
 71162  1  0  0  0
 72 74  1  0  0  0
 72 77  2  0  0  0
 72163  1  0  0  0
 73 79  1  0  0  0
 73164  1  0  0  0
 74 80  2  0  0  0
 74165  1  0  0  0
 75 77  1  0  0  0
 75 79  2  0  0  0
 75166  1  0  0  0
 76 78  2  0  0  0
 76 80  1  0  0  0
 76167  1  0  0  0
 77 78  1  0  0  0
 79 90  1  0  0  0
 80 99  1  0  0  0
 81 99  1  0  0  0
 81101  2  0  0  0
 81 91  1  0  0  0
 82 92  1  0  0  0
 82 97  1  0  0  0
 82102  2  0  0  0
 83 84  1  0  0  0
 83 87  1  0  0  0
 83168  1  0  0  0
 83169  1  0  0  0
 84 91  1  0  0  0
 84170  1  0  0  0
 84171  1  0  0  0
 85 88  1  0  0  0
 85 90  1  0  0  0
 85172  1  0  0  0
 85173  1  0  0  0
 86 89  1  0  0  0
 86 90  1  0  0  0
 86174  1  0  0  0
 86175  1  0  0  0
 87 97  1  0  0  0
 87176  1  0  0  0
 87177  1  0  0  0
 88 98  1  0  0  0
 88178  1  0  0  0
 88179  1  0  0  0
 89 98  1  0  0  0
 89180  1  0  0  0
 89181  1  0  0  0
 90182  1  0  0  0
 91 97  1  0  0  0
 91183  1  0  0  0
 92100  1  0  0  0
 92184  1  0  0  0
 92185  1  0  0  0
 93 94  1  0  0  0
 93 95  1  0  0  0
 93186  1  0  0  0
 93187  1  0  0  0
 94 96  1  0  0  0
 94188  1  0  0  0
 94189  1  0  0  0
 95100  1  0  0  0
 95190  1  0  0  0
 95191  1  0  0  0
 96192  1  0  0  0
 96193  1  0  0  0
 99194  1  0  0  0
100195  1  0  0  0
100196  1  0  0  0
M  CHG  1 100   1
M  ISO  4   1 100  68 101  96 101  98 100
M  END
> <chiral flag>
0

> <version>
0

> <s_m_source_file>
/data/baiqing/PycharmProjects/Reinvent-master-3.2/result/LINK_invent/BTK/process_docking_weight1_custom_product_contain_oxygen_bond_distance_aromatic_linkinvent_7_9_3/rearranged_h_0005.sdf

> <i_m_source_file_index>
77

> <r_mmod_Potential_Energy-OPLS-2005>
121.039115905762

> <r_mmod_Stretch_Energy-OPLS-2005>
61.599193572998

> <r_mmod_Bend_Energy-OPLS-2005>
174.583908081055

> <r_mmod_Torsional_Energy-OPLS-2005>
528.861267089844

> <r_mmod_Improper_Torsional_Energy-OPLS-2005>
21.7228012084961

> <r_mmod_Van_der_Waal_Energy-OPLS-2005>
166.109725952148

> <r_mmod_Electrostatic_Energy-OPLS-2005>
-412.659729003906

> <r_mmod_Solvation_Energy-OPLS-2005>
-473.239624023438

> <b_mmod_Minimization_Converged-OPLS-2005>
0

> <r_mmod_RMS_Derivative-OPLS-2005>
12.26784324646

$$$$
78
                    3D
 Structure written by MMmdl.
177187  0  0  1  0            999 V2000
  -30.6800  -14.5314   20.4214 C   0  0  0  0  0  0
  -30.4126  -12.2902   19.4430 C   0  0  0  0  0  0
  -29.4891  -12.3843   18.2106 C   0  0  0  0  0  0
  -28.0036  -12.3068   18.6204 C   0  0  0  0  0  0
  -27.6403  -13.1922   19.8437 C   0  0  2  0  0  0
  -28.6923  -13.0834   20.9688 C   0  0  0  0  0  0
  -25.2551  -13.8133   20.5679 C   0  0  0  0  0  0
  -24.1799  -13.0419   20.9195 C   0  0  0  0  0  0
  -24.6346  -11.6891   20.8754 C   0  0  0  0  0  0
  -23.9035  -10.4288   21.0425 C   0  0  0  0  0  0
  -24.3608   -9.4211   21.9190 C   0  0  0  0  0  0
  -23.6299   -8.2232   22.0752 C   0  0  0  0  0  0
  -22.4277   -8.0268   21.3539 C   0  0  0  0  0  0
  -21.9912   -9.0230   20.4632 C   0  0  0  0  0  0
  -22.7224  -10.2124   20.3051 C   0  0  0  0  0  0
  -21.6855   -6.0730   22.5287 C   0  0  0  0  0  0
  -21.4016   -6.5638   23.8214 C   0  0  0  0  0  0
  -21.3653   -5.6800   24.9186 C   0  0  0  0  0  0
  -21.6048   -4.3061   24.7243 C   0  0  0  0  0  0
  -21.8823   -3.8151   23.4366 C   0  0  0  0  0  0
  -21.9192   -4.6961   22.3416 C   0  0  0  0  0  0
  -22.7837  -13.5224   21.1882 C   0  0  0  0  0  0
  -22.1660   -4.2138   21.0988 F   0  0  0  0  0  0
  -21.5629   -3.4552   25.7761 F   0  0  0  0  0  0
  -30.0100  -13.3487   20.3763 N   0  0  0  0  0  0
  -26.2925  -12.9251   20.3294 N   0  0  0  0  0  0
  -25.9255  -11.6452   20.5789 N   0  0  0  0  0  0
  -22.0484  -12.8170   22.0416 N   0  0  0  0  0  0
  -25.4347  -15.1841   20.4112 N   0  0  0  0  0  0
  -31.8898  -14.6223   20.1883 O   0  0  0  0  0  0
  -21.6652   -6.8865   21.4242 O   0  0  0  0  0  0
  -22.3516  -14.5534   20.6750 O   0  0  0  0  0  0
  -24.6030  -31.8735   23.2108 C   0  0  0  0  0  0
  -25.8948  -32.4871   23.8391 C   0  0  1  0  0  0
  -27.2466  -27.4853   20.0996 C   0  0  0  0  0  0
  -25.5817  -33.8675   24.2265 N   0  0  0  0  0  0
  -23.3927  -30.4935   21.5500 C   0  0  2  0  0  0
  -24.8463  -28.9611   20.1205 C   0  0  0  0  0  0
  -22.7355  -29.4672   22.5001 C   0  0  0  0  0  0
  -18.0266  -28.1345   22.8489 C   0  0  0  0  0  0
  -24.1489  -36.7319   23.2631 C   0  0  0  0  0  0
  -25.9171  -30.8496   21.3683 C   0  0  0  0  0  0
  -25.9997  -29.4879   20.7151 C   0  0  0  0  0  0
  -27.2031  -28.7556   20.7073 C   0  0  0  0  0  0
  -26.0855  -26.9599   19.5000 C   0  0  0  0  0  0
  -24.8797  -27.6897   19.5158 C   0  0  0  0  0  0
  -23.6029  -29.8194   20.1668 C   0  0  0  0  0  0
  -25.4126  -36.3163   24.0319 C   0  0  1  0  0  0
  -20.5846  -28.3629   23.1325 C   0  0  2  0  0  0
  -20.6757  -26.9371   22.5445 C   0  0  0  0  0  0
  -19.5754  -26.6349   21.5218 C   0  0  0  0  0  0
  -18.1915  -26.7888   22.1606 C   0  0  0  0  0  0
  -19.1510  -28.8801   23.2908 C   0  0  0  0  0  0
  -18.9455  -30.1399   23.8938 C   0  0  0  0  0  0
  -17.6473  -30.6583   24.0550 C   0  0  0  0  0  0
  -25.9044  -34.9525   23.5102 C   0  0  0  0  0  0
  -16.5364  -29.9099   23.6308 C   0  0  0  0  0  0
  -16.7260  -28.6496   23.0357 C   0  0  0  0  0  0
  -26.4352  -31.6674   25.0736 C   0  0  0  0  0  0
  -25.3604  -31.3911   26.1498 C   0  0  0  0  0  0
  -27.0108  -30.3075   24.6143 C   0  0  0  0  0  0
  -27.5870  -32.4428   25.7549 C   0  0  0  0  0  0
  -27.5591  -37.1837   24.8444 C   0  0  0  0  0  0
  -21.4097  -29.3009   22.3733 N   0  0  0  0  0  0
  -26.4312  -37.3834   23.9394 N   0  0  0  0  0  0
  -24.6547  -31.0872   22.0999 N   0  0  0  0  0  0
  -23.4145  -28.8229   23.3051 O   0  0  0  0  0  0
  -28.4109  -26.7629   20.0314 O   0  0  0  0  0  0
  -26.5656  -34.8972   22.4689 O   0  0  0  0  0  0
  -23.5235  -32.1469   23.7522 O   0  0  0  0  0  0
  -30.2474  -17.6633   17.2791 C   0  0  0  0  0  0
  -30.7773  -18.9177   16.9229 C   0  0  0  0  0  0
  -29.9396  -17.4328   18.6336 C   0  0  0  0  0  0
  -30.1512  -18.4603   19.5558 C   0  0  0  0  0  0
  -30.9677  -19.8944   17.9211 C   0  0  0  0  0  0
  -31.7679  -22.9665   19.3088 C   0  0  0  0  0  0
  -32.0517  -25.6159   21.8287 C   0  0  0  0  0  0
  -29.3576  -16.1200   19.1396 C   0  0  0  0  0  0
  -29.8047  -18.1716   21.0009 C   0  0  0  0  0  0
  -34.4690  -22.0410   19.9770 C   0  0  0  0  0  0
  -33.6477  -22.7439   21.0603 C   0  0  0  0  0  0
  -30.2158  -16.7316   21.4199 C   0  0  0  0  0  0
  -33.5620  -21.2385   19.0288 C   0  0  0  0  0  0
  -32.6242  -23.6666   20.3822 C   0  0  2  0  0  0
  -31.5731  -21.2474   17.5543 C   0  0  0  0  0  0
  -30.9946  -26.2647   22.7280 C   0  0  0  0  0  0
  -29.9629  -27.0860   21.9229 C   0  0  0  0  0  0
  -28.8692  -26.2193   21.2645 C   0  0  0  0  0  0
  -30.6464  -19.6710   19.2202 N   0  0  0  0  0  0
  -32.3006  -21.9083   18.6493 N   0  0  0  0  0  0
  -29.9101  -15.6560   20.4382 N   0  0  0  0  0  0
  -31.8036  -24.3872   21.3616 N   0  0  0  0  0  0
  -30.6455  -23.4210   19.0568 O   0  0  0  0  0  0
  -33.0778  -26.2372   21.5519 O   0  0  0  0  0  0
  -31.4590  -12.3673   19.1425 H   0  0  0  0  0  0
  -30.3092  -11.3182   19.9260 H   0  0  0  0  0  0
  -29.7108  -11.5570   17.5348 H   0  0  0  0  0  0
  -29.6895  -13.2901   17.6407 H   0  0  0  0  0  0
  -27.7854  -11.2634   18.8475 H   0  0  0  0  0  0
  -27.3707  -12.5605   17.7694 H   0  0  0  0  0  0
  -27.6333  -14.2105   19.4770 H   0  0  0  0  0  0
  -28.6743  -12.0918   21.4229 H   0  0  0  0  0  0
  -28.4713  -13.7931   21.7673 H   0  0  0  0  0  0
  -25.2745   -9.5707   22.4776 H   0  0  0  0  0  0
  -24.0021   -7.4630   22.7470 H   0  0  0  0  0  0
  -21.0860   -8.8744   19.8919 H   0  0  0  0  0  0
  -22.3677  -10.9673   19.6171 H   0  0  0  0  0  0
  -21.2007   -7.6149   23.9716 H   0  0  0  0  0  0
  -21.1466   -6.0532   25.9081 H   0  0  0  0  0  0
  -22.0605   -2.7608   23.2884 H   0  0  0  0  0  0
  -22.4126  -11.9817   22.4766 H   0  0  0  0  0  0
  -21.1090  -13.1150   22.2634 H   0  0  0  0  0  0
  -24.6853  -15.8555   20.5361 H   0  0  0  0  0  0
  -26.3059  -15.6147   20.1296 H   0  0  0  0  0  0
  -26.7037  -32.5595   23.1177 H   0  0  0  0  0  0
  -24.9892  -33.9847   25.0354 H   0  0  0  0  0  0
  -22.6808  -31.3087   21.4094 H   0  0  0  0  0  0
  -23.3797  -35.9596   23.3295 H   0  0  0  0  0  0
  -24.3571  -36.8949   22.2043 H   0  0  0  0  0  0
  -23.7181  -37.6487   23.6664 H   0  0  0  0  0  0
  -26.0430  -31.6259   20.6131 H   0  0  0  0  0  0
  -26.7947  -30.8854   22.0023 H   0  0  0  0  0  0
  -28.0968  -29.1748   21.1474 H   0  0  0  0  0  0
  -26.1172  -25.9907   19.0224 H   0  0  0  0  0  0
  -23.9942  -27.2747   19.0589 H   0  0  0  0  0  0
  -23.6993  -30.5910   19.4012 H   0  0  0  0  0  0
  -22.7292  -29.2302   19.8801 H   0  0  0  0  0  0
  -25.1309  -36.2046   25.0812 H   0  0  0  0  0  0
  -20.9928  -28.3205   24.1448 H   0  0  0  0  0  0
  -20.5643  -26.2255   23.3633 H   0  0  0  0  0  0
  -21.6642  -26.7421   22.1281 H   0  0  0  0  0  0
  -19.6956  -25.6260   21.1256 H   0  0  0  0  0  0
  -19.6712  -27.3135   20.6717 H   0  0  0  0  0  0
  -17.4204  -26.6609   21.4000 H   0  0  0  0  0  0
  -18.0337  -26.0018   22.8985 H   0  0  0  0  0  0
  -19.7947  -30.7152   24.2378 H   0  0  0  0  0  0
  -17.5063  -31.6287   24.5097 H   0  0  0  0  0  0
  -15.5374  -30.3036   23.7597 H   0  0  0  0  0  0
  -15.8643  -28.0824   22.7079 H   0  0  0  0  0  0
  -24.5660  -30.7373   25.7879 H   0  0  0  0  0  0
  -24.8947  -32.3164   26.4925 H   0  0  0  0  0  0
  -25.7907  -30.9084   27.0277 H   0  0  0  0  0  0
  -26.2694  -29.7086   24.0845 H   0  0  0  0  0  0
  -27.3388  -29.7101   25.4650 H   0  0  0  0  0  0
  -27.8747  -30.4303   23.9607 H   0  0  0  0  0  0
  -27.2349  -33.3666   26.2176 H   0  0  0  0  0  0
  -28.3681  -32.7139   25.0431 H   0  0  0  0  0  0
  -28.0529  -31.8558   26.5476 H   0  0  0  0  0  0
  -28.2634  -38.0122   24.7556 H   0  0  0  0  0  0
  -28.1079  -36.2674   24.6222 H   0  0  0  0  0  0
  -27.2322  -37.1446   25.8848 H   0  0  0  0  0  0
  -20.9246  -29.8748   21.6981 H   0  0  0  0  0  0
  -26.0219  -38.2905   24.1424 H   0  0  0  0  0  0
  -30.0935  -16.8956   16.5313 H   0  0  0  0  0  0
  -31.0450  -19.1207   15.8924 H   0  0  0  0  0  0
  -29.4419  -15.3678   18.3555 H   0  0  0  0  0  0
  -28.2900  -16.2963   19.2756 H   0  0  0  0  0  0
  -28.7257  -18.2921   21.1063 H   0  0  0  0  0  0
  -30.2603  -18.9113   21.6608 H   0  0  0  0  0  0
  -35.2082  -21.3793   20.4285 H   0  0  0  0  0  0
  -35.0298  -22.7792   19.4029 H   0  0  0  0  0  0
  -34.3055  -23.3139   21.7161 H   0  0  0  0  0  0
  -33.1420  -22.0035   21.6829 H   0  0  0  0  0  0
  -29.7496  -16.4891   22.3749 H   0  0  0  0  0  0
  -31.2924  -16.7512   21.6024 H   0  0  0  0  0  0
  -33.3068  -20.2966   19.5143 H   0  0  0  0  0  0
  -34.1229  -20.9697   18.1334 H   0  0  0  0  0  0
  -33.1883  -24.4060   19.8101 H   0  0  0  0  0  0
  -30.7812  -21.8803   17.1496 H   0  0  0  0  0  0
  -32.2619  -21.1130   16.7202 H   0  0  0  0  0  0
  -31.5164  -26.9303   23.4187 H   0  0  0  0  0  0
  -30.5070  -25.5149   23.3522 H   0  0  0  0  0  0
  -30.4861  -27.6607   21.1587 H   0  0  0  0  0  0
  -29.4939  -27.8255   22.5746 H   0  0  0  0  0  0
  -28.0491  -26.0436   21.9661 H   0  0  0  0  0  0
  -29.2618  -25.2341   21.0173 H   0  0  0  0  0  0
  -30.9198  -23.9572   21.5967 H   0  0  0  0  0  0
  1 25  1  0  0  0
  1 30  2  0  0  0
  1 91  1  0  0  0
  2  3  1  0  0  0
  2 25  1  0  0  0
  2 95  1  0  0  0
  2 96  1  0  0  0
  3  4  1  0  0  0
  3 97  1  0  0  0
  3 98  1  0  0  0
  4  5  1  0  0  0
  4 99  1  0  0  0
  4100  1  0  0  0
  5  6  1  0  0  0
  5 26  1  0  0  0
  5101  1  0  0  0
  6 25  1  0  0  0
  6102  1  0  0  0
  6103  1  0  0  0
  7  8  2  0  0  0
  7 26  1  0  0  0
  7 29  1  0  0  0
  8  9  1  0  0  0
  8 22  1  0  0  0
  9 10  1  0  0  0
  9 27  2  0  0  0
 10 11  2  0  0  0
 10 15  1  0  0  0
 11 12  1  0  0  0
 11104  1  0  0  0
 12 13  2  0  0  0
 12105  1  0  0  0
 13 14  1  0  0  0
 13 31  1  0  0  0
 14 15  2  0  0  0
 14106  1  0  0  0
 15107  1  0  0  0
 16 17  2  0  0  0
 16 21  1  0  0  0
 16 31  1  0  0  0
 17 18  1  0  0  0
 17108  1  0  0  0
 18 19  2  0  0  0
 18109  1  0  0  0
 19 20  1  0  0  0
 19 24  1  0  0  0
 20 21  2  0  0  0
 20110  1  0  0  0
 21 23  1  0  0  0
 22 28  1  0  0  0
 22 32  2  0  0  0
 26 27  1  0  0  0
 28111  1  0  0  0
 28112  1  0  0  0
 29113  1  0  0  0
 29114  1  0  0  0
 33 34  1  0  0  0
 33 66  1  0  0  0
 33 70  2  0  0  0
 34 36  1  0  0  0
 34 59  1  0  0  0
 34115  1  0  0  0
 35 44  2  0  0  0
 35 45  1  0  0  0
 35 68  1  0  0  0
 36 56  1  0  0  0
 36116  1  0  0  0
 37 39  1  0  0  0
 37 47  1  0  0  0
 37 66  1  0  0  0
 37117  1  0  0  0
 38 43  2  0  0  0
 38 46  1  0  0  0
 38 47  1  0  0  0
 39 64  1  0  0  0
 39 67  2  0  0  0
 40 52  1  0  0  0
 40 53  2  0  0  0
 40 58  1  0  0  0
 41118  1  0  0  0
 41119  1  0  0  0
 41120  1  0  0  0
 41 48  1  0  0  0
 42 43  1  0  0  0
 42 66  1  0  0  0
 42121  1  0  0  0
 42122  1  0  0  0
 43 44  1  0  0  0
 44123  1  0  0  0
 45 46  2  0  0  0
 45124  1  0  0  0
 46125  1  0  0  0
 47126  1  0  0  0
 47127  1  0  0  0
 48 56  1  0  0  0
 48 65  1  0  0  0
 48128  1  0  0  0
 49 50  1  0  0  0
 49 53  1  0  0  0
 49 64  1  0  0  0
 49129  1  0  0  0
 50 51  1  0  0  0
 50130  1  0  0  0
 50131  1  0  0  0
 51 52  1  0  0  0
 51132  1  0  0  0
 51133  1  0  0  0
 52134  1  0  0  0
 52135  1  0  0  0
 53 54  1  0  0  0
 54 55  2  0  0  0
 54136  1  0  0  0
 55 57  1  0  0  0
 55137  1  0  0  0
 56 69  2  0  0  0
 57 58  2  0  0  0
 57138  1  0  0  0
 58139  1  0  0  0
 59 60  1  0  0  0
 59 61  1  0  0  0
 59 62  1  0  0  0
 60140  1  0  0  0
 60141  1  0  0  0
 60142  1  0  0  0
 61143  1  0  0  0
 61144  1  0  0  0
 61145  1  0  0  0
 62146  1  0  0  0
 62147  1  0  0  0
 62148  1  0  0  0
 63 65  1  0  0  0
 63149  1  0  0  0
 63150  1  0  0  0
 63151  1  0  0  0
 64152  1  0  0  0
 65153  1  0  0  0
 68 88  1  0  0  0
 71 72  2  0  0  0
 71 73  1  0  0  0
 71154  1  0  0  0
 72 75  1  0  0  0
 72155  1  0  0  0
 73 74  2  0  0  0
 73 78  1  0  0  0
 74 79  1  0  0  0
 74 89  1  0  0  0
 75 85  1  0  0  0
 75 89  2  0  0  0
 76 84  1  0  0  0
 76 90  1  0  0  0
 76 93  2  0  0  0
 77 86  1  0  0  0
 77 92  1  0  0  0
 77 94  2  0  0  0
 78 91  1  0  0  0
 78156  1  0  0  0
 78157  1  0  0  0
 79 82  1  0  0  0
 79158  1  0  0  0
 79159  1  0  0  0
 80 81  1  0  0  0
 80 83  1  0  0  0
 80160  1  0  0  0
 80161  1  0  0  0
 81 84  1  0  0  0
 81162  1  0  0  0
 81163  1  0  0  0
 82 91  1  0  0  0
 82164  1  0  0  0
 82165  1  0  0  0
 83 90  1  0  0  0
 83166  1  0  0  0
 83167  1  0  0  0
 84 92  1  0  0  0
 84168  1  0  0  0
 85 90  1  0  0  0
 85169  1  0  0  0
 85170  1  0  0  0
 86 87  1  0  0  0
 86171  1  0  0  0
 86172  1  0  0  0
 87 88  1  0  0  0
 87173  1  0  0  0
 87174  1  0  0  0
 88175  1  0  0  0
 88176  1  0  0  0
 92177  1  0  0  0
M  ISO  4   1 100  68 101  88 101  91 100
M  END
> <chiral flag>
0

> <version>
0

> <s_m_source_file>
/data/baiqing/PycharmProjects/Reinvent-master-3.2/result/LINK_invent/BTK/process_docking_weight1_custom_product_contain_oxygen_bond_distance_aromatic_linkinvent_7_9_3/rearranged_h_0005.sdf

> <i_m_source_file_index>
78

> <r_mmod_Potential_Energy-OPLS-2005>
-128.196807861328

> <r_mmod_Stretch_Energy-OPLS-2005>
40.4325752258301

> <r_mmod_Bend_Energy-OPLS-2005>
108.468475341797

> <r_mmod_Torsional_Energy-OPLS-2005>
354.220062255859

> <r_mmod_Improper_Torsional_Energy-OPLS-2005>
9.7336254119873

> <r_mmod_Van_der_Waal_Energy-OPLS-2005>
170.304962158203

> <r_mmod_Electrostatic_Energy-OPLS-2005>
-574.070617675781

> <r_mmod_Solvation_Energy-OPLS-2005>
-264.468719482422

> <b_mmod_Minimization_Converged-OPLS-2005>
0

> <r_mmod_RMS_Derivative-OPLS-2005>
3.56909155845642

$$$$
79
                    3D
 Structure written by MMmdl.
165174  0  0  1  0            999 V2000
  -30.7665  -14.3442   20.6681 C   0  0  0  0  0  0
  -30.4163  -12.2666   19.3950 C   0  0  0  0  0  0
  -29.4850  -12.5175   18.1936 C   0  0  0  0  0  0
  -28.0084  -12.3809   18.6093 C   0  0  0  0  0  0
  -27.6701  -13.1989   19.8830 C   0  0  2  0  0  0
  -28.7064  -12.9261   20.9964 C   0  0  0  0  0  0
  -25.2629  -13.8153   20.5683 C   0  0  0  0  0  0
  -24.1864  -13.0440   20.9164 C   0  0  0  0  0  0
  -24.6400  -11.6903   20.8727 C   0  0  0  0  0  0
  -23.9057  -10.4293   21.0401 C   0  0  0  0  0  0
  -24.3613   -9.4211   21.9179 C   0  0  0  0  0  0
  -23.6291   -8.2246   22.0752 C   0  0  0  0  0  0
  -22.4273   -8.0281   21.3545 C   0  0  0  0  0  0
  -21.9907   -9.0253   20.4646 C   0  0  0  0  0  0
  -22.7233  -10.2131   20.3051 C   0  0  0  0  0  0
  -21.6852   -6.0736   22.5279 C   0  0  0  0  0  0
  -21.4013   -6.5640   23.8213 C   0  0  0  0  0  0
  -21.3661   -5.6793   24.9176 C   0  0  0  0  0  0
  -21.6043   -4.3056   24.7225 C   0  0  0  0  0  0
  -21.8820   -3.8147   23.4348 C   0  0  0  0  0  0
  -21.9195   -4.6964   22.3403 C   0  0  0  0  0  0
  -22.7886  -13.5244   21.1830 C   0  0  0  0  0  0
  -22.1663   -4.2150   21.0981 F   0  0  0  0  0  0
  -21.5630   -3.4538   25.7738 F   0  0  0  0  0  0
  -30.0552  -13.2070   20.4644 N   0  0  0  0  0  0
  -26.3067  -12.9312   20.3395 N   0  0  0  0  0  0
  -25.9325  -11.6474   20.5764 N   0  0  0  0  0  0
  -22.0526  -12.8236   22.0388 N   0  0  0  0  0  0
  -25.4376  -15.1868   20.4102 N   0  0  0  0  0  0
  -31.7936  -14.6220   20.0408 O   0  0  0  0  0  0
  -21.6639   -6.8877   21.4241 O   0  0  0  0  0  0
  -22.3575  -14.5560   20.6693 O   0  0  0  0  0  0
  -24.6102  -31.8710   23.2126 C   0  0  0  0  0  0
  -25.9014  -32.4838   23.8406 C   0  0  1  0  0  0
  -27.2360  -27.4784   20.0797 C   0  0  0  0  0  0
  -25.5885  -33.8635   24.2350 N   0  0  0  0  0  0
  -23.3946  -30.4958   21.5524 C   0  0  2  0  0  0
  -24.8387  -28.9651   20.1156 C   0  0  0  0  0  0
  -22.7385  -29.4675   22.5004 C   0  0  0  0  0  0
  -18.0268  -28.1374   22.8493 C   0  0  0  0  0  0
  -24.1485  -36.7312   23.2636 C   0  0  0  0  0  0
  -25.9188  -30.8502   21.3570 C   0  0  0  0  0  0
  -25.9959  -29.4874   20.7055 C   0  0  0  0  0  0
  -27.1962  -28.7512   20.6824 C   0  0  0  0  0  0
  -26.0605  -26.9576   19.4890 C   0  0  0  0  0  0
  -24.8634  -27.6976   19.5085 C   0  0  0  0  0  0
  -23.5993  -29.8270   20.1666 C   0  0  0  0  0  0
  -25.4100  -36.3120   24.0350 C   0  0  1  0  0  0
  -20.5855  -28.3648   23.1328 C   0  0  2  0  0  0
  -20.6760  -26.9388   22.5414 C   0  0  0  0  0  0
  -19.5742  -26.6386   21.5205 C   0  0  0  0  0  0
  -18.1919  -26.7925   22.1615 C   0  0  0  0  0  0
  -19.1516  -28.8824   23.2914 C   0  0  0  0  0  0
  -18.9450  -30.1434   23.8917 C   0  0  0  0  0  0
  -17.6455  -30.6579   24.0569 C   0  0  0  0  0  0
  -25.9022  -34.9486   23.5146 C   0  0  0  0  0  0
  -16.5345  -29.9086   23.6328 C   0  0  0  0  0  0
  -16.7257  -28.6504   23.0342 C   0  0  0  0  0  0
  -26.4462  -31.6599   25.0710 C   0  0  0  0  0  0
  -25.3749  -31.3685   26.1471 C   0  0  0  0  0  0
  -27.0286  -30.3056   24.6033 C   0  0  0  0  0  0
  -27.6048  -32.4302   25.7465 C   0  0  0  0  0  0
  -27.5593  -37.1794   24.8461 C   0  0  0  0  0  0
  -21.4116  -29.3032   22.3743 N   0  0  0  0  0  0
  -26.4288  -37.3806   23.9432 N   0  0  0  0  0  0
  -24.6596  -31.0857   22.0999 N   0  0  0  0  0  0
  -23.4192  -28.8211   23.3014 O   0  0  0  0  0  0
  -28.4354  -26.8106   20.0742 O   0  0  0  0  0  0
  -26.5586  -34.8932   22.4709 O   0  0  0  0  0  0
  -23.5308  -32.1434   23.7560 O   0  0  0  0  0  0
  -29.2846  -18.7042   21.7528 C   0  0  0  0  0  0
  -29.2268  -17.3029   21.8130 C   0  0  0  0  0  0
  -31.6443  -17.2028   21.5127 C   0  0  0  0  0  0
  -31.7159  -18.6118   21.4476 C   0  0  0  0  0  0
  -30.5158  -19.3656   21.5431 C   0  0  0  0  0  0
  -30.4012  -16.5465   21.6525 C   0  0  0  0  0  0
  -30.1279  -21.5213   22.5622 C   0  0  0  0  0  0
  -29.9296  -21.1766   20.1100 C   0  0  0  0  0  0
  -30.3092  -23.0311   22.3181 C   0  0  0  0  0  0
  -30.1109  -22.6863   19.8902 C   0  0  0  0  0  0
  -29.6250  -24.9167   20.8611 C   0  0  0  0  0  0
  -28.4033  -25.3909   20.0621 C   0  0  0  0  0  0
  -33.0742  -19.2908   21.2575 C   0  0  0  0  0  0
  -30.5239  -20.7587   21.3793 N   0  0  0  0  0  0
  -30.2816  -15.1381   21.6318 N   0  0  0  0  0  0
  -29.6204  -23.4476   21.0685 N   0  3  0  0  0  0
  -34.0698  -18.4045   21.1949 F   0  0  0  0  0  0
  -33.0958  -19.9969   20.1252 F   0  0  0  0  0  0
  -33.3291  -20.1084   22.2807 F   0  0  0  0  0  0
  -31.4606  -12.3576   19.0902 H   0  0  0  0  0  0
  -30.3057  -11.2426   19.7546 H   0  0  0  0  0  0
  -29.7115  -11.8155   17.3897 H   0  0  0  0  0  0
  -29.6629  -13.5149   17.7887 H   0  0  0  0  0  0
  -27.8085  -11.3234   18.7848 H   0  0  0  0  0  0
  -27.3567  -12.6801   17.7880 H   0  0  0  0  0  0
  -27.7336  -14.2549   19.6182 H   0  0  0  0  0  0
  -28.6599  -11.8806   21.3051 H   0  0  0  0  0  0
  -28.4548  -13.4943   21.8924 H   0  0  0  0  0  0
  -25.2761   -9.5687   22.4750 H   0  0  0  0  0  0
  -24.0005   -7.4635   22.7470 H   0  0  0  0  0  0
  -21.0839   -8.8769   19.8950 H   0  0  0  0  0  0
  -22.3695  -10.9668   19.6158 H   0  0  0  0  0  0
  -21.2004   -7.6147   23.9717 H   0  0  0  0  0  0
  -21.1481   -6.0522   25.9078 H   0  0  0  0  0  0
  -22.0599   -2.7608   23.2846 H   0  0  0  0  0  0
  -22.4138  -11.9884   22.4757 H   0  0  0  0  0  0
  -21.1143  -13.1262   22.2596 H   0  0  0  0  0  0
  -24.6742  -15.8456   20.5200 H   0  0  0  0  0  0
  -26.2939  -15.6222   20.0909 H   0  0  0  0  0  0
  -26.7085  -32.5563   23.1175 H   0  0  0  0  0  0
  -25.0059  -33.9805   25.0511 H   0  0  0  0  0  0
  -22.6813  -31.3113   21.4154 H   0  0  0  0  0  0
  -23.3758  -35.9633   23.3281 H   0  0  0  0  0  0
  -24.3591  -36.8931   22.2055 H   0  0  0  0  0  0
  -23.7220  -37.6508   23.6645 H   0  0  0  0  0  0
  -26.0250  -31.6186   20.5897 H   0  0  0  0  0  0
  -26.8098  -30.9038   21.9708 H   0  0  0  0  0  0
  -28.0949  -29.1570   21.1267 H   0  0  0  0  0  0
  -26.0567  -25.9962   18.9957 H   0  0  0  0  0  0
  -23.9719  -27.2920   19.0488 H   0  0  0  0  0  0
  -23.7017  -30.6014   19.4053 H   0  0  0  0  0  0
  -22.7243  -29.2428   19.8736 H   0  0  0  0  0  0
  -25.1271  -36.1988   25.0843 H   0  0  0  0  0  0
  -20.9945  -28.3205   24.1449 H   0  0  0  0  0  0
  -20.5653  -26.2252   23.3593 H   0  0  0  0  0  0
  -21.6632  -26.7431   22.1204 H   0  0  0  0  0  0
  -19.6906  -25.6306   21.1212 H   0  0  0  0  0  0
  -19.6692  -27.3215   20.6752 H   0  0  0  0  0  0
  -17.4190  -26.6671   21.4018 H   0  0  0  0  0  0
  -18.0318  -26.0063   22.9004 H   0  0  0  0  0  0
  -19.7928  -30.7244   24.2287 H   0  0  0  0  0  0
  -17.5016  -31.6259   24.5167 H   0  0  0  0  0  0
  -15.5347  -30.2999   23.7647 H   0  0  0  0  0  0
  -15.8653  -28.0839   22.7041 H   0  0  0  0  0  0
  -24.5917  -30.7036   25.7811 H   0  0  0  0  0  0
  -24.8945  -32.2835   26.4946 H   0  0  0  0  0  0
  -25.8118  -30.8837   27.0214 H   0  0  0  0  0  0
  -26.2806  -29.6818   24.1121 H   0  0  0  0  0  0
  -27.4134  -29.7280   25.4450 H   0  0  0  0  0  0
  -27.8608  -30.4405   23.9118 H   0  0  0  0  0  0
  -27.2670  -33.3581   26.2096 H   0  0  0  0  0  0
  -28.3827  -32.6892   25.0268 H   0  0  0  0  0  0
  -28.0753  -31.8394   26.5338 H   0  0  0  0  0  0
  -28.2567  -38.0134   24.7570 H   0  0  0  0  0  0
  -28.1130  -36.2668   24.6195 H   0  0  0  0  0  0
  -27.2324  -37.1332   25.8865 H   0  0  0  0  0  0
  -20.9255  -29.8763   21.6986 H   0  0  0  0  0  0
  -26.0181  -38.2879   24.1471 H   0  0  0  0  0  0
  -28.3643  -19.2651   21.8340 H   0  0  0  0  0  0
  -28.2688  -16.8172   21.9382 H   0  0  0  0  0  0
  -32.5514  -16.6241   21.4245 H   0  0  0  0  0  0
  -29.0879  -21.3110   22.8171 H   0  0  0  0  0  0
  -30.7284  -21.2158   23.4210 H   0  0  0  0  0  0
  -30.3884  -20.6302   19.2836 H   0  0  0  0  0  0
  -28.8668  -20.9279   20.0954 H   0  0  0  0  0  0
  -31.3709  -23.2715   22.2470 H   0  0  0  0  0  0
  -29.9186  -23.5821   23.1744 H   0  0  0  0  0  0
  -29.5829  -22.9833   18.9842 H   0  0  0  0  0  0
  -31.1661  -22.9115   19.7234 H   0  0  0  0  0  0
  -29.5930  -25.4165   21.8299 H   0  0  0  0  0  0
  -30.5508  -25.2368   20.3811 H   0  0  0  0  0  0
  -27.4993  -25.0059   20.5382 H   0  0  0  0  0  0
  -28.4250  -25.0317   19.0327 H   0  0  0  0  0  0
  -29.4757  -14.7528   22.1002 H   0  0  0  0  0  0
  -28.6590  -23.1706   21.2027 H   0  0  0  0  0  0
  1 25  1  0  0  0
  1 30  2  0  0  0
  1 85  1  0  0  0
  2  3  1  0  0  0
  2 25  1  0  0  0
  2 90  1  0  0  0
  2 91  1  0  0  0
  3  4  1  0  0  0
  3 92  1  0  0  0
  3 93  1  0  0  0
  4  5  1  0  0  0
  4 94  1  0  0  0
  4 95  1  0  0  0
  5  6  1  0  0  0
  5 26  1  0  0  0
  5 96  1  0  0  0
  6 25  1  0  0  0
  6 97  1  0  0  0
  6 98  1  0  0  0
  7  8  2  0  0  0
  7 26  1  0  0  0
  7 29  1  0  0  0
  8  9  1  0  0  0
  8 22  1  0  0  0
  9 10  1  0  0  0
  9 27  2  0  0  0
 10 11  2  0  0  0
 10 15  1  0  0  0
 11 12  1  0  0  0
 11 99  1  0  0  0
 12 13  2  0  0  0
 12100  1  0  0  0
 13 14  1  0  0  0
 13 31  1  0  0  0
 14 15  2  0  0  0
 14101  1  0  0  0
 15102  1  0  0  0
 16 17  2  0  0  0
 16 21  1  0  0  0
 16 31  1  0  0  0
 17 18  1  0  0  0
 17103  1  0  0  0
 18 19  2  0  0  0
 18104  1  0  0  0
 19 20  1  0  0  0
 19 24  1  0  0  0
 20 21  2  0  0  0
 20105  1  0  0  0
 21 23  1  0  0  0
 22 28  1  0  0  0
 22 32  2  0  0  0
 26 27  1  0  0  0
 28106  1  0  0  0
 28107  1  0  0  0
 29108  1  0  0  0
 29109  1  0  0  0
 33 34  1  0  0  0
 33 66  1  0  0  0
 33 70  2  0  0  0
 34 36  1  0  0  0
 34 59  1  0  0  0
 34110  1  0  0  0
 35 44  2  0  0  0
 35 45  1  0  0  0
 35 68  1  0  0  0
 36 56  1  0  0  0
 36111  1  0  0  0
 37 39  1  0  0  0
 37 47  1  0  0  0
 37 66  1  0  0  0
 37112  1  0  0  0
 38 43  2  0  0  0
 38 46  1  0  0  0
 38 47  1  0  0  0
 39 64  1  0  0  0
 39 67  2  0  0  0
 40 52  1  0  0  0
 40 53  2  0  0  0
 40 58  1  0  0  0
 41113  1  0  0  0
 41114  1  0  0  0
 41115  1  0  0  0
 41 48  1  0  0  0
 42 43  1  0  0  0
 42 66  1  0  0  0
 42116  1  0  0  0
 42117  1  0  0  0
 43 44  1  0  0  0
 44118  1  0  0  0
 45 46  2  0  0  0
 45119  1  0  0  0
 46120  1  0  0  0
 47121  1  0  0  0
 47122  1  0  0  0
 48 56  1  0  0  0
 48 65  1  0  0  0
 48123  1  0  0  0
 49 50  1  0  0  0
 49 53  1  0  0  0
 49 64  1  0  0  0
 49124  1  0  0  0
 50 51  1  0  0  0
 50125  1  0  0  0
 50126  1  0  0  0
 51 52  1  0  0  0
 51127  1  0  0  0
 51128  1  0  0  0
 52129  1  0  0  0
 52130  1  0  0  0
 53 54  1  0  0  0
 54 55  2  0  0  0
 54131  1  0  0  0
 55 57  1  0  0  0
 55132  1  0  0  0
 56 69  2  0  0  0
 57 58  2  0  0  0
 57133  1  0  0  0
 58134  1  0  0  0
 59 60  1  0  0  0
 59 61  1  0  0  0
 59 62  1  0  0  0
 60135  1  0  0  0
 60136  1  0  0  0
 60137  1  0  0  0
 61138  1  0  0  0
 61139  1  0  0  0
 61140  1  0  0  0
 62141  1  0  0  0
 62142  1  0  0  0
 62143  1  0  0  0
 63 65  1  0  0  0
 63144  1  0  0  0
 63145  1  0  0  0
 63146  1  0  0  0
 64147  1  0  0  0
 65148  1  0  0  0
 68 82  1  0  0  0
 71 72  2  0  0  0
 71 75  1  0  0  0
 71149  1  0  0  0
 72 76  1  0  0  0
 72150  1  0  0  0
 73 74  1  0  0  0
 73 76  2  0  0  0
 73151  1  0  0  0
 74 75  2  0  0  0
 74 83  1  0  0  0
 75 84  1  0  0  0
 76 85  1  0  0  0
 77 79  1  0  0  0
 77 84  1  0  0  0
 77152  1  0  0  0
 77153  1  0  0  0
 78 80  1  0  0  0
 78 84  1  0  0  0
 78154  1  0  0  0
 78155  1  0  0  0
 79 86  1  0  0  0
 79156  1  0  0  0
 79157  1  0  0  0
 80 86  1  0  0  0
 80158  1  0  0  0
 80159  1  0  0  0
 81 82  1  0  0  0
 81160  1  0  0  0
 81161  1  0  0  0
 81 86  1  0  0  0
 82162  1  0  0  0
 82163  1  0  0  0
 83 87  1  0  0  0
 83 88  1  0  0  0
 83 89  1  0  0  0
 85164  1  0  0  0
 86165  1  0  0  0
M  CHG  1  86   1
M  ISO  4   1 100  68 101  82 101  85 100
M  END
> <chiral flag>
0

> <version>
0

> <s_m_source_file>
/data/baiqing/PycharmProjects/Reinvent-master-3.2/result/LINK_invent/BTK/process_docking_weight1_custom_product_contain_oxygen_bond_distance_aromatic_linkinvent_7_9_3/rearranged_h_0005.sdf

> <i_m_source_file_index>
79

> <r_mmod_Potential_Energy-OPLS-2005>
37.5811500549316

> <r_mmod_Stretch_Energy-OPLS-2005>
33.1242866516113

> <r_mmod_Bend_Energy-OPLS-2005>
93.1993637084961

> <r_mmod_Torsional_Energy-OPLS-2005>
302.922943115234

> <r_mmod_Improper_Torsional_Energy-OPLS-2005>
7.82449722290039

> <r_mmod_Van_der_Waal_Energy-OPLS-2005>
169.829284667969

> <r_mmod_Electrostatic_Energy-OPLS-2005>
-150.640625

> <r_mmod_Solvation_Energy-OPLS-2005>
-426.240844726562

> <b_mmod_Minimization_Converged-OPLS-2005>
0

> <r_mmod_RMS_Derivative-OPLS-2005>
1.0733859539032

$$$$
80
                    3D
 Structure written by MMmdl.
185195  0  0  1  0            999 V2000
  -30.7223  -14.4306   20.6037 C   0  0  0  0  0  0
  -30.4221  -12.2876   19.4114 C   0  0  0  0  0  0
  -29.4949  -12.5353   18.2042 C   0  0  0  0  0  0
  -28.0182  -12.3712   18.6111 C   0  0  0  0  0  0
  -27.6664  -13.1939   19.8760 C   0  0  2  0  0  0
  -28.7097  -12.9479   20.9956 C   0  0  0  0  0  0
  -25.2540  -13.8120   20.5568 C   0  0  0  0  0  0
  -24.1817  -13.0438   20.9182 C   0  0  0  0  0  0
  -24.6362  -11.6912   20.8731 C   0  0  0  0  0  0
  -23.9042  -10.4299   21.0419 C   0  0  0  0  0  0
  -24.3598   -9.4231   21.9205 C   0  0  0  0  0  0
  -23.6276   -8.2254   22.0772 C   0  0  0  0  0  0
  -22.4245   -8.0300   21.3569 C   0  0  0  0  0  0
  -21.9893   -9.0271   20.4658 C   0  0  0  0  0  0
  -22.7225  -10.2152   20.3064 C   0  0  0  0  0  0
  -21.6840   -6.0750   22.5293 C   0  0  0  0  0  0
  -21.4009   -6.5642   23.8235 C   0  0  0  0  0  0
  -21.3651   -5.6792   24.9200 C   0  0  0  0  0  0
  -21.6037   -4.3056   24.7230 C   0  0  0  0  0  0
  -21.8810   -3.8150   23.4347 C   0  0  0  0  0  0
  -21.9203   -4.6982   22.3407 C   0  0  0  0  0  0
  -22.7849  -13.5275   21.1851 C   0  0  0  0  0  0
  -22.1672   -4.2184   21.0992 F   0  0  0  0  0  0
  -21.5620   -3.4523   25.7731 F   0  0  0  0  0  0
  -30.0599  -13.2473   20.4697 N   0  0  0  0  0  0
  -26.3020  -12.9287   20.3345 N   0  0  0  0  0  0
  -25.9281  -11.6466   20.5763 N   0  0  0  0  0  0
  -22.0442  -12.8304   22.0398 N   0  0  0  0  0  0
  -25.4119  -15.1805   20.3738 N   0  0  0  0  0  0
  -31.7571  -14.7057   19.9902 O   0  0  0  0  0  0
  -21.6610   -6.8894   21.4257 O   0  0  0  0  0  0
  -22.3560  -14.5618   20.6744 O   0  0  0  0  0  0
  -24.6172  -31.8685   23.2122 C   0  0  0  0  0  0
  -25.9066  -32.4827   23.8419 C   0  0  1  0  0  0
  -27.2530  -27.4489   20.0856 C   0  0  0  0  0  0
  -25.5927  -33.8621   24.2354 N   0  0  0  0  0  0
  -23.4074  -30.4948   21.5498 C   0  0  2  0  0  0
  -24.8607  -28.9626   20.1207 C   0  0  0  0  0  0
  -22.7431  -29.4682   22.4962 C   0  0  0  0  0  0
  -18.0280  -28.1393   22.8477 C   0  0  0  0  0  0
  -24.1488  -36.7316   23.2632 C   0  0  0  0  0  0
  -25.9395  -30.8369   21.3679 C   0  0  0  0  0  0
  -26.0251  -29.4726   20.7150 C   0  0  0  0  0  0
  -27.2301  -28.7256   20.6987 C   0  0  0  0  0  0
  -26.0675  -26.9532   19.5059 C   0  0  0  0  0  0
  -24.8754  -27.6964   19.5163 C   0  0  0  0  0  0
  -23.6212  -29.8279   20.1661 C   0  0  0  0  0  0
  -25.4098  -36.3111   24.0341 C   0  0  1  0  0  0
  -20.5877  -28.3699   23.1291 C   0  0  2  0  0  0
  -20.6781  -26.9427   22.5409 C   0  0  0  0  0  0
  -19.5757  -26.6396   21.5205 C   0  0  0  0  0  0
  -18.1932  -26.7937   22.1615 C   0  0  0  0  0  0
  -19.1530  -28.8850   23.2890 C   0  0  0  0  0  0
  -18.9461  -30.1456   23.8905 C   0  0  0  0  0  0
  -17.6468  -30.6594   24.0564 C   0  0  0  0  0  0
  -25.9026  -34.9480   23.5132 C   0  0  0  0  0  0
  -16.5357  -29.9094   23.6336 C   0  0  0  0  0  0
  -16.7272  -28.6516   23.0341 C   0  0  0  0  0  0
  -26.4487  -31.6593   25.0744 C   0  0  0  0  0  0
  -25.3751  -31.3725   26.1497 C   0  0  0  0  0  0
  -27.0308  -30.3021   24.6141 C   0  0  0  0  0  0
  -27.6079  -32.4291   25.7500 C   0  0  0  0  0  0
  -27.5586  -37.1798   24.8454 C   0  0  0  0  0  0
  -21.4159  -29.3068   22.3691 N   0  0  0  0  0  0
  -26.4282  -37.3799   23.9421 N   0  0  0  0  0  0
  -24.6724  -31.0799   22.1022 N   0  0  0  0  0  0
  -23.4181  -28.8220   23.3021 O   0  0  0  0  0  0
  -28.3228  -26.5837   19.9989 O   0  0  0  0  0  0
  -26.5575  -34.8924   22.4691 O   0  0  0  0  0  0
  -23.5352  -32.1438   23.7499 O   0  0  0  0  0  0
  -33.7398  -19.6448   18.9475 C   0  0  0  0  0  0
  -29.8335  -18.1136   19.2262 C   0  0  0  0  0  0
  -34.2933  -19.4824   20.2314 C   0  0  0  0  0  0
  -33.0481  -20.8274   18.6216 C   0  0  0  0  0  0
  -29.9456  -19.4613   18.8273 C   0  0  0  0  0  0
  -30.2685  -20.1242   21.1390 C   0  0  0  0  0  0
  -33.4433  -21.6780   20.8763 C   0  0  0  0  0  0
  -29.8746  -17.7580   20.5934 C   0  0  0  0  0  0
  -30.2092  -18.7593   21.5408 C   0  0  0  0  0  0
  -30.0751  -20.4941   19.7820 C   0  0  0  0  0  0
  -34.1519  -20.5029   21.1938 C   0  0  0  0  0  0
  -32.8818  -21.8404   19.5930 C   0  0  0  0  0  0
  -30.4529  -18.3922   22.9991 C   0  0  0  0  0  0
  -29.1658  -18.1086   23.7865 C   0  0  0  0  0  0
  -28.5329  -16.7431   23.4771 C   0  0  0  0  0  0
  -28.1289  -16.5539   22.0033 C   0  0  0  0  0  0
  -29.2925  -16.3912   21.0010 C   0  0  2  0  0  0
  -34.7581  -20.3459   22.5708 C   0  0  0  0  0  0
  -29.8511  -21.9506   19.3097 C   0  0  0  0  0  0
  -32.0786  -23.0917   19.2745 C   0  0  0  0  0  0
  -30.3960  -25.5425   20.6353 C   0  0  0  0  0  0
  -30.0177  -24.4004   19.6389 C   0  0  0  0  0  0
  -29.6549  -26.8942   20.3863 C   0  0  0  0  0  0
  -30.1738  -15.3059   21.4547 N   0  0  0  0  0  0
  -30.7001  -23.0722   19.8399 N   0  3  1  0  0  0
  -31.4705  -12.3711   19.1184 H   0  0  0  0  0  0
  -30.2981  -11.2654   19.7722 H   0  0  0  0  0  0
  -29.7343  -11.8504   17.3896 H   0  0  0  0  0  0
  -29.6573  -13.5424   17.8182 H   0  0  0  0  0  0
  -27.8423  -11.3115   18.7969 H   0  0  0  0  0  0
  -27.3655  -12.6500   17.7839 H   0  0  0  0  0  0
  -27.7083  -14.2382   19.5798 H   0  0  0  0  0  0
  -28.6718  -11.9033   21.3064 H   0  0  0  0  0  0
  -28.4564  -13.5149   21.8892 H   0  0  0  0  0  0
  -25.2736   -9.5710   22.4791 H   0  0  0  0  0  0
  -23.9992   -7.4638   22.7459 H   0  0  0  0  0  0
  -21.0852   -8.8789   19.8934 H   0  0  0  0  0  0
  -22.3703  -10.9691   19.6148 H   0  0  0  0  0  0
  -21.1984   -7.6138   23.9762 H   0  0  0  0  0  0
  -21.1478   -6.0507   25.9120 H   0  0  0  0  0  0
  -22.0588   -2.7613   23.2834 H   0  0  0  0  0  0
  -22.3994  -11.9966   22.4816 H   0  0  0  0  0  0
  -21.1049  -13.1368   22.2534 H   0  0  0  0  0  0
  -24.6243  -15.8165   20.4444 H   0  0  0  0  0  0
  -26.2405  -15.6176   19.9946 H   0  0  0  0  0  0
  -26.7153  -32.5554   23.1195 H   0  0  0  0  0  0
  -25.0116  -33.9785   25.0523 H   0  0  0  0  0  0
  -22.6968  -31.3122   21.4083 H   0  0  0  0  0  0
  -23.3744  -35.9655   23.3286 H   0  0  0  0  0  0
  -24.3594  -36.8929   22.2050 H   0  0  0  0  0  0
  -23.7238  -37.6523   23.6637 H   0  0  0  0  0  0
  -26.0564  -31.6044   20.6007 H   0  0  0  0  0  0
  -26.8247  -30.8876   21.9909 H   0  0  0  0  0  0
  -28.1190  -29.1301   21.1604 H   0  0  0  0  0  0
  -26.0707  -25.9769   19.0417 H   0  0  0  0  0  0
  -23.9808  -27.2900   19.0632 H   0  0  0  0  0  0
  -23.7333  -30.6029   19.4071 H   0  0  0  0  0  0
  -22.7456  -29.2487   19.8660 H   0  0  0  0  0  0
  -25.1264  -36.1975   25.0831 H   0  0  0  0  0  0
  -20.9977  -28.3281   24.1407 H   0  0  0  0  0  0
  -20.5694  -26.2308   23.3608 H   0  0  0  0  0  0
  -21.6656  -26.7478   22.1202 H   0  0  0  0  0  0
  -19.6933  -25.6306   21.1233 H   0  0  0  0  0  0
  -19.6699  -27.3208   20.6733 H   0  0  0  0  0  0
  -17.4212  -26.6684   21.4009 H   0  0  0  0  0  0
  -18.0336  -26.0075   22.9011 H   0  0  0  0  0  0
  -19.7941  -30.7265   24.2279 H   0  0  0  0  0  0
  -17.5027  -31.6270   24.5180 H   0  0  0  0  0  0
  -15.5359  -30.3004   23.7652 H   0  0  0  0  0  0
  -15.8672  -28.0845   22.7043 H   0  0  0  0  0  0
  -24.5934  -30.7045   25.7862 H   0  0  0  0  0  0
  -24.8931  -32.2890   26.4912 H   0  0  0  0  0  0
  -25.8114  -30.8942   27.0275 H   0  0  0  0  0  0
  -26.2863  -29.6784   24.1178 H   0  0  0  0  0  0
  -27.4037  -29.7260   25.4622 H   0  0  0  0  0  0
  -27.8722  -30.4316   23.9326 H   0  0  0  0  0  0
  -27.2724  -33.3586   26.2109 H   0  0  0  0  0  0
  -28.3881  -32.6843   25.0316 H   0  0  0  0  0  0
  -28.0753  -31.8383   26.5388 H   0  0  0  0  0  0
  -28.2582  -38.0120   24.7538 H   0  0  0  0  0  0
  -28.1101  -36.2653   24.6209 H   0  0  0  0  0  0
  -27.2323  -37.1375   25.8862 H   0  0  0  0  0  0
  -20.9312  -29.8776   21.6905 H   0  0  0  0  0  0
  -26.0169  -38.2871   24.1449 H   0  0  0  0  0  0
  -33.8359  -18.8556   18.2148 H   0  0  0  0  0  0
  -29.6082  -17.3704   18.4741 H   0  0  0  0  0  0
  -34.8230  -18.5714   20.4719 H   0  0  0  0  0  0
  -32.6141  -20.9323   17.6363 H   0  0  0  0  0  0
  -29.8289  -19.7007   17.7788 H   0  0  0  0  0  0
  -30.4102  -20.8870   21.8899 H   0  0  0  0  0  0
  -33.3213  -22.4501   21.6243 H   0  0  0  0  0  0
  -30.9992  -19.2036   23.4806 H   0  0  0  0  0  0
  -31.1230  -17.5322   23.0423 H   0  0  0  0  0  0
  -28.4463  -18.9128   23.6331 H   0  0  0  0  0  0
  -29.4088  -18.1218   24.8514 H   0  0  0  0  0  0
  -27.6371  -16.6357   24.0899 H   0  0  0  0  0  0
  -29.1995  -15.9435   23.8021 H   0  0  0  0  0  0
  -27.4646  -17.3595   21.6857 H   0  0  0  0  0  0
  -27.5200  -15.6507   21.9606 H   0  0  0  0  0  0
  -28.8124  -16.0276   20.0914 H   0  0  0  0  0  0
  -35.3688  -19.4455   22.6359 H   0  0  0  0  0  0
  -33.9753  -20.2852   23.3267 H   0  0  0  0  0  0
  -35.3929  -21.2023   22.8000 H   0  0  0  0  0  0
  -28.8046  -22.1429   19.5457 H   0  0  0  0  0  0
  -29.9056  -21.9822   18.2196 H   0  0  0  0  0  0
  -32.0413  -23.2382   18.1939 H   0  0  0  0  0  0
  -32.6282  -23.9472   19.6682 H   0  0  0  0  0  0
  -31.4706  -25.7313   20.6233 H   0  0  0  0  0  0
  -30.1616  -25.2117   21.6476 H   0  0  0  0  0  0
  -30.1602  -24.7384   18.6109 H   0  0  0  0  0  0
  -28.9431  -24.2528   19.7476 H   0  0  0  0  0  0
  -30.1357  -27.4466   19.5760 H   0  0  0  0  0  0
  -29.6970  -27.5165   21.2813 H   0  0  0  0  0  0
  -29.7429  -14.8217   22.2275 H   0  0  0  0  0  0
  -30.7802  -22.9292   20.8337 H   0  0  0  0  0  0
  1 25  1  0  0  0
  1 30  2  0  0  0
  1 94  1  0  0  0
  2  3  1  0  0  0
  2 25  1  0  0  0
  2 96  1  0  0  0
  2 97  1  0  0  0
  3  4  1  0  0  0
  3 98  1  0  0  0
  3 99  1  0  0  0
  4  5  1  0  0  0
  4100  1  0  0  0
  4101  1  0  0  0
  5  6  1  0  0  0
  5 26  1  0  0  0
  5102  1  0  0  0
  6 25  1  0  0  0
  6103  1  0  0  0
  6104  1  0  0  0
  7  8  2  0  0  0
  7 26  1  0  0  0
  7 29  1  0  0  0
  8  9  1  0  0  0
  8 22  1  0  0  0
  9 10  1  0  0  0
  9 27  2  0  0  0
 10 11  2  0  0  0
 10 15  1  0  0  0
 11 12  1  0  0  0
 11105  1  0  0  0
 12 13  2  0  0  0
 12106  1  0  0  0
 13 14  1  0  0  0
 13 31  1  0  0  0
 14 15  2  0  0  0
 14107  1  0  0  0
 15108  1  0  0  0
 16 17  2  0  0  0
 16 21  1  0  0  0
 16 31  1  0  0  0
 17 18  1  0  0  0
 17109  1  0  0  0
 18 19  2  0  0  0
 18110  1  0  0  0
 19 20  1  0  0  0
 19 24  1  0  0  0
 20 21  2  0  0  0
 20111  1  0  0  0
 21 23  1  0  0  0
 22 28  1  0  0  0
 22 32  2  0  0  0
 26 27  1  0  0  0
 28112  1  0  0  0
 28113  1  0  0  0
 29114  1  0  0  0
 29115  1  0  0  0
 33 34  1  0  0  0
 33 66  1  0  0  0
 33 70  2  0  0  0
 34 36  1  0  0  0
 34 59  1  0  0  0
 34116  1  0  0  0
 35 44  2  0  0  0
 35 45  1  0  0  0
 35 68  1  0  0  0
 36 56  1  0  0  0
 36117  1  0  0  0
 37 39  1  0  0  0
 37 47  1  0  0  0
 37 66  1  0  0  0
 37118  1  0  0  0
 38 43  2  0  0  0
 38 46  1  0  0  0
 38 47  1  0  0  0
 39 64  1  0  0  0
 39 67  2  0  0  0
 40 52  1  0  0  0
 40 53  2  0  0  0
 40 58  1  0  0  0
 41119  1  0  0  0
 41120  1  0  0  0
 41121  1  0  0  0
 41 48  1  0  0  0
 42 43  1  0  0  0
 42 66  1  0  0  0
 42122  1  0  0  0
 42123  1  0  0  0
 43 44  1  0  0  0
 44124  1  0  0  0
 45 46  2  0  0  0
 45125  1  0  0  0
 46126  1  0  0  0
 47127  1  0  0  0
 47128  1  0  0  0
 48 56  1  0  0  0
 48 65  1  0  0  0
 48129  1  0  0  0
 49 50  1  0  0  0
 49 53  1  0  0  0
 49 64  1  0  0  0
 49130  1  0  0  0
 50 51  1  0  0  0
 50131  1  0  0  0
 50132  1  0  0  0
 51 52  1  0  0  0
 51133  1  0  0  0
 51134  1  0  0  0
 52135  1  0  0  0
 52136  1  0  0  0
 53 54  1  0  0  0
 54 55  2  0  0  0
 54137  1  0  0  0
 55 57  1  0  0  0
 55138  1  0  0  0
 56 69  2  0  0  0
 57 58  2  0  0  0
 57139  1  0  0  0
 58140  1  0  0  0
 59 60  1  0  0  0
 59 61  1  0  0  0
 59 62  1  0  0  0
 60141  1  0  0  0
 60142  1  0  0  0
 60143  1  0  0  0
 61144  1  0  0  0
 61145  1  0  0  0
 61146  1  0  0  0
 62147  1  0  0  0
 62148  1  0  0  0
 62149  1  0  0  0
 63 65  1  0  0  0
 63150  1  0  0  0
 63151  1  0  0  0
 63152  1  0  0  0
 64153  1  0  0  0
 65154  1  0  0  0
 68 93  1  0  0  0
 71 73  2  0  0  0
 71 74  1  0  0  0
 71155  1  0  0  0
 72 75  2  0  0  0
 72 78  1  0  0  0
 72156  1  0  0  0
 73 81  1  0  0  0
 73157  1  0  0  0
 74 82  2  0  0  0
 74158  1  0  0  0
 75 80  1  0  0  0
 75159  1  0  0  0
 76 79  1  0  0  0
 76 80  2  0  0  0
 76160  1  0  0  0
 77 81  2  0  0  0
 77 82  1  0  0  0
 77161  1  0  0  0
 78 79  2  0  0  0
 78 87  1  0  0  0
 79 83  1  0  0  0
 80 89  1  0  0  0
 81 88  1  0  0  0
 82 90  1  0  0  0
 83 84  1  0  0  0
 83162  1  0  0  0
 83163  1  0  0  0
 84 85  1  0  0  0
 84164  1  0  0  0
 84165  1  0  0  0
 85 86  1  0  0  0
 85166  1  0  0  0
 85167  1  0  0  0
 86 87  1  0  0  0
 86168  1  0  0  0
 86169  1  0  0  0
 87 94  1  0  0  0
 87170  1  0  0  0
 88171  1  0  0  0
 88172  1  0  0  0
 88173  1  0  0  0
 89174  1  0  0  0
 89175  1  0  0  0
 89 95  1  0  0  0
 90 95  1  0  0  0
 90176  1  0  0  0
 90177  1  0  0  0
 91 92  1  0  0  0
 91 93  1  0  0  0
 91178  1  0  0  0
 91179  1  0  0  0
 92 95  1  0  0  0
 92180  1  0  0  0
 92181  1  0  0  0
 93182  1  0  0  0
 93183  1  0  0  0
 94184  1  0  0  0
 95185  1  0  0  0
M  CHG  1  95   1
M  ISO  4   1 100  68 101  93 101  94 100
M  END
> <chiral flag>
0

> <version>
0

> <s_m_source_file>
/data/baiqing/PycharmProjects/Reinvent-master-3.2/result/LINK_invent/BTK/process_docking_weight1_custom_product_contain_oxygen_bond_distance_aromatic_linkinvent_7_9_3/rearranged_h_0005.sdf

> <i_m_source_file_index>
80

> <r_mmod_Potential_Energy-OPLS-2005>
-116.128631591797

> <r_mmod_Stretch_Energy-OPLS-2005>
46.8832321166992

> <r_mmod_Bend_Energy-OPLS-2005>
152.792282104492

> <r_mmod_Torsional_Energy-OPLS-2005>
290.142333984375

> <r_mmod_Improper_Torsional_Energy-OPLS-2005>
9.69686412811279

> <r_mmod_Van_der_Waal_Energy-OPLS-2005>
153.037460327148

> <r_mmod_Electrostatic_Energy-OPLS-2005>
-351.566467285156

> <r_mmod_Solvation_Energy-OPLS-2005>
-429.284423828125

> <b_mmod_Minimization_Converged-OPLS-2005>
0

> <r_mmod_RMS_Derivative-OPLS-2005>
3.33497738838196

$$$$
82
                    3D
 Structure written by MMmdl.
178187  0  0  1  0            999 V2000
  -30.6824  -14.4794   20.5096 C   0  0  0  0  0  0
  -30.4257  -12.2811   19.4417 C   0  0  0  0  0  0
  -29.5061  -12.4780   18.2214 C   0  0  0  0  0  0
  -28.0216  -12.3544   18.6178 C   0  0  0  0  0  0
  -27.6605  -13.2048   19.8646 C   0  0  2  0  0  0
  -28.7013  -13.0022   20.9912 C   0  0  0  0  0  0
  -25.2596  -13.8158   20.5648 C   0  0  0  0  0  0
  -24.1850  -13.0445   20.9182 C   0  0  0  0  0  0
  -24.6386  -11.6909   20.8727 C   0  0  0  0  0  0
  -23.9050  -10.4295   21.0401 C   0  0  0  0  0  0
  -24.3606   -9.4213   21.9184 C   0  0  0  0  0  0
  -23.6289   -8.2246   22.0751 C   0  0  0  0  0  0
  -22.4267   -8.0281   21.3539 C   0  0  0  0  0  0
  -21.9895   -9.0260   20.4650 C   0  0  0  0  0  0
  -22.7220  -10.2144   20.3061 C   0  0  0  0  0  0
  -21.6850   -6.0737   22.5278 C   0  0  0  0  0  0
  -21.4007   -6.5637   23.8215 C   0  0  0  0  0  0
  -21.3657   -5.6788   24.9175 C   0  0  0  0  0  0
  -21.6050   -4.3053   24.7219 C   0  0  0  0  0  0
  -21.8816   -3.8148   23.4340 C   0  0  0  0  0  0
  -21.9190   -4.6967   22.3397 C   0  0  0  0  0  0
  -22.7870  -13.5257   21.1866 C   0  0  0  0  0  0
  -22.1667   -4.2154   21.0976 F   0  0  0  0  0  0
  -21.5631   -3.4535   25.7731 F   0  0  0  0  0  0
  -30.0347  -13.2871   20.4367 N   0  0  0  0  0  0
  -26.3015  -12.9320   20.3291 N   0  0  0  0  0  0
  -25.9307  -11.6487   20.5727 N   0  0  0  0  0  0
  -22.0489  -12.8251   22.0410 N   0  0  0  0  0  0
  -25.4347  -15.1869   20.4024 N   0  0  0  0  0  0
  -31.8312  -14.6555   20.0997 O   0  0  0  0  0  0
  -21.6638   -6.8881   21.4237 O   0  0  0  0  0  0
  -22.3565  -14.5571   20.6723 O   0  0  0  0  0  0
  -24.6110  -31.8690   23.2097 C   0  0  0  0  0  0
  -25.9008  -32.4832   23.8405 C   0  0  1  0  0  0
  -27.2371  -27.4496   20.0984 C   0  0  0  0  0  0
  -25.5885  -33.8632   24.2349 N   0  0  0  0  0  0
  -23.4010  -30.4911   21.5462 C   0  0  2  0  0  0
  -24.8531  -28.9580   20.1114 C   0  0  0  0  0  0
  -22.7403  -29.4656   22.4956 C   0  0  0  0  0  0
  -18.0288  -28.1382   22.8498 C   0  0  0  0  0  0
  -24.1481  -36.7287   23.2641 C   0  0  0  0  0  0
  -25.9271  -30.8385   21.3619 C   0  0  0  0  0  0
  -26.0105  -29.4742   20.7091 C   0  0  0  0  0  0
  -27.2099  -28.7262   20.7031 C   0  0  0  0  0  0
  -26.0684  -26.9442   19.4955 C   0  0  0  0  0  0
  -24.8753  -27.6904   19.5027 C   0  0  0  0  0  0
  -23.6131  -29.8215   20.1612 C   0  0  0  0  0  0
  -25.4100  -36.3116   24.0358 C   0  0  1  0  0  0
  -20.5873  -28.3661   23.1312 C   0  0  2  0  0  0
  -20.6760  -26.9397   22.5407 C   0  0  0  0  0  0
  -19.5729  -26.6390   21.5206 C   0  0  0  0  0  0
  -18.1919  -26.7933   22.1635 C   0  0  0  0  0  0
  -19.1536  -28.8839   23.2912 C   0  0  0  0  0  0
  -18.9471  -30.1446   23.8913 C   0  0  0  0  0  0
  -17.6472  -30.6582   24.0574 C   0  0  0  0  0  0
  -25.9025  -34.9482   23.5155 C   0  0  0  0  0  0
  -16.5360  -29.9084   23.6338 C   0  0  0  0  0  0
  -16.7285  -28.6508   23.0361 C   0  0  0  0  0  0
  -26.4464  -31.6603   25.0710 C   0  0  0  0  0  0
  -25.3765  -31.3717   26.1490 C   0  0  0  0  0  0
  -27.0281  -30.3055   24.6051 C   0  0  0  0  0  0
  -27.6049  -32.4311   25.7466 C   0  0  0  0  0  0
  -27.5587  -37.1798   24.8480 C   0  0  0  0  0  0
  -21.4133  -29.3034   22.3715 N   0  0  0  0  0  0
  -26.4285  -37.3799   23.9441 N   0  0  0  0  0  0
  -24.6641  -31.0805   22.0983 N   0  0  0  0  0  0
  -23.4184  -28.8201   23.3001 O   0  0  0  0  0  0
  -28.3619  -26.6599   20.1407 O   0  0  0  0  0  0
  -26.5571  -34.8930   22.4702 O   0  0  0  0  0  0
  -23.5302  -32.1434   23.7492 O   0  0  0  0  0  0
  -29.9322  -20.9619   17.6333 C   0  0  0  0  0  0
  -29.7567  -19.5874   17.8646 C   0  0  0  0  0  0
  -30.0456  -21.8529   18.7115 C   0  0  0  0  0  0
  -29.7879  -19.9844   20.2568 C   0  0  0  0  0  0
  -29.6912  -19.0622   19.1792 C   0  0  0  0  0  0
  -29.9822  -21.3801   20.0411 C   0  0  0  0  0  0
  -29.0068  -16.2634   17.2816 C   0  0  0  0  0  0
  -28.5407  -16.1598   13.7531 C   0  0  0  0  0  0
  -28.9053  -14.6872   13.8777 C   0  0  0  0  0  0
  -29.3956  -16.8531   14.8187 C   0  0  0  0  0  0
  -29.0972  -14.4838   15.3813 C   0  0  0  0  0  0
  -29.6421  -15.8193   15.9437 C   0  0  0  0  0  0
  -31.2768  -21.8476   21.9887 C   0  0  0  0  0  0
  -28.5796  -24.1879   20.6277 C   0  0  0  0  0  0
  -30.0093  -23.7160   20.9758 C   0  0  0  0  0  0
  -30.1946  -16.9451   20.6470 C   0  0  0  0  0  0
  -28.2499  -25.6179   21.1262 C   0  0  0  0  0  0
  -29.4729  -17.5405   19.4010 C   0  0  2  0  0  0
  -29.8410  -16.7592   18.2101 N   0  0  0  0  0  0
  -29.8999  -15.5156   20.8515 N   0  0  0  0  0  0
  -30.1581  -22.2565   21.1386 N   0  0  0  0  0  0
  -27.7866  -16.2143   17.4448 O   0  0  0  0  0  0
  -31.4748  -12.3681   19.1502 H   0  0  0  0  0  0
  -30.3105  -11.2769   19.8525 H   0  0  0  0  0  0
  -29.7509  -11.7576   17.4400 H   0  0  0  0  0  0
  -29.6925  -13.4660   17.8079 H   0  0  0  0  0  0
  -27.8186  -11.3014   18.8183 H   0  0  0  0  0  0
  -27.3829  -12.6316   17.7778 H   0  0  0  0  0  0
  -27.6991  -14.2470   19.5485 H   0  0  0  0  0  0
  -28.6697  -11.9770   21.3622 H   0  0  0  0  0  0
  -28.4678  -13.6305   21.8512 H   0  0  0  0  0  0
  -25.2747   -9.5704   22.4755 H   0  0  0  0  0  0
  -24.0003   -7.4634   22.7460 H   0  0  0  0  0  0
  -21.0831   -8.8780   19.8957 H   0  0  0  0  0  0
  -22.3675  -10.9681   19.6175 H   0  0  0  0  0  0
  -21.1998   -7.6145   23.9721 H   0  0  0  0  0  0
  -21.1485   -6.0515   25.9080 H   0  0  0  0  0  0
  -22.0600   -2.7609   23.2835 H   0  0  0  0  0  0
  -22.4072  -11.9899   22.4786 H   0  0  0  0  0  0
  -21.1117  -13.1320   22.2619 H   0  0  0  0  0  0
  -24.6592  -15.8357   20.4823 H   0  0  0  0  0  0
  -26.2591  -15.6033   19.9862 H   0  0  0  0  0  0
  -26.7061  -32.5579   23.1164 H   0  0  0  0  0  0
  -25.0122  -33.9795   25.0558 H   0  0  0  0  0  0
  -22.6885  -31.3069   21.4050 H   0  0  0  0  0  0
  -23.3758  -35.9604   23.3311 H   0  0  0  0  0  0
  -24.3586  -36.8869   22.2051 H   0  0  0  0  0  0
  -23.7194  -37.6490   23.6626 H   0  0  0  0  0  0
  -26.0381  -31.6037   20.5932 H   0  0  0  0  0  0
  -26.8140  -30.8951   21.9817 H   0  0  0  0  0  0
  -28.0996  -29.1117   21.1811 H   0  0  0  0  0  0
  -26.0800  -25.9629   19.0430 H   0  0  0  0  0  0
  -23.9863  -27.2816   19.0428 H   0  0  0  0  0  0
  -23.7257  -30.5951   19.3991 H   0  0  0  0  0  0
  -22.7392  -29.2403   19.8627 H   0  0  0  0  0  0
  -25.1271  -36.1993   25.0847 H   0  0  0  0  0  0
  -21.0005  -28.3223   24.1423 H   0  0  0  0  0  0
  -20.5650  -26.2276   23.3598 H   0  0  0  0  0  0
  -21.6634  -26.7422   22.1212 H   0  0  0  0  0  0
  -19.6871  -25.6313   21.1216 H   0  0  0  0  0  0
  -19.6655  -27.3220   20.6751 H   0  0  0  0  0  0
  -17.4192  -26.6710   21.4033 H   0  0  0  0  0  0
  -18.0314  -26.0062   22.9020 H   0  0  0  0  0  0
  -19.7948  -30.7264   24.2271 H   0  0  0  0  0  0
  -17.5037  -31.6271   24.5173 H   0  0  0  0  0  0
  -15.5366  -30.2997   23.7642 H   0  0  0  0  0  0
  -15.8695  -28.0825   22.7057 H   0  0  0  0  0  0
  -24.5927  -30.7048   25.7883 H   0  0  0  0  0  0
  -24.8964  -32.2870   26.4957 H   0  0  0  0  0  0
  -25.8161  -30.8913   27.0236 H   0  0  0  0  0  0
  -26.2797  -29.6814   24.1136 H   0  0  0  0  0  0
  -27.4117  -29.7293   25.4482 H   0  0  0  0  0  0
  -27.8618  -30.4400   23.9146 H   0  0  0  0  0  0
  -27.2691  -33.3625   26.2034 H   0  0  0  0  0  0
  -28.3874  -32.6819   25.0295 H   0  0  0  0  0  0
  -28.0685  -31.8418   26.5390 H   0  0  0  0  0  0
  -28.2618  -38.0087   24.7554 H   0  0  0  0  0  0
  -28.1071  -36.2624   24.6283 H   0  0  0  0  0  0
  -27.2317  -37.1430   25.8886 H   0  0  0  0  0  0
  -20.9278  -29.8802   21.6982 H   0  0  0  0  0  0
  -26.0182  -38.2878   24.1458 H   0  0  0  0  0  0
  -29.9875  -21.3346   16.6194 H   0  0  0  0  0  0
  -29.6657  -18.9461   17.0024 H   0  0  0  0  0  0
  -30.2016  -22.8976   18.4886 H   0  0  0  0  0  0
  -29.7111  -19.6236   21.2715 H   0  0  0  0  0  0
  -27.4818  -16.2920   13.9828 H   0  0  0  0  0  0
  -28.7148  -16.5510   12.7501 H   0  0  0  0  0  0
  -29.8418  -14.4911   13.3514 H   0  0  0  0  0  0
  -28.1452  -14.0284   13.4545 H   0  0  0  0  0  0
  -28.9108  -17.7675   15.1636 H   0  0  0  0  0  0
  -30.3551  -17.1492   14.3908 H   0  0  0  0  0  0
  -29.7819  -13.6551   15.5634 H   0  0  0  0  0  0
  -28.1400  -14.2205   15.8336 H   0  0  0  0  0  0
  -30.7200  -15.7161   16.0802 H   0  0  0  0  0  0
  -32.2016  -21.7825   21.4101 H   0  0  0  0  0  0
  -31.1015  -20.8801   22.4589 H   0  0  0  0  0  0
  -31.4464  -22.5593   22.7976 H   0  0  0  0  0  0
  -27.8825  -23.5116   21.1232 H   0  0  0  0  0  0
  -28.3709  -24.0946   19.5613 H   0  0  0  0  0  0
  -30.2909  -24.1771   21.9244 H   0  0  0  0  0  0
  -30.7278  -24.1039   20.2517 H   0  0  0  0  0  0
  -31.2704  -17.1170   20.5793 H   0  0  0  0  0  0
  -29.8594  -17.4568   21.5478 H   0  0  0  0  0  0
  -28.8807  -25.8822   21.9756 H   0  0  0  0  0  0
  -27.2403  -25.5809   21.5419 H   0  0  0  0  0  0
  -28.4011  -17.4311   19.5769 H   0  0  0  0  0  0
  -30.8288  -16.7297   18.0005 H   0  0  0  0  0  0
  -28.9648  -15.2862   21.1487 H   0  0  0  0  0  0
  1 25  1  0  0  0
  1 30  2  0  0  0
  1 90  1  0  0  0
  2  3  1  0  0  0
  2 25  1  0  0  0
  2 93  1  0  0  0
  2 94  1  0  0  0
  3  4  1  0  0  0
  3 95  1  0  0  0
  3 96  1  0  0  0
  4  5  1  0  0  0
  4 97  1  0  0  0
  4 98  1  0  0  0
  5  6  1  0  0  0
  5 26  1  0  0  0
  5 99  1  0  0  0
  6 25  1  0  0  0
  6100  1  0  0  0
  6101  1  0  0  0
  7  8  2  0  0  0
  7 26  1  0  0  0
  7 29  1  0  0  0
  8  9  1  0  0  0
  8 22  1  0  0  0
  9 10  1  0  0  0
  9 27  2  0  0  0
 10 11  2  0  0  0
 10 15  1  0  0  0
 11 12  1  0  0  0
 11102  1  0  0  0
 12 13  2  0  0  0
 12103  1  0  0  0
 13 14  1  0  0  0
 13 31  1  0  0  0
 14 15  2  0  0  0
 14104  1  0  0  0
 15105  1  0  0  0
 16 17  2  0  0  0
 16 21  1  0  0  0
 16 31  1  0  0  0
 17 18  1  0  0  0
 17106  1  0  0  0
 18 19  2  0  0  0
 18107  1  0  0  0
 19 20  1  0  0  0
 19 24  1  0  0  0
 20 21  2  0  0  0
 20108  1  0  0  0
 21 23  1  0  0  0
 22 28  1  0  0  0
 22 32  2  0  0  0
 26 27  1  0  0  0
 28109  1  0  0  0
 28110  1  0  0  0
 29111  1  0  0  0
 29112  1  0  0  0
 33 34  1  0  0  0
 33 66  1  0  0  0
 33 70  2  0  0  0
 34 36  1  0  0  0
 34 59  1  0  0  0
 34113  1  0  0  0
 35 44  2  0  0  0
 35 45  1  0  0  0
 35 68  1  0  0  0
 36 56  1  0  0  0
 36114  1  0  0  0
 37 39  1  0  0  0
 37 47  1  0  0  0
 37 66  1  0  0  0
 37115  1  0  0  0
 38 43  2  0  0  0
 38 46  1  0  0  0
 38 47  1  0  0  0
 39 64  1  0  0  0
 39 67  2  0  0  0
 40 52  1  0  0  0
 40 53  2  0  0  0
 40 58  1  0  0  0
 41116  1  0  0  0
 41117  1  0  0  0
 41118  1  0  0  0
 41 48  1  0  0  0
 42 43  1  0  0  0
 42 66  1  0  0  0
 42119  1  0  0  0
 42120  1  0  0  0
 43 44  1  0  0  0
 44121  1  0  0  0
 45 46  2  0  0  0
 45122  1  0  0  0
 46123  1  0  0  0
 47124  1  0  0  0
 47125  1  0  0  0
 48 56  1  0  0  0
 48 65  1  0  0  0
 48126  1  0  0  0
 49 50  1  0  0  0
 49 53  1  0  0  0
 49 64  1  0  0  0
 49127  1  0  0  0
 50 51  1  0  0  0
 50128  1  0  0  0
 50129  1  0  0  0
 51 52  1  0  0  0
 51130  1  0  0  0
 51131  1  0  0  0
 52132  1  0  0  0
 52133  1  0  0  0
 53 54  1  0  0  0
 54 55  2  0  0  0
 54134  1  0  0  0
 55 57  1  0  0  0
 55135  1  0  0  0
 56 69  2  0  0  0
 57 58  2  0  0  0
 57136  1  0  0  0
 58137  1  0  0  0
 59 60  1  0  0  0
 59 61  1  0  0  0
 59 62  1  0  0  0
 60138  1  0  0  0
 60139  1  0  0  0
 60140  1  0  0  0
 61141  1  0  0  0
 61142  1  0  0  0
 61143  1  0  0  0
 62144  1  0  0  0
 62145  1  0  0  0
 62146  1  0  0  0
 63 65  1  0  0  0
 63147  1  0  0  0
 63148  1  0  0  0
 63149  1  0  0  0
 64150  1  0  0  0
 65151  1  0  0  0
 68 87  1  0  0  0
 71 72  2  0  0  0
 71 73  1  0  0  0
 71152  1  0  0  0
 72 75  1  0  0  0
 72153  1  0  0  0
 73 76  2  0  0  0
 73154  1  0  0  0
 74 75  2  0  0  0
 74 76  1  0  0  0
 74155  1  0  0  0
 75 88  1  0  0  0
 76 91  1  0  0  0
 77 89  1  0  0  0
 77 92  2  0  0  0
 77 82  1  0  0  0
 78 79  1  0  0  0
 78 80  1  0  0  0
 78156  1  0  0  0
 78157  1  0  0  0
 79 81  1  0  0  0
 79158  1  0  0  0
 79159  1  0  0  0
 80 82  1  0  0  0
 80160  1  0  0  0
 80161  1  0  0  0
 81 82  1  0  0  0
 81162  1  0  0  0
 81163  1  0  0  0
 82164  1  0  0  0
 83 91  1  0  0  0
 83165  1  0  0  0
 83166  1  0  0  0
 83167  1  0  0  0
 84 85  1  0  0  0
 84 87  1  0  0  0
 84168  1  0  0  0
 84169  1  0  0  0
 85 91  1  0  0  0
 85170  1  0  0  0
 85171  1  0  0  0
 86 90  1  0  0  0
 86172  1  0  0  0
 86173  1  0  0  0
 86 88  1  0  0  0
 87174  1  0  0  0
 87175  1  0  0  0
 88 89  1  0  0  0
 88176  1  0  0  0
 89177  1  0  0  0
 90178  1  0  0  0
M  ISO  4   1 100  68 101  87 101  90 100
M  END
> <chiral flag>
0

> <version>
0

> <s_m_source_file>
/data/baiqing/PycharmProjects/Reinvent-master-3.2/result/LINK_invent/BTK/process_docking_weight1_custom_product_contain_oxygen_bond_distance_aromatic_linkinvent_7_9_3/rearranged_h_0005.sdf

> <i_m_source_file_index>
81

> <r_mmod_Potential_Energy-OPLS-2005>
-106.572074890137

> <r_mmod_Stretch_Energy-OPLS-2005>
43.3088569641113

> <r_mmod_Bend_Energy-OPLS-2005>
126.431747436523

> <r_mmod_Torsional_Energy-OPLS-2005>
303.776580810547

> <r_mmod_Improper_Torsional_Energy-OPLS-2005>
10.0738306045532

> <r_mmod_Van_der_Waal_Energy-OPLS-2005>
151.006546020508

> <r_mmod_Electrostatic_Energy-OPLS-2005>
-521.423828125

> <r_mmod_Solvation_Energy-OPLS-2005>
-235.633773803711

> <b_mmod_Minimization_Converged-OPLS-2005>
0

> <r_mmod_RMS_Derivative-OPLS-2005>
2.3307409286499

$$$$
83
                    3D
 Structure written by MMmdl.
158167  0  0  1  0            999 V2000
  -30.7317  -14.4367   20.6222 C   0  0  0  0  0  0
  -30.4190  -12.3078   19.4111 C   0  0  0  0  0  0
  -29.4889  -12.5112   18.1992 C   0  0  0  0  0  0
  -28.0126  -12.3666   18.6172 C   0  0  0  0  0  0
  -27.6610  -13.2063   19.8741 C   0  0  2  0  0  0
  -28.7012  -12.9818   20.9928 C   0  0  0  0  0  0
  -25.2592  -13.8167   20.5696 C   0  0  0  0  0  0
  -24.1836  -13.0447   20.9181 C   0  0  0  0  0  0
  -24.6384  -11.6912   20.8728 C   0  0  0  0  0  0
  -23.9055  -10.4293   21.0400 C   0  0  0  0  0  0
  -24.3611   -9.4209   21.9177 C   0  0  0  0  0  0
  -23.6287   -8.2247   22.0756 C   0  0  0  0  0  0
  -22.4267   -8.0282   21.3550 C   0  0  0  0  0  0
  -21.9903   -9.0250   20.4654 C   0  0  0  0  0  0
  -22.7229  -10.2128   20.3055 C   0  0  0  0  0  0
  -21.6853   -6.0729   22.5275 C   0  0  0  0  0  0
  -21.4013   -6.5636   23.8207 C   0  0  0  0  0  0
  -21.3664   -5.6791   24.9176 C   0  0  0  0  0  0
  -21.6049   -4.3050   24.7228 C   0  0  0  0  0  0
  -21.8819   -3.8142   23.4350 C   0  0  0  0  0  0
  -21.9193   -4.6958   22.3405 C   0  0  0  0  0  0
  -22.7860  -13.5244   21.1853 C   0  0  0  0  0  0
  -22.1666   -4.2143   21.0984 F   0  0  0  0  0  0
  -21.5629   -3.4538   25.7744 F   0  0  0  0  0  0
  -30.0336  -13.2838   20.4414 N   0  0  0  0  0  0
  -26.3018  -12.9334   20.3359 N   0  0  0  0  0  0
  -25.9312  -11.6493   20.5757 N   0  0  0  0  0  0
  -22.0494  -12.8230   22.0397 N   0  0  0  0  0  0
  -25.4351  -15.1885   20.4155 N   0  0  0  0  0  0
  -31.8379  -14.6384   20.1115 O   0  0  0  0  0  0
  -21.6640   -6.8871   21.4236 O   0  0  0  0  0  0
  -22.3547  -14.5554   20.6707 O   0  0  0  0  0  0
  -24.6134  -31.8681   23.2094 C   0  0  0  0  0  0
  -25.9027  -32.4826   23.8393 C   0  0  1  0  0  0
  -27.2374  -27.4415   20.1061 C   0  0  0  0  0  0
  -25.5893  -33.8626   24.2329 N   0  0  0  0  0  0
  -23.4013  -30.4898   21.5491 C   0  0  2  0  0  0
  -24.8500  -28.9517   20.1191 C   0  0  0  0  0  0
  -22.7389  -29.4674   22.5002 C   0  0  0  0  0  0
  -18.0278  -28.1374   22.8477 C   0  0  0  0  0  0
  -24.1492  -36.7323   23.2639 C   0  0  0  0  0  0
  -25.9276  -30.8363   21.3608 C   0  0  0  0  0  0
  -26.0073  -29.4682   20.7155 C   0  0  0  0  0  0
  -27.2059  -28.7196   20.7061 C   0  0  0  0  0  0
  -26.0685  -26.9352   19.5037 C   0  0  0  0  0  0
  -24.8749  -27.6835   19.5106 C   0  0  0  0  0  0
  -23.6098  -29.8166   20.1657 C   0  0  0  0  0  0
  -25.4111  -36.3113   24.0336 C   0  0  1  0  0  0
  -20.5858  -28.3674   23.1329 C   0  0  2  0  0  0
  -20.6783  -26.9415   22.5440 C   0  0  0  0  0  0
  -19.5785  -26.6395   21.5214 C   0  0  0  0  0  0
  -18.1946  -26.7926   22.1604 C   0  0  0  0  0  0
  -19.1518  -28.8836   23.2899 C   0  0  0  0  0  0
  -18.9437  -30.1437   23.8910 C   0  0  0  0  0  0
  -17.6442  -30.6579   24.0551 C   0  0  0  0  0  0
  -25.9034  -34.9480   23.5130 C   0  0  0  0  0  0
  -16.5337  -29.9070   23.6320 C   0  0  0  0  0  0
  -16.7266  -28.6491   23.0339 C   0  0  0  0  0  0
  -26.4465  -31.6603   25.0717 C   0  0  0  0  0  0
  -25.3735  -31.3703   26.1467 C   0  0  0  0  0  0
  -27.0293  -30.3048   24.6078 C   0  0  0  0  0  0
  -27.6047  -32.4316   25.7475 C   0  0  0  0  0  0
  -27.5580  -37.1817   24.8463 C   0  0  0  0  0  0
  -21.4117  -29.3046   22.3738 N   0  0  0  0  0  0
  -26.4298  -37.3794   23.9405 N   0  0  0  0  0  0
  -24.6654  -31.0786   22.0988 N   0  0  0  0  0  0
  -23.4155  -28.8220   23.3054 O   0  0  0  0  0  0
  -28.4046  -26.7161   20.0658 O   0  0  0  0  0  0
  -26.5602  -34.8929   22.4694 O   0  0  0  0  0  0
  -23.5328  -32.1424   23.7496 O   0  0  0  0  0  0
  -29.0434  -18.2645   20.6131 C   0  0  0  0  0  0
  -28.5166  -19.5604   20.4204 C   0  0  0  0  0  0
  -30.5335  -19.1405   22.3184 C   0  0  0  0  0  0
  -30.0663  -18.0398   21.5659 C   0  0  0  0  0  0
  -28.9944  -20.6659   21.1673 C   0  0  0  0  0  0
  -30.0041  -20.4371   22.1396 C   0  0  0  0  0  0
  -29.0474  -23.0842   20.5808 C   0  0  0  0  0  0
  -26.7450  -23.6609   20.8734 C   0  0  0  0  0  0
  -26.9614  -22.1422   20.9109 C   0  0  0  0  0  0
  -28.0667  -24.2433   20.3479 C   0  0  1  0  0  0
  -30.6947  -16.6581   21.8113 C   0  0  0  0  0  0
  -28.4813  -25.6076   20.9750 C   0  0  0  0  0  0
  -28.4069  -21.9565   20.9546 N   0  0  0  0  0  0
  -30.1138  -15.3888   21.3447 N   0  0  0  0  0  0
  -30.2635  -23.1986   20.3982 O   0  0  0  0  0  0
  -30.5719  -21.6909   23.1877 Cl  0  0  0  0  0  0
  -31.4625  -12.4059   19.1071 H   0  0  0  0  0  0
  -30.3198  -11.2948   19.8046 H   0  0  0  0  0  0
  -29.7293  -11.7909   17.4159 H   0  0  0  0  0  0
  -29.6542  -13.5000   17.7684 H   0  0  0  0  0  0
  -27.8266  -11.3103   18.8139 H   0  0  0  0  0  0
  -27.3585  -12.6385   17.7879 H   0  0  0  0  0  0
  -27.7083  -14.2554   19.5808 H   0  0  0  0  0  0
  -28.6751  -11.9447   21.3284 H   0  0  0  0  0  0
  -28.4560  -13.5751   21.8742 H   0  0  0  0  0  0
  -25.2759   -9.5686   22.4748 H   0  0  0  0  0  0
  -24.0002   -7.4639   22.7477 H   0  0  0  0  0  0
  -21.0836   -8.8762   19.8962 H   0  0  0  0  0  0
  -22.3686  -10.9661   19.6160 H   0  0  0  0  0  0
  -21.1996   -7.6141   23.9706 H   0  0  0  0  0  0
  -21.1495   -6.0526   25.9076 H   0  0  0  0  0  0
  -22.0593   -2.7605   23.2853 H   0  0  0  0  0  0
  -22.4096  -11.9886   22.4780 H   0  0  0  0  0  0
  -21.1113  -13.1252   22.2604 H   0  0  0  0  0  0
  -24.6759  -15.8504   20.5354 H   0  0  0  0  0  0
  -26.2991  -15.6254   20.1207 H   0  0  0  0  0  0
  -26.7091  -32.5548   23.1160 H   0  0  0  0  0  0
  -25.0029  -33.9787   25.0462 H   0  0  0  0  0  0
  -22.6906  -31.3063   21.4075 H   0  0  0  0  0  0
  -23.3745  -35.9666   23.3315 H   0  0  0  0  0  0
  -24.3579  -36.8918   22.2046 H   0  0  0  0  0  0
  -23.7256  -37.6539   23.6644 H   0  0  0  0  0  0
  -26.0357  -31.5992   20.5891 H   0  0  0  0  0  0
  -26.8171  -30.8958   21.9762 H   0  0  0  0  0  0
  -28.1040  -29.1178   21.1573 H   0  0  0  0  0  0
  -26.0847  -25.9706   19.0184 H   0  0  0  0  0  0
  -23.9855  -27.2814   19.0455 H   0  0  0  0  0  0
  -23.7151  -30.5892   19.4030 H   0  0  0  0  0  0
  -22.7361  -29.2314   19.8734 H   0  0  0  0  0  0
  -25.1290  -36.1981   25.0829 H   0  0  0  0  0  0
  -20.9934  -28.3247   24.1459 H   0  0  0  0  0  0
  -20.5656  -26.2297   23.3631 H   0  0  0  0  0  0
  -21.6682  -26.7453   22.1287 H   0  0  0  0  0  0
  -19.6957  -25.6308   21.1241 H   0  0  0  0  0  0
  -19.6746  -27.3182   20.6730 H   0  0  0  0  0  0
  -17.4215  -26.6666   21.4002 H   0  0  0  0  0  0
  -18.0355  -26.0061   22.8990 H   0  0  0  0  0  0
  -19.7913  -30.7245   24.2284 H   0  0  0  0  0  0
  -17.5001  -31.6271   24.5135 H   0  0  0  0  0  0
  -15.5339  -30.2972   23.7630 H   0  0  0  0  0  0
  -15.8670  -28.0804   22.7056 H   0  0  0  0  0  0
  -24.5901  -30.7063   25.7792 H   0  0  0  0  0  0
  -24.8943  -32.2861   26.4938 H   0  0  0  0  0  0
  -25.8084  -30.8842   27.0208 H   0  0  0  0  0  0
  -26.2821  -29.6817   24.1136 H   0  0  0  0  0  0
  -27.4072  -29.7274   25.4528 H   0  0  0  0  0  0
  -27.8662  -30.4376   23.9216 H   0  0  0  0  0  0
  -27.2665  -33.3594   26.2105 H   0  0  0  0  0  0
  -28.3830  -32.6903   25.0283 H   0  0  0  0  0  0
  -28.0754  -31.8409   26.5345 H   0  0  0  0  0  0
  -28.2616  -38.0098   24.7497 H   0  0  0  0  0  0
  -28.1057  -36.2628   24.6308 H   0  0  0  0  0  0
  -27.2298  -37.1494   25.8867 H   0  0  0  0  0  0
  -20.9257  -29.8729   21.6944 H   0  0  0  0  0  0
  -26.0190  -38.2880   24.1381 H   0  0  0  0  0  0
  -28.6666  -17.4444   20.0172 H   0  0  0  0  0  0
  -27.7433  -19.7002   19.6786 H   0  0  0  0  0  0
  -31.3015  -18.9869   23.0632 H   0  0  0  0  0  0
  -26.5318  -24.0213   21.8812 H   0  0  0  0  0  0
  -25.8939  -23.9279   20.2473 H   0  0  0  0  0  0
  -26.5618  -21.6796   20.0074 H   0  0  0  0  0  0
  -26.4725  -21.6849   21.7723 H   0  0  0  0  0  0
  -28.0065  -24.3507   19.2641 H   0  0  0  0  0  0
  -30.9975  -16.8950   20.7891 H   0  0  0  0  0  0
  -29.7985  -16.6665   22.4347 H   0  0  0  0  0  0
  -27.9079  -25.8185   21.8793 H   0  0  0  0  0  0
  -29.5188  -25.5663   21.3102 H   0  0  0  0  0  0
  -29.1985  -15.1559   21.6984 H   0  0  0  0  0  0
  1 25  1  0  0  0
  1 30  2  0  0  0
  1 84  1  0  0  0
  2  3  1  0  0  0
  2 25  1  0  0  0
  2 87  1  0  0  0
  2 88  1  0  0  0
  3  4  1  0  0  0
  3 89  1  0  0  0
  3 90  1  0  0  0
  4  5  1  0  0  0
  4 91  1  0  0  0
  4 92  1  0  0  0
  5  6  1  0  0  0
  5 26  1  0  0  0
  5 93  1  0  0  0
  6 25  1  0  0  0
  6 94  1  0  0  0
  6 95  1  0  0  0
  7  8  2  0  0  0
  7 26  1  0  0  0
  7 29  1  0  0  0
  8  9  1  0  0  0
  8 22  1  0  0  0
  9 10  1  0  0  0
  9 27  2  0  0  0
 10 11  2  0  0  0
 10 15  1  0  0  0
 11 12  1  0  0  0
 11 96  1  0  0  0
 12 13  2  0  0  0
 12 97  1  0  0  0
 13 14  1  0  0  0
 13 31  1  0  0  0
 14 15  2  0  0  0
 14 98  1  0  0  0
 15 99  1  0  0  0
 16 17  2  0  0  0
 16 21  1  0  0  0
 16 31  1  0  0  0
 17 18  1  0  0  0
 17100  1  0  0  0
 18 19  2  0  0  0
 18101  1  0  0  0
 19 20  1  0  0  0
 19 24  1  0  0  0
 20 21  2  0  0  0
 20102  1  0  0  0
 21 23  1  0  0  0
 22 28  1  0  0  0
 22 32  2  0  0  0
 26 27  1  0  0  0
 28103  1  0  0  0
 28104  1  0  0  0
 29105  1  0  0  0
 29106  1  0  0  0
 33 34  1  0  0  0
 33 66  1  0  0  0
 33 70  2  0  0  0
 34 36  1  0  0  0
 34 59  1  0  0  0
 34107  1  0  0  0
 35 44  2  0  0  0
 35 45  1  0  0  0
 35 68  1  0  0  0
 36 56  1  0  0  0
 36108  1  0  0  0
 37 39  1  0  0  0
 37 47  1  0  0  0
 37 66  1  0  0  0
 37109  1  0  0  0
 38 43  2  0  0  0
 38 46  1  0  0  0
 38 47  1  0  0  0
 39 64  1  0  0  0
 39 67  2  0  0  0
 40 52  1  0  0  0
 40 53  2  0  0  0
 40 58  1  0  0  0
 41110  1  0  0  0
 41111  1  0  0  0
 41112  1  0  0  0
 41 48  1  0  0  0
 42 43  1  0  0  0
 42 66  1  0  0  0
 42113  1  0  0  0
 42114  1  0  0  0
 43 44  1  0  0  0
 44115  1  0  0  0
 45 46  2  0  0  0
 45116  1  0  0  0
 46117  1  0  0  0
 47118  1  0  0  0
 47119  1  0  0  0
 48 56  1  0  0  0
 48 65  1  0  0  0
 48120  1  0  0  0
 49 50  1  0  0  0
 49 53  1  0  0  0
 49 64  1  0  0  0
 49121  1  0  0  0
 50 51  1  0  0  0
 50122  1  0  0  0
 50123  1  0  0  0
 51 52  1  0  0  0
 51124  1  0  0  0
 51125  1  0  0  0
 52126  1  0  0  0
 52127  1  0  0  0
 53 54  1  0  0  0
 54 55  2  0  0  0
 54128  1  0  0  0
 55 57  1  0  0  0
 55129  1  0  0  0
 56 69  2  0  0  0
 57 58  2  0  0  0
 57130  1  0  0  0
 58131  1  0  0  0
 59 60  1  0  0  0
 59 61  1  0  0  0
 59 62  1  0  0  0
 60132  1  0  0  0
 60133  1  0  0  0
 60134  1  0  0  0
 61135  1  0  0  0
 61136  1  0  0  0
 61137  1  0  0  0
 62138  1  0  0  0
 62139  1  0  0  0
 62140  1  0  0  0
 63 65  1  0  0  0
 63141  1  0  0  0
 63142  1  0  0  0
 63143  1  0  0  0
 64144  1  0  0  0
 65145  1  0  0  0
 68 82  1  0  0  0
 71 72  2  0  0  0
 71 74  1  0  0  0
 71146  1  0  0  0
 72 75  1  0  0  0
 72147  1  0  0  0
 73 74  2  0  0  0
 73 76  1  0  0  0
 73148  1  0  0  0
 74 81  1  0  0  0
 75 76  2  0  0  0
 75 83  1  0  0  0
 76 86  1  0  0  0
 77 80  1  0  0  0
 77 83  1  0  0  0
 77 85  2  0  0  0
 78 79  1  0  0  0
 78 80  1  0  0  0
 78149  1  0  0  0
 78150  1  0  0  0
 79 83  1  0  0  0
 79151  1  0  0  0
 79152  1  0  0  0
 80 82  1  0  0  0
 80153  1  0  0  0
 81 84  1  0  0  0
 81154  1  0  0  0
 81155  1  0  0  0
 82156  1  0  0  0
 82157  1  0  0  0
 84158  1  0  0  0
M  ISO  4   1 100  68 101  82 101  84 100
M  END
> <chiral flag>
0

> <version>
0

> <s_m_source_file>
/data/baiqing/PycharmProjects/Reinvent-master-3.2/result/LINK_invent/BTK/process_docking_weight1_custom_product_contain_oxygen_bond_distance_aromatic_linkinvent_7_9_3/rearranged_h_0005.sdf

> <i_m_source_file_index>
82

> <r_mmod_Potential_Energy-OPLS-2005>
192.156890869141

> <r_mmod_Stretch_Energy-OPLS-2005>
37.7019577026367

> <r_mmod_Bend_Energy-OPLS-2005>
323.811340332031

> <r_mmod_Torsional_Energy-OPLS-2005>
285.71826171875

> <r_mmod_Improper_Torsional_Energy-OPLS-2005>
2.60056853294373

> <r_mmod_Van_der_Waal_Energy-OPLS-2005>
152.565322875977

> <r_mmod_Electrostatic_Energy-OPLS-2005>
-391.888824462891

> <r_mmod_Solvation_Energy-OPLS-2005>
-227.978210449219

> <b_mmod_Minimization_Converged-OPLS-2005>
0

> <r_mmod_RMS_Derivative-OPLS-2005>
1.51997661590576

$$$$
85
                    3D
 Structure written by MMmdl.
189199  0  0  1  0            999 V2000
  -30.7543  -14.3495   20.7235 C   0  0  0  0  0  0
  -30.4197  -12.3013   19.3756 C   0  0  0  0  0  0
  -29.4779  -12.5418   18.1804 C   0  0  0  0  0  0
  -28.0030  -12.3873   18.5995 C   0  0  0  0  0  0
  -27.6635  -13.1978   19.8770 C   0  0  2  0  0  0
  -28.6988  -12.9103   20.9841 C   0  0  0  0  0  0
  -25.2590  -13.8153   20.5663 C   0  0  0  0  0  0
  -24.1835  -13.0440   20.9175 C   0  0  0  0  0  0
  -24.6373  -11.6900   20.8721 C   0  0  0  0  0  0
  -23.9044  -10.4294   21.0406 C   0  0  0  0  0  0
  -24.3600   -9.4215   21.9188 C   0  0  0  0  0  0
  -23.6284   -8.2246   22.0754 C   0  0  0  0  0  0
  -22.4266   -8.0283   21.3547 C   0  0  0  0  0  0
  -21.9896   -9.0253   20.4650 C   0  0  0  0  0  0
  -22.7218  -10.2136   20.3060 C   0  0  0  0  0  0
  -21.6850   -6.0740   22.5285 C   0  0  0  0  0  0
  -21.4006   -6.5640   23.8216 C   0  0  0  0  0  0
  -21.3662   -5.6795   24.9181 C   0  0  0  0  0  0
  -21.6044   -4.3061   24.7228 C   0  0  0  0  0  0
  -21.8818   -3.8149   23.4351 C   0  0  0  0  0  0
  -21.9186   -4.6966   22.3409 C   0  0  0  0  0  0
  -22.7862  -13.5245   21.1859 C   0  0  0  0  0  0
  -22.1659   -4.2153   21.0990 F   0  0  0  0  0  0
  -21.5632   -3.4543   25.7739 F   0  0  0  0  0  0
  -30.0443  -13.2225   20.4580 N   0  0  0  0  0  0
  -26.3017  -12.9301   20.3343 N   0  0  0  0  0  0
  -25.9291  -11.6467   20.5728 N   0  0  0  0  0  0
  -22.0490  -12.8237   22.0410 N   0  0  0  0  0  0
  -25.4312  -15.1873   20.4097 N   0  0  0  0  0  0
  -31.7651  -14.6738   20.0894 O   0  0  0  0  0  0
  -21.6636   -6.8879   21.4247 O   0  0  0  0  0  0
  -22.3555  -14.5566   20.6730 O   0  0  0  0  0  0
  -24.6096  -31.8701   23.2100 C   0  0  0  0  0  0
  -25.9011  -32.4831   23.8386 C   0  0  1  0  0  0
  -27.2446  -27.4786   20.0959 C   0  0  0  0  0  0
  -25.5894  -33.8633   24.2329 N   0  0  0  0  0  0
  -23.3971  -30.4904   21.5478 C   0  0  2  0  0  0
  -24.8455  -28.9526   20.1191 C   0  0  0  0  0  0
  -22.7390  -29.4655   22.4986 C   0  0  0  0  0  0
  -18.0267  -28.1394   22.8461 C   0  0  0  0  0  0
  -24.1494  -36.7310   23.2644 C   0  0  0  0  0  0
  -25.9187  -30.8492   21.3546 C   0  0  0  0  0  0
  -25.9984  -29.4837   20.7088 C   0  0  0  0  0  0
  -27.2025  -28.7529   20.6906 C   0  0  0  0  0  0
  -26.0771  -26.9366   19.5204 C   0  0  0  0  0  0
  -24.8760  -27.6759   19.5254 C   0  0  0  0  0  0
  -23.6058  -29.8162   20.1637 C   0  0  0  0  0  0
  -25.4110  -36.3117   24.0352 C   0  0  1  0  0  0
  -20.5849  -28.3654   23.1324 C   0  0  2  0  0  0
  -20.6766  -26.9397   22.5412 C   0  0  0  0  0  0
  -19.5757  -26.6385   21.5204 C   0  0  0  0  0  0
  -18.1924  -26.7930   22.1605 C   0  0  0  0  0  0
  -19.1516  -28.8833   23.2892 C   0  0  0  0  0  0
  -18.9463  -30.1433   23.8911 C   0  0  0  0  0  0
  -17.6470  -30.6587   24.0558 C   0  0  0  0  0  0
  -25.9039  -34.9482   23.5136 C   0  0  0  0  0  0
  -16.5355  -29.9102   23.6327 C   0  0  0  0  0  0
  -16.7258  -28.6532   23.0316 C   0  0  0  0  0  0
  -26.4453  -31.6597   25.0698 C   0  0  0  0  0  0
  -25.3729  -31.3727   26.1465 C   0  0  0  0  0  0
  -27.0271  -30.3053   24.6014 C   0  0  0  0  0  0
  -27.6015  -32.4320   25.7467 C   0  0  0  0  0  0
  -27.5589  -37.1808   24.8473 C   0  0  0  0  0  0
  -21.4119  -29.3037   22.3750 N   0  0  0  0  0  0
  -26.4300  -37.3796   23.9419 N   0  0  0  0  0  0
  -24.6598  -31.0845   22.0969 N   0  0  0  0  0  0
  -23.4180  -28.8194   23.3015 O   0  0  0  0  0  0
  -28.4472  -26.8276   20.0256 O   0  0  0  0  0  0
  -26.5593  -34.8918   22.4684 O   0  0  0  0  0  0
  -23.5293  -32.1420   23.7523 O   0  0  0  0  0  0
  -30.1225  -18.0495   23.9331 C   0  0  0  0  0  0
  -29.7812  -16.8591   23.2702 C   0  0  0  0  0  0
  -31.9485  -16.8645   22.1649 C   0  0  0  0  0  0
  -33.8235  -19.8692   23.3766 C   0  0  0  0  0  0
  -32.2989  -18.0582   22.8433 C   0  0  0  0  0  0
  -33.5631  -18.6795   22.6697 C   0  0  0  0  0  0
  -31.3705  -18.6660   23.7343 C   0  0  0  0  0  0
  -30.6883  -16.2600   22.3757 C   0  0  0  0  0  0
  -32.8321  -20.4034   24.2055 C   0  0  0  0  0  0
  -30.3268  -24.1248   21.8310 C   0  0  0  0  0  0
  -36.9335  -15.9063   23.7380 C   0  0  0  0  0  0
  -37.2221  -15.4780   22.2969 C   0  0  0  0  0  0
  -36.0821  -17.1650   23.5817 C   0  0  0  0  0  0
  -36.0986  -16.1027   21.4525 C   0  0  0  0  0  0
  -34.5694  -20.9999   28.2785 C   0  0  0  0  0  0
  -34.6444  -18.1061   21.7632 C   0  0  0  0  0  0
  -29.8734  -25.4994   21.3394 C   0  0  0  0  0  0
  -34.4300  -20.9104   26.7554 C   0  0  0  0  0  0
  -33.1416  -21.5918   26.2657 C   0  0  0  0  0  0
  -32.2726  -22.8770   22.7655 C   0  0  0  0  0  0
  -32.1414  -22.6750   24.2877 C   0  0  0  0  0  0
  -28.5233  -25.5313   20.6017 C   0  0  0  0  0  0
  -31.6411  -19.8113   24.3923 N   0  0  0  0  0  0
  -30.2731  -15.0453   21.7691 N   0  0  0  0  0  0
  -31.5689  -24.0729   22.3257 N   0  0  0  0  0  0
  -33.0489  -21.6505   24.8080 N   0  0  0  0  0  0
  -35.2720  -16.9122   22.3746 N   0  3  0  0  0  0
  -29.5927  -23.1375   21.7559 O   0  0  0  0  0  0
  -31.4591  -12.4247   19.0663 H   0  0  0  0  0  0
  -30.3347  -11.2699   19.7217 H   0  0  0  0  0  0
  -29.7098  -11.8484   17.3710 H   0  0  0  0  0  0
  -29.6403  -13.5436   17.7790 H   0  0  0  0  0  0
  -27.8141  -11.3268   18.7710 H   0  0  0  0  0  0
  -27.3450  -12.6833   17.7809 H   0  0  0  0  0  0
  -27.7298  -14.2555   19.6201 H   0  0  0  0  0  0
  -28.6624  -11.8564   21.2634 H   0  0  0  0  0  0
  -28.4276  -13.4483   21.8923 H   0  0  0  0  0  0
  -25.2745   -9.5695   22.4760 H   0  0  0  0  0  0
  -23.9999   -7.4635   22.7463 H   0  0  0  0  0  0
  -21.0831   -8.8782   19.8947 H   0  0  0  0  0  0
  -22.3690  -10.9681   19.6167 H   0  0  0  0  0  0
  -21.1995   -7.6143   23.9724 H   0  0  0  0  0  0
  -21.1485   -6.0524   25.9085 H   0  0  0  0  0  0
  -22.0589   -2.7610   23.2855 H   0  0  0  0  0  0
  -22.4084  -11.9886   22.4797 H   0  0  0  0  0  0
  -21.1111  -13.1279   22.2621 H   0  0  0  0  0  0
  -24.6647  -15.8427   20.5187 H   0  0  0  0  0  0
  -26.2919  -15.6312   20.1136 H   0  0  0  0  0  0
  -26.7074  -32.5559   23.1147 H   0  0  0  0  0  0
  -25.0057  -33.9789   25.0487 H   0  0  0  0  0  0
  -22.6845  -31.3049   21.4038 H   0  0  0  0  0  0
  -23.3755  -35.9650   23.3320 H   0  0  0  0  0  0
  -24.3585  -36.8901   22.2057 H   0  0  0  0  0  0
  -23.7246  -37.6523   23.6632 H   0  0  0  0  0  0
  -26.0227  -31.6137   20.5820 H   0  0  0  0  0  0
  -26.8096  -30.9051   21.9670 H   0  0  0  0  0  0
  -28.1014  -29.1673   21.1241 H   0  0  0  0  0  0
  -26.1054  -25.9629   19.0525 H   0  0  0  0  0  0
  -23.9894  -27.2591   19.0696 H   0  0  0  0  0  0
  -23.7152  -30.5883   19.4017 H   0  0  0  0  0  0
  -22.7318  -29.2344   19.8662 H   0  0  0  0  0  0
  -25.1284  -36.1989   25.0851 H   0  0  0  0  0  0
  -20.9920  -28.3210   24.1453 H   0  0  0  0  0  0
  -20.5680  -26.2255   23.3582 H   0  0  0  0  0  0
  -21.6635  -26.7453   22.1203 H   0  0  0  0  0  0
  -19.6940  -25.6305   21.1216 H   0  0  0  0  0  0
  -19.6726  -27.3201   20.6743 H   0  0  0  0  0  0
  -17.4199  -26.6645   21.4011 H   0  0  0  0  0  0
  -18.0341  -26.0084   22.9014 H   0  0  0  0  0  0
  -19.7954  -30.7226   24.2283 H   0  0  0  0  0  0
  -17.5052  -31.6271   24.5161 H   0  0  0  0  0  0
  -15.5366  -30.3023   23.7664 H   0  0  0  0  0  0
  -15.8645  -28.0881   22.7005 H   0  0  0  0  0  0
  -24.5877  -30.7092   25.7826 H   0  0  0  0  0  0
  -24.8945  -32.2900   26.4912 H   0  0  0  0  0  0
  -25.8090  -30.8903   27.0219 H   0  0  0  0  0  0
  -26.2793  -29.6845   24.1064 H   0  0  0  0  0  0
  -27.4084  -29.7261   25.4432 H   0  0  0  0  0  0
  -27.8603  -30.4423   23.9115 H   0  0  0  0  0  0
  -27.2603  -33.3598   26.2073 H   0  0  0  0  0  0
  -28.3800  -32.6924   25.0286 H   0  0  0  0  0  0
  -28.0692  -31.8434   26.5361 H   0  0  0  0  0  0
  -28.2599  -38.0111   24.7493 H   0  0  0  0  0  0
  -28.1079  -36.2628   24.6313 H   0  0  0  0  0  0
  -27.2297  -37.1480   25.8875 H   0  0  0  0  0  0
  -20.9269  -29.8764   21.6986 H   0  0  0  0  0  0
  -26.0198  -38.2883   24.1409 H   0  0  0  0  0  0
  -29.4143  -18.5028   24.6110 H   0  0  0  0  0  0
  -28.8124  -16.4142   23.4571 H   0  0  0  0  0  0
  -32.6416  -16.4040   21.4824 H   0  0  0  0  0  0
  -34.7649  -20.3906   23.2665 H   0  0  0  0  0  0
  -37.8376  -16.0751   24.3238 H   0  0  0  0  0  0
  -36.3524  -15.1332   24.2428 H   0  0  0  0  0  0
  -37.2578  -14.3926   22.1969 H   0  0  0  0  0  0
  -38.1883  -15.8670   21.9728 H   0  0  0  0  0  0
  -36.7265  -18.0320   23.4257 H   0  0  0  0  0  0
  -35.4655  -17.3616   24.4600 H   0  0  0  0  0  0
  -35.4835  -15.3445   20.9663 H   0  0  0  0  0  0
  -36.5301  -16.7251   20.6671 H   0  0  0  0  0  0
  -35.4958  -20.5344   28.6177 H   0  0  0  0  0  0
  -33.7407  -20.4988   28.7812 H   0  0  0  0  0  0
  -34.5805  -22.0389   28.6102 H   0  0  0  0  0  0
  -35.4041  -18.8596   21.5511 H   0  0  0  0  0  0
  -34.2068  -17.8537   20.7971 H   0  0  0  0  0  0
  -30.6497  -25.8754   20.6712 H   0  0  0  0  0  0
  -29.8399  -26.1800   22.1902 H   0  0  0  0  0  0
  -34.4516  -19.8626   26.4534 H   0  0  0  0  0  0
  -35.2967  -21.3858   26.2930 H   0  0  0  0  0  0
  -33.1137  -22.6076   26.6642 H   0  0  0  0  0  0
  -32.2681  -21.0806   26.6779 H   0  0  0  0  0  0
  -31.9243  -22.0029   22.2116 H   0  0  0  0  0  0
  -33.3231  -23.0090   22.5023 H   0  0  0  0  0  0
  -31.1103  -22.4283   24.5486 H   0  0  0  0  0  0
  -32.3665  -23.6167   24.7918 H   0  0  0  0  0  0
  -27.7060  -25.3356   21.2987 H   0  0  0  0  0  0
  -28.4818  -24.7841   19.8076 H   0  0  0  0  0  0
  -29.4371  -14.6342   22.1559 H   0  0  0  0  0  0
  -32.0915  -24.9399   22.3576 H   0  0  0  0  0  0
  -34.5175  -16.3123   22.6701 H   0  0  0  0  0  0
  1 25  1  0  0  0
  1 30  2  0  0  0
  1 94  1  0  0  0
  2  3  1  0  0  0
  2 25  1  0  0  0
  2 99  1  0  0  0
  2100  1  0  0  0
  3  4  1  0  0  0
  3101  1  0  0  0
  3102  1  0  0  0
  4  5  1  0  0  0
  4103  1  0  0  0
  4104  1  0  0  0
  5  6  1  0  0  0
  5 26  1  0  0  0
  5105  1  0  0  0
  6 25  1  0  0  0
  6106  1  0  0  0
  6107  1  0  0  0
  7  8  2  0  0  0
  7 26  1  0  0  0
  7 29  1  0  0  0
  8  9  1  0  0  0
  8 22  1  0  0  0
  9 10  1  0  0  0
  9 27  2  0  0  0
 10 11  2  0  0  0
 10 15  1  0  0  0
 11 12  1  0  0  0
 11108  1  0  0  0
 12 13  2  0  0  0
 12109  1  0  0  0
 13 14  1  0  0  0
 13 31  1  0  0  0
 14 15  2  0  0  0
 14110  1  0  0  0
 15111  1  0  0  0
 16 17  2  0  0  0
 16 21  1  0  0  0
 16 31  1  0  0  0
 17 18  1  0  0  0
 17112  1  0  0  0
 18 19  2  0  0  0
 18113  1  0  0  0
 19 20  1  0  0  0
 19 24  1  0  0  0
 20 21  2  0  0  0
 20114  1  0  0  0
 21 23  1  0  0  0
 22 28  1  0  0  0
 22 32  2  0  0  0
 26 27  1  0  0  0
 28115  1  0  0  0
 28116  1  0  0  0
 29117  1  0  0  0
 29118  1  0  0  0
 33 34  1  0  0  0
 33 66  1  0  0  0
 33 70  2  0  0  0
 34 36  1  0  0  0
 34 59  1  0  0  0
 34119  1  0  0  0
 35 44  2  0  0  0
 35 45  1  0  0  0
 35 68  1  0  0  0
 36 56  1  0  0  0
 36120  1  0  0  0
 37 39  1  0  0  0
 37 47  1  0  0  0
 37 66  1  0  0  0
 37121  1  0  0  0
 38 43  2  0  0  0
 38 46  1  0  0  0
 38 47  1  0  0  0
 39 64  1  0  0  0
 39 67  2  0  0  0
 40 52  1  0  0  0
 40 53  2  0  0  0
 40 58  1  0  0  0
 41122  1  0  0  0
 41123  1  0  0  0
 41124  1  0  0  0
 41 48  1  0  0  0
 42 43  1  0  0  0
 42 66  1  0  0  0
 42125  1  0  0  0
 42126  1  0  0  0
 43 44  1  0  0  0
 44127  1  0  0  0
 45 46  2  0  0  0
 45128  1  0  0  0
 46129  1  0  0  0
 47130  1  0  0  0
 47131  1  0  0  0
 48 56  1  0  0  0
 48 65  1  0  0  0
 48132  1  0  0  0
 49 50  1  0  0  0
 49 53  1  0  0  0
 49 64  1  0  0  0
 49133  1  0  0  0
 50 51  1  0  0  0
 50134  1  0  0  0
 50135  1  0  0  0
 51 52  1  0  0  0
 51136  1  0  0  0
 51137  1  0  0  0
 52138  1  0  0  0
 52139  1  0  0  0
 53 54  1  0  0  0
 54 55  2  0  0  0
 54140  1  0  0  0
 55 57  1  0  0  0
 55141  1  0  0  0
 56 69  2  0  0  0
 57 58  2  0  0  0
 57142  1  0  0  0
 58143  1  0  0  0
 59 60  1  0  0  0
 59 61  1  0  0  0
 59 62  1  0  0  0
 60144  1  0  0  0
 60145  1  0  0  0
 60146  1  0  0  0
 61147  1  0  0  0
 61148  1  0  0  0
 61149  1  0  0  0
 62150  1  0  0  0
 62151  1  0  0  0
 62152  1  0  0  0
 63 65  1  0  0  0
 63153  1  0  0  0
 63154  1  0  0  0
 63155  1  0  0  0
 64156  1  0  0  0
 65157  1  0  0  0
 68 92  1  0  0  0
 71 72  2  0  0  0
 71 77  1  0  0  0
 71158  1  0  0  0
 72 78  1  0  0  0
 72159  1  0  0  0
 73 75  1  0  0  0
 73 78  2  0  0  0
 73160  1  0  0  0
 74 76  2  0  0  0
 74 79  1  0  0  0
 74161  1  0  0  0
 75 76  1  0  0  0
 75 77  2  0  0  0
 76 86  1  0  0  0
 77 93  1  0  0  0
 78 94  1  0  0  0
 79 93  2  0  0  0
 79 96  1  0  0  0
 80 87  1  0  0  0
 80 95  1  0  0  0
 80 98  2  0  0  0
 81 82  1  0  0  0
 81 83  1  0  0  0
 81162  1  0  0  0
 81163  1  0  0  0
 82 84  1  0  0  0
 82164  1  0  0  0
 82165  1  0  0  0
 83 97  1  0  0  0
 83166  1  0  0  0
 83167  1  0  0  0
 84 97  1  0  0  0
 84168  1  0  0  0
 84169  1  0  0  0
 85 88  1  0  0  0
 85170  1  0  0  0
 85171  1  0  0  0
 85172  1  0  0  0
 86173  1  0  0  0
 86174  1  0  0  0
 86 97  1  0  0  0
 87 92  1  0  0  0
 87175  1  0  0  0
 87176  1  0  0  0
 88 89  1  0  0  0
 88177  1  0  0  0
 88178  1  0  0  0
 89 96  1  0  0  0
 89179  1  0  0  0
 89180  1  0  0  0
 90 91  1  0  0  0
 90 95  1  0  0  0
 90181  1  0  0  0
 90182  1  0  0  0
 91 96  1  0  0  0
 91183  1  0  0  0
 91184  1  0  0  0
 92185  1  0  0  0
 92186  1  0  0  0
 94187  1  0  0  0
 95188  1  0  0  0
 97189  1  0  0  0
M  CHG  1  97   1
M  ISO  4   1 100  68 101  92 101  94 100
M  END
> <chiral flag>
0

> <version>
0

> <s_m_source_file>
/data/baiqing/PycharmProjects/Reinvent-master-3.2/result/LINK_invent/BTK/process_docking_weight1_custom_product_contain_oxygen_bond_distance_aromatic_linkinvent_7_9_3/rearranged_h_0005.sdf

> <i_m_source_file_index>
83

> <r_mmod_Potential_Energy-OPLS-2005>
-479.550720214844

> <r_mmod_Stretch_Energy-OPLS-2005>
34.538402557373

> <r_mmod_Bend_Energy-OPLS-2005>
132.062133789062

> <r_mmod_Torsional_Energy-OPLS-2005>
292.604583740234

> <r_mmod_Improper_Torsional_Energy-OPLS-2005>
6.69114923477173

> <r_mmod_Van_der_Waal_Energy-OPLS-2005>
175.449600219727

> <r_mmod_Electrostatic_Energy-OPLS-2005>
-652.844177246094

> <r_mmod_Solvation_Energy-OPLS-2005>
-475.955688476562

> <b_mmod_Minimization_Converged-OPLS-2005>
0

> <r_mmod_RMS_Derivative-OPLS-2005>
2.08658456802368

$$$$
86
                    3D
 Structure written by MMmdl.
158167  0  0  1  0            999 V2000
  -30.6172  -14.7509   20.4374 C   0  0  0  0  0  0
  -30.4320  -12.4488   19.4939 C   0  0  0  0  0  0
  -29.5218  -12.5089   18.2470 C   0  0  0  0  0  0
  -28.0459  -12.3318   18.6525 C   0  0  0  0  0  0
  -27.6469  -13.2354   19.8503 C   0  0  2  0  0  0
  -28.6861  -13.1743   20.9936 C   0  0  0  0  0  0
  -25.2532  -13.8203   20.5677 C   0  0  0  0  0  0
  -24.1818  -13.0447   20.9185 C   0  0  0  0  0  0
  -24.6410  -11.6920   20.8715 C   0  0  0  0  0  0
  -23.9072  -10.4299   21.0395 C   0  0  0  0  0  0
  -24.3620   -9.4214   21.9170 C   0  0  0  0  0  0
  -23.6294   -8.2248   22.0737 C   0  0  0  0  0  0
  -22.4276   -8.0281   21.3528 C   0  0  0  0  0  0
  -21.9917   -9.0260   20.4640 C   0  0  0  0  0  0
  -22.7248  -10.2140   20.3048 C   0  0  0  0  0  0
  -21.6853   -6.0730   22.5280 C   0  0  0  0  0  0
  -21.4013   -6.5625   23.8215 C   0  0  0  0  0  0
  -21.3666   -5.6775   24.9171 C   0  0  0  0  0  0
  -21.6047   -4.3035   24.7223 C   0  0  0  0  0  0
  -21.8819   -3.8133   23.4335 C   0  0  0  0  0  0
  -21.9196   -4.6956   22.3397 C   0  0  0  0  0  0
  -22.7836  -13.5235   21.1837 C   0  0  0  0  0  0
  -22.1668   -4.2145   21.0969 F   0  0  0  0  0  0
  -21.5645   -3.4522   25.7735 F   0  0  0  0  0  0
  -29.9966  -13.5190   20.4247 N   0  0  0  0  0  0
  -26.2963  -12.9422   20.3242 N   0  0  0  0  0  0
  -25.9344  -11.6562   20.5705 N   0  0  0  0  0  0
  -22.0453  -12.8238   22.0386 N   0  0  0  0  0  0
  -25.4211  -15.1928   20.4118 N   0  0  0  0  0  0
  -31.7897  -14.8414   20.0585 O   0  0  0  0  0  0
  -21.6624   -6.8881   21.4246 O   0  0  0  0  0  0
  -22.3513  -14.5534   20.6676 O   0  0  0  0  0  0
  -24.6298  -31.8546   23.1979 C   0  0  0  0  0  0
  -25.9116  -32.4771   23.8306 C   0  0  1  0  0  0
  -27.2269  -27.2572   20.1307 C   0  0  0  0  0  0
  -25.5910  -33.8561   24.2255 N   0  0  0  0  0  0
  -23.4285  -30.4776   21.5399 C   0  0  2  0  0  0
  -24.8773  -28.9207   20.1103 C   0  0  0  0  0  0
  -22.7515  -29.4615   22.4923 C   0  0  0  0  0  0
  -18.0303  -28.1372   22.8530 C   0  0  0  0  0  0
  -24.1480  -36.7261   23.2642 C   0  0  0  0  0  0
  -25.9739  -30.7663   21.3802 C   0  0  0  0  0  0
  -26.0480  -29.3882   20.7215 C   0  0  0  0  0  0
  -27.2206  -28.5669   20.7235 C   0  0  0  0  0  0
  -26.0362  -26.8646   19.4780 C   0  0  0  0  0  0
  -24.8774  -27.6670   19.4784 C   0  0  0  0  0  0
  -23.6483  -29.8096   20.1567 C   0  0  0  0  0  0
  -25.4109  -36.3085   24.0352 C   0  0  1  0  0  0
  -20.5917  -28.3676   23.1302 C   0  0  2  0  0  0
  -20.6784  -26.9390   22.5434 C   0  0  0  0  0  0
  -19.5741  -26.6383   21.5241 C   0  0  0  0  0  0
  -18.1930  -26.7930   22.1650 C   0  0  0  0  0  0
  -19.1558  -28.8837   23.2920 C   0  0  0  0  0  0
  -18.9473  -30.1449   23.8924 C   0  0  0  0  0  0
  -17.6469  -30.6588   24.0560 C   0  0  0  0  0  0
  -25.9053  -34.9456   23.5118 C   0  0  0  0  0  0
  -16.5362  -29.9089   23.6326 C   0  0  0  0  0  0
  -16.7292  -28.6487   23.0395 C   0  0  0  0  0  0
  -26.4461  -31.6604   25.0699 C   0  0  0  0  0  0
  -25.3716  -31.3773   26.1467 C   0  0  0  0  0  0
  -27.0263  -30.3022   24.6156 C   0  0  0  0  0  0
  -27.6002  -32.4366   25.7458 C   0  0  0  0  0  0
  -27.5589  -37.1792   24.8467 C   0  0  0  0  0  0
  -21.4216  -29.3033   22.3675 N   0  0  0  0  0  0
  -26.4274  -37.3796   23.9446 N   0  0  0  0  0  0
  -24.6956  -31.0523   22.0946 N   0  0  0  0  0  0
  -23.4230  -28.8179   23.3018 O   0  0  0  0  0  0
  -28.3301  -26.3708   20.2113 O   0  0  0  0  0  0
  -26.5615  -34.8923   22.4684 O   0  0  0  0  0  0
  -23.5459  -32.1333   23.7319 O   0  0  0  0  0  0
  -29.9450  -18.4367   17.9199 C   0  0  0  0  0  0
  -29.6041  -19.6582   18.5339 C   0  0  0  0  0  0
  -30.0917  -17.2522   18.6646 C   0  0  0  0  0  0
  -29.5601  -18.5143   20.6759 C   0  0  0  0  0  0
  -29.4389  -19.7720   19.9336 C   0  0  0  0  0  0
  -29.8860  -17.2262   20.0628 C   0  0  0  0  0  0
  -29.0071  -21.1527   20.5549 C   0  0  0  0  0  0
  -31.2353  -23.8737   19.4549 C   0  0  0  0  0  0
  -30.5748  -24.3604   20.7333 C   0  0  0  0  0  0
  -30.5631  -22.5300   19.1603 C   0  0  0  0  0  0
  -29.1518  -23.8039   20.6449 C   0  0  1  0  0  0
  -28.2019  -24.8967   19.9022 C   0  0  0  0  0  0
  -29.3853  -22.4040   20.0384 N   0  0  0  0  0  0
  -29.8878  -15.8976   20.7388 N   0  0  0  0  0  0
  -28.2996  -21.0996   21.5650 O   0  0  0  0  0  0
  -31.4801  -12.5498   19.2057 H   0  0  0  0  0  0
  -30.3543  -11.4725   19.9758 H   0  0  0  0  0  0
  -29.8128  -11.7403   17.5301 H   0  0  0  0  0  0
  -29.6548  -13.4648   17.7370 H   0  0  0  0  0  0
  -27.9043  -11.2840   18.9207 H   0  0  0  0  0  0
  -27.3932  -12.5200   17.7990 H   0  0  0  0  0  0
  -27.6436  -14.2556   19.4640 H   0  0  0  0  0  0
  -28.7161  -12.1813   21.4447 H   0  0  0  0  0  0
  -28.4118  -13.8647   21.7929 H   0  0  0  0  0  0
  -25.2771   -9.5704   22.4733 H   0  0  0  0  0  0
  -24.0017   -7.4642   22.7457 H   0  0  0  0  0  0
  -21.0844   -8.8798   19.8944 H   0  0  0  0  0  0
  -22.3714  -10.9682   19.6151 H   0  0  0  0  0  0
  -21.1987   -7.6133   23.9730 H   0  0  0  0  0  0
  -21.1497   -6.0482   25.9081 H   0  0  0  0  0  0
  -22.0590   -2.7600   23.2822 H   0  0  0  0  0  0
  -22.4065  -11.9926   22.4831 H   0  0  0  0  0  0
  -21.1074  -13.1293   22.2565 H   0  0  0  0  0  0
  -24.6479  -15.8411   20.5141 H   0  0  0  0  0  0
  -26.2710  -15.6396   20.0914 H   0  0  0  0  0  0
  -26.7192  -32.5428   23.1046 H   0  0  0  0  0  0
  -25.0063  -33.9672   25.0414 H   0  0  0  0  0  0
  -22.7262  -31.3014   21.3973 H   0  0  0  0  0  0
  -23.3774  -35.9557   23.3279 H   0  0  0  0  0  0
  -24.3590  -36.8898   22.2062 H   0  0  0  0  0  0
  -23.7184  -37.6439   23.6656 H   0  0  0  0  0  0
  -26.1221  -31.5314   20.6170 H   0  0  0  0  0  0
  -26.8469  -30.8096   22.0181 H   0  0  0  0  0  0
  -28.1107  -28.9187   21.2268 H   0  0  0  0  0  0
  -25.9708  -25.9135   18.9719 H   0  0  0  0  0  0
  -23.9855  -27.3045   18.9864 H   0  0  0  0  0  0
  -23.7760  -30.5834   19.3986 H   0  0  0  0  0  0
  -22.7647  -29.2467   19.8512 H   0  0  0  0  0  0
  -25.1309  -36.1905   25.0847 H   0  0  0  0  0  0
  -21.0025  -28.3227   24.1417 H   0  0  0  0  0  0
  -20.5688  -26.2271   23.3639 H   0  0  0  0  0  0
  -21.6654  -26.7426   22.1221 H   0  0  0  0  0  0
  -19.6878  -25.6303   21.1252 H   0  0  0  0  0  0
  -19.6660  -27.3207   20.6780 H   0  0  0  0  0  0
  -17.4217  -26.6728   21.4029 H   0  0  0  0  0  0
  -18.0280  -26.0056   22.9019 H   0  0  0  0  0  0
  -19.7948  -30.7263   24.2304 H   0  0  0  0  0  0
  -17.5028  -31.6279   24.5149 H   0  0  0  0  0  0
  -15.5367  -30.2998   23.7626 H   0  0  0  0  0  0
  -15.8699  -28.0798   22.7127 H   0  0  0  0  0  0
  -24.5833  -30.7162   25.7841 H   0  0  0  0  0  0
  -24.8953  -32.2949   26.4936 H   0  0  0  0  0  0
  -25.8082  -30.8928   27.0217 H   0  0  0  0  0  0
  -26.2788  -29.6837   24.1162 H   0  0  0  0  0  0
  -27.3927  -29.7234   25.4643 H   0  0  0  0  0  0
  -27.8710  -30.4307   23.9382 H   0  0  0  0  0  0
  -27.2567  -33.3676   26.1987 H   0  0  0  0  0  0
  -28.3801  -32.6942   25.0275 H   0  0  0  0  0  0
  -28.0649  -31.8523   26.5410 H   0  0  0  0  0  0
  -28.2616  -38.0084   24.7600 H   0  0  0  0  0  0
  -28.1099  -36.2653   24.6216 H   0  0  0  0  0  0
  -27.2342  -37.1370   25.8870 H   0  0  0  0  0  0
  -20.9371  -29.8745   21.6895 H   0  0  0  0  0  0
  -26.0164  -38.2872   24.1461 H   0  0  0  0  0  0
  -30.0704  -18.4039   16.8456 H   0  0  0  0  0  0
  -29.4491  -20.5117   17.8923 H   0  0  0  0  0  0
  -30.3189  -16.3421   18.1263 H   0  0  0  0  0  0
  -29.3782  -18.5439   21.7412 H   0  0  0  0  0  0
  -32.3199  -23.7849   19.5519 H   0  0  0  0  0  0
  -31.0408  -24.5790   18.6447 H   0  0  0  0  0  0
  -30.6201  -25.4434   20.8523 H   0  0  0  0  0  0
  -31.0830  -23.9192   21.5929 H   0  0  0  0  0  0
  -31.2808  -21.7274   19.3391 H   0  0  0  0  0  0
  -30.2730  -22.4953   18.1103 H   0  0  0  0  0  0
  -28.7765  -23.6905   21.6629 H   0  0  0  0  0  0
  -27.1830  -24.5676   20.1040 H   0  0  0  0  0  0
  -28.3379  -24.8001   18.8239 H   0  0  0  0  0  0
  -29.0856  -15.7319   21.3286 H   0  0  0  0  0  0
  1 25  1  0  0  0
  1 30  2  0  0  0
  1 84  1  0  0  0
  2  3  1  0  0  0
  2 25  1  0  0  0
  2 86  1  0  0  0
  2 87  1  0  0  0
  3  4  1  0  0  0
  3 88  1  0  0  0
  3 89  1  0  0  0
  4  5  1  0  0  0
  4 90  1  0  0  0
  4 91  1  0  0  0
  5  6  1  0  0  0
  5 26  1  0  0  0
  5 92  1  0  0  0
  6 25  1  0  0  0
  6 93  1  0  0  0
  6 94  1  0  0  0
  7  8  2  0  0  0
  7 26  1  0  0  0
  7 29  1  0  0  0
  8  9  1  0  0  0
  8 22  1  0  0  0
  9 10  1  0  0  0
  9 27  2  0  0  0
 10 11  2  0  0  0
 10 15  1  0  0  0
 11 12  1  0  0  0
 11 95  1  0  0  0
 12 13  2  0  0  0
 12 96  1  0  0  0
 13 14  1  0  0  0
 13 31  1  0  0  0
 14 15  2  0  0  0
 14 97  1  0  0  0
 15 98  1  0  0  0
 16 17  2  0  0  0
 16 21  1  0  0  0
 16 31  1  0  0  0
 17 18  1  0  0  0
 17 99  1  0  0  0
 18 19  2  0  0  0
 18100  1  0  0  0
 19 20  1  0  0  0
 19 24  1  0  0  0
 20 21  2  0  0  0
 20101  1  0  0  0
 21 23  1  0  0  0
 22 28  1  0  0  0
 22 32  2  0  0  0
 26 27  1  0  0  0
 28102  1  0  0  0
 28103  1  0  0  0
 29104  1  0  0  0
 29105  1  0  0  0
 33 34  1  0  0  0
 33 66  1  0  0  0
 33 70  2  0  0  0
 34 36  1  0  0  0
 34 59  1  0  0  0
 34106  1  0  0  0
 35 44  2  0  0  0
 35 45  1  0  0  0
 35 68  1  0  0  0
 36 56  1  0  0  0
 36107  1  0  0  0
 37 39  1  0  0  0
 37 47  1  0  0  0
 37 66  1  0  0  0
 37108  1  0  0  0
 38 43  2  0  0  0
 38 46  1  0  0  0
 38 47  1  0  0  0
 39 64  1  0  0  0
 39 67  2  0  0  0
 40 52  1  0  0  0
 40 53  2  0  0  0
 40 58  1  0  0  0
 41109  1  0  0  0
 41110  1  0  0  0
 41111  1  0  0  0
 41 48  1  0  0  0
 42 43  1  0  0  0
 42 66  1  0  0  0
 42112  1  0  0  0
 42113  1  0  0  0
 43 44  1  0  0  0
 44114  1  0  0  0
 45 46  2  0  0  0
 45115  1  0  0  0
 46116  1  0  0  0
 47117  1  0  0  0
 47118  1  0  0  0
 48 56  1  0  0  0
 48 65  1  0  0  0
 48119  1  0  0  0
 49 50  1  0  0  0
 49 53  1  0  0  0
 49 64  1  0  0  0
 49120  1  0  0  0
 50 51  1  0  0  0
 50121  1  0  0  0
 50122  1  0  0  0
 51 52  1  0  0  0
 51123  1  0  0  0
 51124  1  0  0  0
 52125  1  0  0  0
 52126  1  0  0  0
 53 54  1  0  0  0
 54 55  2  0  0  0
 54127  1  0  0  0
 55 57  1  0  0  0
 55128  1  0  0  0
 56 69  2  0  0  0
 57 58  2  0  0  0
 57129  1  0  0  0
 58130  1  0  0  0
 59 60  1  0  0  0
 59 61  1  0  0  0
 59 62  1  0  0  0
 60131  1  0  0  0
 60132  1  0  0  0
 60133  1  0  0  0
 61134  1  0  0  0
 61135  1  0  0  0
 61136  1  0  0  0
 62137  1  0  0  0
 62138  1  0  0  0
 62139  1  0  0  0
 63 65  1  0  0  0
 63140  1  0  0  0
 63141  1  0  0  0
 63142  1  0  0  0
 64143  1  0  0  0
 65144  1  0  0  0
 68 82  1  0  0  0
 71 72  2  0  0  0
 71 73  1  0  0  0
 71145  1  0  0  0
 72 75  1  0  0  0
 72146  1  0  0  0
 73 76  2  0  0  0
 73147  1  0  0  0
 74 75  2  0  0  0
 74 76  1  0  0  0
 74148  1  0  0  0
 75 77  1  0  0  0
 76 84  1  0  0  0
 77 83  1  0  0  0
 77 85  2  0  0  0
 78 79  1  0  0  0
 78 80  1  0  0  0
 78149  1  0  0  0
 78150  1  0  0  0
 79 81  1  0  0  0
 79151  1  0  0  0
 79152  1  0  0  0
 80 83  1  0  0  0
 80153  1  0  0  0
 80154  1  0  0  0
 81 82  1  0  0  0
 81 83  1  0  0  0
 81155  1  0  0  0
 82156  1  0  0  0
 82157  1  0  0  0
 84158  1  0  0  0
M  ISO  4   1 100  68 101  82 101  84 100
M  END
> <chiral flag>
0

> <version>
0

> <s_m_source_file>
/data/baiqing/PycharmProjects/Reinvent-master-3.2/result/LINK_invent/BTK/process_docking_weight1_custom_product_contain_oxygen_bond_distance_aromatic_linkinvent_7_9_3/rearranged_h_0005.sdf

> <i_m_source_file_index>
84

> <r_mmod_Potential_Energy-OPLS-2005>
335.264831542969

> <r_mmod_Stretch_Energy-OPLS-2005>
140.065719604492

> <r_mmod_Bend_Energy-OPLS-2005>
191.08512878418

> <r_mmod_Torsional_Energy-OPLS-2005>
342.160400390625

> <r_mmod_Improper_Torsional_Energy-OPLS-2005>
6.79321002960205

> <r_mmod_Van_der_Waal_Energy-OPLS-2005>
141.992935180664

> <r_mmod_Electrostatic_Energy-OPLS-2005>
-347.476745605469

> <r_mmod_Solvation_Energy-OPLS-2005>
-226.892684936523

> <b_mmod_Minimization_Converged-OPLS-2005>
0

> <r_mmod_RMS_Derivative-OPLS-2005>
3.16797733306885

$$$$
87
                    3D
 Structure written by MMmdl.
163172  0  0  1  0            999 V2000
  -30.7037  -14.5300   20.4889 C   0  0  0  0  0  0
  -30.4267  -12.3194   19.4354 C   0  0  0  0  0  0
  -29.4929  -12.4349   18.2124 C   0  0  0  0  0  0
  -28.0162  -12.2946   18.6357 C   0  0  0  0  0  0
  -27.6468  -13.1727   19.8594 C   0  0  2  0  0  0
  -28.7032  -13.0670   20.9850 C   0  0  0  0  0  0
  -25.2603  -13.8053   20.5715 C   0  0  0  0  0  0
  -24.1822  -13.0386   20.9201 C   0  0  0  0  0  0
  -24.6336  -11.6838   20.8781 C   0  0  0  0  0  0
  -23.8998  -10.4252   21.0436 C   0  0  0  0  0  0
  -24.3574   -9.4171   21.9201 C   0  0  0  0  0  0
  -23.6258   -8.2205   22.0751 C   0  0  0  0  0  0
  -22.4243   -8.0253   21.3540 C   0  0  0  0  0  0
  -21.9870   -9.0231   20.4650 C   0  0  0  0  0  0
  -22.7188  -10.2114   20.3065 C   0  0  0  0  0  0
  -21.6840   -6.0717   22.5273 C   0  0  0  0  0  0
  -21.4014   -6.5628   23.8209 C   0  0  0  0  0  0
  -21.3653   -5.6785   24.9177 C   0  0  0  0  0  0
  -21.6038   -4.3047   24.7230 C   0  0  0  0  0  0
  -21.8826   -3.8133   23.4351 C   0  0  0  0  0  0
  -21.9191   -4.6947   22.3400 C   0  0  0  0  0  0
  -22.7858  -13.5231   21.1839 C   0  0  0  0  0  0
  -22.1662   -4.2137   21.0975 F   0  0  0  0  0  0
  -21.5624   -3.4533   25.7745 F   0  0  0  0  0  0
  -30.0213  -13.3521   20.4019 N   0  0  0  0  0  0
  -26.2966  -12.9124   20.3389 N   0  0  0  0  0  0
  -25.9249  -11.6335   20.5854 N   0  0  0  0  0  0
  -22.0478  -12.8236   22.0387 N   0  0  0  0  0  0
  -25.4406  -15.1765   20.4124 N   0  0  0  0  0  0
  -31.8946  -14.6220   20.1816 O   0  0  0  0  0  0
  -21.6612   -6.8851   21.4231 O   0  0  0  0  0  0
  -22.3576  -14.5553   20.6691 O   0  0  0  0  0  0
  -24.6092  -31.8700   23.2131 C   0  0  0  0  0  0
  -25.9003  -32.4838   23.8414 C   0  0  1  0  0  0
  -27.2537  -27.4567   20.1181 C   0  0  0  0  0  0
  -25.5872  -33.8637   24.2347 N   0  0  0  0  0  0
  -23.3985  -30.4899   21.5508 C   0  0  2  0  0  0
  -24.8529  -28.9575   20.1172 C   0  0  0  0  0  0
  -22.7383  -29.4657   22.5009 C   0  0  0  0  0  0
  -18.0262  -28.1366   22.8487 C   0  0  0  0  0  0
  -24.1483  -36.7322   23.2631 C   0  0  0  0  0  0
  -25.9216  -30.8435   21.3642 C   0  0  0  0  0  0
  -26.0046  -29.4766   20.7206 C   0  0  0  0  0  0
  -27.2037  -28.7331   20.7292 C   0  0  0  0  0  0
  -26.0912  -26.9570   19.4965 C   0  0  0  0  0  0
  -24.8888  -27.6929   19.5028 C   0  0  0  0  0  0
  -23.6086  -29.8160   20.1666 C   0  0  0  0  0  0
  -25.4100  -36.3123   24.0340 C   0  0  1  0  0  0
  -20.5851  -28.3648   23.1325 C   0  0  2  0  0  0
  -20.6760  -26.9390   22.5417 C   0  0  0  0  0  0
  -19.5744  -26.6379   21.5203 C   0  0  0  0  0  0
  -18.1918  -26.7913   22.1613 C   0  0  0  0  0  0
  -19.1510  -28.8826   23.2904 C   0  0  0  0  0  0
  -18.9441  -30.1431   23.8912 C   0  0  0  0  0  0
  -17.6445  -30.6578   24.0560 C   0  0  0  0  0  0
  -25.9019  -34.9488   23.5145 C   0  0  0  0  0  0
  -16.5332  -29.9077   23.6325 C   0  0  0  0  0  0
  -16.7254  -28.6492   23.0350 C   0  0  0  0  0  0
  -26.4458  -31.6603   25.0720 C   0  0  0  0  0  0
  -25.3753  -31.3697   26.1491 C   0  0  0  0  0  0
  -27.0269  -30.3047   24.6065 C   0  0  0  0  0  0
  -27.6049  -32.4322   25.7465 C   0  0  0  0  0  0
  -27.5594  -37.1795   24.8448 C   0  0  0  0  0  0
  -21.4116  -29.3020   22.3735 N   0  0  0  0  0  0
  -26.4285  -37.3810   23.9421 N   0  0  0  0  0  0
  -24.6606  -31.0818   22.1016 N   0  0  0  0  0  0
  -23.4161  -28.8207   23.3052 O   0  0  0  0  0  0
  -28.3798  -26.6588   20.0917 O   0  0  0  0  0  0
  -26.5580  -34.8931   22.4703 O   0  0  0  0  0  0
  -23.5290  -32.1440   23.7539 O   0  0  0  0  0  0
  -31.1862  -18.3804   22.8859 C   0  0  0  0  0  0
  -30.8406  -17.0612   22.4869 C   0  0  0  0  0  0
  -30.6565  -19.2418   20.6580 C   0  0  0  0  0  0
  -30.2990  -17.9366   20.2918 C   0  0  0  0  0  0
  -31.0945  -19.4739   21.9800 C   0  0  0  0  0  0
  -30.3907  -16.8551   21.1661 C   0  0  0  0  0  0
  -29.7883  -17.5104   18.9581 C   0  0  0  0  0  0
  -29.3014  -16.0887   19.2685 C   0  0  0  0  0  0
  -31.5057  -20.8906   22.3825 C   0  0  0  0  0  0
  -29.7762  -24.2935   21.6503 C   0  0  0  0  0  0
  -30.3350  -25.6628   21.1950 C   0  0  0  0  0  0
  -30.9049  -23.2561   21.8858 C   0  0  0  0  0  0
  -29.3181  -26.8223   21.1540 C   0  0  0  0  0  0
  -29.9441  -15.6590   20.5315 N   0  0  0  0  0  0
  -30.4219  -21.8819   22.1746 N   0  3  0  0  0  0
  -31.4663  -12.4245   19.1201 H   0  0  0  0  0  0
  -30.3494  -11.3298   19.8889 H   0  0  0  0  0  0
  -29.7404  -11.6623   17.4838 H   0  0  0  0  0  0
  -29.6526  -13.3803   17.6976 H   0  0  0  0  0  0
  -27.8447  -11.2439   18.8754 H   0  0  0  0  0  0
  -27.3586  -12.5203   17.7959 H   0  0  0  0  0  0
  -27.6296  -14.1831   19.4829 H   0  0  0  0  0  0
  -28.6997  -12.0677   21.4231 H   0  0  0  0  0  0
  -28.4746  -13.7583   21.7982 H   0  0  0  0  0  0
  -25.2730   -9.5642   22.4763 H   0  0  0  0  0  0
  -23.9980   -7.4583   22.7447 H   0  0  0  0  0  0
  -21.0809   -8.8741   19.8950 H   0  0  0  0  0  0
  -22.3653  -10.9653   19.6167 H   0  0  0  0  0  0
  -21.2009   -7.6138   23.9712 H   0  0  0  0  0  0
  -21.1465   -6.0515   25.9081 H   0  0  0  0  0  0
  -22.0613   -2.7594   23.2853 H   0  0  0  0  0  0
  -22.4079  -11.9884   22.4763 H   0  0  0  0  0  0
  -21.1107  -13.1272   22.2612 H   0  0  0  0  0  0
  -24.6868  -15.8447   20.5326 H   0  0  0  0  0  0
  -26.3135  -15.6083   20.1383 H   0  0  0  0  0  0
  -26.7073  -32.5578   23.1183 H   0  0  0  0  0  0
  -25.0046  -33.9815   25.0508 H   0  0  0  0  0  0
  -22.6852  -31.3041   21.4094 H   0  0  0  0  0  0
  -23.3751  -35.9648   23.3296 H   0  0  0  0  0  0
  -24.3592  -36.8934   22.2046 H   0  0  0  0  0  0
  -23.7232  -37.6528   23.6643 H   0  0  0  0  0  0
  -26.0268  -31.6078   20.5934 H   0  0  0  0  0  0
  -26.8109  -30.9057   21.9796 H   0  0  0  0  0  0
  -28.0782  -29.1513   21.2053 H   0  0  0  0  0  0
  -26.1141  -25.9856   19.0227 H   0  0  0  0  0  0
  -24.0047  -27.2838   19.0332 H   0  0  0  0  0  0
  -23.7067  -30.5867   19.4007 H   0  0  0  0  0  0
  -22.7373  -29.2248   19.8789 H   0  0  0  0  0  0
  -25.1270  -36.1993   25.0830 H   0  0  0  0  0  0
  -20.9936  -28.3215   24.1448 H   0  0  0  0  0  0
  -20.5665  -26.2247   23.3592 H   0  0  0  0  0  0
  -21.6635  -26.7448   22.1211 H   0  0  0  0  0  0
  -19.6913  -25.6296   21.1223 H   0  0  0  0  0  0
  -19.6686  -27.3198   20.6741 H   0  0  0  0  0  0
  -17.4189  -26.6655   21.4015 H   0  0  0  0  0  0
  -18.0322  -26.0051   22.9005 H   0  0  0  0  0  0
  -19.7919  -30.7238   24.2291 H   0  0  0  0  0  0
  -17.5005  -31.6263   24.5142 H   0  0  0  0  0  0
  -15.5338  -30.2982   23.7650 H   0  0  0  0  0  0
  -15.8650  -28.0811   22.7073 H   0  0  0  0  0  0
  -24.5892  -30.7083   25.7835 H   0  0  0  0  0  0
  -24.8980  -32.2848   26.5009 H   0  0  0  0  0  0
  -25.8122  -30.8811   27.0209 H   0  0  0  0  0  0
  -26.2783  -29.6829   24.1140 H   0  0  0  0  0  0
  -27.4063  -29.7267   25.4501 H   0  0  0  0  0  0
  -27.8617  -30.4364   23.9179 H   0  0  0  0  0  0
  -27.2669  -33.3605   26.2093 H   0  0  0  0  0  0
  -28.3817  -32.6925   25.0261 H   0  0  0  0  0  0
  -28.0767  -31.8426   26.5336 H   0  0  0  0  0  0
  -28.2563  -38.0141   24.7585 H   0  0  0  0  0  0
  -28.1136  -36.2683   24.6157 H   0  0  0  0  0  0
  -27.2327  -37.1313   25.8849 H   0  0  0  0  0  0
  -20.9269  -29.8710   21.6938 H   0  0  0  0  0  0
  -26.0180  -38.2876   24.1487 H   0  0  0  0  0  0
  -31.5370  -18.5455   23.8960 H   0  0  0  0  0  0
  -30.9093  -16.2418   23.1882 H   0  0  0  0  0  0
  -30.5970  -20.0418   19.9332 H   0  0  0  0  0  0
  -30.6047  -17.5083   18.2348 H   0  0  0  0  0  0
  -28.9891  -18.1564   18.5943 H   0  0  0  0  0  0
  -29.4463  -15.4244   18.4177 H   0  0  0  0  0  0
  -28.2325  -16.1699   19.4595 H   0  0  0  0  0  0
  -32.3781  -21.1563   21.7827 H   0  0  0  0  0  0
  -31.8294  -20.9213   23.4236 H   0  0  0  0  0  0
  -29.0735  -23.9272   20.9005 H   0  0  0  0  0  0
  -29.2061  -24.4202   22.5716 H   0  0  0  0  0  0
  -30.8106  -25.5658   20.2184 H   0  0  0  0  0  0
  -31.1311  -25.9513   21.8829 H   0  0  0  0  0  0
  -31.5399  -23.5894   22.7082 H   0  0  0  0  0  0
  -31.5406  -23.2199   21.0001 H   0  0  0  0  0  0
  -29.8626  -27.7555   21.0006 H   0  0  0  0  0  0
  -28.8086  -26.8965   22.1174 H   0  0  0  0  0  0
  -29.8365  -21.8817   22.9938 H   0  0  0  0  0  0
  -29.8642  -21.5642   21.4000 H   0  0  0  0  0  0
  1 25  1  0  0  0
  1 30  2  0  0  0
  1 84  1  0  0  0
  2  3  1  0  0  0
  2 25  1  0  0  0
  2 86  1  0  0  0
  2 87  1  0  0  0
  3  4  1  0  0  0
  3 88  1  0  0  0
  3 89  1  0  0  0
  4  5  1  0  0  0
  4 90  1  0  0  0
  4 91  1  0  0  0
  5  6  1  0  0  0
  5 26  1  0  0  0
  5 92  1  0  0  0
  6 25  1  0  0  0
  6 93  1  0  0  0
  6 94  1  0  0  0
  7  8  2  0  0  0
  7 26  1  0  0  0
  7 29  1  0  0  0
  8  9  1  0  0  0
  8 22  1  0  0  0
  9 10  1  0  0  0
  9 27  2  0  0  0
 10 11  2  0  0  0
 10 15  1  0  0  0
 11 12  1  0  0  0
 11 95  1  0  0  0
 12 13  2  0  0  0
 12 96  1  0  0  0
 13 14  1  0  0  0
 13 31  1  0  0  0
 14 15  2  0  0  0
 14 97  1  0  0  0
 15 98  1  0  0  0
 16 17  2  0  0  0
 16 21  1  0  0  0
 16 31  1  0  0  0
 17 18  1  0  0  0
 17 99  1  0  0  0
 18 19  2  0  0  0
 18100  1  0  0  0
 19 20  1  0  0  0
 19 24  1  0  0  0
 20 21  2  0  0  0
 20101  1  0  0  0
 21 23  1  0  0  0
 22 28  1  0  0  0
 22 32  2  0  0  0
 26 27  1  0  0  0
 28102  1  0  0  0
 28103  1  0  0  0
 29104  1  0  0  0
 29105  1  0  0  0
 33 34  1  0  0  0
 33 66  1  0  0  0
 33 70  2  0  0  0
 34 36  1  0  0  0
 34 59  1  0  0  0
 34106  1  0  0  0
 35 44  2  0  0  0
 35 45  1  0  0  0
 35 68  1  0  0  0
 36 56  1  0  0  0
 36107  1  0  0  0
 37 39  1  0  0  0
 37 47  1  0  0  0
 37 66  1  0  0  0
 37108  1  0  0  0
 38 43  2  0  0  0
 38 46  1  0  0  0
 38 47  1  0  0  0
 39 64  1  0  0  0
 39 67  2  0  0  0
 40 52  1  0  0  0
 40 53  2  0  0  0
 40 58  1  0  0  0
 41109  1  0  0  0
 41110  1  0  0  0
 41111  1  0  0  0
 41 48  1  0  0  0
 42 43  1  0  0  0
 42 66  1  0  0  0
 42112  1  0  0  0
 42113  1  0  0  0
 43 44  1  0  0  0
 44114  1  0  0  0
 45 46  2  0  0  0
 45115  1  0  0  0
 46116  1  0  0  0
 47117  1  0  0  0
 47118  1  0  0  0
 48 56  1  0  0  0
 48 65  1  0  0  0
 48119  1  0  0  0
 49 50  1  0  0  0
 49 53  1  0  0  0
 49 64  1  0  0  0
 49120  1  0  0  0
 50 51  1  0  0  0
 50121  1  0  0  0
 50122  1  0  0  0
 51 52  1  0  0  0
 51123  1  0  0  0
 51124  1  0  0  0
 52125  1  0  0  0
 52126  1  0  0  0
 53 54  1  0  0  0
 54 55  2  0  0  0
 54127  1  0  0  0
 55 57  1  0  0  0
 55128  1  0  0  0
 56 69  2  0  0  0
 57 58  2  0  0  0
 57129  1  0  0  0
 58130  1  0  0  0
 59 60  1  0  0  0
 59 61  1  0  0  0
 59 62  1  0  0  0
 60131  1  0  0  0
 60132  1  0  0  0
 60133  1  0  0  0
 61134  1  0  0  0
 61135  1  0  0  0
 61136  1  0  0  0
 62137  1  0  0  0
 62138  1  0  0  0
 62139  1  0  0  0
 63 65  1  0  0  0
 63140  1  0  0  0
 63141  1  0  0  0
 63142  1  0  0  0
 64143  1  0  0  0
 65144  1  0  0  0
 68 83  1  0  0  0
 71 72  2  0  0  0
 71 75  1  0  0  0
 71145  1  0  0  0
 72 76  1  0  0  0
 72146  1  0  0  0
 73 74  1  0  0  0
 73 75  2  0  0  0
 73147  1  0  0  0
 74 76  2  0  0  0
 74 77  1  0  0  0
 75 79  1  0  0  0
 76 84  1  0  0  0
 77 78  1  0  0  0
 77148  1  0  0  0
 77149  1  0  0  0
 78 84  1  0  0  0
 78150  1  0  0  0
 78151  1  0  0  0
 79 85  1  0  0  0
 79152  1  0  0  0
 79153  1  0  0  0
 80 81  1  0  0  0
 80 82  1  0  0  0
 80154  1  0  0  0
 80155  1  0  0  0
 81 83  1  0  0  0
 81156  1  0  0  0
 81157  1  0  0  0
 82 85  1  0  0  0
 82158  1  0  0  0
 82159  1  0  0  0
 83160  1  0  0  0
 83161  1  0  0  0
 85162  1  0  0  0
 85163  1  0  0  0
M  CHG  1  85   1
M  ISO  4   1 100  68 101  83 101  84 100
M  END
> <chiral flag>
0

> <version>
0

> <s_m_source_file>
/data/baiqing/PycharmProjects/Reinvent-master-3.2/result/LINK_invent/BTK/process_docking_weight1_custom_product_contain_oxygen_bond_distance_aromatic_linkinvent_7_9_3/rearranged_h_0005.sdf

> <i_m_source_file_index>
85

> <r_mmod_Potential_Energy-OPLS-2005>
-14.5904226303101

> <r_mmod_Stretch_Energy-OPLS-2005>
38.4881744384766

> <r_mmod_Bend_Energy-OPLS-2005>
155.688980102539

> <r_mmod_Torsional_Energy-OPLS-2005>
293.491516113281

> <r_mmod_Improper_Torsional_Energy-OPLS-2005>
15.1712484359741

> <r_mmod_Van_der_Waal_Energy-OPLS-2005>
146.026733398438

> <r_mmod_Electrostatic_Energy-OPLS-2005>
-230.679534912109

> <r_mmod_Solvation_Energy-OPLS-2005>
-456.18505859375

> <b_mmod_Minimization_Converged-OPLS-2005>
0

> <r_mmod_RMS_Derivative-OPLS-2005>
1.72508931159973

$$$$
88
                    3D
 Structure written by MMmdl.
167176  0  0  1  0            999 V2000
  -30.8468  -14.2632   20.7701 C   0  0  0  0  0  0
  -30.4057  -12.2934   19.3639 C   0  0  0  0  0  0
  -29.4645  -12.5427   18.1766 C   0  0  0  0  0  0
  -27.9988  -12.3790   18.6106 C   0  0  0  0  0  0
  -27.6635  -13.2065   19.8765 C   0  0  2  0  0  0
  -28.7023  -12.9635   20.9929 C   0  0  0  0  0  0
  -25.2583  -13.8175   20.5680 C   0  0  0  0  0  0
  -24.1834  -13.0453   20.9173 C   0  0  0  0  0  0
  -24.6398  -11.6912   20.8755 C   0  0  0  0  0  0
  -23.9078  -10.4296   21.0426 C   0  0  0  0  0  0
  -24.3628   -9.4201   21.9199 C   0  0  0  0  0  0
  -23.6292   -8.2242   22.0761 C   0  0  0  0  0  0
  -22.4272   -8.0295   21.3552 C   0  0  0  0  0  0
  -21.9920   -9.0275   20.4652 C   0  0  0  0  0  0
  -22.7262  -10.2143   20.3061 C   0  0  0  0  0  0
  -21.6852   -6.0742   22.5279 C   0  0  0  0  0  0
  -21.4013   -6.5642   23.8216 C   0  0  0  0  0  0
  -21.3654   -5.6790   24.9173 C   0  0  0  0  0  0
  -21.6038   -4.3052   24.7221 C   0  0  0  0  0  0
  -21.8818   -3.8148   23.4340 C   0  0  0  0  0  0
  -21.9193   -4.6967   22.3398 C   0  0  0  0  0  0
  -22.7857  -13.5244   21.1847 C   0  0  0  0  0  0
  -22.1658   -4.2157   21.0972 F   0  0  0  0  0  0
  -21.5628   -3.4531   25.7731 F   0  0  0  0  0  0
  -30.0537  -13.2119   20.4549 N   0  0  0  0  0  0
  -26.3028  -12.9350   20.3384 N   0  0  0  0  0  0
  -25.9320  -11.6506   20.5790 N   0  0  0  0  0  0
  -22.0495  -12.8240   22.0399 N   0  0  0  0  0  0
  -25.4327  -15.1891   20.4072 N   0  0  0  0  0  0
  -31.7666  -14.6673   20.0524 O   0  0  0  0  0  0
  -21.6636   -6.8889   21.4243 O   0  0  0  0  0  0
  -22.3545  -14.5565   20.6711 O   0  0  0  0  0  0
  -24.6115  -31.8715   23.2123 C   0  0  0  0  0  0
  -25.9030  -32.4834   23.8410 C   0  0  1  0  0  0
  -27.2429  -27.4755   20.0774 C   0  0  0  0  0  0
  -25.5911  -33.8633   24.2363 N   0  0  0  0  0  0
  -23.3966  -30.4940   21.5515 C   0  0  2  0  0  0
  -24.8428  -28.9600   20.1142 C   0  0  0  0  0  0
  -22.7377  -29.4697   22.5023 C   0  0  0  0  0  0
  -18.0255  -28.1388   22.8507 C   0  0  0  0  0  0
  -24.1501  -36.7322   23.2618 C   0  0  0  0  0  0
  -25.9188  -30.8452   21.3585 C   0  0  0  0  0  0
  -25.9981  -29.4782   20.7131 C   0  0  0  0  0  0
  -27.1954  -28.7340   20.7093 C   0  0  0  0  0  0
  -26.0655  -26.9502   19.4992 C   0  0  0  0  0  0
  -24.8671  -27.6887   19.5123 C   0  0  0  0  0  0
  -23.6008  -29.8196   20.1673 C   0  0  0  0  0  0
  -25.4109  -36.3126   24.0342 C   0  0  1  0  0  0
  -20.5843  -28.3672   23.1329 C   0  0  2  0  0  0
  -20.6755  -26.9415   22.5420 C   0  0  0  0  0  0
  -19.5727  -26.6391   21.5225 C   0  0  0  0  0  0
  -18.1901  -26.7946   22.1627 C   0  0  0  0  0  0
  -19.1504  -28.8845   23.2916 C   0  0  0  0  0  0
  -18.9435  -30.1455   23.8915 C   0  0  0  0  0  0
  -17.6438  -30.6596   24.0567 C   0  0  0  0  0  0
  -25.9034  -34.9487   23.5145 C   0  0  0  0  0  0
  -16.5328  -29.9090   23.6337 C   0  0  0  0  0  0
  -16.7242  -28.6506   23.0358 C   0  0  0  0  0  0
  -26.4457  -31.6582   25.0717 C   0  0  0  0  0  0
  -25.3735  -31.3654   26.1463 C   0  0  0  0  0  0
  -27.0241  -30.3029   24.6042 C   0  0  0  0  0  0
  -27.6066  -32.4256   25.7455 C   0  0  0  0  0  0
  -27.5611  -37.1784   24.8434 C   0  0  0  0  0  0
  -21.4115  -29.3037   22.3735 N   0  0  0  0  0  0
  -26.4300  -37.3816   23.9424 N   0  0  0  0  0  0
  -24.6606  -31.0836   22.1007 N   0  0  0  0  0  0
  -23.4150  -28.8276   23.3097 O   0  0  0  0  0  0
  -28.4281  -26.7814   20.0794 O   0  0  0  0  0  0
  -26.5595  -34.8939   22.4705 O   0  0  0  0  0  0
  -23.5320  -32.1476   23.7528 O   0  0  0  0  0  0
  -32.9093  -17.4304   21.8417 C   0  0  0  0  0  0
  -32.9718  -18.8013   21.5214 C   0  0  0  0  0  0
  -32.1085  -24.0079   21.3173 C   0  0  0  0  0  0
  -32.6535  -23.4405   19.0167 C   0  0  0  0  0  0
  -30.7575  -19.1159   22.4834 C   0  0  0  0  0  0
  -31.7690  -16.8945   22.4765 C   0  0  0  0  0  0
  -32.5804  -23.0724   20.3748 C   0  0  0  0  0  0
  -31.8888  -19.6545   21.8352 C   0  0  0  0  0  0
  -31.7103  -25.6447   19.5329 C   0  0  0  0  0  0
  -30.6960  -17.7473   22.8071 C   0  0  0  0  0  0
  -31.6809  -25.2829   20.9034 C   0  0  0  0  0  0
  -32.2297  -24.7154   18.5908 C   0  0  0  0  0  0
  -31.7086  -15.4110   22.8032 C   0  0  0  0  0  0
  -32.9732  -21.6754   20.8159 C   0  0  0  0  0  0
  -30.0366  -26.9287   18.2969 C   0  0  0  0  0  0
  -28.8308  -26.1550   18.8638 C   0  0  0  0  0  0
  -31.8805  -21.0212   21.5223 N   0  0  0  0  0  0
  -31.2120  -26.9109   19.1702 N   0  0  0  0  0  0
  -30.7114  -14.6691   22.0369 N   0  0  0  0  0  0
  -29.6005  -17.2525   23.4338 F   0  0  0  0  0  0
  -31.0852  -26.3869   22.0963 Cl  0  0  0  0  0  0
  -32.3907  -25.0997   16.9106 Cl  0  0  0  0  0  0
  -31.4444  -12.4038   19.0468 H   0  0  0  0  0  0
  -30.3114  -11.2644   19.7129 H   0  0  0  0  0  0
  -29.6922  -11.8515   17.3632 H   0  0  0  0  0  0
  -29.6233  -13.5480   17.7826 H   0  0  0  0  0  0
  -27.8228  -11.3199   18.8015 H   0  0  0  0  0  0
  -27.3318  -12.6562   17.7936 H   0  0  0  0  0  0
  -27.7196  -14.2593   19.5977 H   0  0  0  0  0  0
  -28.6435  -11.9349   21.3515 H   0  0  0  0  0  0
  -28.4559  -13.5946   21.8469 H   0  0  0  0  0  0
  -25.2776   -9.5661   22.4773 H   0  0  0  0  0  0
  -23.9996   -7.4625   22.7472 H   0  0  0  0  0  0
  -21.0858   -8.8812   19.8950 H   0  0  0  0  0  0
  -22.3754  -10.9688   19.6161 H   0  0  0  0  0  0
  -21.2004   -7.6151   23.9725 H   0  0  0  0  0  0
  -21.1468   -6.0512   25.9079 H   0  0  0  0  0  0
  -22.0601   -2.7610   23.2833 H   0  0  0  0  0  0
  -22.4101  -11.9882   22.4763 H   0  0  0  0  0  0
  -21.1119  -13.1274   22.2623 H   0  0  0  0  0  0
  -24.6757  -15.8542   20.5214 H   0  0  0  0  0  0
  -26.3013  -15.6231   20.1190 H   0  0  0  0  0  0
  -26.7095  -32.5563   23.1174 H   0  0  0  0  0  0
  -25.0122  -33.9794   25.0557 H   0  0  0  0  0  0
  -22.6859  -31.3119   21.4123 H   0  0  0  0  0  0
  -23.3790  -35.9619   23.3220 H   0  0  0  0  0  0
  -24.3626  -36.9007   22.2048 H   0  0  0  0  0  0
  -23.7216  -37.6498   23.6658 H   0  0  0  0  0  0
  -26.0195  -31.6081   20.5862 H   0  0  0  0  0  0
  -26.8102  -30.9083   21.9695 H   0  0  0  0  0  0
  -28.0859  -29.1273   21.1798 H   0  0  0  0  0  0
  -26.0619  -25.9672   19.0506 H   0  0  0  0  0  0
  -23.9762  -27.2756   19.0608 H   0  0  0  0  0  0
  -23.6937  -30.5891   19.4005 H   0  0  0  0  0  0
  -22.7289  -29.2278   19.8833 H   0  0  0  0  0  0
  -25.1281  -36.1990   25.0836 H   0  0  0  0  0  0
  -20.9912  -28.3231   24.1463 H   0  0  0  0  0  0
  -20.5681  -26.2288   23.3609 H   0  0  0  0  0  0
  -21.6623  -26.7504   22.1182 H   0  0  0  0  0  0
  -19.6878  -25.6295   21.1267 H   0  0  0  0  0  0
  -19.6672  -27.3193   20.6742 H   0  0  0  0  0  0
  -17.4189  -26.6714   21.4007 H   0  0  0  0  0  0
  -18.0292  -26.0080   22.9009 H   0  0  0  0  0  0
  -19.7908  -30.7262   24.2297 H   0  0  0  0  0  0
  -17.4987  -31.6273   24.5175 H   0  0  0  0  0  0
  -15.5319  -30.2980   23.7664 H   0  0  0  0  0  0
  -15.8646  -28.0803   22.7092 H   0  0  0  0  0  0
  -24.5961  -30.6947   25.7787 H   0  0  0  0  0  0
  -24.8858  -32.2781   26.4893 H   0  0  0  0  0  0
  -25.8109  -30.8849   27.0224 H   0  0  0  0  0  0
  -26.2738  -29.6820   24.1136 H   0  0  0  0  0  0
  -27.4059  -29.7244   25.4455 H   0  0  0  0  0  0
  -27.8562  -30.4348   23.9129 H   0  0  0  0  0  0
  -27.2742  -33.3561   26.2066 H   0  0  0  0  0  0
  -28.3846  -32.6794   25.0245 H   0  0  0  0  0  0
  -28.0759  -31.8354   26.5339 H   0  0  0  0  0  0
  -28.2536  -38.0173   24.7634 H   0  0  0  0  0  0
  -28.1215  -36.2729   24.6062 H   0  0  0  0  0  0
  -27.2359  -37.1168   25.8836 H   0  0  0  0  0  0
  -20.9293  -29.8709   21.6907 H   0  0  0  0  0  0
  -26.0200  -38.2887   24.1500 H   0  0  0  0  0  0
  -33.7402  -16.7885   21.5865 H   0  0  0  0  0  0
  -33.8595  -19.1718   21.0281 H   0  0  0  0  0  0
  -32.0541  -23.7426   22.3643 H   0  0  0  0  0  0
  -33.0271  -22.7400   18.2845 H   0  0  0  0  0  0
  -29.9189  -19.7463   22.7397 H   0  0  0  0  0  0
  -31.4782  -15.2977   23.8629 H   0  0  0  0  0  0
  -32.6887  -14.9517   22.6634 H   0  0  0  0  0  0
  -33.8459  -21.7438   21.4696 H   0  0  0  0  0  0
  -33.2692  -21.0865   19.9454 H   0  0  0  0  0  0
  -29.7468  -27.9706   18.1501 H   0  0  0  0  0  0
  -30.2783  -26.5525   17.3048 H   0  0  0  0  0  0
  -29.0788  -25.1140   19.0700 H   0  0  0  0  0  0
  -28.0540  -26.1341   18.1000 H   0  0  0  0  0  0
  -31.0534  -21.5758   21.7178 H   0  0  0  0  0  0
  -31.0319  -27.4601   20.0057 H   0  0  0  0  0  0
  -29.9511  -14.2596   22.5585 H   0  0  0  0  0  0
  1 25  1  0  0  0
  1 30  2  0  0  0
  1 89  1  0  0  0
  2  3  1  0  0  0
  2 25  1  0  0  0
  2 93  1  0  0  0
  2 94  1  0  0  0
  3  4  1  0  0  0
  3 95  1  0  0  0
  3 96  1  0  0  0
  4  5  1  0  0  0
  4 97  1  0  0  0
  4 98  1  0  0  0
  5  6  1  0  0  0
  5 26  1  0  0  0
  5 99  1  0  0  0
  6 25  1  0  0  0
  6100  1  0  0  0
  6101  1  0  0  0
  7  8  2  0  0  0
  7 26  1  0  0  0
  7 29  1  0  0  0
  8  9  1  0  0  0
  8 22  1  0  0  0
  9 10  1  0  0  0
  9 27  2  0  0  0
 10 11  2  0  0  0
 10 15  1  0  0  0
 11 12  1  0  0  0
 11102  1  0  0  0
 12 13  2  0  0  0
 12103  1  0  0  0
 13 14  1  0  0  0
 13 31  1  0  0  0
 14 15  2  0  0  0
 14104  1  0  0  0
 15105  1  0  0  0
 16 17  2  0  0  0
 16 21  1  0  0  0
 16 31  1  0  0  0
 17 18  1  0  0  0
 17106  1  0  0  0
 18 19  2  0  0  0
 18107  1  0  0  0
 19 20  1  0  0  0
 19 24  1  0  0  0
 20 21  2  0  0  0
 20108  1  0  0  0
 21 23  1  0  0  0
 22 28  1  0  0  0
 22 32  2  0  0  0
 26 27  1  0  0  0
 28109  1  0  0  0
 28110  1  0  0  0
 29111  1  0  0  0
 29112  1  0  0  0
 33 34  1  0  0  0
 33 66  1  0  0  0
 33 70  2  0  0  0
 34 36  1  0  0  0
 34 59  1  0  0  0
 34113  1  0  0  0
 35 44  2  0  0  0
 35 45  1  0  0  0
 35 68  1  0  0  0
 36 56  1  0  0  0
 36114  1  0  0  0
 37 39  1  0  0  0
 37 47  1  0  0  0
 37 66  1  0  0  0
 37115  1  0  0  0
 38 43  2  0  0  0
 38 46  1  0  0  0
 38 47  1  0  0  0
 39 64  1  0  0  0
 39 67  2  0  0  0
 40 52  1  0  0  0
 40 53  2  0  0  0
 40 58  1  0  0  0
 41116  1  0  0  0
 41117  1  0  0  0
 41118  1  0  0  0
 41 48  1  0  0  0
 42 43  1  0  0  0
 42 66  1  0  0  0
 42119  1  0  0  0
 42120  1  0  0  0
 43 44  1  0  0  0
 44121  1  0  0  0
 45 46  2  0  0  0
 45122  1  0  0  0
 46123  1  0  0  0
 47124  1  0  0  0
 47125  1  0  0  0
 48 56  1  0  0  0
 48 65  1  0  0  0
 48126  1  0  0  0
 49 50  1  0  0  0
 49 53  1  0  0  0
 49 64  1  0  0  0
 49127  1  0  0  0
 50 51  1  0  0  0
 50128  1  0  0  0
 50129  1  0  0  0
 51 52  1  0  0  0
 51130  1  0  0  0
 51131  1  0  0  0
 52132  1  0  0  0
 52133  1  0  0  0
 53 54  1  0  0  0
 54 55  2  0  0  0
 54134  1  0  0  0
 55 57  1  0  0  0
 55135  1  0  0  0
 56 69  2  0  0  0
 57 58  2  0  0  0
 57136  1  0  0  0
 58137  1  0  0  0
 59 60  1  0  0  0
 59 61  1  0  0  0
 59 62  1  0  0  0
 60138  1  0  0  0
 60139  1  0  0  0
 60140  1  0  0  0
 61141  1  0  0  0
 61142  1  0  0  0
 61143  1  0  0  0
 62144  1  0  0  0
 62145  1  0  0  0
 62146  1  0  0  0
 63 65  1  0  0  0
 63147  1  0  0  0
 63148  1  0  0  0
 63149  1  0  0  0
 64150  1  0  0  0
 65151  1  0  0  0
 68 86  1  0  0  0
 71 72  2  0  0  0
 71 76  1  0  0  0
 71152  1  0  0  0
 72 78  1  0  0  0
 72153  1  0  0  0
 73 77  2  0  0  0
 73 81  1  0  0  0
 73154  1  0  0  0
 74 77  1  0  0  0
 74 82  2  0  0  0
 74155  1  0  0  0
 75 78  2  0  0  0
 75 80  1  0  0  0
 75156  1  0  0  0
 76 80  2  0  0  0
 76 83  1  0  0  0
 77 84  1  0  0  0
 78 87  1  0  0  0
 79 81  2  0  0  0
 79 82  1  0  0  0
 79 88  1  0  0  0
 80 90  1  0  0  0
 81 91  1  0  0  0
 82 92  1  0  0  0
 83 89  1  0  0  0
 83157  1  0  0  0
 83158  1  0  0  0
 84 87  1  0  0  0
 84159  1  0  0  0
 84160  1  0  0  0
 85 86  1  0  0  0
 85 88  1  0  0  0
 85161  1  0  0  0
 85162  1  0  0  0
 86163  1  0  0  0
 86164  1  0  0  0
 87165  1  0  0  0
 88166  1  0  0  0
 89167  1  0  0  0
M  ISO  4   1 100  68 101  86 101  89 100
M  END
> <chiral flag>
0

> <version>
0

> <s_m_source_file>
/data/baiqing/PycharmProjects/Reinvent-master-3.2/result/LINK_invent/BTK/process_docking_weight1_custom_product_contain_oxygen_bond_distance_aromatic_linkinvent_7_9_3/rearranged_h_0005.sdf

> <i_m_source_file_index>
86

> <r_mmod_Potential_Energy-OPLS-2005>
-52.5935020446777

> <r_mmod_Stretch_Energy-OPLS-2005>
33.5047988891602

> <r_mmod_Bend_Energy-OPLS-2005>
104.012817382812

> <r_mmod_Torsional_Energy-OPLS-2005>
221.384796142578

> <r_mmod_Improper_Torsional_Energy-OPLS-2005>
11.0364532470703

> <r_mmod_Van_der_Waal_Energy-OPLS-2005>
172.956649780273

> <r_mmod_Electrostatic_Energy-OPLS-2005>
-384.268615722656

> <r_mmod_Solvation_Energy-OPLS-2005>
-220.872406005859

> <b_mmod_Minimization_Converged-OPLS-2005>
0

> <r_mmod_RMS_Derivative-OPLS-2005>
2.1321222782135

$$$$
89
                    3D
 Structure written by MMmdl.
182192  0  0  1  0            999 V2000
  -29.8029  -15.9880   20.2426 C   0  0  0  0  0  0
  -30.3648  -13.4855   19.5020 C   0  0  0  0  0  0
  -29.5618  -12.8165   18.3952 C   0  0  0  0  0  0
  -28.2090  -12.2758   18.9140 C   0  0  0  0  0  0
  -27.5381  -13.3223   19.8099 C   0  0  2  0  0  0
  -28.4304  -13.8522   20.9127 C   0  0  0  0  0  0
  -25.2062  -13.8189   20.5916 C   0  0  0  0  0  0
  -24.1455  -13.0255   20.9350 C   0  0  0  0  0  0
  -24.6226  -11.6895   20.8794 C   0  0  0  0  0  0
  -23.9093  -10.4251   21.0430 C   0  0  0  0  0  0
  -24.3632   -9.4188   21.9178 C   0  0  0  0  0  0
  -23.6313   -8.2203   22.0772 C   0  0  0  0  0  0
  -22.4272   -8.0251   21.3519 C   0  0  0  0  0  0
  -21.9934   -9.0258   20.4633 C   0  0  0  0  0  0
  -22.7301  -10.2122   20.3064 C   0  0  0  0  0  0
  -21.6869   -6.0745   22.5293 C   0  0  0  0  0  0
  -21.4031   -6.5649   23.8227 C   0  0  0  0  0  0
  -21.3667   -5.6804   24.9174 C   0  0  0  0  0  0
  -21.6050   -4.3059   24.7217 C   0  0  0  0  0  0
  -21.8816   -3.8161   23.4336 C   0  0  0  0  0  0
  -21.9194   -4.6970   22.3401 C   0  0  0  0  0  0
  -22.7497  -13.5069   21.1915 C   0  0  0  0  0  0
  -22.1662   -4.2169   21.0973 F   0  0  0  0  0  0
  -21.5622   -3.4545   25.7727 F   0  0  0  0  0  0
  -29.5160  -14.5710   20.1735 N   0  0  0  0  0  0
  -26.2433  -12.9490   20.3096 N   0  0  0  0  0  0
  -25.9141  -11.6566   20.5666 N   0  0  0  0  0  0
  -22.0228  -12.8026   22.0578 N   0  0  0  0  0  0
  -25.3354  -15.1897   20.4249 N   0  0  0  0  0  0
  -31.0837  -16.1184   20.1195 O   0  0  0  0  0  0
  -21.6638   -6.8864   21.4253 O   0  0  0  0  0  0
  -22.3137  -14.5349   20.6851 O   0  0  0  0  0  0
  -24.5875  -31.9429   23.2089 C   0  0  0  0  0  0
  -25.8843  -32.5140   23.8564 C   0  0  1  0  0  0
  -27.4001  -27.6179   20.0966 C   0  0  0  0  0  0
  -25.5582  -33.9015   24.2589 N   0  0  0  0  0  0
  -23.4117  -30.5663   21.5706 C   0  0  2  0  0  0
  -24.9206  -29.0953   20.0689 C   0  0  0  0  0  0
  -22.7343  -29.5658   22.4947 C   0  0  0  0  0  0
  -18.0318  -28.1395   22.8630 C   0  0  0  0  0  0
  -24.1298  -36.7261   23.2740 C   0  0  0  0  0  0
  -25.8897  -31.1204   21.2773 C   0  0  0  0  0  0
  -26.0930  -29.7267   20.5396 C   0  0  0  0  0  0
  -27.3160  -28.9723   20.5591 C   0  0  0  0  0  0
  -26.1385  -27.0250   19.6278 C   0  0  0  0  0  0
  -24.8547  -27.7492   19.5937 C   0  0  0  0  0  0
  -23.5229  -29.8756   20.2010 C   0  0  0  0  0  0
  -25.3904  -36.3453   24.0534 C   0  0  1  0  0  0
  -20.5988  -28.3931   23.1301 C   0  0  2  0  0  0
  -20.6729  -26.9529   22.5681 C   0  0  0  0  0  0
  -19.5747  -26.6354   21.5328 C   0  0  0  0  0  0
  -18.1806  -26.8034   22.1639 C   0  0  0  0  0  0
  -19.1637  -28.8811   23.2971 C   0  0  0  0  0  0
  -18.9465  -30.1323   23.9010 C   0  0  0  0  0  0
  -17.6509  -30.6557   24.0552 C   0  0  0  0  0  0
  -25.8859  -34.9847   23.5263 C   0  0  0  0  0  0
  -16.5351  -29.9078   23.6345 C   0  0  0  0  0  0
  -16.7299  -28.6489   23.0345 C   0  0  0  0  0  0
  -26.4297  -31.6859   25.0794 C   0  0  0  0  0  0
  -25.3628  -31.3758   26.1458 C   0  0  0  0  0  0
  -27.0195  -30.3354   24.6037 C   0  0  0  0  0  0
  -27.6009  -32.4592   25.7412 C   0  0  0  0  0  0
  -27.5494  -37.1784   24.8456 C   0  0  0  0  0  0
  -21.4090  -29.3362   22.3644 N   0  0  0  0  0  0
  -26.4127  -37.4011   23.9495 N   0  0  0  0  0  0
  -24.6673  -31.1772   22.0756 N   0  0  0  0  0  0
  -23.3867  -28.9964   23.3733 O   0  0  0  0  0  0
  -28.6089  -26.9205   20.2556 O   0  0  0  0  0  0
  -26.5653  -34.9172   22.4911 O   0  0  0  0  0  0
  -23.5643  -32.1660   23.7622 O   0  0  0  0  0  0
  -25.4764  -18.9042   19.0633 C   0  0  0  0  0  0
  -26.4681  -19.2404   17.9813 C   0  0  0  0  0  0
  -26.4148  -18.6393   20.3253 C   0  0  0  0  0  0
  -27.6853  -21.4567   18.6163 C   0  0  0  0  0  0
  -30.5133  -22.8091   22.4072 C   0  0  0  0  0  0
  -30.4318  -25.2052   22.3808 C   0  0  0  0  0  0
  -27.6000  -22.4194   19.7927 C   0  0  0  0  0  0
  -31.6736  -22.6423   21.3902 C   0  0  0  0  0  0
  -31.9838  -25.0366   22.0725 C   0  0  0  0  0  0
  -28.4695  -20.2630   21.2838 C   0  0  0  0  0  0
  -27.6539  -19.8551   18.7805 C   0  0  2  0  0  0
  -29.6769  -23.9007   21.8358 C   0  0  2  0  0  0
  -28.0457  -18.9325   20.1607 C   0  0  1  0  0  0
  -28.3040  -23.2100   22.0311 C   0  0  0  0  0  0
  -31.0398  -26.0000   19.3305 C   0  0  0  0  0  0
  -31.6895  -24.4998   19.5443 C   0  0  0  0  0  0
  -29.4591  -26.4260   19.1086 C   0  0  0  0  0  0
  -28.7486  -17.1982   20.1803 N   0  0  0  0  0  0
  -28.0738  -21.9018   21.0908 N   0  3  2  0  0  0
  -32.1792  -24.0455   20.9490 N   0  3  2  0  0  0
  -31.1374  -14.0219   18.9681 H   0  0  0  0  0  0
  -30.8111  -12.8804   20.2646 H   0  0  0  0  0  0
  -30.1857  -12.0451   17.9486 H   0  0  0  0  0  0
  -29.3518  -13.5353   17.5727 H   0  0  0  0  0  0
  -28.4539  -11.3964   19.5076 H   0  0  0  0  0  0
  -27.5709  -11.9156   18.0807 H   0  0  0  0  0  0
  -27.3065  -14.1387   19.1069 H   0  0  0  0  0  0
  -28.8061  -13.1601   21.6241 H   0  0  0  0  0  0
  -27.8687  -14.5940   21.4721 H   0  0  0  0  0  0
  -25.2829   -9.5641   22.4714 H   0  0  0  0  0  0
  -24.0071   -7.4573   22.7487 H   0  0  0  0  0  0
  -21.0857   -8.8765   19.8894 H   0  0  0  0  0  0
  -22.3807  -10.9619   19.6129 H   0  0  0  0  0  0
  -21.2045   -7.6166   23.9725 H   0  0  0  0  0  0
  -21.1490   -6.0529   25.9077 H   0  0  0  0  0  0
  -22.0584   -2.7624   23.2828 H   0  0  0  0  0  0
  -22.4001  -11.9742   22.4944 H   0  0  0  0  0  0
  -21.0757  -13.0891   22.2826 H   0  0  0  0  0  0
  -24.5427  -15.8166   20.5222 H   0  0  0  0  0  0
  -26.1506  -15.6432   20.0379 H   0  0  0  0  0  0
  -26.7251  -32.6153   23.2066 H   0  0  0  0  0  0
  -24.8868  -34.0593   25.0147 H   0  0  0  0  0  0
  -22.7303  -31.4153   21.4770 H   0  0  0  0  0  0
  -23.3915  -35.9218   23.3253 H   0  0  0  0  0  0
  -24.3376  -36.9005   22.2158 H   0  0  0  0  0  0
  -23.6673  -37.6185   23.6866 H   0  0  0  0  0  0
  -25.8357  -32.0128   20.7123 H   0  0  0  0  0  0
  -26.8057  -31.1805   21.8146 H   0  0  0  0  0  0
  -28.1570  -29.4675   20.9198 H   0  0  0  0  0  0
  -26.0862  -26.0188   19.2232 H   0  0  0  0  0  0
  -23.9870  -27.2398   19.1554 H   0  0  0  0  0  0
  -23.0678  -30.3968   19.3764 H   0  0  0  0  0  0
  -22.8835  -28.9817   20.1382 H   0  0  0  0  0  0
  -25.1190  -36.2361   25.1101 H   0  0  0  0  0  0
  -21.0005  -28.3320   24.1364 H   0  0  0  0  0  0
  -20.5197  -26.2497   23.3867 H   0  0  0  0  0  0
  -21.6616  -26.7107   22.1697 H   0  0  0  0  0  0
  -19.6833  -25.6127   21.1351 H   0  0  0  0  0  0
  -19.6739  -27.3115   20.6728 H   0  0  0  0  0  0
  -17.4185  -26.6933   21.3808 H   0  0  0  0  0  0
  -17.9966  -25.9980   22.8836 H   0  0  0  0  0  0
  -19.7901  -30.7181   24.2329 H   0  0  0  0  0  0
  -17.5030  -31.6391   24.5148 H   0  0  0  0  0  0
  -15.5335  -30.3044   23.7537 H   0  0  0  0  0  0
  -15.8615  -28.0805   22.6970 H   0  0  0  0  0  0
  -24.6056  -30.6810   25.7726 H   0  0  0  0  0  0
  -24.8400  -32.2759   26.4675 H   0  0  0  0  0  0
  -25.7886  -30.9155   27.0417 H   0  0  0  0  0  0
  -26.2814  -29.6803   24.1238 H   0  0  0  0  0  0
  -27.4156  -29.7703   25.4569 H   0  0  0  0  0  0
  -27.8479  -30.4576   23.8965 H   0  0  0  0  0  0
  -27.2718  -33.4121   26.1565 H   0  0  0  0  0  0
  -28.3732  -32.6769   25.0003 H   0  0  0  0  0  0
  -28.0622  -31.8928   26.5553 H   0  0  0  0  0  0
  -28.2625  -38.0059   24.7668 H   0  0  0  0  0  0
  -28.0953  -36.2600   24.6103 H   0  0  0  0  0  0
  -27.2237  -37.1149   25.8895 H   0  0  0  0  0  0
  -20.9011  -29.8456   21.6456 H   0  0  0  0  0  0
  -26.0142  -38.3068   24.1737 H   0  0  0  0  0  0
  -24.6535  -18.2639   18.8036 H   0  0  0  0  0  0
  -25.0104  -19.8979   19.1574 H   0  0  0  0  0  0
  -26.1378  -19.9217   17.2115 H   0  0  0  0  0  0
  -26.6451  -18.3174   17.4790 H   0  0  0  0  0  0
  -26.2021  -17.6287   20.7251 H   0  0  0  0  0  0
  -25.8930  -19.2563   21.0671 H   0  0  0  0  0  0
  -28.2892  -21.8814   17.8251 H   0  0  0  0  0  0
  -26.7518  -21.8642   18.1962 H   0  0  0  0  0  0
  -29.9841  -21.8856   22.6125 H   0  0  0  0  0  0
  -30.8352  -23.0935   23.4245 H   0  0  0  0  0  0
  -30.1643  -26.2231   22.0441 H   0  0  0  0  0  0
  -30.3067  -25.4337   23.4403 H   0  0  0  0  0  0
  -26.5483  -22.7532   19.9845 H   0  0  0  0  0  0
  -27.8463  -23.3894   19.3150 H   0  0  0  0  0  0
  -31.2925  -22.0014   20.5529 H   0  0  0  0  0  0
  -32.4315  -21.9692   21.8160 H   0  0  0  0  0  0
  -32.4439  -24.5001   22.9110 H   0  0  0  0  0  0
  -32.6894  -25.9231   22.0549 H   0  0  0  0  0  0
  -28.6649  -19.8290   22.2579 H   0  0  0  0  0  0
  -27.4326  -20.2986   21.5464 H   0  0  0  0  0  0
  -26.9430  -20.3918   19.4067 H   0  0  0  0  0  0
  -29.7264  -24.0532   20.7720 H   0  0  0  0  0  0
  -27.8216  -24.0973   21.5927 H   0  0  0  0  0  0
  -27.8000  -23.5283   22.9277 H   0  0  0  0  0  0
  -31.7917  -26.7093   19.7941 H   0  0  0  0  0  0
  -31.4397  -26.0831   18.2663 H   0  0  0  0  0  0
  -32.6003  -24.4036   18.8583 H   0  0  0  0  0  0
  -30.9698  -23.7920   19.0437 H   0  0  0  0  0  0
  -28.9730  -25.5865   18.6810 H   0  0  0  0  0  0
  -29.5117  -27.1975   18.3356 H   0  0  0  0  0  0
  -27.8563  -16.6787   20.2636 H   0  0  0  0  0  0
  -27.2188  -21.7087   21.4788 H   0  0  0  0  0  0
  -33.1800  -23.8836   20.7934 H   0  0  0  0  0  0
  1 25  1  0  0  0
  1 30  2  0  0  0
  1 88  1  0  0  0
  2  3  1  0  0  0
  2 25  1  0  0  0
  2 91  1  0  0  0
  2 92  1  0  0  0
  3  4  1  0  0  0
  3 93  1  0  0  0
  3 94  1  0  0  0
  4  5  1  0  0  0
  4 95  1  0  0  0
  4 96  1  0  0  0
  5  6  1  0  0  0
  5 26  1  0  0  0
  5 97  1  0  0  0
  6 25  1  0  0  0
  6 98  1  0  0  0
  6 99  1  0  0  0
  7  8  2  0  0  0
  7 26  1  0  0  0
  7 29  1  0  0  0
  8  9  1  0  0  0
  8 22  1  0  0  0
  9 10  1  0  0  0
  9 27  2  0  0  0
 10 11  2  0  0  0
 10 15  1  0  0  0
 11 12  1  0  0  0
 11100  1  0  0  0
 12 13  2  0  0  0
 12101  1  0  0  0
 13 14  1  0  0  0
 13 31  1  0  0  0
 14 15  2  0  0  0
 14102  1  0  0  0
 15103  1  0  0  0
 16 17  2  0  0  0
 16 21  1  0  0  0
 16 31  1  0  0  0
 17 18  1  0  0  0
 17104  1  0  0  0
 18 19  2  0  0  0
 18105  1  0  0  0
 19 20  1  0  0  0
 19 24  1  0  0  0
 20 21  2  0  0  0
 20106  1  0  0  0
 21 23  1  0  0  0
 22 28  1  0  0  0
 22 32  2  0  0  0
 26 27  1  0  0  0
 28107  1  0  0  0
 28108  1  0  0  0
 29109  1  0  0  0
 29110  1  0  0  0
 33 34  1  0  0  0
 33 66  1  0  0  0
 33 70  2  0  0  0
 34 36  1  0  0  0
 34 59  1  0  0  0
 34111  1  0  0  0
 35 44  2  0  0  0
 35 45  1  0  0  0
 35 68  1  0  0  0
 36 56  1  0  0  0
 36112  1  0  0  0
 37 39  1  0  0  0
 37 47  1  0  0  0
 37 66  1  0  0  0
 37113  1  0  0  0
 38 43  2  0  0  0
 38 46  1  0  0  0
 38 47  1  0  0  0
 39 64  1  0  0  0
 39 67  2  0  0  0
 40 52  1  0  0  0
 40 53  2  0  0  0
 40 58  1  0  0  0
 41114  1  0  0  0
 41115  1  0  0  0
 41116  1  0  0  0
 41 48  1  0  0  0
 42 43  1  0  0  0
 42 66  1  0  0  0
 42117  1  0  0  0
 42118  1  0  0  0
 43 44  1  0  0  0
 44119  1  0  0  0
 45 46  2  0  0  0
 45120  1  0  0  0
 46121  1  0  0  0
 47122  1  0  0  0
 47123  1  0  0  0
 48 56  1  0  0  0
 48 65  1  0  0  0
 48124  1  0  0  0
 49 50  1  0  0  0
 49 53  1  0  0  0
 49 64  1  0  0  0
 49125  1  0  0  0
 50 51  1  0  0  0
 50126  1  0  0  0
 50127  1  0  0  0
 51 52  1  0  0  0
 51128  1  0  0  0
 51129  1  0  0  0
 52130  1  0  0  0
 52131  1  0  0  0
 53 54  1  0  0  0
 54 55  2  0  0  0
 54132  1  0  0  0
 55 57  1  0  0  0
 55133  1  0  0  0
 56 69  2  0  0  0
 57 58  2  0  0  0
 57134  1  0  0  0
 58135  1  0  0  0
 59 60  1  0  0  0
 59 61  1  0  0  0
 59 62  1  0  0  0
 60136  1  0  0  0
 60137  1  0  0  0
 60138  1  0  0  0
 61139  1  0  0  0
 61140  1  0  0  0
 61141  1  0  0  0
 62142  1  0  0  0
 62143  1  0  0  0
 62144  1  0  0  0
 63 65  1  0  0  0
 63145  1  0  0  0
 63146  1  0  0  0
 63147  1  0  0  0
 64148  1  0  0  0
 65149  1  0  0  0
 68 87  1  0  0  0
 71 72  1  0  0  0
 71 73  1  0  0  0
 71150  1  0  0  0
 71151  1  0  0  0
 72152  1  0  0  0
 72153  1  0  0  0
 72 81  1  0  0  0
 73 83  1  0  0  0
 73154  1  0  0  0
 73155  1  0  0  0
 74 77  1  0  0  0
 74 81  1  0  0  0
 74156  1  0  0  0
 74157  1  0  0  0
 75 78  1  0  0  0
 75 82  1  0  0  0
 75158  1  0  0  0
 75159  1  0  0  0
 76 79  1  0  0  0
 76 82  1  0  0  0
 76160  1  0  0  0
 76161  1  0  0  0
 77 89  1  0  0  0
 77162  1  0  0  0
 77163  1  0  0  0
 78 90  1  0  0  0
 78164  1  0  0  0
 78165  1  0  0  0
 79 90  1  0  0  0
 79166  1  0  0  0
 79167  1  0  0  0
 80 83  1  0  0  0
 80 89  1  0  0  0
 80168  1  0  0  0
 80169  1  0  0  0
 81 83  1  0  0  0
 81170  1  0  0  0
 82 84  1  0  0  0
 82171  1  0  0  0
 83 88  1  0  0  0
 84172  1  0  0  0
 84173  1  0  0  0
 84 89  1  0  0  0
 85 86  1  0  0  0
 85 87  1  0  0  0
 85174  1  0  0  0
 85175  1  0  0  0
 86176  1  0  0  0
 86177  1  0  0  0
 86 90  1  0  0  0
 87178  1  0  0  0
 87179  1  0  0  0
 88180  1  0  0  0
 89181  1  0  0  0
 90182  1  0  0  0
M  CHG  2  89   1  90   1
M  ISO  4   1 100  68 101  87 101  88 100
M  END
> <chiral flag>
0

> <version>
0

> <s_m_source_file>
/data/baiqing/PycharmProjects/Reinvent-master-3.2/result/LINK_invent/BTK/process_docking_weight1_custom_product_contain_oxygen_bond_distance_aromatic_linkinvent_7_9_3/rearranged_h_0005.sdf

> <i_m_source_file_index>
87

> <r_mmod_Potential_Energy-OPLS-2005>
3297.8984375

> <r_mmod_Stretch_Energy-OPLS-2005>
917.419982910156

> <r_mmod_Bend_Energy-OPLS-2005>
1273.64660644531

> <r_mmod_Torsional_Energy-OPLS-2005>
473.072784423828

> <r_mmod_Improper_Torsional_Energy-OPLS-2005>
10.4251804351807

> <r_mmod_Van_der_Waal_Energy-OPLS-2005>
265.196472167969

> <r_mmod_Electrostatic_Energy-OPLS-2005>
83.2326812744141

> <r_mmod_Solvation_Energy-OPLS-2005>
-921.026977539062

> <b_mmod_Minimization_Converged-OPLS-2005>
0

> <r_mmod_RMS_Derivative-OPLS-2005>
99.9990005493164

$$$$
90
                    3D
 Structure written by MMmdl.
184193  0  0  1  0            999 V2000
  -30.8747  -14.2574   20.7463 C   0  0  0  0  0  0
  -30.3939  -12.2740   19.3771 C   0  0  0  0  0  0
  -29.4633  -12.5315   18.1841 C   0  0  0  0  0  0
  -27.9984  -12.3744   18.6182 C   0  0  0  0  0  0
  -27.6666  -13.2097   19.8804 C   0  0  2  0  0  0
  -28.7105  -12.9927   21.0036 C   0  0  0  0  0  0
  -25.2619  -13.8185   20.5711 C   0  0  0  0  0  0
  -24.1865  -13.0454   20.9158 C   0  0  0  0  0  0
  -24.6412  -11.6916   20.8734 C   0  0  0  0  0  0
  -23.9069  -10.4302   21.0413 C   0  0  0  0  0  0
  -24.3602   -9.4214   21.9194 C   0  0  0  0  0  0
  -23.6281   -8.2243   22.0761 C   0  0  0  0  0  0
  -22.4273   -8.0283   21.3543 C   0  0  0  0  0  0
  -21.9904   -9.0268   20.4649 C   0  0  0  0  0  0
  -22.7234  -10.2139   20.3058 C   0  0  0  0  0  0
  -21.6853   -6.0734   22.5272 C   0  0  0  0  0  0
  -21.4026   -6.5641   23.8205 C   0  0  0  0  0  0
  -21.3656   -5.6796   24.9169 C   0  0  0  0  0  0
  -21.6037   -4.3056   24.7225 C   0  0  0  0  0  0
  -21.8815   -3.8148   23.4349 C   0  0  0  0  0  0
  -21.9191   -4.6961   22.3403 C   0  0  0  0  0  0
  -22.7888  -13.5236   21.1821 C   0  0  0  0  0  0
  -22.1664   -4.2138   21.0982 F   0  0  0  0  0  0
  -21.5613   -3.4551   25.7745 F   0  0  0  0  0  0
  -30.0622  -13.2120   20.4593 N   0  0  0  0  0  0
  -26.3066  -12.9362   20.3442 N   0  0  0  0  0  0
  -25.9344  -11.6511   20.5818 N   0  0  0  0  0  0
  -22.0524  -12.8240   22.0379 N   0  0  0  0  0  0
  -25.4364  -15.1913   20.4104 N   0  0  0  0  0  0
  -31.7372  -14.6771   19.9694 O   0  0  0  0  0  0
  -21.6632   -6.8886   21.4241 O   0  0  0  0  0  0
  -22.3567  -14.5548   20.6679 O   0  0  0  0  0  0
  -24.6076  -31.8723   23.2110 C   0  0  0  0  0  0
  -25.8990  -32.4847   23.8411 C   0  0  1  0  0  0
  -27.2533  -27.4813   20.1024 C   0  0  0  0  0  0
  -25.5882  -33.8643   24.2371 N   0  0  0  0  0  0
  -23.3935  -30.4927   21.5483 C   0  0  2  0  0  0
  -24.8451  -28.9617   20.1168 C   0  0  0  0  0  0
  -22.7375  -29.4661   22.4984 C   0  0  0  0  0  0
  -18.0258  -28.1373   22.8448 C   0  0  0  0  0  0
  -24.1492  -36.7321   23.2636 C   0  0  0  0  0  0
  -25.9140  -30.8546   21.3544 C   0  0  0  0  0  0
  -25.9953  -29.4855   20.7182 C   0  0  0  0  0  0
  -27.1961  -28.7510   20.7231 C   0  0  0  0  0  0
  -26.0880  -26.9679   19.4946 C   0  0  0  0  0  0
  -24.8818  -27.6948   19.5083 C   0  0  0  0  0  0
  -23.6022  -29.8205   20.1627 C   0  0  0  0  0  0
  -25.4117  -36.3141   24.0350 C   0  0  1  0  0  0
  -20.5842  -28.3657   23.1307 C   0  0  2  0  0  0
  -20.6761  -26.9393   22.5421 C   0  0  0  0  0  0
  -19.5757  -26.6379   21.5197 C   0  0  0  0  0  0
  -18.1914  -26.7915   22.1581 C   0  0  0  0  0  0
  -19.1505  -28.8825   23.2875 C   0  0  0  0  0  0
  -18.9454  -30.1413   23.8924 C   0  0  0  0  0  0
  -17.6465  -30.6576   24.0547 C   0  0  0  0  0  0
  -25.9029  -34.9487   23.5161 C   0  0  0  0  0  0
  -16.5347  -29.9096   23.6291 C   0  0  0  0  0  0
  -16.7246  -28.6501   23.0331 C   0  0  0  0  0  0
  -26.4456  -31.6587   25.0684 C   0  0  0  0  0  0
  -25.3760  -31.3700   26.1460 C   0  0  0  0  0  0
  -27.0250  -30.3036   24.5991 C   0  0  0  0  0  0
  -27.6051  -32.4286   25.7449 C   0  0  0  0  0  0
  -27.5604  -37.1808   24.8453 C   0  0  0  0  0  0
  -21.4107  -29.3038   22.3731 N   0  0  0  0  0  0
  -26.4303  -37.3820   23.9411 N   0  0  0  0  0  0
  -24.6556  -31.0889   22.0970 N   0  0  0  0  0  0
  -23.4161  -28.8196   23.3004 O   0  0  0  0  0  0
  -28.3920  -26.7079   20.0299 O   0  0  0  0  0  0
  -26.5576  -34.8911   22.4714 O   0  0  0  0  0  0
  -23.5287  -32.1436   23.7539 O   0  0  0  0  0  0
  -31.0927  -29.7333   18.7486 C   0  0  0  0  0  0
  -30.1879  -28.7756   19.2405 C   0  0  0  0  0  0
  -31.8929  -16.1091   25.0104 C   0  0  0  0  0  0
  -31.7272  -17.1866   25.8961 C   0  0  0  0  0  0
  -32.6037  -29.2497   20.5876 C   0  0  0  0  0  0
  -31.7040  -28.2814   21.0933 C   0  0  0  0  0  0
  -32.3080  -29.9778   19.4168 C   0  0  0  0  0  0
  -30.4738  -28.0436   20.4157 C   0  0  0  0  0  0
  -31.8460  -16.3117   23.6170 C   0  0  0  0  0  0
  -31.5318  -18.4883   25.4006 C   0  0  0  0  0  0
  -31.6415  -17.6164   23.0990 C   0  0  0  0  0  0
  -31.5259  -18.7126   23.9984 C   0  0  0  0  0  0
  -32.0916  -27.4963   22.3125 C   0  0  0  0  0  0
  -32.2971  -20.9918   23.5293 C   0  0  0  0  0  0
  -32.9597  -24.4588   22.3347 C   0  0  0  0  0  0
  -31.3205  -19.6116   26.4040 C   0  0  0  0  0  0
  -31.5759  -17.8246   21.5854 C   0  0  0  0  0  0
  -32.0883  -15.1136   22.7104 C   0  0  0  0  0  0
  -29.4809  -26.9848   20.9128 C   0  0  0  0  0  0
  -32.0238  -22.2034   22.6437 C   0  0  0  0  0  0
  -33.6229  -25.6840   22.9821 C   0  0  0  0  0  0
  -33.3051  -30.9812   18.8520 C   0  0  0  0  0  0
  -31.3758  -20.0192   23.4750 N   0  0  0  0  0  0
  -33.2780  -26.8877   22.2281 N   0  0  0  0  0  0
  -32.7448  -23.3877   23.0990 N   0  0  0  0  0  0
  -30.8931  -14.5969   22.0405 N   0  0  0  0  0  0
  -31.3218  -27.3491   23.2635 O   0  0  0  0  0  0
  -33.3097  -20.9500   24.2371 O   0  0  0  0  0  0
  -32.6253  -24.4897   21.1465 O   0  0  0  0  0  0
  -32.6766  -31.9902   18.2477 F   0  0  0  0  0  0
  -34.0817  -31.4878   19.8109 F   0  0  0  0  0  0
  -34.0792  -30.3642   17.9583 F   0  0  0  0  0  0
  -31.4367  -12.3503   19.0651 H   0  0  0  0  0  0
  -30.2704  -11.2514   19.7387 H   0  0  0  0  0  0
  -29.6891  -11.8404   17.3709 H   0  0  0  0  0  0
  -29.6296  -13.5361   17.7917 H   0  0  0  0  0  0
  -27.8179  -11.3169   18.8185 H   0  0  0  0  0  0
  -27.3297  -12.6482   17.8021 H   0  0  0  0  0  0
  -27.7171  -14.2592   19.5892 H   0  0  0  0  0  0
  -28.6446  -11.9785   21.4005 H   0  0  0  0  0  0
  -28.4897  -13.6635   21.8353 H   0  0  0  0  0  0
  -25.2738   -9.5687   22.4781 H   0  0  0  0  0  0
  -23.9978   -7.4645   22.7499 H   0  0  0  0  0  0
  -21.0818   -8.8794   19.8978 H   0  0  0  0  0  0
  -22.3696  -10.9683   19.6174 H   0  0  0  0  0  0
  -21.2037   -7.6149   23.9699 H   0  0  0  0  0  0
  -21.1479   -6.0536   25.9062 H   0  0  0  0  0  0
  -22.0599   -2.7608   23.2852 H   0  0  0  0  0  0
  -22.4106  -11.9862   22.4727 H   0  0  0  0  0  0
  -21.1170  -13.1327   22.2619 H   0  0  0  0  0  0
  -24.6807  -15.8575   20.5275 H   0  0  0  0  0  0
  -26.3039  -15.6253   20.1184 H   0  0  0  0  0  0
  -26.7060  -32.5598   23.1191 H   0  0  0  0  0  0
  -25.0057  -33.9825   25.0534 H   0  0  0  0  0  0
  -22.6769  -31.3042   21.4068 H   0  0  0  0  0  0
  -23.3760  -35.9646   23.3284 H   0  0  0  0  0  0
  -24.3600  -36.8942   22.2052 H   0  0  0  0  0  0
  -23.7204  -37.6516   23.6635 H   0  0  0  0  0  0
  -26.0123  -31.6131   20.5758 H   0  0  0  0  0  0
  -26.8059  -30.9243   21.9633 H   0  0  0  0  0  0
  -28.0701  -29.1819   21.1898 H   0  0  0  0  0  0
  -26.1167  -26.0007   19.0142 H   0  0  0  0  0  0
  -23.9974  -27.2810   19.0452 H   0  0  0  0  0  0
  -23.7038  -30.5893   19.3964 H   0  0  0  0  0  0
  -22.7298  -29.2347   19.8687 H   0  0  0  0  0  0
  -25.1288  -36.2051   25.0847 H   0  0  0  0  0  0
  -20.9930  -28.3241   24.1426 H   0  0  0  0  0  0
  -20.5659  -26.2272   23.3615 H   0  0  0  0  0  0
  -21.6641  -26.7439   22.1236 H   0  0  0  0  0  0
  -19.6936  -25.6306   21.1196 H   0  0  0  0  0  0
  -19.6713  -27.3210   20.6744 H   0  0  0  0  0  0
  -17.4209  -26.6646   21.3959 H   0  0  0  0  0  0
  -18.0285  -26.0059   22.8975 H   0  0  0  0  0  0
  -19.7944  -30.7175   24.2347 H   0  0  0  0  0  0
  -17.5036  -31.6255   24.5152 H   0  0  0  0  0  0
  -15.5363  -30.3030   23.7602 H   0  0  0  0  0  0
  -15.8626  -28.0821   22.7087 H   0  0  0  0  0  0
  -24.5958  -30.6999   25.7831 H   0  0  0  0  0  0
  -24.8920  -32.2858   26.4869 H   0  0  0  0  0  0
  -25.8151  -30.8932   27.0233 H   0  0  0  0  0  0
  -26.2759  -29.6845   24.1039 H   0  0  0  0  0  0
  -27.4031  -29.7223   25.4409 H   0  0  0  0  0  0
  -27.8587  -30.4357   23.9090 H   0  0  0  0  0  0
  -27.2682  -33.3578   26.2067 H   0  0  0  0  0  0
  -28.3857  -32.6870   25.0274 H   0  0  0  0  0  0
  -28.0710  -31.8372   26.5347 H   0  0  0  0  0  0
  -28.2609  -38.0121   24.7553 H   0  0  0  0  0  0
  -28.1127  -36.2653   24.6244 H   0  0  0  0  0  0
  -27.2307  -37.1429   25.8851 H   0  0  0  0  0  0
  -20.9278  -29.8780   21.6963 H   0  0  0  0  0  0
  -26.0209  -38.2898   24.1458 H   0  0  0  0  0  0
  -30.8600  -30.2767   17.8444 H   0  0  0  0  0  0
  -29.2751  -28.5999   18.6891 H   0  0  0  0  0  0
  -32.0583  -15.1189   25.4114 H   0  0  0  0  0  0
  -31.7607  -17.0083   26.9621 H   0  0  0  0  0  0
  -33.5418  -29.4332   21.0930 H   0  0  0  0  0  0
  -30.8693  -19.2327   27.3209 H   0  0  0  0  0  0
  -30.6572  -20.3819   26.0111 H   0  0  0  0  0  0
  -32.2727  -20.0733   26.6668 H   0  0  0  0  0  0
  -32.4588  -17.4129   21.0988 H   0  0  0  0  0  0
  -31.5145  -18.8661   21.2791 H   0  0  0  0  0  0
  -30.6993  -17.3199   21.1784 H   0  0  0  0  0  0
  -32.5060  -14.2969   23.2996 H   0  0  0  0  0  0
  -32.8875  -15.3701   22.0122 H   0  0  0  0  0  0
  -29.1105  -27.2458   21.9052 H   0  0  0  0  0  0
  -30.0181  -26.0434   21.0348 H   0  0  0  0  0  0
  -30.9544  -22.4212   22.6310 H   0  0  0  0  0  0
  -32.3170  -21.9402   21.6256 H   0  0  0  0  0  0
  -34.7042  -25.5527   22.9773 H   0  0  0  0  0  0
  -33.3119  -25.7780   24.0246 H   0  0  0  0  0  0
  -30.6283  -20.1564   22.8097 H   0  0  0  0  0  0
  -33.8054  -27.0436   21.3809 H   0  0  0  0  0  0
  -33.0911  -23.3687   24.0495 H   0  0  0  0  0  0
  -30.1738  -14.2023   22.6277 H   0  0  0  0  0  0
  1 25  1  0  0  0
  1 30  2  0  0  0
  1 96  1  0  0  0
  2  3  1  0  0  0
  2 25  1  0  0  0
  2103  1  0  0  0
  2104  1  0  0  0
  3  4  1  0  0  0
  3105  1  0  0  0
  3106  1  0  0  0
  4  5  1  0  0  0
  4107  1  0  0  0
  4108  1  0  0  0
  5  6  1  0  0  0
  5 26  1  0  0  0
  5109  1  0  0  0
  6 25  1  0  0  0
  6110  1  0  0  0
  6111  1  0  0  0
  7  8  2  0  0  0
  7 26  1  0  0  0
  7 29  1  0  0  0
  8  9  1  0  0  0
  8 22  1  0  0  0
  9 10  1  0  0  0
  9 27  2  0  0  0
 10 11  2  0  0  0
 10 15  1  0  0  0
 11 12  1  0  0  0
 11112  1  0  0  0
 12 13  2  0  0  0
 12113  1  0  0  0
 13 14  1  0  0  0
 13 31  1  0  0  0
 14 15  2  0  0  0
 14114  1  0  0  0
 15115  1  0  0  0
 16 17  2  0  0  0
 16 21  1  0  0  0
 16 31  1  0  0  0
 17 18  1  0  0  0
 17116  1  0  0  0
 18 19  2  0  0  0
 18117  1  0  0  0
 19 20  1  0  0  0
 19 24  1  0  0  0
 20 21  2  0  0  0
 20118  1  0  0  0
 21 23  1  0  0  0
 22 28  1  0  0  0
 22 32  2  0  0  0
 26 27  1  0  0  0
 28119  1  0  0  0
 28120  1  0  0  0
 29121  1  0  0  0
 29122  1  0  0  0
 33 34  1  0  0  0
 33 66  1  0  0  0
 33 70  2  0  0  0
 34 36  1  0  0  0
 34 59  1  0  0  0
 34123  1  0  0  0
 35 44  2  0  0  0
 35 45  1  0  0  0
 35 68  1  0  0  0
 36 56  1  0  0  0
 36124  1  0  0  0
 37 39  1  0  0  0
 37 47  1  0  0  0
 37 66  1  0  0  0
 37125  1  0  0  0
 38 43  2  0  0  0
 38 46  1  0  0  0
 38 47  1  0  0  0
 39 64  1  0  0  0
 39 67  2  0  0  0
 40 52  1  0  0  0
 40 53  2  0  0  0
 40 58  1  0  0  0
 41126  1  0  0  0
 41127  1  0  0  0
 41128  1  0  0  0
 41 48  1  0  0  0
 42 43  1  0  0  0
 42 66  1  0  0  0
 42129  1  0  0  0
 42130  1  0  0  0
 43 44  1  0  0  0
 44131  1  0  0  0
 45 46  2  0  0  0
 45132  1  0  0  0
 46133  1  0  0  0
 47134  1  0  0  0
 47135  1  0  0  0
 48 56  1  0  0  0
 48 65  1  0  0  0
 48136  1  0  0  0
 49 50  1  0  0  0
 49 53  1  0  0  0
 49 64  1  0  0  0
 49137  1  0  0  0
 50 51  1  0  0  0
 50138  1  0  0  0
 50139  1  0  0  0
 51 52  1  0  0  0
 51140  1  0  0  0
 51141  1  0  0  0
 52142  1  0  0  0
 52143  1  0  0  0
 53 54  1  0  0  0
 54 55  2  0  0  0
 54144  1  0  0  0
 55 57  1  0  0  0
 55145  1  0  0  0
 56 69  2  0  0  0
 57 58  2  0  0  0
 57146  1  0  0  0
 58147  1  0  0  0
 59 60  1  0  0  0
 59 61  1  0  0  0
 59 62  1  0  0  0
 60148  1  0  0  0
 60149  1  0  0  0
 60150  1  0  0  0
 61151  1  0  0  0
 61152  1  0  0  0
 61153  1  0  0  0
 62154  1  0  0  0
 62155  1  0  0  0
 62156  1  0  0  0
 63 65  1  0  0  0
 63157  1  0  0  0
 63158  1  0  0  0
 63159  1  0  0  0
 64160  1  0  0  0
 65161  1  0  0  0
 68 89  1  0  0  0
 71 72  2  0  0  0
 71 77  1  0  0  0
 71162  1  0  0  0
 72 78  1  0  0  0
 72163  1  0  0  0
 73 74  2  0  0  0
 73 79  1  0  0  0
 73164  1  0  0  0
 74 80  1  0  0  0
 74165  1  0  0  0
 75 76  1  0  0  0
 75 77  2  0  0  0
 75166  1  0  0  0
 76 78  2  0  0  0
 76 83  1  0  0  0
 77 92  1  0  0  0
 78 89  1  0  0  0
 79 81  2  0  0  0
 79 88  1  0  0  0
 80 82  2  0  0  0
 80 86  1  0  0  0
 81 82  1  0  0  0
 81 87  1  0  0  0
 82 93  1  0  0  0
 83 94  1  0  0  0
 83 97  2  0  0  0
 84 90  1  0  0  0
 84 93  1  0  0  0
 84 98  2  0  0  0
 85 91  1  0  0  0
 85 95  1  0  0  0
 85 99  2  0  0  0
 86167  1  0  0  0
 86168  1  0  0  0
 86169  1  0  0  0
 87170  1  0  0  0
 87171  1  0  0  0
 87172  1  0  0  0
 88 96  1  0  0  0
 88173  1  0  0  0
 88174  1  0  0  0
 89175  1  0  0  0
 89176  1  0  0  0
 90 95  1  0  0  0
 90177  1  0  0  0
 90178  1  0  0  0
 91 94  1  0  0  0
 91179  1  0  0  0
 91180  1  0  0  0
 92100  1  0  0  0
 92101  1  0  0  0
 92102  1  0  0  0
 93181  1  0  0  0
 94182  1  0  0  0
 95183  1  0  0  0
 96184  1  0  0  0
M  ISO  4   1 100  68 101  89 101  96 100
M  END
> <chiral flag>
0

> <version>
0

> <s_m_source_file>
/data/baiqing/PycharmProjects/Reinvent-master-3.2/result/LINK_invent/BTK/process_docking_weight1_custom_product_contain_oxygen_bond_distance_aromatic_linkinvent_7_9_3/rearranged_h_0005.sdf

> <i_m_source_file_index>
88

> <r_mmod_Potential_Energy-OPLS-2005>
-395.066162109375

> <r_mmod_Stretch_Energy-OPLS-2005>
37.5034942626953

> <r_mmod_Bend_Energy-OPLS-2005>
96.8260650634766

> <r_mmod_Torsional_Energy-OPLS-2005>
263.606018066406

> <r_mmod_Improper_Torsional_Energy-OPLS-2005>
11.1339044570923

> <r_mmod_Van_der_Waal_Energy-OPLS-2005>
194.887161254883

> <r_mmod_Electrostatic_Energy-OPLS-2005>
-734.700317382812

> <r_mmod_Solvation_Energy-OPLS-2005>
-273.847137451172

> <b_mmod_Minimization_Converged-OPLS-2005>
0

> <r_mmod_RMS_Derivative-OPLS-2005>
2.45979070663452

$$$$
91
                    3D
 Structure written by MMmdl.
154163  0  0  1  0            999 V2000
  -30.5832  -14.7724   20.4465 C   0  0  0  0  0  0
  -30.4411  -12.4705   19.4797 C   0  0  0  0  0  0
  -29.5275  -12.5463   18.2350 C   0  0  0  0  0  0
  -28.0458  -12.3683   18.6268 C   0  0  0  0  0  0
  -27.6466  -13.2439   19.8492 C   0  0  2  0  0  0
  -28.6857  -13.1588   20.9904 C   0  0  0  0  0  0
  -25.2491  -13.8220   20.5650 C   0  0  0  0  0  0
  -24.1794  -13.0452   20.9174 C   0  0  0  0  0  0
  -24.6407  -11.6934   20.8701 C   0  0  0  0  0  0
  -23.9075  -10.4324   21.0409 C   0  0  0  0  0  0
  -24.3621   -9.4240   21.9193 C   0  0  0  0  0  0
  -23.6309   -8.2267   22.0766 C   0  0  0  0  0  0
  -22.4287   -8.0310   21.3559 C   0  0  0  0  0  0
  -21.9912   -9.0274   20.4660 C   0  0  0  0  0  0
  -22.7234  -10.2164   20.3056 C   0  0  0  0  0  0
  -21.6851   -6.0756   22.5276 C   0  0  0  0  0  0
  -21.4023   -6.5638   23.8228 C   0  0  0  0  0  0
  -21.3661   -5.6770   24.9172 C   0  0  0  0  0  0
  -21.6033   -4.3047   24.7206 C   0  0  0  0  0  0
  -21.8812   -3.8152   23.4324 C   0  0  0  0  0  0
  -21.9196   -4.6969   22.3395 C   0  0  0  0  0  0
  -22.7810  -13.5265   21.1830 C   0  0  0  0  0  0
  -22.1668   -4.2164   21.0963 F   0  0  0  0  0  0
  -21.5627   -3.4523   25.7725 F   0  0  0  0  0  0
  -29.9923  -13.5236   20.4226 N   0  0  0  0  0  0
  -26.2953  -12.9457   20.3220 N   0  0  0  0  0  0
  -25.9343  -11.6587   20.5652 N   0  0  0  0  0  0
  -22.0400  -12.8313   22.0382 N   0  0  0  0  0  0
  -25.4123  -15.1957   20.4117 N   0  0  0  0  0  0
  -31.7568  -14.8974   20.0864 O   0  0  0  0  0  0
  -21.6639   -6.8898   21.4256 O   0  0  0  0  0  0
  -22.3495  -14.5561   20.6652 O   0  0  0  0  0  0
  -24.6327  -31.8545   23.2003 C   0  0  0  0  0  0
  -25.9126  -32.4765   23.8360 C   0  0  1  0  0  0
  -27.2106  -27.2338   20.1272 C   0  0  0  0  0  0
  -25.5912  -33.8566   24.2273 N   0  0  0  0  0  0
  -23.4335  -30.4792   21.5407 C   0  0  2  0  0  0
  -24.8837  -28.9288   20.1074 C   0  0  0  0  0  0
  -22.7521  -29.4581   22.4856 C   0  0  0  0  0  0
  -18.0284  -28.1407   22.8453 C   0  0  0  0  0  0
  -24.1497  -36.7307   23.2633 C   0  0  0  0  0  0
  -25.9838  -30.7548   21.3916 C   0  0  0  0  0  0
  -26.0548  -29.3766   20.7305 C   0  0  0  0  0  0
  -27.2180  -28.5377   20.7385 C   0  0  0  0  0  0
  -26.0271  -26.8835   19.4364 C   0  0  0  0  0  0
  -24.8781  -27.6956   19.4457 C   0  0  0  0  0  0
  -23.6586  -29.8203   20.1546 C   0  0  0  0  0  0
  -25.4126  -36.3107   24.0325 C   0  0  1  0  0  0
  -20.5894  -28.3722   23.1253 C   0  0  2  0  0  0
  -20.6770  -26.9429   22.5407 C   0  0  0  0  0  0
  -19.5757  -26.6382   21.5205 C   0  0  0  0  0  0
  -18.1932  -26.7942   22.1598 C   0  0  0  0  0  0
  -19.1537  -28.8880   23.2842 C   0  0  0  0  0  0
  -18.9451  -30.1470   23.8876 C   0  0  0  0  0  0
  -17.6450  -30.6601   24.0565 C   0  0  0  0  0  0
  -25.9051  -34.9453   23.5111 C   0  0  0  0  0  0
  -16.5341  -29.9104   23.6327 C   0  0  0  0  0  0
  -16.7269  -28.6526   23.0331 C   0  0  0  0  0  0
  -26.4458  -31.6608   25.0763 C   0  0  0  0  0  0
  -25.3668  -31.3756   26.1472 C   0  0  0  0  0  0
  -27.0300  -30.3029   24.6271 C   0  0  0  0  0  0
  -27.6033  -32.4335   25.7528 C   0  0  0  0  0  0
  -27.5598  -37.1824   24.8454 C   0  0  0  0  0  0
  -21.4223  -29.3061   22.3635 N   0  0  0  0  0  0
  -26.4319  -37.3796   23.9399 N   0  0  0  0  0  0
  -24.7021  -31.0474   22.1000 N   0  0  0  0  0  0
  -23.4219  -28.8069   23.2909 O   0  0  0  0  0  0
  -28.2865  -26.3112   20.2199 O   0  0  0  0  0  0
  -26.5621  -34.8915   22.4677 O   0  0  0  0  0  0
  -23.5454  -32.1361   23.7254 O   0  0  0  0  0  0
  -30.5276  -19.1230   18.7670 C   0  0  0  0  0  0
  -30.5403  -17.7595   19.1976 C   0  0  0  0  0  0
  -29.1755  -18.3692   21.1132 C   0  0  0  0  0  0
  -29.8449  -20.1109   19.5156 C   0  0  0  0  0  0
  -29.1897  -19.7535   20.6787 C   0  0  0  0  0  0
  -29.8645  -17.3217   20.3770 C   0  0  0  0  0  0
  -29.6716  -21.6206   19.2205 C   0  0  0  0  0  0
  -28.5684  -21.0524   21.2767 C   0  0  0  0  0  0
  -28.8366  -23.6361   20.6818 C   0  0  0  0  0  0
  -28.1197  -24.8427   19.8561 C   0  0  0  0  0  0
  -29.7875  -15.8742   20.7473 N   0  0  0  0  0  0
  -28.6775  -22.1540   20.2210 N   0  3  1  0  0  0
  -31.4880  -12.5934   19.1939 H   0  0  0  0  0  0
  -30.3792  -11.4871   19.9517 H   0  0  0  0  0  0
  -29.8264  -11.7989   17.4991 H   0  0  0  0  0  0
  -29.6530  -13.5143   17.7467 H   0  0  0  0  0  0
  -27.8823  -11.3144   18.8539 H   0  0  0  0  0  0
  -27.4056  -12.6022   17.7755 H   0  0  0  0  0  0
  -27.6448  -14.2747   19.4895 H   0  0  0  0  0  0
  -28.7188  -12.1539   21.4140 H   0  0  0  0  0  0
  -28.4128  -13.8205   21.8143 H   0  0  0  0  0  0
  -25.2790   -9.5725   22.4741 H   0  0  0  0  0  0
  -24.0023   -7.4667   22.7491 H   0  0  0  0  0  0
  -21.0844   -8.8814   19.8980 H   0  0  0  0  0  0
  -22.3729  -10.9692   19.6145 H   0  0  0  0  0  0
  -21.2028   -7.6157   23.9744 H   0  0  0  0  0  0
  -21.1490   -6.0497   25.9084 H   0  0  0  0  0  0
  -22.0597   -2.7621   23.2797 H   0  0  0  0  0  0
  -22.4001  -11.9992   22.4812 H   0  0  0  0  0  0
  -21.1018  -13.1399   22.2525 H   0  0  0  0  0  0
  -24.6324  -15.8339   20.5319 H   0  0  0  0  0  0
  -26.2482  -15.6508   20.0680 H   0  0  0  0  0  0
  -26.7169  -32.5416   23.1081 H   0  0  0  0  0  0
  -25.0065  -33.9732   25.0419 H   0  0  0  0  0  0
  -22.7312  -31.3028   21.3941 H   0  0  0  0  0  0
  -23.3788  -35.9616   23.3305 H   0  0  0  0  0  0
  -24.3571  -36.8932   22.2050 H   0  0  0  0  0  0
  -23.7249  -37.6496   23.6659 H   0  0  0  0  0  0
  -26.1291  -31.5146   20.6225 H   0  0  0  0  0  0
  -26.8583  -30.8069   22.0285 H   0  0  0  0  0  0
  -28.1081  -28.8644   21.2583 H   0  0  0  0  0  0
  -25.9470  -25.9653   18.8765 H   0  0  0  0  0  0
  -23.9880  -27.3650   18.9282 H   0  0  0  0  0  0
  -23.7992  -30.6008   19.4064 H   0  0  0  0  0  0
  -22.7771  -29.2618   19.8366 H   0  0  0  0  0  0
  -25.1314  -36.1977   25.0823 H   0  0  0  0  0  0
  -20.9960  -28.3310   24.1388 H   0  0  0  0  0  0
  -20.5684  -26.2308   23.3606 H   0  0  0  0  0  0
  -21.6639  -26.7462   22.1208 H   0  0  0  0  0  0
  -19.6933  -25.6288   21.1264 H   0  0  0  0  0  0
  -19.6734  -27.3165   20.6727 H   0  0  0  0  0  0
  -17.4199  -26.6666   21.4010 H   0  0  0  0  0  0
  -18.0347  -26.0117   22.9028 H   0  0  0  0  0  0
  -19.7924  -30.7290   24.2243 H   0  0  0  0  0  0
  -17.5010  -31.6274   24.5185 H   0  0  0  0  0  0
  -15.5346  -30.3007   23.7683 H   0  0  0  0  0  0
  -15.8651  -28.0877   22.7037 H   0  0  0  0  0  0
  -24.5826  -30.7134   25.7766 H   0  0  0  0  0  0
  -24.8849  -32.2914   26.4915 H   0  0  0  0  0  0
  -25.7947  -30.8887   27.0250 H   0  0  0  0  0  0
  -26.2877  -29.6796   24.1259 H   0  0  0  0  0  0
  -27.3921  -29.7279   25.4807 H   0  0  0  0  0  0
  -27.8794  -30.4291   23.9556 H   0  0  0  0  0  0
  -27.2672  -33.3640   26.2115 H   0  0  0  0  0  0
  -28.3831  -32.6895   25.0346 H   0  0  0  0  0  0
  -28.0717  -31.8454   26.5434 H   0  0  0  0  0  0
  -28.2601  -38.0124   24.7508 H   0  0  0  0  0  0
  -28.1092  -36.2664   24.6279 H   0  0  0  0  0  0
  -27.2283  -37.1472   25.8834 H   0  0  0  0  0  0
  -20.9405  -29.8816   21.6875 H   0  0  0  0  0  0
  -26.0209  -38.2869   24.1396 H   0  0  0  0  0  0
  -31.0334  -19.3919   17.8488 H   0  0  0  0  0  0
  -31.0516  -17.0362   18.5771 H   0  0  0  0  0  0
  -28.6341  -18.1139   22.0159 H   0  0  0  0  0  0
  -29.3125  -21.7754   18.2022 H   0  0  0  0  0  0
  -30.6294  -22.1298   19.3236 H   0  0  0  0  0  0
  -29.1285  -21.3328   22.1704 H   0  0  0  0  0  0
  -27.5298  -20.8928   21.5724 H   0  0  0  0  0  0
  -28.4266  -23.6931   21.6904 H   0  0  0  0  0  0
  -29.8965  -23.8567   20.7944 H   0  0  0  0  0  0
  -27.0679  -24.5698   19.8902 H   0  0  0  0  0  0
  -28.4016  -24.7566   18.8054 H   0  0  0  0  0  0
  -28.9190  -15.6054   21.1814 H   0  0  0  0  0  0
  -27.7886  -22.1021   19.7455 H   0  0  0  0  0  0
  1 25  1  0  0  0
  1 30  2  0  0  0
  1 81  1  0  0  0
  2  3  1  0  0  0
  2 25  1  0  0  0
  2 83  1  0  0  0
  2 84  1  0  0  0
  3  4  1  0  0  0
  3 85  1  0  0  0
  3 86  1  0  0  0
  4  5  1  0  0  0
  4 87  1  0  0  0
  4 88  1  0  0  0
  5  6  1  0  0  0
  5 26  1  0  0  0
  5 89  1  0  0  0
  6 25  1  0  0  0
  6 90  1  0  0  0
  6 91  1  0  0  0
  7  8  2  0  0  0
  7 26  1  0  0  0
  7 29  1  0  0  0
  8  9  1  0  0  0
  8 22  1  0  0  0
  9 10  1  0  0  0
  9 27  2  0  0  0
 10 11  2  0  0  0
 10 15  1  0  0  0
 11 12  1  0  0  0
 11 92  1  0  0  0
 12 13  2  0  0  0
 12 93  1  0  0  0
 13 14  1  0  0  0
 13 31  1  0  0  0
 14 15  2  0  0  0
 14 94  1  0  0  0
 15 95  1  0  0  0
 16 17  2  0  0  0
 16 21  1  0  0  0
 16 31  1  0  0  0
 17 18  1  0  0  0
 17 96  1  0  0  0
 18 19  2  0  0  0
 18 97  1  0  0  0
 19 20  1  0  0  0
 19 24  1  0  0  0
 20 21  2  0  0  0
 20 98  1  0  0  0
 21 23  1  0  0  0
 22 28  1  0  0  0
 22 32  2  0  0  0
 26 27  1  0  0  0
 28 99  1  0  0  0
 28100  1  0  0  0
 29101  1  0  0  0
 29102  1  0  0  0
 33 34  1  0  0  0
 33 66  1  0  0  0
 33 70  2  0  0  0
 34 36  1  0  0  0
 34 59  1  0  0  0
 34103  1  0  0  0
 35 44  2  0  0  0
 35 45  1  0  0  0
 35 68  1  0  0  0
 36 56  1  0  0  0
 36104  1  0  0  0
 37 39  1  0  0  0
 37 47  1  0  0  0
 37 66  1  0  0  0
 37105  1  0  0  0
 38 43  2  0  0  0
 38 46  1  0  0  0
 38 47  1  0  0  0
 39 64  1  0  0  0
 39 67  2  0  0  0
 40 52  1  0  0  0
 40 53  2  0  0  0
 40 58  1  0  0  0
 41106  1  0  0  0
 41107  1  0  0  0
 41108  1  0  0  0
 41 48  1  0  0  0
 42 43  1  0  0  0
 42 66  1  0  0  0
 42109  1  0  0  0
 42110  1  0  0  0
 43 44  1  0  0  0
 44111  1  0  0  0
 45 46  2  0  0  0
 45112  1  0  0  0
 46113  1  0  0  0
 47114  1  0  0  0
 47115  1  0  0  0
 48 56  1  0  0  0
 48 65  1  0  0  0
 48116  1  0  0  0
 49 50  1  0  0  0
 49 53  1  0  0  0
 49 64  1  0  0  0
 49117  1  0  0  0
 50 51  1  0  0  0
 50118  1  0  0  0
 50119  1  0  0  0
 51 52  1  0  0  0
 51120  1  0  0  0
 51121  1  0  0  0
 52122  1  0  0  0
 52123  1  0  0  0
 53 54  1  0  0  0
 54 55  2  0  0  0
 54124  1  0  0  0
 55 57  1  0  0  0
 55125  1  0  0  0
 56 69  2  0  0  0
 57 58  2  0  0  0
 57126  1  0  0  0
 58127  1  0  0  0
 59 60  1  0  0  0
 59 61  1  0  0  0
 59 62  1  0  0  0
 60128  1  0  0  0
 60129  1  0  0  0
 60130  1  0  0  0
 61131  1  0  0  0
 61132  1  0  0  0
 61133  1  0  0  0
 62134  1  0  0  0
 62135  1  0  0  0
 62136  1  0  0  0
 63 65  1  0  0  0
 63137  1  0  0  0
 63138  1  0  0  0
 63139  1  0  0  0
 64140  1  0  0  0
 65141  1  0  0  0
 68 80  1  0  0  0
 71 72  2  0  0  0
 71 74  1  0  0  0
 71142  1  0  0  0
 72 76  1  0  0  0
 72143  1  0  0  0
 73 75  1  0  0  0
 73 76  2  0  0  0
 73144  1  0  0  0
 74 75  2  0  0  0
 74 77  1  0  0  0
 75 78  1  0  0  0
 76 81  1  0  0  0
 77 82  1  0  0  0
 77145  1  0  0  0
 77146  1  0  0  0
 78 82  1  0  0  0
 78147  1  0  0  0
 78148  1  0  0  0
 79 80  1  0  0  0
 79149  1  0  0  0
 79150  1  0  0  0
 79 82  1  0  0  0
 80151  1  0  0  0
 80152  1  0  0  0
 81153  1  0  0  0
 82154  1  0  0  0
M  CHG  1  82   1
M  ISO  4   1 100  68 101  80 101  81 100
M  END
> <chiral flag>
0

> <version>
0

> <s_m_source_file>
/data/baiqing/PycharmProjects/Reinvent-master-3.2/result/LINK_invent/BTK/process_docking_weight1_custom_product_contain_oxygen_bond_distance_aromatic_linkinvent_7_9_3/rearranged_h_0005.sdf

> <i_m_source_file_index>
89

> <r_mmod_Potential_Energy-OPLS-2005>
96.9131011962891

> <r_mmod_Stretch_Energy-OPLS-2005>
134.049591064453

> <r_mmod_Bend_Energy-OPLS-2005>
207.739151000977

> <r_mmod_Torsional_Energy-OPLS-2005>
236.028625488281

> <r_mmod_Improper_Torsional_Energy-OPLS-2005>
3.86508440971375

> <r_mmod_Van_der_Waal_Energy-OPLS-2005>
134.303665161133

> <r_mmod_Electrostatic_Energy-OPLS-2005>
-265.229583740234

> <r_mmod_Solvation_Energy-OPLS-2005>
-456.243865966797

> <b_mmod_Minimization_Converged-OPLS-2005>
0

> <r_mmod_RMS_Derivative-OPLS-2005>
4.87057685852051

$$$$
92
                    3D
 Structure written by MMmdl.
155164  0  0  1  0            999 V2000
  -30.6897  -14.6229   20.4346 C   0  0  0  0  0  0
  -30.4279  -12.3655   19.4405 C   0  0  0  0  0  0
  -29.4944  -12.4008   18.2143 C   0  0  0  0  0  0
  -28.0150  -12.2855   18.6421 C   0  0  0  0  0  0
  -27.6339  -13.1939   19.8439 C   0  0  2  0  0  0
  -28.6983  -13.1440   20.9606 C   0  0  0  0  0  0
  -25.2534  -13.8099   20.5740 C   0  0  0  0  0  0
  -24.1786  -13.0397   20.9237 C   0  0  0  0  0  0
  -24.6334  -11.6862   20.8795 C   0  0  0  0  0  0
  -23.9007  -10.4263   21.0434 C   0  0  0  0  0  0
  -24.3578   -9.4180   21.9196 C   0  0  0  0  0  0
  -23.6268   -8.2211   22.0756 C   0  0  0  0  0  0
  -22.4252   -8.0252   21.3540 C   0  0  0  0  0  0
  -21.9880   -9.0223   20.4643 C   0  0  0  0  0  0
  -22.7193  -10.2111   20.3064 C   0  0  0  0  0  0
  -21.6843   -6.0711   22.5276 C   0  0  0  0  0  0
  -21.4005   -6.5622   23.8205 C   0  0  0  0  0  0
  -21.3656   -5.6780   24.9172 C   0  0  0  0  0  0
  -21.6045   -4.3043   24.7226 C   0  0  0  0  0  0
  -21.8821   -3.8133   23.4350 C   0  0  0  0  0  0
  -21.9194   -4.6944   22.3403 C   0  0  0  0  0  0
  -22.7819  -13.5213   21.1875 C   0  0  0  0  0  0
  -22.1664   -4.2132   21.0981 F   0  0  0  0  0  0
  -21.5633   -3.4531   25.7742 F   0  0  0  0  0  0
  -29.9981  -13.4437   20.3445 N   0  0  0  0  0  0
  -26.2912  -12.9213   20.3357 N   0  0  0  0  0  0
  -25.9251  -11.6403   20.5848 N   0  0  0  0  0  0
  -22.0446  -12.8217   22.0422 N   0  0  0  0  0  0
  -25.4260  -15.1821   20.4139 N   0  0  0  0  0  0
  -31.9121  -14.6521   20.2822 O   0  0  0  0  0  0
  -21.6625   -6.8848   21.4235 O   0  0  0  0  0  0
  -22.3525  -14.5525   20.6715 O   0  0  0  0  0  0
  -24.6199  -31.8648   23.2065 C   0  0  0  0  0  0
  -25.9070  -32.4809   23.8375 C   0  0  1  0  0  0
  -27.2277  -27.3797   20.1105 C   0  0  0  0  0  0
  -25.5908  -33.8606   24.2303 N   0  0  0  0  0  0
  -23.4104  -30.4888   21.5483 C   0  0  2  0  0  0
  -24.8563  -28.9519   20.1121 C   0  0  0  0  0  0
  -22.7441  -29.4647   22.4967 C   0  0  0  0  0  0
  -18.0278  -28.1385   22.8495 C   0  0  0  0  0  0
  -24.1481  -36.7293   23.2634 C   0  0  0  0  0  0
  -25.9452  -30.8155   21.3674 C   0  0  0  0  0  0
  -26.0213  -29.4479   20.7103 C   0  0  0  0  0  0
  -27.2107  -28.6725   20.7001 C   0  0  0  0  0  0
  -26.0413  -26.9197   19.4921 C   0  0  0  0  0  0
  -24.8647  -27.6906   19.4962 C   0  0  0  0  0  0
  -23.6213  -29.8239   20.1626 C   0  0  0  0  0  0
  -25.4103  -36.3098   24.0333 C   0  0  1  0  0  0
  -20.5876  -28.3675   23.1307 C   0  0  2  0  0  0
  -20.6768  -26.9408   22.5414 C   0  0  0  0  0  0
  -19.5742  -26.6397   21.5209 C   0  0  0  0  0  0
  -18.1922  -26.7932   22.1622 C   0  0  0  0  0  0
  -19.1532  -28.8845   23.2900 C   0  0  0  0  0  0
  -18.9459  -30.1450   23.8917 C   0  0  0  0  0  0
  -17.6461  -30.6587   24.0573 C   0  0  0  0  0  0
  -25.9044  -34.9469   23.5118 C   0  0  0  0  0  0
  -16.5349  -29.9091   23.6330 C   0  0  0  0  0  0
  -16.7269  -28.6506   23.0353 C   0  0  0  0  0  0
  -26.4478  -31.6601   25.0721 C   0  0  0  0  0  0
  -25.3736  -31.3723   26.1466 C   0  0  0  0  0  0
  -27.0312  -30.3038   24.6124 C   0  0  0  0  0  0
  -27.6047  -32.4327   25.7486 C   0  0  0  0  0  0
  -27.5585  -37.1789   24.8451 C   0  0  0  0  0  0
  -21.4161  -29.3037   22.3707 N   0  0  0  0  0  0
  -26.4278  -37.3796   23.9428 N   0  0  0  0  0  0
  -24.6770  -31.0713   22.0987 N   0  0  0  0  0  0
  -23.4194  -28.8186   23.3023 O   0  0  0  0  0  0
  -28.3696  -26.5844   20.1614 O   0  0  0  0  0  0
  -26.5614  -34.8928   22.4685 O   0  0  0  0  0  0
  -23.5379  -32.1419   23.7432 O   0  0  0  0  0  0
  -28.6178  -18.5415   18.3452 C   0  0  0  0  0  0
  -28.6443  -19.9375   18.5576 C   0  0  0  0  0  0
  -29.7978  -19.6309   20.6999 C   0  0  0  0  0  0
  -29.2041  -17.7109   19.3131 C   0  0  0  0  0  0
  -29.7751  -18.2223   20.4537 C   0  0  0  0  0  0
  -29.2350  -20.5099   19.7141 C   0  0  0  0  0  0
  -29.3944  -16.2372   19.2423 C   0  0  0  0  0  0
  -30.3392  -17.0180   21.2142 C   0  0  0  0  0  0
  -29.3732  -24.3017   20.6929 C   0  0  0  0  0  0
  -29.1522  -22.7608   20.9407 C   0  0  0  0  0  0
  -28.1784  -25.1377   20.1300 C   0  0  0  0  0  0
  -29.9964  -15.8071   20.3877 N   0  0  0  0  0  0
  -29.2680  -21.9284   19.7359 N   0  0  0  0  0  0
  -29.0966  -15.6024   18.2279 O   0  0  0  0  0  0
  -31.4665  -12.4753   19.1226 H   0  0  0  0  0  0
  -30.3667  -11.4005   19.9467 H   0  0  0  0  0  0
  -29.7425  -11.5792   17.5412 H   0  0  0  0  0  0
  -29.6607  -13.3049   17.6334 H   0  0  0  0  0  0
  -27.8479  -11.2426   18.9141 H   0  0  0  0  0  0
  -27.3583  -12.4825   17.7942 H   0  0  0  0  0  0
  -27.5925  -14.2027   19.4575 H   0  0  0  0  0  0
  -28.7205  -12.1604   21.4321 H   0  0  0  0  0  0
  -28.4643  -13.8630   21.7478 H   0  0  0  0  0  0
  -25.2724   -9.5661   22.4774 H   0  0  0  0  0  0
  -23.9984   -7.4600   22.7465 H   0  0  0  0  0  0
  -21.0821   -8.8728   19.8942 H   0  0  0  0  0  0
  -22.3646  -10.9651   19.6179 H   0  0  0  0  0  0
  -21.1983   -7.6127   23.9700 H   0  0  0  0  0  0
  -21.1477   -6.0512   25.9074 H   0  0  0  0  0  0
  -22.0605   -2.7595   23.2855 H   0  0  0  0  0  0
  -22.4048  -11.9870   22.4809 H   0  0  0  0  0  0
  -21.1060  -13.1244   22.2611 H   0  0  0  0  0  0
  -24.6587  -15.8365   20.5232 H   0  0  0  0  0  0
  -26.2754  -15.6217   20.0866 H   0  0  0  0  0  0
  -26.7138  -32.5502   23.1128 H   0  0  0  0  0  0
  -25.0057  -33.9761   25.0449 H   0  0  0  0  0  0
  -22.7013  -31.3070   21.4084 H   0  0  0  0  0  0
  -23.3760  -35.9606   23.3271 H   0  0  0  0  0  0
  -24.3587  -36.8936   22.2054 H   0  0  0  0  0  0
  -23.7203  -37.6476   23.6667 H   0  0  0  0  0  0
  -26.0677  -31.5820   20.6009 H   0  0  0  0  0  0
  -26.8292  -30.8650   21.9913 H   0  0  0  0  0  0
  -28.1064  -29.0494   21.1739 H   0  0  0  0  0  0
  -26.0015  -25.9556   19.0072 H   0  0  0  0  0  0
  -23.9703  -27.3037   19.0270 H   0  0  0  0  0  0
  -23.7347  -30.5994   19.4038 H   0  0  0  0  0  0
  -22.7433  -29.2480   19.8645 H   0  0  0  0  0  0
  -25.1273  -36.1951   25.0822 H   0  0  0  0  0  0
  -20.9976  -28.3243   24.1424 H   0  0  0  0  0  0
  -20.5661  -26.2283   23.3603 H   0  0  0  0  0  0
  -21.6639  -26.7447   22.1209 H   0  0  0  0  0  0
  -19.6900  -25.6313   21.1223 H   0  0  0  0  0  0
  -19.6674  -27.3223   20.6749 H   0  0  0  0  0  0
  -17.4193  -26.6691   21.4022 H   0  0  0  0  0  0
  -18.0317  -26.0069   22.9011 H   0  0  0  0  0  0
  -19.7937  -30.7259   24.2297 H   0  0  0  0  0  0
  -17.5016  -31.6268   24.5173 H   0  0  0  0  0  0
  -15.5350  -30.2995   23.7644 H   0  0  0  0  0  0
  -15.8667  -28.0826   22.7068 H   0  0  0  0  0  0
  -24.5888  -30.7094   25.7801 H   0  0  0  0  0  0
  -24.8956  -32.2893   26.4927 H   0  0  0  0  0  0
  -25.8080  -30.8872   27.0216 H   0  0  0  0  0  0
  -26.2866  -29.6800   24.1161 H   0  0  0  0  0  0
  -27.4059  -29.7273   25.4590 H   0  0  0  0  0  0
  -27.8711  -30.4351   23.9297 H   0  0  0  0  0  0
  -27.2664  -33.3628   26.2065 H   0  0  0  0  0  0
  -28.3850  -32.6886   25.0307 H   0  0  0  0  0  0
  -28.0715  -31.8452   26.5401 H   0  0  0  0  0  0
  -28.2559  -38.0132   24.7586 H   0  0  0  0  0  0
  -28.1126  -36.2673   24.6160 H   0  0  0  0  0  0
  -27.2327  -37.1305   25.8856 H   0  0  0  0  0  0
  -20.9329  -29.8756   21.6923 H   0  0  0  0  0  0
  -26.0158  -38.2860   24.1482 H   0  0  0  0  0  0
  -28.1879  -18.1248   17.4449 H   0  0  0  0  0  0
  -28.2172  -20.5745   17.7952 H   0  0  0  0  0  0
  -30.2760  -20.0209   21.5876 H   0  0  0  0  0  0
  -29.8810  -16.9445   22.2014 H   0  0  0  0  0  0
  -31.4179  -17.1233   21.3420 H   0  0  0  0  0  0
  -30.2581  -24.4576   20.0748 H   0  0  0  0  0  0
  -29.6230  -24.7408   21.6597 H   0  0  0  0  0  0
  -28.1802  -22.5943   21.4083 H   0  0  0  0  0  0
  -29.8968  -22.4155   21.6593 H   0  0  0  0  0  0
  -27.2947  -24.8782   20.7154 H   0  0  0  0  0  0
  -27.9821  -24.8250   19.1036 H   0  0  0  0  0  0
  -28.9237  -22.3722   18.8882 H   0  0  0  0  0  0
  1 25  1  0  0  0
  1 30  2  0  0  0
  1 82  1  0  0  0
  2  3  1  0  0  0
  2 25  1  0  0  0
  2 85  1  0  0  0
  2 86  1  0  0  0
  3  4  1  0  0  0
  3 87  1  0  0  0
  3 88  1  0  0  0
  4  5  1  0  0  0
  4 89  1  0  0  0
  4 90  1  0  0  0
  5  6  1  0  0  0
  5 26  1  0  0  0
  5 91  1  0  0  0
  6 25  1  0  0  0
  6 92  1  0  0  0
  6 93  1  0  0  0
  7  8  2  0  0  0
  7 26  1  0  0  0
  7 29  1  0  0  0
  8  9  1  0  0  0
  8 22  1  0  0  0
  9 10  1  0  0  0
  9 27  2  0  0  0
 10 11  2  0  0  0
 10 15  1  0  0  0
 11 12  1  0  0  0
 11 94  1  0  0  0
 12 13  2  0  0  0
 12 95  1  0  0  0
 13 14  1  0  0  0
 13 31  1  0  0  0
 14 15  2  0  0  0
 14 96  1  0  0  0
 15 97  1  0  0  0
 16 17  2  0  0  0
 16 21  1  0  0  0
 16 31  1  0  0  0
 17 18  1  0  0  0
 17 98  1  0  0  0
 18 19  2  0  0  0
 18 99  1  0  0  0
 19 20  1  0  0  0
 19 24  1  0  0  0
 20 21  2  0  0  0
 20100  1  0  0  0
 21 23  1  0  0  0
 22 28  1  0  0  0
 22 32  2  0  0  0
 26 27  1  0  0  0
 28101  1  0  0  0
 28102  1  0  0  0
 29103  1  0  0  0
 29104  1  0  0  0
 33 34  1  0  0  0
 33 66  1  0  0  0
 33 70  2  0  0  0
 34 36  1  0  0  0
 34 59  1  0  0  0
 34105  1  0  0  0
 35 44  2  0  0  0
 35 45  1  0  0  0
 35 68  1  0  0  0
 36 56  1  0  0  0
 36106  1  0  0  0
 37 39  1  0  0  0
 37 47  1  0  0  0
 37 66  1  0  0  0
 37107  1  0  0  0
 38 43  2  0  0  0
 38 46  1  0  0  0
 38 47  1  0  0  0
 39 64  1  0  0  0
 39 67  2  0  0  0
 40 52  1  0  0  0
 40 53  2  0  0  0
 40 58  1  0  0  0
 41108  1  0  0  0
 41109  1  0  0  0
 41110  1  0  0  0
 41 48  1  0  0  0
 42 43  1  0  0  0
 42 66  1  0  0  0
 42111  1  0  0  0
 42112  1  0  0  0
 43 44  1  0  0  0
 44113  1  0  0  0
 45 46  2  0  0  0
 45114  1  0  0  0
 46115  1  0  0  0
 47116  1  0  0  0
 47117  1  0  0  0
 48 56  1  0  0  0
 48 65  1  0  0  0
 48118  1  0  0  0
 49 50  1  0  0  0
 49 53  1  0  0  0
 49 64  1  0  0  0
 49119  1  0  0  0
 50 51  1  0  0  0
 50120  1  0  0  0
 50121  1  0  0  0
 51 52  1  0  0  0
 51122  1  0  0  0
 51123  1  0  0  0
 52124  1  0  0  0
 52125  1  0  0  0
 53 54  1  0  0  0
 54 55  2  0  0  0
 54126  1  0  0  0
 55 57  1  0  0  0
 55127  1  0  0  0
 56 69  2  0  0  0
 57 58  2  0  0  0
 57128  1  0  0  0
 58129  1  0  0  0
 59 60  1  0  0  0
 59 61  1  0  0  0
 59 62  1  0  0  0
 60130  1  0  0  0
 60131  1  0  0  0
 60132  1  0  0  0
 61133  1  0  0  0
 61134  1  0  0  0
 61135  1  0  0  0
 62136  1  0  0  0
 62137  1  0  0  0
 62138  1  0  0  0
 63 65  1  0  0  0
 63139  1  0  0  0
 63140  1  0  0  0
 63141  1  0  0  0
 64142  1  0  0  0
 65143  1  0  0  0
 68 81  1  0  0  0
 71 72  2  0  0  0
 71 74  1  0  0  0
 71144  1  0  0  0
 72 76  1  0  0  0
 72145  1  0  0  0
 73 75  1  0  0  0
 73 76  2  0  0  0
 73146  1  0  0  0
 74 75  2  0  0  0
 74 77  1  0  0  0
 75 78  1  0  0  0
 76 83  1  0  0  0
 77 82  1  0  0  0
 77 84  2  0  0  0
 78 82  1  0  0  0
 78147  1  0  0  0
 78148  1  0  0  0
 79 80  1  0  0  0
 79 81  1  0  0  0
 79149  1  0  0  0
 79150  1  0  0  0
 80 83  1  0  0  0
 80151  1  0  0  0
 80152  1  0  0  0
 81153  1  0  0  0
 81154  1  0  0  0
 83155  1  0  0  0
M  ISO  4   1 100  68 101  81 101  82 100
M  END
> <chiral flag>
0

> <version>
0

> <s_m_source_file>
/data/baiqing/PycharmProjects/Reinvent-master-3.2/result/LINK_invent/BTK/process_docking_weight1_custom_product_contain_oxygen_bond_distance_aromatic_linkinvent_7_9_3/rearranged_h_0005.sdf

> <i_m_source_file_index>
90

> <r_mmod_Potential_Energy-OPLS-2005>
208.852966308594

> <r_mmod_Stretch_Energy-OPLS-2005>
58.4331817626953

> <r_mmod_Bend_Energy-OPLS-2005>
190.161834716797

> <r_mmod_Torsional_Energy-OPLS-2005>
296.555389404297

> <r_mmod_Improper_Torsional_Energy-OPLS-2005>
12.1919240951538

> <r_mmod_Van_der_Waal_Energy-OPLS-2005>
144.883163452148

> <r_mmod_Electrostatic_Energy-OPLS-2005>
-341.022735595703

> <r_mmod_Solvation_Energy-OPLS-2005>
-202.720611572266

> <b_mmod_Minimization_Converged-OPLS-2005>
0

> <r_mmod_RMS_Derivative-OPLS-2005>
0.779536783695221

$$$$
93
                    3D
 Structure written by MMmdl.
153161  0  0  1  0            999 V2000
  -30.6230  -14.7093   20.4538 C   0  0  0  0  0  0
  -30.4295  -12.4264   19.4820 C   0  0  0  0  0  0
  -29.5136  -12.5061   18.2404 C   0  0  0  0  0  0
  -28.0368  -12.3397   18.6473 C   0  0  0  0  0  0
  -27.6463  -13.2317   19.8565 C   0  0  2  0  0  0
  -28.6877  -13.1482   20.9955 C   0  0  0  0  0  0
  -25.2522  -13.8203   20.5694 C   0  0  0  0  0  0
  -24.1808  -13.0447   20.9199 C   0  0  0  0  0  0
  -24.6400  -11.6925   20.8744 C   0  0  0  0  0  0
  -23.9076  -10.4299   21.0406 C   0  0  0  0  0  0
  -24.3627   -9.4213   21.9180 C   0  0  0  0  0  0
  -23.6300   -8.2246   22.0753 C   0  0  0  0  0  0
  -22.4279   -8.0286   21.3547 C   0  0  0  0  0  0
  -21.9917   -9.0259   20.4649 C   0  0  0  0  0  0
  -22.7250  -10.2137   20.3057 C   0  0  0  0  0  0
  -21.6852   -6.0742   22.5280 C   0  0  0  0  0  0
  -21.4014   -6.5645   23.8216 C   0  0  0  0  0  0
  -21.3661   -5.6794   24.9176 C   0  0  0  0  0  0
  -21.6042   -4.3057   24.7225 C   0  0  0  0  0  0
  -21.8818   -3.8150   23.4344 C   0  0  0  0  0  0
  -21.9192   -4.6969   22.3402 C   0  0  0  0  0  0
  -22.7827  -13.5227   21.1857 C   0  0  0  0  0  0
  -22.1659   -4.2158   21.0978 F   0  0  0  0  0  0
  -21.5633   -3.4539   25.7737 F   0  0  0  0  0  0
  -29.9978  -13.4844   20.4244 N   0  0  0  0  0  0
  -26.2957  -12.9412   20.3296 N   0  0  0  0  0  0
  -25.9334  -11.6550   20.5751 N   0  0  0  0  0  0
  -22.0471  -12.8224   22.0416 N   0  0  0  0  0  0
  -25.4220  -15.1925   20.4121 N   0  0  0  0  0  0
  -31.8025  -14.8032   20.1005 O   0  0  0  0  0  0
  -21.6643   -6.8882   21.4241 O   0  0  0  0  0  0
  -22.3512  -14.5532   20.6702 O   0  0  0  0  0  0
  -24.6296  -31.8572   23.2004 C   0  0  0  0  0  0
  -25.9128  -32.4764   23.8349 C   0  0  1  0  0  0
  -27.2168  -27.2748   20.1254 C   0  0  0  0  0  0
  -25.5927  -33.8566   24.2270 N   0  0  0  0  0  0
  -23.4253  -30.4813   21.5433 C   0  0  2  0  0  0
  -24.8725  -28.9342   20.1080 C   0  0  0  0  0  0
  -22.7499  -29.4606   22.4909 C   0  0  0  0  0  0
  -18.0293  -28.1383   22.8480 C   0  0  0  0  0  0
  -24.1490  -36.7290   23.2638 C   0  0  0  0  0  0
  -25.9709  -30.7731   21.3805 C   0  0  0  0  0  0
  -26.0425  -29.3972   20.7226 C   0  0  0  0  0  0
  -27.2157  -28.5783   20.7251 C   0  0  0  0  0  0
  -26.0286  -26.8901   19.4605 C   0  0  0  0  0  0
  -24.8703  -27.6881   19.4665 C   0  0  0  0  0  0
  -23.6430  -29.8190   20.1579 C   0  0  0  0  0  0
  -25.4114  -36.3074   24.0327 C   0  0  1  0  0  0
  -20.5896  -28.3694   23.1264 C   0  0  2  0  0  0
  -20.6777  -26.9409   22.5403 C   0  0  0  0  0  0
  -19.5751  -26.6379   21.5207 C   0  0  0  0  0  0
  -18.1933  -26.7923   22.1623 C   0  0  0  0  0  0
  -19.1546  -28.8856   23.2868 C   0  0  0  0  0  0
  -18.9467  -30.1457   23.8886 C   0  0  0  0  0  0
  -17.6465  -30.6582   24.0561 C   0  0  0  0  0  0
  -25.9054  -34.9444   23.5100 C   0  0  0  0  0  0
  -16.5357  -29.9080   23.6327 C   0  0  0  0  0  0
  -16.7279  -28.6499   23.0346 C   0  0  0  0  0  0
  -26.4502  -31.6580   25.0730 C   0  0  0  0  0  0
  -25.3727  -31.3728   26.1452 C   0  0  0  0  0  0
  -27.0351  -30.2997   24.6211 C   0  0  0  0  0  0
  -27.6056  -32.4321   25.7503 C   0  0  0  0  0  0
  -27.5578  -37.1799   24.8464 C   0  0  0  0  0  0
  -21.4207  -29.3045   22.3658 N   0  0  0  0  0  0
  -26.4290  -37.3769   23.9407 N   0  0  0  0  0  0
  -24.6941  -31.0553   22.0973 N   0  0  0  0  0  0
  -23.4208  -28.8135   23.2991 O   0  0  0  0  0  0
  -28.3083  -26.3795   20.2115 O   0  0  0  0  0  0
  -26.5627  -34.8913   22.4671 O   0  0  0  0  0  0
  -23.5448  -32.1388   23.7302 O   0  0  0  0  0  0
  -30.6261  -18.6052   18.2261 C   0  0  0  0  0  0
  -30.2299  -19.7864   18.8820 C   0  0  0  0  0  0
  -30.5183  -17.3463   18.8492 C   0  0  0  0  0  0
  -29.5692  -18.4390   20.8022 C   0  0  0  0  0  0
  -29.6894  -19.7538   20.1847 C   0  0  0  0  0  0
  -30.0014  -17.2070   20.1580 C   0  0  0  0  0  0
  -29.3864  -21.1440   20.8984 C   0  0  0  0  0  0
  -29.0084  -23.7628   20.5921 C   0  0  0  0  0  0
  -28.0897  -24.9168   19.9405 C   0  0  0  0  0  0
  -29.8715  -15.8427   20.7257 N   0  0  0  0  0  0
  -28.8066  -22.3154   20.0979 N   0  3  0  0  0  0
  -31.4748  -12.5329   19.1863 H   0  0  0  0  0  0
  -30.3548  -11.4459   19.9548 H   0  0  0  0  0  0
  -29.7915  -11.7397   17.5161 H   0  0  0  0  0  0
  -29.6527  -13.4654   17.7391 H   0  0  0  0  0  0
  -27.8820  -11.2896   18.8981 H   0  0  0  0  0  0
  -27.3853  -12.5473   17.7977 H   0  0  0  0  0  0
  -27.6485  -14.2575   19.4864 H   0  0  0  0  0  0
  -28.7091  -12.1482   21.4308 H   0  0  0  0  0  0
  -28.4274  -13.8273   21.8084 H   0  0  0  0  0  0
  -25.2774   -9.5691   22.4753 H   0  0  0  0  0  0
  -24.0018   -7.4637   22.7468 H   0  0  0  0  0  0
  -21.0851   -8.8776   19.8953 H   0  0  0  0  0  0
  -22.3707  -10.9673   19.6166 H   0  0  0  0  0  0
  -21.2004   -7.6150   23.9722 H   0  0  0  0  0  0
  -21.1486   -6.0523   25.9080 H   0  0  0  0  0  0
  -22.0595   -2.7614   23.2838 H   0  0  0  0  0  0
  -22.4088  -11.9896   22.4827 H   0  0  0  0  0  0
  -21.1081  -13.1241   22.2602 H   0  0  0  0  0  0
  -24.6553  -15.8469   20.5236 H   0  0  0  0  0  0
  -26.2723  -15.6322   20.0829 H   0  0  0  0  0  0
  -26.7193  -32.5421   23.1092 H   0  0  0  0  0  0
  -25.0068  -33.9712   25.0411 H   0  0  0  0  0  0
  -22.7200  -31.3023   21.3995 H   0  0  0  0  0  0
  -23.3749  -35.9626   23.3299 H   0  0  0  0  0  0
  -24.3579  -36.8917   22.2053 H   0  0  0  0  0  0
  -23.7254  -37.6493   23.6667 H   0  0  0  0  0  0
  -26.1113  -31.5324   20.6099 H   0  0  0  0  0  0
  -26.8484  -30.8207   22.0137 H   0  0  0  0  0  0
  -28.1073  -28.9240   21.2295 H   0  0  0  0  0  0
  -25.9565  -25.9505   18.9342 H   0  0  0  0  0  0
  -23.9781  -27.3336   18.9688 H   0  0  0  0  0  0
  -23.7671  -30.5971   19.4039 H   0  0  0  0  0  0
  -22.7617  -29.2523   19.8521 H   0  0  0  0  0  0
  -25.1295  -36.1922   25.0818 H   0  0  0  0  0  0
  -20.9992  -28.3274   24.1385 H   0  0  0  0  0  0
  -20.5667  -26.2308   23.3612 H   0  0  0  0  0  0
  -21.6646  -26.7425   22.1204 H   0  0  0  0  0  0
  -19.6910  -25.6290   21.1240 H   0  0  0  0  0  0
  -19.6684  -27.3189   20.6736 H   0  0  0  0  0  0
  -17.4199  -26.6666   21.4030 H   0  0  0  0  0  0
  -18.0334  -26.0071   22.9027 H   0  0  0  0  0  0
  -19.7944  -30.7275   24.2249 H   0  0  0  0  0  0
  -17.5019  -31.6259   24.5167 H   0  0  0  0  0  0
  -15.5355  -30.2977   23.7654 H   0  0  0  0  0  0
  -15.8681  -28.0816   22.7060 H   0  0  0  0  0  0
  -24.5902  -30.7077   25.7781 H   0  0  0  0  0  0
  -24.8920  -32.2898   26.4869 H   0  0  0  0  0  0
  -25.8044  -30.8910   27.0235 H   0  0  0  0  0  0
  -26.2937  -29.6739   24.1229 H   0  0  0  0  0  0
  -27.4032  -29.7262   25.4728 H   0  0  0  0  0  0
  -27.8816  -30.4275   23.9459 H   0  0  0  0  0  0
  -27.2663  -33.3624   26.2072 H   0  0  0  0  0  0
  -28.3871  -32.6874   25.0334 H   0  0  0  0  0  0
  -28.0721  -31.8454   26.5429 H   0  0  0  0  0  0
  -28.2590  -38.0098   24.7503 H   0  0  0  0  0  0
  -28.1077  -36.2628   24.6296 H   0  0  0  0  0  0
  -27.2293  -37.1457   25.8866 H   0  0  0  0  0  0
  -20.9383  -29.8794   21.6891 H   0  0  0  0  0  0
  -26.0167  -38.2844   24.1400 H   0  0  0  0  0  0
  -31.0326  -18.6655   17.2258 H   0  0  0  0  0  0
  -30.3700  -20.7284   18.3703 H   0  0  0  0  0  0
  -30.8343  -16.4789   18.2871 H   0  0  0  0  0  0
  -29.1690  -18.3820   21.8051 H   0  0  0  0  0  0
  -30.3351  -21.4785   21.3194 H   0  0  0  0  0  0
  -28.7356  -20.9626   21.7546 H   0  0  0  0  0  0
  -28.8490  -23.7787   21.6703 H   0  0  0  0  0  0
  -30.0570  -24.0215   20.4411 H   0  0  0  0  0  0
  -27.0775  -24.6537   20.2475 H   0  0  0  0  0  0
  -28.1175  -24.8000   18.8566 H   0  0  0  0  0  0
  -29.0115  -15.6658   21.2230 H   0  0  0  0  0  0
  -27.8192  -22.1326   20.0145 H   0  0  0  0  0  0
  -29.1856  -22.2601   19.1672 H   0  0  0  0  0  0
  1 25  1  0  0  0
  1 30  2  0  0  0
  1 80  1  0  0  0
  2  3  1  0  0  0
  2 25  1  0  0  0
  2 82  1  0  0  0
  2 83  1  0  0  0
  3  4  1  0  0  0
  3 84  1  0  0  0
  3 85  1  0  0  0
  4  5  1  0  0  0
  4 86  1  0  0  0
  4 87  1  0  0  0
  5  6  1  0  0  0
  5 26  1  0  0  0
  5 88  1  0  0  0
  6 25  1  0  0  0
  6 89  1  0  0  0
  6 90  1  0  0  0
  7  8  2  0  0  0
  7 26  1  0  0  0
  7 29  1  0  0  0
  8  9  1  0  0  0
  8 22  1  0  0  0
  9 10  1  0  0  0
  9 27  2  0  0  0
 10 11  2  0  0  0
 10 15  1  0  0  0
 11 12  1  0  0  0
 11 91  1  0  0  0
 12 13  2  0  0  0
 12 92  1  0  0  0
 13 14  1  0  0  0
 13 31  1  0  0  0
 14 15  2  0  0  0
 14 93  1  0  0  0
 15 94  1  0  0  0
 16 17  2  0  0  0
 16 21  1  0  0  0
 16 31  1  0  0  0
 17 18  1  0  0  0
 17 95  1  0  0  0
 18 19  2  0  0  0
 18 96  1  0  0  0
 19 20  1  0  0  0
 19 24  1  0  0  0
 20 21  2  0  0  0
 20 97  1  0  0  0
 21 23  1  0  0  0
 22 28  1  0  0  0
 22 32  2  0  0  0
 26 27  1  0  0  0
 28 98  1  0  0  0
 28 99  1  0  0  0
 29100  1  0  0  0
 29101  1  0  0  0
 33 34  1  0  0  0
 33 66  1  0  0  0
 33 70  2  0  0  0
 34 36  1  0  0  0
 34 59  1  0  0  0
 34102  1  0  0  0
 35 44  2  0  0  0
 35 45  1  0  0  0
 35 68  1  0  0  0
 36 56  1  0  0  0
 36103  1  0  0  0
 37 39  1  0  0  0
 37 47  1  0  0  0
 37 66  1  0  0  0
 37104  1  0  0  0
 38 43  2  0  0  0
 38 46  1  0  0  0
 38 47  1  0  0  0
 39 64  1  0  0  0
 39 67  2  0  0  0
 40 52  1  0  0  0
 40 53  2  0  0  0
 40 58  1  0  0  0
 41105  1  0  0  0
 41106  1  0  0  0
 41107  1  0  0  0
 41 48  1  0  0  0
 42 43  1  0  0  0
 42 66  1  0  0  0
 42108  1  0  0  0
 42109  1  0  0  0
 43 44  1  0  0  0
 44110  1  0  0  0
 45 46  2  0  0  0
 45111  1  0  0  0
 46112  1  0  0  0
 47113  1  0  0  0
 47114  1  0  0  0
 48 56  1  0  0  0
 48 65  1  0  0  0
 48115  1  0  0  0
 49 50  1  0  0  0
 49 53  1  0  0  0
 49 64  1  0  0  0
 49116  1  0  0  0
 50 51  1  0  0  0
 50117  1  0  0  0
 50118  1  0  0  0
 51 52  1  0  0  0
 51119  1  0  0  0
 51120  1  0  0  0
 52121  1  0  0  0
 52122  1  0  0  0
 53 54  1  0  0  0
 54 55  2  0  0  0
 54123  1  0  0  0
 55 57  1  0  0  0
 55124  1  0  0  0
 56 69  2  0  0  0
 57 58  2  0  0  0
 57125  1  0  0  0
 58126  1  0  0  0
 59 60  1  0  0  0
 59 61  1  0  0  0
 59 62  1  0  0  0
 60127  1  0  0  0
 60128  1  0  0  0
 60129  1  0  0  0
 61130  1  0  0  0
 61131  1  0  0  0
 61132  1  0  0  0
 62133  1  0  0  0
 62134  1  0  0  0
 62135  1  0  0  0
 63 65  1  0  0  0
 63136  1  0  0  0
 63137  1  0  0  0
 63138  1  0  0  0
 64139  1  0  0  0
 65140  1  0  0  0
 68 79  1  0  0  0
 71 72  2  0  0  0
 71 73  1  0  0  0
 71141  1  0  0  0
 72 75  1  0  0  0
 72142  1  0  0  0
 73 76  2  0  0  0
 73143  1  0  0  0
 74 75  2  0  0  0
 74 76  1  0  0  0
 74144  1  0  0  0
 75 77  1  0  0  0
 76 80  1  0  0  0
 77 81  1  0  0  0
 77145  1  0  0  0
 77146  1  0  0  0
 78 79  1  0  0  0
 78 81  1  0  0  0
 78147  1  0  0  0
 78148  1  0  0  0
 79149  1  0  0  0
 79150  1  0  0  0
 80151  1  0  0  0
 81152  1  0  0  0
 81153  1  0  0  0
M  CHG  1  81   1
M  ISO  4   1 100  68 101  79 101  80 100
M  END
> <chiral flag>
0

> <version>
0

> <s_m_source_file>
/data/baiqing/PycharmProjects/Reinvent-master-3.2/result/LINK_invent/BTK/process_docking_weight1_custom_product_contain_oxygen_bond_distance_aromatic_linkinvent_7_9_3/rearranged_h_0005.sdf

> <i_m_source_file_index>
91

> <r_mmod_Potential_Energy-OPLS-2005>
-34.7456741333008

> <r_mmod_Stretch_Energy-OPLS-2005>
112.539047241211

> <r_mmod_Bend_Energy-OPLS-2005>
147.294815063477

> <r_mmod_Torsional_Energy-OPLS-2005>
227.704132080078

> <r_mmod_Improper_Torsional_Energy-OPLS-2005>
4.58505725860596

> <r_mmod_Van_der_Waal_Energy-OPLS-2005>
142.705841064453

> <r_mmod_Electrostatic_Energy-OPLS-2005>
-269.937713623047

> <r_mmod_Solvation_Energy-OPLS-2005>
-475.085266113281

> <b_mmod_Minimization_Converged-OPLS-2005>
0

> <r_mmod_RMS_Derivative-OPLS-2005>
0.710408389568329

$$$$
94
                    3D
 Structure written by MMmdl.
213223  0  0  1  0            999 V2000
  -29.0386  -16.2467   20.5050 C   0  0  0  0  0  0
  -30.1125  -13.6971   19.6869 C   0  0  0  0  0  0
  -29.4983  -12.9096   18.4640 C   0  0  0  0  0  0
  -28.1175  -12.3230   18.8077 C   0  0  0  0  0  0
  -27.4254  -13.2923   19.7827 C   0  0  2  0  0  0
  -28.2496  -13.7211   20.9882 C   0  0  0  0  0  0
  -25.1455  -13.8081   20.5652 C   0  0  0  0  0  0
  -24.1037  -13.0182   20.9289 C   0  0  0  0  0  0
  -24.5817  -11.6717   20.8686 C   0  0  0  0  0  0
  -23.8731  -10.4094   21.0414 C   0  0  0  0  0  0
  -24.3435   -9.4083   21.9176 C   0  0  0  0  0  0
  -23.6194   -8.2088   22.0730 C   0  0  0  0  0  0
  -22.4180   -8.0115   21.3520 C   0  0  0  0  0  0
  -21.9730   -9.0023   20.4618 C   0  0  0  0  0  0
  -22.6968  -10.1916   20.3027 C   0  0  0  0  0  0
  -21.6799   -6.0660   22.5294 C   0  0  0  0  0  0
  -21.3995   -6.5598   23.8224 C   0  0  0  0  0  0
  -21.3662   -5.6766   24.9197 C   0  0  0  0  0  0
  -21.6047   -4.3027   24.7252 C   0  0  0  0  0  0
  -21.8815   -3.8100   23.4379 C   0  0  0  0  0  0
  -21.9173   -4.6903   22.3429 C   0  0  0  0  0  0
  -22.7179  -13.4946   21.2131 C   0  0  0  0  0  0
  -22.1639   -4.2104   21.1000 F   0  0  0  0  0  0
  -21.5635   -3.4517   25.7763 F   0  0  0  0  0  0
  -29.1034  -14.7185   20.3793 N   0  0  0  0  0  0
  -26.1530  -12.9220   20.2629 N   0  0  0  0  0  0
  -25.8598  -11.6340   20.5287 N   0  0  0  0  0  0
  -21.9967  -12.7886   22.0754 N   0  0  0  0  0  0
  -25.3112  -15.1885   20.4465 N   0  0  0  0  0  0
  -30.3123  -16.3816   20.3783 O   0  0  0  0  0  0
  -21.6567   -6.8736   21.4228 O   0  0  0  0  0  0
  -22.2880  -14.5285   20.7039 O   0  0  0  0  0  0
  -24.6156  -31.9120   23.2310 C   0  0  0  0  0  0
  -25.9079  -32.5049   23.8656 C   0  0  1  0  0  0
  -27.1365  -27.5635   19.9725 C   0  0  0  0  0  0
  -25.6003  -33.8819   24.2598 N   0  0  0  0  0  0
  -23.4330  -30.5288   21.5784 C   0  0  2  0  0  0
  -24.8337  -29.1255   20.0786 C   0  0  0  0  0  0
  -23.0126  -29.3454   22.4583 C   0  0  0  0  0  0
  -18.3976  -27.7367   22.3642 C   0  0  0  0  0  0
  -24.1509  -36.7373   23.2624 C   0  0  0  0  0  0
  -25.9527  -30.8862   21.4150 C   0  0  0  0  0  0
  -25.9952  -29.5447   20.7391 C   0  0  0  0  0  0
  -27.1441  -28.7268   20.7565 C   0  0  0  0  0  0
  -25.9976  -27.2897   19.1792 C   0  0  0  0  0  0
  -24.8062  -27.9705   19.3259 C   0  0  0  0  0  0
  -23.6252  -29.9988   20.1468 C   0  0  0  0  0  0
  -25.4111  -36.3222   24.0374 C   0  0  1  0  0  0
  -21.2625  -27.7847   22.9779 C   0  0  2  0  0  0
  -21.6863  -25.6803   23.4836 C   0  0  0  0  0  0
  -19.6507  -24.6192   22.7393 C   0  0  0  0  0  0
  -18.4754  -26.0232   21.9475 C   0  0  0  0  0  0
  -19.6257  -28.5313   22.8028 C   0  0  0  0  0  0
  -19.3197  -29.7791   23.5122 C   0  0  0  0  0  0
  -18.0127  -30.3042   23.7696 C   0  0  0  0  0  0
  -25.9032  -34.9590   23.5230 C   0  0  0  0  0  0
  -16.8903  -29.5720   23.3585 C   0  0  0  0  0  0
  -17.0986  -28.3243   22.6978 C   0  0  0  0  0  0
  -26.4499  -31.6657   25.0855 C   0  0  0  0  0  0
  -25.3795  -31.3671   26.1590 C   0  0  0  0  0  0
  -27.0347  -30.3126   24.6134 C   0  0  0  0  0  0
  -27.6110  -32.4318   25.7576 C   0  0  0  0  0  0
  -27.5610  -37.1843   24.8470 C   0  0  0  0  0  0
  -21.9284  -28.6954   22.1026 N   0  0  0  0  0  0
  -26.4321  -37.3862   23.9422 N   0  0  0  0  0  0
  -24.6781  -31.1469   22.1139 N   0  0  0  0  0  0
  -23.6737  -28.9602   23.4185 O   0  0  0  0  0  0
  -28.2046  -26.7118   19.9789 O   0  0  0  0  0  0
  -26.5474  -34.8960   22.4710 O   0  0  0  0  0  0
  -23.5313  -32.1697   23.7739 O   0  0  0  0  0  0
  -21.5172  -23.0786   23.1579 C   0  0  0  0  0  0
  -21.5709  -23.8862   21.6630 C   0  0  0  0  0  0
  -19.7534  -26.3645   23.9472 C   0  0  0  0  0  0
  -21.0052  -23.6283   24.7029 C   0  0  0  0  0  0
  -21.1041  -25.5677   21.4435 C   0  0  0  0  0  0
  -20.0636  -25.0515   25.1118 C   0  0  0  0  0  0
  -24.7879  -22.9822   25.6622 C   0  0  0  0  0  0
  -30.1918  -22.0171   24.8186 C   0  0  0  0  0  0
  -30.3923  -23.5463   24.8500 C   0  0  0  0  0  0
  -27.7772  -21.7354   23.9761 C   0  0  0  0  0  0
  -28.0231  -24.2397   24.2675 C   0  0  0  0  0  0
  -27.2914  -22.9614   24.8126 C   0  0  1  0  0  0
  -29.2977  -21.7638   23.5862 C   0  0  1  0  0  0
  -29.4898  -24.0313   23.7091 C   0  0  2  0  0  0
  -27.6824  -21.6863   16.0758 C   0  0  0  0  0  0
  -23.3733  -23.0135   25.0116 C   0  0  0  0  0  0
  -28.2591  -23.0903   16.3948 C   0  0  0  0  0  0
  -27.6928  -23.0116   20.0824 C   0  0  0  0  0  0
  -27.9007  -24.4317   20.6121 C   0  0  0  0  0  0
  -25.0404  -20.8766   20.7800 C   0  0  0  0  0  0
  -31.1649  -23.8887   20.7700 C   0  0  0  0  0  0
  -26.7248  -19.2542   20.9825 C   0  0  0  0  0  0
  -30.8684  -22.7998   21.8939 C   0  0  0  0  0  0
  -29.6731  -23.1743   17.0829 C   0  0  0  0  0  0
  -28.8474  -22.3645   19.3084 C   0  0  0  0  0  0
  -31.0813  -23.5555   19.1997 C   0  0  0  0  0  0
  -27.8466  -25.4213   19.5042 C   0  0  0  0  0  0
  -23.8217  -22.8814   20.7589 C   0  0  0  0  0  0
  -22.0033  -23.1881   25.6450 N   0  0  0  0  0  0
  -25.8032  -23.0998   24.7540 N   0  0  0  0  0  0
  -27.7555  -17.4788   20.5314 N   0  0  0  0  0  0
  -29.5769  -22.9239   22.7039 N   0  3  1  0  0  0
  -29.7091  -23.3374   18.5832 N   0  3  1  0  0  0
  -24.9410  -22.7946   26.8690 O   0  0  0  0  0  0
  -22.6864  -24.6167   21.2123 O   0  0  0  0  0  0
  -19.7187  -25.2465   26.4090 F   0  0  0  0  0  0
  -30.9838  -14.2514   19.3405 H   0  0  0  0  0  0
  -30.5370  -13.0116   20.4222 H   0  0  0  0  0  0
  -30.1794  -12.1418   18.0957 H   0  0  0  0  0  0
  -29.3782  -13.6337   17.6532 H   0  0  0  0  0  0
  -28.2275  -11.3411   19.2770 H   0  0  0  0  0  0
  -27.5245  -12.2055   17.8954 H   0  0  0  0  0  0
  -27.2140  -14.1603   19.1463 H   0  0  0  0  0  0
  -28.7402  -12.8853   21.4877 H   0  0  0  0  0  0
  -27.6492  -14.2185   21.7538 H   0  0  0  0  0  0
  -25.2568   -9.5653   22.4746 H   0  0  0  0  0  0
  -23.9959   -7.4474   22.7409 H   0  0  0  0  0  0
  -21.0685   -8.8475   19.8912 H   0  0  0  0  0  0
  -22.3401  -10.9454   19.6158 H   0  0  0  0  0  0
  -21.1985   -7.6108   23.9725 H   0  0  0  0  0  0
  -21.1509   -6.0498   25.9107 H   0  0  0  0  0  0
  -22.0606   -2.7562   23.2886 H   0  0  0  0  0  0
  -22.3634  -11.9536   22.5100 H   0  0  0  0  0  0
  -21.0617  -13.0907   22.3112 H   0  0  0  0  0  0
  -24.5546  -15.8286   20.6613 H   0  0  0  0  0  0
  -26.1762  -15.6713   20.2397 H   0  0  0  0  0  0
  -26.7200  -32.5839   23.1493 H   0  0  0  0  0  0
  -25.0290  -34.0045   25.0836 H   0  0  0  0  0  0
  -22.6255  -31.2597   21.5623 H   0  0  0  0  0  0
  -23.3780  -35.9688   23.3266 H   0  0  0  0  0  0
  -24.3659  -36.8951   22.2045 H   0  0  0  0  0  0
  -23.7228  -37.6585   23.6584 H   0  0  0  0  0  0
  -26.1125  -31.6645   20.6704 H   0  0  0  0  0  0
  -26.8337  -30.9080   22.0406 H   0  0  0  0  0  0
  -28.0103  -28.9740   21.3523 H   0  0  0  0  0  0
  -25.9661  -26.5950   18.3603 H   0  0  0  0  0  0
  -23.9375  -27.7314   18.7280 H   0  0  0  0  0  0
  -23.7601  -30.8204   19.4424 H   0  0  0  0  0  0
  -22.7529  -29.4539   19.7898 H   0  0  0  0  0  0
  -25.1250  -36.2146   25.0862 H   0  0  0  0  0  0
  -21.4717  -28.2012   23.9695 H   0  0  0  0  0  0
  -20.1054  -24.6721   23.0924 H   0  0  0  0  0  0
  -22.1530  -25.8492   24.5862 H   0  0  0  0  0  0
  -19.3710  -23.6302   22.1016 H   0  0  0  0  0  0
  -21.4173  -25.1626   23.3184 H   0  0  0  0  0  0
  -18.6037  -26.0227   20.8662 H   0  0  0  0  0  0
  -17.4547  -25.6568   22.0738 H   0  0  0  0  0  0
  -20.1517  -30.3330   23.9314 H   0  0  0  0  0  0
  -17.8878  -31.2355   24.3056 H   0  0  0  0  0  0
  -15.8918  -29.9345   23.5684 H   0  0  0  0  0  0
  -16.2117  -27.7481   22.4721 H   0  0  0  0  0  0
  -24.5980  -30.7026   25.7881 H   0  0  0  0  0  0
  -24.8999  -32.2798   26.5133 H   0  0  0  0  0  0
  -25.8202  -30.8772   27.0282 H   0  0  0  0  0  0
  -26.2936  -29.6921   24.1086 H   0  0  0  0  0  0
  -27.4086  -29.7288   25.4553 H   0  0  0  0  0  0
  -27.8797  -30.4489   23.9377 H   0  0  0  0  0  0
  -27.2765  -33.3546   26.2305 H   0  0  0  0  0  0
  -28.3819  -32.6981   25.0339 H   0  0  0  0  0  0
  -28.0895  -31.8354   26.5342 H   0  0  0  0  0  0
  -28.2604  -38.0167   24.7559 H   0  0  0  0  0  0
  -28.1131  -36.2697   24.6235 H   0  0  0  0  0  0
  -27.2335  -37.1425   25.8877 H   0  0  0  0  0  0
  -21.4215  -29.0013   21.2844 H   0  0  0  0  0  0
  -26.0234  -38.2942   24.1437 H   0  0  0  0  0  0
  -21.8342  -22.0555   23.0913 H   0  0  0  0  0  0
  -21.3807  -23.1877   20.8376 H   0  0  0  0  0  0
  -19.0960  -27.0869   24.4177 H   0  0  0  0  0  0
  -29.7328  -21.6298   25.7291 H   0  0  0  0  0  0
  -31.1514  -21.5167   24.6920 H   0  0  0  0  0  0
  -31.4309  -23.8157   24.6396 H   0  0  0  0  0  0
  -30.1387  -23.9862   25.8150 H   0  0  0  0  0  0
  -27.1787  -21.6676   23.0723 H   0  0  0  0  0  0
  -27.5493  -20.8145   24.5119 H   0  0  0  0  0  0
  -28.0675  -24.9727   25.0749 H   0  0  0  0  0  0
  -27.4102  -24.7216   23.5091 H   0  0  0  0  0  0
  -27.5850  -22.8015   25.8502 H   0  0  0  0  0  0
  -29.5541  -20.8249   23.0914 H   0  0  0  0  0  0
  -29.8424  -24.9757   23.2906 H   0  0  0  0  0  0
  -26.5907  -21.6977   16.0955 H   0  0  0  0  0  0
  -28.0120  -20.8949   16.7448 H   0  0  0  0  0  0
  -27.9552  -21.3628   15.0722 H   0  0  0  0  0  0
  -23.3720  -22.0502   24.4985 H   0  0  0  0  0  0
  -23.5156  -23.8112   24.2792 H   0  0  0  0  0  0
  -28.3472  -23.5690   15.4186 H   0  0  0  0  0  0
  -27.5010  -23.6998   16.8874 H   0  0  0  0  0  0
  -27.5037  -22.3975   20.9447 H   0  0  0  0  0  0
  -26.7851  -22.9524   19.4738 H   0  0  0  0  0  0
  -28.7758  -24.6211   21.1754 H   0  0  0  0  0  0
  -27.1173  -24.6789   21.3211 H   0  0  0  0  0  0
  -25.1596  -20.9493   19.6977 H   0  0  0  0  0  0
  -25.7195  -21.4873   21.3598 H   0  0  0  0  0  0
  -32.2118  -24.1675   20.9469 H   0  0  0  0  0  0
  -30.7018  -24.8425   21.0079 H   0  0  0  0  0  0
  -26.3970  -18.8846   21.9582 H   0  0  0  0  0  0
  -27.5607  -19.8968   21.2481 H   0  0  0  0  0  0
  -31.6934  -22.8223   22.6055 H   0  0  0  0  0  0
  -30.9653  -21.7964   21.4688 H   0  0  0  0  0  0
  -30.1431  -24.0591   16.6505 H   0  0  0  0  0  0
  -30.2899  -22.3318   16.7774 H   0  0  0  0  0  0
  -28.3884  -21.6054   18.6805 H   0  0  0  0  0  0
  -29.4432  -21.7768   19.9896 H   0  0  0  0  0  0
  -31.7576  -22.7328   18.9346 H   0  0  0  0  0  0
  -31.5064  -24.4278   18.6743 H   0  0  0  0  0  0
  -28.3389  -25.2519   18.5625 H   0  0  0  0  0  0
  -26.8346  -25.1624   19.2397 H   0  0  0  0  0  0
  -24.6316  -23.4863   20.3558 H   0  0  0  0  0  0
  -23.2308  -22.6149   19.8816 H   0  0  0  0  0  0
  -21.9992  -23.6881   26.5310 H   0  0  0  0  0  0
  -25.4581  -23.3015   23.8281 H   0  0  0  0  0  0
  -28.0861  -17.8187   19.6367 H   0  0  0  0  0  0
  -28.8256  -23.0058   22.0343 H   0  0  0  0  0  0
  -29.2709  -24.2425   18.6946 H   0  0  0  0  0  0
  1 25  1  0  0  0
  1 30  2  0  0  0
  1101  1  0  0  0
  2  3  1  0  0  0
  2 25  1  0  0  0
  2107  1  0  0  0
  2108  1  0  0  0
  3  4  1  0  0  0
  3109  1  0  0  0
  3110  1  0  0  0
  4  5  1  0  0  0
  4111  1  0  0  0
  4112  1  0  0  0
  5  6  1  0  0  0
  5 26  1  0  0  0
  5113  1  0  0  0
  6 25  1  0  0  0
  6114  1  0  0  0
  6115  1  0  0  0
  7  8  2  0  0  0
  7 26  1  0  0  0
  7 29  1  0  0  0
  8  9  1  0  0  0
  8 22  1  0  0  0
  9 10  1  0  0  0
  9 27  2  0  0  0
 10 11  2  0  0  0
 10 15  1  0  0  0
 11 12  1  0  0  0
 11116  1  0  0  0
 12 13  2  0  0  0
 12117  1  0  0  0
 13 14  1  0  0  0
 13 31  1  0  0  0
 14 15  2  0  0  0
 14118  1  0  0  0
 15119  1  0  0  0
 16 17  2  0  0  0
 16 21  1  0  0  0
 16 31  1  0  0  0
 17 18  1  0  0  0
 17120  1  0  0  0
 18 19  2  0  0  0
 18121  1  0  0  0
 19 20  1  0  0  0
 19 24  1  0  0  0
 20 21  2  0  0  0
 20122  1  0  0  0
 21 23  1  0  0  0
 22 28  1  0  0  0
 22 32  2  0  0  0
 26 27  1  0  0  0
 28123  1  0  0  0
 28124  1  0  0  0
 29125  1  0  0  0
 29126  1  0  0  0
 33 34  1  0  0  0
 33 66  1  0  0  0
 33 70  2  0  0  0
 34 36  1  0  0  0
 34 59  1  0  0  0
 34127  1  0  0  0
 35 44  2  0  0  0
 35 45  1  0  0  0
 35 68  1  0  0  0
 36 56  1  0  0  0
 36128  1  0  0  0
 37 39  1  0  0  0
 37 47  1  0  0  0
 37 66  1  0  0  0
 37129  1  0  0  0
 38 43  2  0  0  0
 38 46  1  0  0  0
 38 47  1  0  0  0
 39 64  1  0  0  0
 39 67  2  0  0  0
 40 52  1  0  0  0
 40 53  2  0  0  0
 40 58  1  0  0  0
 41130  1  0  0  0
 41131  1  0  0  0
 41132  1  0  0  0
 41 48  1  0  0  0
 42 43  1  0  0  0
 42 66  1  0  0  0
 42133  1  0  0  0
 42134  1  0  0  0
 43 44  1  0  0  0
 44135  1  0  0  0
 45 46  2  0  0  0
 45136  1  0  0  0
 46137  1  0  0  0
 47138  1  0  0  0
 47139  1  0  0  0
 48 56  1  0  0  0
 48 65  1  0  0  0
 48140  1  0  0  0
 49 50  1  0  0  0
 49 53  1  0  0  0
 49 64  1  0  0  0
 49141  1  0  0  0
 50 51  1  0  0  0
 50142  1  0  0  0
 50143  1  0  0  0
 51 52  1  0  0  0
 51144  1  0  0  0
 51145  1  0  0  0
 52146  1  0  0  0
 52147  1  0  0  0
 53 54  1  0  0  0
 54 55  2  0  0  0
 54148  1  0  0  0
 55 57  1  0  0  0
 55149  1  0  0  0
 56 69  2  0  0  0
 57 58  2  0  0  0
 57150  1  0  0  0
 58151  1  0  0  0
 59 60  1  0  0  0
 59 61  1  0  0  0
 59 62  1  0  0  0
 60152  1  0  0  0
 60153  1  0  0  0
 60154  1  0  0  0
 61155  1  0  0  0
 61156  1  0  0  0
 61157  1  0  0  0
 62158  1  0  0  0
 62159  1  0  0  0
 62160  1  0  0  0
 63 65  1  0  0  0
 63161  1  0  0  0
 63162  1  0  0  0
 63163  1  0  0  0
 64164  1  0  0  0
 65165  1  0  0  0
 68 97  1  0  0  0
 71 72  2  0  0  0
 71 74  1  0  0  0
 71166  1  0  0  0
 72 75  1  0  0  0
 72167  1  0  0  0
 73 75  2  0  0  0
 73 76  1  0  0  0
 73168  1  0  0  0
 74 76  2  0  0  0
 74 99  1  0  0  0
 75105  1  0  0  0
 76106  1  0  0  0
 77 86  1  0  0  0
 77100  1  0  0  0
 77104  2  0  0  0
 78 79  1  0  0  0
 78169  1  0  0  0
 78170  1  0  0  0
 78 83  1  0  0  0
 79171  1  0  0  0
 79172  1  0  0  0
 79 84  1  0  0  0
 80 82  1  0  0  0
 80 83  1  0  0  0
 80173  1  0  0  0
 80174  1  0  0  0
 81 82  1  0  0  0
 81 84  1  0  0  0
 81175  1  0  0  0
 81176  1  0  0  0
 82100  1  0  0  0
 82177  1  0  0  0
 83102  1  0  0  0
 83178  1  0  0  0
 84102  1  0  0  0
 84179  1  0  0  0
 85 87  1  0  0  0
 85180  1  0  0  0
 85181  1  0  0  0
 85182  1  0  0  0
 86 99  1  0  0  0
 86183  1  0  0  0
 86184  1  0  0  0
 87 94  1  0  0  0
 87185  1  0  0  0
 87186  1  0  0  0
 88 89  1  0  0  0
 88 95  1  0  0  0
 88187  1  0  0  0
 88188  1  0  0  0
 89 97  1  0  0  0
 89189  1  0  0  0
 89190  1  0  0  0
 90 92  1  0  0  0
 90 98  1  0  0  0
 90191  1  0  0  0
 90192  1  0  0  0
 91 93  1  0  0  0
 91 96  1  0  0  0
 91193  1  0  0  0
 91194  1  0  0  0
 92101  1  0  0  0
 92195  1  0  0  0
 92196  1  0  0  0
 93197  1  0  0  0
 93198  1  0  0  0
 93102  1  0  0  0
 94199  1  0  0  0
 94200  1  0  0  0
 94103  1  0  0  0
 95103  1  0  0  0
 95201  1  0  0  0
 95202  1  0  0  0
 96103  1  0  0  0
 96203  1  0  0  0
 96204  1  0  0  0
 97205  1  0  0  0
 97206  1  0  0  0
 98105  1  0  0  0
 98207  1  0  0  0
 98208  1  0  0  0
 99209  1  0  0  0
100210  1  0  0  0
101211  1  0  0  0
102212  1  0  0  0
103213  1  0  0  0
M  CHG  2 102   1 103   1
M  ISO  4   1 100  68 101  97 101 101 100
M  END
> <chiral flag>
0

> <version>
0

> <s_m_source_file>
/data/baiqing/PycharmProjects/Reinvent-master-3.2/result/LINK_invent/BTK/process_docking_weight1_custom_product_contain_oxygen_bond_distance_aromatic_linkinvent_7_9_3/rearranged_h_0005.sdf

> <i_m_source_file_index>
92

> <r_mmod_Potential_Energy-OPLS-2005>
24631.9375

> <r_mmod_Stretch_Energy-OPLS-2005>
13676.060546875

> <r_mmod_Bend_Energy-OPLS-2005>
3489.83032226562

> <r_mmod_Torsional_Energy-OPLS-2005>
692.885070800781

> <r_mmod_Improper_Torsional_Energy-OPLS-2005>
66.8471984863281

> <r_mmod_Van_der_Waal_Energy-OPLS-2005>
4233.953125

> <r_mmod_Electrostatic_Energy-OPLS-2005>
173.482284545898

> <r_mmod_Solvation_Energy-OPLS-2005>
-1024.07849121094

> <b_mmod_Minimization_Converged-OPLS-2005>
0

> <r_mmod_RMS_Derivative-OPLS-2005>
26.9391250610352

$$$$
95
                    3D
 Structure written by MMmdl.
159168  0  0  1  0            999 V2000
  -30.6956  -14.4285   20.5649 C   0  0  0  0  0  0
  -30.4194  -12.2768   19.4139 C   0  0  0  0  0  0
  -29.4941  -12.5084   18.2009 C   0  0  0  0  0  0
  -28.0124  -12.3787   18.6099 C   0  0  0  0  0  0
  -27.6654  -13.2011   19.8805 C   0  0  2  0  0  0
  -28.7041  -12.9486   20.9967 C   0  0  0  0  0  0
  -25.2608  -13.8149   20.5678 C   0  0  0  0  0  0
  -24.1844  -13.0433   20.9155 C   0  0  0  0  0  0
  -24.6388  -11.6899   20.8723 C   0  0  0  0  0  0
  -23.9049  -10.4290   21.0401 C   0  0  0  0  0  0
  -24.3606   -9.4208   21.9180 C   0  0  0  0  0  0
  -23.6286   -8.2242   22.0753 C   0  0  0  0  0  0
  -22.4270   -8.0278   21.3545 C   0  0  0  0  0  0
  -21.9898   -9.0250   20.4647 C   0  0  0  0  0  0
  -22.7225  -10.2129   20.3050 C   0  0  0  0  0  0
  -21.6854   -6.0732   22.5278 C   0  0  0  0  0  0
  -21.4010   -6.5638   23.8211 C   0  0  0  0  0  0
  -21.3654   -5.6790   24.9174 C   0  0  0  0  0  0
  -21.6045   -4.3054   24.7225 C   0  0  0  0  0  0
  -21.8819   -3.8143   23.4347 C   0  0  0  0  0  0
  -21.9196   -4.6960   22.3404 C   0  0  0  0  0  0
  -22.7873  -13.5246   21.1829 C   0  0  0  0  0  0
  -22.1665   -4.2145   21.0978 F   0  0  0  0  0  0
  -21.5627   -3.4533   25.7737 F   0  0  0  0  0  0
  -30.0395  -13.2462   20.4510 N   0  0  0  0  0  0
  -26.3042  -12.9309   20.3381 N   0  0  0  0  0  0
  -25.9316  -11.6474   20.5764 N   0  0  0  0  0  0
  -22.0500  -12.8247   22.0385 N   0  0  0  0  0  0
  -25.4355  -15.1867   20.4101 N   0  0  0  0  0  0
  -31.8238  -14.6177   20.0980 O   0  0  0  0  0  0
  -21.6637   -6.8875   21.4239 O   0  0  0  0  0  0
  -22.3575  -14.5564   20.6695 O   0  0  0  0  0  0
  -24.6097  -31.8707   23.2135 C   0  0  0  0  0  0
  -25.9012  -32.4839   23.8415 C   0  0  1  0  0  0
  -27.2468  -27.4647   20.0997 C   0  0  0  0  0  0
  -25.5900  -33.8637   24.2355 N   0  0  0  0  0  0
  -23.3969  -30.4930   21.5517 C   0  0  2  0  0  0
  -24.8466  -28.9594   20.1183 C   0  0  0  0  0  0
  -22.7389  -29.4662   22.5003 C   0  0  0  0  0  0
  -18.0267  -28.1362   22.8486 C   0  0  0  0  0  0
  -24.1479  -36.7313   23.2625 C   0  0  0  0  0  0
  -25.9196  -30.8450   21.3622 C   0  0  0  0  0  0
  -25.9999  -29.4780   20.7186 C   0  0  0  0  0  0
  -27.2003  -28.7377   20.7178 C   0  0  0  0  0  0
  -26.0806  -26.9610   19.4879 C   0  0  0  0  0  0
  -24.8786  -27.6954   19.5031 C   0  0  0  0  0  0
  -23.6059  -29.8221   20.1666 C   0  0  0  0  0  0
  -25.4091  -36.3121   24.0348 C   0  0  1  0  0  0
  -20.5851  -28.3642   23.1323 C   0  0  2  0  0  0
  -20.6755  -26.9388   22.5412 C   0  0  0  0  0  0
  -19.5743  -26.6374   21.5201 C   0  0  0  0  0  0
  -18.1920  -26.7915   22.1606 C   0  0  0  0  0  0
  -19.1513  -28.8821   23.2896 C   0  0  0  0  0  0
  -18.9445  -30.1427   23.8906 C   0  0  0  0  0  0
  -17.6454  -30.6575   24.0552 C   0  0  0  0  0  0
  -25.9035  -34.9489   23.5147 C   0  0  0  0  0  0
  -16.5340  -29.9075   23.6325 C   0  0  0  0  0  0
  -16.7258  -28.6484   23.0353 C   0  0  0  0  0  0
  -26.4471  -31.6595   25.0716 C   0  0  0  0  0  0
  -25.3758  -31.3680   26.1482 C   0  0  0  0  0  0
  -27.0293  -30.3045   24.6050 C   0  0  0  0  0  0
  -27.6077  -32.4286   25.7462 C   0  0  0  0  0  0
  -27.5604  -37.1765   24.8428 C   0  0  0  0  0  0
  -21.4120  -29.3018   22.3741 N   0  0  0  0  0  0
  -26.4258  -37.3831   23.9469 N   0  0  0  0  0  0
  -24.6596  -31.0841   22.1015 N   0  0  0  0  0  0
  -23.4177  -28.8207   23.3033 O   0  0  0  0  0  0
  -28.3755  -26.6774   20.0432 O   0  0  0  0  0  0
  -26.5586  -34.8935   22.4702 O   0  0  0  0  0  0
  -23.5301  -32.1445   23.7554 O   0  0  0  0  0  0
  -29.4908  -19.9904   22.8071 C   0  0  0  0  0  0
  -30.8533  -18.7394   19.5713 C   0  0  0  0  0  0
  -29.7675  -21.3696   22.6959 C   0  0  0  0  0  0
  -30.6903  -17.3510   19.7289 C   0  0  0  0  0  0
  -30.7185  -21.0020   20.4814 C   0  0  0  0  0  0
  -29.6909  -17.7096   21.9234 C   0  0  0  0  0  0
  -30.4697  -19.6185   20.6019 C   0  0  0  0  0  0
  -29.8700  -19.1037   21.7773 C   0  0  0  0  0  0
  -30.4093  -21.8782   21.5447 C   0  0  0  0  0  0
  -30.1389  -16.8204   20.9210 C   0  0  0  0  0  0
  -30.8810  -23.3274   21.4963 C   0  0  0  0  0  0
  -30.3584  -25.6885   21.0308 C   0  0  0  0  0  0
  -29.2878  -26.7861   21.1304 C   0  0  0  0  0  0
  -29.9796  -15.4195   21.1245 N   0  0  0  0  0  0
  -29.8233  -24.3089   21.1792 N   0  3  0  0  0  0
  -31.4662  -12.3667   19.1175 H   0  0  0  0  0  0
  -30.3053  -11.2592   19.7918 H   0  0  0  0  0  0
  -29.7276  -11.7973   17.4070 H   0  0  0  0  0  0
  -29.6740  -13.5001   17.7821 H   0  0  0  0  0  0
  -27.8082  -11.3220   18.7859 H   0  0  0  0  0  0
  -27.3668  -12.6770   17.7829 H   0  0  0  0  0  0
  -27.7195  -14.2544   19.6040 H   0  0  0  0  0  0
  -28.6680  -11.9057   21.3151 H   0  0  0  0  0  0
  -28.4728  -13.5293   21.8901 H   0  0  0  0  0  0
  -25.2756   -9.5689   22.4747 H   0  0  0  0  0  0
  -24.0003   -7.4632   22.7470 H   0  0  0  0  0  0
  -21.0830   -8.8767   19.8956 H   0  0  0  0  0  0
  -22.3691  -10.9661   19.6148 H   0  0  0  0  0  0
  -21.1994   -7.6147   23.9712 H   0  0  0  0  0  0
  -21.1473   -6.0519   25.9078 H   0  0  0  0  0  0
  -22.0601   -2.7605   23.2844 H   0  0  0  0  0  0
  -22.4097  -11.9894   22.4763 H   0  0  0  0  0  0
  -21.1124  -13.1297   22.2583 H   0  0  0  0  0  0
  -24.6725  -15.8457   20.5200 H   0  0  0  0  0  0
  -26.2961  -15.6245   20.1060 H   0  0  0  0  0  0
  -26.7078  -32.5584   23.1186 H   0  0  0  0  0  0
  -25.0071  -33.9803   25.0512 H   0  0  0  0  0  0
  -22.6838  -31.3084   21.4128 H   0  0  0  0  0  0
  -23.3775  -35.9606   23.3219 H   0  0  0  0  0  0
  -24.3604  -36.8994   22.2055 H   0  0  0  0  0  0
  -23.7165  -37.6476   23.6667 H   0  0  0  0  0  0
  -26.0243  -31.6085   20.5899 H   0  0  0  0  0  0
  -26.8094  -30.9051   21.9766 H   0  0  0  0  0  0
  -28.0775  -29.1660   21.1810 H   0  0  0  0  0  0
  -26.1036  -25.9934   19.0069 H   0  0  0  0  0  0
  -23.9927  -27.2894   19.0346 H   0  0  0  0  0  0
  -23.7113  -30.5949   19.4047 H   0  0  0  0  0  0
  -22.7321  -29.2383   19.8725 H   0  0  0  0  0  0
  -25.1243  -36.1970   25.0834 H   0  0  0  0  0  0
  -20.9948  -28.3195   24.1444 H   0  0  0  0  0  0
  -20.5655  -26.2256   23.3593 H   0  0  0  0  0  0
  -21.6623  -26.7433   22.1210 H   0  0  0  0  0  0
  -19.6912  -25.6288   21.1230 H   0  0  0  0  0  0
  -19.6700  -27.3176   20.6729 H   0  0  0  0  0  0
  -17.4206  -26.6670   21.3991 H   0  0  0  0  0  0
  -18.0315  -26.0032   22.8974 H   0  0  0  0  0  0
  -19.7928  -30.7220   24.2285 H   0  0  0  0  0  0
  -17.5020  -31.6269   24.5130 H   0  0  0  0  0  0
  -15.5342  -30.2987   23.7639 H   0  0  0  0  0  0
  -15.8655  -28.0808   22.7076 H   0  0  0  0  0  0
  -24.5917  -30.7048   25.7812 H   0  0  0  0  0  0
  -24.8974  -32.2829   26.4987 H   0  0  0  0  0  0
  -25.8131  -30.8801   27.0203 H   0  0  0  0  0  0
  -26.2809  -29.6798   24.1161 H   0  0  0  0  0  0
  -27.4140  -29.7285   25.4476 H   0  0  0  0  0  0
  -27.8619  -30.4379   23.9138 H   0  0  0  0  0  0
  -27.2735  -33.3577   26.2090 H   0  0  0  0  0  0
  -28.3867  -32.6846   25.0268 H   0  0  0  0  0  0
  -28.0770  -31.8369   26.5333 H   0  0  0  0  0  0
  -28.2482  -38.0198   24.7717 H   0  0  0  0  0  0
  -28.1237  -36.2762   24.5932 H   0  0  0  0  0  0
  -27.2382  -37.1019   25.8828 H   0  0  0  0  0  0
  -20.9273  -29.8755   21.6979 H   0  0  0  0  0  0
  -26.0141  -38.2876   24.1621 H   0  0  0  0  0  0
  -29.0288  -19.6107   23.7084 H   0  0  0  0  0  0
  -31.2993  -19.1199   18.6628 H   0  0  0  0  0  0
  -29.5244  -22.0257   23.5209 H   0  0  0  0  0  0
  -31.0048  -16.7062   18.9204 H   0  0  0  0  0  0
  -31.2109  -21.3799   19.5954 H   0  0  0  0  0  0
  -29.2456  -17.3203   22.8283 H   0  0  0  0  0  0
  -31.6848  -23.4145   20.7635 H   0  0  0  0  0  0
  -31.3238  -23.5740   22.4625 H   0  0  0  0  0  0
  -31.0896  -25.8720   21.8198 H   0  0  0  0  0  0
  -30.8965  -25.7736   20.0863 H   0  0  0  0  0  0
  -29.7870  -27.7550   21.0948 H   0  0  0  0  0  0
  -28.7636  -26.7215   22.0857 H   0  0  0  0  0  0
  -29.1560  -15.1279   21.6288 H   0  0  0  0  0  0
  -29.1377  -24.2811   21.9167 H   0  0  0  0  0  0
  -29.3648  -24.0345   20.3246 H   0  0  0  0  0  0
  1 25  1  0  0  0
  1 30  2  0  0  0
  1 84  1  0  0  0
  2  3  1  0  0  0
  2 25  1  0  0  0
  2 86  1  0  0  0
  2 87  1  0  0  0
  3  4  1  0  0  0
  3 88  1  0  0  0
  3 89  1  0  0  0
  4  5  1  0  0  0
  4 90  1  0  0  0
  4 91  1  0  0  0
  5  6  1  0  0  0
  5 26  1  0  0  0
  5 92  1  0  0  0
  6 25  1  0  0  0
  6 93  1  0  0  0
  6 94  1  0  0  0
  7  8  2  0  0  0
  7 26  1  0  0  0
  7 29  1  0  0  0
  8  9  1  0  0  0
  8 22  1  0  0  0
  9 10  1  0  0  0
  9 27  2  0  0  0
 10 11  2  0  0  0
 10 15  1  0  0  0
 11 12  1  0  0  0
 11 95  1  0  0  0
 12 13  2  0  0  0
 12 96  1  0  0  0
 13 14  1  0  0  0
 13 31  1  0  0  0
 14 15  2  0  0  0
 14 97  1  0  0  0
 15 98  1  0  0  0
 16 17  2  0  0  0
 16 21  1  0  0  0
 16 31  1  0  0  0
 17 18  1  0  0  0
 17 99  1  0  0  0
 18 19  2  0  0  0
 18100  1  0  0  0
 19 20  1  0  0  0
 19 24  1  0  0  0
 20 21  2  0  0  0
 20101  1  0  0  0
 21 23  1  0  0  0
 22 28  1  0  0  0
 22 32  2  0  0  0
 26 27  1  0  0  0
 28102  1  0  0  0
 28103  1  0  0  0
 29104  1  0  0  0
 29105  1  0  0  0
 33 34  1  0  0  0
 33 66  1  0  0  0
 33 70  2  0  0  0
 34 36  1  0  0  0
 34 59  1  0  0  0
 34106  1  0  0  0
 35 44  2  0  0  0
 35 45  1  0  0  0
 35 68  1  0  0  0
 36 56  1  0  0  0
 36107  1  0  0  0
 37 39  1  0  0  0
 37 47  1  0  0  0
 37 66  1  0  0  0
 37108  1  0  0  0
 38 43  2  0  0  0
 38 46  1  0  0  0
 38 47  1  0  0  0
 39 64  1  0  0  0
 39 67  2  0  0  0
 40 52  1  0  0  0
 40 53  2  0  0  0
 40 58  1  0  0  0
 41109  1  0  0  0
 41110  1  0  0  0
 41111  1  0  0  0
 41 48  1  0  0  0
 42 43  1  0  0  0
 42 66  1  0  0  0
 42112  1  0  0  0
 42113  1  0  0  0
 43 44  1  0  0  0
 44114  1  0  0  0
 45 46  2  0  0  0
 45115  1  0  0  0
 46116  1  0  0  0
 47117  1  0  0  0
 47118  1  0  0  0
 48 56  1  0  0  0
 48 65  1  0  0  0
 48119  1  0  0  0
 49 50  1  0  0  0
 49 53  1  0  0  0
 49 64  1  0  0  0
 49120  1  0  0  0
 50 51  1  0  0  0
 50121  1  0  0  0
 50122  1  0  0  0
 51 52  1  0  0  0
 51123  1  0  0  0
 51124  1  0  0  0
 52125  1  0  0  0
 52126  1  0  0  0
 53 54  1  0  0  0
 54 55  2  0  0  0
 54127  1  0  0  0
 55 57  1  0  0  0
 55128  1  0  0  0
 56 69  2  0  0  0
 57 58  2  0  0  0
 57129  1  0  0  0
 58130  1  0  0  0
 59 60  1  0  0  0
 59 61  1  0  0  0
 59 62  1  0  0  0
 60131  1  0  0  0
 60132  1  0  0  0
 60133  1  0  0  0
 61134  1  0  0  0
 61135  1  0  0  0
 61136  1  0  0  0
 62137  1  0  0  0
 62138  1  0  0  0
 62139  1  0  0  0
 63 65  1  0  0  0
 63140  1  0  0  0
 63141  1  0  0  0
 63142  1  0  0  0
 64143  1  0  0  0
 65144  1  0  0  0
 68 83  1  0  0  0
 71 73  2  0  0  0
 71 78  1  0  0  0
 71145  1  0  0  0
 72 74  1  0  0  0
 72 77  2  0  0  0
 72146  1  0  0  0
 73 79  1  0  0  0
 73147  1  0  0  0
 74 80  2  0  0  0
 74148  1  0  0  0
 75 77  1  0  0  0
 75 79  2  0  0  0
 75149  1  0  0  0
 76 78  2  0  0  0
 76 80  1  0  0  0
 76150  1  0  0  0
 77 78  1  0  0  0
 79 81  1  0  0  0
 80 84  1  0  0  0
 81 85  1  0  0  0
 81151  1  0  0  0
 81152  1  0  0  0
 82 83  1  0  0  0
 82 85  1  0  0  0
 82153  1  0  0  0
 82154  1  0  0  0
 83155  1  0  0  0
 83156  1  0  0  0
 84157  1  0  0  0
 85158  1  0  0  0
 85159  1  0  0  0
M  CHG  1  85   1
M  ISO  4   1 100  68 101  83 101  84 100
M  END
> <chiral flag>
0

> <version>
0

> <s_m_source_file>
/data/baiqing/PycharmProjects/Reinvent-master-3.2/result/LINK_invent/BTK/process_docking_weight1_custom_product_contain_oxygen_bond_distance_aromatic_linkinvent_7_9_3/rearranged_h_0005.sdf

> <i_m_source_file_index>
93

> <r_mmod_Potential_Energy-OPLS-2005>
-225.426177978516

> <r_mmod_Stretch_Energy-OPLS-2005>
33.8119468688965

> <r_mmod_Bend_Energy-OPLS-2005>
89.5172271728516

> <r_mmod_Torsional_Energy-OPLS-2005>
221.297622680664

> <r_mmod_Improper_Torsional_Energy-OPLS-2005>
3.66628432273865

> <r_mmod_Van_der_Waal_Energy-OPLS-2005>
173.657821655273

> <r_mmod_Electrostatic_Energy-OPLS-2005>
-305.907073974609

> <r_mmod_Solvation_Energy-OPLS-2005>
-450.611755371094

> <b_mmod_Minimization_Converged-OPLS-2005>
0

> <r_mmod_RMS_Derivative-OPLS-2005>
1.27344381809235

$$$$
96
                    3D
 Structure written by MMmdl.
193203  0  0  1  0            999 V2000
  -30.6786  -14.3867   20.6618 C   0  0  0  0  0  0
  -30.4175  -12.2692   19.4128 C   0  0  0  0  0  0
  -29.4942  -12.5214   18.2049 C   0  0  0  0  0  0
  -28.0119  -12.3807   18.6064 C   0  0  0  0  0  0
  -27.6618  -13.1903   19.8849 C   0  0  2  0  0  0
  -28.6868  -12.8945   20.9982 C   0  0  0  0  0  0
  -25.2555  -13.8056   20.5692 C   0  0  0  0  0  0
  -24.1805  -13.0350   20.9170 C   0  0  0  0  0  0
  -24.6360  -11.6819   20.8680 C   0  0  0  0  0  0
  -23.9029  -10.4218   21.0361 C   0  0  0  0  0  0
  -24.3577   -9.4149   21.9161 C   0  0  0  0  0  0
  -23.6266   -8.2176   22.0743 C   0  0  0  0  0  0
  -22.4240   -8.0230   21.3540 C   0  0  0  0  0  0
  -21.9873   -9.0185   20.4621 C   0  0  0  0  0  0
  -22.7191  -10.2068   20.3035 C   0  0  0  0  0  0
  -21.6833   -6.0712   22.5276 C   0  0  0  0  0  0
  -21.3984   -6.5620   23.8208 C   0  0  0  0  0  0
  -21.3690   -5.6787   24.9189 C   0  0  0  0  0  0
  -21.6057   -4.3045   24.7225 C   0  0  0  0  0  0
  -21.8811   -3.8128   23.4348 C   0  0  0  0  0  0
  -21.9165   -4.6937   22.3401 C   0  0  0  0  0  0
  -22.7820  -13.5161   21.1856 C   0  0  0  0  0  0
  -22.1648   -4.2133   21.0975 F   0  0  0  0  0  0
  -21.5664   -3.4532   25.7744 F   0  0  0  0  0  0
  -30.0327  -13.2069   20.4774 N   0  0  0  0  0  0
  -26.2994  -12.9242   20.3362 N   0  0  0  0  0  0
  -25.9270  -11.6390   20.5694 N   0  0  0  0  0  0
  -22.0470  -12.8154   22.0438 N   0  0  0  0  0  0
  -25.4232  -15.1756   20.4224 N   0  0  0  0  0  0
  -31.7317  -14.6896   20.0938 O   0  0  0  0  0  0
  -21.6607   -6.8844   21.4243 O   0  0  0  0  0  0
  -22.3467  -14.5450   20.6702 O   0  0  0  0  0  0
  -24.6083  -31.8753   23.2150 C   0  0  0  0  0  0
  -25.9009  -32.4865   23.8438 C   0  0  1  0  0  0
  -27.2154  -27.4625   20.0995 C   0  0  0  0  0  0
  -25.5889  -33.8666   24.2372 N   0  0  0  0  0  0
  -23.3956  -30.4979   21.5537 C   0  0  2  0  0  0
  -24.8373  -28.9768   20.1084 C   0  0  0  0  0  0
  -22.7450  -29.4665   22.5020 C   0  0  0  0  0  0
  -18.0270  -28.1353   22.8673 C   0  0  0  0  0  0
  -24.1481  -36.7341   23.2636 C   0  0  0  0  0  0
  -25.9200  -30.8493   21.3645 C   0  0  0  0  0  0
  -25.9974  -29.4907   20.7026 C   0  0  0  0  0  0
  -27.1905  -28.7447   20.6887 C   0  0  0  0  0  0
  -26.0480  -26.9647   19.4776 C   0  0  0  0  0  0
  -24.8581  -27.7144   19.4884 C   0  0  0  0  0  0
  -23.5996  -29.8419   20.1631 C   0  0  0  0  0  0
  -25.4102  -36.3152   24.0340 C   0  0  1  0  0  0
  -20.5894  -28.3680   23.1464 C   0  0  2  0  0  0
  -20.6777  -26.9413   22.5555 C   0  0  0  0  0  0
  -19.5717  -26.6336   21.5390 C   0  0  0  0  0  0
  -18.1918  -26.7874   22.1881 C   0  0  0  0  0  0
  -19.1542  -28.8867   23.2931 C   0  0  0  0  0  0
  -18.9475  -30.1602   23.8732 C   0  0  0  0  0  0
  -17.6477  -30.6721   24.0367 C   0  0  0  0  0  0
  -25.9030  -34.9520   23.5156 C   0  0  0  0  0  0
  -16.5363  -29.9072   23.6388 C   0  0  0  0  0  0
  -16.7246  -28.6429   23.0595 C   0  0  0  0  0  0
  -26.4463  -31.6624   25.0747 C   0  0  0  0  0  0
  -25.3759  -31.3692   26.1511 C   0  0  0  0  0  0
  -27.0259  -30.3054   24.6106 C   0  0  0  0  0  0
  -27.6044  -32.4329   25.7517 C   0  0  0  0  0  0
  -27.5590  -37.1823   24.8464 C   0  0  0  0  0  0
  -21.4159  -29.3098   22.3932 N   0  0  0  0  0  0
  -26.4309  -37.3818   23.9396 N   0  0  0  0  0  0
  -24.6569  -31.0896   22.1015 N   0  0  0  0  0  0
  -23.4307  -28.8162   23.2943 O   0  0  0  0  0  0
  -28.3590  -26.7054   20.1873 O   0  0  0  0  0  0
  -26.5589  -34.8952   22.4720 O   0  0  0  0  0  0
  -23.5290  -32.1488   23.7559 O   0  0  0  0  0  0
  -28.5541  -17.3789   19.6082 C   0  0  0  0  0  0
  -27.3257  -17.8808   19.1413 C   0  0  0  0  0  0
  -27.8025  -17.6837   21.9029 C   0  0  0  0  0  0
  -28.8036  -17.2903   20.9922 C   0  0  0  0  0  0
  -26.3230  -18.2775   20.0493 C   0  0  0  0  0  0
  -26.5570  -18.1660   21.4428 C   0  0  0  0  0  0
  -22.0791  -23.1512   26.5335 C   0  0  0  0  0  0
  -21.9263  -22.8475   25.0338 C   0  0  0  0  0  0
  -23.4687  -22.8120   27.0906 C   0  0  0  0  0  0
  -25.9235  -23.4235   26.7546 C   0  0  0  0  0  0
  -27.0149  -23.0912   25.7248 C   0  0  0  0  0  0
  -22.5029  -21.4759   24.6348 C   0  0  0  0  0  0
  -24.5858  -23.1138   26.0763 C   0  0  1  0  0  0
  -26.2960  -22.5208   24.4862 C   0  0  1  0  0  0
  -24.9648  -21.9691   25.1041 C   0  0  2  0  0  0
  -24.9959  -18.7622   19.4832 C   0  0  0  0  0  0
  -30.1084  -16.6842   21.4864 C   0  0  0  0  0  0
  -26.1265  -23.6327   23.4049 C   0  0  0  0  0  0
  -25.2817  -19.8709   22.5882 C   0  0  0  0  0  0
  -24.2021  -20.0596   23.6795 C   0  0  0  0  0  0
  -27.3432  -25.2617   21.9670 C   0  0  0  0  0  0
  -28.1883  -25.3573   20.6623 C   0  0  0  0  0  0
  -25.5704  -18.4551   22.3892 N   0  0  0  0  0  0
  -30.0135  -15.2328   21.4589 N   0  0  0  0  0  0
  -23.9189  -21.4640   24.1329 N   0  3  1  0  0  0
  -27.3590  -23.9236   22.6215 N   0  3  0  0  0  0
  -31.4661  -12.3710   19.1253 H   0  0  0  0  0  0
  -30.3025  -11.2409   19.7643 H   0  0  0  0  0  0
  -29.7235  -11.8257   17.3969 H   0  0  0  0  0  0
  -29.6859  -13.5226   17.8105 H   0  0  0  0  0  0
  -27.8086  -11.3229   18.7770 H   0  0  0  0  0  0
  -27.3676  -12.6789   17.7796 H   0  0  0  0  0  0
  -27.7288  -14.2482   19.6277 H   0  0  0  0  0  0
  -28.6491  -11.8405   21.2713 H   0  0  0  0  0  0
  -28.4208  -13.4204   21.9159 H   0  0  0  0  0  0
  -25.2716   -9.5636   22.4744 H   0  0  0  0  0  0
  -23.9972   -7.4568   22.7450 H   0  0  0  0  0  0
  -21.0824   -8.8671   19.8927 H   0  0  0  0  0  0
  -22.3622  -10.9601   19.6148 H   0  0  0  0  0  0
  -21.1953   -7.6117   23.9711 H   0  0  0  0  0  0
  -21.1562   -6.0514   25.9100 H   0  0  0  0  0  0
  -22.0559   -2.7582   23.2834 H   0  0  0  0  0  0
  -22.4095  -11.9829   22.4865 H   0  0  0  0  0  0
  -21.1076  -13.1139   22.2656 H   0  0  0  0  0  0
  -24.6699  -15.8258   20.6183 H   0  0  0  0  0  0
  -26.3006  -15.6447   20.2297 H   0  0  0  0  0  0
  -26.7100  -32.5582   23.1229 H   0  0  0  0  0  0
  -25.0032  -33.9845   25.0511 H   0  0  0  0  0  0
  -22.6796  -31.3110   21.4213 H   0  0  0  0  0  0
  -23.3756  -35.9665   23.3316 H   0  0  0  0  0  0
  -24.3563  -36.8917   22.2040 H   0  0  0  0  0  0
  -23.7225  -37.6546   23.6642 H   0  0  0  0  0  0
  -26.0354  -31.6218   20.6029 H   0  0  0  0  0  0
  -26.8059  -30.8964   21.9852 H   0  0  0  0  0  0
  -28.0817  -29.1358   21.1579 H   0  0  0  0  0  0
  -26.0454  -25.9972   18.9940 H   0  0  0  0  0  0
  -23.9652  -27.3202   19.0192 H   0  0  0  0  0  0
  -23.7113  -30.6246   19.4116 H   0  0  0  0  0  0
  -22.7211  -29.2716   19.8628 H   0  0  0  0  0  0
  -25.1277  -36.2042   25.0833 H   0  0  0  0  0  0
  -20.9975  -28.3278   24.1578 H   0  0  0  0  0  0
  -20.5854  -26.2281   23.3775 H   0  0  0  0  0  0
  -21.6625  -26.7590   22.1256 H   0  0  0  0  0  0
  -19.6881  -25.6177   21.1530 H   0  0  0  0  0  0
  -19.6598  -27.3134   20.6900 H   0  0  0  0  0  0
  -17.4103  -26.6605   21.4378 H   0  0  0  0  0  0
  -18.0401  -26.0102   22.9370 H   0  0  0  0  0  0
  -19.7908  -30.7577   24.1958 H   0  0  0  0  0  0
  -17.5049  -31.6519   24.4651 H   0  0  0  0  0  0
  -15.5383  -30.2994   23.7740 H   0  0  0  0  0  0
  -15.8556  -28.0695   22.7556 H   0  0  0  0  0  0
  -24.5964  -30.6996   25.7880 H   0  0  0  0  0  0
  -24.8934  -32.2814   26.5024 H   0  0  0  0  0  0
  -25.8159  -30.8851   27.0239 H   0  0  0  0  0  0
  -26.2757  -29.6856   24.1175 H   0  0  0  0  0  0
  -27.4013  -29.7268   25.4563 H   0  0  0  0  0  0
  -27.8640  -30.4352   23.9248 H   0  0  0  0  0  0
  -27.2664  -33.3614   26.2150 H   0  0  0  0  0  0
  -28.3849  -32.6900   25.0347 H   0  0  0  0  0  0
  -28.0752  -31.8421   26.5384 H   0  0  0  0  0  0
  -28.2627  -38.0103   24.7511 H   0  0  0  0  0  0
  -28.1062  -36.2634   24.6311 H   0  0  0  0  0  0
  -27.2298  -37.1501   25.8864 H   0  0  0  0  0  0
  -20.9209  -29.9182   21.7588 H   0  0  0  0  0  0
  -26.0214  -38.2908   24.1384 H   0  0  0  0  0  0
  -29.2963  -17.0378   18.8984 H   0  0  0  0  0  0
  -27.1358  -17.9390   18.0781 H   0  0  0  0  0  0
  -27.9838  -17.5947   22.9665 H   0  0  0  0  0  0
  -21.3289  -22.5979   27.1044 H   0  0  0  0  0  0
  -21.8581  -24.2065   26.7053 H   0  0  0  0  0  0
  -22.3484  -23.6426   24.4204 H   0  0  0  0  0  0
  -20.8583  -22.8617   24.8054 H   0  0  0  0  0  0
  -23.5124  -21.7664   27.3978 H   0  0  0  0  0  0
  -23.6205  -23.3939   28.0024 H   0  0  0  0  0  0
  -25.9770  -24.4622   27.0774 H   0  0  0  0  0  0
  -26.0555  -22.8033   27.6432 H   0  0  0  0  0  0
  -27.6830  -22.3350   26.1416 H   0  0  0  0  0  0
  -27.6353  -23.9605   25.4975 H   0  0  0  0  0  0
  -21.8600  -21.1132   23.8304 H   0  0  0  0  0  0
  -22.3787  -20.7612   25.4495 H   0  0  0  0  0  0
  -24.3103  -24.0090   25.5177 H   0  0  0  0  0  0
  -26.9148  -21.7165   24.0990 H   0  0  0  0  0  0
  -25.2239  -21.1187   25.7413 H   0  0  0  0  0  0
  -25.0059  -19.8445   19.3540 H   0  0  0  0  0  0
  -24.1569  -18.5080   20.1268 H   0  0  0  0  0  0
  -24.8003  -18.3101   18.5109 H   0  0  0  0  0  0
  -30.9287  -17.0375   20.8612 H   0  0  0  0  0  0
  -30.3187  -17.0109   22.5059 H   0  0  0  0  0  0
  -25.7883  -24.5534   23.8813 H   0  0  0  0  0  0
  -25.3448  -23.3622   22.6966 H   0  0  0  0  0  0
  -26.2256  -20.3348   22.8458 H   0  0  0  0  0  0
  -24.9491  -20.3327   21.6589 H   0  0  0  0  0  0
  -24.4199  -19.4362   24.5468 H   0  0  0  0  0  0
  -23.2973  -19.6227   23.2535 H   0  0  0  0  0  0
  -26.3103  -25.5272   21.7385 H   0  0  0  0  0  0
  -27.6956  -25.9987   22.6897 H   0  0  0  0  0  0
  -27.7538  -24.7362   19.8774 H   0  0  0  0  0  0
  -29.1875  -24.9582   20.8383 H   0  0  0  0  0  0
  -25.7584  -17.9788   23.2673 H   0  0  0  0  0  0
  -29.1896  -14.8449   21.8937 H   0  0  0  0  0  0
  -23.9101  -22.0549   23.3160 H   0  0  0  0  0  0
  -27.4687  -23.2083   21.9167 H   0  0  0  0  0  0
  -28.1678  -23.8733   23.2230 H   0  0  0  0  0  0
  1 25  1  0  0  0
  1 30  2  0  0  0
  1 94  1  0  0  0
  2  3  1  0  0  0
  2 25  1  0  0  0
  2 97  1  0  0  0
  2 98  1  0  0  0
  3  4  1  0  0  0
  3 99  1  0  0  0
  3100  1  0  0  0
  4  5  1  0  0  0
  4101  1  0  0  0
  4102  1  0  0  0
  5  6  1  0  0  0
  5 26  1  0  0  0
  5103  1  0  0  0
  6 25  1  0  0  0
  6104  1  0  0  0
  6105  1  0  0  0
  7  8  2  0  0  0
  7 26  1  0  0  0
  7 29  1  0  0  0
  8  9  1  0  0  0
  8 22  1  0  0  0
  9 10  1  0  0  0
  9 27  2  0  0  0
 10 11  2  0  0  0
 10 15  1  0  0  0
 11 12  1  0  0  0
 11106  1  0  0  0
 12 13  2  0  0  0
 12107  1  0  0  0
 13 14  1  0  0  0
 13 31  1  0  0  0
 14 15  2  0  0  0
 14108  1  0  0  0
 15109  1  0  0  0
 16 17  2  0  0  0
 16 21  1  0  0  0
 16 31  1  0  0  0
 17 18  1  0  0  0
 17110  1  0  0  0
 18 19  2  0  0  0
 18111  1  0  0  0
 19 20  1  0  0  0
 19 24  1  0  0  0
 20 21  2  0  0  0
 20112  1  0  0  0
 21 23  1  0  0  0
 22 28  1  0  0  0
 22 32  2  0  0  0
 26 27  1  0  0  0
 28113  1  0  0  0
 28114  1  0  0  0
 29115  1  0  0  0
 29116  1  0  0  0
 33 34  1  0  0  0
 33 66  1  0  0  0
 33 70  2  0  0  0
 34 36  1  0  0  0
 34 59  1  0  0  0
 34117  1  0  0  0
 35 44  2  0  0  0
 35 45  1  0  0  0
 35 68  1  0  0  0
 36 56  1  0  0  0
 36118  1  0  0  0
 37 39  1  0  0  0
 37 47  1  0  0  0
 37 66  1  0  0  0
 37119  1  0  0  0
 38 43  2  0  0  0
 38 46  1  0  0  0
 38 47  1  0  0  0
 39 64  1  0  0  0
 39 67  2  0  0  0
 40 52  1  0  0  0
 40 53  2  0  0  0
 40 58  1  0  0  0
 41120  1  0  0  0
 41121  1  0  0  0
 41122  1  0  0  0
 41 48  1  0  0  0
 42 43  1  0  0  0
 42 66  1  0  0  0
 42123  1  0  0  0
 42124  1  0  0  0
 43 44  1  0  0  0
 44125  1  0  0  0
 45 46  2  0  0  0
 45126  1  0  0  0
 46127  1  0  0  0
 47128  1  0  0  0
 47129  1  0  0  0
 48 56  1  0  0  0
 48 65  1  0  0  0
 48130  1  0  0  0
 49 50  1  0  0  0
 49 53  1  0  0  0
 49 64  1  0  0  0
 49131  1  0  0  0
 50 51  1  0  0  0
 50132  1  0  0  0
 50133  1  0  0  0
 51 52  1  0  0  0
 51134  1  0  0  0
 51135  1  0  0  0
 52136  1  0  0  0
 52137  1  0  0  0
 53 54  1  0  0  0
 54 55  2  0  0  0
 54138  1  0  0  0
 55 57  1  0  0  0
 55139  1  0  0  0
 56 69  2  0  0  0
 57 58  2  0  0  0
 57140  1  0  0  0
 58141  1  0  0  0
 59 60  1  0  0  0
 59 61  1  0  0  0
 59 62  1  0  0  0
 60142  1  0  0  0
 60143  1  0  0  0
 60144  1  0  0  0
 61145  1  0  0  0
 61146  1  0  0  0
 61147  1  0  0  0
 62148  1  0  0  0
 62149  1  0  0  0
 62150  1  0  0  0
 63 65  1  0  0  0
 63151  1  0  0  0
 63152  1  0  0  0
 63153  1  0  0  0
 64154  1  0  0  0
 65155  1  0  0  0
 68 92  1  0  0  0
 71 72  2  0  0  0
 71 74  1  0  0  0
 71156  1  0  0  0
 72 75  1  0  0  0
 72157  1  0  0  0
 73 74  2  0  0  0
 73 76  1  0  0  0
 73158  1  0  0  0
 74 87  1  0  0  0
 75 76  2  0  0  0
 75 86  1  0  0  0
 76 93  1  0  0  0
 77 78  1  0  0  0
 77 79  1  0  0  0
 77159  1  0  0  0
 77160  1  0  0  0
 78 82  1  0  0  0
 78161  1  0  0  0
 78162  1  0  0  0
 79163  1  0  0  0
 79164  1  0  0  0
 79 83  1  0  0  0
 80 81  1  0  0  0
 80 83  1  0  0  0
 80165  1  0  0  0
 80166  1  0  0  0
 81 84  1  0  0  0
 81167  1  0  0  0
 81168  1  0  0  0
 82 95  1  0  0  0
 82169  1  0  0  0
 82170  1  0  0  0
 83 85  1  0  0  0
 83171  1  0  0  0
 84 88  1  0  0  0
 84172  1  0  0  0
 84 85  1  0  0  0
 85 95  1  0  0  0
 85173  1  0  0  0
 86174  1  0  0  0
 86175  1  0  0  0
 86176  1  0  0  0
 87 94  1  0  0  0
 87177  1  0  0  0
 87178  1  0  0  0
 88 96  1  0  0  0
 88179  1  0  0  0
 88180  1  0  0  0
 89 90  1  0  0  0
 89 93  1  0  0  0
 89181  1  0  0  0
 89182  1  0  0  0
 90183  1  0  0  0
 90184  1  0  0  0
 90 95  1  0  0  0
 91 92  1  0  0  0
 91 96  1  0  0  0
 91185  1  0  0  0
 91186  1  0  0  0
 92187  1  0  0  0
 92188  1  0  0  0
 93189  1  0  0  0
 94190  1  0  0  0
 95191  1  0  0  0
 96192  1  0  0  0
 96193  1  0  0  0
M  CHG  2  95   1  96   1
M  ISO  4   1 100  68 101  92 101  94 100
M  END
> <chiral flag>
0

> <version>
0

> <s_m_source_file>
/data/baiqing/PycharmProjects/Reinvent-master-3.2/result/LINK_invent/BTK/process_docking_weight1_custom_product_contain_oxygen_bond_distance_aromatic_linkinvent_7_9_3/rearranged_h_0005.sdf

> <i_m_source_file_index>
94

> <r_mmod_Potential_Energy-OPLS-2005>
-141.877716064453

> <r_mmod_Stretch_Energy-OPLS-2005>
44.0334854125977

> <r_mmod_Bend_Energy-OPLS-2005>
159.663818359375

> <r_mmod_Torsional_Energy-OPLS-2005>
353.223724365234

> <r_mmod_Improper_Torsional_Energy-OPLS-2005>
8.87108516693115

> <r_mmod_Van_der_Waal_Energy-OPLS-2005>
154.262893676758

> <r_mmod_Electrostatic_Energy-OPLS-2005>
54.4238929748535

> <r_mmod_Solvation_Energy-OPLS-2005>
-928.791259765625

> <b_mmod_Minimization_Converged-OPLS-2005>
0

> <r_mmod_RMS_Derivative-OPLS-2005>
5.89889812469482

$$$$
