0
                    3D
 Structure written by MMmdl.
170179  0  0  1  0            999 V2000
  -30.5635  -14.7689   20.3961 C   0  0  0  0  0  0
  -30.4391  -12.4383   19.5054 C   0  0  0  0  0  0
  -29.5246  -12.4076   18.2588 C   0  0  0  0  0  0
  -28.0340  -12.3107   18.6506 C   0  0  0  0  0  0
  -27.6380  -13.2268   19.8424 C   0  0  2  0  0  0
  -28.6758  -13.1703   20.9818 C   0  0  0  0  0  0
  -25.2497  -13.8206   20.5675 C   0  0  0  0  0  0
  -24.1797  -13.0456   20.9219 C   0  0  0  0  0  0
  -24.6386  -11.6931   20.8768 C   0  0  0  0  0  0
  -23.9084  -10.4304   21.0430 C   0  0  0  0  0  0
  -24.3637   -9.4214   21.9198 C   0  0  0  0  0  0
  -23.6315   -8.2248   22.0770 C   0  0  0  0  0  0
  -22.4300   -8.0287   21.3556 C   0  0  0  0  0  0
  -21.9941   -9.0262   20.4656 C   0  0  0  0  0  0
  -22.7262  -10.2144   20.3070 C   0  0  0  0  0  0
  -21.6859   -6.0751   22.5294 C   0  0  0  0  0  0
  -21.4007   -6.5650   23.8232 C   0  0  0  0  0  0
  -21.3672   -5.6793   24.9186 C   0  0  0  0  0  0
  -21.6051   -4.3060   24.7224 C   0  0  0  0  0  0
  -21.8810   -3.8164   23.4341 C   0  0  0  0  0  0
  -21.9187   -4.6980   22.3404 C   0  0  0  0  0  0
  -22.7816  -13.5236   21.1864 C   0  0  0  0  0  0
  -22.1648   -4.2168   21.0980 F   0  0  0  0  0  0
  -21.5649   -3.4543   25.7742 F   0  0  0  0  0  0
  -29.9736  -13.5240   20.4000 N   0  0  0  0  0  0
  -26.2919  -12.9397   20.3254 N   0  0  0  0  0  0
  -25.9299  -11.6554   20.5783 N   0  0  0  0  0  0
  -22.0462  -12.8208   22.0411 N   0  0  0  0  0  0
  -25.4175  -15.1938   20.4093 N   0  0  0  0  0  0
  -31.7684  -14.8636   20.1356 O   0  0  0  0  0  0
  -21.6650   -6.8893   21.4264 O   0  0  0  0  0  0
  -22.3495  -14.5532   20.6707 O   0  0  0  0  0  0
  -24.6311  -31.8555   23.1960 C   0  0  0  0  0  0
  -25.9131  -32.4763   23.8316 C   0  0  1  0  0  0
  -27.2244  -27.2689   20.1483 C   0  0  0  0  0  0
  -25.5926  -33.8566   24.2242 N   0  0  0  0  0  0
  -23.4280  -30.4747   21.5398 C   0  0  2  0  0  0
  -24.8764  -28.9137   20.1180 C   0  0  0  0  0  0
  -22.7498  -29.4590   22.4916 C   0  0  0  0  0  0
  -18.0294  -28.1392   22.8481 C   0  0  0  0  0  0
  -24.1486  -36.7281   23.2640 C   0  0  0  0  0  0
  -25.9710  -30.7722   21.3713 C   0  0  0  0  0  0
  -26.0465  -29.3922   20.7215 C   0  0  0  0  0  0
  -27.2266  -28.5848   20.7174 C   0  0  0  0  0  0
  -26.0331  -26.8453   19.5238 C   0  0  0  0  0  0
  -24.8742  -27.6484   19.5069 C   0  0  0  0  0  0
  -23.6484  -29.8037   20.1574 C   0  0  0  0  0  0
  -25.4115  -36.3075   24.0321 C   0  0  1  0  0  0
  -20.5898  -28.3694   23.1268 C   0  0  2  0  0  0
  -20.6783  -26.9410   22.5408 C   0  0  0  0  0  0
  -19.5757  -26.6383   21.5213 C   0  0  0  0  0  0
  -18.1939  -26.7936   22.1618 C   0  0  0  0  0  0
  -19.1550  -28.8860   23.2877 C   0  0  0  0  0  0
  -18.9472  -30.1461   23.8897 C   0  0  0  0  0  0
  -17.6469  -30.6590   24.0569 C   0  0  0  0  0  0
  -25.9059  -34.9451   23.5090 C   0  0  0  0  0  0
  -16.5359  -29.9087   23.6331 C   0  0  0  0  0  0
  -16.7281  -28.6506   23.0348 C   0  0  0  0  0  0
  -26.4484  -31.6591   25.0721 C   0  0  0  0  0  0
  -25.3689  -31.3741   26.1429 C   0  0  0  0  0  0
  -27.0334  -30.3016   24.6195 C   0  0  0  0  0  0
  -27.6037  -32.4317   25.7502 C   0  0  0  0  0  0
  -27.5577  -37.1799   24.8450 C   0  0  0  0  0  0
  -21.4207  -29.3047   22.3663 N   0  0  0  0  0  0
  -26.4280  -37.3780   23.9422 N   0  0  0  0  0  0
  -24.6962  -31.0517   22.0936 N   0  0  0  0  0  0
  -23.4198  -28.8153   23.3033 O   0  0  0  0  0  0
  -28.3416  -26.4098   20.1491 O   0  0  0  0  0  0
  -26.5632  -34.8916   22.4660 O   0  0  0  0  0  0
  -23.5458  -32.1365   23.7251 O   0  0  0  0  0  0
  -29.3585  -18.5002   20.3203 C   0  0  0  0  0  0
  -29.3355  -19.7660   19.5857 C   0  0  0  0  0  0
  -29.8714  -19.7173   18.2686 C   0  0  0  0  0  0
  -30.3471  -18.5010   17.7099 C   0  0  0  0  0  0
  -30.1839  -17.2694   18.3949 C   0  0  0  0  0  0
  -29.8067  -17.2226   19.7679 C   0  0  0  0  0  0
  -28.6487  -23.8442   19.5880 C   0  0  0  0  0  0
  -28.6251  -24.1084   18.2690 C   0  0  0  0  0  0
  -29.2515  -23.4772   22.4253 C   0  0  0  0  0  0
  -29.0212  -24.9111   21.9293 C   0  0  0  0  0  0
  -30.0566  -22.6695   21.3931 C   0  0  0  0  0  0
  -28.2258  -24.9813   20.6140 C   0  0  1  0  0  0
  -29.8260  -20.9642   17.3932 C   0  0  0  0  0  0
  -30.9953  -18.5108   16.3206 C   0  0  0  0  0  0
  -30.2500  -15.9883   17.5745 C   0  0  0  0  0  0
  -28.5966  -21.1179   20.0792 C   0  0  0  0  0  0
  -29.7466  -15.9013   20.4819 N   0  0  0  0  0  0
  -29.3102  -22.4928   20.1238 N   0  3  2  0  0  0
  -31.4798  -12.5681   19.2044 H   0  0  0  0  0  0
  -30.4019  -11.4807   20.0289 H   0  0  0  0  0  0
  -29.7886  -11.5538   17.6333 H   0  0  0  0  0  0
  -29.7000  -13.2757   17.6328 H   0  0  0  0  0  0
  -27.8450  -11.2700   18.9129 H   0  0  0  0  0  0
  -27.4006  -12.5165   17.7887 H   0  0  0  0  0  0
  -27.6323  -14.2444   19.4535 H   0  0  0  0  0  0
  -28.7084  -12.1731   21.4228 H   0  0  0  0  0  0
  -28.4087  -13.8542   21.7892 H   0  0  0  0  0  0
  -25.2784   -9.5687   22.4766 H   0  0  0  0  0  0
  -24.0029   -7.4638   22.7484 H   0  0  0  0  0  0
  -21.0885   -8.8773   19.8942 H   0  0  0  0  0  0
  -22.3739  -10.9678   19.6172 H   0  0  0  0  0  0
  -21.1981   -7.6159   23.9734 H   0  0  0  0  0  0
  -21.1514   -6.0535   25.9089 H   0  0  0  0  0  0
  -22.0577   -2.7633   23.2847 H   0  0  0  0  0  0
  -22.4076  -11.9868   22.4776 H   0  0  0  0  0  0
  -21.1082  -13.1224   22.2604 H   0  0  0  0  0  0
  -24.6467  -15.8424   20.5193 H   0  0  0  0  0  0
  -26.2651  -15.6394   20.0823 H   0  0  0  0  0  0
  -26.7211  -32.5410   23.1070 H   0  0  0  0  0  0
  -25.0096  -33.9712   25.0401 H   0  0  0  0  0  0
  -22.7251  -31.2969   21.3897 H   0  0  0  0  0  0
  -23.3770  -35.9584   23.3250 H   0  0  0  0  0  0
  -24.3585  -36.8965   22.2063 H   0  0  0  0  0  0
  -23.7192  -37.6447   23.6702 H   0  0  0  0  0  0
  -26.1008  -31.5279   20.5952 H   0  0  0  0  0  0
  -26.8514  -30.8296   22.0005 H   0  0  0  0  0  0
  -28.1301  -28.9526   21.1850 H   0  0  0  0  0  0
  -25.9932  -25.8743   19.0510 H   0  0  0  0  0  0
  -23.9792  -27.2761   19.0296 H   0  0  0  0  0  0
  -23.7782  -30.5782   19.3994 H   0  0  0  0  0  0
  -22.7660  -29.2396   19.8504 H   0  0  0  0  0  0
  -25.1300  -36.1919   25.0809 H   0  0  0  0  0  0
  -20.9992  -28.3276   24.1385 H   0  0  0  0  0  0
  -20.5687  -26.2310   23.3624 H   0  0  0  0  0  0
  -21.6654  -26.7441   22.1204 H   0  0  0  0  0  0
  -19.6923  -25.6290   21.1262 H   0  0  0  0  0  0
  -19.6705  -27.3181   20.6739 H   0  0  0  0  0  0
  -17.4217  -26.6689   21.4016 H   0  0  0  0  0  0
  -18.0325  -26.0077   22.9009 H   0  0  0  0  0  0
  -19.7948  -30.7285   24.2261 H   0  0  0  0  0  0
  -17.5019  -31.6267   24.5172 H   0  0  0  0  0  0
  -15.5360  -30.2989   23.7661 H   0  0  0  0  0  0
  -15.8682  -28.0831   22.7055 H   0  0  0  0  0  0
  -24.5862  -30.7107   25.7731 H   0  0  0  0  0  0
  -24.8884  -32.2917   26.4842 H   0  0  0  0  0  0
  -25.7984  -30.8909   27.0216 H   0  0  0  0  0  0
  -26.2926  -29.6774   24.1194 H   0  0  0  0  0  0
  -27.4001  -29.7275   25.4712 H   0  0  0  0  0  0
  -27.8796  -30.4309   23.9444 H   0  0  0  0  0  0
  -27.2671  -33.3642   26.2038 H   0  0  0  0  0  0
  -28.3885  -32.6830   25.0357 H   0  0  0  0  0  0
  -28.0659  -31.8457   26.5458 H   0  0  0  0  0  0
  -28.2556  -38.0139   24.7575 H   0  0  0  0  0  0
  -28.1121  -36.2676   24.6189 H   0  0  0  0  0  0
  -27.2311  -37.1338   25.8854 H   0  0  0  0  0  0
  -20.9396  -29.8762   21.6858 H   0  0  0  0  0  0
  -26.0151  -38.2842   24.1469 H   0  0  0  0  0  0
  -28.9518  -18.4999   21.3209 H   0  0  0  0  0  0
  -28.2491  -25.0602   17.9191 H   0  0  0  0  0  0
  -28.9867  -23.4464   17.5066 H   0  0  0  0  0  0
  -28.3001  -22.9933   22.6413 H   0  0  0  0  0  0
  -29.8000  -23.5030   23.3674 H   0  0  0  0  0  0
  -29.9908  -25.3921   21.7963 H   0  0  0  0  0  0
  -28.5035  -25.4903   22.6941 H   0  0  0  0  0  0
  -30.3515  -21.7040   21.8053 H   0  0  0  0  0  0
  -30.9889  -23.1923   21.1749 H   0  0  0  0  0  0
  -27.1825  -24.7742   20.8556 H   0  0  0  0  0  0
  -28.8132  -21.3611   17.3994 H   0  0  0  0  0  0
  -30.0263  -20.7981   16.3373 H   0  0  0  0  0  0
  -30.5366  -21.7148   17.7396 H   0  0  0  0  0  0
  -31.6827  -19.3509   16.2201 H   0  0  0  0  0  0
  -30.2395  -18.5796   15.5360 H   0  0  0  0  0  0
  -31.6073  -17.6308   16.1237 H   0  0  0  0  0  0
  -30.0432  -16.1436   16.5169 H   0  0  0  0  0  0
  -29.4446  -15.3357   17.8991 H   0  0  0  0  0  0
  -31.2117  -15.4869   17.6709 H   0  0  0  0  0  0
  -28.1516  -20.9223   21.0542 H   0  0  0  0  0  0
  -27.7314  -21.2407   19.4280 H   0  0  0  0  0  0
  -28.8692  -15.7231   20.9472 H   0  0  0  0  0  0
  -30.0588  -22.3054   19.4762 H   0  0  0  0  0  0
  1 25  1  0  0  0
  1 30  2  0  0  0
  1 87  1  0  0  0
  2  3  1  0  0  0
  2 25  1  0  0  0
  2 89  1  0  0  0
  2 90  1  0  0  0
  3  4  1  0  0  0
  3 91  1  0  0  0
  3 92  1  0  0  0
  4  5  1  0  0  0
  4 93  1  0  0  0
  4 94  1  0  0  0
  5  6  1  0  0  0
  5 26  1  0  0  0
  5 95  1  0  0  0
  6 25  1  0  0  0
  6 96  1  0  0  0
  6 97  1  0  0  0
  7  8  2  0  0  0
  7 26  1  0  0  0
  7 29  1  0  0  0
  8  9  1  0  0  0
  8 22  1  0  0  0
  9 10  1  0  0  0
  9 27  2  0  0  0
 10 11  2  0  0  0
 10 15  1  0  0  0
 11 12  1  0  0  0
 11 98  1  0  0  0
 12 13  2  0  0  0
 12 99  1  0  0  0
 13 14  1  0  0  0
 13 31  1  0  0  0
 14 15  2  0  0  0
 14100  1  0  0  0
 15101  1  0  0  0
 16 17  2  0  0  0
 16 21  1  0  0  0
 16 31  1  0  0  0
 17 18  1  0  0  0
 17102  1  0  0  0
 18 19  2  0  0  0
 18103  1  0  0  0
 19 20  1  0  0  0
 19 24  1  0  0  0
 20 21  2  0  0  0
 20104  1  0  0  0
 21 23  1  0  0  0
 22 28  1  0  0  0
 22 32  2  0  0  0
 26 27  1  0  0  0
 28105  1  0  0  0
 28106  1  0  0  0
 29107  1  0  0  0
 29108  1  0  0  0
 33 34  1  0  0  0
 33 66  1  0  0  0
 33 70  2  0  0  0
 34 36  1  0  0  0
 34 59  1  0  0  0
 34109  1  0  0  0
 35 44  2  0  0  0
 35 45  1  0  0  0
 35 68  1  0  0  0
 36 56  1  0  0  0
 36110  1  0  0  0
 37 39  1  0  0  0
 37 47  1  0  0  0
 37 66  1  0  0  0
 37111  1  0  0  0
 38 43  2  0  0  0
 38 46  1  0  0  0
 38 47  1  0  0  0
 39 64  1  0  0  0
 39 67  2  0  0  0
 40 52  1  0  0  0
 40 53  2  0  0  0
 40 58  1  0  0  0
 41112  1  0  0  0
 41113  1  0  0  0
 41114  1  0  0  0
 41 48  1  0  0  0
 42 43  1  0  0  0
 42 66  1  0  0  0
 42115  1  0  0  0
 42116  1  0  0  0
 43 44  1  0  0  0
 44117  1  0  0  0
 45 46  2  0  0  0
 45118  1  0  0  0
 46119  1  0  0  0
 47120  1  0  0  0
 47121  1  0  0  0
 48 56  1  0  0  0
 48 65  1  0  0  0
 48122  1  0  0  0
 49 50  1  0  0  0
 49 53  1  0  0  0
 49 64  1  0  0  0
 49123  1  0  0  0
 50 51  1  0  0  0
 50124  1  0  0  0
 50125  1  0  0  0
 51 52  1  0  0  0
 51126  1  0  0  0
 51127  1  0  0  0
 52128  1  0  0  0
 52129  1  0  0  0
 53 54  1  0  0  0
 54 55  2  0  0  0
 54130  1  0  0  0
 55 57  1  0  0  0
 55131  1  0  0  0
 56 69  2  0  0  0
 57 58  2  0  0  0
 57132  1  0  0  0
 58133  1  0  0  0
 59 60  1  0  0  0
 59 61  1  0  0  0
 59 62  1  0  0  0
 60134  1  0  0  0
 60135  1  0  0  0
 60136  1  0  0  0
 61137  1  0  0  0
 61138  1  0  0  0
 61139  1  0  0  0
 62140  1  0  0  0
 62141  1  0  0  0
 62142  1  0  0  0
 63 65  1  0  0  0
 63143  1  0  0  0
 63144  1  0  0  0
 63145  1  0  0  0
 64146  1  0  0  0
 65147  1  0  0  0
 68 82  1  0  0  0
 71 72  2  0  0  0
 71 76  1  0  0  0
 71148  1  0  0  0
 72 73  1  0  0  0
 72 86  1  0  0  0
 73 74  2  0  0  0
 73 83  1  0  0  0
 74 75  1  0  0  0
 74 84  1  0  0  0
 75 76  2  0  0  0
 75 85  1  0  0  0
 76 87  1  0  0  0
 77 78  2  0  0  0
 77 82  1  0  0  0
 77 88  1  0  0  0
 78149  1  0  0  0
 78150  1  0  0  0
 79 80  1  0  0  0
 79 81  1  0  0  0
 79151  1  0  0  0
 79152  1  0  0  0
 80 82  1  0  0  0
 80153  1  0  0  0
 80154  1  0  0  0
 81 88  1  0  0  0
 81155  1  0  0  0
 81156  1  0  0  0
 82157  1  0  0  0
 83158  1  0  0  0
 83159  1  0  0  0
 83160  1  0  0  0
 84161  1  0  0  0
 84162  1  0  0  0
 84163  1  0  0  0
 85164  1  0  0  0
 85165  1  0  0  0
 85166  1  0  0  0
 86167  1  0  0  0
 86168  1  0  0  0
 86 88  1  0  0  0
 87169  1  0  0  0
 88170  1  0  0  0
M  CHG  1  88   1
M  ISO  4   1 100  68 101  82 101  87 100
M  END
> <chiral flag>
0

> <version>
0

> <s_m_source_file>
/data/baiqing/PycharmProjects/Reinvent-master-3.2/result/LINK_invent/BTK/process_docking_weight1_custom_product_contain_oxygen_bond_distance_aromatic_linkinvent_7_9_3/rearranged_h_0035.sdf

> <i_m_source_file_index>
1

> <r_mmod_Potential_Energy-OPLS-2005>
133.729354858398

> <r_mmod_Stretch_Energy-OPLS-2005>
149.25212097168

> <r_mmod_Bend_Energy-OPLS-2005>
185.261428833008

> <r_mmod_Torsional_Energy-OPLS-2005>
292.996185302734

> <r_mmod_Improper_Torsional_Energy-OPLS-2005>
7.56081676483154

> <r_mmod_Van_der_Waal_Energy-OPLS-2005>
157.886413574219

> <r_mmod_Electrostatic_Energy-OPLS-2005>
-316.914337158203

> <r_mmod_Solvation_Energy-OPLS-2005>
-433.082275390625

> <b_mmod_Minimization_Converged-OPLS-2005>
0

> <r_mmod_RMS_Derivative-OPLS-2005>
2.8229649066925

$$$$
1
                    3D
 Structure written by MMmdl.
159167  0  0  1  0            999 V2000
  -30.6936  -14.4592   20.5172 C   0  0  0  0  0  0
  -30.4203  -12.2771   19.4397 C   0  0  0  0  0  0
  -29.5031  -12.4972   18.2184 C   0  0  0  0  0  0
  -28.0200  -12.3700   18.6204 C   0  0  0  0  0  0
  -27.6637  -13.2083   19.8782 C   0  0  2  0  0  0
  -28.7042  -12.9956   21.0052 C   0  0  0  0  0  0
  -25.2605  -13.8186   20.5714 C   0  0  0  0  0  0
  -24.1865  -13.0455   20.9214 C   0  0  0  0  0  0
  -24.6425  -11.6920   20.8775 C   0  0  0  0  0  0
  -23.9101  -10.4286   21.0404 C   0  0  0  0  0  0
  -24.3636   -9.4193   21.9173 C   0  0  0  0  0  0
  -23.6302   -8.2237   22.0734 C   0  0  0  0  0  0
  -22.4283   -8.0287   21.3533 C   0  0  0  0  0  0
  -21.9939   -9.0267   20.4638 C   0  0  0  0  0  0
  -22.7280  -10.2142   20.3047 C   0  0  0  0  0  0
  -21.6852   -6.0751   22.5282 C   0  0  0  0  0  0
  -21.4013   -6.5641   23.8221 C   0  0  0  0  0  0
  -21.3664   -5.6783   24.9175 C   0  0  0  0  0  0
  -21.6044   -4.3049   24.7212 C   0  0  0  0  0  0
  -21.8826   -3.8156   23.4325 C   0  0  0  0  0  0
  -21.9189   -4.6979   22.3391 C   0  0  0  0  0  0
  -22.7875  -13.5233   21.1859 C   0  0  0  0  0  0
  -22.1656   -4.2174   21.0962 F   0  0  0  0  0  0
  -21.5622   -3.4523   25.7712 F   0  0  0  0  0  0
  -30.0427  -13.2681   20.4580 N   0  0  0  0  0  0
  -26.3047  -12.9354   20.3389 N   0  0  0  0  0  0
  -25.9353  -11.6513   20.5807 N   0  0  0  0  0  0
  -22.0504  -12.8237   22.0413 N   0  0  0  0  0  0
  -25.4291  -15.1917   20.4101 N   0  0  0  0  0  0
  -31.8451  -14.6243   20.1072 O   0  0  0  0  0  0
  -21.6633   -6.8902   21.4246 O   0  0  0  0  0  0
  -22.3552  -14.5522   20.6677 O   0  0  0  0  0  0
  -24.6143  -31.8706   23.2107 C   0  0  0  0  0  0
  -25.9045  -32.4834   23.8384 C   0  0  1  0  0  0
  -27.2191  -27.4386   20.0906 C   0  0  0  0  0  0
  -25.5902  -33.8625   24.2314 N   0  0  0  0  0  0
  -23.3983  -30.4994   21.5521 C   0  0  2  0  0  0
  -24.8386  -28.9688   20.1099 C   0  0  0  0  0  0
  -22.7402  -29.4698   22.4993 C   0  0  0  0  0  0
  -18.0279  -28.1380   22.8500 C   0  0  0  0  0  0
  -24.1490  -36.7311   23.2638 C   0  0  0  0  0  0
  -25.9283  -30.8368   21.3614 C   0  0  0  0  0  0
  -26.0002  -29.4734   20.7058 C   0  0  0  0  0  0
  -27.1932  -28.7168   20.6937 C   0  0  0  0  0  0
  -26.0386  -26.9565   19.4747 C   0  0  0  0  0  0
  -24.8520  -27.7091   19.4924 C   0  0  0  0  0  0
  -23.6022  -29.8373   20.1644 C   0  0  0  0  0  0
  -25.4113  -36.3117   24.0340 C   0  0  1  0  0  0
  -20.5875  -28.3673   23.1318 C   0  0  2  0  0  0
  -20.6781  -26.9411   22.5417 C   0  0  0  0  0  0
  -19.5753  -26.6392   21.5219 C   0  0  0  0  0  0
  -18.1929  -26.7935   22.1622 C   0  0  0  0  0  0
  -19.1531  -28.8840   23.2909 C   0  0  0  0  0  0
  -18.9458  -30.1452   23.8913 C   0  0  0  0  0  0
  -17.6462  -30.6592   24.0576 C   0  0  0  0  0  0
  -25.9043  -34.9482   23.5128 C   0  0  0  0  0  0
  -16.5353  -29.9099   23.6323 C   0  0  0  0  0  0
  -16.7269  -28.6511   23.0348 C   0  0  0  0  0  0
  -26.4464  -31.6605   25.0706 C   0  0  0  0  0  0
  -25.3730  -31.3714   26.1457 C   0  0  0  0  0  0
  -27.0282  -30.3053   24.6051 C   0  0  0  0  0  0
  -27.6040  -32.4326   25.7467 C   0  0  0  0  0  0
  -27.5586  -37.1812   24.8472 C   0  0  0  0  0  0
  -21.4138  -29.3049   22.3724 N   0  0  0  0  0  0
  -26.4303  -37.3800   23.9413 N   0  0  0  0  0  0
  -24.6653  -31.0835   22.0989 N   0  0  0  0  0  0
  -23.4195  -28.8239   23.3020 O   0  0  0  0  0  0
  -28.3854  -26.7005   20.1270 O   0  0  0  0  0  0
  -26.5613  -34.8940   22.4699 O   0  0  0  0  0  0
  -23.5344  -32.1432   23.7529 O   0  0  0  0  0  0
  -30.6980  -18.9779   19.4747 C   0  0  0  0  0  0
  -29.4580  -18.4814   21.4986 C   0  0  0  0  0  0
  -30.0310  -18.0433   20.2897 C   0  0  0  0  0  0
  -30.7766  -20.3403   19.8283 C   0  0  0  0  0  0
  -30.1850  -20.7932   21.0404 C   0  0  0  0  0  0
  -29.5316  -19.8419   21.8737 C   0  0  0  0  0  0
  -31.5028  -21.2613   18.8540 C   0  0  0  0  0  0
  -29.8567  -16.6217   19.7668 C   0  0  0  0  0  0
  -30.2420  -22.2763   21.4345 C   0  0  0  0  0  0
  -29.3994  -24.5402   20.7486 C   0  0  0  0  0  0
  -28.2433  -25.2745   20.0402 C   0  0  0  0  0  0
  -29.8868  -15.5118   20.7274 N   0  0  0  0  0  0
  -29.2163  -23.0644   20.7125 N   0  3  0  0  0  0
  -28.7692  -20.3136   23.3516 Cl  0  0  0  0  0  0
  -31.4675  -12.3606   19.1452 H   0  0  0  0  0  0
  -30.3017  -11.2673   19.8352 H   0  0  0  0  0  0
  -29.7388  -11.7761   17.4358 H   0  0  0  0  0  0
  -29.6905  -13.4826   17.7898 H   0  0  0  0  0  0
  -27.8259  -11.3148   18.8112 H   0  0  0  0  0  0
  -27.3781  -12.6502   17.7839 H   0  0  0  0  0  0
  -27.6990  -14.2529   19.5711 H   0  0  0  0  0  0
  -28.6652  -11.9690   21.3711 H   0  0  0  0  0  0
  -28.4823  -13.6270   21.8678 H   0  0  0  0  0  0
  -25.2777   -9.5654   22.4757 H   0  0  0  0  0  0
  -24.0004   -7.4619   22.7447 H   0  0  0  0  0  0
  -21.0862   -8.8810   19.8939 H   0  0  0  0  0  0
  -22.3749  -10.9683   19.6156 H   0  0  0  0  0  0
  -21.2000   -7.6146   23.9744 H   0  0  0  0  0  0
  -21.1487   -6.0497   25.9088 H   0  0  0  0  0  0
  -22.0603   -2.7617   23.2812 H   0  0  0  0  0  0
  -22.4087  -11.9889   22.4815 H   0  0  0  0  0  0
  -21.1110  -13.1271   22.2580 H   0  0  0  0  0  0
  -24.6555  -15.8411   20.5086 H   0  0  0  0  0  0
  -26.2804  -15.6385   20.0946 H   0  0  0  0  0  0
  -26.7108  -32.5538   23.1138 H   0  0  0  0  0  0
  -25.0065  -33.9783   25.0468 H   0  0  0  0  0  0
  -22.6872  -31.3175   21.4190 H   0  0  0  0  0  0
  -23.3761  -35.9642   23.3319 H   0  0  0  0  0  0
  -24.3578  -36.8895   22.2050 H   0  0  0  0  0  0
  -23.7237  -37.6515   23.6638 H   0  0  0  0  0  0
  -26.0447  -31.6027   20.5938 H   0  0  0  0  0  0
  -26.8166  -30.8852   21.9788 H   0  0  0  0  0  0
  -28.0892  -29.1032   21.1577 H   0  0  0  0  0  0
  -26.0064  -26.0012   18.9716 H   0  0  0  0  0  0
  -23.9607  -27.3171   19.0220 H   0  0  0  0  0  0
  -23.7098  -30.6160   19.4081 H   0  0  0  0  0  0
  -22.7221  -29.2641   19.8674 H   0  0  0  0  0  0
  -25.1290  -36.1981   25.0832 H   0  0  0  0  0  0
  -20.9963  -28.3241   24.1440 H   0  0  0  0  0  0
  -20.5699  -26.2281   23.3608 H   0  0  0  0  0  0
  -21.6651  -26.7476   22.1193 H   0  0  0  0  0  0
  -19.6923  -25.6308   21.1233 H   0  0  0  0  0  0
  -19.6689  -27.3226   20.6770 H   0  0  0  0  0  0
  -17.4206  -26.6696   21.4019 H   0  0  0  0  0  0
  -18.0318  -26.0075   22.9006 H   0  0  0  0  0  0
  -19.7937  -30.7270   24.2279 H   0  0  0  0  0  0
  -17.5020  -31.6271   24.5187 H   0  0  0  0  0  0
  -15.5356  -30.3014   23.7642 H   0  0  0  0  0  0
  -15.8664  -28.0845   22.7047 H   0  0  0  0  0  0
  -24.5909  -30.7042   25.7804 H   0  0  0  0  0  0
  -24.8912  -32.2870   26.4898 H   0  0  0  0  0  0
  -25.8086  -30.8891   27.0219 H   0  0  0  0  0  0
  -26.2793  -29.6834   24.1122 H   0  0  0  0  0  0
  -27.4083  -29.7267   25.4483 H   0  0  0  0  0  0
  -27.8627  -30.4385   23.9164 H   0  0  0  0  0  0
  -27.2645  -33.3619   26.2063 H   0  0  0  0  0  0
  -28.3840  -32.6899   25.0282 H   0  0  0  0  0  0
  -28.0724  -31.8438   26.5365 H   0  0  0  0  0  0
  -28.2625  -38.0089   24.7518 H   0  0  0  0  0  0
  -28.1055  -36.2627   24.6305 H   0  0  0  0  0  0
  -27.2303  -37.1473   25.8871 H   0  0  0  0  0  0
  -20.9294  -29.8751   21.6929 H   0  0  0  0  0  0
  -26.0196  -38.2880   24.1401 H   0  0  0  0  0  0
  -31.1388  -18.6478   18.5426 H   0  0  0  0  0  0
  -28.9278  -17.7816   22.1282 H   0  0  0  0  0  0
  -31.1621  -21.0674   17.8360 H   0  0  0  0  0  0
  -32.5767  -21.0690   18.8866 H   0  0  0  0  0  0
  -31.3509  -22.3234   19.0363 H   0  0  0  0  0  0
  -30.5719  -16.4586   18.9574 H   0  0  0  0  0  0
  -28.8805  -16.5820   19.2811 H   0  0  0  0  0  0
  -31.2387  -22.6631   21.2237 H   0  0  0  0  0  0
  -30.1122  -22.4205   22.5068 H   0  0  0  0  0  0
  -29.4496  -24.8684   21.7877 H   0  0  0  0  0  0
  -30.3469  -24.8015   20.2772 H   0  0  0  0  0  0
  -27.3165  -24.9482   20.5154 H   0  0  0  0  0  0
  -28.1861  -24.9814   18.9904 H   0  0  0  0  0  0
  -29.0002  -15.2860   21.1514 H   0  0  0  0  0  0
  -28.3176  -22.8293   21.1049 H   0  0  0  0  0  0
  -29.2117  -22.7610   19.7513 H   0  0  0  0  0  0
  1 25  1  0  0  0
  1 30  2  0  0  0
  1 82  1  0  0  0
  2  3  1  0  0  0
  2 25  1  0  0  0
  2 85  1  0  0  0
  2 86  1  0  0  0
  3  4  1  0  0  0
  3 87  1  0  0  0
  3 88  1  0  0  0
  4  5  1  0  0  0
  4 89  1  0  0  0
  4 90  1  0  0  0
  5  6  1  0  0  0
  5 26  1  0  0  0
  5 91  1  0  0  0
  6 25  1  0  0  0
  6 92  1  0  0  0
  6 93  1  0  0  0
  7  8  2  0  0  0
  7 26  1  0  0  0
  7 29  1  0  0  0
  8  9  1  0  0  0
  8 22  1  0  0  0
  9 10  1  0  0  0
  9 27  2  0  0  0
 10 11  2  0  0  0
 10 15  1  0  0  0
 11 12  1  0  0  0
 11 94  1  0  0  0
 12 13  2  0  0  0
 12 95  1  0  0  0
 13 14  1  0  0  0
 13 31  1  0  0  0
 14 15  2  0  0  0
 14 96  1  0  0  0
 15 97  1  0  0  0
 16 17  2  0  0  0
 16 21  1  0  0  0
 16 31  1  0  0  0
 17 18  1  0  0  0
 17 98  1  0  0  0
 18 19  2  0  0  0
 18 99  1  0  0  0
 19 20  1  0  0  0
 19 24  1  0  0  0
 20 21  2  0  0  0
 20100  1  0  0  0
 21 23  1  0  0  0
 22 28  1  0  0  0
 22 32  2  0  0  0
 26 27  1  0  0  0
 28101  1  0  0  0
 28102  1  0  0  0
 29103  1  0  0  0
 29104  1  0  0  0
 33 34  1  0  0  0
 33 66  1  0  0  0
 33 70  2  0  0  0
 34 36  1  0  0  0
 34 59  1  0  0  0
 34105  1  0  0  0
 35 44  2  0  0  0
 35 45  1  0  0  0
 35 68  1  0  0  0
 36 56  1  0  0  0
 36106  1  0  0  0
 37 39  1  0  0  0
 37 47  1  0  0  0
 37 66  1  0  0  0
 37107  1  0  0  0
 38 43  2  0  0  0
 38 46  1  0  0  0
 38 47  1  0  0  0
 39 64  1  0  0  0
 39 67  2  0  0  0
 40 52  1  0  0  0
 40 53  2  0  0  0
 40 58  1  0  0  0
 41108  1  0  0  0
 41109  1  0  0  0
 41110  1  0  0  0
 41 48  1  0  0  0
 42 43  1  0  0  0
 42 66  1  0  0  0
 42111  1  0  0  0
 42112  1  0  0  0
 43 44  1  0  0  0
 44113  1  0  0  0
 45 46  2  0  0  0
 45114  1  0  0  0
 46115  1  0  0  0
 47116  1  0  0  0
 47117  1  0  0  0
 48 56  1  0  0  0
 48 65  1  0  0  0
 48118  1  0  0  0
 49 50  1  0  0  0
 49 53  1  0  0  0
 49 64  1  0  0  0
 49119  1  0  0  0
 50 51  1  0  0  0
 50120  1  0  0  0
 50121  1  0  0  0
 51 52  1  0  0  0
 51122  1  0  0  0
 51123  1  0  0  0
 52124  1  0  0  0
 52125  1  0  0  0
 53 54  1  0  0  0
 54 55  2  0  0  0
 54126  1  0  0  0
 55 57  1  0  0  0
 55127  1  0  0  0
 56 69  2  0  0  0
 57 58  2  0  0  0
 57128  1  0  0  0
 58129  1  0  0  0
 59 60  1  0  0  0
 59 61  1  0  0  0
 59 62  1  0  0  0
 60130  1  0  0  0
 60131  1  0  0  0
 60132  1  0  0  0
 61133  1  0  0  0
 61134  1  0  0  0
 61135  1  0  0  0
 62136  1  0  0  0
 62137  1  0  0  0
 62138  1  0  0  0
 63 65  1  0  0  0
 63139  1  0  0  0
 63140  1  0  0  0
 63141  1  0  0  0
 64142  1  0  0  0
 65143  1  0  0  0
 68 81  1  0  0  0
 71 73  2  0  0  0
 71 74  1  0  0  0
 71144  1  0  0  0
 72 73  1  0  0  0
 72 76  2  0  0  0
 72145  1  0  0  0
 73 78  1  0  0  0
 74 75  2  0  0  0
 74 77  1  0  0  0
 75 76  1  0  0  0
 75 79  1  0  0  0
 76 84  1  0  0  0
 77146  1  0  0  0
 77147  1  0  0  0
 77148  1  0  0  0
 78 82  1  0  0  0
 78149  1  0  0  0
 78150  1  0  0  0
 79 83  1  0  0  0
 79151  1  0  0  0
 79152  1  0  0  0
 80 81  1  0  0  0
 80 83  1  0  0  0
 80153  1  0  0  0
 80154  1  0  0  0
 81155  1  0  0  0
 81156  1  0  0  0
 82157  1  0  0  0
 83158  1  0  0  0
 83159  1  0  0  0
M  CHG  1  83   1
M  ISO  4   1 100  68 101  81 101  82 100
M  END
> <chiral flag>
0

> <version>
0

> <s_m_source_file>
/data/baiqing/PycharmProjects/Reinvent-master-3.2/result/LINK_invent/BTK/process_docking_weight1_custom_product_contain_oxygen_bond_distance_aromatic_linkinvent_7_9_3/rearranged_h_0035.sdf

> <i_m_source_file_index>
2

> <r_mmod_Potential_Energy-OPLS-2005>
-249.357543945312

> <r_mmod_Stretch_Energy-OPLS-2005>
35.9125137329102

> <r_mmod_Bend_Energy-OPLS-2005>
94.4699783325195

> <r_mmod_Torsional_Energy-OPLS-2005>
216.782363891602

> <r_mmod_Improper_Torsional_Energy-OPLS-2005>
12.2175979614258

> <r_mmod_Van_der_Waal_Energy-OPLS-2005>
158.875701904297

> <r_mmod_Electrostatic_Energy-OPLS-2005>
-327.184234619141

> <r_mmod_Solvation_Energy-OPLS-2005>
-455.025726318359

> <b_mmod_Minimization_Converged-OPLS-2005>
0

> <r_mmod_RMS_Derivative-OPLS-2005>
2.37525606155396

$$$$
2
                    3D
 Structure written by MMmdl.
169178  0  0  1  0            999 V2000
  -30.5948  -14.7726   20.4553 C   0  0  0  0  0  0
  -30.4360  -12.4711   19.4696 C   0  0  0  0  0  0
  -29.5141  -12.5178   18.2323 C   0  0  0  0  0  0
  -28.0416  -12.3304   18.6492 C   0  0  0  0  0  0
  -27.6423  -13.2299   19.8496 C   0  0  2  0  0  0
  -28.6882  -13.1790   20.9836 C   0  0  0  0  0  0
  -25.2549  -13.8178   20.5710 C   0  0  0  0  0  0
  -24.1838  -13.0434   20.9194 C   0  0  0  0  0  0
  -24.6412  -11.6900   20.8737 C   0  0  0  0  0  0
  -23.9089  -10.4291   21.0422 C   0  0  0  0  0  0
  -24.3633   -9.4212   21.9208 C   0  0  0  0  0  0
  -23.6313   -8.2252   22.0789 C   0  0  0  0  0  0
  -22.4301   -8.0291   21.3570 C   0  0  0  0  0  0
  -21.9942   -9.0257   20.4665 C   0  0  0  0  0  0
  -22.7268  -10.2135   20.3075 C   0  0  0  0  0  0
  -21.6865   -6.0735   22.5265 C   0  0  0  0  0  0
  -21.4016   -6.5630   23.8193 C   0  0  0  0  0  0
  -21.3675   -5.6788   24.9157 C   0  0  0  0  0  0
  -21.6051   -4.3053   24.7224 C   0  0  0  0  0  0
  -21.8825   -3.8151   23.4338 C   0  0  0  0  0  0
  -21.9195   -4.6961   22.3396 C   0  0  0  0  0  0
  -22.7868  -13.5219   21.1840 C   0  0  0  0  0  0
  -22.1682   -4.2141   21.0979 F   0  0  0  0  0  0
  -21.5638   -3.4547   25.7747 F   0  0  0  0  0  0
  -29.9821  -13.5398   20.3918 N   0  0  0  0  0  0
  -26.2952  -12.9370   20.3283 N   0  0  0  0  0  0
  -25.9333  -11.6511   20.5735 N   0  0  0  0  0  0
  -22.0512  -12.8210   22.0376 N   0  0  0  0  0  0
  -25.4244  -15.1909   20.4141 N   0  0  0  0  0  0
  -31.7801  -14.8714   20.1279 O   0  0  0  0  0  0
  -21.6668   -6.8890   21.4242 O   0  0  0  0  0  0
  -22.3569  -14.5533   20.6676 O   0  0  0  0  0  0
  -24.6301  -31.8543   23.1955 C   0  0  0  0  0  0
  -25.9132  -32.4753   23.8302 C   0  0  1  0  0  0
  -27.2311  -27.2530   20.1512 C   0  0  0  0  0  0
  -25.5931  -33.8560   24.2220 N   0  0  0  0  0  0
  -23.4273  -30.4713   21.5404 C   0  0  2  0  0  0
  -24.8752  -28.8959   20.1295 C   0  0  0  0  0  0
  -22.7474  -29.4604   22.4946 C   0  0  0  0  0  0
  -18.0273  -28.1381   22.8485 C   0  0  0  0  0  0
  -24.1482  -36.7277   23.2638 C   0  0  0  0  0  0
  -25.9711  -30.7607   21.3767 C   0  0  0  0  0  0
  -26.0449  -29.3768   20.7314 C   0  0  0  0  0  0
  -27.2263  -28.5692   20.7250 C   0  0  0  0  0  0
  -26.0367  -26.8240   19.5397 C   0  0  0  0  0  0
  -24.8736  -27.6249   19.5266 C   0  0  0  0  0  0
  -23.6472  -29.7872   20.1641 C   0  0  0  0  0  0
  -25.4121  -36.3077   24.0313 C   0  0  1  0  0  0
  -20.5873  -28.3698   23.1275 C   0  0  2  0  0  0
  -20.6774  -26.9423   22.5402 C   0  0  0  0  0  0
  -19.5747  -26.6386   21.5210 C   0  0  0  0  0  0
  -18.1924  -26.7919   22.1622 C   0  0  0  0  0  0
  -19.1528  -28.8858   23.2873 C   0  0  0  0  0  0
  -18.9457  -30.1466   23.8879 C   0  0  0  0  0  0
  -17.6463  -30.6595   24.0562 C   0  0  0  0  0  0
  -25.9067  -34.9446   23.5074 C   0  0  0  0  0  0
  -16.5351  -29.9088   23.6344 C   0  0  0  0  0  0
  -16.7265  -28.6507   23.0362 C   0  0  0  0  0  0
  -26.4476  -31.6585   25.0712 C   0  0  0  0  0  0
  -25.3677  -31.3767   26.1420 C   0  0  0  0  0  0
  -27.0330  -30.2984   24.6254 C   0  0  0  0  0  0
  -27.5991  -32.4349   25.7524 C   0  0  0  0  0  0
  -27.5572  -37.1806   24.8461 C   0  0  0  0  0  0
  -21.4184  -29.3044   22.3671 N   0  0  0  0  0  0
  -26.4291  -37.3787   23.9395 N   0  0  0  0  0  0
  -24.6953  -31.0485   22.0935 N   0  0  0  0  0  0
  -23.4163  -28.8175   23.3082 O   0  0  0  0  0  0
  -28.3729  -26.4327   20.0628 O   0  0  0  0  0  0
  -26.5662  -34.8929   22.4659 O   0  0  0  0  0  0
  -23.5448  -32.1385   23.7237 O   0  0  0  0  0  0
  -29.3484  -18.4866   20.4739 C   0  0  0  0  0  0
  -29.4883  -19.8609   20.9617 C   0  0  0  0  0  0
  -30.4263  -20.0329   22.0209 C   0  0  0  0  0  0
  -31.2602  -18.9577   22.4397 C   0  0  0  0  0  0
  -30.0958  -17.3321   20.9788 C   0  0  0  0  0  0
  -31.0569  -17.6284   21.9844 C   0  0  0  0  0  0
  -30.0048  -24.9461   20.9832 C   0  0  0  0  0  0
  -30.7350  -24.2459   19.8255 C   0  0  0  0  0  0
  -28.0249  -23.6879   19.9798 C   0  0  0  0  0  0
  -28.5014  -25.0686   20.6893 C   0  0  2  0  0  0
  -30.4171  -22.7303   19.7768 C   0  0  2  0  0  0
  -30.4831  -21.3277   22.8391 C   0  0  0  0  0  0
  -32.3631  -19.2216   23.4655 C   0  0  0  0  0  0
  -30.9666  -22.0952   18.4906 C   0  0  0  0  0  0
  -28.5153  -21.0864   20.5518 C   0  0  0  0  0  0
  -29.7938  -15.9045   20.6301 N   0  0  0  0  0  0
  -28.9570  -22.4382   19.9155 N   0  3  1  0  0  0
  -31.8922  -16.3580   22.8263 Cl  0  0  0  0  0  0
  -31.4779  -12.5920   19.1707 H   0  0  0  0  0  0
  -30.3799  -11.4980   19.9595 H   0  0  0  0  0  0
  -29.8026  -11.7494   17.5139 H   0  0  0  0  0  0
  -29.6343  -13.4756   17.7215 H   0  0  0  0  0  0
  -27.9104  -11.2808   18.9176 H   0  0  0  0  0  0
  -27.3806  -12.5164   17.8030 H   0  0  0  0  0  0
  -27.6315  -14.2480   19.4606 H   0  0  0  0  0  0
  -28.7348  -12.1877   21.4377 H   0  0  0  0  0  0
  -28.4231  -13.8702   21.7857 H   0  0  0  0  0  0
  -25.2788   -9.5680   22.4778 H   0  0  0  0  0  0
  -24.0019   -7.4650   22.7506 H   0  0  0  0  0  0
  -21.0894   -8.8774   19.8957 H   0  0  0  0  0  0
  -22.3753  -10.9677   19.6185 H   0  0  0  0  0  0
  -21.2011   -7.6145   23.9683 H   0  0  0  0  0  0
  -21.1503   -6.0535   25.9048 H   0  0  0  0  0  0
  -22.0594   -2.7613   23.2839 H   0  0  0  0  0  0
  -22.4143  -11.9866   22.4758 H   0  0  0  0  0  0
  -21.1119  -13.1221   22.2546 H   0  0  0  0  0  0
  -24.6599  -15.8450   20.5394 H   0  0  0  0  0  0
  -26.2624  -15.6311   20.0565 H   0  0  0  0  0  0
  -26.7197  -32.5392   23.1038 H   0  0  0  0  0  0
  -25.0038  -33.9692   25.0336 H   0  0  0  0  0  0
  -22.7245  -31.2928   21.3855 H   0  0  0  0  0  0
  -23.3763  -35.9591   23.3308 H   0  0  0  0  0  0
  -24.3551  -36.8912   22.2049 H   0  0  0  0  0  0
  -23.7215  -37.6467   23.6671 H   0  0  0  0  0  0
  -26.1087  -31.5149   20.6008 H   0  0  0  0  0  0
  -26.8473  -30.8135   22.0124 H   0  0  0  0  0  0
  -28.1298  -28.9459   21.1840 H   0  0  0  0  0  0
  -26.0045  -25.8545   19.0632 H   0  0  0  0  0  0
  -23.9747  -27.2463   19.0593 H   0  0  0  0  0  0
  -23.7722  -30.5532   19.3977 H   0  0  0  0  0  0
  -22.7648  -29.2170   19.8668 H   0  0  0  0  0  0
  -25.1306  -36.1921   25.0807 H   0  0  0  0  0  0
  -20.9946  -28.3277   24.1405 H   0  0  0  0  0  0
  -20.5689  -26.2309   23.3607 H   0  0  0  0  0  0
  -21.6646  -26.7467   22.1197 H   0  0  0  0  0  0
  -19.6928  -25.6299   21.1246 H   0  0  0  0  0  0
  -19.6684  -27.3194   20.6736 H   0  0  0  0  0  0
  -17.4201  -26.6661   21.4025 H   0  0  0  0  0  0
  -18.0336  -26.0050   22.9006 H   0  0  0  0  0  0
  -19.7941  -30.7281   24.2225 H   0  0  0  0  0  0
  -17.5025  -31.6267   24.5168 H   0  0  0  0  0  0
  -15.5359  -30.2995   23.7675 H   0  0  0  0  0  0
  -15.8659  -28.0831   22.7079 H   0  0  0  0  0  0
  -24.5822  -30.7163   25.7736 H   0  0  0  0  0  0
  -24.8913  -32.2958   26.4838 H   0  0  0  0  0  0
  -25.7965  -30.8928   27.0203 H   0  0  0  0  0  0
  -26.2950  -29.6748   24.1204 H   0  0  0  0  0  0
  -27.3874  -29.7250   25.4827 H   0  0  0  0  0  0
  -27.8875  -30.4218   23.9601 H   0  0  0  0  0  0
  -27.2536  -33.3624   26.2101 H   0  0  0  0  0  0
  -28.3818  -32.6960   25.0392 H   0  0  0  0  0  0
  -28.0635  -31.8487   26.5462 H   0  0  0  0  0  0
  -28.2600  -38.0097   24.7521 H   0  0  0  0  0  0
  -28.1065  -36.2631   24.6289 H   0  0  0  0  0  0
  -27.2283  -37.1458   25.8864 H   0  0  0  0  0  0
  -20.9383  -29.8717   21.6828 H   0  0  0  0  0  0
  -26.0168  -38.2863   24.1410 H   0  0  0  0  0  0
  -28.5812  -18.2970   19.7349 H   0  0  0  0  0  0
  -30.4353  -25.9298   21.1694 H   0  0  0  0  0  0
  -30.1602  -24.3799   21.9022 H   0  0  0  0  0  0
  -31.8103  -24.3846   19.9390 H   0  0  0  0  0  0
  -30.4674  -24.7302   18.8846 H   0  0  0  0  0  0
  -27.8224  -23.9413   18.9400 H   0  0  0  0  0  0
  -27.0566  -23.3934   20.3831 H   0  0  0  0  0  0
  -27.9927  -25.1373   21.6523 H   0  0  0  0  0  0
  -30.9672  -22.2781   20.5900 H   0  0  0  0  0  0
  -29.7053  -22.0510   22.6093 H   0  0  0  0  0  0
  -31.4419  -21.8340   22.7274 H   0  0  0  0  0  0
  -30.3517  -21.0926   23.8952 H   0  0  0  0  0  0
  -33.2051  -18.5400   23.3488 H   0  0  0  0  0  0
  -31.9796  -19.1310   24.4807 H   0  0  0  0  0  0
  -32.7992  -20.2112   23.3471 H   0  0  0  0  0  0
  -30.4882  -22.4975   17.5974 H   0  0  0  0  0  0
  -30.8248  -21.0139   18.4899 H   0  0  0  0  0  0
  -32.0365  -22.2788   18.3914 H   0  0  0  0  0  0
  -27.9455  -21.3249   21.4494 H   0  0  0  0  0  0
  -27.7632  -20.6782   19.8753 H   0  0  0  0  0  0
  -28.8087  -15.6952   20.5984 H   0  0  0  0  0  0
  -28.7776  -22.1759   18.9580 H   0  0  0  0  0  0
  1 25  1  0  0  0
  1 30  2  0  0  0
  1 86  1  0  0  0
  2  3  1  0  0  0
  2 25  1  0  0  0
  2 89  1  0  0  0
  2 90  1  0  0  0
  3  4  1  0  0  0
  3 91  1  0  0  0
  3 92  1  0  0  0
  4  5  1  0  0  0
  4 93  1  0  0  0
  4 94  1  0  0  0
  5  6  1  0  0  0
  5 26  1  0  0  0
  5 95  1  0  0  0
  6 25  1  0  0  0
  6 96  1  0  0  0
  6 97  1  0  0  0
  7  8  2  0  0  0
  7 26  1  0  0  0
  7 29  1  0  0  0
  8  9  1  0  0  0
  8 22  1  0  0  0
  9 10  1  0  0  0
  9 27  2  0  0  0
 10 11  2  0  0  0
 10 15  1  0  0  0
 11 12  1  0  0  0
 11 98  1  0  0  0
 12 13  2  0  0  0
 12 99  1  0  0  0
 13 14  1  0  0  0
 13 31  1  0  0  0
 14 15  2  0  0  0
 14100  1  0  0  0
 15101  1  0  0  0
 16 17  2  0  0  0
 16 21  1  0  0  0
 16 31  1  0  0  0
 17 18  1  0  0  0
 17102  1  0  0  0
 18 19  2  0  0  0
 18103  1  0  0  0
 19 20  1  0  0  0
 19 24  1  0  0  0
 20 21  2  0  0  0
 20104  1  0  0  0
 21 23  1  0  0  0
 22 28  1  0  0  0
 22 32  2  0  0  0
 26 27  1  0  0  0
 28105  1  0  0  0
 28106  1  0  0  0
 29107  1  0  0  0
 29108  1  0  0  0
 33 34  1  0  0  0
 33 66  1  0  0  0
 33 70  2  0  0  0
 34 36  1  0  0  0
 34 59  1  0  0  0
 34109  1  0  0  0
 35 44  2  0  0  0
 35 45  1  0  0  0
 35 68  1  0  0  0
 36 56  1  0  0  0
 36110  1  0  0  0
 37 39  1  0  0  0
 37 47  1  0  0  0
 37 66  1  0  0  0
 37111  1  0  0  0
 38 43  2  0  0  0
 38 46  1  0  0  0
 38 47  1  0  0  0
 39 64  1  0  0  0
 39 67  2  0  0  0
 40 52  1  0  0  0
 40 53  2  0  0  0
 40 58  1  0  0  0
 41112  1  0  0  0
 41113  1  0  0  0
 41114  1  0  0  0
 41 48  1  0  0  0
 42 43  1  0  0  0
 42 66  1  0  0  0
 42115  1  0  0  0
 42116  1  0  0  0
 43 44  1  0  0  0
 44117  1  0  0  0
 45 46  2  0  0  0
 45118  1  0  0  0
 46119  1  0  0  0
 47120  1  0  0  0
 47121  1  0  0  0
 48 56  1  0  0  0
 48 65  1  0  0  0
 48122  1  0  0  0
 49 50  1  0  0  0
 49 53  1  0  0  0
 49 64  1  0  0  0
 49123  1  0  0  0
 50 51  1  0  0  0
 50124  1  0  0  0
 50125  1  0  0  0
 51 52  1  0  0  0
 51126  1  0  0  0
 51127  1  0  0  0
 52128  1  0  0  0
 52129  1  0  0  0
 53 54  1  0  0  0
 54 55  2  0  0  0
 54130  1  0  0  0
 55 57  1  0  0  0
 55131  1  0  0  0
 56 69  2  0  0  0
 57 58  2  0  0  0
 57132  1  0  0  0
 58133  1  0  0  0
 59 60  1  0  0  0
 59 61  1  0  0  0
 59 62  1  0  0  0
 60134  1  0  0  0
 60135  1  0  0  0
 60136  1  0  0  0
 61137  1  0  0  0
 61138  1  0  0  0
 61139  1  0  0  0
 62140  1  0  0  0
 62141  1  0  0  0
 62142  1  0  0  0
 63 65  1  0  0  0
 63143  1  0  0  0
 63144  1  0  0  0
 63145  1  0  0  0
 64146  1  0  0  0
 65147  1  0  0  0
 68 80  1  0  0  0
 71 72  2  0  0  0
 71 75  1  0  0  0
 71148  1  0  0  0
 72 73  1  0  0  0
 72 85  1  0  0  0
 73 74  2  0  0  0
 73 82  1  0  0  0
 74 76  1  0  0  0
 74 83  1  0  0  0
 75 76  2  0  0  0
 75 86  1  0  0  0
 76 88  1  0  0  0
 77 78  1  0  0  0
 77 80  1  0  0  0
 77149  1  0  0  0
 77150  1  0  0  0
 78 81  1  0  0  0
 78151  1  0  0  0
 78152  1  0  0  0
 79 80  1  0  0  0
 79 87  1  0  0  0
 79153  1  0  0  0
 79154  1  0  0  0
 80155  1  0  0  0
 81 84  1  0  0  0
 81 87  1  0  0  0
 81156  1  0  0  0
 82157  1  0  0  0
 82158  1  0  0  0
 82159  1  0  0  0
 83160  1  0  0  0
 83161  1  0  0  0
 83162  1  0  0  0
 84163  1  0  0  0
 84164  1  0  0  0
 84165  1  0  0  0
 85166  1  0  0  0
 85167  1  0  0  0
 85 87  1  0  0  0
 86168  1  0  0  0
 87169  1  0  0  0
M  CHG  1  87   1
M  ISO  4   1 100  68 101  80 101  86 100
M  END
> <chiral flag>
0

> <version>
0

> <s_m_source_file>
/data/baiqing/PycharmProjects/Reinvent-master-3.2/result/LINK_invent/BTK/process_docking_weight1_custom_product_contain_oxygen_bond_distance_aromatic_linkinvent_7_9_3/rearranged_h_0035.sdf

> <i_m_source_file_index>
3

> <r_mmod_Potential_Energy-OPLS-2005>
244.114227294922

> <r_mmod_Stretch_Energy-OPLS-2005>
149.381683349609

> <r_mmod_Bend_Energy-OPLS-2005>
226.509628295898

> <r_mmod_Torsional_Energy-OPLS-2005>
320.693511962891

> <r_mmod_Improper_Torsional_Energy-OPLS-2005>
9.16342449188232

> <r_mmod_Van_der_Waal_Energy-OPLS-2005>
154.899917602539

> <r_mmod_Electrostatic_Energy-OPLS-2005>
-269.763031005859

> <r_mmod_Solvation_Energy-OPLS-2005>
-433.426055908203

> <b_mmod_Minimization_Converged-OPLS-2005>
0

> <r_mmod_RMS_Derivative-OPLS-2005>
2.94750809669495

$$$$
3
                    3D
 Structure written by MMmdl.
167176  0  0  1  0            999 V2000
  -30.6009  -14.7614   20.4932 C   0  0  0  0  0  0
  -30.4344  -12.4738   19.4727 C   0  0  0  0  0  0
  -29.5073  -12.5079   18.2373 C   0  0  0  0  0  0
  -28.0373  -12.3219   18.6581 C   0  0  0  0  0  0
  -27.6403  -13.2292   19.8529 C   0  0  2  0  0  0
  -28.6849  -13.1676   20.9885 C   0  0  0  0  0  0
  -25.2517  -13.8197   20.5725 C   0  0  0  0  0  0
  -24.1794  -13.0445   20.9225 C   0  0  0  0  0  0
  -24.6379  -11.6920   20.8760 C   0  0  0  0  0  0
  -23.9063  -10.4294   21.0419 C   0  0  0  0  0  0
  -24.3615   -9.4214   21.9201 C   0  0  0  0  0  0
  -23.6288   -8.2246   22.0756 C   0  0  0  0  0  0
  -22.4281   -8.0285   21.3536 C   0  0  0  0  0  0
  -21.9918   -9.0259   20.4649 C   0  0  0  0  0  0
  -22.7238  -10.2141   20.3068 C   0  0  0  0  0  0
  -21.6852   -6.0750   22.5287 C   0  0  0  0  0  0
  -21.4008   -6.5647   23.8222 C   0  0  0  0  0  0
  -21.3658   -5.6795   24.9175 C   0  0  0  0  0  0
  -21.6042   -4.3062   24.7222 C   0  0  0  0  0  0
  -21.8818   -3.8155   23.4343 C   0  0  0  0  0  0
  -21.9191   -4.6973   22.3399 C   0  0  0  0  0  0
  -22.7824  -13.5240   21.1869 C   0  0  0  0  0  0
  -22.1666   -4.2158   21.0972 F   0  0  0  0  0  0
  -21.5626   -3.4541   25.7732 F   0  0  0  0  0  0
  -29.9805  -13.5327   20.4045 N   0  0  0  0  0  0
  -26.2931  -12.9391   20.3306 N   0  0  0  0  0  0
  -25.9313  -11.6548   20.5779 N   0  0  0  0  0  0
  -22.0455  -12.8224   22.0410 N   0  0  0  0  0  0
  -25.4213  -15.1914   20.4122 N   0  0  0  0  0  0
  -31.7795  -14.8639   20.1402 O   0  0  0  0  0  0
  -21.6648   -6.8887   21.4245 O   0  0  0  0  0  0
  -22.3524  -14.5545   20.6720 O   0  0  0  0  0  0
  -24.6310  -31.8493   23.1921 C   0  0  0  0  0  0
  -25.9116  -32.4740   23.8286 C   0  0  1  0  0  0
  -27.2413  -27.2431   20.1412 C   0  0  0  0  0  0
  -25.5920  -33.8534   24.2226 N   0  0  0  0  0  0
  -23.4308  -30.4644   21.5345 C   0  0  2  0  0  0
  -24.8821  -28.8953   20.1144 C   0  0  0  0  0  0
  -22.7517  -29.4547   22.4900 C   0  0  0  0  0  0
  -18.0297  -28.1350   22.8465 C   0  0  0  0  0  0
  -24.1494  -36.7265   23.2641 C   0  0  0  0  0  0
  -25.9724  -30.7588   21.3698 C   0  0  0  0  0  0
  -26.0481  -29.3754   20.7175 C   0  0  0  0  0  0
  -27.2229  -28.5620   20.7143 C   0  0  0  0  0  0
  -26.0494  -26.8170   19.5176 C   0  0  0  0  0  0
  -24.8881  -27.6249   19.5052 C   0  0  0  0  0  0
  -23.6515  -29.7845   20.1562 C   0  0  0  0  0  0
  -25.4129  -36.3053   24.0314 C   0  0  1  0  0  0
  -20.5905  -28.3657   23.1260 C   0  0  2  0  0  0
  -20.6792  -26.9364   22.5409 C   0  0  0  0  0  0
  -19.5783  -26.6350   21.5194 C   0  0  0  0  0  0
  -18.1961  -26.7894   22.1591 C   0  0  0  0  0  0
  -19.1553  -28.8814   23.2862 C   0  0  0  0  0  0
  -18.9476  -30.1421   23.8871 C   0  0  0  0  0  0
  -17.6477  -30.6560   24.0537 C   0  0  0  0  0  0
  -25.9054  -34.9422   23.5078 C   0  0  0  0  0  0
  -16.5366  -29.9072   23.6308 C   0  0  0  0  0  0
  -16.7287  -28.6476   23.0343 C   0  0  0  0  0  0
  -26.4484  -31.6582   25.0681 C   0  0  0  0  0  0
  -25.3683  -31.3735   26.1396 C   0  0  0  0  0  0
  -27.0349  -30.3011   24.6156 C   0  0  0  0  0  0
  -27.6047  -32.4323   25.7451 C   0  0  0  0  0  0
  -27.5582  -37.1794   24.8470 C   0  0  0  0  0  0
  -21.4221  -29.3018   22.3658 N   0  0  0  0  0  0
  -26.4302  -37.3746   23.9395 N   0  0  0  0  0  0
  -24.6976  -31.0436   22.0896 N   0  0  0  0  0  0
  -23.4196  -28.8099   23.3022 O   0  0  0  0  0  0
  -28.4079  -26.4463   20.2154 O   0  0  0  0  0  0
  -26.5626  -34.8896   22.4658 O   0  0  0  0  0  0
  -23.5459  -32.1351   23.7198 O   0  0  0  0  0  0
  -31.3927  -18.9538   22.4195 C   0  0  0  0  0  0
  -29.3395  -18.4591   20.6347 C   0  0  0  0  0  0
  -30.6150  -20.0437   21.9742 C   0  0  0  0  0  0
  -31.1496  -17.6186   22.0303 C   0  0  0  0  0  0
  -29.5471  -19.8480   21.0596 C   0  0  0  0  0  0
  -30.1300  -17.3092   21.0875 C   0  0  0  0  0  0
  -28.9221  -22.8198   18.7826 C   0  0  0  0  0  0
  -29.3605  -22.0350   17.7767 C   0  0  0  0  0  0
  -28.3869  -24.2634   18.6289 C   0  0  0  0  0  0
  -28.4698  -23.7304   20.9466 C   0  0  0  0  0  0
  -28.6441  -24.9658   19.9659 C   0  0  2  0  0  0
  -30.9252  -21.4083   22.5719 C   0  0  0  0  0  0
  -31.9611  -16.5463   22.7443 C   0  0  0  0  0  0
  -29.9952  -20.6639   17.8978 C   0  0  0  0  0  0
  -28.5576  -21.0812   20.7222 C   0  0  0  0  0  0
  -29.8133  -15.8847   20.7570 N   0  0  0  0  0  0
  -29.0353  -22.4848   20.2527 N   0  3  2  0  0  0
  -31.4726  -12.6077   19.1639 H   0  0  0  0  0  0
  -30.3923  -11.4977   19.9581 H   0  0  0  0  0  0
  -29.7921  -11.7308   17.5268 H   0  0  0  0  0  0
  -29.6219  -13.4599   17.7156 H   0  0  0  0  0  0
  -27.9061  -11.2752   18.9355 H   0  0  0  0  0  0
  -27.3715  -12.4970   17.8119 H   0  0  0  0  0  0
  -27.6334  -14.2487   19.4663 H   0  0  0  0  0  0
  -28.7281  -12.1697   21.4249 H   0  0  0  0  0  0
  -28.4148  -13.8449   21.8009 H   0  0  0  0  0  0
  -25.2760   -9.5697   22.4786 H   0  0  0  0  0  0
  -24.0010   -7.4638   22.7476 H   0  0  0  0  0  0
  -21.0860   -8.8768   19.8957 H   0  0  0  0  0  0
  -22.3692  -10.9680   19.6183 H   0  0  0  0  0  0
  -21.2002   -7.6152   23.9716 H   0  0  0  0  0  0
  -21.1483   -6.0528   25.9071 H   0  0  0  0  0  0
  -22.0600   -2.7619   23.2834 H   0  0  0  0  0  0
  -22.4069  -11.9875   22.4790 H   0  0  0  0  0  0
  -21.1075  -13.1257   22.2619 H   0  0  0  0  0  0
  -24.6486  -15.8409   20.5117 H   0  0  0  0  0  0
  -26.2579  -15.6285   20.0480 H   0  0  0  0  0  0
  -26.7189  -32.5375   23.1023 H   0  0  0  0  0  0
  -25.0092  -33.9692   25.0390 H   0  0  0  0  0  0
  -22.7264  -31.2844   21.3790 H   0  0  0  0  0  0
  -23.3758  -35.9596   23.3333 H   0  0  0  0  0  0
  -24.3590  -36.8868   22.2054 H   0  0  0  0  0  0
  -23.7270  -37.6473   23.6659 H   0  0  0  0  0  0
  -26.1047  -31.5160   20.5967 H   0  0  0  0  0  0
  -26.8508  -30.8175   22.0000 H   0  0  0  0  0  0
  -28.1207  -28.9302   21.1895 H   0  0  0  0  0  0
  -25.9954  -25.8469   19.0507 H   0  0  0  0  0  0
  -23.9897  -27.2497   19.0349 H   0  0  0  0  0  0
  -23.7798  -30.5527   19.3933 H   0  0  0  0  0  0
  -22.7709  -29.2131   19.8545 H   0  0  0  0  0  0
  -25.1328  -36.1881   25.0806 H   0  0  0  0  0  0
  -20.9966  -28.3221   24.1390 H   0  0  0  0  0  0
  -20.5666  -26.2255   23.3611 H   0  0  0  0  0  0
  -21.6669  -26.7400   22.1205 H   0  0  0  0  0  0
  -19.6958  -25.6262   21.1244 H   0  0  0  0  0  0
  -19.6737  -27.3132   20.6701 H   0  0  0  0  0  0
  -17.4228  -26.6611   21.3997 H   0  0  0  0  0  0
  -18.0359  -26.0028   22.8977 H   0  0  0  0  0  0
  -19.7958  -30.7221   24.2237 H   0  0  0  0  0  0
  -17.5050  -31.6242   24.5137 H   0  0  0  0  0  0
  -15.5376  -30.2964   23.7646 H   0  0  0  0  0  0
  -15.8686  -28.0801   22.7061 H   0  0  0  0  0  0
  -24.5884  -30.7072   25.7716 H   0  0  0  0  0  0
  -24.8841  -32.2894   26.4764 H   0  0  0  0  0  0
  -25.7961  -30.8952   27.0213 H   0  0  0  0  0  0
  -26.2930  -29.6755   24.1177 H   0  0  0  0  0  0
  -27.4074  -29.7271   25.4651 H   0  0  0  0  0  0
  -27.8779  -30.4349   23.9372 H   0  0  0  0  0  0
  -27.2694  -33.3661   26.1977 H   0  0  0  0  0  0
  -28.3860  -32.6838   25.0268 H   0  0  0  0  0  0
  -28.0703  -31.8487   26.5402 H   0  0  0  0  0  0
  -28.2594  -38.0091   24.7502 H   0  0  0  0  0  0
  -28.1083  -36.2614   24.6321 H   0  0  0  0  0  0
  -27.2287  -37.1467   25.8870 H   0  0  0  0  0  0
  -20.9383  -29.8737   21.6876 H   0  0  0  0  0  0
  -26.0172  -38.2815   24.1410 H   0  0  0  0  0  0
  -32.1748  -19.1393   23.1463 H   0  0  0  0  0  0
  -28.5098  -18.2647   19.9718 H   0  0  0  0  0  0
  -29.2488  -22.3967   16.7627 H   0  0  0  0  0  0
  -27.3274  -24.2158   18.3872 H   0  0  0  0  0  0
  -28.8938  -24.7765   17.8127 H   0  0  0  0  0  0
  -27.4115  -23.5860   21.1657 H   0  0  0  0  0  0
  -28.9737  -23.9058   21.8964 H   0  0  0  0  0  0
  -29.7313  -25.0551   19.9453 H   0  0  0  0  0  0
  -31.5610  -21.3192   23.4544 H   0  0  0  0  0  0
  -30.0218  -21.9174   22.9063 H   0  0  0  0  0  0
  -31.4571  -22.0311   21.8531 H   0  0  0  0  0  0
  -32.4561  -16.9437   23.6296 H   0  0  0  0  0  0
  -32.7377  -16.1483   22.0927 H   0  0  0  0  0  0
  -31.3254  -15.7288   23.0859 H   0  0  0  0  0  0
  -30.7282  -20.6349   18.7042 H   0  0  0  0  0  0
  -30.5174  -20.4084   16.9745 H   0  0  0  0  0  0
  -29.2369  -19.9025   18.0742 H   0  0  0  0  0  0
  -28.0247  -21.2537   21.6571 H   0  0  0  0  0  0
  -27.7830  -20.7338   20.0375 H   0  0  0  0  0  0
  -28.8296  -15.6689   20.7802 H   0  0  0  0  0  0
  -30.0179  -22.4869   20.4785 H   0  0  0  0  0  0
  1 25  1  0  0  0
  1 30  2  0  0  0
  1 86  1  0  0  0
  2  3  1  0  0  0
  2 25  1  0  0  0
  2 88  1  0  0  0
  2 89  1  0  0  0
  3  4  1  0  0  0
  3 90  1  0  0  0
  3 91  1  0  0  0
  4  5  1  0  0  0
  4 92  1  0  0  0
  4 93  1  0  0  0
  5  6  1  0  0  0
  5 26  1  0  0  0
  5 94  1  0  0  0
  6 25  1  0  0  0
  6 95  1  0  0  0
  6 96  1  0  0  0
  7  8  2  0  0  0
  7 26  1  0  0  0
  7 29  1  0  0  0
  8  9  1  0  0  0
  8 22  1  0  0  0
  9 10  1  0  0  0
  9 27  2  0  0  0
 10 11  2  0  0  0
 10 15  1  0  0  0
 11 12  1  0  0  0
 11 97  1  0  0  0
 12 13  2  0  0  0
 12 98  1  0  0  0
 13 14  1  0  0  0
 13 31  1  0  0  0
 14 15  2  0  0  0
 14 99  1  0  0  0
 15100  1  0  0  0
 16 17  2  0  0  0
 16 21  1  0  0  0
 16 31  1  0  0  0
 17 18  1  0  0  0
 17101  1  0  0  0
 18 19  2  0  0  0
 18102  1  0  0  0
 19 20  1  0  0  0
 19 24  1  0  0  0
 20 21  2  0  0  0
 20103  1  0  0  0
 21 23  1  0  0  0
 22 28  1  0  0  0
 22 32  2  0  0  0
 26 27  1  0  0  0
 28104  1  0  0  0
 28105  1  0  0  0
 29106  1  0  0  0
 29107  1  0  0  0
 33 34  1  0  0  0
 33 66  1  0  0  0
 33 70  2  0  0  0
 34 36  1  0  0  0
 34 59  1  0  0  0
 34108  1  0  0  0
 35 44  2  0  0  0
 35 45  1  0  0  0
 35 68  1  0  0  0
 36 56  1  0  0  0
 36109  1  0  0  0
 37 39  1  0  0  0
 37 47  1  0  0  0
 37 66  1  0  0  0
 37110  1  0  0  0
 38 43  2  0  0  0
 38 46  1  0  0  0
 38 47  1  0  0  0
 39 64  1  0  0  0
 39 67  2  0  0  0
 40 52  1  0  0  0
 40 53  2  0  0  0
 40 58  1  0  0  0
 41111  1  0  0  0
 41112  1  0  0  0
 41113  1  0  0  0
 41 48  1  0  0  0
 42 43  1  0  0  0
 42 66  1  0  0  0
 42114  1  0  0  0
 42115  1  0  0  0
 43 44  1  0  0  0
 44116  1  0  0  0
 45 46  2  0  0  0
 45117  1  0  0  0
 46118  1  0  0  0
 47119  1  0  0  0
 47120  1  0  0  0
 48 56  1  0  0  0
 48 65  1  0  0  0
 48121  1  0  0  0
 49 50  1  0  0  0
 49 53  1  0  0  0
 49 64  1  0  0  0
 49122  1  0  0  0
 50 51  1  0  0  0
 50123  1  0  0  0
 50124  1  0  0  0
 51 52  1  0  0  0
 51125  1  0  0  0
 51126  1  0  0  0
 52127  1  0  0  0
 52128  1  0  0  0
 53 54  1  0  0  0
 54 55  2  0  0  0
 54129  1  0  0  0
 55 57  1  0  0  0
 55130  1  0  0  0
 56 69  2  0  0  0
 57 58  2  0  0  0
 57131  1  0  0  0
 58132  1  0  0  0
 59 60  1  0  0  0
 59 61  1  0  0  0
 59 62  1  0  0  0
 60133  1  0  0  0
 60134  1  0  0  0
 60135  1  0  0  0
 61136  1  0  0  0
 61137  1  0  0  0
 61138  1  0  0  0
 62139  1  0  0  0
 62140  1  0  0  0
 62141  1  0  0  0
 63 65  1  0  0  0
 63142  1  0  0  0
 63143  1  0  0  0
 63144  1  0  0  0
 64145  1  0  0  0
 65146  1  0  0  0
 68 81  1  0  0  0
 71 73  2  0  0  0
 71 74  1  0  0  0
 71147  1  0  0  0
 72 75  2  0  0  0
 72 76  1  0  0  0
 72148  1  0  0  0
 73 75  1  0  0  0
 73 82  1  0  0  0
 74 76  2  0  0  0
 74 83  1  0  0  0
 75 85  1  0  0  0
 76 86  1  0  0  0
 77 78  2  0  0  0
 77 79  1  0  0  0
 77 87  1  0  0  0
 78 84  1  0  0  0
 78149  1  0  0  0
 79 81  1  0  0  0
 79150  1  0  0  0
 79151  1  0  0  0
 80 81  1  0  0  0
 80 87  1  0  0  0
 80152  1  0  0  0
 80153  1  0  0  0
 81154  1  0  0  0
 82155  1  0  0  0
 82156  1  0  0  0
 82157  1  0  0  0
 83158  1  0  0  0
 83159  1  0  0  0
 83160  1  0  0  0
 84161  1  0  0  0
 84162  1  0  0  0
 84163  1  0  0  0
 85164  1  0  0  0
 85165  1  0  0  0
 85 87  1  0  0  0
 86166  1  0  0  0
 87167  1  0  0  0
M  CHG  1  87   1
M  ISO  4   1 100  68 101  81 101  86 100
M  END
> <chiral flag>
0

> <version>
0

> <s_m_source_file>
/data/baiqing/PycharmProjects/Reinvent-master-3.2/result/LINK_invent/BTK/process_docking_weight1_custom_product_contain_oxygen_bond_distance_aromatic_linkinvent_7_9_3/rearranged_h_0035.sdf

> <i_m_source_file_index>
4

> <r_mmod_Potential_Energy-OPLS-2005>
166.216064453125

> <r_mmod_Stretch_Energy-OPLS-2005>
140.521408081055

> <r_mmod_Bend_Energy-OPLS-2005>
282.123321533203

> <r_mmod_Torsional_Energy-OPLS-2005>
243.817230224609

> <r_mmod_Improper_Torsional_Energy-OPLS-2005>
7.07824039459229

> <r_mmod_Van_der_Waal_Energy-OPLS-2005>
131.609573364258

> <r_mmod_Electrostatic_Energy-OPLS-2005>
-300.153106689453

> <r_mmod_Solvation_Energy-OPLS-2005>
-426.288604736328

> <b_mmod_Minimization_Converged-OPLS-2005>
0

> <r_mmod_RMS_Derivative-OPLS-2005>
3.3196165561676

$$$$
4
                    3D
 Structure written by MMmdl.
172181  0  0  1  0            999 V2000
  -30.6618  -14.5558   20.5317 C   0  0  0  0  0  0
  -30.4203  -12.3511   19.4305 C   0  0  0  0  0  0
  -29.4949  -12.5053   18.2058 C   0  0  0  0  0  0
  -28.0170  -12.3486   18.6174 C   0  0  0  0  0  0
  -27.6503  -13.2092   19.8574 C   0  0  2  0  0  0
  -28.6914  -13.0398   20.9848 C   0  0  0  0  0  0
  -25.2566  -13.8169   20.5664 C   0  0  0  0  0  0
  -24.1829  -13.0441   20.9170 C   0  0  0  0  0  0
  -24.6374  -11.6903   20.8693 C   0  0  0  0  0  0
  -23.9037  -10.4292   21.0375 C   0  0  0  0  0  0
  -24.3605   -9.4221   21.9161 C   0  0  0  0  0  0
  -23.6292   -8.2244   22.0740 C   0  0  0  0  0  0
  -22.4272   -8.0268   21.3546 C   0  0  0  0  0  0
  -21.9886   -9.0233   20.4644 C   0  0  0  0  0  0
  -22.7208  -10.2116   20.3033 C   0  0  0  0  0  0
  -21.6863   -6.0713   22.5289 C   0  0  0  0  0  0
  -21.4009   -6.5621   23.8224 C   0  0  0  0  0  0
  -21.3652   -5.6779   24.9190 C   0  0  0  0  0  0
  -21.6046   -4.3044   24.7247 C   0  0  0  0  0  0
  -21.8822   -3.8127   23.4368 C   0  0  0  0  0  0
  -21.9197   -4.6934   22.3418 C   0  0  0  0  0  0
  -22.7867  -13.5236   21.1845 C   0  0  0  0  0  0
  -22.1687   -4.2112   21.0997 F   0  0  0  0  0  0
  -21.5613   -3.4538   25.7763 F   0  0  0  0  0  0
  -30.0109  -13.3617   20.4210 N   0  0  0  0  0  0
  -26.2963  -12.9323   20.3263 N   0  0  0  0  0  0
  -25.9282  -11.6482   20.5683 N   0  0  0  0  0  0
  -22.0516  -12.8217   22.0397 N   0  0  0  0  0  0
  -25.4306  -15.1887   20.4106 N   0  0  0  0  0  0
  -31.8237  -14.7036   20.1446 O   0  0  0  0  0  0
  -21.6643   -6.8853   21.4253 O   0  0  0  0  0  0
  -22.3540  -14.5553   20.6692 O   0  0  0  0  0  0
  -24.6166  -31.8655   23.2073 C   0  0  0  0  0  0
  -25.9049  -32.4808   23.8379 C   0  0  1  0  0  0
  -27.2185  -27.3842   20.1177 C   0  0  0  0  0  0
  -25.5888  -33.8610   24.2298 N   0  0  0  0  0  0
  -23.4085  -30.4885   21.5483 C   0  0  2  0  0  0
  -24.8556  -28.9458   20.1172 C   0  0  0  0  0  0
  -22.7429  -29.4645   22.4972 C   0  0  0  0  0  0
  -18.0273  -28.1378   22.8487 C   0  0  0  0  0  0
  -24.1484  -36.7319   23.2639 C   0  0  0  0  0  0
  -25.9424  -30.8135   21.3710 C   0  0  0  0  0  0
  -26.0172  -29.4412   20.7250 C   0  0  0  0  0  0
  -27.2059  -28.6661   20.7256 C   0  0  0  0  0  0
  -26.0463  -26.9170   19.4942 C   0  0  0  0  0  0
  -24.8663  -27.6832   19.4985 C   0  0  0  0  0  0
  -23.6216  -29.8208   20.1632 C   0  0  0  0  0  0
  -25.4109  -36.3106   24.0328 C   0  0  1  0  0  0
  -20.5866  -28.3665   23.1314 C   0  0  2  0  0  0
  -20.6765  -26.9401   22.5420 C   0  0  0  0  0  0
  -19.5750  -26.6384   21.5214 C   0  0  0  0  0  0
  -18.1925  -26.7923   22.1620 C   0  0  0  0  0  0
  -19.1522  -28.8839   23.2895 C   0  0  0  0  0  0
  -18.9454  -30.1445   23.8908 C   0  0  0  0  0  0
  -17.6457  -30.6586   24.0565 C   0  0  0  0  0  0
  -25.9040  -34.9470   23.5111 C   0  0  0  0  0  0
  -16.5347  -29.9093   23.6323 C   0  0  0  0  0  0
  -16.7262  -28.6508   23.0345 C   0  0  0  0  0  0
  -26.4452  -31.6603   25.0728 C   0  0  0  0  0  0
  -25.3705  -31.3737   26.1471 C   0  0  0  0  0  0
  -27.0282  -30.3033   24.6138 C   0  0  0  0  0  0
  -27.6007  -32.4334   25.7505 C   0  0  0  0  0  0
  -27.5579  -37.1818   24.8456 C   0  0  0  0  0  0
  -21.4149  -29.3029   22.3713 N   0  0  0  0  0  0
  -26.4290  -37.3794   23.9401 N   0  0  0  0  0  0
  -24.6742  -31.0714   22.0999 N   0  0  0  0  0  0
  -23.4187  -28.8184   23.3023 O   0  0  0  0  0  0
  -28.3385  -26.5757   20.0656 O   0  0  0  0  0  0
  -26.5620  -34.8926   22.4688 O   0  0  0  0  0  0
  -23.5344  -32.1432   23.7436 O   0  0  0  0  0  0
  -28.4991  -19.1705   18.4216 C   0  0  0  0  0  0
  -29.3409  -19.4131   21.0642 C   0  0  0  0  0  0
  -29.2122  -18.1066   19.0158 C   0  0  0  0  0  0
  -28.1936  -20.3520   19.1295 C   0  0  0  0  0  0
  -29.5974  -18.1843   20.3792 C   0  0  0  0  0  0
  -28.6629  -20.5189   20.4570 C   0  0  0  0  0  0
  -30.1366  -25.7778   21.4201 C   0  0  0  0  0  0
  -30.7638  -24.7897   20.4401 C   0  0  0  0  0  0
  -28.0483  -24.3103   21.2939 C   0  0  0  0  0  0
  -28.6252  -25.7782   21.2366 C   0  0  2  0  0  0
  -30.3352  -23.3395   20.7436 C   0  0  2  0  0  0
  -29.5767  -16.9176   18.1438 C   0  0  0  0  0  0
  -27.3555  -21.4141   18.4332 C   0  0  0  0  0  0
  -31.0803  -22.4057   19.7670 C   0  0  0  0  0  0
  -30.3645  -17.0306   21.0971 C   0  0  0  0  0  0
  -28.3783  -21.8283   21.2535 C   0  0  0  0  0  0
  -29.9116  -15.6193   20.9221 N   0  0  0  0  0  0
  -28.8450  -23.1604   20.6928 N   0  3  1  0  0  0
  -31.4642  -12.4598   19.1297 H   0  0  0  0  0  0
  -30.3369  -11.3484   19.8527 H   0  0  0  0  0  0
  -29.7532  -11.7708   17.4420 H   0  0  0  0  0  0
  -29.6450  -13.4849   17.7487 H   0  0  0  0  0  0
  -27.8454  -11.2945   18.8356 H   0  0  0  0  0  0
  -27.3615  -12.5944   17.7810 H   0  0  0  0  0  0
  -27.6756  -14.2468   19.5280 H   0  0  0  0  0  0
  -28.6861  -12.0162   21.3634 H   0  0  0  0  0  0
  -28.4442  -13.6727   21.8377 H   0  0  0  0  0  0
  -25.2754   -9.5697   22.4720 H   0  0  0  0  0  0
  -24.0016   -7.4621   22.7431 H   0  0  0  0  0  0
  -21.0825   -8.8723   19.8948 H   0  0  0  0  0  0
  -22.3664  -10.9626   19.6110 H   0  0  0  0  0  0
  -21.2019   -7.6131   23.9715 H   0  0  0  0  0  0
  -21.1468   -6.0516   25.9090 H   0  0  0  0  0  0
  -22.0609   -2.7578   23.2889 H   0  0  0  0  0  0
  -22.4167  -11.9906   22.4797 H   0  0  0  0  0  0
  -21.1106  -13.1178   22.2559 H   0  0  0  0  0  0
  -24.6616  -15.8416   20.5159 H   0  0  0  0  0  0
  -26.2823  -15.6309   20.0869 H   0  0  0  0  0  0
  -26.7122  -32.5504   23.1141 H   0  0  0  0  0  0
  -24.9982  -33.9766   25.0401 H   0  0  0  0  0  0
  -22.6983  -31.3059   21.4065 H   0  0  0  0  0  0
  -23.3737  -35.9663   23.3304 H   0  0  0  0  0  0
  -24.3575  -36.8939   22.2054 H   0  0  0  0  0  0
  -23.7248  -37.6526   23.6662 H   0  0  0  0  0  0
  -26.0621  -31.5745   20.5977 H   0  0  0  0  0  0
  -26.8278  -30.8678   21.9940 H   0  0  0  0  0  0
  -28.1043  -29.0460   21.1925 H   0  0  0  0  0  0
  -26.0447  -25.9512   19.0099 H   0  0  0  0  0  0
  -23.9748  -27.2994   19.0207 H   0  0  0  0  0  0
  -23.7400  -30.5960   19.4049 H   0  0  0  0  0  0
  -22.7436  -29.2468   19.8612 H   0  0  0  0  0  0
  -25.1287  -36.1960   25.0820 H   0  0  0  0  0  0
  -20.9954  -28.3234   24.1437 H   0  0  0  0  0  0
  -20.5667  -26.2276   23.3607 H   0  0  0  0  0  0
  -21.6637  -26.7444   22.1221 H   0  0  0  0  0  0
  -19.6914  -25.6298   21.1241 H   0  0  0  0  0  0
  -19.6694  -27.3197   20.6748 H   0  0  0  0  0  0
  -17.4196  -26.6662   21.4020 H   0  0  0  0  0  0
  -18.0332  -26.0067   22.9017 H   0  0  0  0  0  0
  -19.7934  -30.7250   24.2288 H   0  0  0  0  0  0
  -17.5019  -31.6267   24.5167 H   0  0  0  0  0  0
  -15.5351  -30.3000   23.7646 H   0  0  0  0  0  0
  -15.8661  -28.0838   22.7049 H   0  0  0  0  0  0
  -24.5847  -30.7121   25.7809 H   0  0  0  0  0  0
  -24.8933  -32.2910   26.4930 H   0  0  0  0  0  0
  -25.8036  -30.8888   27.0228 H   0  0  0  0  0  0
  -26.2852  -29.6826   24.1118 H   0  0  0  0  0  0
  -27.3948  -29.7237   25.4619 H   0  0  0  0  0  0
  -27.8729  -30.4331   23.9368 H   0  0  0  0  0  0
  -27.2596  -33.3618   26.2099 H   0  0  0  0  0  0
  -28.3812  -32.6931   25.0343 H   0  0  0  0  0  0
  -28.0681  -31.8459   26.5415 H   0  0  0  0  0  0
  -28.2589  -38.0123   24.7497 H   0  0  0  0  0  0
  -28.1076  -36.2646   24.6276 H   0  0  0  0  0  0
  -27.2298  -37.1469   25.8861 H   0  0  0  0  0  0
  -20.9318  -29.8759   21.6935 H   0  0  0  0  0  0
  -26.0167  -38.2868   24.1402 H   0  0  0  0  0  0
  -28.1802  -19.0790   17.3918 H   0  0  0  0  0  0
  -29.6754  -19.5121   22.0886 H   0  0  0  0  0  0
  -30.5337  -26.7806   21.2621 H   0  0  0  0  0  0
  -30.3872  -25.5024   22.4457 H   0  0  0  0  0  0
  -31.8483  -24.8736   20.5067 H   0  0  0  0  0  0
  -30.5021  -25.0572   19.4148 H   0  0  0  0  0  0
  -27.0293  -24.2988   20.9051 H   0  0  0  0  0  0
  -27.9466  -24.0858   22.3575 H   0  0  0  0  0  0
  -28.2052  -26.3157   22.0904 H   0  0  0  0  0  0
  -30.6703  -23.1080   21.7563 H   0  0  0  0  0  0
  -29.3758  -17.1139   17.0899 H   0  0  0  0  0  0
  -29.0049  -16.0365   18.4275 H   0  0  0  0  0  0
  -30.6409  -16.6923   18.2325 H   0  0  0  0  0  0
  -26.8117  -20.9890   17.5882 H   0  0  0  0  0  0
  -27.9784  -22.2211   18.0503 H   0  0  0  0  0  0
  -26.6066  -21.8341   19.1047 H   0  0  0  0  0  0
  -30.6365  -22.4152   18.7709 H   0  0  0  0  0  0
  -31.1054  -21.3769   20.1197 H   0  0  0  0  0  0
  -32.1246  -22.6995   19.6558 H   0  0  0  0  0  0
  -30.3408  -17.2286   22.1690 H   0  0  0  0  0  0
  -31.4141  -17.1220   20.8160 H   0  0  0  0  0  0
  -28.7749  -21.7228   22.2644 H   0  0  0  0  0  0
  -27.2951  -21.8682   21.3832 H   0  0  0  0  0  0
  -28.9527  -15.4216   21.1622 H   0  0  0  0  0  0
  -28.6009  -23.1577   19.7144 H   0  0  0  0  0  0
  1 25  1  0  0  0
  1 30  2  0  0  0
  1 87  1  0  0  0
  2  3  1  0  0  0
  2 25  1  0  0  0
  2 89  1  0  0  0
  2 90  1  0  0  0
  3  4  1  0  0  0
  3 91  1  0  0  0
  3 92  1  0  0  0
  4  5  1  0  0  0
  4 93  1  0  0  0
  4 94  1  0  0  0
  5  6  1  0  0  0
  5 26  1  0  0  0
  5 95  1  0  0  0
  6 25  1  0  0  0
  6 96  1  0  0  0
  6 97  1  0  0  0
  7  8  2  0  0  0
  7 26  1  0  0  0
  7 29  1  0  0  0
  8  9  1  0  0  0
  8 22  1  0  0  0
  9 10  1  0  0  0
  9 27  2  0  0  0
 10 11  2  0  0  0
 10 15  1  0  0  0
 11 12  1  0  0  0
 11 98  1  0  0  0
 12 13  2  0  0  0
 12 99  1  0  0  0
 13 14  1  0  0  0
 13 31  1  0  0  0
 14 15  2  0  0  0
 14100  1  0  0  0
 15101  1  0  0  0
 16 17  2  0  0  0
 16 21  1  0  0  0
 16 31  1  0  0  0
 17 18  1  0  0  0
 17102  1  0  0  0
 18 19  2  0  0  0
 18103  1  0  0  0
 19 20  1  0  0  0
 19 24  1  0  0  0
 20 21  2  0  0  0
 20104  1  0  0  0
 21 23  1  0  0  0
 22 28  1  0  0  0
 22 32  2  0  0  0
 26 27  1  0  0  0
 28105  1  0  0  0
 28106  1  0  0  0
 29107  1  0  0  0
 29108  1  0  0  0
 33 34  1  0  0  0
 33 66  1  0  0  0
 33 70  2  0  0  0
 34 36  1  0  0  0
 34 59  1  0  0  0
 34109  1  0  0  0
 35 44  2  0  0  0
 35 45  1  0  0  0
 35 68  1  0  0  0
 36 56  1  0  0  0
 36110  1  0  0  0
 37 39  1  0  0  0
 37 47  1  0  0  0
 37 66  1  0  0  0
 37111  1  0  0  0
 38 43  2  0  0  0
 38 46  1  0  0  0
 38 47  1  0  0  0
 39 64  1  0  0  0
 39 67  2  0  0  0
 40 52  1  0  0  0
 40 53  2  0  0  0
 40 58  1  0  0  0
 41112  1  0  0  0
 41113  1  0  0  0
 41114  1  0  0  0
 41 48  1  0  0  0
 42 43  1  0  0  0
 42 66  1  0  0  0
 42115  1  0  0  0
 42116  1  0  0  0
 43 44  1  0  0  0
 44117  1  0  0  0
 45 46  2  0  0  0
 45118  1  0  0  0
 46119  1  0  0  0
 47120  1  0  0  0
 47121  1  0  0  0
 48 56  1  0  0  0
 48 65  1  0  0  0
 48122  1  0  0  0
 49 50  1  0  0  0
 49 53  1  0  0  0
 49 64  1  0  0  0
 49123  1  0  0  0
 50 51  1  0  0  0
 50124  1  0  0  0
 50125  1  0  0  0
 51 52  1  0  0  0
 51126  1  0  0  0
 51127  1  0  0  0
 52128  1  0  0  0
 52129  1  0  0  0
 53 54  1  0  0  0
 54 55  2  0  0  0
 54130  1  0  0  0
 55 57  1  0  0  0
 55131  1  0  0  0
 56 69  2  0  0  0
 57 58  2  0  0  0
 57132  1  0  0  0
 58133  1  0  0  0
 59 60  1  0  0  0
 59 61  1  0  0  0
 59 62  1  0  0  0
 60134  1  0  0  0
 60135  1  0  0  0
 60136  1  0  0  0
 61137  1  0  0  0
 61138  1  0  0  0
 61139  1  0  0  0
 62140  1  0  0  0
 62141  1  0  0  0
 62142  1  0  0  0
 63 65  1  0  0  0
 63143  1  0  0  0
 63144  1  0  0  0
 63145  1  0  0  0
 64146  1  0  0  0
 65147  1  0  0  0
 68 80  1  0  0  0
 71 73  2  0  0  0
 71 74  1  0  0  0
 71148  1  0  0  0
 72 75  2  0  0  0
 72 76  1  0  0  0
 72149  1  0  0  0
 73 75  1  0  0  0
 73 82  1  0  0  0
 74 76  2  0  0  0
 74 83  1  0  0  0
 75 85  1  0  0  0
 76 86  1  0  0  0
 77 78  1  0  0  0
 77 80  1  0  0  0
 77150  1  0  0  0
 77151  1  0  0  0
 78 81  1  0  0  0
 78152  1  0  0  0
 78153  1  0  0  0
 79 80  1  0  0  0
 79 88  1  0  0  0
 79154  1  0  0  0
 79155  1  0  0  0
 80156  1  0  0  0
 81 84  1  0  0  0
 81 88  1  0  0  0
 81157  1  0  0  0
 82158  1  0  0  0
 82159  1  0  0  0
 82160  1  0  0  0
 83161  1  0  0  0
 83162  1  0  0  0
 83163  1  0  0  0
 84164  1  0  0  0
 84165  1  0  0  0
 84166  1  0  0  0
 85 87  1  0  0  0
 85167  1  0  0  0
 85168  1  0  0  0
 86169  1  0  0  0
 86170  1  0  0  0
 86 88  1  0  0  0
 87171  1  0  0  0
 88172  1  0  0  0
M  CHG  1  88   1
M  ISO  4   1 100  68 101  80 101  87 100
M  END
> <chiral flag>
0

> <version>
0

> <s_m_source_file>
/data/baiqing/PycharmProjects/Reinvent-master-3.2/result/LINK_invent/BTK/process_docking_weight1_custom_product_contain_oxygen_bond_distance_aromatic_linkinvent_7_9_3/rearranged_h_0035.sdf

> <i_m_source_file_index>
5

> <r_mmod_Potential_Energy-OPLS-2005>
-94.3582077026367

> <r_mmod_Stretch_Energy-OPLS-2005>
61.3059158325195

> <r_mmod_Bend_Energy-OPLS-2005>
130.00146484375

> <r_mmod_Torsional_Energy-OPLS-2005>
267.011566162109

> <r_mmod_Improper_Torsional_Energy-OPLS-2005>
4.17447328567505

> <r_mmod_Van_der_Waal_Energy-OPLS-2005>
141.188232421875

> <r_mmod_Electrostatic_Energy-OPLS-2005>
-323.637817382812

> <r_mmod_Solvation_Energy-OPLS-2005>
-400.237457275391

> <b_mmod_Minimization_Converged-OPLS-2005>
0

> <r_mmod_RMS_Derivative-OPLS-2005>
2.40674567222595

$$$$
5
                    3D
 Structure written by MMmdl.
170179  0  0  1  0            999 V2000
  -30.7082  -14.5381   20.5554 C   0  0  0  0  0  0
  -30.4324  -12.3438   19.4395 C   0  0  0  0  0  0
  -29.5028  -12.5017   18.2224 C   0  0  0  0  0  0
  -28.0277  -12.3454   18.6388 C   0  0  0  0  0  0
  -27.6610  -13.2126   19.8761 C   0  0  2  0  0  0
  -28.7095  -13.0416   21.0001 C   0  0  0  0  0  0
  -25.2575  -13.8168   20.5694 C   0  0  0  0  0  0
  -24.1855  -13.0447   20.9163 C   0  0  0  0  0  0
  -24.6398  -11.6907   20.8736 C   0  0  0  0  0  0
  -23.9077  -10.4290   21.0396 C   0  0  0  0  0  0
  -24.3636   -9.4192   21.9172 C   0  0  0  0  0  0
  -23.6311   -8.2235   22.0751 C   0  0  0  0  0  0
  -22.4287   -8.0283   21.3541 C   0  0  0  0  0  0
  -21.9924   -9.0260   20.4637 C   0  0  0  0  0  0
  -22.7252  -10.2134   20.3051 C   0  0  0  0  0  0
  -21.6842   -6.0761   22.5274 C   0  0  0  0  0  0
  -21.3998   -6.5652   23.8214 C   0  0  0  0  0  0
  -21.3658   -5.6803   24.9184 C   0  0  0  0  0  0
  -21.6049   -4.3065   24.7219 C   0  0  0  0  0  0
  -21.8810   -3.8148   23.4336 C   0  0  0  0  0  0
  -21.9180   -4.6984   22.3398 C   0  0  0  0  0  0
  -22.7865  -13.5207   21.1882 C   0  0  0  0  0  0
  -22.1660   -4.2168   21.0980 F   0  0  0  0  0  0
  -21.5638   -3.4545   25.7731 F   0  0  0  0  0  0
  -30.0388  -13.3506   20.4444 N   0  0  0  0  0  0
  -26.3024  -12.9349   20.3393 N   0  0  0  0  0  0
  -25.9333  -11.6507   20.5789 N   0  0  0  0  0  0
  -22.0531  -12.8197   22.0424 N   0  0  0  0  0  0
  -25.4173  -15.1921   20.4091 N   0  0  0  0  0  0
  -31.8259  -14.7080   20.0617 O   0  0  0  0  0  0
  -21.6621   -6.8905   21.4249 O   0  0  0  0  0  0
  -22.3539  -14.5527   20.6720 O   0  0  0  0  0  0
  -24.6256  -31.8599   23.2079 C   0  0  0  0  0  0
  -25.9153  -32.4768   23.8342 C   0  0  1  0  0  0
  -27.1980  -27.3575   20.0713 C   0  0  0  0  0  0
  -25.5979  -33.8573   24.2257 N   0  0  0  0  0  0
  -23.4134  -30.4915   21.5512 C   0  0  2  0  0  0
  -24.8449  -28.9597   20.1020 C   0  0  0  0  0  0
  -22.7428  -29.4637   22.4913 C   0  0  0  0  0  0
  -18.0322  -28.1435   22.8212 C   0  0  0  0  0  0
  -24.1485  -36.7315   23.2637 C   0  0  0  0  0  0
  -25.9514  -30.7976   21.3738 C   0  0  0  0  0  0
  -26.0116  -29.4307   20.7135 C   0  0  0  0  0  0
  -27.1890  -28.6345   20.7041 C   0  0  0  0  0  0
  -26.0290  -26.9692   19.3810 C   0  0  0  0  0  0
  -24.8527  -27.7314   19.4313 C   0  0  0  0  0  0
  -23.6169  -29.8359   20.1619 C   0  0  0  0  0  0
  -25.4109  -36.3096   24.0317 C   0  0  1  0  0  0
  -20.5833  -28.3665   23.1218 C   0  0  2  0  0  0
  -20.6708  -26.9376   22.5417 C   0  0  0  0  0  0
  -19.5903  -26.6465   21.4952 C   0  0  0  0  0  0
  -18.1988  -26.8065   22.1173 C   0  0  0  0  0  0
  -19.1527  -28.8881   23.2710 C   0  0  0  0  0  0
  -18.9438  -30.1495   23.8736 C   0  0  0  0  0  0
  -17.6435  -30.6541   24.0499 C   0  0  0  0  0  0
  -25.9056  -34.9464   23.5091 C   0  0  0  0  0  0
  -16.5335  -29.8997   23.6259 C   0  0  0  0  0  0
  -16.7300  -28.6502   23.0115 C   0  0  0  0  0  0
  -26.4534  -31.6593   25.0718 C   0  0  0  0  0  0
  -25.3792  -31.3712   26.1456 C   0  0  0  0  0  0
  -27.0322  -30.2999   24.6165 C   0  0  0  0  0  0
  -27.6041  -32.4333   25.7526 C   0  0  0  0  0  0
  -27.5559  -37.1816   24.8464 C   0  0  0  0  0  0
  -21.4131  -29.3021   22.3630 N   0  0  0  0  0  0
  -26.4283  -37.3792   23.9414 N   0  0  0  0  0  0
  -24.6846  -31.0667   22.1010 N   0  0  0  0  0  0
  -23.4197  -28.8165   23.2972 O   0  0  0  0  0  0
  -28.3200  -26.5350   20.1506 O   0  0  0  0  0  0
  -26.5604  -34.8947   22.4654 O   0  0  0  0  0  0
  -23.5438  -32.1406   23.7428 O   0  0  0  0  0  0
  -29.8963  -19.4775   21.3467 C   0  0  0  0  0  0
  -29.5596  -18.1241   21.6734 C   0  0  0  0  0  0
  -29.1465  -20.6025   21.8135 C   0  0  0  0  0  0
  -28.3945  -17.9016   22.4646 C   0  0  0  0  0  0
  -27.9790  -20.3399   22.5844 C   0  0  0  0  0  0
  -27.5693  -19.0009   22.8244 C   0  0  0  0  0  0
  -27.5572  -22.8120   20.2543 C   0  0  0  0  0  0
  -26.8533  -21.7248   19.8924 C   0  0  0  0  0  0
  -27.0708  -24.2482   20.2894 C   0  0  0  0  0  0
  -29.4308  -24.2946   20.3928 C   0  0  0  0  0  0
  -28.2557  -25.1076   19.7913 C   0  0  2  0  0  0
  -28.0310  -16.5116   22.9892 C   0  0  0  0  0  0
  -27.1544  -21.4697   23.2186 C   0  0  0  0  0  0
  -26.2259  -18.7495   23.5072 C   0  0  0  0  0  0
  -30.5255  -16.9872   21.2073 C   0  0  0  0  0  0
  -29.6444  -22.0622   21.5662 C   0  0  0  0  0  0
  -30.0445  -15.5771   21.1111 N   0  0  0  0  0  0
  -29.0380  -22.8430   20.4264 N   0  3  2  0  0  0
  -31.4756  -12.4461   19.1261 H   0  0  0  0  0  0
  -30.3551  -11.3372   19.8553 H   0  0  0  0  0  0
  -29.7535  -11.7674   17.4537 H   0  0  0  0  0  0
  -29.6554  -13.4841   17.7743 H   0  0  0  0  0  0
  -27.8666  -11.2917   18.8652 H   0  0  0  0  0  0
  -27.3719  -12.5894   17.8007 H   0  0  0  0  0  0
  -27.6868  -14.2530   19.5520 H   0  0  0  0  0  0
  -28.6985  -12.0131   21.3765 H   0  0  0  0  0  0
  -28.4616  -13.6716   21.8571 H   0  0  0  0  0  0
  -25.2800   -9.5649   22.4741 H   0  0  0  0  0  0
  -24.0005   -7.4613   22.7459 H   0  0  0  0  0  0
  -21.0835   -8.8764   19.8975 H   0  0  0  0  0  0
  -22.3696  -10.9683   19.6160 H   0  0  0  0  0  0
  -21.1976   -7.6155   23.9730 H   0  0  0  0  0  0
  -21.1512   -6.0529   25.9094 H   0  0  0  0  0  0
  -22.0588   -2.7609   23.2812 H   0  0  0  0  0  0
  -22.4179  -11.9900   22.4865 H   0  0  0  0  0  0
  -21.1126  -13.1166   22.2677 H   0  0  0  0  0  0
  -24.6336  -15.8313   20.4991 H   0  0  0  0  0  0
  -26.2478  -15.6360   20.0444 H   0  0  0  0  0  0
  -26.7211  -32.5404   23.1071 H   0  0  0  0  0  0
  -25.0119  -33.9697   25.0391 H   0  0  0  0  0  0
  -22.7099  -31.3142   21.4141 H   0  0  0  0  0  0
  -23.3719  -35.9672   23.3308 H   0  0  0  0  0  0
  -24.3583  -36.8940   22.2055 H   0  0  0  0  0  0
  -23.7268  -37.6539   23.6648 H   0  0  0  0  0  0
  -26.0905  -31.5627   20.6098 H   0  0  0  0  0  0
  -26.8357  -30.8367   22.0006 H   0  0  0  0  0  0
  -28.0851  -28.9794   21.2028 H   0  0  0  0  0  0
  -25.9967  -26.0908   18.7574 H   0  0  0  0  0  0
  -23.9663  -27.3818   18.9204 H   0  0  0  0  0  0
  -23.7379  -30.6166   19.4110 H   0  0  0  0  0  0
  -22.7343  -29.2686   19.8618 H   0  0  0  0  0  0
  -25.1281  -36.1934   25.0795 H   0  0  0  0  0  0
  -20.9869  -28.3318   24.1365 H   0  0  0  0  0  0
  -20.5230  -26.2370   23.3670 H   0  0  0  0  0  0
  -21.6697  -26.7346   22.1582 H   0  0  0  0  0  0
  -19.7066  -25.6415   21.0872 H   0  0  0  0  0  0
  -19.7118  -27.3285   20.6497 H   0  0  0  0  0  0
  -17.4461  -26.7056   21.3352 H   0  0  0  0  0  0
  -18.0211  -26.0086   22.8376 H   0  0  0  0  0  0
  -19.7878  -30.7394   24.2072 H   0  0  0  0  0  0
  -17.5014  -31.6219   24.5144 H   0  0  0  0  0  0
  -15.5352  -30.2877   23.7710 H   0  0  0  0  0  0
  -15.8748  -28.0862   22.6622 H   0  0  0  0  0  0
  -24.6012  -30.6993   25.7853 H   0  0  0  0  0  0
  -24.8936  -32.2838   26.4885 H   0  0  0  0  0  0
  -25.8191  -30.8957   27.0228 H   0  0  0  0  0  0
  -26.2872  -29.6789   24.1193 H   0  0  0  0  0  0
  -27.3982  -29.7242   25.4674 H   0  0  0  0  0  0
  -27.8766  -30.4226   23.9389 H   0  0  0  0  0  0
  -27.2612  -33.3610   26.2108 H   0  0  0  0  0  0
  -28.3896  -32.6945   25.0432 H   0  0  0  0  0  0
  -28.0665  -31.8472   26.5475 H   0  0  0  0  0  0
  -28.2579  -38.0105   24.7480 H   0  0  0  0  0  0
  -28.1050  -36.2632   24.6314 H   0  0  0  0  0  0
  -27.2277  -37.1511   25.8870 H   0  0  0  0  0  0
  -20.9327  -29.8901   21.6984 H   0  0  0  0  0  0
  -26.0149  -38.2863   24.1418 H   0  0  0  0  0  0
  -30.7934  -19.6554   20.7692 H   0  0  0  0  0  0
  -25.7963  -21.7804   19.6748 H   0  0  0  0  0  0
  -27.3095  -20.7483   19.7998 H   0  0  0  0  0  0
  -26.7856  -24.5202   21.3052 H   0  0  0  0  0  0
  -26.1837  -24.2971   19.6666 H   0  0  0  0  0  0
  -29.5947  -24.6566   21.4099 H   0  0  0  0  0  0
  -30.3599  -24.4580   19.8453 H   0  0  0  0  0  0
  -28.3043  -25.0304   18.7016 H   0  0  0  0  0  0
  -27.4313  -15.9725   22.2587 H   0  0  0  0  0  0
  -27.4672  -16.5540   23.9188 H   0  0  0  0  0  0
  -28.9015  -15.9148   23.2584 H   0  0  0  0  0  0
  -27.5819  -22.4664   23.1528 H   0  0  0  0  0  0
  -27.0118  -21.2814   24.2833 H   0  0  0  0  0  0
  -26.1738  -21.5188   22.7539 H   0  0  0  0  0  0
  -25.8000  -17.7826   23.2377 H   0  0  0  0  0  0
  -25.4675  -19.4674   23.1976 H   0  0  0  0  0  0
  -26.3408  -18.7965   24.5907 H   0  0  0  0  0  0
  -31.3959  -17.0152   21.8687 H   0  0  0  0  0  0
  -30.9194  -17.2780   20.2314 H   0  0  0  0  0  0
  -30.7260  -22.0366   21.4168 H   0  0  0  0  0  0
  -29.5452  -22.6310   22.4903 H   0  0  0  0  0  0
  -29.1308  -15.3678   21.4839 H   0  0  0  0  0  0
  -29.4368  -22.4234   19.6016 H   0  0  0  0  0  0
  1 25  1  0  0  0
  1 30  2  0  0  0
  1 87  1  0  0  0
  2  3  1  0  0  0
  2 25  1  0  0  0
  2 89  1  0  0  0
  2 90  1  0  0  0
  3  4  1  0  0  0
  3 91  1  0  0  0
  3 92  1  0  0  0
  4  5  1  0  0  0
  4 93  1  0  0  0
  4 94  1  0  0  0
  5  6  1  0  0  0
  5 26  1  0  0  0
  5 95  1  0  0  0
  6 25  1  0  0  0
  6 96  1  0  0  0
  6 97  1  0  0  0
  7  8  2  0  0  0
  7 26  1  0  0  0
  7 29  1  0  0  0
  8  9  1  0  0  0
  8 22  1  0  0  0
  9 10  1  0  0  0
  9 27  2  0  0  0
 10 11  2  0  0  0
 10 15  1  0  0  0
 11 12  1  0  0  0
 11 98  1  0  0  0
 12 13  2  0  0  0
 12 99  1  0  0  0
 13 14  1  0  0  0
 13 31  1  0  0  0
 14 15  2  0  0  0
 14100  1  0  0  0
 15101  1  0  0  0
 16 17  2  0  0  0
 16 21  1  0  0  0
 16 31  1  0  0  0
 17 18  1  0  0  0
 17102  1  0  0  0
 18 19  2  0  0  0
 18103  1  0  0  0
 19 20  1  0  0  0
 19 24  1  0  0  0
 20 21  2  0  0  0
 20104  1  0  0  0
 21 23  1  0  0  0
 22 28  1  0  0  0
 22 32  2  0  0  0
 26 27  1  0  0  0
 28105  1  0  0  0
 28106  1  0  0  0
 29107  1  0  0  0
 29108  1  0  0  0
 33 34  1  0  0  0
 33 66  1  0  0  0
 33 70  2  0  0  0
 34 36  1  0  0  0
 34 59  1  0  0  0
 34109  1  0  0  0
 35 44  2  0  0  0
 35 45  1  0  0  0
 35 68  1  0  0  0
 36 56  1  0  0  0
 36110  1  0  0  0
 37 39  1  0  0  0
 37 47  1  0  0  0
 37 66  1  0  0  0
 37111  1  0  0  0
 38 43  2  0  0  0
 38 46  1  0  0  0
 38 47  1  0  0  0
 39 64  1  0  0  0
 39 67  2  0  0  0
 40 52  1  0  0  0
 40 53  2  0  0  0
 40 58  1  0  0  0
 41112  1  0  0  0
 41113  1  0  0  0
 41114  1  0  0  0
 41 48  1  0  0  0
 42 43  1  0  0  0
 42 66  1  0  0  0
 42115  1  0  0  0
 42116  1  0  0  0
 43 44  1  0  0  0
 44117  1  0  0  0
 45 46  2  0  0  0
 45118  1  0  0  0
 46119  1  0  0  0
 47120  1  0  0  0
 47121  1  0  0  0
 48 56  1  0  0  0
 48 65  1  0  0  0
 48122  1  0  0  0
 49 50  1  0  0  0
 49 53  1  0  0  0
 49 64  1  0  0  0
 49123  1  0  0  0
 50 51  1  0  0  0
 50124  1  0  0  0
 50125  1  0  0  0
 51 52  1  0  0  0
 51126  1  0  0  0
 51127  1  0  0  0
 52128  1  0  0  0
 52129  1  0  0  0
 53 54  1  0  0  0
 54 55  2  0  0  0
 54130  1  0  0  0
 55 57  1  0  0  0
 55131  1  0  0  0
 56 69  2  0  0  0
 57 58  2  0  0  0
 57132  1  0  0  0
 58133  1  0  0  0
 59 60  1  0  0  0
 59 61  1  0  0  0
 59 62  1  0  0  0
 60134  1  0  0  0
 60135  1  0  0  0
 60136  1  0  0  0
 61137  1  0  0  0
 61138  1  0  0  0
 61139  1  0  0  0
 62140  1  0  0  0
 62141  1  0  0  0
 62142  1  0  0  0
 63 65  1  0  0  0
 63143  1  0  0  0
 63144  1  0  0  0
 63145  1  0  0  0
 64146  1  0  0  0
 65147  1  0  0  0
 68 81  1  0  0  0
 71 72  2  0  0  0
 71 73  1  0  0  0
 71148  1  0  0  0
 72 74  1  0  0  0
 72 85  1  0  0  0
 73 75  2  0  0  0
 73 86  1  0  0  0
 74 76  2  0  0  0
 74 82  1  0  0  0
 75 76  1  0  0  0
 75 83  1  0  0  0
 76 84  1  0  0  0
 77 78  2  0  0  0
 77 79  1  0  0  0
 77 88  1  0  0  0
 78149  1  0  0  0
 78150  1  0  0  0
 79 81  1  0  0  0
 79151  1  0  0  0
 79152  1  0  0  0
 80 81  1  0  0  0
 80 88  1  0  0  0
 80153  1  0  0  0
 80154  1  0  0  0
 81155  1  0  0  0
 82156  1  0  0  0
 82157  1  0  0  0
 82158  1  0  0  0
 83159  1  0  0  0
 83160  1  0  0  0
 83161  1  0  0  0
 84162  1  0  0  0
 84163  1  0  0  0
 84164  1  0  0  0
 85 87  1  0  0  0
 85165  1  0  0  0
 85166  1  0  0  0
 86167  1  0  0  0
 86168  1  0  0  0
 86 88  1  0  0  0
 87169  1  0  0  0
 88170  1  0  0  0
M  CHG  1  88   1
M  ISO  4   1 100  68 101  81 101  87 100
M  END
> <chiral flag>
0

> <version>
0

> <s_m_source_file>
/data/baiqing/PycharmProjects/Reinvent-master-3.2/result/LINK_invent/BTK/process_docking_weight1_custom_product_contain_oxygen_bond_distance_aromatic_linkinvent_7_9_3/rearranged_h_0035.sdf

> <i_m_source_file_index>
6

> <r_mmod_Potential_Energy-OPLS-2005>
-116.366195678711

> <r_mmod_Stretch_Energy-OPLS-2005>
64.8152084350586

> <r_mmod_Bend_Energy-OPLS-2005>
162.065277099609

> <r_mmod_Torsional_Energy-OPLS-2005>
221.823135375977

> <r_mmod_Improper_Torsional_Energy-OPLS-2005>
3.99186158180237

> <r_mmod_Van_der_Waal_Energy-OPLS-2005>
168.750076293945

> <r_mmod_Electrostatic_Energy-OPLS-2005>
-352.073791503906

> <r_mmod_Solvation_Energy-OPLS-2005>
-417.861175537109

> <b_mmod_Minimization_Converged-OPLS-2005>
0

> <r_mmod_RMS_Derivative-OPLS-2005>
8.20328807830811

$$$$
6
                    3D
 Structure written by MMmdl.
169178  0  0  1  0            999 V2000
  -30.6580  -14.6209   20.4283 C   0  0  0  0  0  0
  -30.4599  -12.3287   19.4988 C   0  0  0  0  0  0
  -29.5361  -12.3359   18.2587 C   0  0  0  0  0  0
  -28.0295  -12.3376   18.6228 C   0  0  0  0  0  0
  -27.6593  -13.2004   19.8669 C   0  0  2  0  0  0
  -28.7117  -13.0691   20.9886 C   0  0  0  0  0  0
  -25.2603  -13.8169   20.5706 C   0  0  0  0  0  0
  -24.1805  -13.0492   20.9082 C   0  0  0  0  0  0
  -24.6309  -11.6927   20.8642 C   0  0  0  0  0  0
  -23.8962  -10.4336   21.0305 C   0  0  0  0  0  0
  -24.3543   -9.4298   21.9120 C   0  0  0  0  0  0
  -23.6236   -8.2322   22.0751 C   0  0  0  0  0  0
  -22.4232   -8.0295   21.3548 C   0  0  0  0  0  0
  -21.9830   -9.0216   20.4618 C   0  0  0  0  0  0
  -22.7113  -10.2112   20.2983 C   0  0  0  0  0  0
  -21.6853   -6.0725   22.5284 C   0  0  0  0  0  0
  -21.4011   -6.5621   23.8217 C   0  0  0  0  0  0
  -21.3671   -5.6800   24.9197 C   0  0  0  0  0  0
  -21.6068   -4.3060   24.7254 C   0  0  0  0  0  0
  -21.8796   -3.8125   23.4380 C   0  0  0  0  0  0
  -21.9175   -4.6932   22.3420 C   0  0  0  0  0  0
  -22.7825  -13.5257   21.1769 C   0  0  0  0  0  0
  -22.1614   -4.2100   21.0999 F   0  0  0  0  0  0
  -21.5673   -3.4555   25.7781 F   0  0  0  0  0  0
  -30.0299  -13.3995   20.4147 N   0  0  0  0  0  0
  -26.3024  -12.9297   20.3370 N   0  0  0  0  0  0
  -25.9246  -11.6481   20.5759 N   0  0  0  0  0  0
  -22.0512  -12.8232   22.0349 N   0  0  0  0  0  0
  -25.4562  -15.1897   20.4232 N   0  0  0  0  0  0
  -31.8195  -14.7613   20.0394 O   0  0  0  0  0  0
  -21.6652   -6.8851   21.4227 O   0  0  0  0  0  0
  -22.3477  -14.5572   20.6629 O   0  0  0  0  0  0
  -24.6157  -31.8642   23.2061 C   0  0  0  0  0  0
  -25.9024  -32.4813   23.8389 C   0  0  1  0  0  0
  -27.2669  -27.4122   20.1061 C   0  0  0  0  0  0
  -25.5850  -33.8614   24.2301 N   0  0  0  0  0  0
  -23.4099  -30.4802   21.5442 C   0  0  2  0  0  0
  -24.8669  -28.9398   20.1065 C   0  0  0  0  0  0
  -22.7415  -29.4638   22.4977 C   0  0  0  0  0  0
  -18.0270  -28.1397   22.8523 C   0  0  0  0  0  0
  -24.1475  -36.7316   23.2647 C   0  0  0  0  0  0
  -25.9373  -30.8184   21.3655 C   0  0  0  0  0  0
  -26.0189  -29.4490   20.7173 C   0  0  0  0  0  0
  -27.2119  -28.6856   20.7265 C   0  0  0  0  0  0
  -26.1044  -26.9295   19.4664 C   0  0  0  0  0  0
  -24.9064  -27.6799   19.4766 C   0  0  0  0  0  0
  -23.6237  -29.8036   20.1609 C   0  0  0  0  0  0
  -25.4108  -36.3119   24.0335 C   0  0  1  0  0  0
  -20.5857  -28.3685   23.1322 C   0  0  2  0  0  0
  -20.6755  -26.9418   22.5426 C   0  0  0  0  0  0
  -19.5736  -26.6390   21.5222 C   0  0  0  0  0  0
  -18.1909  -26.7962   22.1633 C   0  0  0  0  0  0
  -19.1521  -28.8857   23.2918 C   0  0  0  0  0  0
  -18.9453  -30.1464   23.8927 C   0  0  0  0  0  0
  -17.6459  -30.6610   24.0574 C   0  0  0  0  0  0
  -25.9034  -34.9472   23.5131 C   0  0  0  0  0  0
  -16.5348  -29.9113   23.6332 C   0  0  0  0  0  0
  -16.7264  -28.6518   23.0381 C   0  0  0  0  0  0
  -26.4456  -31.6612   25.0739 C   0  0  0  0  0  0
  -25.3703  -31.3679   26.1463 C   0  0  0  0  0  0
  -27.0317  -30.3068   24.6123 C   0  0  0  0  0  0
  -27.6038  -32.4342   25.7474 C   0  0  0  0  0  0
  -27.5585  -37.1804   24.8465 C   0  0  0  0  0  0
  -21.4139  -29.3037   22.3705 N   0  0  0  0  0  0
  -26.4299  -37.3807   23.9412 N   0  0  0  0  0  0
  -24.6717  -31.0719   22.0966 N   0  0  0  0  0  0
  -23.4160  -28.8205   23.3064 O   0  0  0  0  0  0
  -28.4169  -26.6466   20.2366 O   0  0  0  0  0  0
  -26.5633  -34.8939   22.4713 O   0  0  0  0  0  0
  -23.5337  -32.1405   23.7417 O   0  0  0  0  0  0
  -27.9842  -18.1704   18.8046 C   0  0  0  0  0  0
  -30.0300  -18.2450   20.6945 C   0  0  0  0  0  0
  -28.1637  -19.3311   19.5719 C   0  0  0  0  0  0
  -28.7964  -17.0379   18.9850 C   0  0  0  0  0  0
  -29.3353  -19.4649   20.3636 C   0  0  0  0  0  0
  -29.6766  -16.9793   20.1004 C   0  0  0  0  0  0
  -29.4610  -22.4765   17.3703 C   0  0  0  0  0  0
  -29.4225  -23.9808   17.6482 C   0  0  0  0  0  0
  -30.2019  -21.7293   18.4865 C   0  0  0  0  0  0
  -29.5352  -23.4390   20.1497 C   0  0  0  0  0  0
  -28.8463  -24.3448   19.0409 C   0  0  1  0  0  0
  -27.0669  -20.3855   19.5071 C   0  0  0  0  0  0
  -28.6787  -15.9423   17.9422 C   0  0  0  0  0  0
  -29.7951  -20.8967   20.8174 C   0  0  0  0  0  0
  -28.9606  -25.9175   19.1273 C   0  0  0  0  0  0
  -29.8934  -15.6972   20.7708 N   0  0  0  0  0  0
  -29.5158  -21.9668   19.7794 N   0  3  2  0  0  0
  -31.5009  -12.4299   19.1894 H   0  0  0  0  0  0
  -30.4109  -11.3727   20.0235 H   0  0  0  0  0  0
  -29.7561  -11.4433   17.6670 H   0  0  0  0  0  0
  -29.7915  -13.1668   17.6067 H   0  0  0  0  0  0
  -27.7428  -11.3005   18.8003 H   0  0  0  0  0  0
  -27.4489  -12.6575   17.7543 H   0  0  0  0  0  0
  -27.6640  -14.2380   19.5576 H   0  0  0  0  0  0
  -28.7112  -12.0500   21.3796 H   0  0  0  0  0  0
  -28.4658  -13.7131   21.8353 H   0  0  0  0  0  0
  -25.2714   -9.5825   22.4640 H   0  0  0  0  0  0
  -23.9964   -7.4752   22.7491 H   0  0  0  0  0  0
  -21.0779   -8.8633   19.8923 H   0  0  0  0  0  0
  -22.3507  -10.9573   19.6043 H   0  0  0  0  0  0
  -21.1966   -7.6133   23.9656 H   0  0  0  0  0  0
  -21.1533   -6.0599   25.9090 H   0  0  0  0  0  0
  -22.0546   -2.7573   23.2944 H   0  0  0  0  0  0
  -22.4098  -11.9795   22.4602 H   0  0  0  0  0  0
  -21.1153  -13.1226   22.2675 H   0  0  0  0  0  0
  -24.7254  -15.8852   20.5346 H   0  0  0  0  0  0
  -26.3560  -15.6025   20.2167 H   0  0  0  0  0  0
  -26.7108  -32.5535   23.1157 H   0  0  0  0  0  0
  -24.9958  -33.9779   25.0406 H   0  0  0  0  0  0
  -22.7016  -31.2975   21.3966 H   0  0  0  0  0  0
  -23.3757  -35.9627   23.3294 H   0  0  0  0  0  0
  -24.3544  -36.8966   22.2056 H   0  0  0  0  0  0
  -23.7205  -37.6498   23.6685 H   0  0  0  0  0  0
  -26.0511  -31.5795   20.5919 H   0  0  0  0  0  0
  -26.8228  -30.8795   21.9870 H   0  0  0  0  0  0
  -28.0945  -29.0664   21.2199 H   0  0  0  0  0  0
  -26.1095  -25.9584   18.9904 H   0  0  0  0  0  0
  -24.0229  -27.2810   18.9962 H   0  0  0  0  0  0
  -23.7248  -30.5738   19.3954 H   0  0  0  0  0  0
  -22.7509  -29.2153   19.8713 H   0  0  0  0  0  0
  -25.1284  -36.1996   25.0819 H   0  0  0  0  0  0
  -20.9951  -28.3274   24.1446 H   0  0  0  0  0  0
  -20.5667  -26.2301   23.3631 H   0  0  0  0  0  0
  -21.6639  -26.7462   22.1243 H   0  0  0  0  0  0
  -19.6898  -25.6295   21.1262 H   0  0  0  0  0  0
  -19.6682  -27.3195   20.6759 H   0  0  0  0  0  0
  -17.4188  -26.6764   21.4008 H   0  0  0  0  0  0
  -18.0266  -26.0064   22.8990 H   0  0  0  0  0  0
  -19.7910  -30.7275   24.2328 H   0  0  0  0  0  0
  -17.5001  -31.6298   24.5158 H   0  0  0  0  0  0
  -15.5355  -30.3037   23.7604 H   0  0  0  0  0  0
  -15.8670  -28.0824   22.7125 H   0  0  0  0  0  0
  -24.5913  -30.6991   25.7772 H   0  0  0  0  0  0
  -24.8819  -32.2794   26.4927 H   0  0  0  0  0  0
  -25.8032  -30.8845   27.0226 H   0  0  0  0  0  0
  -26.2883  -29.6805   24.1180 H   0  0  0  0  0  0
  -27.4098  -29.7343   25.4600 H   0  0  0  0  0  0
  -27.8696  -30.4414   23.9279 H   0  0  0  0  0  0
  -27.2690  -33.3645   26.2083 H   0  0  0  0  0  0
  -28.3812  -32.6913   25.0261 H   0  0  0  0  0  0
  -28.0756  -31.8452   26.5349 H   0  0  0  0  0  0
  -28.2606  -38.0097   24.7556 H   0  0  0  0  0  0
  -28.1082  -36.2641   24.6260 H   0  0  0  0  0  0
  -27.2304  -37.1430   25.8867 H   0  0  0  0  0  0
  -20.9302  -29.8748   21.6919 H   0  0  0  0  0  0
  -26.0190  -38.2885   24.1436 H   0  0  0  0  0  0
  -27.1926  -18.1466   18.0681 H   0  0  0  0  0  0
  -30.8123  -18.2793   21.4423 H   0  0  0  0  0  0
  -29.9536  -22.2883   16.4152 H   0  0  0  0  0  0
  -28.4476  -22.0972   17.2588 H   0  0  0  0  0  0
  -28.8407  -24.4673   16.8635 H   0  0  0  0  0  0
  -30.4368  -24.3731   17.5621 H   0  0  0  0  0  0
  -31.2428  -22.0509   18.5479 H   0  0  0  0  0  0
  -30.2225  -20.6694   18.2307 H   0  0  0  0  0  0
  -29.0217  -23.5903   21.1008 H   0  0  0  0  0  0
  -30.5646  -23.7609   20.3077 H   0  0  0  0  0  0
  -27.7827  -24.1037   19.0390 H   0  0  0  0  0  0
  -26.0951  -19.9047   19.6268 H   0  0  0  0  0  0
  -27.0587  -20.8905   18.5437 H   0  0  0  0  0  0
  -27.1287  -21.1222   20.3108 H   0  0  0  0  0  0
  -29.1125  -16.2785   16.9999 H   0  0  0  0  0  0
  -27.6403  -15.6722   17.7536 H   0  0  0  0  0  0
  -29.2272  -15.0601   18.2219 H   0  0  0  0  0  0
  -30.8634  -20.8874   21.0385 H   0  0  0  0  0  0
  -29.2892  -21.1488   21.7521 H   0  0  0  0  0  0
  -28.5560  -26.3598   18.2135 H   0  0  0  0  0  0
  -30.0203  -26.1755   19.1052 H   0  0  0  0  0  0
  -29.0657  -15.3871   21.2555 H   0  0  0  0  0  0
  -28.5431  -21.7801   19.5856 H   0  0  0  0  0  0
  1 25  1  0  0  0
  1 30  2  0  0  0
  1 86  1  0  0  0
  2  3  1  0  0  0
  2 25  1  0  0  0
  2 88  1  0  0  0
  2 89  1  0  0  0
  3  4  1  0  0  0
  3 90  1  0  0  0
  3 91  1  0  0  0
  4  5  1  0  0  0
  4 92  1  0  0  0
  4 93  1  0  0  0
  5  6  1  0  0  0
  5 26  1  0  0  0
  5 94  1  0  0  0
  6 25  1  0  0  0
  6 95  1  0  0  0
  6 96  1  0  0  0
  7  8  2  0  0  0
  7 26  1  0  0  0
  7 29  1  0  0  0
  8  9  1  0  0  0
  8 22  1  0  0  0
  9 10  1  0  0  0
  9 27  2  0  0  0
 10 11  2  0  0  0
 10 15  1  0  0  0
 11 12  1  0  0  0
 11 97  1  0  0  0
 12 13  2  0  0  0
 12 98  1  0  0  0
 13 14  1  0  0  0
 13 31  1  0  0  0
 14 15  2  0  0  0
 14 99  1  0  0  0
 15100  1  0  0  0
 16 17  2  0  0  0
 16 21  1  0  0  0
 16 31  1  0  0  0
 17 18  1  0  0  0
 17101  1  0  0  0
 18 19  2  0  0  0
 18102  1  0  0  0
 19 20  1  0  0  0
 19 24  1  0  0  0
 20 21  2  0  0  0
 20103  1  0  0  0
 21 23  1  0  0  0
 22 28  1  0  0  0
 22 32  2  0  0  0
 26 27  1  0  0  0
 28104  1  0  0  0
 28105  1  0  0  0
 29106  1  0  0  0
 29107  1  0  0  0
 33 34  1  0  0  0
 33 66  1  0  0  0
 33 70  2  0  0  0
 34 36  1  0  0  0
 34 59  1  0  0  0
 34108  1  0  0  0
 35 44  2  0  0  0
 35 45  1  0  0  0
 35 68  1  0  0  0
 36 56  1  0  0  0
 36109  1  0  0  0
 37 39  1  0  0  0
 37 47  1  0  0  0
 37 66  1  0  0  0
 37110  1  0  0  0
 38 43  2  0  0  0
 38 46  1  0  0  0
 38 47  1  0  0  0
 39 64  1  0  0  0
 39 67  2  0  0  0
 40 52  1  0  0  0
 40 53  2  0  0  0
 40 58  1  0  0  0
 41111  1  0  0  0
 41112  1  0  0  0
 41113  1  0  0  0
 41 48  1  0  0  0
 42 43  1  0  0  0
 42 66  1  0  0  0
 42114  1  0  0  0
 42115  1  0  0  0
 43 44  1  0  0  0
 44116  1  0  0  0
 45 46  2  0  0  0
 45117  1  0  0  0
 46118  1  0  0  0
 47119  1  0  0  0
 47120  1  0  0  0
 48 56  1  0  0  0
 48 65  1  0  0  0
 48121  1  0  0  0
 49 50  1  0  0  0
 49 53  1  0  0  0
 49 64  1  0  0  0
 49122  1  0  0  0
 50 51  1  0  0  0
 50123  1  0  0  0
 50124  1  0  0  0
 51 52  1  0  0  0
 51125  1  0  0  0
 51126  1  0  0  0
 52127  1  0  0  0
 52128  1  0  0  0
 53 54  1  0  0  0
 54 55  2  0  0  0
 54129  1  0  0  0
 55 57  1  0  0  0
 55130  1  0  0  0
 56 69  2  0  0  0
 57 58  2  0  0  0
 57131  1  0  0  0
 58132  1  0  0  0
 59 60  1  0  0  0
 59 61  1  0  0  0
 59 62  1  0  0  0
 60133  1  0  0  0
 60134  1  0  0  0
 60135  1  0  0  0
 61136  1  0  0  0
 61137  1  0  0  0
 61138  1  0  0  0
 62139  1  0  0  0
 62140  1  0  0  0
 62141  1  0  0  0
 63 65  1  0  0  0
 63142  1  0  0  0
 63143  1  0  0  0
 63144  1  0  0  0
 64145  1  0  0  0
 65146  1  0  0  0
 68 85  1  0  0  0
 71 73  2  0  0  0
 71 74  1  0  0  0
 71147  1  0  0  0
 72 75  2  0  0  0
 72 76  1  0  0  0
 72148  1  0  0  0
 73 75  1  0  0  0
 73 82  1  0  0  0
 74 76  2  0  0  0
 74 83  1  0  0  0
 75 84  1  0  0  0
 76 86  1  0  0  0
 77 78  1  0  0  0
 77 79  1  0  0  0
 77149  1  0  0  0
 77150  1  0  0  0
 78 81  1  0  0  0
 78151  1  0  0  0
 78152  1  0  0  0
 79 87  1  0  0  0
 79153  1  0  0  0
 79154  1  0  0  0
 80 81  1  0  0  0
 80 87  1  0  0  0
 80155  1  0  0  0
 80156  1  0  0  0
 81 85  1  0  0  0
 81157  1  0  0  0
 82158  1  0  0  0
 82159  1  0  0  0
 82160  1  0  0  0
 83161  1  0  0  0
 83162  1  0  0  0
 83163  1  0  0  0
 84164  1  0  0  0
 84165  1  0  0  0
 84 87  1  0  0  0
 85166  1  0  0  0
 85167  1  0  0  0
 86168  1  0  0  0
 87169  1  0  0  0
M  CHG  1  87   1
M  ISO  4   1 100  68 101  85 101  86 100
M  END
> <chiral flag>
0

> <version>
0

> <s_m_source_file>
/data/baiqing/PycharmProjects/Reinvent-master-3.2/result/LINK_invent/BTK/process_docking_weight1_custom_product_contain_oxygen_bond_distance_aromatic_linkinvent_7_9_3/rearranged_h_0035.sdf

> <i_m_source_file_index>
7

> <r_mmod_Potential_Energy-OPLS-2005>
62.2605056762695

> <r_mmod_Stretch_Energy-OPLS-2005>
70.7961044311523

> <r_mmod_Bend_Energy-OPLS-2005>
156.840576171875

> <r_mmod_Torsional_Energy-OPLS-2005>
366.079376220703

> <r_mmod_Improper_Torsional_Energy-OPLS-2005>
8.13393115997314

> <r_mmod_Van_der_Waal_Energy-OPLS-2005>
148.697479248047

> <r_mmod_Electrostatic_Energy-OPLS-2005>
-302.014801025391

> <r_mmod_Solvation_Energy-OPLS-2005>
-428.070251464844

> <b_mmod_Minimization_Converged-OPLS-2005>
0

> <r_mmod_RMS_Derivative-OPLS-2005>
4.87935876846313

$$$$
8
                    3D
 Structure written by MMmdl.
167176  0  0  1  0            999 V2000
  -30.5920  -14.6625   20.5079 C   0  0  0  0  0  0
  -30.4464  -12.4097   19.4559 C   0  0  0  0  0  0
  -29.5128  -12.5125   18.2279 C   0  0  0  0  0  0
  -28.0336  -12.3512   18.6348 C   0  0  0  0  0  0
  -27.6548  -13.2149   19.8667 C   0  0  2  0  0  0
  -28.6971  -13.0594   20.9967 C   0  0  0  0  0  0
  -25.2571  -13.8170   20.5682 C   0  0  0  0  0  0
  -24.1831  -13.0435   20.9177 C   0  0  0  0  0  0
  -24.6396  -11.6907   20.8732 C   0  0  0  0  0  0
  -23.9065  -10.4295   21.0405 C   0  0  0  0  0  0
  -24.3617   -9.4208   21.9181 C   0  0  0  0  0  0
  -23.6294   -8.2243   22.0750 C   0  0  0  0  0  0
  -22.4279   -8.0282   21.3537 C   0  0  0  0  0  0
  -21.9912   -9.0254   20.4640 C   0  0  0  0  0  0
  -22.7238  -10.2137   20.3052 C   0  0  0  0  0  0
  -21.6856   -6.0739   22.5278 C   0  0  0  0  0  0
  -21.4016   -6.5641   23.8212 C   0  0  0  0  0  0
  -21.3656   -5.6792   24.9173 C   0  0  0  0  0  0
  -21.6043   -4.3056   24.7224 C   0  0  0  0  0  0
  -21.8821   -3.8149   23.4345 C   0  0  0  0  0  0
  -21.9195   -4.6966   22.3401 C   0  0  0  0  0  0
  -22.7858  -13.5231   21.1850 C   0  0  0  0  0  0
  -22.1664   -4.2151   21.0976 F   0  0  0  0  0  0
  -21.5627   -3.4538   25.7737 F   0  0  0  0  0  0
  -30.0116  -13.4210   20.4410 N   0  0  0  0  0  0
  -26.2995  -12.9339   20.3319 N   0  0  0  0  0  0
  -25.9323  -11.6499   20.5747 N   0  0  0  0  0  0
  -22.0503  -12.8218   22.0408 N   0  0  0  0  0  0
  -25.4304  -15.1888   20.4122 N   0  0  0  0  0  0
  -31.7430  -14.8533   20.1010 O   0  0  0  0  0  0
  -21.6637   -6.8882   21.4241 O   0  0  0  0  0  0
  -22.3541  -14.5541   20.6710 O   0  0  0  0  0  0
  -24.6274  -31.8578   23.1983 C   0  0  0  0  0  0
  -25.9109  -32.4763   23.8323 C   0  0  1  0  0  0
  -27.2323  -27.3142   20.1197 C   0  0  0  0  0  0
  -25.5919  -33.8563   24.2254 N   0  0  0  0  0  0
  -23.4225  -30.4776   21.5424 C   0  0  2  0  0  0
  -24.8696  -28.9231   20.1151 C   0  0  0  0  0  0
  -22.7483  -29.4604   22.4940 C   0  0  0  0  0  0
  -18.0283  -28.1393   22.8477 C   0  0  0  0  0  0
  -24.1499  -36.7297   23.2639 C   0  0  0  0  0  0
  -25.9619  -30.7869   21.3677 C   0  0  0  0  0  0
  -26.0385  -29.4115   20.7130 C   0  0  0  0  0  0
  -27.2247  -28.6212   20.6977 C   0  0  0  0  0  0
  -26.0406  -26.8663   19.5115 C   0  0  0  0  0  0
  -24.8723  -27.6559   19.5061 C   0  0  0  0  0  0
  -23.6384  -29.8064   20.1602 C   0  0  0  0  0  0
  -25.4122  -36.3079   24.0326 C   0  0  1  0  0  0
  -20.5883  -28.3693   23.1288 C   0  0  2  0  0  0
  -20.6783  -26.9416   22.5422 C   0  0  0  0  0  0
  -19.5764  -26.6388   21.5221 C   0  0  0  0  0  0
  -18.1932  -26.7935   22.1612 C   0  0  0  0  0  0
  -19.1534  -28.8861   23.2873 C   0  0  0  0  0  0
  -18.9459  -30.1461   23.8891 C   0  0  0  0  0  0
  -17.6460  -30.6592   24.0565 C   0  0  0  0  0  0
  -25.9060  -34.9445   23.5095 C   0  0  0  0  0  0
  -16.5352  -29.9094   23.6325 C   0  0  0  0  0  0
  -16.7270  -28.6517   23.0334 C   0  0  0  0  0  0
  -26.4489  -31.6576   25.0694 C   0  0  0  0  0  0
  -25.3706  -31.3710   26.1407 C   0  0  0  0  0  0
  -27.0330  -30.3002   24.6142 C   0  0  0  0  0  0
  -27.6056  -32.4311   25.7461 C   0  0  0  0  0  0
  -27.5589  -37.1798   24.8456 C   0  0  0  0  0  0
  -21.4195  -29.3043   22.3689 N   0  0  0  0  0  0
  -26.4300  -37.3774   23.9404 N   0  0  0  0  0  0
  -24.6892  -31.0577   22.0932 N   0  0  0  0  0  0
  -23.4196  -28.8144   23.3028 O   0  0  0  0  0  0
  -28.3707  -26.4988   20.1101 O   0  0  0  0  0  0
  -26.5644  -34.8922   22.4672 O   0  0  0  0  0  0
  -23.5439  -32.1380   23.7307 O   0  0  0  0  0  0
  -29.3320  -19.1605   19.3739 C   0  0  0  0  0  0
  -29.0758  -20.0056   20.4909 C   0  0  0  0  0  0
  -29.6404  -17.7677   19.4907 C   0  0  0  0  0  0
  -29.2473  -19.3853   21.7717 C   0  0  0  0  0  0
  -29.5942  -17.9904   21.8975 C   0  0  0  0  0  0
  -29.7576  -17.1371   20.7627 C   0  0  0  0  0  0
  -29.8723  -23.2992   21.2895 C   0  0  0  0  0  0
  -30.8401  -22.6537   21.9616 C   0  0  0  0  0  0
  -29.4321  -24.7500   21.4911 C   0  0  0  0  0  0
  -28.4018  -23.9045   19.4997 C   0  0  0  0  0  0
  -28.2760  -25.0770   20.5369 C   0  0  2  0  0  0
  -29.7499  -16.9425   18.2193 C   0  0  0  0  0  0
  -28.9935  -20.1791   23.0534 C   0  0  0  0  0  0
  -29.7321  -17.3772   23.2911 C   0  0  0  0  0  0
  -28.3906  -21.4314   20.2693 C   0  0  0  0  0  0
  -29.7718  -15.6761   20.9376 N   0  0  0  0  0  0
  -29.1660  -22.7373   20.1020 N   0  3  1  0  0  0
  -31.4839  -12.5575   19.1512 H   0  0  0  0  0  0
  -30.4029  -11.4119   19.8948 H   0  0  0  0  0  0
  -29.7802  -11.7557   17.4891 H   0  0  0  0  0  0
  -29.6540  -13.4784   17.7405 H   0  0  0  0  0  0
  -27.8661  -11.2973   18.8580 H   0  0  0  0  0  0
  -27.3832  -12.5890   17.7919 H   0  0  0  0  0  0
  -27.6754  -14.2522   19.5325 H   0  0  0  0  0  0
  -28.7148  -12.0318   21.3622 H   0  0  0  0  0  0
  -28.4333  -13.6721   21.8600 H   0  0  0  0  0  0
  -25.2765   -9.5686   22.4750 H   0  0  0  0  0  0
  -24.0007   -7.4635   22.7470 H   0  0  0  0  0  0
  -21.0843   -8.8771   19.8945 H   0  0  0  0  0  0
  -22.3696  -10.9673   19.6160 H   0  0  0  0  0  0
  -21.2008   -7.6149   23.9717 H   0  0  0  0  0  0
  -21.1476   -6.0520   25.9073 H   0  0  0  0  0  0
  -22.0604   -2.7613   23.2843 H   0  0  0  0  0  0
  -22.4116  -11.9875   22.4786 H   0  0  0  0  0  0
  -21.1120  -13.1239   22.2615 H   0  0  0  0  0  0
  -24.6672  -15.8467   20.5264 H   0  0  0  0  0  0
  -26.2879  -15.6298   20.1037 H   0  0  0  0  0  0
  -26.7172  -32.5433   23.1070 H   0  0  0  0  0  0
  -25.0031  -33.9706   25.0376 H   0  0  0  0  0  0
  -22.7163  -31.2973   21.3954 H   0  0  0  0  0  0
  -23.3766  -35.9626   23.3295 H   0  0  0  0  0  0
  -24.3598  -36.8933   22.2057 H   0  0  0  0  0  0
  -23.7251  -37.6491   23.6676 H   0  0  0  0  0  0
  -26.0927  -31.5488   20.5980 H   0  0  0  0  0  0
  -26.8413  -30.8376   21.9978 H   0  0  0  0  0  0
  -28.1286  -28.9976   21.1564 H   0  0  0  0  0  0
  -26.0084  -25.8972   19.0334 H   0  0  0  0  0  0
  -23.9758  -27.2769   19.0340 H   0  0  0  0  0  0
  -23.7595  -30.5802   19.4010 H   0  0  0  0  0  0
  -22.7569  -29.2372   19.8600 H   0  0  0  0  0  0
  -25.1308  -36.1935   25.0822 H   0  0  0  0  0  0
  -20.9965  -28.3284   24.1413 H   0  0  0  0  0  0
  -20.5708  -26.2302   23.3624 H   0  0  0  0  0  0
  -21.6650  -26.7467   22.1205 H   0  0  0  0  0  0
  -19.6937  -25.6301   21.1253 H   0  0  0  0  0  0
  -19.6717  -27.3199   20.6753 H   0  0  0  0  0  0
  -17.4217  -26.6692   21.3999 H   0  0  0  0  0  0
  -18.0308  -26.0077   22.9003 H   0  0  0  0  0  0
  -19.7938  -30.7272   24.2270 H   0  0  0  0  0  0
  -17.5017  -31.6269   24.5172 H   0  0  0  0  0  0
  -15.5354  -30.2995   23.7658 H   0  0  0  0  0  0
  -15.8668  -28.0849   22.7031 H   0  0  0  0  0  0
  -24.5907  -30.7035   25.7719 H   0  0  0  0  0  0
  -24.8853  -32.2866   26.4794 H   0  0  0  0  0  0
  -25.8006  -30.8908   27.0204 H   0  0  0  0  0  0
  -26.2891  -29.6743   24.1191 H   0  0  0  0  0  0
  -27.4059  -29.7265   25.4637 H   0  0  0  0  0  0
  -27.8750  -30.4288   23.9336 H   0  0  0  0  0  0
  -27.2677  -33.3626   26.2016 H   0  0  0  0  0  0
  -28.3863  -32.6846   25.0275 H   0  0  0  0  0  0
  -28.0722  -31.8439   26.5382 H   0  0  0  0  0  0
  -28.2589  -38.0111   24.7528 H   0  0  0  0  0  0
  -28.1107  -36.2645   24.6259 H   0  0  0  0  0  0
  -27.2313  -37.1415   25.8859 H   0  0  0  0  0  0
  -20.9386  -29.8762   21.6887 H   0  0  0  0  0  0
  -26.0189  -38.2854   24.1407 H   0  0  0  0  0  0
  -29.1942  -19.5708   18.3826 H   0  0  0  0  0  0
  -31.3614  -23.1329   22.7774 H   0  0  0  0  0  0
  -31.1375  -21.6456   21.7096 H   0  0  0  0  0  0
  -30.2876  -25.3863   21.2648 H   0  0  0  0  0  0
  -29.1545  -24.9345   22.5286 H   0  0  0  0  0  0
  -28.9763  -24.2608   18.6438 H   0  0  0  0  0  0
  -27.4252  -23.6108   19.1156 H   0  0  0  0  0  0
  -27.3480  -24.9266   21.0916 H   0  0  0  0  0  0
  -29.4869  -17.5239   17.3359 H   0  0  0  0  0  0
  -29.0797  -16.0833   18.2561 H   0  0  0  0  0  0
  -30.7688  -16.5780   18.0891 H   0  0  0  0  0  0
  -28.5868  -21.1738   22.8955 H   0  0  0  0  0  0
  -29.9251  -20.3071   23.6046 H   0  0  0  0  0  0
  -28.2895  -19.6563   23.7020 H   0  0  0  0  0  0
  -30.2388  -18.0513   23.9811 H   0  0  0  0  0  0
  -30.3243  -16.4626   23.2882 H   0  0  0  0  0  0
  -28.7489  -17.1431   23.6995 H   0  0  0  0  0  0
  -27.6198  -21.5874   21.0223 H   0  0  0  0  0  0
  -27.8188  -21.3124   19.3487 H   0  0  0  0  0  0
  -28.9372  -15.3207   21.3787 H   0  0  0  0  0  0
  -29.8655  -22.5079   19.4112 H   0  0  0  0  0  0
  1 25  1  0  0  0
  1 30  2  0  0  0
  1 86  1  0  0  0
  2  3  1  0  0  0
  2 25  1  0  0  0
  2 88  1  0  0  0
  2 89  1  0  0  0
  3  4  1  0  0  0
  3 90  1  0  0  0
  3 91  1  0  0  0
  4  5  1  0  0  0
  4 92  1  0  0  0
  4 93  1  0  0  0
  5  6  1  0  0  0
  5 26  1  0  0  0
  5 94  1  0  0  0
  6 25  1  0  0  0
  6 95  1  0  0  0
  6 96  1  0  0  0
  7  8  2  0  0  0
  7 26  1  0  0  0
  7 29  1  0  0  0
  8  9  1  0  0  0
  8 22  1  0  0  0
  9 10  1  0  0  0
  9 27  2  0  0  0
 10 11  2  0  0  0
 10 15  1  0  0  0
 11 12  1  0  0  0
 11 97  1  0  0  0
 12 13  2  0  0  0
 12 98  1  0  0  0
 13 14  1  0  0  0
 13 31  1  0  0  0
 14 15  2  0  0  0
 14 99  1  0  0  0
 15100  1  0  0  0
 16 17  2  0  0  0
 16 21  1  0  0  0
 16 31  1  0  0  0
 17 18  1  0  0  0
 17101  1  0  0  0
 18 19  2  0  0  0
 18102  1  0  0  0
 19 20  1  0  0  0
 19 24  1  0  0  0
 20 21  2  0  0  0
 20103  1  0  0  0
 21 23  1  0  0  0
 22 28  1  0  0  0
 22 32  2  0  0  0
 26 27  1  0  0  0
 28104  1  0  0  0
 28105  1  0  0  0
 29106  1  0  0  0
 29107  1  0  0  0
 33 34  1  0  0  0
 33 66  1  0  0  0
 33 70  2  0  0  0
 34 36  1  0  0  0
 34 59  1  0  0  0
 34108  1  0  0  0
 35 44  2  0  0  0
 35 45  1  0  0  0
 35 68  1  0  0  0
 36 56  1  0  0  0
 36109  1  0  0  0
 37 39  1  0  0  0
 37 47  1  0  0  0
 37 66  1  0  0  0
 37110  1  0  0  0
 38 43  2  0  0  0
 38 46  1  0  0  0
 38 47  1  0  0  0
 39 64  1  0  0  0
 39 67  2  0  0  0
 40 52  1  0  0  0
 40 53  2  0  0  0
 40 58  1  0  0  0
 41111  1  0  0  0
 41112  1  0  0  0
 41113  1  0  0  0
 41 48  1  0  0  0
 42 43  1  0  0  0
 42 66  1  0  0  0
 42114  1  0  0  0
 42115  1  0  0  0
 43 44  1  0  0  0
 44116  1  0  0  0
 45 46  2  0  0  0
 45117  1  0  0  0
 46118  1  0  0  0
 47119  1  0  0  0
 47120  1  0  0  0
 48 56  1  0  0  0
 48 65  1  0  0  0
 48121  1  0  0  0
 49 50  1  0  0  0
 49 53  1  0  0  0
 49 64  1  0  0  0
 49122  1  0  0  0
 50 51  1  0  0  0
 50123  1  0  0  0
 50124  1  0  0  0
 51 52  1  0  0  0
 51125  1  0  0  0
 51126  1  0  0  0
 52127  1  0  0  0
 52128  1  0  0  0
 53 54  1  0  0  0
 54 55  2  0  0  0
 54129  1  0  0  0
 55 57  1  0  0  0
 55130  1  0  0  0
 56 69  2  0  0  0
 57 58  2  0  0  0
 57131  1  0  0  0
 58132  1  0  0  0
 59 60  1  0  0  0
 59 61  1  0  0  0
 59 62  1  0  0  0
 60133  1  0  0  0
 60134  1  0  0  0
 60135  1  0  0  0
 61136  1  0  0  0
 61137  1  0  0  0
 61138  1  0  0  0
 62139  1  0  0  0
 62140  1  0  0  0
 62141  1  0  0  0
 63 65  1  0  0  0
 63142  1  0  0  0
 63143  1  0  0  0
 63144  1  0  0  0
 64145  1  0  0  0
 65146  1  0  0  0
 68 81  1  0  0  0
 71 72  2  0  0  0
 71 73  1  0  0  0
 71147  1  0  0  0
 72 74  1  0  0  0
 72 85  1  0  0  0
 73 76  2  0  0  0
 73 82  1  0  0  0
 74 75  2  0  0  0
 74 83  1  0  0  0
 75 76  1  0  0  0
 75 84  1  0  0  0
 76 86  1  0  0  0
 77 78  2  0  0  0
 77 79  1  0  0  0
 77 87  1  0  0  0
 78148  1  0  0  0
 78149  1  0  0  0
 79 81  1  0  0  0
 79150  1  0  0  0
 79151  1  0  0  0
 80 81  1  0  0  0
 80 87  1  0  0  0
 80152  1  0  0  0
 80153  1  0  0  0
 81154  1  0  0  0
 82155  1  0  0  0
 82156  1  0  0  0
 82157  1  0  0  0
 83158  1  0  0  0
 83159  1  0  0  0
 83160  1  0  0  0
 84161  1  0  0  0
 84162  1  0  0  0
 84163  1  0  0  0
 85164  1  0  0  0
 85165  1  0  0  0
 85 87  1  0  0  0
 86166  1  0  0  0
 87167  1  0  0  0
M  CHG  1  87   1
M  ISO  4   1 100  68 101  81 101  86 100
M  END
> <chiral flag>
0

> <version>
0

> <s_m_source_file>
/data/baiqing/PycharmProjects/Reinvent-master-3.2/result/LINK_invent/BTK/process_docking_weight1_custom_product_contain_oxygen_bond_distance_aromatic_linkinvent_7_9_3/rearranged_h_0035.sdf

> <i_m_source_file_index>
8

> <r_mmod_Potential_Energy-OPLS-2005>
1.75087773799896

> <r_mmod_Stretch_Energy-OPLS-2005>
89.3938293457031

> <r_mmod_Bend_Energy-OPLS-2005>
175.28466796875

> <r_mmod_Torsional_Energy-OPLS-2005>
288.825439453125

> <r_mmod_Improper_Torsional_Energy-OPLS-2005>
6.64488554000854

> <r_mmod_Van_der_Waal_Energy-OPLS-2005>
135.877670288086

> <r_mmod_Electrostatic_Energy-OPLS-2005>
-319.028167724609

> <r_mmod_Solvation_Energy-OPLS-2005>
-425.934417724609

> <b_mmod_Minimization_Converged-OPLS-2005>
0

> <r_mmod_RMS_Derivative-OPLS-2005>
1.2720160484314

$$$$
9
                    3D
 Structure written by MMmdl.
163172  0  0  1  0            999 V2000
  -30.5405  -14.8137   20.4357 C   0  0  0  0  0  0
  -30.4495  -12.5001   19.4490 C   0  0  0  0  0  0
  -29.5107  -12.5006   18.2212 C   0  0  0  0  0  0
  -28.0387  -12.3104   18.6471 C   0  0  0  0  0  0
  -27.6341  -13.2227   19.8351 C   0  0  2  0  0  0
  -28.6867  -13.1811   20.9607 C   0  0  0  0  0  0
  -25.2504  -13.8158   20.5697 C   0  0  0  0  0  0
  -24.1796  -13.0415   20.9221 C   0  0  0  0  0  0
  -24.6381  -11.6891   20.8756 C   0  0  0  0  0  0
  -23.9054  -10.4277   21.0416 C   0  0  0  0  0  0
  -24.3607   -9.4194   21.9189 C   0  0  0  0  0  0
  -23.6283   -8.2232   22.0751 C   0  0  0  0  0  0
  -22.4267   -8.0274   21.3539 C   0  0  0  0  0  0
  -21.9900   -9.0249   20.4642 C   0  0  0  0  0  0
  -22.7231  -10.2128   20.3059 C   0  0  0  0  0  0
  -21.6850   -6.0731   22.5278 C   0  0  0  0  0  0
  -21.4013   -6.5634   23.8213 C   0  0  0  0  0  0
  -21.3662   -5.6785   24.9173 C   0  0  0  0  0  0
  -21.6045   -4.3049   24.7225 C   0  0  0  0  0  0
  -21.8819   -3.8140   23.4346 C   0  0  0  0  0  0
  -21.9191   -4.6957   22.3402 C   0  0  0  0  0  0
  -22.7822  -13.5211   21.1881 C   0  0  0  0  0  0
  -22.1660   -4.2146   21.0979 F   0  0  0  0  0  0
  -21.5629   -3.4532   25.7738 F   0  0  0  0  0  0
  -29.9682  -13.5637   20.3548 N   0  0  0  0  0  0
  -26.2903  -12.9341   20.3229 N   0  0  0  0  0  0
  -25.9303  -11.6499   20.5729 N   0  0  0  0  0  0
  -22.0465  -12.8208   22.0440 N   0  0  0  0  0  0
  -25.4172  -15.1890   20.4128 N   0  0  0  0  0  0
  -31.7626  -14.9424   20.3257 O   0  0  0  0  0  0
  -21.6631   -6.8875   21.4241 O   0  0  0  0  0  0
  -22.3516  -14.5521   20.6726 O   0  0  0  0  0  0
  -24.6327  -31.8514   23.1923 C   0  0  0  0  0  0
  -25.9140  -32.4730   23.8291 C   0  0  1  0  0  0
  -27.2292  -27.2205   20.1680 C   0  0  0  0  0  0
  -25.5923  -33.8533   24.2215 N   0  0  0  0  0  0
  -23.4315  -30.4678   21.5368 C   0  0  2  0  0  0
  -24.8788  -28.8855   20.1335 C   0  0  0  0  0  0
  -22.7503  -29.4584   22.4922 C   0  0  0  0  0  0
  -18.0292  -28.1388   22.8481 C   0  0  0  0  0  0
  -24.1488  -36.7277   23.2644 C   0  0  0  0  0  0
  -25.9766  -30.7517   21.3751 C   0  0  0  0  0  0
  -26.0494  -29.3613   20.7381 C   0  0  0  0  0  0
  -27.2278  -28.5454   20.7315 C   0  0  0  0  0  0
  -26.0326  -26.8018   19.5539 C   0  0  0  0  0  0
  -24.8751  -27.6133   19.5333 C   0  0  0  0  0  0
  -23.6543  -29.7838   20.1610 C   0  0  0  0  0  0
  -25.4115  -36.3052   24.0322 C   0  0  1  0  0  0
  -20.5894  -28.3697   23.1270 C   0  0  2  0  0  0
  -20.6777  -26.9413   22.5409 C   0  0  0  0  0  0
  -19.5753  -26.6383   21.5211 C   0  0  0  0  0  0
  -18.1934  -26.7928   22.1623 C   0  0  0  0  0  0
  -19.1545  -28.8861   23.2869 C   0  0  0  0  0  0
  -18.9469  -30.1462   23.8885 C   0  0  0  0  0  0
  -17.6467  -30.6587   24.0564 C   0  0  0  0  0  0
  -25.9060  -34.9427   23.5076 C   0  0  0  0  0  0
  -16.5357  -29.9082   23.6332 C   0  0  0  0  0  0
  -16.7279  -28.6503   23.0345 C   0  0  0  0  0  0
  -26.4499  -31.6578   25.0704 C   0  0  0  0  0  0
  -25.3712  -31.3751   26.1424 C   0  0  0  0  0  0
  -27.0357  -30.2988   24.6220 C   0  0  0  0  0  0
  -27.6033  -32.4339   25.7489 C   0  0  0  0  0  0
  -27.5574  -37.1792   24.8463 C   0  0  0  0  0  0
  -21.4212  -29.3040   22.3659 N   0  0  0  0  0  0
  -26.4284  -37.3757   23.9410 N   0  0  0  0  0  0
  -24.6995  -31.0446   22.0909 N   0  0  0  0  0  0
  -23.4188  -28.8145   23.3050 O   0  0  0  0  0  0
  -28.3929  -26.4403   19.9897 O   0  0  0  0  0  0
  -26.5645  -34.8915   22.4655 O   0  0  0  0  0  0
  -23.5474  -32.1350   23.7204 O   0  0  0  0  0  0
  -31.1688  -18.8554   21.3020 C   0  0  0  0  0  0
  -31.0080  -21.2961   21.1741 C   0  0  0  0  0  0
  -31.7136  -20.1308   21.5342 C   0  0  0  0  0  0
  -29.8850  -18.6968   20.7534 C   0  0  0  0  0  0
  -29.1822  -19.9341   20.3410 C   0  0  0  0  0  0
  -29.7551  -21.2812   20.5100 C   0  0  0  0  0  0
  -30.2934  -23.4248   19.3873 C   0  0  0  0  0  0
  -31.2557  -23.0124   18.5439 C   0  0  0  0  0  0
  -30.1352  -24.8811   19.7996 C   0  0  0  0  0  0
  -28.2381  -23.5509   20.3875 C   0  0  0  0  0  0
  -28.7946  -25.0766   20.5290 C   0  0  2  0  0  0
  -33.0773  -20.2627   22.1832 C   0  0  0  0  0  0
  -27.8154  -19.8111   19.6933 C   0  0  0  0  0  0
  -29.2887  -17.2130   20.9213 C   0  0  0  0  0  0
  -29.3405  -22.5918   19.9669 N   0  0  0  0  0  0
  -29.6806  -15.8923   20.2280 N   0  0  0  0  0  0
  -31.4815  -12.6737   19.1393 H   0  0  0  0  0  0
  -30.4367  -11.5312   19.9505 H   0  0  0  0  0  0
  -29.8001  -11.7161   17.5204 H   0  0  0  0  0  0
  -29.6155  -13.4432   17.6816 H   0  0  0  0  0  0
  -27.9134  -11.2645   18.9286 H   0  0  0  0  0  0
  -27.3747  -12.4772   17.7982 H   0  0  0  0  0  0
  -27.6106  -14.2351   19.4336 H   0  0  0  0  0  0
  -28.7480  -12.1874   21.4067 H   0  0  0  0  0  0
  -28.4184  -13.8675   21.7662 H   0  0  0  0  0  0
  -25.2759   -9.5666   22.4757 H   0  0  0  0  0  0
  -23.9991   -7.4620   22.7464 H   0  0  0  0  0  0
  -21.0834   -8.8774   19.8948 H   0  0  0  0  0  0
  -22.3696  -10.9668   19.6164 H   0  0  0  0  0  0
  -21.2008   -7.6142   23.9716 H   0  0  0  0  0  0
  -21.1484   -6.0515   25.9078 H   0  0  0  0  0  0
  -22.0595   -2.7602   23.2846 H   0  0  0  0  0  0
  -22.4082  -11.9869   22.4832 H   0  0  0  0  0  0
  -21.1085  -13.1238   22.2644 H   0  0  0  0  0  0
  -24.6429  -15.8341   20.5254 H   0  0  0  0  0  0
  -26.2553  -15.6381   20.0699 H   0  0  0  0  0  0
  -26.7209  -32.5373   23.1034 H   0  0  0  0  0  0
  -25.0045  -33.9658   25.0344 H   0  0  0  0  0  0
  -22.7295  -31.2894   21.3804 H   0  0  0  0  0  0
  -23.3747  -35.9613   23.3297 H   0  0  0  0  0  0
  -24.3575  -36.8914   22.2060 H   0  0  0  0  0  0
  -23.7249  -37.6476   23.6683 H   0  0  0  0  0  0
  -26.1136  -31.5005   20.5937 H   0  0  0  0  0  0
  -26.8548  -30.8121   22.0065 H   0  0  0  0  0  0
  -28.1416  -28.9280   21.1644 H   0  0  0  0  0  0
  -26.0023  -25.8394   19.0621 H   0  0  0  0  0  0
  -23.9794  -27.2443   19.0525 H   0  0  0  0  0  0
  -23.7898  -30.5499   19.3966 H   0  0  0  0  0  0
  -22.7708  -29.2199   19.8562 H   0  0  0  0  0  0
  -25.1301  -36.1885   25.0814 H   0  0  0  0  0  0
  -20.9981  -28.3274   24.1392 H   0  0  0  0  0  0
  -20.5664  -26.2310   23.3616 H   0  0  0  0  0  0
  -21.6647  -26.7422   22.1213 H   0  0  0  0  0  0
  -19.6912  -25.6291   21.1245 H   0  0  0  0  0  0
  -19.6690  -27.3190   20.6739 H   0  0  0  0  0  0
  -17.4200  -26.6668   21.4030 H   0  0  0  0  0  0
  -18.0336  -26.0074   22.9023 H   0  0  0  0  0  0
  -19.7948  -30.7284   24.2241 H   0  0  0  0  0  0
  -17.5021  -31.6261   24.5173 H   0  0  0  0  0  0
  -15.5357  -30.2979   23.7664 H   0  0  0  0  0  0
  -15.8682  -28.0824   22.7054 H   0  0  0  0  0  0
  -24.5870  -30.7121   25.7756 H   0  0  0  0  0  0
  -24.8931  -32.2936   26.4838 H   0  0  0  0  0  0
  -25.8019  -30.8930   27.0208 H   0  0  0  0  0  0
  -26.2954  -29.6724   24.1230 H   0  0  0  0  0  0
  -27.4012  -29.7269   25.4760 H   0  0  0  0  0  0
  -27.8838  -30.4255   23.9485 H   0  0  0  0  0  0
  -27.2613  -33.3641   26.2041 H   0  0  0  0  0  0
  -28.3858  -32.6901   25.0334 H   0  0  0  0  0  0
  -28.0685  -31.8488   26.5432 H   0  0  0  0  0  0
  -28.2585  -38.0094   24.7503 H   0  0  0  0  0  0
  -28.1074  -36.2623   24.6291 H   0  0  0  0  0  0
  -27.2295  -37.1444   25.8867 H   0  0  0  0  0  0
  -20.9409  -29.8748   21.6844 H   0  0  0  0  0  0
  -26.0154  -38.2828   24.1408 H   0  0  0  0  0  0
  -31.7132  -17.9779   21.6272 H   0  0  0  0  0  0
  -31.4922  -22.2440   21.3634 H   0  0  0  0  0  0
  -31.9687  -23.7084   18.1248 H   0  0  0  0  0  0
  -31.3505  -21.9742   18.2573 H   0  0  0  0  0  0
  -30.1818  -25.4873   18.8932 H   0  0  0  0  0  0
  -30.9714  -25.1875   20.4297 H   0  0  0  0  0  0
  -27.4511  -23.5195   19.6338 H   0  0  0  0  0  0
  -27.7887  -23.2191   21.3241 H   0  0  0  0  0  0
  -29.0049  -25.2261   21.5887 H   0  0  0  0  0  0
  -33.4981  -19.2900   22.4412 H   0  0  0  0  0  0
  -33.0097  -20.8540   23.0971 H   0  0  0  0  0  0
  -33.7721  -20.7614   21.5069 H   0  0  0  0  0  0
  -27.7829  -18.9574   19.0165 H   0  0  0  0  0  0
  -27.5691  -20.6985   19.1096 H   0  0  0  0  0  0
  -27.0456  -19.6808   20.4538 H   0  0  0  0  0  0
  -28.2151  -17.3027   20.7586 H   0  0  0  0  0  0
  -29.3612  -16.9994   21.9886 H   0  0  0  0  0  0
  -28.8551  -15.5229   19.7839 H   0  0  0  0  0  0
  1 25  1  0  0  0
  1 30  2  0  0  0
  1 86  1  0  0  0
  2  3  1  0  0  0
  2 25  1  0  0  0
  2 87  1  0  0  0
  2 88  1  0  0  0
  3  4  1  0  0  0
  3 89  1  0  0  0
  3 90  1  0  0  0
  4  5  1  0  0  0
  4 91  1  0  0  0
  4 92  1  0  0  0
  5  6  1  0  0  0
  5 26  1  0  0  0
  5 93  1  0  0  0
  6 25  1  0  0  0
  6 94  1  0  0  0
  6 95  1  0  0  0
  7  8  2  0  0  0
  7 26  1  0  0  0
  7 29  1  0  0  0
  8  9  1  0  0  0
  8 22  1  0  0  0
  9 10  1  0  0  0
  9 27  2  0  0  0
 10 11  2  0  0  0
 10 15  1  0  0  0
 11 12  1  0  0  0
 11 96  1  0  0  0
 12 13  2  0  0  0
 12 97  1  0  0  0
 13 14  1  0  0  0
 13 31  1  0  0  0
 14 15  2  0  0  0
 14 98  1  0  0  0
 15 99  1  0  0  0
 16 17  2  0  0  0
 16 21  1  0  0  0
 16 31  1  0  0  0
 17 18  1  0  0  0
 17100  1  0  0  0
 18 19  2  0  0  0
 18101  1  0  0  0
 19 20  1  0  0  0
 19 24  1  0  0  0
 20 21  2  0  0  0
 20102  1  0  0  0
 21 23  1  0  0  0
 22 28  1  0  0  0
 22 32  2  0  0  0
 26 27  1  0  0  0
 28103  1  0  0  0
 28104  1  0  0  0
 29105  1  0  0  0
 29106  1  0  0  0
 33 34  1  0  0  0
 33 66  1  0  0  0
 33 70  2  0  0  0
 34 36  1  0  0  0
 34 59  1  0  0  0
 34107  1  0  0  0
 35 44  2  0  0  0
 35 45  1  0  0  0
 35 68  1  0  0  0
 36 56  1  0  0  0
 36108  1  0  0  0
 37 39  1  0  0  0
 37 47  1  0  0  0
 37 66  1  0  0  0
 37109  1  0  0  0
 38 43  2  0  0  0
 38 46  1  0  0  0
 38 47  1  0  0  0
 39 64  1  0  0  0
 39 67  2  0  0  0
 40 52  1  0  0  0
 40 53  2  0  0  0
 40 58  1  0  0  0
 41110  1  0  0  0
 41111  1  0  0  0
 41112  1  0  0  0
 41 48  1  0  0  0
 42 43  1  0  0  0
 42 66  1  0  0  0
 42113  1  0  0  0
 42114  1  0  0  0
 43 44  1  0  0  0
 44115  1  0  0  0
 45 46  2  0  0  0
 45116  1  0  0  0
 46117  1  0  0  0
 47118  1  0  0  0
 47119  1  0  0  0
 48 56  1  0  0  0
 48 65  1  0  0  0
 48120  1  0  0  0
 49 50  1  0  0  0
 49 53  1  0  0  0
 49 64  1  0  0  0
 49121  1  0  0  0
 50 51  1  0  0  0
 50122  1  0  0  0
 50123  1  0  0  0
 51 52  1  0  0  0
 51124  1  0  0  0
 51125  1  0  0  0
 52126  1  0  0  0
 52127  1  0  0  0
 53 54  1  0  0  0
 54 55  2  0  0  0
 54128  1  0  0  0
 55 57  1  0  0  0
 55129  1  0  0  0
 56 69  2  0  0  0
 57 58  2  0  0  0
 57130  1  0  0  0
 58131  1  0  0  0
 59 60  1  0  0  0
 59 61  1  0  0  0
 59 62  1  0  0  0
 60132  1  0  0  0
 60133  1  0  0  0
 60134  1  0  0  0
 61135  1  0  0  0
 61136  1  0  0  0
 61137  1  0  0  0
 62138  1  0  0  0
 62139  1  0  0  0
 62140  1  0  0  0
 63 65  1  0  0  0
 63141  1  0  0  0
 63142  1  0  0  0
 63143  1  0  0  0
 64144  1  0  0  0
 65145  1  0  0  0
 68 81  1  0  0  0
 71 73  2  0  0  0
 71 74  1  0  0  0
 71146  1  0  0  0
 72 73  1  0  0  0
 72 76  2  0  0  0
 72147  1  0  0  0
 73 82  1  0  0  0
 74 75  2  0  0  0
 74 84  1  0  0  0
 75 76  1  0  0  0
 75 83  1  0  0  0
 76 85  1  0  0  0
 77 78  2  0  0  0
 77 79  1  0  0  0
 77 85  1  0  0  0
 78148  1  0  0  0
 78149  1  0  0  0
 79 81  1  0  0  0
 79150  1  0  0  0
 79151  1  0  0  0
 80 81  1  0  0  0
 80 85  1  0  0  0
 80152  1  0  0  0
 80153  1  0  0  0
 81154  1  0  0  0
 82155  1  0  0  0
 82156  1  0  0  0
 82157  1  0  0  0
 83158  1  0  0  0
 83159  1  0  0  0
 83160  1  0  0  0
 84 86  1  0  0  0
 84161  1  0  0  0
 84162  1  0  0  0
 86163  1  0  0  0
M  ISO  4   1 100  68 101  81 101  86 100
M  END
> <chiral flag>
0

> <version>
0

> <s_m_source_file>
/data/baiqing/PycharmProjects/Reinvent-master-3.2/result/LINK_invent/BTK/process_docking_weight1_custom_product_contain_oxygen_bond_distance_aromatic_linkinvent_7_9_3/rearranged_h_0035.sdf

> <i_m_source_file_index>
9

> <r_mmod_Potential_Energy-OPLS-2005>
459.16455078125

> <r_mmod_Stretch_Energy-OPLS-2005>
151.747604370117

> <r_mmod_Bend_Energy-OPLS-2005>
344.928802490234

> <r_mmod_Torsional_Energy-OPLS-2005>
342.198699951172

> <r_mmod_Improper_Torsional_Energy-OPLS-2005>
19.0945835113525

> <r_mmod_Van_der_Waal_Energy-OPLS-2005>
126.568435668945

> <r_mmod_Electrostatic_Energy-OPLS-2005>
-420.880493164062

> <r_mmod_Solvation_Energy-OPLS-2005>
-216.751831054688

> <b_mmod_Minimization_Converged-OPLS-2005>
0

> <r_mmod_RMS_Derivative-OPLS-2005>
0.87021017074585

$$$$
10
                    3D
 Structure written by MMmdl.
164173  0  0  1  0            999 V2000
  -30.6665  -14.5514   20.5251 C   0  0  0  0  0  0
  -30.4318  -12.3447   19.4454 C   0  0  0  0  0  0
  -29.5053  -12.5054   18.2207 C   0  0  0  0  0  0
  -28.0289  -12.3466   18.6311 C   0  0  0  0  0  0
  -27.6578  -13.2116   19.8649 C   0  0  2  0  0  0
  -28.6997  -13.0381   20.9936 C   0  0  0  0  0  0
  -25.2589  -13.8151   20.5677 C   0  0  0  0  0  0
  -24.1851  -13.0433   20.9179 C   0  0  0  0  0  0
  -24.6424  -11.6900   20.8756 C   0  0  0  0  0  0
  -23.9095  -10.4283   21.0422 C   0  0  0  0  0  0
  -24.3640   -9.4183   21.9185 C   0  0  0  0  0  0
  -23.6296   -8.2226   22.0753 C   0  0  0  0  0  0
  -22.4276   -8.0284   21.3544 C   0  0  0  0  0  0
  -21.9923   -9.0270   20.4644 C   0  0  0  0  0  0
  -22.7275  -10.2134   20.3055 C   0  0  0  0  0  0
  -21.6842   -6.0747   22.5282 C   0  0  0  0  0  0
  -21.4004   -6.5647   23.8220 C   0  0  0  0  0  0
  -21.3657   -5.6791   24.9180 C   0  0  0  0  0  0
  -21.6047   -4.3058   24.7223 C   0  0  0  0  0  0
  -21.8821   -3.8156   23.4342 C   0  0  0  0  0  0
  -21.9185   -4.6971   22.3403 C   0  0  0  0  0  0
  -22.7866  -13.5211   21.1837 C   0  0  0  0  0  0
  -22.1659   -4.2166   21.0973 F   0  0  0  0  0  0
  -21.5631   -3.4539   25.7734 F   0  0  0  0  0  0
  -30.0245  -13.3523   20.4381 N   0  0  0  0  0  0
  -26.3017  -12.9336   20.3331 N   0  0  0  0  0  0
  -25.9350  -11.6499   20.5785 N   0  0  0  0  0  0
  -22.0505  -12.8200   22.0382 N   0  0  0  0  0  0
  -25.4258  -15.1880   20.4108 N   0  0  0  0  0  0
  -31.8257  -14.7102   20.1300 O   0  0  0  0  0  0
  -21.6626   -6.8889   21.4248 O   0  0  0  0  0  0
  -22.3517  -14.5506   20.6684 O   0  0  0  0  0  0
  -24.6137  -31.8690   23.2095 C   0  0  0  0  0  0
  -25.9029  -32.4827   23.8396 C   0  0  1  0  0  0
  -27.2294  -27.4090   20.1066 C   0  0  0  0  0  0
  -25.5886  -33.8629   24.2326 N   0  0  0  0  0  0
  -23.4026  -30.4910   21.5492 C   0  0  2  0  0  0
  -24.8491  -28.9470   20.1190 C   0  0  0  0  0  0
  -22.7412  -29.4686   22.4997 C   0  0  0  0  0  0
  -18.0290  -28.1359   22.8523 C   0  0  0  0  0  0
  -24.1490  -36.7316   23.2638 C   0  0  0  0  0  0
  -25.9316  -30.8265   21.3665 C   0  0  0  0  0  0
  -26.0086  -29.4570   20.7155 C   0  0  0  0  0  0
  -27.2031  -28.6981   20.6989 C   0  0  0  0  0  0
  -26.0553  -26.9182   19.4992 C   0  0  0  0  0  0
  -24.8686  -27.6813   19.5067 C   0  0  0  0  0  0
  -23.6128  -29.8190   20.1665 C   0  0  0  0  0  0
  -25.4114  -36.3119   24.0338 C   0  0  1  0  0  0
  -20.5878  -28.3668   23.1321 C   0  0  2  0  0  0
  -20.6786  -26.9398   22.5436 C   0  0  0  0  0  0
  -19.5756  -26.6333   21.5253 C   0  0  0  0  0  0
  -18.1936  -26.7899   22.1665 C   0  0  0  0  0  0
  -19.1536  -28.8831   23.2906 C   0  0  0  0  0  0
  -18.9474  -30.1459   23.8878 C   0  0  0  0  0  0
  -17.6483  -30.6609   24.0525 C   0  0  0  0  0  0
  -25.9038  -34.9483   23.5134 C   0  0  0  0  0  0
  -16.5372  -29.9088   23.6332 C   0  0  0  0  0  0
  -16.7283  -28.6482   23.0386 C   0  0  0  0  0  0
  -26.4459  -31.6604   25.0726 C   0  0  0  0  0  0
  -25.3728  -31.3704   26.1475 C   0  0  0  0  0  0
  -27.0284  -30.3043   24.6108 C   0  0  0  0  0  0
  -27.6040  -32.4321   25.7486 C   0  0  0  0  0  0
  -27.5589  -37.1818   24.8467 C   0  0  0  0  0  0
  -21.4137  -29.3056   22.3738 N   0  0  0  0  0  0
  -26.4309  -37.3798   23.9404 N   0  0  0  0  0  0
  -24.6670  -31.0781   22.0998 N   0  0  0  0  0  0
  -23.4193  -28.8252   23.3056 O   0  0  0  0  0  0
  -28.4156  -26.7035   20.0557 O   0  0  0  0  0  0
  -26.5611  -34.8929   22.4701 O   0  0  0  0  0  0
  -23.5333  -32.1444   23.7490 O   0  0  0  0  0  0
  -26.7954  -18.5911   21.4409 C   0  0  0  0  0  0
  -27.8866  -17.7094   21.3987 C   0  0  0  0  0  0
  -26.8693  -19.8746   20.8639 C   0  0  0  0  0  0
  -29.0975  -18.0853   20.7854 C   0  0  0  0  0  0
  -28.0947  -20.3303   20.2919 C   0  0  0  0  0  0
  -29.2060  -19.4212   20.2720 C   0  0  0  0  0  0
  -27.9095  -23.2977   21.6425 C   0  0  0  0  0  0
  -27.8739  -22.5141   22.7331 C   0  0  0  0  0  0
  -27.5280  -24.7714   21.5582 C   0  0  0  0  0  0
  -28.6707  -24.1825   19.5456 C   0  0  0  0  0  0
  -28.5247  -25.3417   20.5477 C   0  0  1  0  0  0
  -25.5876  -20.7023   20.8641 C   0  0  0  0  0  0
  -30.2542  -17.0510   20.6930 C   0  0  0  0  0  0
  -28.1613  -21.7256   19.5920 C   0  0  0  0  0  0
  -29.8992  -15.6143   20.8664 N   0  0  0  0  0  0
  -28.6193  -22.9320   20.3695 N   0  3  2  0  0  0
  -30.7088  -19.9373   19.5850 Cl  0  0  0  0  0  0
  -31.4767  -12.4470   19.1491 H   0  0  0  0  0  0
  -30.3406  -11.3451   19.8716 H   0  0  0  0  0  0
  -29.7631  -11.7737   17.4560 H   0  0  0  0  0  0
  -29.6569  -13.4855   17.7658 H   0  0  0  0  0  0
  -27.8655  -11.2919   18.8569 H   0  0  0  0  0  0
  -27.3770  -12.5850   17.7910 H   0  0  0  0  0  0
  -27.6821  -14.2500   19.5346 H   0  0  0  0  0  0
  -28.6861  -12.0152   21.3748 H   0  0  0  0  0  0
  -28.4574  -13.6761   21.8431 H   0  0  0  0  0  0
  -25.2809   -9.5625   22.4738 H   0  0  0  0  0  0
  -24.0009   -7.4606   22.7470 H   0  0  0  0  0  0
  -21.0857   -8.8807   19.8941 H   0  0  0  0  0  0
  -22.3780  -10.9670   19.6138 H   0  0  0  0  0  0
  -21.1992   -7.6156   23.9731 H   0  0  0  0  0  0
  -21.1476   -6.0519   25.9081 H   0  0  0  0  0  0
  -22.0599   -2.7618   23.2838 H   0  0  0  0  0  0
  -22.4140  -11.9890   22.4815 H   0  0  0  0  0  0
  -21.1109  -13.1200   22.2553 H   0  0  0  0  0  0
  -24.6465  -15.8293   20.5094 H   0  0  0  0  0  0
  -26.2722  -15.6394   20.0888 H   0  0  0  0  0  0
  -26.7105  -32.5532   23.1166 H   0  0  0  0  0  0
  -25.0015  -33.9790   25.0459 H   0  0  0  0  0  0
  -22.6905  -31.3070   21.4079 H   0  0  0  0  0  0
  -23.3760  -35.9640   23.3312 H   0  0  0  0  0  0
  -24.3585  -36.8925   22.2050 H   0  0  0  0  0  0
  -23.7233  -37.6521   23.6646 H   0  0  0  0  0  0
  -26.0508  -31.5977   20.6036 H   0  0  0  0  0  0
  -26.8152  -30.8779   21.9903 H   0  0  0  0  0  0
  -28.1044  -29.0980   21.1425 H   0  0  0  0  0  0
  -26.0597  -25.9595   18.9998 H   0  0  0  0  0  0
  -23.9782  -27.2960   19.0297 H   0  0  0  0  0  0
  -23.7203  -30.5914   19.4046 H   0  0  0  0  0  0
  -22.7358  -29.2410   19.8698 H   0  0  0  0  0  0
  -25.1292  -36.1995   25.0834 H   0  0  0  0  0  0
  -20.9976  -28.3242   24.1445 H   0  0  0  0  0  0
  -20.5764  -26.2267   23.3630 H   0  0  0  0  0  0
  -21.6639  -26.7499   22.1175 H   0  0  0  0  0  0
  -19.6923  -25.6237   21.1302 H   0  0  0  0  0  0
  -19.6696  -27.3123   20.6764 H   0  0  0  0  0  0
  -17.4200  -26.6654   21.4074 H   0  0  0  0  0  0
  -18.0323  -26.0053   22.9068 H   0  0  0  0  0  0
  -19.7961  -30.7292   24.2186 H   0  0  0  0  0  0
  -17.5071  -31.6332   24.5056 H   0  0  0  0  0  0
  -15.5382  -30.3013   23.7642 H   0  0  0  0  0  0
  -15.8689  -28.0764   22.7123 H   0  0  0  0  0  0
  -24.5902  -30.7053   25.7808 H   0  0  0  0  0  0
  -24.8915  -32.2853   26.4940 H   0  0  0  0  0  0
  -25.8078  -30.8860   27.0227 H   0  0  0  0  0  0
  -26.2823  -29.6830   24.1140 H   0  0  0  0  0  0
  -27.4018  -29.7253   25.4567 H   0  0  0  0  0  0
  -27.8680  -30.4356   23.9279 H   0  0  0  0  0  0
  -27.2662  -33.3608   26.2100 H   0  0  0  0  0  0
  -28.3826  -32.6912   25.0299 H   0  0  0  0  0  0
  -28.0739  -31.8432   26.5374 H   0  0  0  0  0  0
  -28.2616  -38.0110   24.7512 H   0  0  0  0  0  0
  -28.1078  -36.2640   24.6297 H   0  0  0  0  0  0
  -27.2301  -37.1473   25.8870 H   0  0  0  0  0  0
  -20.9302  -29.8746   21.6928 H   0  0  0  0  0  0
  -26.0206  -38.2884   24.1394 H   0  0  0  0  0  0
  -25.8732  -18.2511   21.8945 H   0  0  0  0  0  0
  -27.7709  -16.7316   21.8394 H   0  0  0  0  0  0
  -27.4446  -22.8670   23.6579 H   0  0  0  0  0  0
  -28.2750  -21.5122   22.7320 H   0  0  0  0  0  0
  -27.6047  -25.2650   22.5280 H   0  0  0  0  0  0
  -26.4974  -24.8449   21.2156 H   0  0  0  0  0  0
  -29.6024  -24.2548   18.9834 H   0  0  0  0  0  0
  -27.8505  -24.2048   18.8271 H   0  0  0  0  0  0
  -29.4743  -25.3762   21.0837 H   0  0  0  0  0  0
  -25.3453  -21.0902   19.8758 H   0  0  0  0  0  0
  -25.6416  -21.5310   21.5680 H   0  0  0  0  0  0
  -24.7343  -20.0894   21.1556 H   0  0  0  0  0  0
  -31.0084  -17.3185   21.4344 H   0  0  0  0  0  0
  -30.7322  -17.1659   19.7182 H   0  0  0  0  0  0
  -27.1902  -21.9560   19.1609 H   0  0  0  0  0  0
  -28.8059  -21.6385   18.7175 H   0  0  0  0  0  0
  -28.9578  -15.4056   21.1507 H   0  0  0  0  0  0
  -29.5795  -22.7398   20.6171 H   0  0  0  0  0  0
  1 25  1  0  0  0
  1 30  2  0  0  0
  1 85  1  0  0  0
  2  3  1  0  0  0
  2 25  1  0  0  0
  2 88  1  0  0  0
  2 89  1  0  0  0
  3  4  1  0  0  0
  3 90  1  0  0  0
  3 91  1  0  0  0
  4  5  1  0  0  0
  4 92  1  0  0  0
  4 93  1  0  0  0
  5  6  1  0  0  0
  5 26  1  0  0  0
  5 94  1  0  0  0
  6 25  1  0  0  0
  6 95  1  0  0  0
  6 96  1  0  0  0
  7  8  2  0  0  0
  7 26  1  0  0  0
  7 29  1  0  0  0
  8  9  1  0  0  0
  8 22  1  0  0  0
  9 10  1  0  0  0
  9 27  2  0  0  0
 10 11  2  0  0  0
 10 15  1  0  0  0
 11 12  1  0  0  0
 11 97  1  0  0  0
 12 13  2  0  0  0
 12 98  1  0  0  0
 13 14  1  0  0  0
 13 31  1  0  0  0
 14 15  2  0  0  0
 14 99  1  0  0  0
 15100  1  0  0  0
 16 17  2  0  0  0
 16 21  1  0  0  0
 16 31  1  0  0  0
 17 18  1  0  0  0
 17101  1  0  0  0
 18 19  2  0  0  0
 18102  1  0  0  0
 19 20  1  0  0  0
 19 24  1  0  0  0
 20 21  2  0  0  0
 20103  1  0  0  0
 21 23  1  0  0  0
 22 28  1  0  0  0
 22 32  2  0  0  0
 26 27  1  0  0  0
 28104  1  0  0  0
 28105  1  0  0  0
 29106  1  0  0  0
 29107  1  0  0  0
 33 34  1  0  0  0
 33 66  1  0  0  0
 33 70  2  0  0  0
 34 36  1  0  0  0
 34 59  1  0  0  0
 34108  1  0  0  0
 35 44  2  0  0  0
 35 45  1  0  0  0
 35 68  1  0  0  0
 36 56  1  0  0  0
 36109  1  0  0  0
 37 39  1  0  0  0
 37 47  1  0  0  0
 37 66  1  0  0  0
 37110  1  0  0  0
 38 43  2  0  0  0
 38 46  1  0  0  0
 38 47  1  0  0  0
 39 64  1  0  0  0
 39 67  2  0  0  0
 40 52  1  0  0  0
 40 53  2  0  0  0
 40 58  1  0  0  0
 41111  1  0  0  0
 41112  1  0  0  0
 41113  1  0  0  0
 41 48  1  0  0  0
 42 43  1  0  0  0
 42 66  1  0  0  0
 42114  1  0  0  0
 42115  1  0  0  0
 43 44  1  0  0  0
 44116  1  0  0  0
 45 46  2  0  0  0
 45117  1  0  0  0
 46118  1  0  0  0
 47119  1  0  0  0
 47120  1  0  0  0
 48 56  1  0  0  0
 48 65  1  0  0  0
 48121  1  0  0  0
 49 50  1  0  0  0
 49 53  1  0  0  0
 49 64  1  0  0  0
 49122  1  0  0  0
 50 51  1  0  0  0
 50123  1  0  0  0
 50124  1  0  0  0
 51 52  1  0  0  0
 51125  1  0  0  0
 51126  1  0  0  0
 52127  1  0  0  0
 52128  1  0  0  0
 53 54  1  0  0  0
 54 55  2  0  0  0
 54129  1  0  0  0
 55 57  1  0  0  0
 55130  1  0  0  0
 56 69  2  0  0  0
 57 58  2  0  0  0
 57131  1  0  0  0
 58132  1  0  0  0
 59 60  1  0  0  0
 59 61  1  0  0  0
 59 62  1  0  0  0
 60133  1  0  0  0
 60134  1  0  0  0
 60135  1  0  0  0
 61136  1  0  0  0
 61137  1  0  0  0
 61138  1  0  0  0
 62139  1  0  0  0
 62140  1  0  0  0
 62141  1  0  0  0
 63 65  1  0  0  0
 63142  1  0  0  0
 63143  1  0  0  0
 63144  1  0  0  0
 64145  1  0  0  0
 65146  1  0  0  0
 68 81  1  0  0  0
 71 72  2  0  0  0
 71 73  1  0  0  0
 71147  1  0  0  0
 72 74  1  0  0  0
 72148  1  0  0  0
 73 75  2  0  0  0
 73 82  1  0  0  0
 74 76  2  0  0  0
 74 83  1  0  0  0
 75 76  1  0  0  0
 75 84  1  0  0  0
 76 87  1  0  0  0
 77 78  2  0  0  0
 77 79  1  0  0  0
 77 86  1  0  0  0
 78149  1  0  0  0
 78150  1  0  0  0
 79 81  1  0  0  0
 79151  1  0  0  0
 79152  1  0  0  0
 80 81  1  0  0  0
 80 86  1  0  0  0
 80153  1  0  0  0
 80154  1  0  0  0
 81155  1  0  0  0
 82156  1  0  0  0
 82157  1  0  0  0
 82158  1  0  0  0
 83 85  1  0  0  0
 83159  1  0  0  0
 83160  1  0  0  0
 84161  1  0  0  0
 84162  1  0  0  0
 84 86  1  0  0  0
 85163  1  0  0  0
 86164  1  0  0  0
M  CHG  1  86   1
M  ISO  4   1 100  68 101  81 101  85 100
M  END
> <chiral flag>
0

> <version>
0

> <s_m_source_file>
/data/baiqing/PycharmProjects/Reinvent-master-3.2/result/LINK_invent/BTK/process_docking_weight1_custom_product_contain_oxygen_bond_distance_aromatic_linkinvent_7_9_3/rearranged_h_0035.sdf

> <i_m_source_file_index>
10

> <r_mmod_Potential_Energy-OPLS-2005>
-118.297019958496

> <r_mmod_Stretch_Energy-OPLS-2005>
53.896614074707

> <r_mmod_Bend_Energy-OPLS-2005>
163.880920410156

> <r_mmod_Torsional_Energy-OPLS-2005>
230.923522949219

> <r_mmod_Improper_Torsional_Energy-OPLS-2005>
5.90525817871094

> <r_mmod_Van_der_Waal_Energy-OPLS-2005>
138.460693359375

> <r_mmod_Electrostatic_Energy-OPLS-2005>
-311.654571533203

> <r_mmod_Solvation_Energy-OPLS-2005>
-420.225006103516

> <b_mmod_Minimization_Converged-OPLS-2005>
0

> <r_mmod_RMS_Derivative-OPLS-2005>
3.15237593650818

$$$$
11
                    3D
 Structure written by MMmdl.
184193  0  0  1  0            999 V2000
  -30.7158  -14.4254   20.6169 C   0  0  0  0  0  0
  -30.4254  -12.2989   19.3989 C   0  0  0  0  0  0
  -29.4881  -12.5110   18.1928 C   0  0  0  0  0  0
  -28.0092  -12.3758   18.6082 C   0  0  0  0  0  0
  -27.6640  -13.2000   19.8781 C   0  0  2  0  0  0
  -28.7060  -12.9443   20.9888 C   0  0  0  0  0  0
  -25.2610  -13.8152   20.5709 C   0  0  0  0  0  0
  -24.1841  -13.0437   20.9171 C   0  0  0  0  0  0
  -24.6372  -11.6896   20.8692 C   0  0  0  0  0  0
  -23.9032  -10.4286   21.0362 C   0  0  0  0  0  0
  -24.3602   -9.4219   21.9147 C   0  0  0  0  0  0
  -23.6291   -8.2246   22.0733 C   0  0  0  0  0  0
  -22.4273   -8.0263   21.3528 C   0  0  0  0  0  0
  -21.9896   -9.0223   20.4627 C   0  0  0  0  0  0
  -22.7200  -10.2118   20.3026 C   0  0  0  0  0  0
  -21.6863   -6.0714   22.5254 C   0  0  0  0  0  0
  -21.4018   -6.5619   23.8187 C   0  0  0  0  0  0
  -21.3663   -5.6778   24.9151 C   0  0  0  0  0  0
  -21.6050   -4.3040   24.7212 C   0  0  0  0  0  0
  -21.8825   -3.8126   23.4333 C   0  0  0  0  0  0
  -21.9199   -4.6939   22.3391 C   0  0  0  0  0  0
  -22.7863  -13.5230   21.1829 C   0  0  0  0  0  0
  -22.1660   -4.2129   21.0971 F   0  0  0  0  0  0
  -21.5649   -3.4530   25.7727 F   0  0  0  0  0  0
  -30.0388  -13.2590   20.4413 N   0  0  0  0  0  0
  -26.3032  -12.9305   20.3378 N   0  0  0  0  0  0
  -25.9302  -11.6473   20.5741 N   0  0  0  0  0  0
  -22.0517  -12.8203   22.0388 N   0  0  0  0  0  0
  -25.4391  -15.1876   20.4193 N   0  0  0  0  0  0
  -31.8167  -14.6533   20.1085 O   0  0  0  0  0  0
  -21.6655   -6.8843   21.4215 O   0  0  0  0  0  0
  -22.3537  -14.5527   20.6680 O   0  0  0  0  0  0
  -24.6131  -31.8679   23.2094 C   0  0  0  0  0  0
  -25.9032  -32.4812   23.8383 C   0  0  1  0  0  0
  -27.2339  -27.4406   20.0896 C   0  0  0  0  0  0
  -25.5896  -33.8615   24.2309 N   0  0  0  0  0  0
  -23.3989  -30.4923   21.5519 C   0  0  2  0  0  0
  -24.8430  -28.9566   20.1165 C   0  0  0  0  0  0
  -22.7388  -29.4670   22.5013 C   0  0  0  0  0  0
  -18.0270  -28.1375   22.8502 C   0  0  0  0  0  0
  -24.1485  -36.7310   23.2640 C   0  0  0  0  0  0
  -25.9258  -30.8367   21.3586 C   0  0  0  0  0  0
  -26.0037  -29.4719   20.7046 C   0  0  0  0  0  0
  -27.2021  -28.7230   20.6846 C   0  0  0  0  0  0
  -26.0534  -26.9397   19.4933 C   0  0  0  0  0  0
  -24.8616  -27.6889   19.5105 C   0  0  0  0  0  0
  -23.6040  -29.8219   20.1669 C   0  0  0  0  0  0
  -25.4106  -36.3100   24.0331 C   0  0  1  0  0  0
  -20.5853  -28.3656   23.1337 C   0  0  2  0  0  0
  -20.6758  -26.9399   22.5429 C   0  0  0  0  0  0
  -19.5741  -26.6389   21.5220 C   0  0  0  0  0  0
  -18.1915  -26.7924   22.1622 C   0  0  0  0  0  0
  -19.1516  -28.8831   23.2912 C   0  0  0  0  0  0
  -18.9447  -30.1440   23.8915 C   0  0  0  0  0  0
  -17.6451  -30.6584   24.0568 C   0  0  0  0  0  0
  -25.9035  -34.9470   23.5117 C   0  0  0  0  0  0
  -16.5344  -29.9087   23.6335 C   0  0  0  0  0  0
  -16.7257  -28.6502   23.0358 C   0  0  0  0  0  0
  -26.4476  -31.6588   25.0706 C   0  0  0  0  0  0
  -25.3759  -31.3685   26.1465 C   0  0  0  0  0  0
  -27.0307  -30.3033   24.6063 C   0  0  0  0  0  0
  -27.6034  -32.4320   25.7489 C   0  0  0  0  0  0
  -27.5578  -37.1806   24.8460 C   0  0  0  0  0  0
  -21.4120  -29.3029   22.3742 N   0  0  0  0  0  0
  -26.4283  -37.3791   23.9414 N   0  0  0  0  0  0
  -24.6640  -31.0799   22.0983 N   0  0  0  0  0  0
  -23.4163  -28.8217   23.3056 O   0  0  0  0  0  0
  -28.4156  -26.7265   20.0999 O   0  0  0  0  0  0
  -26.5602  -34.8929   22.4680 O   0  0  0  0  0  0
  -23.5337  -32.1429   23.7512 O   0  0  0  0  0  0
  -27.3919  -19.6684   20.6858 C   0  0  0  0  0  0
  -29.6109  -18.7480   20.3469 C   0  0  0  0  0  0
  -28.6308  -19.7111   20.0227 C   0  0  0  0  0  0
  -27.1366  -18.7085   21.6863 C   0  0  0  0  0  0
  -29.3806  -17.7687   21.3446 C   0  0  0  0  0  0
  -28.1452  -17.7743   22.0588 C   0  0  0  0  0  0
  -26.3101  -18.5170   27.2410 C   0  0  0  0  0  0
  -27.2285  -19.5958   26.6415 C   0  0  0  0  0  0
  -25.8978  -17.4022   26.2643 C   0  0  0  0  0  0
  -28.6353  -19.0559   26.3207 C   0  0  0  0  0  0
  -27.0691  -16.6798   25.5722 C   0  0  0  0  0  0
  -28.7947  -18.3875   24.9363 C   0  0  0  0  0  0
  -25.7537  -18.7139   22.3284 C   0  0  0  0  0  0
  -30.4809  -16.7284   21.5974 C   0  0  0  0  0  0
  -27.8889  -16.8144   23.2317 C   0  0  0  0  0  0
  -28.8570  -20.7379   18.9126 C   0  0  0  0  0  0
  -28.1935  -23.1365   18.6997 C   0  0  0  0  0  0
  -28.3414  -25.2929   20.1974 C   0  0  0  0  0  0
  -28.6854  -24.5975   18.8600 C   0  0  1  0  0  0
  -30.0517  -15.3545   21.3169 N   0  0  0  0  0  0
  -27.6479  -17.5383   24.5072 N   0  3  0  0  0  0
  -29.0175  -22.1258   19.4132 N   0  3  0  0  0  0
  -30.0046  -24.6310   18.6521 F   0  0  0  0  0  0
  -31.4659  -12.4109   19.0913 H   0  0  0  0  0  0
  -30.3379  -11.2797   19.7776 H   0  0  0  0  0  0
  -29.7228  -11.7923   17.4065 H   0  0  0  0  0  0
  -29.6572  -13.4993   17.7635 H   0  0  0  0  0  0
  -27.8053  -11.3192   18.7858 H   0  0  0  0  0  0
  -27.3608  -12.6717   17.7824 H   0  0  0  0  0  0
  -27.7187  -14.2536   19.6027 H   0  0  0  0  0  0
  -28.6803  -11.8954   21.2910 H   0  0  0  0  0  0
  -28.4639  -13.5064   21.8916 H   0  0  0  0  0  0
  -25.2750   -9.5724   22.4715 H   0  0  0  0  0  0
  -24.0010   -7.4639   22.7449 H   0  0  0  0  0  0
  -21.0832   -8.8710   19.8929 H   0  0  0  0  0  0
  -22.3622  -10.9645   19.6137 H   0  0  0  0  0  0
  -21.2012   -7.6122   23.9693 H   0  0  0  0  0  0
  -21.1487   -6.0499   25.9052 H   0  0  0  0  0  0
  -22.0620   -2.7593   23.2833 H   0  0  0  0  0  0
  -22.4137  -11.9870   22.4790 H   0  0  0  0  0  0
  -21.1119  -13.1188   22.2565 H   0  0  0  0  0  0
  -24.6583  -15.8310   20.4758 H   0  0  0  0  0  0
  -26.2722  -15.6124   20.0323 H   0  0  0  0  0  0
  -26.7108  -32.5529   23.1154 H   0  0  0  0  0  0
  -25.0050  -33.9783   25.0454 H   0  0  0  0  0  0
  -22.6869  -31.3083   21.4137 H   0  0  0  0  0  0
  -23.3747  -35.9642   23.3292 H   0  0  0  0  0  0
  -24.3585  -36.8937   22.2057 H   0  0  0  0  0  0
  -23.7237  -37.6509   23.6668 H   0  0  0  0  0  0
  -26.0368  -31.6047   20.5918 H   0  0  0  0  0  0
  -26.8123  -30.8901   21.9769 H   0  0  0  0  0  0
  -28.0988  -29.1211   21.1377 H   0  0  0  0  0  0
  -26.0382  -25.9747   19.0077 H   0  0  0  0  0  0
  -23.9679  -27.2856   19.0554 H   0  0  0  0  0  0
  -23.7086  -30.5945   19.4055 H   0  0  0  0  0  0
  -22.7268  -29.2407   19.8762 H   0  0  0  0  0  0
  -25.1289  -36.1952   25.0826 H   0  0  0  0  0  0
  -20.9948  -28.3221   24.1455 H   0  0  0  0  0  0
  -20.5670  -26.2263   23.3612 H   0  0  0  0  0  0
  -21.6629  -26.7451   22.1214 H   0  0  0  0  0  0
  -19.6902  -25.6303   21.1237 H   0  0  0  0  0  0
  -19.6686  -27.3209   20.6761 H   0  0  0  0  0  0
  -17.4194  -26.6696   21.4012 H   0  0  0  0  0  0
  -18.0297  -26.0049   22.8999 H   0  0  0  0  0  0
  -19.7928  -30.7253   24.2282 H   0  0  0  0  0  0
  -17.5013  -31.6271   24.5155 H   0  0  0  0  0  0
  -15.5346  -30.2995   23.7651 H   0  0  0  0  0  0
  -15.8654  -28.0824   22.7069 H   0  0  0  0  0  0
  -24.5929  -30.7031   25.7813 H   0  0  0  0  0  0
  -24.8969  -32.2846   26.4938 H   0  0  0  0  0  0
  -25.8139  -30.8847   27.0204 H   0  0  0  0  0  0
  -26.2841  -29.6790   24.1140 H   0  0  0  0  0  0
  -27.4115  -29.7270   25.4505 H   0  0  0  0  0  0
  -27.8661  -30.4361   23.9181 H   0  0  0  0  0  0
  -27.2619  -33.3607   26.2080 H   0  0  0  0  0  0
  -28.3850  -32.6898   25.0327 H   0  0  0  0  0  0
  -28.0690  -31.8436   26.5405 H   0  0  0  0  0  0
  -28.2574  -38.0124   24.7526 H   0  0  0  0  0  0
  -28.1097  -36.2656   24.6255 H   0  0  0  0  0  0
  -27.2307  -37.1409   25.8865 H   0  0  0  0  0  0
  -20.9264  -29.8740   21.6963 H   0  0  0  0  0  0
  -26.0164  -38.2863   24.1433 H   0  0  0  0  0  0
  -26.6199  -20.3757   20.4118 H   0  0  0  0  0  0
  -30.5475  -18.7459   19.8054 H   0  0  0  0  0  0
  -25.4054  -18.9947   27.6214 H   0  0  0  0  0  0
  -26.7934  -18.0754   28.1140 H   0  0  0  0  0  0
  -27.3300  -20.3908   27.3827 H   0  0  0  0  0  0
  -26.7736  -20.0694   25.7707 H   0  0  0  0  0  0
  -25.2107  -17.7994   25.5155 H   0  0  0  0  0  0
  -25.3187  -16.6643   26.8215 H   0  0  0  0  0  0
  -28.9537  -18.3694   27.1061 H   0  0  0  0  0  0
  -29.3479  -19.8808   26.3708 H   0  0  0  0  0  0
  -26.6724  -15.7619   25.1364 H   0  0  0  0  0  0
  -27.8277  -16.3520   26.2850 H   0  0  0  0  0  0
  -29.7118  -17.7963   24.9355 H   0  0  0  0  0  0
  -28.9419  -19.1717   24.1925 H   0  0  0  0  0  0
  -25.0446  -19.2746   21.7182 H   0  0  0  0  0  0
  -25.7713  -19.1865   23.3112 H   0  0  0  0  0  0
  -25.3476  -17.7064   22.4219 H   0  0  0  0  0  0
  -30.8142  -16.7936   22.6346 H   0  0  0  0  0  0
  -31.3602  -16.9806   21.0012 H   0  0  0  0  0  0
  -28.7053  -16.1150   23.3985 H   0  0  0  0  0  0
  -27.0276  -16.1984   22.9682 H   0  0  0  0  0  0
  -28.0125  -20.6677   18.2250 H   0  0  0  0  0  0
  -29.7380  -20.4713   18.3273 H   0  0  0  0  0  0
  -28.2273  -22.9073   17.6330 H   0  0  0  0  0  0
  -27.1470  -23.0418   18.9925 H   0  0  0  0  0  0
  -29.0524  -24.9743   20.9600 H   0  0  0  0  0  0
  -27.3693  -24.9672   20.5704 H   0  0  0  0  0  0
  -28.2379  -25.1813   18.0554 H   0  0  0  0  0  0
  -29.1405  -15.0740   21.6377 H   0  0  0  0  0  0
  -26.9087  -18.1823   24.2728 H   0  0  0  0  0  0
  -29.9848  -22.3839   19.2982 H   0  0  0  0  0  0
  -28.8109  -22.1390   20.3974 H   0  0  0  0  0  0
  1 25  1  0  0  0
  1 30  2  0  0  0
  1 90  1  0  0  0
  2  3  1  0  0  0
  2 25  1  0  0  0
  2 94  1  0  0  0
  2 95  1  0  0  0
  3  4  1  0  0  0
  3 96  1  0  0  0
  3 97  1  0  0  0
  4  5  1  0  0  0
  4 98  1  0  0  0
  4 99  1  0  0  0
  5  6  1  0  0  0
  5 26  1  0  0  0
  5100  1  0  0  0
  6 25  1  0  0  0
  6101  1  0  0  0
  6102  1  0  0  0
  7  8  2  0  0  0
  7 26  1  0  0  0
  7 29  1  0  0  0
  8  9  1  0  0  0
  8 22  1  0  0  0
  9 10  1  0  0  0
  9 27  2  0  0  0
 10 11  2  0  0  0
 10 15  1  0  0  0
 11 12  1  0  0  0
 11103  1  0  0  0
 12 13  2  0  0  0
 12104  1  0  0  0
 13 14  1  0  0  0
 13 31  1  0  0  0
 14 15  2  0  0  0
 14105  1  0  0  0
 15106  1  0  0  0
 16 17  2  0  0  0
 16 21  1  0  0  0
 16 31  1  0  0  0
 17 18  1  0  0  0
 17107  1  0  0  0
 18 19  2  0  0  0
 18108  1  0  0  0
 19 20  1  0  0  0
 19 24  1  0  0  0
 20 21  2  0  0  0
 20109  1  0  0  0
 21 23  1  0  0  0
 22 28  1  0  0  0
 22 32  2  0  0  0
 26 27  1  0  0  0
 28110  1  0  0  0
 28111  1  0  0  0
 29112  1  0  0  0
 29113  1  0  0  0
 33 34  1  0  0  0
 33 66  1  0  0  0
 33 70  2  0  0  0
 34 36  1  0  0  0
 34 59  1  0  0  0
 34114  1  0  0  0
 35 44  2  0  0  0
 35 45  1  0  0  0
 35 68  1  0  0  0
 36 56  1  0  0  0
 36115  1  0  0  0
 37 39  1  0  0  0
 37 47  1  0  0  0
 37 66  1  0  0  0
 37116  1  0  0  0
 38 43  2  0  0  0
 38 46  1  0  0  0
 38 47  1  0  0  0
 39 64  1  0  0  0
 39 67  2  0  0  0
 40 52  1  0  0  0
 40 53  2  0  0  0
 40 58  1  0  0  0
 41117  1  0  0  0
 41118  1  0  0  0
 41119  1  0  0  0
 41 48  1  0  0  0
 42 43  1  0  0  0
 42 66  1  0  0  0
 42120  1  0  0  0
 42121  1  0  0  0
 43 44  1  0  0  0
 44122  1  0  0  0
 45 46  2  0  0  0
 45123  1  0  0  0
 46124  1  0  0  0
 47125  1  0  0  0
 47126  1  0  0  0
 48 56  1  0  0  0
 48 65  1  0  0  0
 48127  1  0  0  0
 49 50  1  0  0  0
 49 53  1  0  0  0
 49 64  1  0  0  0
 49128  1  0  0  0
 50 51  1  0  0  0
 50129  1  0  0  0
 50130  1  0  0  0
 51 52  1  0  0  0
 51131  1  0  0  0
 51132  1  0  0  0
 52133  1  0  0  0
 52134  1  0  0  0
 53 54  1  0  0  0
 54 55  2  0  0  0
 54135  1  0  0  0
 55 57  1  0  0  0
 55136  1  0  0  0
 56 69  2  0  0  0
 57 58  2  0  0  0
 57137  1  0  0  0
 58138  1  0  0  0
 59 60  1  0  0  0
 59 61  1  0  0  0
 59 62  1  0  0  0
 60139  1  0  0  0
 60140  1  0  0  0
 60141  1  0  0  0
 61142  1  0  0  0
 61143  1  0  0  0
 61144  1  0  0  0
 62145  1  0  0  0
 62146  1  0  0  0
 62147  1  0  0  0
 63 65  1  0  0  0
 63148  1  0  0  0
 63149  1  0  0  0
 63150  1  0  0  0
 64151  1  0  0  0
 65152  1  0  0  0
 68 88  1  0  0  0
 71 73  2  0  0  0
 71 74  1  0  0  0
 71153  1  0  0  0
 72 73  1  0  0  0
 72 75  2  0  0  0
 72154  1  0  0  0
 73 86  1  0  0  0
 74 76  2  0  0  0
 74 83  1  0  0  0
 75 76  1  0  0  0
 75 84  1  0  0  0
 76 85  1  0  0  0
 77 78  1  0  0  0
 77 79  1  0  0  0
 77155  1  0  0  0
 77156  1  0  0  0
 78 80  1  0  0  0
 78157  1  0  0  0
 78158  1  0  0  0
 79 81  1  0  0  0
 79159  1  0  0  0
 79160  1  0  0  0
 80 82  1  0  0  0
 80161  1  0  0  0
 80162  1  0  0  0
 81 91  1  0  0  0
 81163  1  0  0  0
 81164  1  0  0  0
 82 91  1  0  0  0
 82165  1  0  0  0
 82166  1  0  0  0
 83167  1  0  0  0
 83168  1  0  0  0
 83169  1  0  0  0
 84 90  1  0  0  0
 84170  1  0  0  0
 84171  1  0  0  0
 85172  1  0  0  0
 85173  1  0  0  0
 85 91  1  0  0  0
 86 92  1  0  0  0
 86174  1  0  0  0
 86175  1  0  0  0
 87 89  1  0  0  0
 87 92  1  0  0  0
 87176  1  0  0  0
 87177  1  0  0  0
 88 89  1  0  0  0
 88178  1  0  0  0
 88179  1  0  0  0
 89 93  1  0  0  0
 89180  1  0  0  0
 90181  1  0  0  0
 91182  1  0  0  0
 92183  1  0  0  0
 92184  1  0  0  0
M  CHG  2  91   1  92   1
M  ISO  4   1 100  68 101  88 101  90 100
M  END
> <chiral flag>
0

> <version>
0

> <s_m_source_file>
/data/baiqing/PycharmProjects/Reinvent-master-3.2/result/LINK_invent/BTK/process_docking_weight1_custom_product_contain_oxygen_bond_distance_aromatic_linkinvent_7_9_3/rearranged_h_0035.sdf

> <i_m_source_file_index>
11

> <r_mmod_Potential_Energy-OPLS-2005>
-387.545013427734

> <r_mmod_Stretch_Energy-OPLS-2005>
40.8647537231445

> <r_mmod_Bend_Energy-OPLS-2005>
108.949653625488

> <r_mmod_Torsional_Energy-OPLS-2005>
256.023101806641

> <r_mmod_Improper_Torsional_Energy-OPLS-2005>
2.95222401618958

> <r_mmod_Van_der_Waal_Energy-OPLS-2005>
149.490600585938

> <r_mmod_Electrostatic_Energy-OPLS-2005>
-72.2112121582031

> <r_mmod_Solvation_Energy-OPLS-2005>
-883.28369140625

> <b_mmod_Minimization_Converged-OPLS-2005>
0

> <r_mmod_RMS_Derivative-OPLS-2005>
1.79579710960388

$$$$
12
                    3D
 Structure written by MMmdl.
158166  0  0  1  0            999 V2000
  -30.5852  -14.7476   20.4825 C   0  0  0  0  0  0
  -30.4462  -12.4652   19.4612 C   0  0  0  0  0  0
  -29.5130  -12.5062   18.2308 C   0  0  0  0  0  0
  -28.0414  -12.3135   18.6549 C   0  0  0  0  0  0
  -27.6415  -13.2218   19.8476 C   0  0  2  0  0  0
  -28.6878  -13.1473   20.9790 C   0  0  0  0  0  0
  -25.2517  -13.8176   20.5687 C   0  0  0  0  0  0
  -24.1802  -13.0432   20.9239 C   0  0  0  0  0  0
  -24.6385  -11.6921   20.8765 C   0  0  0  0  0  0
  -23.9046  -10.4290   21.0421 C   0  0  0  0  0  0
  -24.3602   -9.4196   21.9190 C   0  0  0  0  0  0
  -23.6277   -8.2227   22.0747 C   0  0  0  0  0  0
  -22.4256   -8.0272   21.3546 C   0  0  0  0  0  0
  -21.9899   -9.0236   20.4648 C   0  0  0  0  0  0
  -22.7222  -10.2117   20.3063 C   0  0  0  0  0  0
  -21.6835   -6.0733   22.5275 C   0  0  0  0  0  0
  -21.4020   -6.5639   23.8215 C   0  0  0  0  0  0
  -21.3659   -5.6786   24.9174 C   0  0  0  0  0  0
  -21.6050   -4.3050   24.7221 C   0  0  0  0  0  0
  -21.8819   -3.8142   23.4343 C   0  0  0  0  0  0
  -21.9194   -4.6963   22.3403 C   0  0  0  0  0  0
  -22.7826  -13.5225   21.1865 C   0  0  0  0  0  0
  -22.1661   -4.2161   21.0973 F   0  0  0  0  0  0
  -21.5622   -3.4530   25.7735 F   0  0  0  0  0  0
  -29.9824  -13.5157   20.3922 N   0  0  0  0  0  0
  -26.2936  -12.9366   20.3272 N   0  0  0  0  0  0
  -25.9317  -11.6526   20.5758 N   0  0  0  0  0  0
  -22.0457  -12.8215   22.0426 N   0  0  0  0  0  0
  -25.4174  -15.1889   20.4043 N   0  0  0  0  0  0
  -31.7931  -14.8622   20.2574 O   0  0  0  0  0  0
  -21.6621   -6.8873   21.4231 O   0  0  0  0  0  0
  -22.3518  -14.5519   20.6706 O   0  0  0  0  0  0
  -24.6303  -31.8568   23.1992 C   0  0  0  0  0  0
  -25.9122  -32.4770   23.8341 C   0  0  1  0  0  0
  -27.2099  -27.2766   20.1247 C   0  0  0  0  0  0
  -25.5962  -33.8563   24.2293 N   0  0  0  0  0  0
  -23.4269  -30.4780   21.5433 C   0  0  2  0  0  0
  -24.8724  -28.9310   20.1063 C   0  0  0  0  0  0
  -22.7513  -29.4551   22.4912 C   0  0  0  0  0  0
  -18.0293  -28.1361   22.8455 C   0  0  0  0  0  0
  -24.1503  -36.7278   23.2641 C   0  0  0  0  0  0
  -25.9685  -30.7793   21.3706 C   0  0  0  0  0  0
  -26.0433  -29.4000   20.7180 C   0  0  0  0  0  0
  -27.2190  -28.5844   20.7141 C   0  0  0  0  0  0
  -26.0199  -26.8704   19.4840 C   0  0  0  0  0  0
  -24.8657  -27.6761   19.4783 C   0  0  0  0  0  0
  -23.6446  -29.8175   20.1556 C   0  0  0  0  0  0
  -25.4128  -36.3054   24.0322 C   0  0  1  0  0  0
  -20.5913  -28.3673   23.1269 C   0  0  2  0  0  0
  -20.6790  -26.9395   22.5405 C   0  0  0  0  0  0
  -19.5772  -26.6378   21.5195 C   0  0  0  0  0  0
  -18.1935  -26.7899   22.1587 C   0  0  0  0  0  0
  -19.1561  -28.8830   23.2852 C   0  0  0  0  0  0
  -18.9482  -30.1433   23.8867 C   0  0  0  0  0  0
  -17.6476  -30.6561   24.0534 C   0  0  0  0  0  0
  -25.9066  -34.9428   23.5094 C   0  0  0  0  0  0
  -16.5365  -29.9060   23.6311 C   0  0  0  0  0  0
  -16.7276  -28.6492   23.0313 C   0  0  0  0  0  0
  -26.4513  -31.6590   25.0707 C   0  0  0  0  0  0
  -25.3759  -31.3720   26.1441 C   0  0  0  0  0  0
  -27.0397  -30.3034   24.6161 C   0  0  0  0  0  0
  -27.6087  -32.4324   25.7447 C   0  0  0  0  0  0
  -27.5582  -37.1804   24.8465 C   0  0  0  0  0  0
  -21.4220  -29.3019   22.3651 N   0  0  0  0  0  0
  -26.4297  -37.3764   23.9403 N   0  0  0  0  0  0
  -24.6946  -31.0555   22.0959 N   0  0  0  0  0  0
  -23.4202  -28.8046   23.2988 O   0  0  0  0  0  0
  -28.3044  -26.3927   20.1279 O   0  0  0  0  0  0
  -26.5584  -34.8870   22.4633 O   0  0  0  0  0  0
  -23.5455  -32.1359   23.7315 O   0  0  0  0  0  0
  -30.5017  -17.5252   22.1688 C   0  0  0  0  0  0
  -29.4552  -18.4240   20.1696 C   0  0  0  0  0  0
  -30.5624  -18.8355   22.7025 C   0  0  0  0  0  0
  -29.5543  -19.7907   20.6598 C   0  0  0  0  0  0
  -29.9481  -17.2650   20.8967 C   0  0  0  0  0  0
  -30.1208  -19.9554   21.9514 C   0  0  0  0  0  0
  -31.0762  -19.0138   24.1274 C   0  0  0  0  0  0
  -29.1370  -21.0729   19.8025 C   0  0  0  0  0  0
  -28.6008  -23.6968   19.7870 C   0  0  0  0  0  0
  -28.0946  -24.9870   20.6135 C   0  0  0  0  0  0
  -30.2496  -21.2298   22.5112 N   0  0  0  0  0  0
  -29.7452  -15.8540   20.4997 N   0  0  0  0  0  0
  -28.6151  -22.3298   20.5096 N   0  3  0  0  0  0
  -31.4822  -12.6198   19.1540 H   0  0  0  0  0  0
  -30.4104  -11.4868   19.9436 H   0  0  0  0  0  0
  -29.8020  -11.7376   17.5131 H   0  0  0  0  0  0
  -29.6232  -13.4625   17.7178 H   0  0  0  0  0  0
  -27.9141  -11.2658   18.9349 H   0  0  0  0  0  0
  -27.3755  -12.4838   17.8094 H   0  0  0  0  0  0
  -27.6345  -14.2405   19.4622 H   0  0  0  0  0  0
  -28.7317  -12.1453   21.4089 H   0  0  0  0  0  0
  -28.4215  -13.8185   21.7962 H   0  0  0  0  0  0
  -25.2747   -9.5679   22.4770 H   0  0  0  0  0  0
  -23.9993   -7.4627   22.7471 H   0  0  0  0  0  0
  -21.0835   -8.8770   19.8950 H   0  0  0  0  0  0
  -22.3691  -10.9663   19.6183 H   0  0  0  0  0  0
  -21.2014   -7.6150   23.9730 H   0  0  0  0  0  0
  -21.1482   -6.0509   25.9083 H   0  0  0  0  0  0
  -22.0601   -2.7605   23.2832 H   0  0  0  0  0  0
  -22.4041  -11.9842   22.4785 H   0  0  0  0  0  0
  -21.1094  -13.1284   22.2685 H   0  0  0  0  0  0
  -24.6362  -15.8305   20.4933 H   0  0  0  0  0  0
  -26.2478  -15.6284   20.0271 H   0  0  0  0  0  0
  -26.7187  -32.5428   23.1095 H   0  0  0  0  0  0
  -25.0195  -33.9726   25.0484 H   0  0  0  0  0  0
  -22.7220  -31.2992   21.4003 H   0  0  0  0  0  0
  -23.3752  -35.9628   23.3297 H   0  0  0  0  0  0
  -24.3620  -36.8905   22.2066 H   0  0  0  0  0  0
  -23.7254  -37.6476   23.6674 H   0  0  0  0  0  0
  -26.1038  -31.5435   20.6036 H   0  0  0  0  0  0
  -26.8471  -30.8353   22.0014 H   0  0  0  0  0  0
  -28.1225  -28.9368   21.1979 H   0  0  0  0  0  0
  -25.9766  -25.9155   18.9794 H   0  0  0  0  0  0
  -23.9731  -27.3263   18.9785 H   0  0  0  0  0  0
  -23.7637  -30.5944   19.3979 H   0  0  0  0  0  0
  -22.7645  -29.2489   19.8501 H   0  0  0  0  0  0
  -25.1323  -36.1906   25.0822 H   0  0  0  0  0  0
  -21.0028  -28.3259   24.1389 H   0  0  0  0  0  0
  -20.5755  -26.2258   23.3610 H   0  0  0  0  0  0
  -21.6644  -26.7427   22.1180 H   0  0  0  0  0  0
  -19.6945  -25.6305   21.1224 H   0  0  0  0  0  0
  -19.6730  -27.3166   20.6714 H   0  0  0  0  0  0
  -17.4223  -26.6639   21.3973 H   0  0  0  0  0  0
  -18.0320  -26.0040   22.8990 H   0  0  0  0  0  0
  -19.7964  -30.7240   24.2256 H   0  0  0  0  0  0
  -17.5024  -31.6255   24.5124 H   0  0  0  0  0  0
  -15.5365  -30.2933   23.7697 H   0  0  0  0  0  0
  -15.8658  -28.0827   22.7020 H   0  0  0  0  0  0
  -24.5956  -30.7045   25.7783 H   0  0  0  0  0  0
  -24.8920  -32.2879   26.4845 H   0  0  0  0  0  0
  -25.8087  -30.8943   27.0228 H   0  0  0  0  0  0
  -26.2992  -29.6725   24.1246 H   0  0  0  0  0  0
  -27.4198  -29.7337   25.4643 H   0  0  0  0  0  0
  -27.8785  -30.4364   23.9319 H   0  0  0  0  0  0
  -27.2768  -33.3654   26.1982 H   0  0  0  0  0  0
  -28.3902  -32.6821   25.0274 H   0  0  0  0  0  0
  -28.0727  -31.8468   26.5397 H   0  0  0  0  0  0
  -28.2590  -38.0106   24.7516 H   0  0  0  0  0  0
  -28.1085  -36.2633   24.6295 H   0  0  0  0  0  0
  -27.2300  -37.1446   25.8868 H   0  0  0  0  0  0
  -20.9370  -29.8775   21.6907 H   0  0  0  0  0  0
  -26.0154  -38.2824   24.1433 H   0  0  0  0  0  0
  -30.8406  -16.6973   22.7761 H   0  0  0  0  0  0
  -29.0021  -18.2740   19.1995 H   0  0  0  0  0  0
  -31.6542  -18.1509   24.4559 H   0  0  0  0  0  0
  -30.2316  -19.1293   24.8064 H   0  0  0  0  0  0
  -31.7193  -19.8882   24.2341 H   0  0  0  0  0  0
  -28.4125  -20.7779   19.0436 H   0  0  0  0  0  0
  -30.0345  -21.3610   19.2562 H   0  0  0  0  0  0
  -29.6045  -23.9052   19.4187 H   0  0  0  0  0  0
  -27.9716  -23.5990   18.9021 H   0  0  0  0  0  0
  -27.0438  -24.8293   20.8615 H   0  0  0  0  0  0
  -28.5967  -24.9518   21.5797 H   0  0  0  0  0  0
  -30.3129  -21.1870   23.5246 H   0  0  0  0  0  0
  -31.1174  -21.6777   22.2304 H   0  0  0  0  0  0
  -28.7778  -15.6124   20.3566 H   0  0  0  0  0  0
  -27.6839  -22.1127   20.8249 H   0  0  0  0  0  0
  -29.1873  -22.3727   21.3488 H   0  0  0  0  0  0
  1 25  1  0  0  0
  1 30  2  0  0  0
  1 82  1  0  0  0
  2  3  1  0  0  0
  2 25  1  0  0  0
  2 84  1  0  0  0
  2 85  1  0  0  0
  3  4  1  0  0  0
  3 86  1  0  0  0
  3 87  1  0  0  0
  4  5  1  0  0  0
  4 88  1  0  0  0
  4 89  1  0  0  0
  5  6  1  0  0  0
  5 26  1  0  0  0
  5 90  1  0  0  0
  6 25  1  0  0  0
  6 91  1  0  0  0
  6 92  1  0  0  0
  7  8  2  0  0  0
  7 26  1  0  0  0
  7 29  1  0  0  0
  8  9  1  0  0  0
  8 22  1  0  0  0
  9 10  1  0  0  0
  9 27  2  0  0  0
 10 11  2  0  0  0
 10 15  1  0  0  0
 11 12  1  0  0  0
 11 93  1  0  0  0
 12 13  2  0  0  0
 12 94  1  0  0  0
 13 14  1  0  0  0
 13 31  1  0  0  0
 14 15  2  0  0  0
 14 95  1  0  0  0
 15 96  1  0  0  0
 16 17  2  0  0  0
 16 21  1  0  0  0
 16 31  1  0  0  0
 17 18  1  0  0  0
 17 97  1  0  0  0
 18 19  2  0  0  0
 18 98  1  0  0  0
 19 20  1  0  0  0
 19 24  1  0  0  0
 20 21  2  0  0  0
 20 99  1  0  0  0
 21 23  1  0  0  0
 22 28  1  0  0  0
 22 32  2  0  0  0
 26 27  1  0  0  0
 28100  1  0  0  0
 28101  1  0  0  0
 29102  1  0  0  0
 29103  1  0  0  0
 33 34  1  0  0  0
 33 66  1  0  0  0
 33 70  2  0  0  0
 34 36  1  0  0  0
 34 59  1  0  0  0
 34104  1  0  0  0
 35 44  2  0  0  0
 35 45  1  0  0  0
 35 68  1  0  0  0
 36 56  1  0  0  0
 36105  1  0  0  0
 37 39  1  0  0  0
 37 47  1  0  0  0
 37 66  1  0  0  0
 37106  1  0  0  0
 38 43  2  0  0  0
 38 46  1  0  0  0
 38 47  1  0  0  0
 39 64  1  0  0  0
 39 67  2  0  0  0
 40 52  1  0  0  0
 40 53  2  0  0  0
 40 58  1  0  0  0
 41107  1  0  0  0
 41108  1  0  0  0
 41109  1  0  0  0
 41 48  1  0  0  0
 42 43  1  0  0  0
 42 66  1  0  0  0
 42110  1  0  0  0
 42111  1  0  0  0
 43 44  1  0  0  0
 44112  1  0  0  0
 45 46  2  0  0  0
 45113  1  0  0  0
 46114  1  0  0  0
 47115  1  0  0  0
 47116  1  0  0  0
 48 56  1  0  0  0
 48 65  1  0  0  0
 48117  1  0  0  0
 49 50  1  0  0  0
 49 53  1  0  0  0
 49 64  1  0  0  0
 49118  1  0  0  0
 50 51  1  0  0  0
 50119  1  0  0  0
 50120  1  0  0  0
 51 52  1  0  0  0
 51121  1  0  0  0
 51122  1  0  0  0
 52123  1  0  0  0
 52124  1  0  0  0
 53 54  1  0  0  0
 54 55  2  0  0  0
 54125  1  0  0  0
 55 57  1  0  0  0
 55126  1  0  0  0
 56 69  2  0  0  0
 57 58  2  0  0  0
 57127  1  0  0  0
 58128  1  0  0  0
 59 60  1  0  0  0
 59 61  1  0  0  0
 59 62  1  0  0  0
 60129  1  0  0  0
 60130  1  0  0  0
 60131  1  0  0  0
 61132  1  0  0  0
 61133  1  0  0  0
 61134  1  0  0  0
 62135  1  0  0  0
 62136  1  0  0  0
 62137  1  0  0  0
 63 65  1  0  0  0
 63138  1  0  0  0
 63139  1  0  0  0
 63140  1  0  0  0
 64141  1  0  0  0
 65142  1  0  0  0
 68 80  1  0  0  0
 71 73  2  0  0  0
 71 75  1  0  0  0
 71143  1  0  0  0
 72 74  1  0  0  0
 72 75  2  0  0  0
 72144  1  0  0  0
 73 76  1  0  0  0
 73 77  1  0  0  0
 74 76  2  0  0  0
 74 78  1  0  0  0
 75 82  1  0  0  0
 76 81  1  0  0  0
 77145  1  0  0  0
 77146  1  0  0  0
 77147  1  0  0  0
 78 83  1  0  0  0
 78148  1  0  0  0
 78149  1  0  0  0
 79 80  1  0  0  0
 79 83  1  0  0  0
 79150  1  0  0  0
 79151  1  0  0  0
 80152  1  0  0  0
 80153  1  0  0  0
 81154  1  0  0  0
 81155  1  0  0  0
 82156  1  0  0  0
 83157  1  0  0  0
 83158  1  0  0  0
M  CHG  1  83   1
M  ISO  4   1 100  68 101  80 101  82 100
M  END
> <chiral flag>
0

> <version>
0

> <s_m_source_file>
/data/baiqing/PycharmProjects/Reinvent-master-3.2/result/LINK_invent/BTK/process_docking_weight1_custom_product_contain_oxygen_bond_distance_aromatic_linkinvent_7_9_3/rearranged_h_0035.sdf

> <i_m_source_file_index>
12

> <r_mmod_Potential_Energy-OPLS-2005>
-65.1760787963867

> <r_mmod_Stretch_Energy-OPLS-2005>
113.549728393555

> <r_mmod_Bend_Energy-OPLS-2005>
151.275939941406

> <r_mmod_Torsional_Energy-OPLS-2005>
271.856170654297

> <r_mmod_Improper_Torsional_Energy-OPLS-2005>
16.5021419525146

> <r_mmod_Van_der_Waal_Energy-OPLS-2005>
147.653274536133

> <r_mmod_Electrostatic_Energy-OPLS-2005>
-407.017517089844

> <r_mmod_Solvation_Energy-OPLS-2005>
-443.502624511719

> <b_mmod_Minimization_Converged-OPLS-2005>
0

> <r_mmod_RMS_Derivative-OPLS-2005>
4.15924978256226

$$$$
13
                    3D
 Structure written by MMmdl.
172181  0  0  1  0            999 V2000
  -30.6288  -14.7501   20.4110 C   0  0  0  0  0  0
  -30.4350  -12.4252   19.5129 C   0  0  0  0  0  0
  -29.5204  -12.4267   18.2669 C   0  0  0  0  0  0
  -28.0380  -12.3060   18.6720 C   0  0  0  0  0  0
  -27.6434  -13.2215   19.8647 C   0  0  2  0  0  0
  -28.6925  -13.1836   20.9981 C   0  0  0  0  0  0
  -25.2512  -13.8174   20.5736 C   0  0  0  0  0  0
  -24.1784  -13.0428   20.9220 C   0  0  0  0  0  0
  -24.6365  -11.6902   20.8780 C   0  0  0  0  0  0
  -23.9041  -10.4284   21.0425 C   0  0  0  0  0  0
  -24.3601   -9.4208   21.9200 C   0  0  0  0  0  0
  -23.6287   -8.2241   22.0760 C   0  0  0  0  0  0
  -22.4273   -8.0275   21.3543 C   0  0  0  0  0  0
  -21.9908   -9.0244   20.4644 C   0  0  0  0  0  0
  -22.7224  -10.2127   20.3064 C   0  0  0  0  0  0
  -21.6851   -6.0733   22.5276 C   0  0  0  0  0  0
  -21.4009   -6.5637   23.8210 C   0  0  0  0  0  0
  -21.3659   -5.6792   24.9175 C   0  0  0  0  0  0
  -21.6052   -4.3055   24.7225 C   0  0  0  0  0  0
  -21.8816   -3.8143   23.4345 C   0  0  0  0  0  0
  -21.9193   -4.6961   22.3405 C   0  0  0  0  0  0
  -22.7808  -13.5227   21.1853 C   0  0  0  0  0  0
  -22.1661   -4.2150   21.0980 F   0  0  0  0  0  0
  -21.5636   -3.4535   25.7738 F   0  0  0  0  0  0
  -29.9981  -13.5220   20.4103 N   0  0  0  0  0  0
  -26.2945  -12.9352   20.3403 N   0  0  0  0  0  0
  -25.9306  -11.6506   20.5866 N   0  0  0  0  0  0
  -22.0440  -12.8228   22.0409 N   0  0  0  0  0  0
  -25.4189  -15.1904   20.4137 N   0  0  0  0  0  0
  -31.8098  -14.8320   20.0643 O   0  0  0  0  0  0
  -21.6638   -6.8874   21.4235 O   0  0  0  0  0  0
  -22.3506  -14.5534   20.6701 O   0  0  0  0  0  0
  -24.6293  -31.8542   23.1991 C   0  0  0  0  0  0
  -25.9095  -32.4781   23.8360 C   0  0  1  0  0  0
  -27.2314  -27.2763   20.1424 C   0  0  0  0  0  0
  -25.5877  -33.8582   24.2270 N   0  0  0  0  0  0
  -23.4295  -30.4771   21.5405 C   0  0  2  0  0  0
  -24.8820  -28.9377   20.1051 C   0  0  0  0  0  0
  -22.7530  -29.4550   22.4870 C   0  0  0  0  0  0
  -18.0310  -28.1399   22.8488 C   0  0  0  0  0  0
  -24.1488  -36.7296   23.2650 C   0  0  0  0  0  0
  -25.9737  -30.7809   21.3741 C   0  0  0  0  0  0
  -26.0529  -29.4042   20.7159 C   0  0  0  0  0  0
  -27.2287  -28.5897   20.7232 C   0  0  0  0  0  0
  -26.0408  -26.8882   19.4802 C   0  0  0  0  0  0
  -24.8813  -27.6846   19.4736 C   0  0  0  0  0  0
  -23.6511  -29.8203   20.1536 C   0  0  0  0  0  0
  -25.4106  -36.3081   24.0334 C   0  0  1  0  0  0
  -20.5917  -28.3662   23.1283 C   0  0  2  0  0  0
  -20.6790  -26.9374   22.5405 C   0  0  0  0  0  0
  -19.5745  -26.6368   21.5231 C   0  0  0  0  0  0
  -18.1927  -26.7944   22.1630 C   0  0  0  0  0  0
  -19.1570  -28.8851   23.2888 C   0  0  0  0  0  0
  -18.9479  -30.1465   23.8882 C   0  0  0  0  0  0
  -17.6468  -30.6583   24.0562 C   0  0  0  0  0  0
  -25.9041  -34.9451   23.5121 C   0  0  0  0  0  0
  -16.5359  -29.9068   23.6351 C   0  0  0  0  0  0
  -16.7290  -28.6505   23.0338 C   0  0  0  0  0  0
  -26.4468  -31.6604   25.0752 C   0  0  0  0  0  0
  -25.3697  -31.3709   26.1470 C   0  0  0  0  0  0
  -27.0311  -30.3046   24.6180 C   0  0  0  0  0  0
  -27.6040  -32.4349   25.7495 C   0  0  0  0  0  0
  -27.5567  -37.1803   24.8473 C   0  0  0  0  0  0
  -21.4225  -29.2998   22.3651 N   0  0  0  0  0  0
  -26.4285  -37.3772   23.9419 N   0  0  0  0  0  0
  -24.6976  -31.0528   22.0959 N   0  0  0  0  0  0
  -23.4241  -28.8076   23.2947 O   0  0  0  0  0  0
  -28.3104  -26.3608   20.2607 O   0  0  0  0  0  0
  -26.5632  -34.8914   22.4694 O   0  0  0  0  0  0
  -23.5437  -32.1330   23.7281 O   0  0  0  0  0  0
  -29.3544  -19.6848   18.5278 C   0  0  0  0  0  0
  -29.2652  -18.4458   17.8820 C   0  0  0  0  0  0
  -29.7547  -19.7875   19.8734 C   0  0  0  0  0  0
  -29.5251  -17.2364   18.5529 C   0  0  0  0  0  0
  -29.9945  -18.5245   20.5814 C   0  0  0  0  0  0
  -29.8545  -17.2129   19.9401 C   0  0  0  0  0  0
  -26.2842  -23.3623   21.5295 C   0  0  0  0  0  0
  -27.0734  -24.6768   21.6175 C   0  0  0  0  0  0
  -26.9211  -22.1666   22.2462 C   0  0  0  0  0  0
  -29.2306  -23.7888   20.4473 C   0  0  0  0  0  0
  -28.0236  -24.8792   20.4067 C   0  0  2  0  0  0
  -28.4400  -21.9540   22.0638 C   0  0  2  0  0  0
  -29.4310  -15.9819   17.7103 C   0  0  0  0  0  0
  -30.4663  -18.5510   22.0269 C   0  0  0  0  0  0
  -29.2991  -22.5465   23.2101 C   0  0  0  0  0  0
  -30.0612  -21.2856   20.3401 C   0  0  0  0  0  0
  -29.8843  -15.8982   20.6490 N   0  0  0  0  0  0
  -28.9364  -22.2741   20.6880 N   0  3  2  0  0  0
  -31.4814  -12.5197   19.2194 H   0  0  0  0  0  0
  -30.3615  -11.4694   20.0346 H   0  0  0  0  0  0
  -29.7882  -11.5930   17.6166 H   0  0  0  0  0  0
  -29.6837  -13.3193   17.6724 H   0  0  0  0  0  0
  -27.8744  -11.2636   18.9476 H   0  0  0  0  0  0
  -27.3908  -12.4910   17.8132 H   0  0  0  0  0  0
  -27.6184  -14.2382   19.4904 H   0  0  0  0  0  0
  -28.7240  -12.1963   21.4606 H   0  0  0  0  0  0
  -28.4279  -13.8813   21.7940 H   0  0  0  0  0  0
  -25.2738   -9.5696   22.4785 H   0  0  0  0  0  0
  -23.9993   -7.4638   22.7482 H   0  0  0  0  0  0
  -21.0848   -8.8756   19.8947 H   0  0  0  0  0  0
  -22.3677  -10.9670   19.6180 H   0  0  0  0  0  0
  -21.1985   -7.6142   23.9713 H   0  0  0  0  0  0
  -21.1489   -6.0521   25.9080 H   0  0  0  0  0  0
  -22.0595   -2.7603   23.2843 H   0  0  0  0  0  0
  -22.4039  -11.9886   22.4807 H   0  0  0  0  0  0
  -21.1054  -13.1257   22.2595 H   0  0  0  0  0  0
  -24.6453  -15.8382   20.5201 H   0  0  0  0  0  0
  -26.2693  -15.6392   20.0973 H   0  0  0  0  0  0
  -26.7157  -32.5440   23.1103 H   0  0  0  0  0  0
  -25.0012  -33.9733   25.0406 H   0  0  0  0  0  0
  -22.7230  -31.2977   21.3939 H   0  0  0  0  0  0
  -23.3754  -35.9624   23.3326 H   0  0  0  0  0  0
  -24.3594  -36.8917   22.2071 H   0  0  0  0  0  0
  -23.7239  -37.6497   23.6671 H   0  0  0  0  0  0
  -26.1084  -31.5449   20.6072 H   0  0  0  0  0  0
  -26.8527  -30.8336   22.0051 H   0  0  0  0  0  0
  -28.1167  -28.9421   21.2288 H   0  0  0  0  0  0
  -25.9640  -25.9348   18.9854 H   0  0  0  0  0  0
  -23.9883  -27.3163   18.9882 H   0  0  0  0  0  0
  -23.7775  -30.6011   19.4023 H   0  0  0  0  0  0
  -22.7718  -29.2549   19.8425 H   0  0  0  0  0  0
  -25.1300  -36.1926   25.0827 H   0  0  0  0  0  0
  -21.0041  -28.3198   24.1397 H   0  0  0  0  0  0
  -20.5721  -26.2231   23.3569 H   0  0  0  0  0  0
  -21.6641  -26.7399   22.1156 H   0  0  0  0  0  0
  -19.6891  -25.6287   21.1228 H   0  0  0  0  0  0
  -19.6717  -27.3210   20.6781 H   0  0  0  0  0  0
  -17.4204  -26.6720   21.4020 H   0  0  0  0  0  0
  -18.0285  -26.0117   22.9044 H   0  0  0  0  0  0
  -19.7952  -30.7326   24.2198 H   0  0  0  0  0  0
  -17.5008  -31.6259   24.5166 H   0  0  0  0  0  0
  -15.5354  -30.2946   23.7695 H   0  0  0  0  0  0
  -15.8697  -28.0830   22.7012 H   0  0  0  0  0  0
  -24.5910  -30.7012   25.7801 H   0  0  0  0  0  0
  -24.8831  -32.2858   26.4888 H   0  0  0  0  0  0
  -25.8031  -30.8917   27.0258 H   0  0  0  0  0  0
  -26.2883  -29.6811   24.1189 H   0  0  0  0  0  0
  -27.4061  -29.7279   25.4636 H   0  0  0  0  0  0
  -27.8721  -30.4405   23.9371 H   0  0  0  0  0  0
  -27.2684  -33.3687   26.2005 H   0  0  0  0  0  0
  -28.3842  -32.6845   25.0307 H   0  0  0  0  0  0
  -28.0694  -31.8524   26.5455 H   0  0  0  0  0  0
  -28.2575  -38.0103   24.7530 H   0  0  0  0  0  0
  -28.1079  -36.2643   24.6299 H   0  0  0  0  0  0
  -27.2299  -37.1465   25.8878 H   0  0  0  0  0  0
  -20.9363  -29.8803   21.6967 H   0  0  0  0  0  0
  -26.0168  -38.2844   24.1442 H   0  0  0  0  0  0
  -29.1785  -20.5771   17.9414 H   0  0  0  0  0  0
  -29.0038  -18.4323   16.8326 H   0  0  0  0  0  0
  -26.1027  -23.1092   20.4848 H   0  0  0  0  0  0
  -25.2885  -23.5133   21.9509 H   0  0  0  0  0  0
  -27.5976  -24.7832   22.5650 H   0  0  0  0  0  0
  -26.3241  -25.4618   21.6588 H   0  0  0  0  0  0
  -26.4014  -21.2740   21.8966 H   0  0  0  0  0  0
  -26.6912  -22.2186   23.3121 H   0  0  0  0  0  0
  -29.9895  -24.1208   21.1544 H   0  0  0  0  0  0
  -29.7225  -23.8617   19.4777 H   0  0  0  0  0  0
  -27.4812  -24.6129   19.5018 H   0  0  0  0  0  0
  -28.5481  -20.8755   22.1923 H   0  0  0  0  0  0
  -29.2365  -16.2038   16.6613 H   0  0  0  0  0  0
  -28.6175  -15.3527   18.0491 H   0  0  0  0  0  0
  -30.3699  -15.4336   17.7451 H   0  0  0  0  0  0
  -31.3225  -17.8885   22.1532 H   0  0  0  0  0  0
  -29.6729  -18.2218   22.6955 H   0  0  0  0  0  0
  -30.7924  -19.5355   22.3524 H   0  0  0  0  0  0
  -29.3215  -23.6341   23.2281 H   0  0  0  0  0  0
  -30.3330  -22.2045   23.1598 H   0  0  0  0  0  0
  -28.9239  -22.2225   24.1799 H   0  0  0  0  0  0
  -30.6052  -21.7264   19.5053 H   0  0  0  0  0  0
  -30.8033  -21.2876   21.1340 H   0  0  0  0  0  0
  -29.0309  -15.6983   21.1470 H   0  0  0  0  0  0
  -28.1928  -22.0281   20.0511 H   0  0  0  0  0  0
  1 25  1  0  0  0
  1 30  2  0  0  0
  1 87  1  0  0  0
  2  3  1  0  0  0
  2 25  1  0  0  0
  2 89  1  0  0  0
  2 90  1  0  0  0
  3  4  1  0  0  0
  3 91  1  0  0  0
  3 92  1  0  0  0
  4  5  1  0  0  0
  4 93  1  0  0  0
  4 94  1  0  0  0
  5  6  1  0  0  0
  5 26  1  0  0  0
  5 95  1  0  0  0
  6 25  1  0  0  0
  6 96  1  0  0  0
  6 97  1  0  0  0
  7  8  2  0  0  0
  7 26  1  0  0  0
  7 29  1  0  0  0
  8  9  1  0  0  0
  8 22  1  0  0  0
  9 10  1  0  0  0
  9 27  2  0  0  0
 10 11  2  0  0  0
 10 15  1  0  0  0
 11 12  1  0  0  0
 11 98  1  0  0  0
 12 13  2  0  0  0
 12 99  1  0  0  0
 13 14  1  0  0  0
 13 31  1  0  0  0
 14 15  2  0  0  0
 14100  1  0  0  0
 15101  1  0  0  0
 16 17  2  0  0  0
 16 21  1  0  0  0
 16 31  1  0  0  0
 17 18  1  0  0  0
 17102  1  0  0  0
 18 19  2  0  0  0
 18103  1  0  0  0
 19 20  1  0  0  0
 19 24  1  0  0  0
 20 21  2  0  0  0
 20104  1  0  0  0
 21 23  1  0  0  0
 22 28  1  0  0  0
 22 32  2  0  0  0
 26 27  1  0  0  0
 28105  1  0  0  0
 28106  1  0  0  0
 29107  1  0  0  0
 29108  1  0  0  0
 33 34  1  0  0  0
 33 66  1  0  0  0
 33 70  2  0  0  0
 34 36  1  0  0  0
 34 59  1  0  0  0
 34109  1  0  0  0
 35 44  2  0  0  0
 35 45  1  0  0  0
 35 68  1  0  0  0
 36 56  1  0  0  0
 36110  1  0  0  0
 37 39  1  0  0  0
 37 47  1  0  0  0
 37 66  1  0  0  0
 37111  1  0  0  0
 38 43  2  0  0  0
 38 46  1  0  0  0
 38 47  1  0  0  0
 39 64  1  0  0  0
 39 67  2  0  0  0
 40 52  1  0  0  0
 40 53  2  0  0  0
 40 58  1  0  0  0
 41112  1  0  0  0
 41113  1  0  0  0
 41114  1  0  0  0
 41 48  1  0  0  0
 42 43  1  0  0  0
 42 66  1  0  0  0
 42115  1  0  0  0
 42116  1  0  0  0
 43 44  1  0  0  0
 44117  1  0  0  0
 45 46  2  0  0  0
 45118  1  0  0  0
 46119  1  0  0  0
 47120  1  0  0  0
 47121  1  0  0  0
 48 56  1  0  0  0
 48 65  1  0  0  0
 48122  1  0  0  0
 49 50  1  0  0  0
 49 53  1  0  0  0
 49 64  1  0  0  0
 49123  1  0  0  0
 50 51  1  0  0  0
 50124  1  0  0  0
 50125  1  0  0  0
 51 52  1  0  0  0
 51126  1  0  0  0
 51127  1  0  0  0
 52128  1  0  0  0
 52129  1  0  0  0
 53 54  1  0  0  0
 54 55  2  0  0  0
 54130  1  0  0  0
 55 57  1  0  0  0
 55131  1  0  0  0
 56 69  2  0  0  0
 57 58  2  0  0  0
 57132  1  0  0  0
 58133  1  0  0  0
 59 60  1  0  0  0
 59 61  1  0  0  0
 59 62  1  0  0  0
 60134  1  0  0  0
 60135  1  0  0  0
 60136  1  0  0  0
 61137  1  0  0  0
 61138  1  0  0  0
 61139  1  0  0  0
 62140  1  0  0  0
 62141  1  0  0  0
 62142  1  0  0  0
 63 65  1  0  0  0
 63143  1  0  0  0
 63144  1  0  0  0
 63145  1  0  0  0
 64146  1  0  0  0
 65147  1  0  0  0
 68 81  1  0  0  0
 71 72  2  0  0  0
 71 73  1  0  0  0
 71148  1  0  0  0
 72 74  1  0  0  0
 72149  1  0  0  0
 73 75  2  0  0  0
 73 86  1  0  0  0
 74 76  2  0  0  0
 74 83  1  0  0  0
 75 76  1  0  0  0
 75 84  1  0  0  0
 76 87  1  0  0  0
 77 78  1  0  0  0
 77 79  1  0  0  0
 77150  1  0  0  0
 77151  1  0  0  0
 78 81  1  0  0  0
 78152  1  0  0  0
 78153  1  0  0  0
 79 82  1  0  0  0
 79154  1  0  0  0
 79155  1  0  0  0
 80 81  1  0  0  0
 80 88  1  0  0  0
 80156  1  0  0  0
 80157  1  0  0  0
 81158  1  0  0  0
 82 85  1  0  0  0
 82 88  1  0  0  0
 82159  1  0  0  0
 83160  1  0  0  0
 83161  1  0  0  0
 83162  1  0  0  0
 84163  1  0  0  0
 84164  1  0  0  0
 84165  1  0  0  0
 85166  1  0  0  0
 85167  1  0  0  0
 85168  1  0  0  0
 86169  1  0  0  0
 86170  1  0  0  0
 86 88  1  0  0  0
 87171  1  0  0  0
 88172  1  0  0  0
M  CHG  1  88   1
M  ISO  4   1 100  68 101  81 101  87 100
M  END
> <chiral flag>
0

> <version>
0

> <s_m_source_file>
/data/baiqing/PycharmProjects/Reinvent-master-3.2/result/LINK_invent/BTK/process_docking_weight1_custom_product_contain_oxygen_bond_distance_aromatic_linkinvent_7_9_3/rearranged_h_0035.sdf

> <i_m_source_file_index>
13

> <r_mmod_Potential_Energy-OPLS-2005>
186.169479370117

> <r_mmod_Stretch_Energy-OPLS-2005>
140.600219726562

> <r_mmod_Bend_Energy-OPLS-2005>
193.028366088867

> <r_mmod_Torsional_Energy-OPLS-2005>
309.775665283203

> <r_mmod_Improper_Torsional_Energy-OPLS-2005>
6.26325225830078

> <r_mmod_Van_der_Waal_Energy-OPLS-2005>
152.303634643555

> <r_mmod_Electrostatic_Energy-OPLS-2005>
-291.481536865234

> <r_mmod_Solvation_Energy-OPLS-2005>
-414.799713134766

> <b_mmod_Minimization_Converged-OPLS-2005>
0

> <r_mmod_RMS_Derivative-OPLS-2005>
3.33226919174194

$$$$
14
                    3D
 Structure written by MMmdl.
177186  0  0  1  0            999 V2000
  -30.7415  -14.3619   20.6887 C   0  0  0  0  0  0
  -30.4305  -12.2865   19.3946 C   0  0  0  0  0  0
  -29.4908  -12.5375   18.1979 C   0  0  0  0  0  0
  -28.0118  -12.3929   18.6090 C   0  0  0  0  0  0
  -27.6736  -13.1962   19.8914 C   0  0  2  0  0  0
  -28.7114  -12.9031   20.9985 C   0  0  0  0  0  0
  -25.2636  -13.8119   20.5688 C   0  0  0  0  0  0
  -24.1859  -13.0425   20.9158 C   0  0  0  0  0  0
  -24.6402  -11.6889   20.8751 C   0  0  0  0  0  0
  -23.9047  -10.4282   21.0426 C   0  0  0  0  0  0
  -24.3603   -9.4191   21.9205 C   0  0  0  0  0  0
  -23.6281   -8.2221   22.0764 C   0  0  0  0  0  0
  -22.4261   -8.0256   21.3542 C   0  0  0  0  0  0
  -21.9901   -9.0234   20.4655 C   0  0  0  0  0  0
  -22.7216  -10.2135   20.3075 C   0  0  0  0  0  0
  -21.6846   -6.0718   22.5274 C   0  0  0  0  0  0
  -21.4005   -6.5630   23.8210 C   0  0  0  0  0  0
  -21.3663   -5.6785   24.9176 C   0  0  0  0  0  0
  -21.6053   -4.3046   24.7237 C   0  0  0  0  0  0
  -21.8808   -3.8134   23.4362 C   0  0  0  0  0  0
  -21.9188   -4.6950   22.3411 C   0  0  0  0  0  0
  -22.7886  -13.5252   21.1841 C   0  0  0  0  0  0
  -22.1668   -4.2129   21.0994 F   0  0  0  0  0  0
  -21.5644   -3.4527   25.7754 F   0  0  0  0  0  0
  -30.0620  -13.2044   20.4786 N   0  0  0  0  0  0
  -26.3091  -12.9284   20.3460 N   0  0  0  0  0  0
  -25.9334  -11.6448   20.5809 N   0  0  0  0  0  0
  -22.0513  -12.8266   22.0423 N   0  0  0  0  0  0
  -25.4383  -15.1833   20.4156 N   0  0  0  0  0  0
  -31.7330  -14.7075   20.0352 O   0  0  0  0  0  0
  -21.6619   -6.8857   21.4241 O   0  0  0  0  0  0
  -22.3582  -14.5541   20.6683 O   0  0  0  0  0  0
  -24.6087  -31.8710   23.2125 C   0  0  0  0  0  0
  -25.9002  -32.4841   23.8412 C   0  0  1  0  0  0
  -27.2634  -27.4791   20.0881 C   0  0  0  0  0  0
  -25.5893  -33.8637   24.2371 N   0  0  0  0  0  0
  -23.3965  -30.4923   21.5503 C   0  0  2  0  0  0
  -24.8471  -28.9587   20.1166 C   0  0  0  0  0  0
  -22.7404  -29.4667   22.5008 C   0  0  0  0  0  0
  -18.0297  -28.1355   22.8485 C   0  0  0  0  0  0
  -24.1484  -36.7311   23.2639 C   0  0  0  0  0  0
  -25.9182  -30.8473   21.3603 C   0  0  0  0  0  0
  -25.9978  -29.4827   20.7128 C   0  0  0  0  0  0
  -27.1993  -28.7472   20.7009 C   0  0  0  0  0  0
  -26.0901  -26.9562   19.4897 C   0  0  0  0  0  0
  -24.8861  -27.6915   19.5059 C   0  0  0  0  0  0
  -23.6035  -29.8177   20.1675 C   0  0  0  0  0  0
  -25.4101  -36.3123   24.0352 C   0  0  1  0  0  0
  -20.5872  -28.3674   23.1365 C   0  0  2  0  0  0
  -20.6804  -26.9398   22.5499 C   0  0  0  0  0  0
  -19.5823  -26.6328   21.5275 C   0  0  0  0  0  0
  -18.1976  -26.7889   22.1621 C   0  0  0  0  0  0
  -19.1530  -28.8826   23.2904 C   0  0  0  0  0  0
  -18.9427  -30.1440   23.8900 C   0  0  0  0  0  0
  -17.6422  -30.6575   24.0512 C   0  0  0  0  0  0
  -25.9036  -34.9489   23.5162 C   0  0  0  0  0  0
  -16.5328  -29.9050   23.6274 C   0  0  0  0  0  0
  -16.7273  -28.6449   23.0329 C   0  0  0  0  0  0
  -26.4462  -31.6598   25.0715 C   0  0  0  0  0  0
  -25.3745  -31.3682   26.1479 C   0  0  0  0  0  0
  -27.0310  -30.3059   24.6050 C   0  0  0  0  0  0
  -27.6075  -32.4298   25.7443 C   0  0  0  0  0  0
  -27.5581  -37.1799   24.8470 C   0  0  0  0  0  0
  -21.4140  -29.3027   22.3755 N   0  0  0  0  0  0
  -26.4297  -37.3790   23.9418 N   0  0  0  0  0  0
  -24.6581  -31.0854   22.0997 N   0  0  0  0  0  0
  -23.4203  -28.8231   23.3055 O   0  0  0  0  0  0
  -28.4943  -26.8563   20.1123 O   0  0  0  0  0  0
  -26.5592  -34.8919   22.4723 O   0  0  0  0  0  0
  -23.5291  -32.1447   23.7539 O   0  0  0  0  0  0
  -29.6879  -17.1592   20.5157 C   0  0  0  0  0  0
  -27.5495  -17.5543   22.3173 C   0  0  0  0  0  0
  -28.4761  -16.4973   22.5338 C   0  0  0  0  0  0
  -27.6935  -18.4104   21.1880 C   0  0  0  0  0  0
  -29.5104  -16.2626   21.5922 C   0  0  0  0  0  0
  -28.7938  -18.2264   20.3141 C   0  0  0  0  0  0
  -25.0005  -21.9758   23.0938 C   0  0  0  0  0  0
  -25.4676  -23.2616   22.4168 C   0  0  0  0  0  0
  -25.1095  -20.8133   22.1031 C   0  0  0  0  0  0
  -27.0647  -21.7863   21.0700 C   0  0  0  0  0  0
  -26.9053  -23.1057   21.8854 C   0  0  1  0  0  0
  -26.3616  -17.7459   23.2610 C   0  0  0  0  0  0
  -28.3231  -15.5893   23.7538 C   0  0  0  0  0  0
  -30.1697  -25.6068   19.0287 C   0  0  0  0  0  0
  -26.6011  -19.4308   20.8513 C   0  0  0  0  0  0
  -28.6058  -24.5057   20.6651 C   0  0  0  0  0  0
  -28.7317  -25.5682   19.5556 C   0  0  1  0  0  0
  -26.5155  -20.5979   21.7448 N   0  0  0  0  0  0
  -30.2953  -15.0840   21.7232 N   0  0  0  0  0  0
  -27.1970  -24.2906   21.0517 N   0  3  0  0  0  0
  -29.0519  -19.2500   18.9432 Cl  0  0  0  0  0  0
  -31.4715  -12.4053   19.0899 H   0  0  0  0  0  0
  -30.3418  -11.2554   19.7395 H   0  0  0  0  0  0
  -29.7241  -11.8448   17.3895 H   0  0  0  0  0  0
  -29.6614  -13.5391   17.8011 H   0  0  0  0  0  0
  -27.8103  -11.3343   18.7727 H   0  0  0  0  0  0
  -27.3635  -12.7039   17.7870 H   0  0  0  0  0  0
  -27.7404  -14.2549   19.6425 H   0  0  0  0  0  0
  -28.6673  -11.8510   21.2851 H   0  0  0  0  0  0
  -28.4510  -13.4455   21.9068 H   0  0  0  0  0  0
  -25.2758   -9.5666   22.4767 H   0  0  0  0  0  0
  -23.9980   -7.4628   22.7498 H   0  0  0  0  0  0
  -21.0825   -8.8772   19.8969 H   0  0  0  0  0  0
  -22.3680  -10.9685   19.6182 H   0  0  0  0  0  0
  -21.1985   -7.6130   23.9701 H   0  0  0  0  0  0
  -21.1517   -6.0533   25.9081 H   0  0  0  0  0  0
  -22.0584   -2.7587   23.2891 H   0  0  0  0  0  0
  -22.4071  -11.9924   22.4830 H   0  0  0  0  0  0
  -21.1140  -13.1349   22.2577 H   0  0  0  0  0  0
  -24.6840  -15.8423   20.5620 H   0  0  0  0  0  0
  -26.3211  -15.6279   20.2027 H   0  0  0  0  0  0
  -26.7069  -32.5588   23.1178 H   0  0  0  0  0  0
  -25.0056  -33.9802   25.0524 H   0  0  0  0  0  0
  -22.6779  -31.3033   21.4126 H   0  0  0  0  0  0
  -23.3744  -35.9646   23.3325 H   0  0  0  0  0  0
  -24.3587  -36.8893   22.2049 H   0  0  0  0  0  0
  -23.7229  -37.6522   23.6633 H   0  0  0  0  0  0
  -26.0284  -31.6128   20.5916 H   0  0  0  0  0  0
  -26.8064  -30.9053   21.9765 H   0  0  0  0  0  0
  -28.0891  -29.1621   21.1529 H   0  0  0  0  0  0
  -26.0727  -25.9988   18.9942 H   0  0  0  0  0  0
  -24.0005  -27.2863   19.0369 H   0  0  0  0  0  0
  -23.6974  -30.5891   19.4021 H   0  0  0  0  0  0
  -22.7321  -29.2273   19.8819 H   0  0  0  0  0  0
  -25.1258  -36.2006   25.0840 H   0  0  0  0  0  0
  -20.9920  -28.3283   24.1507 H   0  0  0  0  0  0
  -20.5716  -26.2275   23.3699 H   0  0  0  0  0  0
  -21.6673  -26.7436   22.1306 H   0  0  0  0  0  0
  -19.6991  -25.6208   21.1383 H   0  0  0  0  0  0
  -19.6809  -27.3113   20.6785 H   0  0  0  0  0  0
  -17.4287  -26.6628   21.3982 H   0  0  0  0  0  0
  -18.0336  -26.0021   22.9011 H   0  0  0  0  0  0
  -19.7898  -30.7270   24.2269 H   0  0  0  0  0  0
  -17.4953  -31.6279   24.5063 H   0  0  0  0  0  0
  -15.5317  -30.2936   23.7551 H   0  0  0  0  0  0
  -15.8685  -28.0745   22.7043 H   0  0  0  0  0  0
  -24.5893  -30.7063   25.7796 H   0  0  0  0  0  0
  -24.8955  -32.2834   26.4971 H   0  0  0  0  0  0
  -25.8091  -30.8796   27.0211 H   0  0  0  0  0  0
  -26.2844  -29.6793   24.1152 H   0  0  0  0  0  0
  -27.4180  -29.7309   25.4474 H   0  0  0  0  0  0
  -27.8633  -30.4418   23.9139 H   0  0  0  0  0  0
  -27.2736  -33.3573   26.2098 H   0  0  0  0  0  0
  -28.3823  -32.6895   25.0219 H   0  0  0  0  0  0
  -28.0831  -31.8383   26.5274 H   0  0  0  0  0  0
  -28.2609  -38.0081   24.7511 H   0  0  0  0  0  0
  -28.1062  -36.2621   24.6302 H   0  0  0  0  0  0
  -27.2315  -37.1460   25.8874 H   0  0  0  0  0  0
  -20.9302  -29.8696   21.6926 H   0  0  0  0  0  0
  -26.0203  -38.2881   24.1385 H   0  0  0  0  0  0
  -30.4861  -17.0165   19.8019 H   0  0  0  0  0  0
  -23.9662  -22.0891   23.4190 H   0  0  0  0  0  0
  -25.5916  -21.7755   23.9887 H   0  0  0  0  0  0
  -25.3977  -24.1004   23.1109 H   0  0  0  0  0  0
  -24.7847  -23.4842   21.5954 H   0  0  0  0  0  0
  -24.5094  -21.0072   21.2111 H   0  0  0  0  0  0
  -24.6986  -19.9173   22.5717 H   0  0  0  0  0  0
  -28.1197  -21.6068   20.8550 H   0  0  0  0  0  0
  -26.5688  -21.9097   20.1063 H   0  0  0  0  0  0
  -27.5901  -23.0882   22.7362 H   0  0  0  0  0  0
  -26.2397  -16.9676   24.0093 H   0  0  0  0  0  0
  -25.4253  -17.7507   22.7056 H   0  0  0  0  0  0
  -26.4528  -18.6932   23.7932 H   0  0  0  0  0  0
  -28.2224  -16.1878   24.6582 H   0  0  0  0  0  0
  -29.1717  -14.9336   23.9339 H   0  0  0  0  0  0
  -27.4352  -14.9645   23.6514 H   0  0  0  0  0  0
  -30.8842  -25.7720   19.8362 H   0  0  0  0  0  0
  -30.3027  -26.4035   18.2994 H   0  0  0  0  0  0
  -30.4317  -24.6682   18.5416 H   0  0  0  0  0  0
  -25.6638  -18.8760   20.8610 H   0  0  0  0  0  0
  -26.6746  -19.7454   19.8110 H   0  0  0  0  0  0
  -29.1903  -24.7925   21.5407 H   0  0  0  0  0  0
  -29.0378  -23.5755   20.2979 H   0  0  0  0  0  0
  -28.0852  -25.3465   18.7082 H   0  0  0  0  0  0
  -29.9389  -14.4825   22.4496 H   0  0  0  0  0  0
  -26.8948  -25.1088   21.5598 H   0  0  0  0  0  0
  -26.6364  -24.2218   20.2178 H   0  0  0  0  0  0
  1 25  1  0  0  0
  1 30  2  0  0  0
  1 89  1  0  0  0
  2  3  1  0  0  0
  2 25  1  0  0  0
  2 92  1  0  0  0
  2 93  1  0  0  0
  3  4  1  0  0  0
  3 94  1  0  0  0
  3 95  1  0  0  0
  4  5  1  0  0  0
  4 96  1  0  0  0
  4 97  1  0  0  0
  5  6  1  0  0  0
  5 26  1  0  0  0
  5 98  1  0  0  0
  6 25  1  0  0  0
  6 99  1  0  0  0
  6100  1  0  0  0
  7  8  2  0  0  0
  7 26  1  0  0  0
  7 29  1  0  0  0
  8  9  1  0  0  0
  8 22  1  0  0  0
  9 10  1  0  0  0
  9 27  2  0  0  0
 10 11  2  0  0  0
 10 15  1  0  0  0
 11 12  1  0  0  0
 11101  1  0  0  0
 12 13  2  0  0  0
 12102  1  0  0  0
 13 14  1  0  0  0
 13 31  1  0  0  0
 14 15  2  0  0  0
 14103  1  0  0  0
 15104  1  0  0  0
 16 17  2  0  0  0
 16 21  1  0  0  0
 16 31  1  0  0  0
 17 18  1  0  0  0
 17105  1  0  0  0
 18 19  2  0  0  0
 18106  1  0  0  0
 19 20  1  0  0  0
 19 24  1  0  0  0
 20 21  2  0  0  0
 20107  1  0  0  0
 21 23  1  0  0  0
 22 28  1  0  0  0
 22 32  2  0  0  0
 26 27  1  0  0  0
 28108  1  0  0  0
 28109  1  0  0  0
 29110  1  0  0  0
 29111  1  0  0  0
 33 34  1  0  0  0
 33 66  1  0  0  0
 33 70  2  0  0  0
 34 36  1  0  0  0
 34 59  1  0  0  0
 34112  1  0  0  0
 35 44  2  0  0  0
 35 45  1  0  0  0
 35 68  1  0  0  0
 36 56  1  0  0  0
 36113  1  0  0  0
 37 39  1  0  0  0
 37 47  1  0  0  0
 37 66  1  0  0  0
 37114  1  0  0  0
 38 43  2  0  0  0
 38 46  1  0  0  0
 38 47  1  0  0  0
 39 64  1  0  0  0
 39 67  2  0  0  0
 40 52  1  0  0  0
 40 53  2  0  0  0
 40 58  1  0  0  0
 41115  1  0  0  0
 41116  1  0  0  0
 41117  1  0  0  0
 41 48  1  0  0  0
 42 43  1  0  0  0
 42 66  1  0  0  0
 42118  1  0  0  0
 42119  1  0  0  0
 43 44  1  0  0  0
 44120  1  0  0  0
 45 46  2  0  0  0
 45121  1  0  0  0
 46122  1  0  0  0
 47123  1  0  0  0
 47124  1  0  0  0
 48 56  1  0  0  0
 48 65  1  0  0  0
 48125  1  0  0  0
 49 50  1  0  0  0
 49 53  1  0  0  0
 49 64  1  0  0  0
 49126  1  0  0  0
 50 51  1  0  0  0
 50127  1  0  0  0
 50128  1  0  0  0
 51 52  1  0  0  0
 51129  1  0  0  0
 51130  1  0  0  0
 52131  1  0  0  0
 52132  1  0  0  0
 53 54  1  0  0  0
 54 55  2  0  0  0
 54133  1  0  0  0
 55 57  1  0  0  0
 55134  1  0  0  0
 56 69  2  0  0  0
 57 58  2  0  0  0
 57135  1  0  0  0
 58136  1  0  0  0
 59 60  1  0  0  0
 59 61  1  0  0  0
 59 62  1  0  0  0
 60137  1  0  0  0
 60138  1  0  0  0
 60139  1  0  0  0
 61140  1  0  0  0
 61141  1  0  0  0
 61142  1  0  0  0
 62143  1  0  0  0
 62144  1  0  0  0
 62145  1  0  0  0
 63 65  1  0  0  0
 63146  1  0  0  0
 63147  1  0  0  0
 63148  1  0  0  0
 64149  1  0  0  0
 65150  1  0  0  0
 68 87  1  0  0  0
 71 75  2  0  0  0
 71 76  1  0  0  0
 71151  1  0  0  0
 72 73  2  0  0  0
 72 74  1  0  0  0
 72 82  1  0  0  0
 73 75  1  0  0  0
 73 83  1  0  0  0
 74 76  2  0  0  0
 74 85  1  0  0  0
 75 89  1  0  0  0
 76 91  1  0  0  0
 77 78  1  0  0  0
 77 79  1  0  0  0
 77152  1  0  0  0
 77153  1  0  0  0
 78 81  1  0  0  0
 78154  1  0  0  0
 78155  1  0  0  0
 79 88  1  0  0  0
 79156  1  0  0  0
 79157  1  0  0  0
 80 81  1  0  0  0
 80 88  1  0  0  0
 80158  1  0  0  0
 80159  1  0  0  0
 81 90  1  0  0  0
 81160  1  0  0  0
 82161  1  0  0  0
 82162  1  0  0  0
 82163  1  0  0  0
 83164  1  0  0  0
 83165  1  0  0  0
 83166  1  0  0  0
 84167  1  0  0  0
 84168  1  0  0  0
 84169  1  0  0  0
 84 87  1  0  0  0
 85 88  1  0  0  0
 85170  1  0  0  0
 85171  1  0  0  0
 86 87  1  0  0  0
 86 90  1  0  0  0
 86172  1  0  0  0
 86173  1  0  0  0
 87174  1  0  0  0
 89175  1  0  0  0
 90176  1  0  0  0
 90177  1  0  0  0
M  CHG  1  90   1
M  ISO  4   1 100  68 101  87 101  89 100
M  END
> <chiral flag>
0

> <version>
0

> <s_m_source_file>
/data/baiqing/PycharmProjects/Reinvent-master-3.2/result/LINK_invent/BTK/process_docking_weight1_custom_product_contain_oxygen_bond_distance_aromatic_linkinvent_7_9_3/rearranged_h_0035.sdf

> <i_m_source_file_index>
14

> <r_mmod_Potential_Energy-OPLS-2005>
-60.5907974243164

> <r_mmod_Stretch_Energy-OPLS-2005>
39.5441741943359

> <r_mmod_Bend_Energy-OPLS-2005>
121.395606994629

> <r_mmod_Torsional_Energy-OPLS-2005>
296.710144042969

> <r_mmod_Improper_Torsional_Energy-OPLS-2005>
6.77241468429565

> <r_mmod_Van_der_Waal_Energy-OPLS-2005>
160.440093994141

> <r_mmod_Electrostatic_Energy-OPLS-2005>
-282.766357421875

> <r_mmod_Solvation_Energy-OPLS-2005>
-412.933227539062

> <b_mmod_Minimization_Converged-OPLS-2005>
0

> <r_mmod_RMS_Derivative-OPLS-2005>
3.2308566570282

$$$$
15
                    3D
 Structure written by MMmdl.
172181  0  0  1  0            999 V2000
  -30.7431  -14.6006   20.4482 C   0  0  0  0  0  0
  -30.4564  -12.3547   19.4371 C   0  0  0  0  0  0
  -29.5153  -12.4597   18.2179 C   0  0  0  0  0  0
  -28.0377  -12.3380   18.6401 C   0  0  0  0  0  0
  -27.6730  -13.2224   19.8600 C   0  0  2  0  0  0
  -28.7442  -13.0996   20.9758 C   0  0  0  0  0  0
  -25.2658  -13.8197   20.5740 C   0  0  0  0  0  0
  -24.1911  -13.0511   20.9221 C   0  0  0  0  0  0
  -24.6455  -11.6950   20.8773 C   0  0  0  0  0  0
  -23.9072  -10.4341   21.0421 C   0  0  0  0  0  0
  -24.3601   -9.4238   21.9183 C   0  0  0  0  0  0
  -23.6291   -8.2285   22.0749 C   0  0  0  0  0  0
  -22.4265   -8.0307   21.3561 C   0  0  0  0  0  0
  -21.9913   -9.0272   20.4663 C   0  0  0  0  0  0
  -22.7250  -10.2152   20.3085 C   0  0  0  0  0  0
  -21.6853   -6.0736   22.5275 C   0  0  0  0  0  0
  -21.4023   -6.5632   23.8212 C   0  0  0  0  0  0
  -21.3662   -5.6773   24.9154 C   0  0  0  0  0  0
  -21.6019   -4.3031   24.7198 C   0  0  0  0  0  0
  -21.8816   -3.8143   23.4326 C   0  0  0  0  0  0
  -21.9210   -4.6970   22.3390 C   0  0  0  0  0  0
  -22.7879  -13.5276   21.1811 C   0  0  0  0  0  0
  -22.1658   -4.2145   21.0963 F   0  0  0  0  0  0
  -21.5653   -3.4532   25.7710 F   0  0  0  0  0  0
  -30.0614  -13.4090   20.3884 N   0  0  0  0  0  0
  -26.3137  -12.9425   20.3363 N   0  0  0  0  0  0
  -25.9400  -11.6589   20.5832 N   0  0  0  0  0  0
  -22.0441  -12.8369   22.0361 N   0  0  0  0  0  0
  -25.4369  -15.1939   20.4099 N   0  0  0  0  0  0
  -31.9332  -14.6609   20.1654 O   0  0  0  0  0  0
  -21.6665   -6.8883   21.4247 O   0  0  0  0  0  0
  -22.3586  -14.5559   20.6542 O   0  0  0  0  0  0
  -24.6199  -31.8558   23.2052 C   0  0  0  0  0  0
  -25.9042  -32.4766   23.8398 C   0  0  1  0  0  0
  -27.2835  -27.3574   20.1057 C   0  0  0  0  0  0
  -25.5818  -33.8586   24.2292 N   0  0  0  0  0  0
  -23.4153  -30.4717   21.5461 C   0  0  2  0  0  0
  -24.8779  -28.9122   20.1229 C   0  0  0  0  0  0
  -22.7422  -29.4601   22.5030 C   0  0  0  0  0  0
  -18.0271  -28.1403   22.8503 C   0  0  0  0  0  0
  -24.1457  -36.7302   23.2657 C   0  0  0  0  0  0
  -25.9527  -30.7925   21.3751 C   0  0  0  0  0  0
  -26.0375  -29.4201   20.7209 C   0  0  0  0  0  0
  -27.2358  -28.6546   20.7012 C   0  0  0  0  0  0
  -26.0953  -26.8758   19.5090 C   0  0  0  0  0  0
  -24.9056  -27.6432   19.5127 C   0  0  0  0  0  0
  -23.6326  -29.7817   20.1704 C   0  0  0  0  0  0
  -25.4082  -36.3092   24.0353 C   0  0  1  0  0  0
  -20.5852  -28.3654   23.1312 C   0  0  2  0  0  0
  -20.6768  -26.9399   22.5419 C   0  0  0  0  0  0
  -19.5741  -26.6405   21.5225 C   0  0  0  0  0  0
  -18.1912  -26.7939   22.1643 C   0  0  0  0  0  0
  -19.1527  -28.8858   23.2898 C   0  0  0  0  0  0
  -18.9473  -30.1483   23.8882 C   0  0  0  0  0  0
  -17.6469  -30.6596   24.0583 C   0  0  0  0  0  0
  -25.9004  -34.9446   23.5122 C   0  0  0  0  0  0
  -16.5351  -29.9091   23.6376 C   0  0  0  0  0  0
  -16.7254  -28.6528   23.0342 C   0  0  0  0  0  0
  -26.4450  -31.6586   25.0746 C   0  0  0  0  0  0
  -25.3777  -31.3817   26.1603 C   0  0  0  0  0  0
  -27.0226  -30.2981   24.6154 C   0  0  0  0  0  0
  -27.6026  -32.4347   25.7434 C   0  0  0  0  0  0
  -27.5563  -37.1793   24.8459 C   0  0  0  0  0  0
  -21.4143  -29.2986   22.3723 N   0  0  0  0  0  0
  -26.4270  -37.3767   23.9415 N   0  0  0  0  0  0
  -24.6800  -31.0580   22.1001 N   0  0  0  0  0  0
  -23.4145  -28.8221   23.3172 O   0  0  0  0  0  0
  -28.4937  -26.6521   20.0007 O   0  0  0  0  0  0
  -26.5609  -34.8885   22.4718 O   0  0  0  0  0  0
  -23.5364  -32.1346   23.7414 O   0  0  0  0  0  0
  -30.7972  -19.3391   19.4922 C   0  0  0  0  0  0
  -29.6073  -20.0175   19.8896 C   0  0  0  0  0  0
  -31.0046  -17.9382   19.7252 C   0  0  0  0  0  0
  -28.6715  -19.2300   20.6285 C   0  0  0  0  0  0
  -28.9548  -17.8807   21.0160 C   0  0  0  0  0  0
  -30.0580  -17.1623   20.4732 C   0  0  0  0  0  0
  -27.8290  -24.8407   21.6595 C   0  0  0  0  0  0
  -27.8257  -23.3121   21.8385 C   0  0  0  0  0  0
  -29.1876  -24.0801   19.5271 C   0  0  0  0  0  0
  -28.7460  -25.2803   20.5039 C   0  0  2  0  0  0
  -29.2126  -22.6546   21.6073 C   0  0  2  0  0  0
  -32.2498  -17.3168   19.1174 C   0  0  0  0  0  0
  -27.2718  -19.7910   20.8697 C   0  0  0  0  0  0
  -28.0765  -17.1998   22.0766 C   0  0  0  0  0  0
  -30.3401  -23.1787   22.5148 C   0  0  0  0  0  0
  -29.2530  -21.4894   19.3788 C   0  0  0  0  0  0
  -29.9764  -15.7045   20.6546 N   0  0  0  0  0  0
  -29.5948  -22.7431   20.1736 N   0  3  1  0  0  0
  -31.4919  -12.4505   19.1051 H   0  0  0  0  0  0
  -30.3897  -11.3724   19.9077 H   0  0  0  0  0  0
  -29.7514  -11.6781   17.4927 H   0  0  0  0  0  0
  -29.6770  -13.4066   17.7020 H   0  0  0  0  0  0
  -27.8601  -11.2880   18.8816 H   0  0  0  0  0  0
  -27.3902  -12.5717   17.7947 H   0  0  0  0  0  0
  -27.6927  -14.2518   19.5043 H   0  0  0  0  0  0
  -28.7578  -12.0901   21.3849 H   0  0  0  0  0  0
  -28.5174  -13.7568   21.8120 H   0  0  0  0  0  0
  -25.2735   -9.5740   22.4740 H   0  0  0  0  0  0
  -23.9998   -7.4690   22.7452 H   0  0  0  0  0  0
  -21.0860   -8.8802   19.8963 H   0  0  0  0  0  0
  -22.3706  -10.9677   19.6203 H   0  0  0  0  0  0
  -21.2008   -7.6133   23.9720 H   0  0  0  0  0  0
  -21.1483   -6.0494   25.9056 H   0  0  0  0  0  0
  -22.0598   -2.7609   23.2821 H   0  0  0  0  0  0
  -22.3991  -12.0093   22.4941 H   0  0  0  0  0  0
  -21.1025  -13.1426   22.2387 H   0  0  0  0  0  0
  -24.6654  -15.8420   20.5133 H   0  0  0  0  0  0
  -26.2728  -15.6252   20.0419 H   0  0  0  0  0  0
  -26.7131  -32.5466   23.1169 H   0  0  0  0  0  0
  -24.9945  -33.9786   25.0419 H   0  0  0  0  0  0
  -22.7034  -31.2888   21.3985 H   0  0  0  0  0  0
  -23.3710  -35.9636   23.3361 H   0  0  0  0  0  0
  -24.3514  -36.8891   22.2072 H   0  0  0  0  0  0
  -23.7220  -37.6509   23.6650 H   0  0  0  0  0  0
  -26.0784  -31.5617   20.6126 H   0  0  0  0  0  0
  -26.8300  -30.8407   22.0062 H   0  0  0  0  0  0
  -28.1371  -29.0567   21.1470 H   0  0  0  0  0  0
  -26.0947  -25.9153   19.0107 H   0  0  0  0  0  0
  -24.0169  -27.2534   19.0371 H   0  0  0  0  0  0
  -23.7232  -30.5384   19.3887 H   0  0  0  0  0  0
  -22.7598  -29.1847   19.9024 H   0  0  0  0  0  0
  -25.1282  -36.1961   25.0854 H   0  0  0  0  0  0
  -20.9957  -28.3228   24.1431 H   0  0  0  0  0  0
  -20.5673  -26.2270   23.3604 H   0  0  0  0  0  0
  -21.6641  -26.7428   22.1243 H   0  0  0  0  0  0
  -19.6884  -25.6318   21.1262 H   0  0  0  0  0  0
  -19.6706  -27.3222   20.6772 H   0  0  0  0  0  0
  -17.4224  -26.6702   21.4015 H   0  0  0  0  0  0
  -18.0296  -26.0083   22.9048 H   0  0  0  0  0  0
  -19.7946  -30.7329   24.2193 H   0  0  0  0  0  0
  -17.5018  -31.6269   24.5204 H   0  0  0  0  0  0
  -15.5354  -30.2992   23.7709 H   0  0  0  0  0  0
  -15.8651  -28.0867   22.6992 H   0  0  0  0  0  0
  -24.5637  -30.7523   25.7956 H   0  0  0  0  0  0
  -24.9365  -32.3107   26.5277 H   0  0  0  0  0  0
  -25.8147  -30.8711   27.0211 H   0  0  0  0  0  0
  -26.2697  -29.6753   24.1272 H   0  0  0  0  0  0
  -27.4006  -29.7224   25.4629 H   0  0  0  0  0  0
  -27.8601  -30.4251   23.9278 H   0  0  0  0  0  0
  -27.2591  -33.3539   26.2216 H   0  0  0  0  0  0
  -28.3701  -32.7123   25.0209 H   0  0  0  0  0  0
  -28.0868  -31.8451   26.5237 H   0  0  0  0  0  0
  -28.2599  -38.0063   24.7495 H   0  0  0  0  0  0
  -28.1043  -36.2609   24.6304 H   0  0  0  0  0  0
  -27.2275  -37.1470   25.8850 H   0  0  0  0  0  0
  -20.9332  -29.8655   21.6884 H   0  0  0  0  0  0
  -26.0173  -38.2854   24.1404 H   0  0  0  0  0  0
  -31.5338  -19.8739   18.9044 H   0  0  0  0  0  0
  -28.1883  -25.3058   22.5774 H   0  0  0  0  0  0
  -26.8077  -25.1913   21.5211 H   0  0  0  0  0  0
  -27.1179  -22.9111   21.1100 H   0  0  0  0  0  0
  -27.4177  -23.0354   22.8101 H   0  0  0  0  0  0
  -30.0668  -24.4065   18.9728 H   0  0  0  0  0  0
  -28.4237  -23.9000   18.7710 H   0  0  0  0  0  0
  -29.6907  -25.4726   21.0079 H   0  0  0  0  0  0
  -29.1461  -21.6087   21.8782 H   0  0  0  0  0  0
  -32.9252  -16.9852   19.9093 H   0  0  0  0  0  0
  -32.8195  -18.0123   18.5009 H   0  0  0  0  0  0
  -31.9716  -16.4821   18.4697 H   0  0  0  0  0  0
  -26.5345  -19.1331   21.3097 H   0  0  0  0  0  0
  -26.8557  -20.0117   19.8920 H   0  0  0  0  0  0
  -27.2675  -20.6908   21.4687 H   0  0  0  0  0  0
  -27.0110  -17.3156   21.9193 H   0  0  0  0  0  0
  -28.3354  -17.6192   23.0495 H   0  0  0  0  0  0
  -28.2084  -16.1269   22.1848 H   0  0  0  0  0  0
  -30.3324  -24.2584   22.6343 H   0  0  0  0  0  0
  -31.3267  -22.9038   22.1331 H   0  0  0  0  0  0
  -30.2524  -22.7455   23.5114 H   0  0  0  0  0  0
  -28.1803  -21.5441   19.2487 H   0  0  0  0  0  0
  -29.6281  -21.6108   18.3602 H   0  0  0  0  0  0
  -29.0427  -15.4227   20.8997 H   0  0  0  0  0  0
  -30.6058  -22.7321   20.1713 H   0  0  0  0  0  0
  1 25  1  0  0  0
  1 30  2  0  0  0
  1 87  1  0  0  0
  2  3  1  0  0  0
  2 25  1  0  0  0
  2 89  1  0  0  0
  2 90  1  0  0  0
  3  4  1  0  0  0
  3 91  1  0  0  0
  3 92  1  0  0  0
  4  5  1  0  0  0
  4 93  1  0  0  0
  4 94  1  0  0  0
  5  6  1  0  0  0
  5 26  1  0  0  0
  5 95  1  0  0  0
  6 25  1  0  0  0
  6 96  1  0  0  0
  6 97  1  0  0  0
  7  8  2  0  0  0
  7 26  1  0  0  0
  7 29  1  0  0  0
  8  9  1  0  0  0
  8 22  1  0  0  0
  9 10  1  0  0  0
  9 27  2  0  0  0
 10 11  2  0  0  0
 10 15  1  0  0  0
 11 12  1  0  0  0
 11 98  1  0  0  0
 12 13  2  0  0  0
 12 99  1  0  0  0
 13 14  1  0  0  0
 13 31  1  0  0  0
 14 15  2  0  0  0
 14100  1  0  0  0
 15101  1  0  0  0
 16 17  2  0  0  0
 16 21  1  0  0  0
 16 31  1  0  0  0
 17 18  1  0  0  0
 17102  1  0  0  0
 18 19  2  0  0  0
 18103  1  0  0  0
 19 20  1  0  0  0
 19 24  1  0  0  0
 20 21  2  0  0  0
 20104  1  0  0  0
 21 23  1  0  0  0
 22 28  1  0  0  0
 22 32  2  0  0  0
 26 27  1  0  0  0
 28105  1  0  0  0
 28106  1  0  0  0
 29107  1  0  0  0
 29108  1  0  0  0
 33 34  1  0  0  0
 33 66  1  0  0  0
 33 70  2  0  0  0
 34 36  1  0  0  0
 34 59  1  0  0  0
 34109  1  0  0  0
 35 44  2  0  0  0
 35 45  1  0  0  0
 35 68  1  0  0  0
 36 56  1  0  0  0
 36110  1  0  0  0
 37 39  1  0  0  0
 37 47  1  0  0  0
 37 66  1  0  0  0
 37111  1  0  0  0
 38 43  2  0  0  0
 38 46  1  0  0  0
 38 47  1  0  0  0
 39 64  1  0  0  0
 39 67  2  0  0  0
 40 52  1  0  0  0
 40 53  2  0  0  0
 40 58  1  0  0  0
 41112  1  0  0  0
 41113  1  0  0  0
 41114  1  0  0  0
 41 48  1  0  0  0
 42 43  1  0  0  0
 42 66  1  0  0  0
 42115  1  0  0  0
 42116  1  0  0  0
 43 44  1  0  0  0
 44117  1  0  0  0
 45 46  2  0  0  0
 45118  1  0  0  0
 46119  1  0  0  0
 47120  1  0  0  0
 47121  1  0  0  0
 48 56  1  0  0  0
 48 65  1  0  0  0
 48122  1  0  0  0
 49 50  1  0  0  0
 49 53  1  0  0  0
 49 64  1  0  0  0
 49123  1  0  0  0
 50 51  1  0  0  0
 50124  1  0  0  0
 50125  1  0  0  0
 51 52  1  0  0  0
 51126  1  0  0  0
 51127  1  0  0  0
 52128  1  0  0  0
 52129  1  0  0  0
 53 54  1  0  0  0
 54 55  2  0  0  0
 54130  1  0  0  0
 55 57  1  0  0  0
 55131  1  0  0  0
 56 69  2  0  0  0
 57 58  2  0  0  0
 57132  1  0  0  0
 58133  1  0  0  0
 59 60  1  0  0  0
 59 61  1  0  0  0
 59 62  1  0  0  0
 60134  1  0  0  0
 60135  1  0  0  0
 60136  1  0  0  0
 61137  1  0  0  0
 61138  1  0  0  0
 61139  1  0  0  0
 62140  1  0  0  0
 62141  1  0  0  0
 62142  1  0  0  0
 63 65  1  0  0  0
 63143  1  0  0  0
 63144  1  0  0  0
 63145  1  0  0  0
 64146  1  0  0  0
 65147  1  0  0  0
 68 80  1  0  0  0
 71 72  2  0  0  0
 71 73  1  0  0  0
 71148  1  0  0  0
 72 74  1  0  0  0
 72 86  1  0  0  0
 73 76  2  0  0  0
 73 82  1  0  0  0
 74 75  2  0  0  0
 74 83  1  0  0  0
 75 76  1  0  0  0
 75 84  1  0  0  0
 76 87  1  0  0  0
 77 78  1  0  0  0
 77 80  1  0  0  0
 77149  1  0  0  0
 77150  1  0  0  0
 78 81  1  0  0  0
 78151  1  0  0  0
 78152  1  0  0  0
 79 80  1  0  0  0
 79 88  1  0  0  0
 79153  1  0  0  0
 79154  1  0  0  0
 80155  1  0  0  0
 81 85  1  0  0  0
 81 88  1  0  0  0
 81156  1  0  0  0
 82157  1  0  0  0
 82158  1  0  0  0
 82159  1  0  0  0
 83160  1  0  0  0
 83161  1  0  0  0
 83162  1  0  0  0
 84163  1  0  0  0
 84164  1  0  0  0
 84165  1  0  0  0
 85166  1  0  0  0
 85167  1  0  0  0
 85168  1  0  0  0
 86169  1  0  0  0
 86170  1  0  0  0
 86 88  1  0  0  0
 87171  1  0  0  0
 88172  1  0  0  0
M  CHG  1  88   1
M  ISO  4   1 100  68 101  80 101  87 100
M  END
> <chiral flag>
0

> <version>
0

> <s_m_source_file>
/data/baiqing/PycharmProjects/Reinvent-master-3.2/result/LINK_invent/BTK/process_docking_weight1_custom_product_contain_oxygen_bond_distance_aromatic_linkinvent_7_9_3/rearranged_h_0035.sdf

> <i_m_source_file_index>
15

> <r_mmod_Potential_Energy-OPLS-2005>
131.616394042969

> <r_mmod_Stretch_Energy-OPLS-2005>
97.350700378418

> <r_mmod_Bend_Energy-OPLS-2005>
221.49397277832

> <r_mmod_Torsional_Energy-OPLS-2005>
313.807373046875

> <r_mmod_Improper_Torsional_Energy-OPLS-2005>
6.52013349533081

> <r_mmod_Van_der_Waal_Energy-OPLS-2005>
172.772552490234

> <r_mmod_Electrostatic_Energy-OPLS-2005>
-310.800231933594

> <r_mmod_Solvation_Energy-OPLS-2005>
-408.481079101562

> <b_mmod_Minimization_Converged-OPLS-2005>
0

> <r_mmod_RMS_Derivative-OPLS-2005>
8.71833801269531

$$$$
16
                    3D
 Structure written by MMmdl.
166175  0  0  1  0            999 V2000
  -30.5904  -14.6472   20.4771 C   0  0  0  0  0  0
  -30.4426  -12.3895   19.4237 C   0  0  0  0  0  0
  -29.4964  -12.4862   18.2027 C   0  0  0  0  0  0
  -28.0204  -12.3362   18.6240 C   0  0  0  0  0  0
  -27.6552  -13.2079   19.8526 C   0  0  2  0  0  0
  -28.7058  -13.0345   20.9723 C   0  0  0  0  0  0
  -25.2584  -13.8183   20.5590 C   0  0  0  0  0  0
  -24.1851  -13.0477   20.9192 C   0  0  0  0  0  0
  -24.6405  -11.6930   20.8739 C   0  0  0  0  0  0
  -23.9068  -10.4336   21.0408 C   0  0  0  0  0  0
  -24.3635   -9.4255   21.9178 C   0  0  0  0  0  0
  -23.6325   -8.2281   22.0757 C   0  0  0  0  0  0
  -22.4305   -8.0314   21.3550 C   0  0  0  0  0  0
  -21.9930   -9.0279   20.4649 C   0  0  0  0  0  0
  -22.7251  -10.2160   20.3042 C   0  0  0  0  0  0
  -21.6873   -6.0767   22.5278 C   0  0  0  0  0  0
  -21.4025   -6.5667   23.8214 C   0  0  0  0  0  0
  -21.3637   -5.6807   24.9166 C   0  0  0  0  0  0
  -21.6026   -4.3074   24.7204 C   0  0  0  0  0  0
  -21.8836   -3.8176   23.4334 C   0  0  0  0  0  0
  -21.9212   -4.6995   22.3396 C   0  0  0  0  0  0
  -22.7871  -13.5266   21.1864 C   0  0  0  0  0  0
  -22.1690   -4.2185   21.0972 F   0  0  0  0  0  0
  -21.5594   -3.4548   25.7713 F   0  0  0  0  0  0
  -30.0161  -13.4021   20.4112 N   0  0  0  0  0  0
  -26.3001  -12.9338   20.3250 N   0  0  0  0  0  0
  -25.9322  -11.6521   20.5736 N   0  0  0  0  0  0
  -22.0511  -12.8222   22.0398 N   0  0  0  0  0  0
  -25.4358  -15.1883   20.3863 N   0  0  0  0  0  0
  -31.7453  -14.8476   20.0888 O   0  0  0  0  0  0
  -21.6665   -6.8907   21.4248 O   0  0  0  0  0  0
  -22.3551  -14.5580   20.6743 O   0  0  0  0  0  0
  -24.6184  -31.8649   23.1971 C   0  0  0  0  0  0
  -25.9035  -32.4822   23.8320 C   0  0  1  0  0  0
  -27.2586  -27.3527   20.1291 C   0  0  0  0  0  0
  -25.5858  -33.8613   24.2264 N   0  0  0  0  0  0
  -23.4173  -30.4763   21.5396 C   0  0  2  0  0  0
  -24.8720  -28.9189   20.1256 C   0  0  0  0  0  0
  -22.7476  -29.4645   22.4982 C   0  0  0  0  0  0
  -18.0315  -28.1459   22.8555 C   0  0  0  0  0  0
  -24.1473  -36.7252   23.2644 C   0  0  0  0  0  0
  -25.9495  -30.8052   21.3595 C   0  0  0  0  0  0
  -26.0330  -29.4242   20.7202 C   0  0  0  0  0  0
  -27.2304  -28.6592   20.7044 C   0  0  0  0  0  0
  -26.0689  -26.8665   19.5494 C   0  0  0  0  0  0
  -24.8906  -27.6439   19.5301 C   0  0  0  0  0  0
  -23.6361  -29.7944   20.1603 C   0  0  0  0  0  0
  -25.4123  -36.3116   24.0338 C   0  0  1  0  0  0
  -20.5929  -28.3716   23.1350 C   0  0  2  0  0  0
  -20.6837  -26.9459   22.5462 C   0  0  0  0  0  0
  -19.5790  -26.6455   21.5288 C   0  0  0  0  0  0
  -18.1948  -26.8025   22.1674 C   0  0  0  0  0  0
  -19.1582  -28.8912   23.2953 C   0  0  0  0  0  0
  -18.9505  -30.1533   23.8950 C   0  0  0  0  0  0
  -17.6506  -30.6666   24.0617 C   0  0  0  0  0  0
  -25.9075  -34.9493   23.5117 C   0  0  0  0  0  0
  -16.5388  -29.9177   23.6363 C   0  0  0  0  0  0
  -16.7318  -28.6595   23.0386 C   0  0  0  0  0  0
  -26.4445  -31.6604   25.0643 C   0  0  0  0  0  0
  -25.3638  -31.3754   26.1333 C   0  0  0  0  0  0
  -27.0296  -30.3058   24.6027 C   0  0  0  0  0  0
  -27.6008  -32.4320   25.7385 C   0  0  0  0  0  0
  -27.5598  -37.1790   24.8500 C   0  0  0  0  0  0
  -21.4208  -29.3046   22.3719 N   0  0  0  0  0  0
  -26.4314  -37.3810   23.9426 N   0  0  0  0  0  0
  -24.6800  -31.0670   22.0892 N   0  0  0  0  0  0
  -23.4193  -28.8225   23.3103 O   0  0  0  0  0  0
  -28.4557  -26.6525   19.9816 O   0  0  0  0  0  0
  -26.5687  -34.8959   22.4713 O   0  0  0  0  0  0
  -23.5364  -32.1427   23.7313 O   0  0  0  0  0  0
  -28.5032  -19.2126   21.3287 C   0  0  0  0  0  0
  -30.3561  -17.8718   19.7209 C   0  0  0  0  0  0
  -28.7844  -17.8325   21.5473 C   0  0  0  0  0  0
  -29.1171  -19.9714   20.3021 C   0  0  0  0  0  0
  -29.6886  -17.1074   20.7206 C   0  0  0  0  0  0
  -30.0780  -19.2673   19.5163 C   0  0  0  0  0  0
  -28.4358  -25.3015   22.0703 C   0  0  0  0  0  0
  -29.2451  -24.1574   22.6928 C   0  0  0  0  0  0
  -28.3997  -23.9606   19.9343 C   0  0  0  0  0  0
  -28.7710  -25.3521   20.5885 C   0  0  1  0  0  0
  -29.0346  -22.7488   22.0657 C   0  0  2  0  0  0
  -28.0728  -17.1342   22.6946 C   0  0  0  0  0  0
  -30.1283  -21.8512   22.6912 C   0  0  0  0  0  0
  -28.5608  -21.4166   19.9466 C   0  0  0  0  0  0
  -29.7531  -15.6481   20.8908 N   0  0  0  0  0  0
  -29.0693  -22.7249   20.5597 N   0  3  1  0  0  0
  -30.8809  -20.0856   18.2232 Cl  0  0  0  0  0  0
  -31.4762  -12.5349   19.1067 H   0  0  0  0  0  0
  -30.3990  -11.3906   19.8609 H   0  0  0  0  0  0
  -29.7499  -11.7151   17.4731 H   0  0  0  0  0  0
  -29.6368  -13.4412   17.6956 H   0  0  0  0  0  0
  -27.8559  -11.2852   18.8623 H   0  0  0  0  0  0
  -27.3600  -12.5615   17.7850 H   0  0  0  0  0  0
  -27.6840  -14.2423   19.5135 H   0  0  0  0  0  0
  -28.7215  -11.9984   21.3130 H   0  0  0  0  0  0
  -28.4549  -13.6323   21.8473 H   0  0  0  0  0  0
  -25.2807   -9.5737   22.4718 H   0  0  0  0  0  0
  -24.0050   -7.4689   22.7490 H   0  0  0  0  0  0
  -21.0847   -8.8797   19.8963 H   0  0  0  0  0  0
  -22.3736  -10.9681   19.6110 H   0  0  0  0  0  0
  -21.2038   -7.6178   23.9721 H   0  0  0  0  0  0
  -21.1413   -6.0534   25.9060 H   0  0  0  0  0  0
  -22.0631   -2.7644   23.2817 H   0  0  0  0  0  0
  -22.4147  -11.9874   22.4759 H   0  0  0  0  0  0
  -21.1107  -13.1190   22.2585 H   0  0  0  0  0  0
  -24.6752  -15.8536   20.4749 H   0  0  0  0  0  0
  -26.2687  -15.6012   19.9867 H   0  0  0  0  0  0
  -26.7100  -32.5586   23.1093 H   0  0  0  0  0  0
  -24.9916  -33.9759   25.0347 H   0  0  0  0  0  0
  -22.7119  -31.2948   21.3926 H   0  0  0  0  0  0
  -23.3807  -35.9524   23.3357 H   0  0  0  0  0  0
  -24.3560  -36.8812   22.2049 H   0  0  0  0  0  0
  -23.7124  -37.6412   23.6646 H   0  0  0  0  0  0
  -26.0684  -31.5604   20.5815 H   0  0  0  0  0  0
  -26.8324  -30.8714   21.9821 H   0  0  0  0  0  0
  -28.1342  -29.0743   21.1309 H   0  0  0  0  0  0
  -26.0669  -25.8934   19.0820 H   0  0  0  0  0  0
  -23.9976  -27.2545   19.0567 H   0  0  0  0  0  0
  -23.7451  -30.5588   19.3884 H   0  0  0  0  0  0
  -22.7645  -29.2033   19.8737 H   0  0  0  0  0  0
  -25.1309  -36.1980   25.0837 H   0  0  0  0  0  0
  -21.0054  -28.3302   24.1456 H   0  0  0  0  0  0
  -20.5854  -26.2292   23.3640 H   0  0  0  0  0  0
  -21.6676  -26.7581   22.1157 H   0  0  0  0  0  0
  -19.6906  -25.6377   21.1277 H   0  0  0  0  0  0
  -19.6715  -27.3325   20.6877 H   0  0  0  0  0  0
  -17.4240  -26.6880   21.4028 H   0  0  0  0  0  0
  -18.0265  -26.0171   22.9068 H   0  0  0  0  0  0
  -19.7973  -30.7391   24.2270 H   0  0  0  0  0  0
  -17.5059  -31.6342   24.5263 H   0  0  0  0  0  0
  -15.5400  -30.3109   23.7676 H   0  0  0  0  0  0
  -15.8720  -28.0953   22.7037 H   0  0  0  0  0  0
  -24.5827  -30.7114   25.7621 H   0  0  0  0  0  0
  -24.8809  -32.2948   26.4683 H   0  0  0  0  0  0
  -25.7883  -30.8954   27.0156 H   0  0  0  0  0  0
  -26.2863  -29.6795   24.1095 H   0  0  0  0  0  0
  -27.4104  -29.7305   25.4466 H   0  0  0  0  0  0
  -27.8666  -30.4417   23.9165 H   0  0  0  0  0  0
  -27.2659  -33.3659   26.1935 H   0  0  0  0  0  0
  -28.3823  -32.6811   25.0182 H   0  0  0  0  0  0
  -28.0687  -31.8444   26.5305 H   0  0  0  0  0  0
  -28.2665  -38.0054   24.7615 H   0  0  0  0  0  0
  -28.1042  -36.2596   24.6301 H   0  0  0  0  0  0
  -27.2325  -37.1414   25.8905 H   0  0  0  0  0  0
  -20.9399  -29.8603   21.6790 H   0  0  0  0  0  0
  -26.0210  -38.2877   24.1480 H   0  0  0  0  0  0
  -27.7717  -19.7023   21.9546 H   0  0  0  0  0  0
  -31.0476  -17.3806   19.0500 H   0  0  0  0  0  0
  -28.7146  -26.2444   22.5409 H   0  0  0  0  0  0
  -27.3647  -25.1724   22.2239 H   0  0  0  0  0  0
  -29.0135  -24.1044   23.7580 H   0  0  0  0  0  0
  -30.3046  -24.4189   22.6307 H   0  0  0  0  0  0
  -28.6524  -24.0009   18.8749 H   0  0  0  0  0  0
  -27.3172  -23.8434   19.9804 H   0  0  0  0  0  0
  -29.8607  -25.3953   20.5291 H   0  0  0  0  0  0
  -28.0538  -22.3904   22.3816 H   0  0  0  0  0  0
  -27.3208  -17.7685   23.1661 H   0  0  0  0  0  0
  -28.7922  -16.8483   23.4648 H   0  0  0  0  0  0
  -27.5632  -16.2376   22.3483 H   0  0  0  0  0  0
  -31.0738  -21.9140   22.1517 H   0  0  0  0  0  0
  -29.8347  -20.8098   22.7604 H   0  0  0  0  0  0
  -30.3382  -22.1462   23.7203 H   0  0  0  0  0  0
  -27.4938  -21.3786   20.1674 H   0  0  0  0  0  0
  -28.5997  -21.5193   18.8622 H   0  0  0  0  0  0
  -28.9119  -15.2648   21.2909 H   0  0  0  0  0  0
  -30.0423  -22.7919   20.3018 H   0  0  0  0  0  0
  1 25  1  0  0  0
  1 30  2  0  0  0
  1 85  1  0  0  0
  2  3  1  0  0  0
  2 25  1  0  0  0
  2 88  1  0  0  0
  2 89  1  0  0  0
  3  4  1  0  0  0
  3 90  1  0  0  0
  3 91  1  0  0  0
  4  5  1  0  0  0
  4 92  1  0  0  0
  4 93  1  0  0  0
  5  6  1  0  0  0
  5 26  1  0  0  0
  5 94  1  0  0  0
  6 25  1  0  0  0
  6 95  1  0  0  0
  6 96  1  0  0  0
  7  8  2  0  0  0
  7 26  1  0  0  0
  7 29  1  0  0  0
  8  9  1  0  0  0
  8 22  1  0  0  0
  9 10  1  0  0  0
  9 27  2  0  0  0
 10 11  2  0  0  0
 10 15  1  0  0  0
 11 12  1  0  0  0
 11 97  1  0  0  0
 12 13  2  0  0  0
 12 98  1  0  0  0
 13 14  1  0  0  0
 13 31  1  0  0  0
 14 15  2  0  0  0
 14 99  1  0  0  0
 15100  1  0  0  0
 16 17  2  0  0  0
 16 21  1  0  0  0
 16 31  1  0  0  0
 17 18  1  0  0  0
 17101  1  0  0  0
 18 19  2  0  0  0
 18102  1  0  0  0
 19 20  1  0  0  0
 19 24  1  0  0  0
 20 21  2  0  0  0
 20103  1  0  0  0
 21 23  1  0  0  0
 22 28  1  0  0  0
 22 32  2  0  0  0
 26 27  1  0  0  0
 28104  1  0  0  0
 28105  1  0  0  0
 29106  1  0  0  0
 29107  1  0  0  0
 33 34  1  0  0  0
 33 66  1  0  0  0
 33 70  2  0  0  0
 34 36  1  0  0  0
 34 59  1  0  0  0
 34108  1  0  0  0
 35 44  2  0  0  0
 35 45  1  0  0  0
 35 68  1  0  0  0
 36 56  1  0  0  0
 36109  1  0  0  0
 37 39  1  0  0  0
 37 47  1  0  0  0
 37 66  1  0  0  0
 37110  1  0  0  0
 38 43  2  0  0  0
 38 46  1  0  0  0
 38 47  1  0  0  0
 39 64  1  0  0  0
 39 67  2  0  0  0
 40 52  1  0  0  0
 40 53  2  0  0  0
 40 58  1  0  0  0
 41111  1  0  0  0
 41112  1  0  0  0
 41113  1  0  0  0
 41 48  1  0  0  0
 42 43  1  0  0  0
 42 66  1  0  0  0
 42114  1  0  0  0
 42115  1  0  0  0
 43 44  1  0  0  0
 44116  1  0  0  0
 45 46  2  0  0  0
 45117  1  0  0  0
 46118  1  0  0  0
 47119  1  0  0  0
 47120  1  0  0  0
 48 56  1  0  0  0
 48 65  1  0  0  0
 48121  1  0  0  0
 49 50  1  0  0  0
 49 53  1  0  0  0
 49 64  1  0  0  0
 49122  1  0  0  0
 50 51  1  0  0  0
 50123  1  0  0  0
 50124  1  0  0  0
 51 52  1  0  0  0
 51125  1  0  0  0
 51126  1  0  0  0
 52127  1  0  0  0
 52128  1  0  0  0
 53 54  1  0  0  0
 54 55  2  0  0  0
 54129  1  0  0  0
 55 57  1  0  0  0
 55130  1  0  0  0
 56 69  2  0  0  0
 57 58  2  0  0  0
 57131  1  0  0  0
 58132  1  0  0  0
 59 60  1  0  0  0
 59 61  1  0  0  0
 59 62  1  0  0  0
 60133  1  0  0  0
 60134  1  0  0  0
 60135  1  0  0  0
 61136  1  0  0  0
 61137  1  0  0  0
 61138  1  0  0  0
 62139  1  0  0  0
 62140  1  0  0  0
 62141  1  0  0  0
 63 65  1  0  0  0
 63142  1  0  0  0
 63143  1  0  0  0
 63144  1  0  0  0
 64145  1  0  0  0
 65146  1  0  0  0
 68 80  1  0  0  0
 71 73  2  0  0  0
 71 74  1  0  0  0
 71147  1  0  0  0
 72 75  2  0  0  0
 72 76  1  0  0  0
 72148  1  0  0  0
 73 75  1  0  0  0
 73 82  1  0  0  0
 74 76  2  0  0  0
 74 84  1  0  0  0
 75 85  1  0  0  0
 76 87  1  0  0  0
 77 78  1  0  0  0
 77 80  1  0  0  0
 77149  1  0  0  0
 77150  1  0  0  0
 78 81  1  0  0  0
 78151  1  0  0  0
 78152  1  0  0  0
 79 80  1  0  0  0
 79 86  1  0  0  0
 79153  1  0  0  0
 79154  1  0  0  0
 80155  1  0  0  0
 81 83  1  0  0  0
 81 86  1  0  0  0
 81156  1  0  0  0
 82157  1  0  0  0
 82158  1  0  0  0
 82159  1  0  0  0
 83160  1  0  0  0
 83161  1  0  0  0
 83162  1  0  0  0
 84163  1  0  0  0
 84164  1  0  0  0
 84 86  1  0  0  0
 85165  1  0  0  0
 86166  1  0  0  0
M  CHG  1  86   1
M  ISO  4   1 100  68 101  80 101  85 100
M  END
> <chiral flag>
0

> <version>
0

> <s_m_source_file>
/data/baiqing/PycharmProjects/Reinvent-master-3.2/result/LINK_invent/BTK/process_docking_weight1_custom_product_contain_oxygen_bond_distance_aromatic_linkinvent_7_9_3/rearranged_h_0035.sdf

> <i_m_source_file_index>
16

> <r_mmod_Potential_Energy-OPLS-2005>
36.0158920288086

> <r_mmod_Stretch_Energy-OPLS-2005>
85.3219604492188

> <r_mmod_Bend_Energy-OPLS-2005>
191.233200073242

> <r_mmod_Torsional_Energy-OPLS-2005>
271.426208496094

> <r_mmod_Improper_Torsional_Energy-OPLS-2005>
5.98897457122803

> <r_mmod_Van_der_Waal_Energy-OPLS-2005>
138.428680419922

> <r_mmod_Electrostatic_Energy-OPLS-2005>
-278.688812255859

> <r_mmod_Solvation_Energy-OPLS-2005>
-418.017181396484

> <b_mmod_Minimization_Converged-OPLS-2005>
0

> <r_mmod_RMS_Derivative-OPLS-2005>
5.17816781997681

$$$$
17
                    3D
 Structure written by MMmdl.
164173  0  0  1  0            999 V2000
  -30.5934  -14.6705   20.4927 C   0  0  0  0  0  0
  -30.4426  -12.4096   19.4573 C   0  0  0  0  0  0
  -29.5114  -12.5144   18.2278 C   0  0  0  0  0  0
  -28.0334  -12.3487   18.6366 C   0  0  0  0  0  0
  -27.6533  -13.2177   19.8652 C   0  0  2  0  0  0
  -28.6967  -13.0696   20.9949 C   0  0  0  0  0  0
  -25.2562  -13.8175   20.5689 C   0  0  0  0  0  0
  -24.1829  -13.0441   20.9194 C   0  0  0  0  0  0
  -24.6397  -11.6910   20.8738 C   0  0  0  0  0  0
  -23.9066  -10.4294   21.0408 C   0  0  0  0  0  0
  -24.3616   -9.4210   21.9187 C   0  0  0  0  0  0
  -23.6291   -8.2245   22.0756 C   0  0  0  0  0  0
  -22.4274   -8.0283   21.3545 C   0  0  0  0  0  0
  -21.9911   -9.0259   20.4647 C   0  0  0  0  0  0
  -22.7240  -10.2139   20.3057 C   0  0  0  0  0  0
  -21.6853   -6.0739   22.5283 C   0  0  0  0  0  0
  -21.4013   -6.5640   23.8215 C   0  0  0  0  0  0
  -21.3658   -5.6792   24.9177 C   0  0  0  0  0  0
  -21.6045   -4.3056   24.7226 C   0  0  0  0  0  0
  -21.8818   -3.8150   23.4347 C   0  0  0  0  0  0
  -21.9192   -4.6965   22.3403 C   0  0  0  0  0  0
  -22.7851  -13.5237   21.1859 C   0  0  0  0  0  0
  -22.1662   -4.2152   21.0980 F   0  0  0  0  0  0
  -21.5628   -3.4539   25.7738 F   0  0  0  0  0  0
  -30.0101  -13.4288   20.4359 N   0  0  0  0  0  0
  -26.2986  -12.9356   20.3319 N   0  0  0  0  0  0
  -25.9324  -11.6510   20.5750 N   0  0  0  0  0  0
  -22.0486  -12.8226   22.0405 N   0  0  0  0  0  0
  -25.4284  -15.1896   20.4110 N   0  0  0  0  0  0
  -31.7511  -14.8444   20.1010 O   0  0  0  0  0  0
  -21.6638   -6.8881   21.4244 O   0  0  0  0  0  0
  -22.3539  -14.5544   20.6709 O   0  0  0  0  0  0
  -24.6258  -31.8587   23.2010 C   0  0  0  0  0  0
  -25.9100  -32.4774   23.8347 C   0  0  1  0  0  0
  -27.2273  -27.3087   20.1278 C   0  0  0  0  0  0
  -25.5912  -33.8576   24.2271 N   0  0  0  0  0  0
  -23.4205  -30.4803   21.5427 C   0  0  2  0  0  0
  -24.8688  -28.9272   20.1149 C   0  0  0  0  0  0
  -22.7469  -29.4621   22.4932 C   0  0  0  0  0  0
  -18.0285  -28.1391   22.8496 C   0  0  0  0  0  0
  -24.1483  -36.7291   23.2636 C   0  0  0  0  0  0
  -25.9608  -30.7856   21.3731 C   0  0  0  0  0  0
  -26.0356  -29.4088   20.7226 C   0  0  0  0  0  0
  -27.2172  -28.6092   20.7219 C   0  0  0  0  0  0
  -26.0417  -26.8801   19.4933 C   0  0  0  0  0  0
  -24.8729  -27.6677   19.4927 C   0  0  0  0  0  0
  -23.6370  -29.8095   20.1598 C   0  0  0  0  0  0
  -25.4105  -36.3081   24.0334 C   0  0  1  0  0  0
  -20.5886  -28.3689   23.1285 C   0  0  2  0  0  0
  -20.6767  -26.9411   22.5409 C   0  0  0  0  0  0
  -19.5742  -26.6400   21.5206 C   0  0  0  0  0  0
  -18.1925  -26.7939   22.1624 C   0  0  0  0  0  0
  -19.1540  -28.8856   23.2888 C   0  0  0  0  0  0
  -18.9462  -30.1458   23.8906 C   0  0  0  0  0  0
  -17.6462  -30.6591   24.0571 C   0  0  0  0  0  0
  -25.9051  -34.9453   23.5107 C   0  0  0  0  0  0
  -16.5353  -29.9091   23.6339 C   0  0  0  0  0  0
  -16.7273  -28.6508   23.0363 C   0  0  0  0  0  0
  -26.4485  -31.6591   25.0723 C   0  0  0  0  0  0
  -25.3718  -31.3730   26.1451 C   0  0  0  0  0  0
  -27.0328  -30.3016   24.6181 C   0  0  0  0  0  0
  -27.6047  -32.4321   25.7493 C   0  0  0  0  0  0
  -27.5585  -37.1788   24.8454 C   0  0  0  0  0  0
  -21.4181  -29.3044   22.3676 N   0  0  0  0  0  0
  -26.4277  -37.3782   23.9427 N   0  0  0  0  0  0
  -24.6877  -31.0591   22.0960 N   0  0  0  0  0  0
  -23.4189  -28.8162   23.3015 O   0  0  0  0  0  0
  -28.3551  -26.4734   20.1305 O   0  0  0  0  0  0
  -26.5624  -34.8927   22.4677 O   0  0  0  0  0  0
  -23.5419  -32.1383   23.7339 O   0  0  0  0  0  0
  -28.7336  -19.3481   21.3548 C   0  0  0  0  0  0
  -29.2852  -20.0436   20.2469 C   0  0  0  0  0  0
  -28.9406  -17.9511   21.5812 C   0  0  0  0  0  0
  -30.1013  -19.2422   19.3792 C   0  0  0  0  0  0
  -29.7308  -17.1465   20.7066 C   0  0  0  0  0  0
  -30.3088  -17.8352   19.6018 C   0  0  0  0  0  0
  -29.2954  -24.1967   20.3069 C   0  0  0  0  0  0
  -28.2415  -25.0797   20.3624 C   0  0  0  0  0  0
  -30.7274  -24.6272   20.0767 C   0  0  0  0  0  0
  -31.5429  -23.8161   21.0749 C   0  0  0  0  0  0
  -30.8230  -22.4703   21.1403 C   0  0  0  0  0  0
  -28.2564  -17.3080   22.7774 C   0  0  0  0  0  0
  -30.7208  -19.8617   18.1329 C   0  0  0  0  0  0
  -28.8701  -21.5571   19.9339 C   0  0  0  0  0  0
  -29.7795  -15.6891   20.9250 N   0  0  0  0  0  0
  -29.4019  -22.7060   20.7781 N   0  3  2  0  0  0
  -31.0175  -17.1299   18.6886 F   0  0  0  0  0  0
  -31.4826  -12.5454   19.1558 H   0  0  0  0  0  0
  -30.3876  -11.4138   19.8998 H   0  0  0  0  0  0
  -29.7810  -11.7618   17.4856 H   0  0  0  0  0  0
  -29.6498  -13.4827   17.7441 H   0  0  0  0  0  0
  -27.8705  -11.2949   18.8651 H   0  0  0  0  0  0
  -27.3800  -12.5802   17.7944 H   0  0  0  0  0  0
  -27.6719  -14.2542   19.5276 H   0  0  0  0  0  0
  -28.7149  -12.0436   21.3656 H   0  0  0  0  0  0
  -28.4330  -13.6877   21.8546 H   0  0  0  0  0  0
  -25.2763   -9.5684   22.4758 H   0  0  0  0  0  0
  -24.0004   -7.4634   22.7472 H   0  0  0  0  0  0
  -21.0845   -8.8775   19.8950 H   0  0  0  0  0  0
  -22.3703  -10.9673   19.6160 H   0  0  0  0  0  0
  -21.2005   -7.6148   23.9718 H   0  0  0  0  0  0
  -21.1480   -6.0523   25.9079 H   0  0  0  0  0  0
  -22.0598   -2.7612   23.2845 H   0  0  0  0  0  0
  -22.4095  -11.9877   22.4781 H   0  0  0  0  0  0
  -21.1101  -13.1248   22.2607 H   0  0  0  0  0  0
  -24.6595  -15.8422   20.5162 H   0  0  0  0  0  0
  -26.2737  -15.6271   20.0676 H   0  0  0  0  0  0
  -26.7167  -32.5445   23.1098 H   0  0  0  0  0  0
  -25.0043  -33.9721   25.0402 H   0  0  0  0  0  0
  -22.7153  -31.3013   21.3969 H   0  0  0  0  0  0
  -23.3758  -35.9608   23.3272 H   0  0  0  0  0  0
  -24.3576  -36.8937   22.2055 H   0  0  0  0  0  0
  -23.7226  -37.6483   23.6669 H   0  0  0  0  0  0
  -26.0898  -31.5446   20.6004 H   0  0  0  0  0  0
  -26.8420  -30.8399   22.0007 H   0  0  0  0  0  0
  -28.1154  -28.9751   21.1986 H   0  0  0  0  0  0
  -26.0120  -25.9180   19.0017 H   0  0  0  0  0  0
  -23.9792  -27.2952   19.0103 H   0  0  0  0  0  0
  -23.7569  -30.5822   19.3998 H   0  0  0  0  0  0
  -22.7576  -29.2374   19.8583 H   0  0  0  0  0  0
  -25.1281  -36.1923   25.0826 H   0  0  0  0  0  0
  -20.9988  -28.3262   24.1403 H   0  0  0  0  0  0
  -20.5655  -26.2298   23.3608 H   0  0  0  0  0  0
  -21.6636  -26.7436   22.1206 H   0  0  0  0  0  0
  -19.6893  -25.6313   21.1229 H   0  0  0  0  0  0
  -19.6680  -27.3217   20.6740 H   0  0  0  0  0  0
  -17.4193  -26.6703   21.4025 H   0  0  0  0  0  0
  -18.0321  -26.0076   22.9016 H   0  0  0  0  0  0
  -19.7935  -30.7276   24.2279 H   0  0  0  0  0  0
  -17.5017  -31.6272   24.5171 H   0  0  0  0  0  0
  -15.5352  -30.2994   23.7664 H   0  0  0  0  0  0
  -15.8675  -28.0826   22.7081 H   0  0  0  0  0  0
  -24.5898  -30.7070   25.7785 H   0  0  0  0  0  0
  -24.8900  -32.2895   26.4867 H   0  0  0  0  0  0
  -25.8048  -30.8921   27.0230 H   0  0  0  0  0  0
  -26.2900  -29.6773   24.1200 H   0  0  0  0  0  0
  -27.4018  -29.7272   25.4688 H   0  0  0  0  0  0
  -27.8773  -30.4309   23.9409 H   0  0  0  0  0  0
  -27.2661  -33.3622   26.2070 H   0  0  0  0  0  0
  -28.3858  -32.6877   25.0321 H   0  0  0  0  0  0
  -28.0710  -31.8443   26.5410 H   0  0  0  0  0  0
  -28.2558  -38.0128   24.7568 H   0  0  0  0  0  0
  -28.1126  -36.2669   24.6183 H   0  0  0  0  0  0
  -27.2319  -37.1320   25.8856 H   0  0  0  0  0  0
  -20.9354  -29.8771   21.6893 H   0  0  0  0  0  0
  -26.0157  -38.2847   24.1467 H   0  0  0  0  0  0
  -28.0894  -19.8924   22.0318 H   0  0  0  0  0  0
  -27.2464  -24.7848   20.6673 H   0  0  0  0  0  0
  -30.8640  -25.6992   20.2257 H   0  0  0  0  0  0
  -31.0094  -24.3925   19.0490 H   0  0  0  0  0  0
  -31.5103  -24.2987   22.0530 H   0  0  0  0  0  0
  -32.5910  -23.7216   20.7879 H   0  0  0  0  0  0
  -30.9098  -21.9997   22.1200 H   0  0  0  0  0  0
  -31.3026  -21.8044   20.4243 H   0  0  0  0  0  0
  -27.7705  -18.0507   23.4105 H   0  0  0  0  0  0
  -28.9809  -16.7745   23.3933 H   0  0  0  0  0  0
  -27.4934  -16.6010   22.4497 H   0  0  0  0  0  0
  -31.2124  -20.8075   18.3555 H   0  0  0  0  0  0
  -29.9556  -20.0398   17.3771 H   0  0  0  0  0  0
  -31.4766  -19.2155   17.6870 H   0  0  0  0  0  0
  -27.7818  -21.6128   19.9692 H   0  0  0  0  0  0
  -29.1172  -21.7862   18.8987 H   0  0  0  0  0  0
  -28.9621  -15.3314   21.3916 H   0  0  0  0  0  0
  -28.8998  -22.6326   21.6496 H   0  0  0  0  0  0
  1 25  1  0  0  0
  1 30  2  0  0  0
  1 85  1  0  0  0
  2  3  1  0  0  0
  2 25  1  0  0  0
  2 88  1  0  0  0
  2 89  1  0  0  0
  3  4  1  0  0  0
  3 90  1  0  0  0
  3 91  1  0  0  0
  4  5  1  0  0  0
  4 92  1  0  0  0
  4 93  1  0  0  0
  5  6  1  0  0  0
  5 26  1  0  0  0
  5 94  1  0  0  0
  6 25  1  0  0  0
  6 95  1  0  0  0
  6 96  1  0  0  0
  7  8  2  0  0  0
  7 26  1  0  0  0
  7 29  1  0  0  0
  8  9  1  0  0  0
  8 22  1  0  0  0
  9 10  1  0  0  0
  9 27  2  0  0  0
 10 11  2  0  0  0
 10 15  1  0  0  0
 11 12  1  0  0  0
 11 97  1  0  0  0
 12 13  2  0  0  0
 12 98  1  0  0  0
 13 14  1  0  0  0
 13 31  1  0  0  0
 14 15  2  0  0  0
 14 99  1  0  0  0
 15100  1  0  0  0
 16 17  2  0  0  0
 16 21  1  0  0  0
 16 31  1  0  0  0
 17 18  1  0  0  0
 17101  1  0  0  0
 18 19  2  0  0  0
 18102  1  0  0  0
 19 20  1  0  0  0
 19 24  1  0  0  0
 20 21  2  0  0  0
 20103  1  0  0  0
 21 23  1  0  0  0
 22 28  1  0  0  0
 22 32  2  0  0  0
 26 27  1  0  0  0
 28104  1  0  0  0
 28105  1  0  0  0
 29106  1  0  0  0
 29107  1  0  0  0
 33 34  1  0  0  0
 33 66  1  0  0  0
 33 70  2  0  0  0
 34 36  1  0  0  0
 34 59  1  0  0  0
 34108  1  0  0  0
 35 44  2  0  0  0
 35 45  1  0  0  0
 35 68  1  0  0  0
 36 56  1  0  0  0
 36109  1  0  0  0
 37 39  1  0  0  0
 37 47  1  0  0  0
 37 66  1  0  0  0
 37110  1  0  0  0
 38 43  2  0  0  0
 38 46  1  0  0  0
 38 47  1  0  0  0
 39 64  1  0  0  0
 39 67  2  0  0  0
 40 52  1  0  0  0
 40 53  2  0  0  0
 40 58  1  0  0  0
 41111  1  0  0  0
 41112  1  0  0  0
 41113  1  0  0  0
 41 48  1  0  0  0
 42 43  1  0  0  0
 42 66  1  0  0  0
 42114  1  0  0  0
 42115  1  0  0  0
 43 44  1  0  0  0
 44116  1  0  0  0
 45 46  2  0  0  0
 45117  1  0  0  0
 46118  1  0  0  0
 47119  1  0  0  0
 47120  1  0  0  0
 48 56  1  0  0  0
 48 65  1  0  0  0
 48121  1  0  0  0
 49 50  1  0  0  0
 49 53  1  0  0  0
 49 64  1  0  0  0
 49122  1  0  0  0
 50 51  1  0  0  0
 50123  1  0  0  0
 50124  1  0  0  0
 51 52  1  0  0  0
 51125  1  0  0  0
 51126  1  0  0  0
 52127  1  0  0  0
 52128  1  0  0  0
 53 54  1  0  0  0
 54 55  2  0  0  0
 54129  1  0  0  0
 55 57  1  0  0  0
 55130  1  0  0  0
 56 69  2  0  0  0
 57 58  2  0  0  0
 57131  1  0  0  0
 58132  1  0  0  0
 59 60  1  0  0  0
 59 61  1  0  0  0
 59 62  1  0  0  0
 60133  1  0  0  0
 60134  1  0  0  0
 60135  1  0  0  0
 61136  1  0  0  0
 61137  1  0  0  0
 61138  1  0  0  0
 62139  1  0  0  0
 62140  1  0  0  0
 62141  1  0  0  0
 63 65  1  0  0  0
 63142  1  0  0  0
 63143  1  0  0  0
 63144  1  0  0  0
 64145  1  0  0  0
 65146  1  0  0  0
 68 78  1  0  0  0
 71 72  2  0  0  0
 71 73  1  0  0  0
 71147  1  0  0  0
 72 74  1  0  0  0
 72 84  1  0  0  0
 73 75  2  0  0  0
 73 82  1  0  0  0
 74 76  2  0  0  0
 74 83  1  0  0  0
 75 76  1  0  0  0
 75 85  1  0  0  0
 76 87  1  0  0  0
 77 78  2  0  0  0
 77 79  1  0  0  0
 77 86  1  0  0  0
 78148  1  0  0  0
 79 80  1  0  0  0
 79149  1  0  0  0
 79150  1  0  0  0
 80 81  1  0  0  0
 80151  1  0  0  0
 80152  1  0  0  0
 81 86  1  0  0  0
 81153  1  0  0  0
 81154  1  0  0  0
 82155  1  0  0  0
 82156  1  0  0  0
 82157  1  0  0  0
 83158  1  0  0  0
 83159  1  0  0  0
 83160  1  0  0  0
 84161  1  0  0  0
 84162  1  0  0  0
 84 86  1  0  0  0
 85163  1  0  0  0
 86164  1  0  0  0
M  CHG  1  86   1
M  ISO  4   1 100  68 101  78 101  85 100
M  END
> <chiral flag>
0

> <version>
0

> <s_m_source_file>
/data/baiqing/PycharmProjects/Reinvent-master-3.2/result/LINK_invent/BTK/process_docking_weight1_custom_product_contain_oxygen_bond_distance_aromatic_linkinvent_7_9_3/rearranged_h_0035.sdf

> <i_m_source_file_index>
17

> <r_mmod_Potential_Energy-OPLS-2005>
-41.1662178039551

> <r_mmod_Stretch_Energy-OPLS-2005>
94.2285308837891

> <r_mmod_Bend_Energy-OPLS-2005>
171.592361450195

> <r_mmod_Torsional_Energy-OPLS-2005>
247.268051147461

> <r_mmod_Improper_Torsional_Energy-OPLS-2005>
4.72570466995239

> <r_mmod_Van_der_Waal_Energy-OPLS-2005>
138.90202331543

> <r_mmod_Electrostatic_Energy-OPLS-2005>
-301.207733154297

> <r_mmod_Solvation_Energy-OPLS-2005>
-450.545989990234

> <b_mmod_Minimization_Converged-OPLS-2005>
0

> <r_mmod_RMS_Derivative-OPLS-2005>
0.758578717708588

$$$$
18
                    3D
 Structure written by MMmdl.
161170  0  0  1  0            999 V2000
  -30.6619  -14.6499   20.4861 C   0  0  0  0  0  0
  -30.4204  -12.4018   19.4583 C   0  0  0  0  0  0
  -29.5013  -12.4976   18.2239 C   0  0  0  0  0  0
  -28.0265  -12.3347   18.6393 C   0  0  0  0  0  0
  -27.6434  -13.2277   19.8508 C   0  0  2  0  0  0
  -28.6867  -13.1363   20.9847 C   0  0  0  0  0  0
  -25.2520  -13.8202   20.5689 C   0  0  0  0  0  0
  -24.1810  -13.0447   20.9210 C   0  0  0  0  0  0
  -24.6397  -11.6925   20.8752 C   0  0  0  0  0  0
  -23.9077  -10.4298   21.0411 C   0  0  0  0  0  0
  -24.3630   -9.4211   21.9188 C   0  0  0  0  0  0
  -23.6305   -8.2247   22.0753 C   0  0  0  0  0  0
  -22.4286   -8.0286   21.3543 C   0  0  0  0  0  0
  -21.9921   -9.0262   20.4647 C   0  0  0  0  0  0
  -22.7253  -10.2139   20.3061 C   0  0  0  0  0  0
  -21.6856   -6.0745   22.5282 C   0  0  0  0  0  0
  -21.4012   -6.5646   23.8217 C   0  0  0  0  0  0
  -21.3656   -5.6796   24.9178 C   0  0  0  0  0  0
  -21.6044   -4.3059   24.7227 C   0  0  0  0  0  0
  -21.8818   -3.8154   23.4347 C   0  0  0  0  0  0
  -21.9192   -4.6973   22.3402 C   0  0  0  0  0  0
  -22.7831  -13.5226   21.1865 C   0  0  0  0  0  0
  -22.1661   -4.2158   21.0978 F   0  0  0  0  0  0
  -21.5626   -3.4539   25.7739 F   0  0  0  0  0  0
  -29.9948  -13.4563   20.4029 N   0  0  0  0  0  0
  -26.2942  -12.9404   20.3283 N   0  0  0  0  0  0
  -25.9323  -11.6548   20.5757 N   0  0  0  0  0  0
  -22.0475  -12.8221   22.0424 N   0  0  0  0  0  0
  -25.4212  -15.1928   20.4099 N   0  0  0  0  0  0
  -31.8486  -14.7212   20.1587 O   0  0  0  0  0  0
  -21.6642   -6.8891   21.4244 O   0  0  0  0  0  0
  -22.3513  -14.5529   20.6707 O   0  0  0  0  0  0
  -24.6264  -31.8590   23.2013 C   0  0  0  0  0  0
  -25.9110  -32.4772   23.8344 C   0  0  1  0  0  0
  -27.2228  -27.3120   20.1080 C   0  0  0  0  0  0
  -25.5925  -33.8573   24.2273 N   0  0  0  0  0  0
  -23.4195  -30.4827   21.5439 C   0  0  2  0  0  0
  -24.8642  -28.9364   20.1079 C   0  0  0  0  0  0
  -22.7470  -29.4621   22.4928 C   0  0  0  0  0  0
  -18.0286  -28.1386   22.8488 C   0  0  0  0  0  0
  -24.1488  -36.7290   23.2640 C   0  0  0  0  0  0
  -25.9607  -30.7870   21.3724 C   0  0  0  0  0  0
  -26.0323  -29.4140   20.7131 C   0  0  0  0  0  0
  -27.2101  -28.6104   20.7080 C   0  0  0  0  0  0
  -26.0221  -26.8777   19.5004 C   0  0  0  0  0  0
  -24.8608  -27.6738   19.4959 C   0  0  0  0  0  0
  -23.6332  -29.8178   20.1586 C   0  0  0  0  0  0
  -25.4114  -36.3080   24.0331 C   0  0  1  0  0  0
  -20.5886  -28.3689   23.1284 C   0  0  2  0  0  0
  -20.6775  -26.9413   22.5410 C   0  0  0  0  0  0
  -19.5750  -26.6385   21.5213 C   0  0  0  0  0  0
  -18.1931  -26.7930   22.1625 C   0  0  0  0  0  0
  -19.1538  -28.8854   23.2883 C   0  0  0  0  0  0
  -18.9462  -30.1454   23.8900 C   0  0  0  0  0  0
  -17.6463  -30.6588   24.0563 C   0  0  0  0  0  0
  -25.9053  -34.9450   23.5103 C   0  0  0  0  0  0
  -16.5353  -29.9088   23.6330 C   0  0  0  0  0  0
  -16.7273  -28.6504   23.0352 C   0  0  0  0  0  0
  -26.4496  -31.6586   25.0718 C   0  0  0  0  0  0
  -25.3730  -31.3723   26.1445 C   0  0  0  0  0  0
  -27.0342  -30.3011   24.6173 C   0  0  0  0  0  0
  -27.6056  -32.4323   25.7486 C   0  0  0  0  0  0
  -27.5579  -37.1801   24.8467 C   0  0  0  0  0  0
  -21.4185  -29.3041   22.3675 N   0  0  0  0  0  0
  -26.4291  -37.3776   23.9409 N   0  0  0  0  0  0
  -24.6877  -31.0598   22.0963 N   0  0  0  0  0  0
  -23.4195  -28.8166   23.3009 O   0  0  0  0  0  0
  -28.3535  -26.4831   20.1927 O   0  0  0  0  0  0
  -26.5622  -34.8920   22.4671 O   0  0  0  0  0  0
  -23.5429  -32.1390   23.7346 O   0  0  0  0  0  0
  -29.3818  -20.4698   19.1123 C   0  0  0  0  0  0
  -29.6389  -19.4749   21.7105 C   0  0  0  0  0  0
  -29.8549  -18.5569   20.6301 C   0  0  0  0  0  0
  -29.3078  -21.4199   20.1682 C   0  0  0  0  0  0
  -29.6520  -19.0874   19.3269 C   0  0  0  0  0  0
  -29.4015  -20.8793   21.4834 C   0  0  0  0  0  0
  -28.4358  -23.8452   20.0627 C   0  0  0  0  0  0
  -31.0225  -24.6879   19.2166 C   0  0  0  0  0  0
  -29.8858  -25.5098   18.6203 C   0  0  0  0  0  0
  -30.6440  -23.2038   19.1470 C   0  0  0  0  0  0
  -28.5480  -25.2802   19.3490 C   0  0  2  0  0  0
  -29.7521  -18.9729   23.1453 C   0  0  0  0  0  0
  -30.5925  -17.1666   20.8369 C   0  0  0  0  0  0
  -29.3960  -22.8609   19.8523 N   0  0  0  0  0  0
  -29.9561  -15.8000   20.7539 N   0  0  0  0  0  0
  -27.4394  -23.6289   20.7596 O   0  0  0  0  0  0
  -29.8408  -18.0707   17.9428 Cl  0  0  0  0  0  0
  -29.3769  -21.9650   22.8332 Cl  0  0  0  0  0  0
  -31.4640  -12.5038   19.1566 H   0  0  0  0  0  0
  -30.3395  -11.4188   19.9253 H   0  0  0  0  0  0
  -29.7714  -11.7350   17.4921 H   0  0  0  0  0  0
  -29.6420  -13.4611   17.7313 H   0  0  0  0  0  0
  -27.8736  -11.2850   18.8924 H   0  0  0  0  0  0
  -27.3698  -12.5404   17.7933 H   0  0  0  0  0  0
  -27.6478  -14.2542   19.4831 H   0  0  0  0  0  0
  -28.7010  -12.1365   21.4202 H   0  0  0  0  0  0
  -28.4370  -13.8199   21.7976 H   0  0  0  0  0  0
  -25.2775   -9.5684   22.4762 H   0  0  0  0  0  0
  -24.0013   -7.4634   22.7470 H   0  0  0  0  0  0
  -21.0851   -8.8788   19.8952 H   0  0  0  0  0  0
  -22.3719  -10.9679   19.6171 H   0  0  0  0  0  0
  -21.2003   -7.6154   23.9728 H   0  0  0  0  0  0
  -21.1476   -6.0523   25.9084 H   0  0  0  0  0  0
  -22.0599   -2.7617   23.2846 H   0  0  0  0  0  0
  -22.4086  -11.9887   22.4822 H   0  0  0  0  0  0
  -21.1086  -13.1240   22.2608 H   0  0  0  0  0  0
  -24.6525  -15.8455   20.5186 H   0  0  0  0  0  0
  -26.2674  -15.6324   20.0710 H   0  0  0  0  0  0
  -26.7173  -32.5437   23.1087 H   0  0  0  0  0  0
  -25.0067  -33.9715   25.0414 H   0  0  0  0  0  0
  -22.7140  -31.3040   21.4014 H   0  0  0  0  0  0
  -23.3752  -35.9622   23.3307 H   0  0  0  0  0  0
  -24.3577  -36.8905   22.2053 H   0  0  0  0  0  0
  -23.7241  -37.6494   23.6658 H   0  0  0  0  0  0
  -26.0933  -31.5509   20.6048 H   0  0  0  0  0  0
  -26.8411  -30.8344   22.0019 H   0  0  0  0  0  0
  -28.1062  -28.9715   21.1933 H   0  0  0  0  0  0
  -25.9294  -25.8965   19.0628 H   0  0  0  0  0  0
  -23.9586  -27.2948   19.0355 H   0  0  0  0  0  0
  -23.7531  -30.5942   19.4023 H   0  0  0  0  0  0
  -22.7525  -29.2485   19.8560 H   0  0  0  0  0  0
  -25.1296  -36.1931   25.0825 H   0  0  0  0  0  0
  -20.9984  -28.3264   24.1401 H   0  0  0  0  0  0
  -20.5672  -26.2301   23.3610 H   0  0  0  0  0  0
  -21.6643  -26.7440   22.1205 H   0  0  0  0  0  0
  -19.6913  -25.6295   21.1240 H   0  0  0  0  0  0
  -19.6687  -27.3195   20.6743 H   0  0  0  0  0  0
  -17.4201  -26.6677   21.4028 H   0  0  0  0  0  0
  -18.0332  -26.0068   22.9019 H   0  0  0  0  0  0
  -19.7938  -30.7268   24.2272 H   0  0  0  0  0  0
  -17.5017  -31.6268   24.5164 H   0  0  0  0  0  0
  -15.5354  -30.2990   23.7651 H   0  0  0  0  0  0
  -15.8674  -28.0822   22.7068 H   0  0  0  0  0  0
  -24.5906  -30.7072   25.7772 H   0  0  0  0  0  0
  -24.8921  -32.2888   26.4872 H   0  0  0  0  0  0
  -25.8055  -30.8897   27.0217 H   0  0  0  0  0  0
  -26.2916  -29.6756   24.1205 H   0  0  0  0  0  0
  -27.4050  -29.7272   25.4676 H   0  0  0  0  0  0
  -27.8781  -30.4300   23.9391 H   0  0  0  0  0  0
  -27.2667  -33.3622   26.2065 H   0  0  0  0  0  0
  -28.3864  -32.6885   25.0312 H   0  0  0  0  0  0
  -28.0728  -31.8448   26.5399 H   0  0  0  0  0  0
  -28.2603  -38.0093   24.7509 H   0  0  0  0  0  0
  -28.1068  -36.2624   24.6300 H   0  0  0  0  0  0
  -27.2297  -37.1460   25.8870 H   0  0  0  0  0  0
  -20.9364  -29.8764   21.6887 H   0  0  0  0  0  0
  -26.0174  -38.2853   24.1403 H   0  0  0  0  0  0
  -29.3212  -20.8181   18.0917 H   0  0  0  0  0  0
  -31.2125  -24.9894   20.2481 H   0  0  0  0  0  0
  -31.9461  -24.8657   18.6641 H   0  0  0  0  0  0
  -29.7725  -25.2450   17.5680 H   0  0  0  0  0  0
  -30.1497  -26.5680   18.6279 H   0  0  0  0  0  0
  -31.4643  -22.6173   19.5645 H   0  0  0  0  0  0
  -30.5523  -22.9004   18.1030 H   0  0  0  0  0  0
  -27.8124  -25.2611   18.5490 H   0  0  0  0  0  0
  -29.5146  -17.9119   23.2216 H   0  0  0  0  0  0
  -29.0496  -19.4837   23.8036 H   0  0  0  0  0  0
  -30.7605  -19.1318   23.5282 H   0  0  0  0  0  0
  -31.1324  -17.1949   21.7830 H   0  0  0  0  0  0
  -31.4004  -17.1875   20.1031 H   0  0  0  0  0  0
  -28.9726  -15.7176   20.9600 H   0  0  0  0  0  0
  1 25  1  0  0  0
  1 30  2  0  0  0
  1 85  1  0  0  0
  2  3  1  0  0  0
  2 25  1  0  0  0
  2 89  1  0  0  0
  2 90  1  0  0  0
  3  4  1  0  0  0
  3 91  1  0  0  0
  3 92  1  0  0  0
  4  5  1  0  0  0
  4 93  1  0  0  0
  4 94  1  0  0  0
  5  6  1  0  0  0
  5 26  1  0  0  0
  5 95  1  0  0  0
  6 25  1  0  0  0
  6 96  1  0  0  0
  6 97  1  0  0  0
  7  8  2  0  0  0
  7 26  1  0  0  0
  7 29  1  0  0  0
  8  9  1  0  0  0
  8 22  1  0  0  0
  9 10  1  0  0  0
  9 27  2  0  0  0
 10 11  2  0  0  0
 10 15  1  0  0  0
 11 12  1  0  0  0
 11 98  1  0  0  0
 12 13  2  0  0  0
 12 99  1  0  0  0
 13 14  1  0  0  0
 13 31  1  0  0  0
 14 15  2  0  0  0
 14100  1  0  0  0
 15101  1  0  0  0
 16 17  2  0  0  0
 16 21  1  0  0  0
 16 31  1  0  0  0
 17 18  1  0  0  0
 17102  1  0  0  0
 18 19  2  0  0  0
 18103  1  0  0  0
 19 20  1  0  0  0
 19 24  1  0  0  0
 20 21  2  0  0  0
 20104  1  0  0  0
 21 23  1  0  0  0
 22 28  1  0  0  0
 22 32  2  0  0  0
 26 27  1  0  0  0
 28105  1  0  0  0
 28106  1  0  0  0
 29107  1  0  0  0
 29108  1  0  0  0
 33 34  1  0  0  0
 33 66  1  0  0  0
 33 70  2  0  0  0
 34 36  1  0  0  0
 34 59  1  0  0  0
 34109  1  0  0  0
 35 44  2  0  0  0
 35 45  1  0  0  0
 35 68  1  0  0  0
 36 56  1  0  0  0
 36110  1  0  0  0
 37 39  1  0  0  0
 37 47  1  0  0  0
 37 66  1  0  0  0
 37111  1  0  0  0
 38 43  2  0  0  0
 38 46  1  0  0  0
 38 47  1  0  0  0
 39 64  1  0  0  0
 39 67  2  0  0  0
 40 52  1  0  0  0
 40 53  2  0  0  0
 40 58  1  0  0  0
 41112  1  0  0  0
 41113  1  0  0  0
 41114  1  0  0  0
 41 48  1  0  0  0
 42 43  1  0  0  0
 42 66  1  0  0  0
 42115  1  0  0  0
 42116  1  0  0  0
 43 44  1  0  0  0
 44117  1  0  0  0
 45 46  2  0  0  0
 45118  1  0  0  0
 46119  1  0  0  0
 47120  1  0  0  0
 47121  1  0  0  0
 48 56  1  0  0  0
 48 65  1  0  0  0
 48122  1  0  0  0
 49 50  1  0  0  0
 49 53  1  0  0  0
 49 64  1  0  0  0
 49123  1  0  0  0
 50 51  1  0  0  0
 50124  1  0  0  0
 50125  1  0  0  0
 51 52  1  0  0  0
 51126  1  0  0  0
 51127  1  0  0  0
 52128  1  0  0  0
 52129  1  0  0  0
 53 54  1  0  0  0
 54 55  2  0  0  0
 54130  1  0  0  0
 55 57  1  0  0  0
 55131  1  0  0  0
 56 69  2  0  0  0
 57 58  2  0  0  0
 57132  1  0  0  0
 58133  1  0  0  0
 59 60  1  0  0  0
 59 61  1  0  0  0
 59 62  1  0  0  0
 60134  1  0  0  0
 60135  1  0  0  0
 60136  1  0  0  0
 61137  1  0  0  0
 61138  1  0  0  0
 61139  1  0  0  0
 62140  1  0  0  0
 62141  1  0  0  0
 62142  1  0  0  0
 63 65  1  0  0  0
 63143  1  0  0  0
 63144  1  0  0  0
 63145  1  0  0  0
 64146  1  0  0  0
 65147  1  0  0  0
 68 81  1  0  0  0
 71 74  2  0  0  0
 71 75  1  0  0  0
 71148  1  0  0  0
 72 73  1  0  0  0
 72 76  2  0  0  0
 72 82  1  0  0  0
 73 75  2  0  0  0
 73 83  1  0  0  0
 74 76  1  0  0  0
 74 84  1  0  0  0
 75 87  1  0  0  0
 76 88  1  0  0  0
 77 81  1  0  0  0
 77 84  1  0  0  0
 77 86  2  0  0  0
 78 79  1  0  0  0
 78 80  1  0  0  0
 78149  1  0  0  0
 78150  1  0  0  0
 79 81  1  0  0  0
 79151  1  0  0  0
 79152  1  0  0  0
 80 84  1  0  0  0
 80153  1  0  0  0
 80154  1  0  0  0
 81155  1  0  0  0
 82156  1  0  0  0
 82157  1  0  0  0
 82158  1  0  0  0
 83 85  1  0  0  0
 83159  1  0  0  0
 83160  1  0  0  0
 85161  1  0  0  0
M  ISO  4   1 100  68 101  81 101  85 100
M  END
> <chiral flag>
0

> <version>
0

> <s_m_source_file>
/data/baiqing/PycharmProjects/Reinvent-master-3.2/result/LINK_invent/BTK/process_docking_weight1_custom_product_contain_oxygen_bond_distance_aromatic_linkinvent_7_9_3/rearranged_h_0035.sdf

> <i_m_source_file_index>
18

> <r_mmod_Potential_Energy-OPLS-2005>
211.652359008789

> <r_mmod_Stretch_Energy-OPLS-2005>
96.5355758666992

> <r_mmod_Bend_Energy-OPLS-2005>
163.905670166016

> <r_mmod_Torsional_Energy-OPLS-2005>
301.887939453125

> <r_mmod_Improper_Torsional_Energy-OPLS-2005>
8.78116989135742

> <r_mmod_Van_der_Waal_Energy-OPLS-2005>
155.612075805664

> <r_mmod_Electrostatic_Energy-OPLS-2005>
-345.049285888672

> <r_mmod_Solvation_Energy-OPLS-2005>
-224.458160400391

> <b_mmod_Minimization_Converged-OPLS-2005>
0

> <r_mmod_RMS_Derivative-OPLS-2005>
0.661616563796997

$$$$
19
                    3D
 Structure written by MMmdl.
164173  0  0  1  0            999 V2000
  -30.6833  -14.4351   20.6282 C   0  0  0  0  0  0
  -30.4258  -12.2946   19.4247 C   0  0  0  0  0  0
  -29.5008  -12.5337   18.2134 C   0  0  0  0  0  0
  -28.0220  -12.3765   18.6199 C   0  0  0  0  0  0
  -27.6645  -13.2003   19.8862 C   0  0  2  0  0  0
  -28.6963  -12.9366   21.0060 C   0  0  0  0  0  0
  -25.2607  -13.8139   20.5707 C   0  0  0  0  0  0
  -24.1832  -13.0431   20.9152 C   0  0  0  0  0  0
  -24.6352  -11.6888   20.8696 C   0  0  0  0  0  0
  -23.9004  -10.4292   21.0388 C   0  0  0  0  0  0
  -24.3572   -9.4227   21.9181 C   0  0  0  0  0  0
  -23.6270   -8.2248   22.0751 C   0  0  0  0  0  0
  -22.4250   -8.0265   21.3546 C   0  0  0  0  0  0
  -21.9873   -9.0222   20.4645 C   0  0  0  0  0  0
  -22.7166  -10.2122   20.3044 C   0  0  0  0  0  0
  -21.6855   -6.0710   22.5265 C   0  0  0  0  0  0
  -21.4019   -6.5619   23.8194 C   0  0  0  0  0  0
  -21.3670   -5.6780   24.9162 C   0  0  0  0  0  0
  -21.6060   -4.3042   24.7220 C   0  0  0  0  0  0
  -21.8817   -3.8126   23.4343 C   0  0  0  0  0  0
  -21.9203   -4.6942   22.3399 C   0  0  0  0  0  0
  -22.7861  -13.5245   21.1835 C   0  0  0  0  0  0
  -22.1664   -4.2123   21.0978 F   0  0  0  0  0  0
  -21.5645   -3.4525   25.7744 F   0  0  0  0  0  0
  -30.0403  -13.2461   20.4779 N   0  0  0  0  0  0
  -26.3021  -12.9295   20.3395 N   0  0  0  0  0  0
  -25.9272  -11.6453   20.5727 N   0  0  0  0  0  0
  -22.0483  -12.8251   22.0390 N   0  0  0  0  0  0
  -25.4399  -15.1862   20.4173 N   0  0  0  0  0  0
  -31.7555  -14.6990   20.0699 O   0  0  0  0  0  0
  -21.6646   -6.8840   21.4223 O   0  0  0  0  0  0
  -22.3544  -14.5542   20.6662 O   0  0  0  0  0  0
  -24.6128  -31.8700   23.2083 C   0  0  0  0  0  0
  -25.9017  -32.4835   23.8357 C   0  0  1  0  0  0
  -27.2227  -27.4354   20.1063 C   0  0  0  0  0  0
  -25.5854  -33.8632   24.2285 N   0  0  0  0  0  0
  -23.3993  -30.4912   21.5549 C   0  0  2  0  0  0
  -24.8446  -28.9597   20.1153 C   0  0  0  0  0  0
  -22.7403  -29.4642   22.5041 C   0  0  0  0  0  0
  -18.0257  -28.1372   22.8521 C   0  0  0  0  0  0
  -24.1494  -36.7321   23.2637 C   0  0  0  0  0  0
  -25.9280  -30.8376   21.3603 C   0  0  0  0  0  0
  -26.0075  -29.4716   20.7081 C   0  0  0  0  0  0
  -27.2044  -28.7190   20.6981 C   0  0  0  0  0  0
  -26.0478  -26.9336   19.5120 C   0  0  0  0  0  0
  -24.8592  -27.6890   19.5116 C   0  0  0  0  0  0
  -23.6077  -29.8287   20.1683 C   0  0  0  0  0  0
  -25.4119  -36.3120   24.0329 C   0  0  1  0  0  0
  -20.5858  -28.3629   23.1368 C   0  0  2  0  0  0
  -20.6769  -26.9377   22.5446 C   0  0  0  0  0  0
  -19.5733  -26.6375   21.5262 C   0  0  0  0  0  0
  -18.1902  -26.7919   22.1655 C   0  0  0  0  0  0
  -19.1515  -28.8821   23.2937 C   0  0  0  0  0  0
  -18.9442  -30.1440   23.8927 C   0  0  0  0  0  0
  -17.6448  -30.6594   24.0553 C   0  0  0  0  0  0
  -25.9044  -34.9486   23.5118 C   0  0  0  0  0  0
  -16.5335  -29.9095   23.6321 C   0  0  0  0  0  0
  -16.7245  -28.6506   23.0352 C   0  0  0  0  0  0
  -26.4425  -31.6588   25.0676 C   0  0  0  0  0  0
  -25.3648  -31.3718   26.1386 C   0  0  0  0  0  0
  -27.0236  -30.3017   24.6048 C   0  0  0  0  0  0
  -27.6011  -32.4280   25.7440 C   0  0  0  0  0  0
  -27.5590  -37.1806   24.8458 C   0  0  0  0  0  0
  -21.4141  -29.2985   22.3769 N   0  0  0  0  0  0
  -26.4304  -37.3804   23.9398 N   0  0  0  0  0  0
  -24.6653  -31.0793   22.0992 N   0  0  0  0  0  0
  -23.4181  -28.8217   23.3104 O   0  0  0  0  0  0
  -28.3485  -26.6461   20.1280 O   0  0  0  0  0  0
  -26.5657  -34.8938   22.4714 O   0  0  0  0  0  0
  -23.5327  -32.1442   23.7484 O   0  0  0  0  0  0
  -29.5150  -18.5944   19.6469 C   0  0  0  0  0  0
  -30.0162  -17.3092   19.9383 C   0  0  0  0  0  0
  -28.3621  -18.6327   21.7863 C   0  0  0  0  0  0
  -28.6775  -19.2633   20.5635 C   0  0  0  0  0  0
  -28.8616  -17.3442   22.0833 C   0  0  0  0  0  0
  -29.6764  -16.6559   21.1478 C   0  0  0  0  0  0
  -28.2331  -23.0610   20.5128 C   0  0  0  0  0  0
  -30.9957  -22.7600   21.5118 C   0  0  0  0  0  0
  -30.1381  -23.9920   21.8572 C   0  0  0  0  0  0
  -30.3221  -21.7648   20.5431 C   0  0  0  0  0  0
  -29.0962  -24.3267   20.7729 C   0  0  2  0  0  0
  -28.5012  -16.7053   23.4134 C   0  0  0  0  0  0
  -28.0707  -20.6240   20.2082 C   0  0  0  0  0  0
  -28.2962  -25.6206   21.1387 C   0  0  0  0  0  0
  -28.8504  -21.8467   20.5168 N   0  0  0  0  0  0
  -30.0538  -15.3073   21.4335 N   0  0  0  0  0  0
  -27.0205  -23.1770   20.3080 O   0  0  0  0  0  0
  -31.4713  -12.3980   19.1342 H   0  0  0  0  0  0
  -30.3180  -11.2727   19.7893 H   0  0  0  0  0  0
  -29.7430  -11.8401   17.4080 H   0  0  0  0  0  0
  -29.6694  -13.5361   17.8148 H   0  0  0  0  0  0
  -27.8447  -11.3171   18.8108 H   0  0  0  0  0  0
  -27.3717  -12.6544   17.7902 H   0  0  0  0  0  0
  -27.7225  -14.2543   19.6163 H   0  0  0  0  0  0
  -28.6637  -11.8896   21.3095 H   0  0  0  0  0  0
  -28.4309  -13.4963   21.9033 H   0  0  0  0  0  0
  -25.2714   -9.5733   22.4765 H   0  0  0  0  0  0
  -24.0006   -7.4637   22.7459 H   0  0  0  0  0  0
  -21.0820   -8.8688   19.8942 H   0  0  0  0  0  0
  -22.3592  -10.9641   19.6158 H   0  0  0  0  0  0
  -21.1990   -7.6121   23.9686 H   0  0  0  0  0  0
  -21.1513   -6.0518   25.9070 H   0  0  0  0  0  0
  -22.0598   -2.7581   23.2849 H   0  0  0  0  0  0
  -22.4040  -11.9920   22.4839 H   0  0  0  0  0  0
  -21.1094  -13.1303   22.2528 H   0  0  0  0  0  0
  -24.6887  -15.8559   20.5405 H   0  0  0  0  0  0
  -26.3190  -15.6222   20.1642 H   0  0  0  0  0  0
  -26.7099  -32.5551   23.1132 H   0  0  0  0  0  0
  -24.9833  -33.9793   25.0302 H   0  0  0  0  0  0
  -22.6840  -31.3055   21.4216 H   0  0  0  0  0  0
  -23.3759  -35.9653   23.3311 H   0  0  0  0  0  0
  -24.3586  -36.8932   22.2049 H   0  0  0  0  0  0
  -23.7246  -37.6522   23.6659 H   0  0  0  0  0  0
  -26.0340  -31.6057   20.5923 H   0  0  0  0  0  0
  -26.8159  -30.8936   21.9772 H   0  0  0  0  0  0
  -28.1013  -29.1041   21.1623 H   0  0  0  0  0  0
  -26.0453  -25.9451   19.0741 H   0  0  0  0  0  0
  -23.9653  -27.2827   19.0580 H   0  0  0  0  0  0
  -23.7203  -30.6091   19.4156 H   0  0  0  0  0  0
  -22.7277  -29.2591   19.8658 H   0  0  0  0  0  0
  -25.1316  -36.1981   25.0828 H   0  0  0  0  0  0
  -20.9934  -28.3185   24.1496 H   0  0  0  0  0  0
  -20.5749  -26.2220   23.3618 H   0  0  0  0  0  0
  -21.6625  -26.7481   22.1181 H   0  0  0  0  0  0
  -19.6891  -25.6300   21.1254 H   0  0  0  0  0  0
  -19.6672  -27.3227   20.6829 H   0  0  0  0  0  0
  -17.4192  -26.6702   21.4027 H   0  0  0  0  0  0
  -18.0251  -26.0051   22.9034 H   0  0  0  0  0  0
  -19.7919  -30.7251   24.2299 H   0  0  0  0  0  0
  -17.5000  -31.6283   24.5127 H   0  0  0  0  0  0
  -15.5334  -30.3008   23.7620 H   0  0  0  0  0  0
  -15.8644  -28.0834   22.7049 H   0  0  0  0  0  0
  -24.5845  -30.7062   25.7681 H   0  0  0  0  0  0
  -24.8796  -32.2886   26.4746 H   0  0  0  0  0  0
  -25.7925  -30.8911   27.0186 H   0  0  0  0  0  0
  -26.2790  -29.6823   24.1031 H   0  0  0  0  0  0
  -27.3913  -29.7215   25.4517 H   0  0  0  0  0  0
  -27.8664  -30.4316   23.9256 H   0  0  0  0  0  0
  -27.2643  -33.3579   26.2036 H   0  0  0  0  0  0
  -28.3798  -32.6828   25.0240 H   0  0  0  0  0  0
  -28.0685  -31.8363   26.5317 H   0  0  0  0  0  0
  -28.2617  -38.0094   24.7523 H   0  0  0  0  0  0
  -28.1077  -36.2629   24.6281 H   0  0  0  0  0  0
  -27.2301  -37.1451   25.8857 H   0  0  0  0  0  0
  -20.9305  -29.8622   21.6928 H   0  0  0  0  0  0
  -26.0201  -38.2890   24.1387 H   0  0  0  0  0  0
  -29.7611  -19.0590   18.7021 H   0  0  0  0  0  0
  -30.6366  -16.8265   19.1986 H   0  0  0  0  0  0
  -27.7139  -19.1348   22.4905 H   0  0  0  0  0  0
  -31.2550  -22.2457   22.4385 H   0  0  0  0  0  0
  -31.9447  -23.0795   21.0803 H   0  0  0  0  0  0
  -30.7860  -24.8515   22.0363 H   0  0  0  0  0  0
  -29.6228  -23.8061   22.8013 H   0  0  0  0  0  0
  -30.6930  -20.7681   20.7793 H   0  0  0  0  0  0
  -30.6640  -21.9695   19.5264 H   0  0  0  0  0  0
  -29.6340  -24.5294   19.8468 H   0  0  0  0  0  0
  -27.9135  -17.3802   24.0370 H   0  0  0  0  0  0
  -29.4081  -16.4491   23.9622 H   0  0  0  0  0  0
  -27.9127  -15.8002   23.2638 H   0  0  0  0  0  0
  -27.0960  -20.6757   20.6972 H   0  0  0  0  0  0
  -27.8596  -20.6234   19.1369 H   0  0  0  0  0  0
  -28.7107  -26.0592   22.0470 H   0  0  0  0  0  0
  -27.2659  -25.3850   21.4131 H   0  0  0  0  0  0
  -29.4309  -14.8495   22.0814 H   0  0  0  0  0  0
  1 25  1  0  0  0
  1 30  2  0  0  0
  1 86  1  0  0  0
  2  3  1  0  0  0
  2 25  1  0  0  0
  2 88  1  0  0  0
  2 89  1  0  0  0
  3  4  1  0  0  0
  3 90  1  0  0  0
  3 91  1  0  0  0
  4  5  1  0  0  0
  4 92  1  0  0  0
  4 93  1  0  0  0
  5  6  1  0  0  0
  5 26  1  0  0  0
  5 94  1  0  0  0
  6 25  1  0  0  0
  6 95  1  0  0  0
  6 96  1  0  0  0
  7  8  2  0  0  0
  7 26  1  0  0  0
  7 29  1  0  0  0
  8  9  1  0  0  0
  8 22  1  0  0  0
  9 10  1  0  0  0
  9 27  2  0  0  0
 10 11  2  0  0  0
 10 15  1  0  0  0
 11 12  1  0  0  0
 11 97  1  0  0  0
 12 13  2  0  0  0
 12 98  1  0  0  0
 13 14  1  0  0  0
 13 31  1  0  0  0
 14 15  2  0  0  0
 14 99  1  0  0  0
 15100  1  0  0  0
 16 17  2  0  0  0
 16 21  1  0  0  0
 16 31  1  0  0  0
 17 18  1  0  0  0
 17101  1  0  0  0
 18 19  2  0  0  0
 18102  1  0  0  0
 19 20  1  0  0  0
 19 24  1  0  0  0
 20 21  2  0  0  0
 20103  1  0  0  0
 21 23  1  0  0  0
 22 28  1  0  0  0
 22 32  2  0  0  0
 26 27  1  0  0  0
 28104  1  0  0  0
 28105  1  0  0  0
 29106  1  0  0  0
 29107  1  0  0  0
 33 34  1  0  0  0
 33 66  1  0  0  0
 33 70  2  0  0  0
 34 36  1  0  0  0
 34 59  1  0  0  0
 34108  1  0  0  0
 35 44  2  0  0  0
 35 45  1  0  0  0
 35 68  1  0  0  0
 36 56  1  0  0  0
 36109  1  0  0  0
 37 39  1  0  0  0
 37 47  1  0  0  0
 37 66  1  0  0  0
 37110  1  0  0  0
 38 43  2  0  0  0
 38 46  1  0  0  0
 38 47  1  0  0  0
 39 64  1  0  0  0
 39 67  2  0  0  0
 40 52  1  0  0  0
 40 53  2  0  0  0
 40 58  1  0  0  0
 41111  1  0  0  0
 41112  1  0  0  0
 41113  1  0  0  0
 41 48  1  0  0  0
 42 43  1  0  0  0
 42 66  1  0  0  0
 42114  1  0  0  0
 42115  1  0  0  0
 43 44  1  0  0  0
 44116  1  0  0  0
 45 46  2  0  0  0
 45117  1  0  0  0
 46118  1  0  0  0
 47119  1  0  0  0
 47120  1  0  0  0
 48 56  1  0  0  0
 48 65  1  0  0  0
 48121  1  0  0  0
 49 50  1  0  0  0
 49 53  1  0  0  0
 49 64  1  0  0  0
 49122  1  0  0  0
 50 51  1  0  0  0
 50123  1  0  0  0
 50124  1  0  0  0
 51 52  1  0  0  0
 51125  1  0  0  0
 51126  1  0  0  0
 52127  1  0  0  0
 52128  1  0  0  0
 53 54  1  0  0  0
 54 55  2  0  0  0
 54129  1  0  0  0
 55 57  1  0  0  0
 55130  1  0  0  0
 56 69  2  0  0  0
 57 58  2  0  0  0
 57131  1  0  0  0
 58132  1  0  0  0
 59 60  1  0  0  0
 59 61  1  0  0  0
 59 62  1  0  0  0
 60133  1  0  0  0
 60134  1  0  0  0
 60135  1  0  0  0
 61136  1  0  0  0
 61137  1  0  0  0
 61138  1  0  0  0
 62139  1  0  0  0
 62140  1  0  0  0
 62141  1  0  0  0
 63 65  1  0  0  0
 63142  1  0  0  0
 63143  1  0  0  0
 63144  1  0  0  0
 64145  1  0  0  0
 65146  1  0  0  0
 68 84  1  0  0  0
 71 72  2  0  0  0
 71 74  1  0  0  0
 71147  1  0  0  0
 72 76  1  0  0  0
 72148  1  0  0  0
 73 74  2  0  0  0
 73 75  1  0  0  0
 73149  1  0  0  0
 74 83  1  0  0  0
 75 76  2  0  0  0
 75 82  1  0  0  0
 76 86  1  0  0  0
 77 81  1  0  0  0
 77 85  1  0  0  0
 77 87  2  0  0  0
 78 79  1  0  0  0
 78 80  1  0  0  0
 78150  1  0  0  0
 78151  1  0  0  0
 79 81  1  0  0  0
 79152  1  0  0  0
 79153  1  0  0  0
 80 85  1  0  0  0
 80154  1  0  0  0
 80155  1  0  0  0
 81 84  1  0  0  0
 81156  1  0  0  0
 82157  1  0  0  0
 82158  1  0  0  0
 82159  1  0  0  0
 83 85  1  0  0  0
 83160  1  0  0  0
 83161  1  0  0  0
 84162  1  0  0  0
 84163  1  0  0  0
 86164  1  0  0  0
M  ISO  4   1 100  68 101  84 101  86 100
M  END
> <chiral flag>
0

> <version>
0

> <s_m_source_file>
/data/baiqing/PycharmProjects/Reinvent-master-3.2/result/LINK_invent/BTK/process_docking_weight1_custom_product_contain_oxygen_bond_distance_aromatic_linkinvent_7_9_3/rearranged_h_0035.sdf

> <i_m_source_file_index>
19

> <r_mmod_Potential_Energy-OPLS-2005>
13.0743999481201

> <r_mmod_Stretch_Energy-OPLS-2005>
41.9727210998535

> <r_mmod_Bend_Energy-OPLS-2005>
101.360275268555

> <r_mmod_Torsional_Energy-OPLS-2005>
291.720825195312

> <r_mmod_Improper_Torsional_Energy-OPLS-2005>
4.85962629318237

> <r_mmod_Van_der_Waal_Energy-OPLS-2005>
170.019271850586

> <r_mmod_Electrostatic_Energy-OPLS-2005>
-389.989562988281

> <r_mmod_Solvation_Energy-OPLS-2005>
-218.687026977539

> <b_mmod_Minimization_Converged-OPLS-2005>
0

> <r_mmod_RMS_Derivative-OPLS-2005>
3.34039330482483

$$$$
20
                    3D
 Structure written by MMmdl.
173182  0  0  1  0            999 V2000
  -30.7248  -14.5056   20.5484 C   0  0  0  0  0  0
  -30.4168  -12.3250   19.4342 C   0  0  0  0  0  0
  -29.4913  -12.4943   18.2124 C   0  0  0  0  0  0
  -28.0160  -12.3509   18.6304 C   0  0  0  0  0  0
  -27.6568  -13.2156   19.8685 C   0  0  2  0  0  0
  -28.7031  -13.0496   20.9943 C   0  0  0  0  0  0
  -25.2579  -13.8183   20.5710 C   0  0  0  0  0  0
  -24.1840  -13.0444   20.9193 C   0  0  0  0  0  0
  -24.6414  -11.6916   20.8751 C   0  0  0  0  0  0
  -23.9088  -10.4294   21.0416 C   0  0  0  0  0  0
  -24.3631   -9.4209   21.9200 C   0  0  0  0  0  0
  -23.6300   -8.2239   22.0763 C   0  0  0  0  0  0
  -22.4289   -8.0278   21.3541 C   0  0  0  0  0  0
  -21.9930   -9.0262   20.4648 C   0  0  0  0  0  0
  -22.7258  -10.2140   20.3062 C   0  0  0  0  0  0
  -21.6854   -6.0742   22.5280 C   0  0  0  0  0  0
  -21.4018   -6.5647   23.8213 C   0  0  0  0  0  0
  -21.3658   -5.6792   24.9170 C   0  0  0  0  0  0
  -21.6035   -4.3053   24.7221 C   0  0  0  0  0  0
  -21.8823   -3.8153   23.4339 C   0  0  0  0  0  0
  -21.9196   -4.6968   22.3399 C   0  0  0  0  0  0
  -22.7858  -13.5231   21.1841 C   0  0  0  0  0  0
  -22.1663   -4.2157   21.0975 F   0  0  0  0  0  0
  -21.5625   -3.4543   25.7735 F   0  0  0  0  0  0
  -30.0283  -13.3403   20.4274 N   0  0  0  0  0  0
  -26.3023  -12.9375   20.3387 N   0  0  0  0  0  0
  -25.9349  -11.6523   20.5806 N   0  0  0  0  0  0
  -22.0505  -12.8214   22.0400 N   0  0  0  0  0  0
  -25.4279  -15.1902   20.4128 N   0  0  0  0  0  0
  -31.8689  -14.6365   20.1113 O   0  0  0  0  0  0
  -21.6639   -6.8882   21.4239 O   0  0  0  0  0  0
  -22.3542  -14.5537   20.6694 O   0  0  0  0  0  0
  -24.6202  -31.8661   23.2089 C   0  0  0  0  0  0
  -25.9082  -32.4814   23.8402 C   0  0  1  0  0  0
  -27.2209  -27.3855   20.1032 C   0  0  0  0  0  0
  -25.5945  -33.8613   24.2325 N   0  0  0  0  0  0
  -23.4061  -30.4926   21.5542 C   0  0  2  0  0  0
  -24.8482  -28.9603   20.1125 C   0  0  0  0  0  0
  -22.7436  -29.4660   22.5014 C   0  0  0  0  0  0
  -18.0272  -28.1384   22.8501 C   0  0  0  0  0  0
  -24.1489  -36.7297   23.2643 C   0  0  0  0  0  0
  -25.9418  -30.8203   21.3654 C   0  0  0  0  0  0
  -26.0157  -29.4552   20.7050 C   0  0  0  0  0  0
  -27.2057  -28.6797   20.6897 C   0  0  0  0  0  0
  -26.0223  -26.9179   19.5124 C   0  0  0  0  0  0
  -24.8504  -27.6943   19.5100 C   0  0  0  0  0  0
  -23.6106  -29.8303   20.1689 C   0  0  0  0  0  0
  -25.4108  -36.3086   24.0342 C   0  0  1  0  0  0
  -20.5872  -28.3678   23.1338 C   0  0  2  0  0  0
  -20.6789  -26.9418   22.5420 C   0  0  0  0  0  0
  -19.5758  -26.6378   21.5235 C   0  0  0  0  0  0
  -18.1924  -26.7935   22.1620 C   0  0  0  0  0  0
  -19.1520  -28.8853   23.2903 C   0  0  0  0  0  0
  -18.9446  -30.1468   23.8897 C   0  0  0  0  0  0
  -17.6441  -30.6590   24.0565 C   0  0  0  0  0  0
  -25.9053  -34.9470   23.5122 C   0  0  0  0  0  0
  -16.5335  -29.9078   23.6366 C   0  0  0  0  0  0
  -16.7264  -28.6501   23.0372 C   0  0  0  0  0  0
  -26.4467  -31.6632   25.0767 C   0  0  0  0  0  0
  -25.3712  -31.3738   26.1514 C   0  0  0  0  0  0
  -27.0373  -30.3105   24.6177 C   0  0  0  0  0  0
  -27.6030  -32.4393   25.7513 C   0  0  0  0  0  0
  -27.5577  -37.1776   24.8455 C   0  0  0  0  0  0
  -21.4157  -29.3042   22.3754 N   0  0  0  0  0  0
  -26.4276  -37.3783   23.9425 N   0  0  0  0  0  0
  -24.6758  -31.0744   22.1005 N   0  0  0  0  0  0
  -23.4195  -28.8199   23.3053 O   0  0  0  0  0  0
  -28.3806  -26.6123   20.1306 O   0  0  0  0  0  0
  -26.5578  -34.8906   22.4658 O   0  0  0  0  0  0
  -23.5394  -32.1422   23.7485 O   0  0  0  0  0  0
  -30.1630  -19.4212   21.2367 C   0  0  0  0  0  0
  -29.7987  -18.1142   21.6618 C   0  0  0  0  0  0
  -29.5305  -20.5935   21.7276 C   0  0  0  0  0  0
  -28.7488  -17.9843   22.6109 C   0  0  0  0  0  0
  -28.4415  -20.4397   22.6285 C   0  0  0  0  0  0
  -28.0248  -19.1374   23.0277 C   0  0  0  0  0  0
  -29.3827  -24.4070   20.8037 C   0  0  0  0  0  0
  -30.2707  -25.0173   21.6144 C   0  0  0  0  0  0
  -27.9278  -23.1935   18.4640 C   0  0  0  0  0  0
  -28.2760  -24.6901   18.5753 C   0  0  0  0  0  0
  -28.3092  -22.3644   19.7142 C   0  0  0  0  0  0
  -28.2662  -25.1608   20.0427 C   0  0  2  0  0  0
  -28.4305  -16.6299   23.2439 C   0  0  0  0  0  0
  -27.7392  -21.6616   23.2210 C   0  0  0  0  0  0
  -26.8163  -18.9681   23.9498 C   0  0  0  0  0  0
  -30.6538  -16.9289   21.1435 C   0  0  0  0  0  0
  -30.1476  -21.9865   21.4075 C   0  0  0  0  0  0
  -30.0596  -15.5777   21.0301 N   0  0  0  0  0  0
  -29.5011  -22.9198   20.4101 N   0  3  2  0  0  0
  -31.4624  -12.4071   19.1307 H   0  0  0  0  0  0
  -30.3124  -11.3253   19.8606 H   0  0  0  0  0  0
  -29.7327  -11.7529   17.4498 H   0  0  0  0  0  0
  -29.6524  -13.4727   17.7551 H   0  0  0  0  0  0
  -27.8399  -11.2970   18.8517 H   0  0  0  0  0  0
  -27.3604  -12.5999   17.7950 H   0  0  0  0  0  0
  -27.6847  -14.2548   19.5409 H   0  0  0  0  0  0
  -28.6867  -12.0326   21.3875 H   0  0  0  0  0  0
  -28.4679  -13.6964   21.8403 H   0  0  0  0  0  0
  -25.2777   -9.5675   22.4783 H   0  0  0  0  0  0
  -24.0001   -7.4631   22.7490 H   0  0  0  0  0  0
  -21.0857   -8.8794   19.8953 H   0  0  0  0  0  0
  -22.3738  -10.9687   19.6170 H   0  0  0  0  0  0
  -21.2019   -7.6154   23.9720 H   0  0  0  0  0  0
  -21.1472   -6.0523   25.9071 H   0  0  0  0  0  0
  -22.0607   -2.7619   23.2843 H   0  0  0  0  0  0
  -22.4133  -11.9873   22.4766 H   0  0  0  0  0  0
  -21.1131  -13.1240   22.2614 H   0  0  0  0  0  0
  -24.6580  -15.8418   20.5179 H   0  0  0  0  0  0
  -26.2773  -15.6355   20.0921 H   0  0  0  0  0  0
  -26.7161  -32.5496   23.1171 H   0  0  0  0  0  0
  -25.0203  -33.9787   25.0543 H   0  0  0  0  0  0
  -22.6950  -31.3115   21.4221 H   0  0  0  0  0  0
  -23.3763  -35.9620   23.3288 H   0  0  0  0  0  0
  -24.3563  -36.8927   22.2053 H   0  0  0  0  0  0
  -23.7230  -37.6489   23.6680 H   0  0  0  0  0  0
  -26.0605  -31.5881   20.6004 H   0  0  0  0  0  0
  -26.8266  -30.8660   21.9890 H   0  0  0  0  0  0
  -28.1047  -29.0590   21.1553 H   0  0  0  0  0  0
  -25.9510  -25.9434   19.0578 H   0  0  0  0  0  0
  -23.9480  -27.3084   19.0546 H   0  0  0  0  0  0
  -23.7025  -30.6073   19.4091 H   0  0  0  0  0  0
  -22.7323  -29.2480   19.8848 H   0  0  0  0  0  0
  -25.1263  -36.1938   25.0832 H   0  0  0  0  0  0
  -20.9929  -28.3260   24.1473 H   0  0  0  0  0  0
  -20.5771  -26.2274   23.3600 H   0  0  0  0  0  0
  -21.6648  -26.7519   22.1152 H   0  0  0  0  0  0
  -19.6929  -25.6286   21.1271 H   0  0  0  0  0  0
  -19.6717  -27.3188   20.6770 H   0  0  0  0  0  0
  -17.4203  -26.6745   21.3986 H   0  0  0  0  0  0
  -18.0263  -26.0064   22.8994 H   0  0  0  0  0  0
  -19.7918  -30.7298   24.2244 H   0  0  0  0  0  0
  -17.4988  -31.6270   24.5161 H   0  0  0  0  0  0
  -15.5331  -30.2944   23.7724 H   0  0  0  0  0  0
  -15.8673  -28.0816   22.7085 H   0  0  0  0  0  0
  -24.5853  -30.7131   25.7828 H   0  0  0  0  0  0
  -24.8938  -32.2900   26.5011 H   0  0  0  0  0  0
  -25.8019  -30.8845   27.0263 H   0  0  0  0  0  0
  -26.2969  -29.6780   24.1276 H   0  0  0  0  0  0
  -27.4229  -29.7414   25.4644 H   0  0  0  0  0  0
  -27.8727  -30.4471   23.9311 H   0  0  0  0  0  0
  -27.2652  -33.3696   26.2095 H   0  0  0  0  0  0
  -28.3815  -32.6973   25.0322 H   0  0  0  0  0  0
  -28.0739  -31.8543   26.5418 H   0  0  0  0  0  0
  -28.2556  -38.0103   24.7567 H   0  0  0  0  0  0
  -28.1104  -36.2642   24.6213 H   0  0  0  0  0  0
  -27.2293  -37.1345   25.8848 H   0  0  0  0  0  0
  -20.9345  -29.8765   21.6966 H   0  0  0  0  0  0
  -26.0164  -38.2857   24.1439 H   0  0  0  0  0  0
  -31.0062  -19.5287   20.5671 H   0  0  0  0  0  0
  -30.1811  -26.0750   21.8162 H   0  0  0  0  0  0
  -31.1039  -24.5072   22.0739 H   0  0  0  0  0  0
  -28.4169  -22.7897   17.5769 H   0  0  0  0  0  0
  -26.8572  -23.0763   18.2893 H   0  0  0  0  0  0
  -27.6100  -25.2693   17.9402 H   0  0  0  0  0  0
  -29.2726  -24.8585   18.1651 H   0  0  0  0  0  0
  -28.4797  -21.3340   19.4002 H   0  0  0  0  0  0
  -27.4767  -22.3414   20.4173 H   0  0  0  0  0  0
  -27.3357  -24.8574   20.5268 H   0  0  0  0  0  0
  -29.3376  -16.0532   23.4218 H   0  0  0  0  0  0
  -27.7558  -16.0570   22.6095 H   0  0  0  0  0  0
  -27.9726  -16.7168   24.2274 H   0  0  0  0  0  0
  -28.3023  -22.5874   23.1376 H   0  0  0  0  0  0
  -27.5629  -21.5271   24.2887 H   0  0  0  0  0  0
  -26.7772  -21.8129   22.7313 H   0  0  0  0  0  0
  -26.2255  -18.0975   23.6643 H   0  0  0  0  0  0
  -26.1234  -19.8080   23.9199 H   0  0  0  0  0  0
  -27.1456  -18.8364   24.9808 H   0  0  0  0  0  0
  -31.5316  -16.8601   21.7894 H   0  0  0  0  0  0
  -31.0335  -17.2013   20.1564 H   0  0  0  0  0  0
  -31.1592  -21.8228   21.0390 H   0  0  0  0  0  0
  -30.3090  -22.4810   22.3645 H   0  0  0  0  0  0
  -29.0993  -15.4598   21.3076 H   0  0  0  0  0  0
  -30.1898  -22.8964   19.6718 H   0  0  0  0  0  0
  1 25  1  0  0  0
  1 30  2  0  0  0
  1 88  1  0  0  0
  2  3  1  0  0  0
  2 25  1  0  0  0
  2 90  1  0  0  0
  2 91  1  0  0  0
  3  4  1  0  0  0
  3 92  1  0  0  0
  3 93  1  0  0  0
  4  5  1  0  0  0
  4 94  1  0  0  0
  4 95  1  0  0  0
  5  6  1  0  0  0
  5 26  1  0  0  0
  5 96  1  0  0  0
  6 25  1  0  0  0
  6 97  1  0  0  0
  6 98  1  0  0  0
  7  8  2  0  0  0
  7 26  1  0  0  0
  7 29  1  0  0  0
  8  9  1  0  0  0
  8 22  1  0  0  0
  9 10  1  0  0  0
  9 27  2  0  0  0
 10 11  2  0  0  0
 10 15  1  0  0  0
 11 12  1  0  0  0
 11 99  1  0  0  0
 12 13  2  0  0  0
 12100  1  0  0  0
 13 14  1  0  0  0
 13 31  1  0  0  0
 14 15  2  0  0  0
 14101  1  0  0  0
 15102  1  0  0  0
 16 17  2  0  0  0
 16 21  1  0  0  0
 16 31  1  0  0  0
 17 18  1  0  0  0
 17103  1  0  0  0
 18 19  2  0  0  0
 18104  1  0  0  0
 19 20  1  0  0  0
 19 24  1  0  0  0
 20 21  2  0  0  0
 20105  1  0  0  0
 21 23  1  0  0  0
 22 28  1  0  0  0
 22 32  2  0  0  0
 26 27  1  0  0  0
 28106  1  0  0  0
 28107  1  0  0  0
 29108  1  0  0  0
 29109  1  0  0  0
 33 34  1  0  0  0
 33 66  1  0  0  0
 33 70  2  0  0  0
 34 36  1  0  0  0
 34 59  1  0  0  0
 34110  1  0  0  0
 35 44  2  0  0  0
 35 45  1  0  0  0
 35 68  1  0  0  0
 36 56  1  0  0  0
 36111  1  0  0  0
 37 39  1  0  0  0
 37 47  1  0  0  0
 37 66  1  0  0  0
 37112  1  0  0  0
 38 43  2  0  0  0
 38 46  1  0  0  0
 38 47  1  0  0  0
 39 64  1  0  0  0
 39 67  2  0  0  0
 40 52  1  0  0  0
 40 53  2  0  0  0
 40 58  1  0  0  0
 41113  1  0  0  0
 41114  1  0  0  0
 41115  1  0  0  0
 41 48  1  0  0  0
 42 43  1  0  0  0
 42 66  1  0  0  0
 42116  1  0  0  0
 42117  1  0  0  0
 43 44  1  0  0  0
 44118  1  0  0  0
 45 46  2  0  0  0
 45119  1  0  0  0
 46120  1  0  0  0
 47121  1  0  0  0
 47122  1  0  0  0
 48 56  1  0  0  0
 48 65  1  0  0  0
 48123  1  0  0  0
 49 50  1  0  0  0
 49 53  1  0  0  0
 49 64  1  0  0  0
 49124  1  0  0  0
 50 51  1  0  0  0
 50125  1  0  0  0
 50126  1  0  0  0
 51 52  1  0  0  0
 51127  1  0  0  0
 51128  1  0  0  0
 52129  1  0  0  0
 52130  1  0  0  0
 53 54  1  0  0  0
 54 55  2  0  0  0
 54131  1  0  0  0
 55 57  1  0  0  0
 55132  1  0  0  0
 56 69  2  0  0  0
 57 58  2  0  0  0
 57133  1  0  0  0
 58134  1  0  0  0
 59 60  1  0  0  0
 59 61  1  0  0  0
 59 62  1  0  0  0
 60135  1  0  0  0
 60136  1  0  0  0
 60137  1  0  0  0
 61138  1  0  0  0
 61139  1  0  0  0
 61140  1  0  0  0
 62141  1  0  0  0
 62142  1  0  0  0
 62143  1  0  0  0
 63 65  1  0  0  0
 63144  1  0  0  0
 63145  1  0  0  0
 63146  1  0  0  0
 64147  1  0  0  0
 65148  1  0  0  0
 68 82  1  0  0  0
 71 72  2  0  0  0
 71 73  1  0  0  0
 71149  1  0  0  0
 72 74  1  0  0  0
 72 86  1  0  0  0
 73 75  2  0  0  0
 73 87  1  0  0  0
 74 76  2  0  0  0
 74 83  1  0  0  0
 75 76  1  0  0  0
 75 84  1  0  0  0
 76 85  1  0  0  0
 77 78  2  0  0  0
 77 82  1  0  0  0
 77 89  1  0  0  0
 78150  1  0  0  0
 78151  1  0  0  0
 79 80  1  0  0  0
 79 81  1  0  0  0
 79152  1  0  0  0
 79153  1  0  0  0
 80 82  1  0  0  0
 80154  1  0  0  0
 80155  1  0  0  0
 81 89  1  0  0  0
 81156  1  0  0  0
 81157  1  0  0  0
 82158  1  0  0  0
 83159  1  0  0  0
 83160  1  0  0  0
 83161  1  0  0  0
 84162  1  0  0  0
 84163  1  0  0  0
 84164  1  0  0  0
 85165  1  0  0  0
 85166  1  0  0  0
 85167  1  0  0  0
 86 88  1  0  0  0
 86168  1  0  0  0
 86169  1  0  0  0
 87170  1  0  0  0
 87171  1  0  0  0
 87 89  1  0  0  0
 88172  1  0  0  0
 89173  1  0  0  0
M  CHG  1  89   1
M  ISO  4   1 100  68 101  82 101  88 100
M  END
> <chiral flag>
0

> <version>
0

> <s_m_source_file>
/data/baiqing/PycharmProjects/Reinvent-master-3.2/result/LINK_invent/BTK/process_docking_weight1_custom_product_contain_oxygen_bond_distance_aromatic_linkinvent_7_9_3/rearranged_h_0035.sdf

> <i_m_source_file_index>
20

> <r_mmod_Potential_Energy-OPLS-2005>
-149.324813842773

> <r_mmod_Stretch_Energy-OPLS-2005>
61.0912971496582

> <r_mmod_Bend_Energy-OPLS-2005>
135.476837158203

> <r_mmod_Torsional_Energy-OPLS-2005>
228.589996337891

> <r_mmod_Improper_Torsional_Energy-OPLS-2005>
4.42925262451172

> <r_mmod_Van_der_Waal_Energy-OPLS-2005>
180.513442993164

> <r_mmod_Electrostatic_Energy-OPLS-2005>
-360.462371826172

> <r_mmod_Solvation_Energy-OPLS-2005>
-420.668701171875

> <b_mmod_Minimization_Converged-OPLS-2005>
0

> <r_mmod_RMS_Derivative-OPLS-2005>
2.69226503372192

$$$$
21
                    3D
 Structure written by MMmdl.
150158  0  0  1  0            999 V2000
  -30.5444  -14.9819   20.3329 C   0  0  0  0  0  0
  -30.4443  -12.5921   19.5009 C   0  0  0  0  0  0
  -29.5246  -12.4863   18.2611 C   0  0  0  0  0  0
  -28.0547  -12.2806   18.6812 C   0  0  0  0  0  0
  -27.6166  -13.2247   19.8306 C   0  0  2  0  0  0
  -28.6695  -13.3245   20.9525 C   0  0  0  0  0  0
  -25.2468  -13.8131   20.5777 C   0  0  0  0  0  0
  -24.1756  -13.0392   20.9258 C   0  0  0  0  0  0
  -24.6344  -11.6867   20.8792 C   0  0  0  0  0  0
  -23.9027  -10.4261   21.0433 C   0  0  0  0  0  0
  -24.3591   -9.4179   21.9203 C   0  0  0  0  0  0
  -23.6274   -8.2213   22.0758 C   0  0  0  0  0  0
  -22.4258   -8.0259   21.3543 C   0  0  0  0  0  0
  -21.9889   -9.0231   20.4646 C   0  0  0  0  0  0
  -22.7211  -10.2113   20.3067 C   0  0  0  0  0  0
  -21.6843   -6.0723   22.5279 C   0  0  0  0  0  0
  -21.4007   -6.5632   23.8211 C   0  0  0  0  0  0
  -21.3658   -5.6788   24.9176 C   0  0  0  0  0  0
  -21.6046   -4.3051   24.7228 C   0  0  0  0  0  0
  -21.8820   -3.8139   23.4351 C   0  0  0  0  0  0
  -21.9189   -4.6952   22.3405 C   0  0  0  0  0  0
  -22.7786  -13.5197   21.1892 C   0  0  0  0  0  0
  -22.1659   -4.2138   21.0983 F   0  0  0  0  0  0
  -21.5632   -3.4537   25.7743 F   0  0  0  0  0  0
  -29.9485  -13.7166   20.3425 N   0  0  0  0  0  0
  -26.2843  -12.9285   20.3311 N   0  0  0  0  0  0
  -25.9268  -11.6449   20.5799 N   0  0  0  0  0  0
  -22.0419  -12.8200   22.0445 N   0  0  0  0  0  0
  -25.4191  -15.1862   20.4229 N   0  0  0  0  0  0
  -31.7751  -15.0047   20.2322 O   0  0  0  0  0  0
  -21.6624   -6.8859   21.4238 O   0  0  0  0  0  0
  -22.3491  -14.5505   20.6726 O   0  0  0  0  0  0
  -24.6430  -31.8436   23.1881 C   0  0  0  0  0  0
  -25.9202  -32.4693   23.8269 C   0  0  1  0  0  0
  -27.2218  -27.1376   20.1521 C   0  0  0  0  0  0
  -25.5950  -33.8500   24.2185 N   0  0  0  0  0  0
  -23.4472  -30.4623   21.5331 C   0  0  2  0  0  0
  -24.8984  -28.8894   20.1087 C   0  0  0  0  0  0
  -22.7567  -29.4541   22.4856 C   0  0  0  0  0  0
  -18.0304  -28.1397   22.8478 C   0  0  0  0  0  0
  -24.1492  -36.7255   23.2643 C   0  0  0  0  0  0
  -26.0026  -30.7175   21.3876 C   0  0  0  0  0  0
  -26.0745  -29.3288   20.7294 C   0  0  0  0  0  0
  -27.2356  -28.4685   20.7352 C   0  0  0  0  0  0
  -26.0216  -26.8026   19.4857 C   0  0  0  0  0  0
  -24.8849  -27.6399   19.4711 C   0  0  0  0  0  0
  -23.6741  -29.7906   20.1525 C   0  0  0  0  0  0
  -25.4124  -36.3031   24.0315 C   0  0  1  0  0  0
  -20.5917  -28.3722   23.1236 C   0  0  2  0  0  0
  -20.6788  -26.9426   22.5405 C   0  0  0  0  0  0
  -19.5762  -26.6382   21.5213 C   0  0  0  0  0  0
  -18.1943  -26.7936   22.1624 C   0  0  0  0  0  0
  -19.1561  -28.8878   23.2849 C   0  0  0  0  0  0
  -18.9477  -30.1474   23.8875 C   0  0  0  0  0  0
  -17.6474  -30.6593   24.0560 C   0  0  0  0  0  0
  -25.9073  -34.9406   23.5060 C   0  0  0  0  0  0
  -16.5364  -29.9086   23.6337 C   0  0  0  0  0  0
  -16.7289  -28.6505   23.0357 C   0  0  0  0  0  0
  -26.4526  -31.6565   25.0712 C   0  0  0  0  0  0
  -25.3710  -31.3754   26.1406 C   0  0  0  0  0  0
  -27.0396  -30.2961   24.6298 C   0  0  0  0  0  0
  -27.6050  -32.4337   25.7501 C   0  0  0  0  0  0
  -27.5575  -37.1785   24.8466 C   0  0  0  0  0  0
  -21.4258  -29.3046   22.3606 N   0  0  0  0  0  0
  -26.4287  -37.3745   23.9407 N   0  0  0  0  0  0
  -24.7172  -31.0291   22.0914 N   0  0  0  0  0  0
  -23.4209  -28.8092   23.3011 O   0  0  0  0  0  0
  -28.2748  -26.1531   20.2412 O   0  0  0  0  0  0
  -26.5661  -34.8904   22.4640 O   0  0  0  0  0  0
  -23.5548  -32.1312   23.7100 O   0  0  0  0  0  0
  -28.9059  -16.2706   18.8708 C   0  0  0  0  0  0
  -28.1699  -17.3606   18.3868 C   0  0  0  0  0  0
  -29.7475  -16.3464   19.9949 C   0  0  0  0  0  0
  -29.1736  -18.9660   19.9857 C   0  0  0  0  0  0
  -28.2673  -18.6568   18.9220 C   0  0  0  0  0  0
  -29.8928  -17.7489   20.5093 C   0  0  0  0  0  0
  -28.9455  -23.2928   20.4647 C   0  0  0  0  0  0
  -28.6160  -21.7104   19.9800 C   0  0  0  0  0  0
  -28.0252  -24.6335   19.9955 C   0  0  0  0  0  0
  -29.3337  -20.3890   20.4461 N   0  0  0  0  0  0
  -27.2201  -19.8036   18.1566 Cl  0  0  0  0  0  0
  -30.9961  -18.0095   21.8150 Cl  0  0  0  0  0  0
  -31.4768  -12.7476   19.1840 H   0  0  0  0  0  0
  -30.4424  -11.6598   20.0678 H   0  0  0  0  0  0
  -29.8464  -11.6581   17.6283 H   0  0  0  0  0  0
  -29.6204  -13.3820   17.6482 H   0  0  0  0  0  0
  -27.9550  -11.2447   19.0074 H   0  0  0  0  0  0
  -27.3926  -12.3915   17.8216 H   0  0  0  0  0  0
  -27.5186  -14.1992   19.3772 H   0  0  0  0  0  0
  -28.7664  -12.3778   21.4857 H   0  0  0  0  0  0
  -28.3670  -14.0692   21.6905 H   0  0  0  0  0  0
  -25.2734   -9.5658   22.4779 H   0  0  0  0  0  0
  -23.9983   -7.4601   22.7473 H   0  0  0  0  0  0
  -21.0822   -8.8748   19.8950 H   0  0  0  0  0  0
  -22.3673  -10.9657   19.6180 H   0  0  0  0  0  0
  -21.1997   -7.6140   23.9711 H   0  0  0  0  0  0
  -21.1483   -6.0519   25.9078 H   0  0  0  0  0  0
  -22.0601   -2.7601   23.2854 H   0  0  0  0  0  0
  -22.4023  -11.9863   22.4844 H   0  0  0  0  0  0
  -21.1038  -13.1235   22.2638 H   0  0  0  0  0  0
  -24.6571  -15.8437   20.5467 H   0  0  0  0  0  0
  -26.2800  -15.6285   20.1277 H   0  0  0  0  0  0
  -26.7266  -32.5301   23.0996 H   0  0  0  0  0  0
  -25.0075  -33.9614   25.0318 H   0  0  0  0  0  0
  -22.7497  -31.2881   21.3781 H   0  0  0  0  0  0
  -23.3758  -35.9582   23.3293 H   0  0  0  0  0  0
  -24.3575  -36.8900   22.2059 H   0  0  0  0  0  0
  -23.7243  -37.6446   23.6689 H   0  0  0  0  0  0
  -26.1584  -31.4720   20.6153 H   0  0  0  0  0  0
  -26.8728  -30.7678   22.0305 H   0  0  0  0  0  0
  -28.1292  -28.7982   21.2464 H   0  0  0  0  0  0
  -25.9275  -25.8489   18.9881 H   0  0  0  0  0  0
  -23.9882  -27.3000   18.9712 H   0  0  0  0  0  0
  -23.8097  -30.5647   19.3962 H   0  0  0  0  0  0
  -22.7894  -29.2315   19.8426 H   0  0  0  0  0  0
  -25.1314  -36.1857   25.0807 H   0  0  0  0  0  0
  -21.0009  -28.3315   24.1357 H   0  0  0  0  0  0
  -20.5683  -26.2336   23.3625 H   0  0  0  0  0  0
  -21.6654  -26.7432   22.1202 H   0  0  0  0  0  0
  -19.6923  -25.6287   21.1258 H   0  0  0  0  0  0
  -19.6699  -27.3179   20.6733 H   0  0  0  0  0  0
  -17.4212  -26.6680   21.4028 H   0  0  0  0  0  0
  -18.0342  -26.0083   22.9026 H   0  0  0  0  0  0
  -19.7952  -30.7296   24.2236 H   0  0  0  0  0  0
  -17.5026  -31.6271   24.5166 H   0  0  0  0  0  0
  -15.5364  -30.2981   23.7674 H   0  0  0  0  0  0
  -15.8689  -28.0815   22.7086 H   0  0  0  0  0  0
  -24.5897  -30.7093   25.7727 H   0  0  0  0  0  0
  -24.8889  -32.2935   26.4772 H   0  0  0  0  0  0
  -25.7992  -30.8967   27.0222 H   0  0  0  0  0  0
  -26.3016  -29.6679   24.1296 H   0  0  0  0  0  0
  -27.4000  -29.7266   25.4874 H   0  0  0  0  0  0
  -27.8927  -30.4199   23.9623 H   0  0  0  0  0  0
  -27.2637  -33.3657   26.2019 H   0  0  0  0  0  0
  -28.3893  -32.6867   25.0354 H   0  0  0  0  0  0
  -28.0683  -31.8503   26.5468 H   0  0  0  0  0  0
  -28.2586  -38.0087   24.7510 H   0  0  0  0  0  0
  -28.1078  -36.2616   24.6297 H   0  0  0  0  0  0
  -27.2290  -37.1437   25.8868 H   0  0  0  0  0  0
  -20.9471  -29.8755   21.6780 H   0  0  0  0  0  0
  -26.0153  -38.2812   24.1410 H   0  0  0  0  0  0
  -28.8352  -15.3505   18.3156 H   0  0  0  0  0  0
  -27.5149  -17.2003   17.5422 H   0  0  0  0  0  0
  -29.9737  -23.5024   20.1696 H   0  0  0  0  0  0
  -28.9625  -23.2977   21.5545 H   0  0  0  0  0  0
  -28.7209  -21.7406   18.8959 H   0  0  0  0  0  0
  -27.5540  -21.5566   20.1754 H   0  0  0  0  0  0
  -27.0326  -24.4315   20.3987 H   0  0  0  0  0  0
  -27.9108  -24.5452   18.9146 H   0  0  0  0  0  0
  -30.0040  -20.5028   21.2015 H   0  0  0  0  0  0
  1 25  1  0  0  0
  1 30  2  0  0  0
  1 73  1  0  0  0
  2  3  1  0  0  0
  2 25  1  0  0  0
  2 83  1  0  0  0
  2 84  1  0  0  0
  3  4  1  0  0  0
  3 85  1  0  0  0
  3 86  1  0  0  0
  4  5  1  0  0  0
  4 87  1  0  0  0
  4 88  1  0  0  0
  5  6  1  0  0  0
  5 26  1  0  0  0
  5 89  1  0  0  0
  6 25  1  0  0  0
  6 90  1  0  0  0
  6 91  1  0  0  0
  7  8  2  0  0  0
  7 26  1  0  0  0
  7 29  1  0  0  0
  8  9  1  0  0  0
  8 22  1  0  0  0
  9 10  1  0  0  0
  9 27  2  0  0  0
 10 11  2  0  0  0
 10 15  1  0  0  0
 11 12  1  0  0  0
 11 92  1  0  0  0
 12 13  2  0  0  0
 12 93  1  0  0  0
 13 14  1  0  0  0
 13 31  1  0  0  0
 14 15  2  0  0  0
 14 94  1  0  0  0
 15 95  1  0  0  0
 16 17  2  0  0  0
 16 21  1  0  0  0
 16 31  1  0  0  0
 17 18  1  0  0  0
 17 96  1  0  0  0
 18 19  2  0  0  0
 18 97  1  0  0  0
 19 20  1  0  0  0
 19 24  1  0  0  0
 20 21  2  0  0  0
 20 98  1  0  0  0
 21 23  1  0  0  0
 22 28  1  0  0  0
 22 32  2  0  0  0
 26 27  1  0  0  0
 28 99  1  0  0  0
 28100  1  0  0  0
 29101  1  0  0  0
 29102  1  0  0  0
 33 34  1  0  0  0
 33 66  1  0  0  0
 33 70  2  0  0  0
 34 36  1  0  0  0
 34 59  1  0  0  0
 34103  1  0  0  0
 35 44  2  0  0  0
 35 45  1  0  0  0
 35 68  1  0  0  0
 36 56  1  0  0  0
 36104  1  0  0  0
 37 39  1  0  0  0
 37 47  1  0  0  0
 37 66  1  0  0  0
 37105  1  0  0  0
 38 43  2  0  0  0
 38 46  1  0  0  0
 38 47  1  0  0  0
 39 64  1  0  0  0
 39 67  2  0  0  0
 40 52  1  0  0  0
 40 53  2  0  0  0
 40 58  1  0  0  0
 41106  1  0  0  0
 41107  1  0  0  0
 41108  1  0  0  0
 41 48  1  0  0  0
 42 43  1  0  0  0
 42 66  1  0  0  0
 42109  1  0  0  0
 42110  1  0  0  0
 43 44  1  0  0  0
 44111  1  0  0  0
 45 46  2  0  0  0
 45112  1  0  0  0
 46113  1  0  0  0
 47114  1  0  0  0
 47115  1  0  0  0
 48 56  1  0  0  0
 48 65  1  0  0  0
 48116  1  0  0  0
 49 50  1  0  0  0
 49 53  1  0  0  0
 49 64  1  0  0  0
 49117  1  0  0  0
 50 51  1  0  0  0
 50118  1  0  0  0
 50119  1  0  0  0
 51 52  1  0  0  0
 51120  1  0  0  0
 51121  1  0  0  0
 52122  1  0  0  0
 52123  1  0  0  0
 53 54  1  0  0  0
 54 55  2  0  0  0
 54124  1  0  0  0
 55 57  1  0  0  0
 55125  1  0  0  0
 56 69  2  0  0  0
 57 58  2  0  0  0
 57126  1  0  0  0
 58127  1  0  0  0
 59 60  1  0  0  0
 59 61  1  0  0  0
 59 62  1  0  0  0
 60128  1  0  0  0
 60129  1  0  0  0
 60130  1  0  0  0
 61131  1  0  0  0
 61132  1  0  0  0
 61133  1  0  0  0
 62134  1  0  0  0
 62135  1  0  0  0
 62136  1  0  0  0
 63 65  1  0  0  0
 63137  1  0  0  0
 63138  1  0  0  0
 63139  1  0  0  0
 64140  1  0  0  0
 65141  1  0  0  0
 68 79  1  0  0  0
 71 72  2  0  0  0
 71 73  1  0  0  0
 71142  1  0  0  0
 72 75  1  0  0  0
 72143  1  0  0  0
 73 76  2  0  0  0
 74 75  2  0  0  0
 74 76  1  0  0  0
 74 80  1  0  0  0
 75 81  1  0  0  0
 76 82  1  0  0  0
 77 78  1  0  0  0
 77 79  1  0  0  0
 77144  1  0  0  0
 77145  1  0  0  0
 78 80  1  0  0  0
 78146  1  0  0  0
 78147  1  0  0  0
 79148  1  0  0  0
 79149  1  0  0  0
 80150  1  0  0  0
M  ISO  4   1 100  68 101  73 100  79 101
M  END
> <chiral flag>
0

> <version>
0

> <s_m_source_file>
/data/baiqing/PycharmProjects/Reinvent-master-3.2/result/LINK_invent/BTK/process_docking_weight1_custom_product_contain_oxygen_bond_distance_aromatic_linkinvent_7_9_3/rearranged_h_0035.sdf

> <i_m_source_file_index>
21

> <r_mmod_Potential_Energy-OPLS-2005>
655.426879882812

> <r_mmod_Stretch_Energy-OPLS-2005>
272.297088623047

> <r_mmod_Bend_Energy-OPLS-2005>
266.913726806641

> <r_mmod_Torsional_Energy-OPLS-2005>
208.743743896484

> <r_mmod_Improper_Torsional_Energy-OPLS-2005>
12.7094049453735

> <r_mmod_Van_der_Waal_Energy-OPLS-2005>
140.83186340332

> <r_mmod_Electrostatic_Energy-OPLS-2005>
-256.073120117188

> <r_mmod_Solvation_Energy-OPLS-2005>
-202.197113037109

> <b_mmod_Minimization_Converged-OPLS-2005>
0

> <r_mmod_RMS_Derivative-OPLS-2005>
0.21548143029213

$$$$
22
                    3D
 Structure written by MMmdl.
167176  0  0  1  0            999 V2000
  -30.5883  -14.6750   20.4841 C   0  0  0  0  0  0
  -30.4511  -12.4130   19.4451 C   0  0  0  0  0  0
  -29.5117  -12.5073   18.2203 C   0  0  0  0  0  0
  -28.0337  -12.3433   18.6322 C   0  0  0  0  0  0
  -27.6543  -13.2129   19.8601 C   0  0  2  0  0  0
  -28.7007  -13.0682   20.9888 C   0  0  0  0  0  0
  -25.2594  -13.8140   20.5725 C   0  0  0  0  0  0
  -24.1850  -13.0421   20.9217 C   0  0  0  0  0  0
  -24.6397  -11.6888   20.8743 C   0  0  0  0  0  0
  -23.9064  -10.4274   21.0394 C   0  0  0  0  0  0
  -24.3597   -9.4190   21.9189 C   0  0  0  0  0  0
  -23.6254   -8.2240   22.0770 C   0  0  0  0  0  0
  -22.4245   -8.0275   21.3554 C   0  0  0  0  0  0
  -21.9873   -9.0264   20.4676 C   0  0  0  0  0  0
  -22.7220  -10.2123   20.3072 C   0  0  0  0  0  0
  -21.6858   -6.0726   22.5277 C   0  0  0  0  0  0
  -21.4023   -6.5635   23.8207 C   0  0  0  0  0  0
  -21.3649   -5.6786   24.9170 C   0  0  0  0  0  0
  -21.6032   -4.3050   24.7217 C   0  0  0  0  0  0
  -21.8821   -3.8144   23.4340 C   0  0  0  0  0  0
  -21.9203   -4.6958   22.3400 C   0  0  0  0  0  0
  -22.7878  -13.5257   21.1852 C   0  0  0  0  0  0
  -22.1666   -4.2149   21.0975 F   0  0  0  0  0  0
  -21.5613   -3.4531   25.7722 F   0  0  0  0  0  0
  -30.0130  -13.4288   20.4244 N   0  0  0  0  0  0
  -26.3000  -12.9319   20.3295 N   0  0  0  0  0  0
  -25.9324  -11.6477   20.5720 N   0  0  0  0  0  0
  -22.0457  -12.8291   22.0399 N   0  0  0  0  0  0
  -25.4340  -15.1867   20.4186 N   0  0  0  0  0  0
  -31.7489  -14.8655   20.1097 O   0  0  0  0  0  0
  -21.6618   -6.8868   21.4237 O   0  0  0  0  0  0
  -22.3598  -14.5574   20.6688 O   0  0  0  0  0  0
  -24.6291  -31.8565   23.2002 C   0  0  0  0  0  0
  -25.9142  -32.4748   23.8340 C   0  0  1  0  0  0
  -27.2306  -27.2958   20.1211 C   0  0  0  0  0  0
  -25.5953  -33.8556   24.2285 N   0  0  0  0  0  0
  -23.4228  -30.4786   21.5432 C   0  0  2  0  0  0
  -24.8713  -28.9281   20.1132 C   0  0  0  0  0  0
  -22.7488  -29.4603   22.4933 C   0  0  0  0  0  0
  -18.0273  -28.1380   22.8460 C   0  0  0  0  0  0
  -24.1495  -36.7275   23.2634 C   0  0  0  0  0  0
  -25.9663  -30.7777   21.3776 C   0  0  0  0  0  0
  -26.0401  -29.4043   20.7183 C   0  0  0  0  0  0
  -27.2208  -28.5996   20.7128 C   0  0  0  0  0  0
  -26.0375  -26.8829   19.4832 C   0  0  0  0  0  0
  -24.8729  -27.6723   19.4870 C   0  0  0  0  0  0
  -23.6390  -29.8084   20.1609 C   0  0  0  0  0  0
  -25.4102  -36.3065   24.0340 C   0  0  1  0  0  0
  -20.5875  -28.3692   23.1262 C   0  0  2  0  0  0
  -20.6758  -26.9411   22.5401 C   0  0  0  0  0  0
  -19.5760  -26.6375   21.5177 C   0  0  0  0  0  0
  -18.1924  -26.7917   22.1577 C   0  0  0  0  0  0
  -19.1527  -28.8841   23.2845 C   0  0  0  0  0  0
  -18.9466  -30.1440   23.8878 C   0  0  0  0  0  0
  -17.6469  -30.6586   24.0535 C   0  0  0  0  0  0
  -25.9045  -34.9437   23.5106 C   0  0  0  0  0  0
  -16.5359  -29.9075   23.6334 C   0  0  0  0  0  0
  -16.7264  -28.6489   23.0360 C   0  0  0  0  0  0
  -26.4525  -31.6562   25.0721 C   0  0  0  0  0  0
  -25.3768  -31.3734   26.1464 C   0  0  0  0  0  0
  -27.0347  -30.2956   24.6221 C   0  0  0  0  0  0
  -27.6092  -32.4292   25.7478 C   0  0  0  0  0  0
  -27.5588  -37.1769   24.8451 C   0  0  0  0  0  0
  -21.4196  -29.3043   22.3674 N   0  0  0  0  0  0
  -26.4278  -37.3764   23.9432 N   0  0  0  0  0  0
  -24.6909  -31.0558   22.0965 N   0  0  0  0  0  0
  -23.4196  -28.8137   23.3020 O   0  0  0  0  0  0
  -28.3537  -26.4423   20.1815 O   0  0  0  0  0  0
  -26.5610  -34.8914   22.4671 O   0  0  0  0  0  0
  -23.5453  -32.1395   23.7320 O   0  0  0  0  0  0
  -30.5064  -19.4273   20.0797 C   0  0  0  0  0  0
  -30.7154  -18.0138   20.2350 C   0  0  0  0  0  0
  -28.4194  -17.7762   20.8868 C   0  0  0  0  0  0
  -29.2446  -20.0523   20.3092 C   0  0  0  0  0  0
  -28.1973  -19.1763   20.7212 C   0  0  0  0  0  0
  -29.6672  -17.1421   20.6436 C   0  0  0  0  0  0
  -28.6683  -21.8908   18.7831 C   0  0  0  0  0  0
  -28.9740  -21.5447   20.0527 C   0  0  0  0  0  0
  -27.9636  -23.1549   18.2647 C   0  0  0  0  0  0
  -28.8201  -22.5948   21.1880 C   0  0  0  0  0  0
  -29.1797  -24.1308   20.9595 C   0  0  0  0  0  0
  -28.1574  -24.9903   20.1052 C   0  0  2  0  0  0
  -26.7923  -19.7130   20.9516 C   0  0  0  0  0  0
  -29.9973  -25.0386   16.6427 C   0  0  0  0  0  0
  -29.9105  -24.7384   18.1483 C   0  0  0  0  0  0
  -29.7285  -15.6860   20.8394 N   0  0  0  0  0  0
  -28.5149  -24.5004   18.6043 N   0  3  1  0  0  0
  -31.4878  -12.5602   19.1327 H   0  0  0  0  0  0
  -30.4101  -11.4144   19.8848 H   0  0  0  0  0  0
  -29.7788  -11.7499   17.4806 H   0  0  0  0  0  0
  -29.6495  -13.4709   17.7289 H   0  0  0  0  0  0
  -27.8652  -11.2903   18.8570 H   0  0  0  0  0  0
  -27.3856  -12.5817   17.7881 H   0  0  0  0  0  0
  -27.6722  -14.2467   19.5144 H   0  0  0  0  0  0
  -28.7229  -12.0435   21.3637 H   0  0  0  0  0  0
  -28.4387  -13.6874   21.8488 H   0  0  0  0  0  0
  -25.2726   -9.5654   22.4782 H   0  0  0  0  0  0
  -23.9950   -7.4630   22.7499 H   0  0  0  0  0  0
  -21.0805   -8.8813   19.8992 H   0  0  0  0  0  0
  -22.3694  -10.9671   19.6194 H   0  0  0  0  0  0
  -21.2034   -7.6144   23.9702 H   0  0  0  0  0  0
  -21.1466   -6.0522   25.9070 H   0  0  0  0  0  0
  -22.0617   -2.7615   23.2842 H   0  0  0  0  0  0
  -22.3972  -11.9935   22.4838 H   0  0  0  0  0  0
  -21.1116  -13.1444   22.2582 H   0  0  0  0  0  0
  -24.6702  -15.8416   20.5425 H   0  0  0  0  0  0
  -26.2685  -15.6144   20.0400 H   0  0  0  0  0  0
  -26.7194  -32.5416   23.1071 H   0  0  0  0  0  0
  -25.0151  -33.9686   25.0463 H   0  0  0  0  0  0
  -22.7161  -31.2981   21.3971 H   0  0  0  0  0  0
  -23.3775  -35.9584   23.3235 H   0  0  0  0  0  0
  -24.3610  -36.8952   22.2063 H   0  0  0  0  0  0
  -23.7230  -37.6450   23.6694 H   0  0  0  0  0  0
  -26.1073  -31.5385   20.6091 H   0  0  0  0  0  0
  -26.8444  -30.8225   22.0115 H   0  0  0  0  0  0
  -28.1144  -28.9601   21.2012 H   0  0  0  0  0  0
  -25.9700  -25.9297   18.9815 H   0  0  0  0  0  0
  -23.9768  -27.3006   19.0078 H   0  0  0  0  0  0
  -23.7587  -30.5808   19.4006 H   0  0  0  0  0  0
  -22.7602  -29.2349   19.8611 H   0  0  0  0  0  0
  -25.1264  -36.1894   25.0828 H   0  0  0  0  0  0
  -20.9932  -28.3268   24.1393 H   0  0  0  0  0  0
  -20.5600  -26.2317   23.3602 H   0  0  0  0  0  0
  -21.6646  -26.7412   22.1254 H   0  0  0  0  0  0
  -19.6930  -25.6269   21.1240 H   0  0  0  0  0  0
  -19.6703  -27.3145   20.6675 H   0  0  0  0  0  0
  -17.4197  -26.6658   21.3966 H   0  0  0  0  0  0
  -18.0321  -26.0054   22.8971 H   0  0  0  0  0  0
  -19.7945  -30.7234   24.2259 H   0  0  0  0  0  0
  -17.5040  -31.6276   24.5130 H   0  0  0  0  0  0
  -15.5355  -30.2975   23.7682 H   0  0  0  0  0  0
  -15.8650  -28.0788   22.7121 H   0  0  0  0  0  0
  -24.5958  -30.7034   25.7849 H   0  0  0  0  0  0
  -24.8944  -32.2911   26.4838 H   0  0  0  0  0  0
  -25.8123  -30.8992   27.0268 H   0  0  0  0  0  0
  -26.2925  -29.6694   24.1258 H   0  0  0  0  0  0
  -27.4003  -29.7222   25.4752 H   0  0  0  0  0  0
  -27.8824  -30.4173   23.9473 H   0  0  0  0  0  0
  -27.2707  -33.3574   26.2092 H   0  0  0  0  0  0
  -28.3887  -32.6879   25.0301 H   0  0  0  0  0  0
  -28.0794  -31.8407   26.5369 H   0  0  0  0  0  0
  -28.2558  -38.0112   24.7555 H   0  0  0  0  0  0
  -28.1132  -36.2648   24.6172 H   0  0  0  0  0  0
  -27.2343  -37.1304   25.8864 H   0  0  0  0  0  0
  -20.9386  -29.8773   21.6881 H   0  0  0  0  0  0
  -26.0150  -38.2831   24.1451 H   0  0  0  0  0  0
  -31.3318  -20.0389   19.7466 H   0  0  0  0  0  0
  -31.6955  -17.6072   20.0299 H   0  0  0  0  0  0
  -27.5845  -17.1617   21.1951 H   0  0  0  0  0  0
  -28.7170  -21.1027   18.0445 H   0  0  0  0  0  0
  -26.9158  -23.1055   18.5610 H   0  0  0  0  0  0
  -27.9489  -23.0730   17.1782 H   0  0  0  0  0  0
  -29.5045  -22.2518   21.9647 H   0  0  0  0  0  0
  -27.8273  -22.4981   21.6268 H   0  0  0  0  0  0
  -30.2064  -24.2532   20.6214 H   0  0  0  0  0  0
  -29.1761  -24.5933   21.9466 H   0  0  0  0  0  0
  -27.1387  -24.7147   20.3778 H   0  0  0  0  0  0
  -26.0800  -18.9043   21.1217 H   0  0  0  0  0  0
  -26.4455  -20.2722   20.0808 H   0  0  0  0  0  0
  -26.7663  -20.3691   21.8225 H   0  0  0  0  0  0
  -31.0327  -25.2163   16.3533 H   0  0  0  0  0  0
  -29.4288  -25.9317   16.3804 H   0  0  0  0  0  0
  -29.6335  -24.2119   16.0329 H   0  0  0  0  0  0
  -30.3255  -25.5917   18.6859 H   0  0  0  0  0  0
  -30.5433  -23.8845   18.3923 H   0  0  0  0  0  0
  -28.8580  -15.2961   21.1654 H   0  0  0  0  0  0
  -27.9856  -25.1104   18.0006 H   0  0  0  0  0  0
  1 25  1  0  0  0
  1 30  2  0  0  0
  1 86  1  0  0  0
  2  3  1  0  0  0
  2 25  1  0  0  0
  2 88  1  0  0  0
  2 89  1  0  0  0
  3  4  1  0  0  0
  3 90  1  0  0  0
  3 91  1  0  0  0
  4  5  1  0  0  0
  4 92  1  0  0  0
  4 93  1  0  0  0
  5  6  1  0  0  0
  5 26  1  0  0  0
  5 94  1  0  0  0
  6 25  1  0  0  0
  6 95  1  0  0  0
  6 96  1  0  0  0
  7  8  2  0  0  0
  7 26  1  0  0  0
  7 29  1  0  0  0
  8  9  1  0  0  0
  8 22  1  0  0  0
  9 10  1  0  0  0
  9 27  2  0  0  0
 10 11  2  0  0  0
 10 15  1  0  0  0
 11 12  1  0  0  0
 11 97  1  0  0  0
 12 13  2  0  0  0
 12 98  1  0  0  0
 13 14  1  0  0  0
 13 31  1  0  0  0
 14 15  2  0  0  0
 14 99  1  0  0  0
 15100  1  0  0  0
 16 17  2  0  0  0
 16 21  1  0  0  0
 16 31  1  0  0  0
 17 18  1  0  0  0
 17101  1  0  0  0
 18 19  2  0  0  0
 18102  1  0  0  0
 19 20  1  0  0  0
 19 24  1  0  0  0
 20 21  2  0  0  0
 20103  1  0  0  0
 21 23  1  0  0  0
 22 28  1  0  0  0
 22 32  2  0  0  0
 26 27  1  0  0  0
 28104  1  0  0  0
 28105  1  0  0  0
 29106  1  0  0  0
 29107  1  0  0  0
 33 34  1  0  0  0
 33 66  1  0  0  0
 33 70  2  0  0  0
 34 36  1  0  0  0
 34 59  1  0  0  0
 34108  1  0  0  0
 35 44  2  0  0  0
 35 45  1  0  0  0
 35 68  1  0  0  0
 36 56  1  0  0  0
 36109  1  0  0  0
 37 39  1  0  0  0
 37 47  1  0  0  0
 37 66  1  0  0  0
 37110  1  0  0  0
 38 43  2  0  0  0
 38 46  1  0  0  0
 38 47  1  0  0  0
 39 64  1  0  0  0
 39 67  2  0  0  0
 40 52  1  0  0  0
 40 53  2  0  0  0
 40 58  1  0  0  0
 41111  1  0  0  0
 41112  1  0  0  0
 41113  1  0  0  0
 41 48  1  0  0  0
 42 43  1  0  0  0
 42 66  1  0  0  0
 42114  1  0  0  0
 42115  1  0  0  0
 43 44  1  0  0  0
 44116  1  0  0  0
 45 46  2  0  0  0
 45117  1  0  0  0
 46118  1  0  0  0
 47119  1  0  0  0
 47120  1  0  0  0
 48 56  1  0  0  0
 48 65  1  0  0  0
 48121  1  0  0  0
 49 50  1  0  0  0
 49 53  1  0  0  0
 49 64  1  0  0  0
 49122  1  0  0  0
 50 51  1  0  0  0
 50123  1  0  0  0
 50124  1  0  0  0
 51 52  1  0  0  0
 51125  1  0  0  0
 51126  1  0  0  0
 52127  1  0  0  0
 52128  1  0  0  0
 53 54  1  0  0  0
 54 55  2  0  0  0
 54129  1  0  0  0
 55 57  1  0  0  0
 55130  1  0  0  0
 56 69  2  0  0  0
 57 58  2  0  0  0
 57131  1  0  0  0
 58132  1  0  0  0
 59 60  1  0  0  0
 59 61  1  0  0  0
 59 62  1  0  0  0
 60133  1  0  0  0
 60134  1  0  0  0
 60135  1  0  0  0
 61136  1  0  0  0
 61137  1  0  0  0
 61138  1  0  0  0
 62139  1  0  0  0
 62140  1  0  0  0
 62141  1  0  0  0
 63 65  1  0  0  0
 63142  1  0  0  0
 63143  1  0  0  0
 63144  1  0  0  0
 64145  1  0  0  0
 65146  1  0  0  0
 68 82  1  0  0  0
 71 72  2  0  0  0
 71 74  1  0  0  0
 71147  1  0  0  0
 72 76  1  0  0  0
 72148  1  0  0  0
 73 75  1  0  0  0
 73 76  2  0  0  0
 73149  1  0  0  0
 74 75  2  0  0  0
 74 78  1  0  0  0
 75 83  1  0  0  0
 76 86  1  0  0  0
 77 78  2  0  0  0
 77 79  1  0  0  0
 77150  1  0  0  0
 78 80  1  0  0  0
 79 87  1  0  0  0
 79151  1  0  0  0
 79152  1  0  0  0
 80 81  1  0  0  0
 80153  1  0  0  0
 80154  1  0  0  0
 81 82  1  0  0  0
 81155  1  0  0  0
 81156  1  0  0  0
 82 87  1  0  0  0
 82157  1  0  0  0
 83158  1  0  0  0
 83159  1  0  0  0
 83160  1  0  0  0
 84 85  1  0  0  0
 84161  1  0  0  0
 84162  1  0  0  0
 84163  1  0  0  0
 85164  1  0  0  0
 85165  1  0  0  0
 85 87  1  0  0  0
 86166  1  0  0  0
 87167  1  0  0  0
M  CHG  1  87   1
M  ISO  4   1 100  68 101  82 101  86 100
M  END
> <chiral flag>
0

> <version>
0

> <s_m_source_file>
/data/baiqing/PycharmProjects/Reinvent-master-3.2/result/LINK_invent/BTK/process_docking_weight1_custom_product_contain_oxygen_bond_distance_aromatic_linkinvent_7_9_3/rearranged_h_0035.sdf

> <i_m_source_file_index>
22

> <r_mmod_Potential_Energy-OPLS-2005>
42.3956871032715

> <r_mmod_Stretch_Energy-OPLS-2005>
92.412353515625

> <r_mmod_Bend_Energy-OPLS-2005>
180.860244750977

> <r_mmod_Torsional_Energy-OPLS-2005>
275.893280029297

> <r_mmod_Improper_Torsional_Energy-OPLS-2005>
5.06680107116699

> <r_mmod_Van_der_Waal_Energy-OPLS-2005>
139.762496948242

> <r_mmod_Electrostatic_Energy-OPLS-2005>
-289.118591308594

> <r_mmod_Solvation_Energy-OPLS-2005>
-422.839691162109

> <b_mmod_Minimization_Converged-OPLS-2005>
0

> <r_mmod_RMS_Derivative-OPLS-2005>
2.8068630695343

$$$$
23
                    3D
 Structure written by MMmdl.
169178  0  0  1  0            999 V2000
  -30.6499  -14.7546   20.5246 C   0  0  0  0  0  0
  -30.4329  -12.4819   19.4800 C   0  0  0  0  0  0
  -29.5209  -12.5298   18.2373 C   0  0  0  0  0  0
  -28.0507  -12.3255   18.6496 C   0  0  0  0  0  0
  -27.6380  -13.2386   19.8377 C   0  0  2  0  0  0
  -28.6756  -13.1911   20.9781 C   0  0  0  0  0  0
  -25.2478  -13.8178   20.5664 C   0  0  0  0  0  0
  -24.1779  -13.0452   20.9205 C   0  0  0  0  0  0
  -24.6374  -11.6907   20.8682 C   0  0  0  0  0  0
  -23.9043  -10.4276   21.0319 C   0  0  0  0  0  0
  -24.3610   -9.4224   21.9100 C   0  0  0  0  0  0
  -23.6292   -8.2250   22.0718 C   0  0  0  0  0  0
  -22.4250   -8.0239   21.3562 C   0  0  0  0  0  0
  -21.9853   -9.0204   20.4636 C   0  0  0  0  0  0
  -22.7172  -10.2079   20.2992 C   0  0  0  0  0  0
  -21.6875   -6.0676   22.5289 C   0  0  0  0  0  0
  -21.4029   -6.5604   23.8202 C   0  0  0  0  0  0
  -21.3673   -5.6761   24.9180 C   0  0  0  0  0  0
  -21.6058   -4.3033   24.7233 C   0  0  0  0  0  0
  -21.8837   -3.8110   23.4354 C   0  0  0  0  0  0
  -21.9218   -4.6914   22.3412 C   0  0  0  0  0  0
  -22.7802  -13.5208   21.1902 C   0  0  0  0  0  0
  -22.1660   -4.2098   21.0985 F   0  0  0  0  0  0
  -21.5647   -3.4522   25.7752 F   0  0  0  0  0  0
  -29.9829  -13.5477   20.4087 N   0  0  0  0  0  0
  -26.2914  -12.9422   20.3163 N   0  0  0  0  0  0
  -25.9316  -11.6565   20.5680 N   0  0  0  0  0  0
  -22.0441  -12.8203   22.0441 N   0  0  0  0  0  0
  -25.4221  -15.1913   20.4006 N   0  0  0  0  0  0
  -31.8287  -14.8187   20.1665 O   0  0  0  0  0  0
  -21.6673   -6.8800   21.4211 O   0  0  0  0  0  0
  -22.3477  -14.5495   20.6686 O   0  0  0  0  0  0
  -24.6351  -31.8443   23.1890 C   0  0  0  0  0  0
  -25.9162  -32.4707   23.8263 C   0  0  1  0  0  0
  -27.2816  -27.2439   20.1230 C   0  0  0  0  0  0
  -25.5919  -33.8510   24.2182 N   0  0  0  0  0  0
  -23.4371  -30.4581   21.5286 C   0  0  2  0  0  0
  -24.8980  -28.8847   20.1043 C   0  0  0  0  0  0
  -22.7528  -29.4536   22.4885 C   0  0  0  0  0  0
  -18.0297  -28.1402   22.8473 C   0  0  0  0  0  0
  -24.1477  -36.7269   23.2653 C   0  0  0  0  0  0
  -25.9811  -30.7484   21.3739 C   0  0  0  0  0  0
  -26.0592  -29.3646   20.7216 C   0  0  0  0  0  0
  -27.2382  -28.5500   20.7262 C   0  0  0  0  0  0
  -26.0980  -26.8300   19.4706 C   0  0  0  0  0  0
  -24.9248  -27.6266   19.4689 C   0  0  0  0  0  0
  -23.6614  -29.7706   20.1495 C   0  0  0  0  0  0
  -25.4110  -36.3040   24.0325 C   0  0  1  0  0  0
  -20.5899  -28.3715   23.1264 C   0  0  2  0  0  0
  -20.6772  -26.9421   22.5420 C   0  0  0  0  0  0
  -19.5771  -26.6383   21.5218 C   0  0  0  0  0  0
  -18.1944  -26.7943   22.1612 C   0  0  0  0  0  0
  -19.1552  -28.8880   23.2861 C   0  0  0  0  0  0
  -18.9472  -30.1470   23.8898 C   0  0  0  0  0  0
  -17.6468  -30.6590   24.0574 C   0  0  0  0  0  0
  -25.9057  -34.9421   23.5071 C   0  0  0  0  0  0
  -16.5361  -29.9089   23.6335 C   0  0  0  0  0  0
  -16.7278  -28.6510   23.0352 C   0  0  0  0  0  0
  -26.4531  -31.6563   25.0686 C   0  0  0  0  0  0
  -25.3729  -31.3749   26.1390 C   0  0  0  0  0  0
  -27.0397  -30.2970   24.6235 C   0  0  0  0  0  0
  -27.6079  -32.4321   25.7453 C   0  0  0  0  0  0
  -27.5571  -37.1790   24.8477 C   0  0  0  0  0  0
  -21.4222  -29.3033   22.3634 N   0  0  0  0  0  0
  -26.4288  -37.3748   23.9401 N   0  0  0  0  0  0
  -24.7030  -31.0372   22.0880 N   0  0  0  0  0  0
  -23.4189  -28.8084   23.3028 O   0  0  0  0  0  0
  -28.4292  -26.4110   20.2594 O   0  0  0  0  0  0
  -26.5650  -34.8914   22.4654 O   0  0  0  0  0  0
  -23.5488  -32.1284   23.7173 O   0  0  0  0  0  0
  -32.0736  -18.8060   22.0395 C   0  0  0  0  0  0
  -31.6363  -17.5141   21.6832 C   0  0  0  0  0  0
  -29.5825  -18.5159   20.8577 C   0  0  0  0  0  0
  -31.2843  -19.9649   21.8320 C   0  0  0  0  0  0
  -30.0040  -19.8705   21.2163 C   0  0  0  0  0  0
  -30.3746  -17.3076   21.0818 C   0  0  0  0  0  0
  -31.3131  -24.1495   19.2095 C   0  0  0  0  0  0
  -30.3151  -25.3307   19.2529 C   0  0  0  0  0  0
  -30.8774  -23.0203   18.2565 C   0  0  0  0  0  0
  -28.4128  -23.5948   20.1421 C   0  0  0  0  0  0
  -28.7975  -25.1019   19.5783 C   0  0  1  0  0  0
  -29.9907  -21.9426   18.9194 C   0  0  2  0  0  0
  -31.8597  -21.2853   22.3358 C   0  0  0  0  0  0
  -28.9269  -21.2661   18.0082 C   0  0  0  0  0  0
  -29.0622  -21.1763   21.0940 C   0  0  0  0  0  0
  -29.9249  -15.9092   20.8144 N   0  0  0  0  0  0
  -29.4294  -22.4005   20.2248 N   0  3  2  0  0  0
  -31.4785  -12.5830   19.1872 H   0  0  0  0  0  0
  -30.3563  -11.5059   19.9612 H   0  0  0  0  0  0
  -29.8223  -11.7659   17.5192 H   0  0  0  0  0  0
  -29.6346  -13.4939   17.7354 H   0  0  0  0  0  0
  -27.9413  -11.2779   18.9386 H   0  0  0  0  0  0
  -27.3910  -12.4780   17.7958 H   0  0  0  0  0  0
  -27.6255  -14.2546   19.4461 H   0  0  0  0  0  0
  -28.7176  -12.1893   21.4122 H   0  0  0  0  0  0
  -28.3943  -13.8712   21.7848 H   0  0  0  0  0  0
  -25.2727   -9.5761   22.4676 H   0  0  0  0  0  0
  -24.0067   -7.4665   22.7417 H   0  0  0  0  0  0
  -21.0811   -8.8627   19.8933 H   0  0  0  0  0  0
  -22.3558  -10.9586   19.6098 H   0  0  0  0  0  0
  -21.1949   -7.6104   23.9688 H   0  0  0  0  0  0
  -21.1508   -6.0495   25.9090 H   0  0  0  0  0  0
  -22.0594   -2.7567   23.2892 H   0  0  0  0  0  0
  -22.4086  -11.9938   22.4960 H   0  0  0  0  0  0
  -21.1010  -13.1108   22.2539 H   0  0  0  0  0  0
  -24.6527  -15.8463   20.4801 H   0  0  0  0  0  0
  -26.2629  -15.6084   20.0245 H   0  0  0  0  0  0
  -26.7226  -32.5338   23.1002 H   0  0  0  0  0  0
  -25.0044  -33.9614   25.0323 H   0  0  0  0  0  0
  -22.7395  -31.2834   21.3702 H   0  0  0  0  0  0
  -23.3721  -35.9622   23.3345 H   0  0  0  0  0  0
  -24.3569  -36.8855   22.2059 H   0  0  0  0  0  0
  -23.7255  -37.6494   23.6664 H   0  0  0  0  0  0
  -26.1207  -31.5015   20.5977 H   0  0  0  0  0  0
  -26.8590  -30.8051   22.0062 H   0  0  0  0  0  0
  -28.1231  -28.9063   21.2365 H   0  0  0  0  0  0
  -26.0567  -25.8622   18.9935 H   0  0  0  0  0  0
  -24.0372  -27.2576   18.9712 H   0  0  0  0  0  0
  -23.7810  -30.5407   19.3870 H   0  0  0  0  0  0
  -22.7815  -29.1975   19.8501 H   0  0  0  0  0  0
  -25.1305  -36.1868   25.0822 H   0  0  0  0  0  0
  -21.0019  -28.3297   24.1389 H   0  0  0  0  0  0
  -20.5658  -26.2337   23.3642 H   0  0  0  0  0  0
  -21.6641  -26.7430   22.1234 H   0  0  0  0  0  0
  -19.6938  -25.6291   21.1267 H   0  0  0  0  0  0
  -19.6721  -27.3185   20.6740 H   0  0  0  0  0  0
  -17.4225  -26.6717   21.3988 H   0  0  0  0  0  0
  -18.0318  -26.0058   22.8985 H   0  0  0  0  0  0
  -19.7948  -30.7278   24.2265 H   0  0  0  0  0  0
  -17.5028  -31.6290   24.5165 H   0  0  0  0  0  0
  -15.5360  -30.3005   23.7663 H   0  0  0  0  0  0
  -15.8677  -28.0836   22.7074 H   0  0  0  0  0  0
  -24.5919  -30.7084   25.7721 H   0  0  0  0  0  0
  -24.8914  -32.2923   26.4770 H   0  0  0  0  0  0
  -25.8017  -30.8956   27.0194 H   0  0  0  0  0  0
  -26.2994  -29.6656   24.1305 H   0  0  0  0  0  0
  -27.4099  -29.7307   25.4794 H   0  0  0  0  0  0
  -27.8857  -30.4228   23.9476 H   0  0  0  0  0  0
  -27.2714  -33.3657   26.1963 H   0  0  0  0  0  0
  -28.3925  -32.6791   25.0297 H   0  0  0  0  0  0
  -28.0701  -31.8470   26.5412 H   0  0  0  0  0  0
  -28.2614  -38.0060   24.7468 H   0  0  0  0  0  0
  -28.1019  -36.2585   24.6342 H   0  0  0  0  0  0
  -27.2295  -37.1496   25.8887 H   0  0  0  0  0  0
  -20.9443  -29.8720   21.6800 H   0  0  0  0  0  0
  -26.0146  -38.2822   24.1376 H   0  0  0  0  0  0
  -33.0408  -18.8931   22.5190 H   0  0  0  0  0  0
  -32.2869  -16.6828   21.9200 H   0  0  0  0  0  0
  -28.6050  -18.4064   20.4124 H   0  0  0  0  0  0
  -31.5460  -23.7760   20.2075 H   0  0  0  0  0  0
  -32.2772  -24.5312   18.8635 H   0  0  0  0  0  0
  -30.3634  -25.8322   18.2827 H   0  0  0  0  0  0
  -30.7329  -26.0576   19.9540 H   0  0  0  0  0  0
  -31.7815  -22.5205   17.8966 H   0  0  0  0  0  0
  -30.4222  -23.4468   17.3616 H   0  0  0  0  0  0
  -27.6372  -23.2485   19.4602 H   0  0  0  0  0  0
  -27.8731  -23.6821   21.0820 H   0  0  0  0  0  0
  -28.2964  -25.1550   18.6114 H   0  0  0  0  0  0
  -30.7246  -21.1605   19.1377 H   0  0  0  0  0  0
  -32.8273  -21.1389   22.8297 H   0  0  0  0  0  0
  -31.2000  -21.7523   23.0668 H   0  0  0  0  0  0
  -32.0302  -21.9809   21.5173 H   0  0  0  0  0  0
  -27.9305  -21.6885   18.1121 H   0  0  0  0  0  0
  -28.8108  -20.2031   18.2417 H   0  0  0  0  0  0
  -29.1823  -21.3196   16.9506 H   0  0  0  0  0  0
  -28.9331  -21.5597   22.1052 H   0  0  0  0  0  0
  -28.0657  -20.8462   20.8095 H   0  0  0  0  0  0
  -28.9305  -15.7608   20.8797 H   0  0  0  0  0  0
  -30.2244  -22.8046   20.7003 H   0  0  0  0  0  0
  1 25  1  0  0  0
  1 30  2  0  0  0
  1 86  1  0  0  0
  2  3  1  0  0  0
  2 25  1  0  0  0
  2 88  1  0  0  0
  2 89  1  0  0  0
  3  4  1  0  0  0
  3 90  1  0  0  0
  3 91  1  0  0  0
  4  5  1  0  0  0
  4 92  1  0  0  0
  4 93  1  0  0  0
  5  6  1  0  0  0
  5 26  1  0  0  0
  5 94  1  0  0  0
  6 25  1  0  0  0
  6 95  1  0  0  0
  6 96  1  0  0  0
  7  8  2  0  0  0
  7 26  1  0  0  0
  7 29  1  0  0  0
  8  9  1  0  0  0
  8 22  1  0  0  0
  9 10  1  0  0  0
  9 27  2  0  0  0
 10 11  2  0  0  0
 10 15  1  0  0  0
 11 12  1  0  0  0
 11 97  1  0  0  0
 12 13  2  0  0  0
 12 98  1  0  0  0
 13 14  1  0  0  0
 13 31  1  0  0  0
 14 15  2  0  0  0
 14 99  1  0  0  0
 15100  1  0  0  0
 16 17  2  0  0  0
 16 21  1  0  0  0
 16 31  1  0  0  0
 17 18  1  0  0  0
 17101  1  0  0  0
 18 19  2  0  0  0
 18102  1  0  0  0
 19 20  1  0  0  0
 19 24  1  0  0  0
 20 21  2  0  0  0
 20103  1  0  0  0
 21 23  1  0  0  0
 22 28  1  0  0  0
 22 32  2  0  0  0
 26 27  1  0  0  0
 28104  1  0  0  0
 28105  1  0  0  0
 29106  1  0  0  0
 29107  1  0  0  0
 33 34  1  0  0  0
 33 66  1  0  0  0
 33 70  2  0  0  0
 34 36  1  0  0  0
 34 59  1  0  0  0
 34108  1  0  0  0
 35 44  2  0  0  0
 35 45  1  0  0  0
 35 68  1  0  0  0
 36 56  1  0  0  0
 36109  1  0  0  0
 37 39  1  0  0  0
 37 47  1  0  0  0
 37 66  1  0  0  0
 37110  1  0  0  0
 38 43  2  0  0  0
 38 46  1  0  0  0
 38 47  1  0  0  0
 39 64  1  0  0  0
 39 67  2  0  0  0
 40 52  1  0  0  0
 40 53  2  0  0  0
 40 58  1  0  0  0
 41111  1  0  0  0
 41112  1  0  0  0
 41113  1  0  0  0
 41 48  1  0  0  0
 42 43  1  0  0  0
 42 66  1  0  0  0
 42114  1  0  0  0
 42115  1  0  0  0
 43 44  1  0  0  0
 44116  1  0  0  0
 45 46  2  0  0  0
 45117  1  0  0  0
 46118  1  0  0  0
 47119  1  0  0  0
 47120  1  0  0  0
 48 56  1  0  0  0
 48 65  1  0  0  0
 48121  1  0  0  0
 49 50  1  0  0  0
 49 53  1  0  0  0
 49 64  1  0  0  0
 49122  1  0  0  0
 50 51  1  0  0  0
 50123  1  0  0  0
 50124  1  0  0  0
 51 52  1  0  0  0
 51125  1  0  0  0
 51126  1  0  0  0
 52127  1  0  0  0
 52128  1  0  0  0
 53 54  1  0  0  0
 54 55  2  0  0  0
 54129  1  0  0  0
 55 57  1  0  0  0
 55130  1  0  0  0
 56 69  2  0  0  0
 57 58  2  0  0  0
 57131  1  0  0  0
 58132  1  0  0  0
 59 60  1  0  0  0
 59 61  1  0  0  0
 59 62  1  0  0  0
 60133  1  0  0  0
 60134  1  0  0  0
 60135  1  0  0  0
 61136  1  0  0  0
 61137  1  0  0  0
 61138  1  0  0  0
 62139  1  0  0  0
 62140  1  0  0  0
 62141  1  0  0  0
 63 65  1  0  0  0
 63142  1  0  0  0
 63143  1  0  0  0
 63144  1  0  0  0
 64145  1  0  0  0
 65146  1  0  0  0
 68 81  1  0  0  0
 71 72  2  0  0  0
 71 74  1  0  0  0
 71147  1  0  0  0
 72 76  1  0  0  0
 72148  1  0  0  0
 73 75  1  0  0  0
 73 76  2  0  0  0
 73149  1  0  0  0
 74 75  2  0  0  0
 74 83  1  0  0  0
 75 85  1  0  0  0
 76 86  1  0  0  0
 77 78  1  0  0  0
 77 79  1  0  0  0
 77150  1  0  0  0
 77151  1  0  0  0
 78 81  1  0  0  0
 78152  1  0  0  0
 78153  1  0  0  0
 79 82  1  0  0  0
 79154  1  0  0  0
 79155  1  0  0  0
 80 81  1  0  0  0
 80 87  1  0  0  0
 80156  1  0  0  0
 80157  1  0  0  0
 81158  1  0  0  0
 82 84  1  0  0  0
 82 87  1  0  0  0
 82159  1  0  0  0
 83160  1  0  0  0
 83161  1  0  0  0
 83162  1  0  0  0
 84163  1  0  0  0
 84164  1  0  0  0
 84165  1  0  0  0
 85166  1  0  0  0
 85167  1  0  0  0
 85 87  1  0  0  0
 86168  1  0  0  0
 87169  1  0  0  0
M  CHG  1  87   1
M  ISO  4   1 100  68 101  81 101  86 100
M  END
> <chiral flag>
0

> <version>
0

> <s_m_source_file>
/data/baiqing/PycharmProjects/Reinvent-master-3.2/result/LINK_invent/BTK/process_docking_weight1_custom_product_contain_oxygen_bond_distance_aromatic_linkinvent_7_9_3/rearranged_h_0035.sdf

> <i_m_source_file_index>
23

> <r_mmod_Potential_Energy-OPLS-2005>
266.933715820312

> <r_mmod_Stretch_Energy-OPLS-2005>
163.326950073242

> <r_mmod_Bend_Energy-OPLS-2005>
243.589279174805

> <r_mmod_Torsional_Energy-OPLS-2005>
290.486145019531

> <r_mmod_Improper_Torsional_Energy-OPLS-2005>
6.10104322433472

> <r_mmod_Van_der_Waal_Energy-OPLS-2005>
141.046112060547

> <r_mmod_Electrostatic_Energy-OPLS-2005>
-255.371444702148

> <r_mmod_Solvation_Energy-OPLS-2005>
-415.605316162109

> <b_mmod_Minimization_Converged-OPLS-2005>
0

> <r_mmod_RMS_Derivative-OPLS-2005>
7.96615743637085

$$$$
24
                    3D
 Structure written by MMmdl.
184194  0  0  1  0            999 V2000
  -30.8451  -14.3713   20.5286 C   0  0  0  0  0  0
  -30.3651  -12.2315   19.4462 C   0  0  0  0  0  0
  -29.4775  -12.4614   18.2110 C   0  0  0  0  0  0
  -28.0026  -12.3597   18.6222 C   0  0  0  0  0  0
  -27.6576  -13.2187   19.8688 C   0  0  2  0  0  0
  -28.7000  -13.0718   21.0035 C   0  0  0  0  0  0
  -25.2588  -13.8157   20.5748 C   0  0  0  0  0  0
  -24.1854  -13.0466   20.9218 C   0  0  0  0  0  0
  -24.6393  -11.6918   20.8758 C   0  0  0  0  0  0
  -23.9050  -10.4307   21.0400 C   0  0  0  0  0  0
  -24.3589   -9.4198   21.9187 C   0  0  0  0  0  0
  -23.6277   -8.2232   22.0761 C   0  0  0  0  0  0
  -22.4261   -8.0264   21.3532 C   0  0  0  0  0  0
  -21.9879   -9.0241   20.4641 C   0  0  0  0  0  0
  -22.7205  -10.2139   20.3057 C   0  0  0  0  0  0
  -21.6865   -6.0734   22.5274 C   0  0  0  0  0  0
  -21.4008   -6.5632   23.8192 C   0  0  0  0  0  0
  -21.3652   -5.6787   24.9158 C   0  0  0  0  0  0
  -21.6052   -4.3057   24.7218 C   0  0  0  0  0  0
  -21.8817   -3.8150   23.4324 C   0  0  0  0  0  0
  -21.9196   -4.6963   22.3387 C   0  0  0  0  0  0
  -22.7849  -13.5259   21.1858 C   0  0  0  0  0  0
  -22.1677   -4.2145   21.0962 F   0  0  0  0  0  0
  -21.5627   -3.4532   25.7726 F   0  0  0  0  0  0
  -30.0434  -13.2742   20.4380 N   0  0  0  0  0  0
  -26.3018  -12.9383   20.3389 N   0  0  0  0  0  0
  -25.9310  -11.6531   20.5771 N   0  0  0  0  0  0
  -22.0450  -12.8279   22.0376 N   0  0  0  0  0  0
  -25.4337  -15.1874   20.4163 N   0  0  0  0  0  0
  -31.9178  -14.4318   19.9387 O   0  0  0  0  0  0
  -21.6640   -6.8858   21.4222 O   0  0  0  0  0  0
  -22.3534  -14.5574   20.6669 O   0  0  0  0  0  0
  -24.6104  -31.8747   23.2186 C   0  0  0  0  0  0
  -25.9032  -32.4843   23.8427 C   0  0  1  0  0  0
  -27.2043  -27.4688   20.0895 C   0  0  0  0  0  0
  -25.5917  -33.8653   24.2373 N   0  0  0  0  0  0
  -23.3886  -30.5056   21.5631 C   0  0  2  0  0  0
  -24.8270  -28.9844   20.1129 C   0  0  0  0  0  0
  -22.7377  -29.4681   22.5048 C   0  0  0  0  0  0
  -18.0253  -28.1402   22.8508 C   0  0  0  0  0  0
  -24.1479  -36.7329   23.2619 C   0  0  0  0  0  0
  -25.9153  -30.8504   21.3615 C   0  0  0  0  0  0
  -25.9875  -29.4888   20.7117 C   0  0  0  0  0  0
  -27.1820  -28.7370   20.7017 C   0  0  0  0  0  0
  -26.0259  -26.9783   19.4768 C   0  0  0  0  0  0
  -24.8389  -27.7258   19.4940 C   0  0  0  0  0  0
  -23.5908  -29.8501   20.1727 C   0  0  0  0  0  0
  -25.4102  -36.3145   24.0342 C   0  0  1  0  0  0
  -20.5843  -28.3665   23.1364 C   0  0  2  0  0  0
  -20.6762  -26.9421   22.5431 C   0  0  0  0  0  0
  -19.5737  -26.6413   21.5233 C   0  0  0  0  0  0
  -18.1903  -26.7950   22.1630 C   0  0  0  0  0  0
  -19.1509  -28.8846   23.2935 C   0  0  0  0  0  0
  -18.9441  -30.1452   23.8949 C   0  0  0  0  0  0
  -17.6451  -30.6618   24.0565 C   0  0  0  0  0  0
  -25.9024  -34.9494   23.5142 C   0  0  0  0  0  0
  -16.5332  -29.9134   23.6310 C   0  0  0  0  0  0
  -16.7241  -28.6544   23.0350 C   0  0  0  0  0  0
  -26.4466  -31.6607   25.0724 C   0  0  0  0  0  0
  -25.3714  -31.3763   26.1470 C   0  0  0  0  0  0
  -27.0253  -30.3035   24.6040 C   0  0  0  0  0  0
  -27.6057  -32.4283   25.7486 C   0  0  0  0  0  0
  -27.5592  -37.1814   24.8466 C   0  0  0  0  0  0
  -21.4109  -29.3044   22.3806 N   0  0  0  0  0  0
  -26.4284  -37.3832   23.9424 N   0  0  0  0  0  0
  -24.6568  -31.0890   22.1073 N   0  0  0  0  0  0
  -23.4189  -28.8209   23.3042 O   0  0  0  0  0  0
  -28.3620  -26.7287   20.1269 O   0  0  0  0  0  0
  -26.5554  -34.8935   22.4684 O   0  0  0  0  0  0
  -23.5303  -32.1471   23.7611 O   0  0  0  0  0  0
  -29.8974  -22.4981   24.2151 C   0  0  0  0  0  0
  -30.8710  -21.4884   24.1609 C   0  0  0  0  0  0
  -28.5338  -22.1580   24.0953 C   0  0  0  0  0  0
  -28.1388  -20.8292   24.3821 C   0  0  0  0  0  0
  -29.1121  -19.7978   24.3295 C   0  0  0  0  0  0
  -30.4642  -20.1404   24.0360 C   0  0  0  0  0  0
  -32.5349  -19.2485   21.1611 C   0  0  0  0  0  0
  -29.0636  -23.4243   21.3709 C   0  0  0  0  0  0
  -32.8359  -20.3735   20.4863 C   0  0  0  0  0  0
  -33.3525  -17.9586   21.1307 C   0  0  0  0  0  0
  -29.4564  -24.5571   20.4465 C   0  0  0  0  0  0
  -32.6107  -16.7345   21.6997 C   0  0  0  0  0  0
  -27.5350  -25.0908   21.7983 C   0  0  0  0  0  0
  -30.3839  -17.9888   21.5204 C   0  0  0  0  0  0
  -31.1798  -16.7339   21.0957 C   0  0  1  0  0  0
  -28.1620  -25.3418   20.4051 C   0  0  1  0  0  0
  -32.3381  -21.8728   24.1548 C   0  0  0  0  0  0
  -26.6783  -20.4985   24.6666 C   0  0  0  0  0  0
  -28.6540  -18.3516   24.5342 C   0  0  0  0  0  0
  -27.5737  -23.1770   23.4698 C   0  0  0  0  0  0
  -31.4487  -19.1334   23.4378 C   0  0  0  0  0  0
  -28.1034  -23.8231   22.2406 N   0  0  0  0  0  0
  -30.4295  -15.4558   21.1974 N   0  0  0  0  0  0
  -31.2666  -19.1123   21.9571 N   0  3  1  0  0  0
  -29.6072  -22.3194   21.2883 O   0  0  0  0  0  0
  -31.4179  -12.1989   19.1570 H   0  0  0  0  0  0
  -30.1513  -11.2475   19.8682 H   0  0  0  0  0  0
  -29.6960  -11.7062   17.4538 H   0  0  0  0  0  0
  -29.6768  -13.4330   17.7567 H   0  0  0  0  0  0
  -27.8053  -11.3093   18.8367 H   0  0  0  0  0  0
  -27.3526  -12.6296   17.7863 H   0  0  0  0  0  0
  -27.6845  -14.2570   19.5454 H   0  0  0  0  0  0
  -28.6333  -12.0774   21.4514 H   0  0  0  0  0  0
  -28.4816  -13.7792   21.8047 H   0  0  0  0  0  0
  -25.2724   -9.5692   22.4767 H   0  0  0  0  0  0
  -24.0008   -7.4612   22.7437 H   0  0  0  0  0  0
  -21.0844   -8.8736   19.8917 H   0  0  0  0  0  0
  -22.3636  -10.9688   19.6184 H   0  0  0  0  0  0
  -21.1988   -7.6138   23.9696 H   0  0  0  0  0  0
  -21.1488   -6.0518   25.9065 H   0  0  0  0  0  0
  -22.0606   -2.7614   23.2827 H   0  0  0  0  0  0
  -22.4108  -12.0033   22.4920 H   0  0  0  0  0  0
  -21.0992  -13.1243   22.2420 H   0  0  0  0  0  0
  -24.6696  -15.8467   20.5152 H   0  0  0  0  0  0
  -26.2893  -15.6183   20.0961 H   0  0  0  0  0  0
  -26.7080  -32.5563   23.1189 H   0  0  0  0  0  0
  -25.0131  -33.9800   25.0545 H   0  0  0  0  0  0
  -22.6721  -31.3231   21.4430 H   0  0  0  0  0  0
  -23.3738  -35.9662   23.3288 H   0  0  0  0  0  0
  -24.3566  -36.8912   22.2026 H   0  0  0  0  0  0
  -23.7223  -37.6534   23.6611 H   0  0  0  0  0  0
  -26.0053  -31.6111   20.5854 H   0  0  0  0  0  0
  -26.8119  -30.9135   21.9651 H   0  0  0  0  0  0
  -28.0738  -29.1184   21.1802 H   0  0  0  0  0  0
  -25.9948  -26.0227   18.9769 H   0  0  0  0  0  0
  -23.9447  -27.3360   19.0303 H   0  0  0  0  0  0
  -23.7062  -30.6338   19.4276 H   0  0  0  0  0  0
  -22.7087  -29.2840   19.8632 H   0  0  0  0  0  0
  -25.1268  -36.2012   25.0829 H   0  0  0  0  0  0
  -20.9923  -28.3251   24.1488 H   0  0  0  0  0  0
  -20.5717  -26.2271   23.3610 H   0  0  0  0  0  0
  -21.6631  -26.7518   22.1196 H   0  0  0  0  0  0
  -19.6898  -25.6336   21.1233 H   0  0  0  0  0  0
  -19.6676  -27.3247   20.6785 H   0  0  0  0  0  0
  -17.4180  -26.6689   21.4028 H   0  0  0  0  0  0
  -18.0317  -26.0089   22.9024 H   0  0  0  0  0  0
  -19.7915  -30.7252   24.2357 H   0  0  0  0  0  0
  -17.5001  -31.6293   24.5185 H   0  0  0  0  0  0
  -15.5339  -30.3059   23.7628 H   0  0  0  0  0  0
  -15.8621  -28.0880   22.7058 H   0  0  0  0  0  0
  -24.5909  -30.7069   25.7848 H   0  0  0  0  0  0
  -24.8876  -32.2945   26.4796 H   0  0  0  0  0  0
  -25.8039  -30.9028   27.0288 H   0  0  0  0  0  0
  -26.2784  -29.6860   24.1024 H   0  0  0  0  0  0
  -27.3965  -29.7215   25.4490 H   0  0  0  0  0  0
  -27.8662  -30.4357   23.9225 H   0  0  0  0  0  0
  -27.2709  -33.3583   26.2088 H   0  0  0  0  0  0
  -28.3884  -32.6813   25.0328 H   0  0  0  0  0  0
  -28.0698  -31.8351   26.5372 H   0  0  0  0  0  0
  -28.2624  -38.0098   24.7524 H   0  0  0  0  0  0
  -28.1077  -36.2630   24.6293 H   0  0  0  0  0  0
  -27.2303  -37.1483   25.8863 H   0  0  0  0  0  0
  -20.9262  -29.8743   21.7019 H   0  0  0  0  0  0
  -26.0184  -38.2906   24.1428 H   0  0  0  0  0  0
  -30.2091  -23.5295   24.1281 H   0  0  0  0  0  0
  -33.7154  -20.4483   19.8581 H   0  0  0  0  0  0
  -32.2127  -21.2526   20.5352 H   0  0  0  0  0  0
  -34.3108  -18.1023   21.6272 H   0  0  0  0  0  0
  -33.5762  -17.7776   20.0770 H   0  0  0  0  0  0
  -29.7765  -24.2013   19.4678 H   0  0  0  0  0  0
  -30.2646  -25.1322   20.9055 H   0  0  0  0  0  0
  -32.6022  -16.7349   22.7908 H   0  0  0  0  0  0
  -33.1879  -15.8494   21.4337 H   0  0  0  0  0  0
  -27.8236  -25.8707   22.5010 H   0  0  0  0  0  0
  -26.4435  -25.0544   21.7518 H   0  0  0  0  0  0
  -29.6503  -17.7452   22.2794 H   0  0  0  0  0  0
  -29.8078  -18.3319   20.6598 H   0  0  0  0  0  0
  -31.3396  -16.8820   20.0226 H   0  0  0  0  0  0
  -27.5702  -24.8579   19.6296 H   0  0  0  0  0  0
  -32.8646  -21.3349   24.9459 H   0  0  0  0  0  0
  -32.4684  -22.9405   24.3340 H   0  0  0  0  0  0
  -32.7987  -21.6268   23.1983 H   0  0  0  0  0  0
  -26.1158  -21.3890   24.9404 H   0  0  0  0  0  0
  -26.2029  -20.0322   23.8029 H   0  0  0  0  0  0
  -26.5702  -19.8276   25.5194 H   0  0  0  0  0  0
  -28.2804  -18.2225   25.5466 H   0  0  0  0  0  0
  -29.4323  -17.5976   24.4513 H   0  0  0  0  0  0
  -27.8588  -18.0893   23.8323 H   0  0  0  0  0  0
  -27.3412  -23.9344   24.2209 H   0  0  0  0  0  0
  -26.6252  -22.7108   23.1969 H   0  0  0  0  0  0
  -32.4794  -19.3773   23.6817 H   0  0  0  0  0  0
  -31.3327  -18.1475   23.8747 H   0  0  0  0  0  0
  -29.5367  -15.4295   21.6679 H   0  0  0  0  0  0
  -30.7205  -19.9512   21.8012 H   0  0  0  0  0  0
  1 25  1  0  0  0
  1 30  2  0  0  0
  1 93  1  0  0  0
  2  3  1  0  0  0
  2 25  1  0  0  0
  2 96  1  0  0  0
  2 97  1  0  0  0
  3  4  1  0  0  0
  3 98  1  0  0  0
  3 99  1  0  0  0
  4  5  1  0  0  0
  4100  1  0  0  0
  4101  1  0  0  0
  5  6  1  0  0  0
  5 26  1  0  0  0
  5102  1  0  0  0
  6 25  1  0  0  0
  6103  1  0  0  0
  6104  1  0  0  0
  7  8  2  0  0  0
  7 26  1  0  0  0
  7 29  1  0  0  0
  8  9  1  0  0  0
  8 22  1  0  0  0
  9 10  1  0  0  0
  9 27  2  0  0  0
 10 11  2  0  0  0
 10 15  1  0  0  0
 11 12  1  0  0  0
 11105  1  0  0  0
 12 13  2  0  0  0
 12106  1  0  0  0
 13 14  1  0  0  0
 13 31  1  0  0  0
 14 15  2  0  0  0
 14107  1  0  0  0
 15108  1  0  0  0
 16 17  2  0  0  0
 16 21  1  0  0  0
 16 31  1  0  0  0
 17 18  1  0  0  0
 17109  1  0  0  0
 18 19  2  0  0  0
 18110  1  0  0  0
 19 20  1  0  0  0
 19 24  1  0  0  0
 20 21  2  0  0  0
 20111  1  0  0  0
 21 23  1  0  0  0
 22 28  1  0  0  0
 22 32  2  0  0  0
 26 27  1  0  0  0
 28112  1  0  0  0
 28113  1  0  0  0
 29114  1  0  0  0
 29115  1  0  0  0
 33 34  1  0  0  0
 33 66  1  0  0  0
 33 70  2  0  0  0
 34 36  1  0  0  0
 34 59  1  0  0  0
 34116  1  0  0  0
 35 44  2  0  0  0
 35 45  1  0  0  0
 35 68  1  0  0  0
 36 56  1  0  0  0
 36117  1  0  0  0
 37 39  1  0  0  0
 37 47  1  0  0  0
 37 66  1  0  0  0
 37118  1  0  0  0
 38 43  2  0  0  0
 38 46  1  0  0  0
 38 47  1  0  0  0
 39 64  1  0  0  0
 39 67  2  0  0  0
 40 52  1  0  0  0
 40 53  2  0  0  0
 40 58  1  0  0  0
 41119  1  0  0  0
 41120  1  0  0  0
 41121  1  0  0  0
 41 48  1  0  0  0
 42 43  1  0  0  0
 42 66  1  0  0  0
 42122  1  0  0  0
 42123  1  0  0  0
 43 44  1  0  0  0
 44124  1  0  0  0
 45 46  2  0  0  0
 45125  1  0  0  0
 46126  1  0  0  0
 47127  1  0  0  0
 47128  1  0  0  0
 48 56  1  0  0  0
 48 65  1  0  0  0
 48129  1  0  0  0
 49 50  1  0  0  0
 49 53  1  0  0  0
 49 64  1  0  0  0
 49130  1  0  0  0
 50 51  1  0  0  0
 50131  1  0  0  0
 50132  1  0  0  0
 51 52  1  0  0  0
 51133  1  0  0  0
 51134  1  0  0  0
 52135  1  0  0  0
 52136  1  0  0  0
 53 54  1  0  0  0
 54 55  2  0  0  0
 54137  1  0  0  0
 55 57  1  0  0  0
 55138  1  0  0  0
 56 69  2  0  0  0
 57 58  2  0  0  0
 57139  1  0  0  0
 58140  1  0  0  0
 59 60  1  0  0  0
 59 61  1  0  0  0
 59 62  1  0  0  0
 60141  1  0  0  0
 60142  1  0  0  0
 60143  1  0  0  0
 61144  1  0  0  0
 61145  1  0  0  0
 61146  1  0  0  0
 62147  1  0  0  0
 62148  1  0  0  0
 62149  1  0  0  0
 63 65  1  0  0  0
 63150  1  0  0  0
 63151  1  0  0  0
 63152  1  0  0  0
 64153  1  0  0  0
 65154  1  0  0  0
 68 86  1  0  0  0
 71 72  2  0  0  0
 71 73  1  0  0  0
 71155  1  0  0  0
 72 76  1  0  0  0
 72 87  1  0  0  0
 73 74  2  0  0  0
 73 90  1  0  0  0
 74 75  1  0  0  0
 74 88  1  0  0  0
 75 76  2  0  0  0
 75 89  1  0  0  0
 76 91  1  0  0  0
 77 79  2  0  0  0
 77 80  1  0  0  0
 77 94  1  0  0  0
 78 81  1  0  0  0
 78 92  1  0  0  0
 78 95  2  0  0  0
 79156  1  0  0  0
 79157  1  0  0  0
 80 82  1  0  0  0
 80158  1  0  0  0
 80159  1  0  0  0
 81 86  1  0  0  0
 81160  1  0  0  0
 81161  1  0  0  0
 82 85  1  0  0  0
 82162  1  0  0  0
 82163  1  0  0  0
 83 86  1  0  0  0
 83 92  1  0  0  0
 83164  1  0  0  0
 83165  1  0  0  0
 84 85  1  0  0  0
 84 94  1  0  0  0
 84166  1  0  0  0
 84167  1  0  0  0
 85 93  1  0  0  0
 85168  1  0  0  0
 86169  1  0  0  0
 87170  1  0  0  0
 87171  1  0  0  0
 87172  1  0  0  0
 88173  1  0  0  0
 88174  1  0  0  0
 88175  1  0  0  0
 89176  1  0  0  0
 89177  1  0  0  0
 89178  1  0  0  0
 90 92  1  0  0  0
 90179  1  0  0  0
 90180  1  0  0  0
 91181  1  0  0  0
 91182  1  0  0  0
 91 94  1  0  0  0
 93183  1  0  0  0
 94184  1  0  0  0
M  CHG  1  94   1
M  ISO  4   1 100  68 101  86 101  93 100
M  END
> <chiral flag>
0

> <version>
0

> <s_m_source_file>
/data/baiqing/PycharmProjects/Reinvent-master-3.2/result/LINK_invent/BTK/process_docking_weight1_custom_product_contain_oxygen_bond_distance_aromatic_linkinvent_7_9_3/rearranged_h_0035.sdf

> <i_m_source_file_index>
24

> <r_mmod_Potential_Energy-OPLS-2005>
-60.3542251586914

> <r_mmod_Stretch_Energy-OPLS-2005>
44.6626815795898

> <r_mmod_Bend_Energy-OPLS-2005>
166.536956787109

> <r_mmod_Torsional_Energy-OPLS-2005>
319.868591308594

> <r_mmod_Improper_Torsional_Energy-OPLS-2005>
4.69272232055664

> <r_mmod_Van_der_Waal_Energy-OPLS-2005>
193.976104736328

> <r_mmod_Electrostatic_Energy-OPLS-2005>
-406.402923583984

> <r_mmod_Solvation_Energy-OPLS-2005>
-407.442047119141

> <b_mmod_Minimization_Converged-OPLS-2005>
0

> <r_mmod_RMS_Derivative-OPLS-2005>
7.3811092376709

$$$$
25
                    3D
 Structure written by MMmdl.
166175  0  0  1  0            999 V2000
  -30.6682  -14.5445   20.4998 C   0  0  0  0  0  0
  -30.4266  -12.3252   19.4541 C   0  0  0  0  0  0
  -29.5052  -12.4936   18.2249 C   0  0  0  0  0  0
  -28.0228  -12.3539   18.6269 C   0  0  0  0  0  0
  -27.6592  -13.2091   19.8705 C   0  0  2  0  0  0
  -28.7005  -13.0306   21.0025 C   0  0  0  0  0  0
  -25.2584  -13.8183   20.5655 C   0  0  0  0  0  0
  -24.1843  -13.0453   20.9177 C   0  0  0  0  0  0
  -24.6395  -11.6924   20.8750 C   0  0  0  0  0  0
  -23.9056  -10.4304   21.0428 C   0  0  0  0  0  0
  -24.3608   -9.4211   21.9198 C   0  0  0  0  0  0
  -23.6282   -8.2247   22.0764 C   0  0  0  0  0  0
  -22.4267   -8.0283   21.3559 C   0  0  0  0  0  0
  -21.9898   -9.0254   20.4652 C   0  0  0  0  0  0
  -22.7235  -10.2135   20.3059 C   0  0  0  0  0  0
  -21.6847   -6.0737   22.5288 C   0  0  0  0  0  0
  -21.4019   -6.5644   23.8216 C   0  0  0  0  0  0
  -21.3661   -5.6807   24.9182 C   0  0  0  0  0  0
  -21.6051   -4.3068   24.7262 C   0  0  0  0  0  0
  -21.8823   -3.8152   23.4377 C   0  0  0  0  0  0
  -21.9196   -4.6964   22.3420 C   0  0  0  0  0  0
  -22.7857  -13.5233   21.1862 C   0  0  0  0  0  0
  -22.1655   -4.2144   21.1004 F   0  0  0  0  0  0
  -21.5611   -3.4553   25.7772 F   0  0  0  0  0  0
  -30.0338  -13.3352   20.4540 N   0  0  0  0  0  0
  -26.3013  -12.9336   20.3330 N   0  0  0  0  0  0
  -25.9315  -11.6503   20.5762 N   0  0  0  0  0  0
  -22.0516  -12.8205   22.0413 N   0  0  0  0  0  0
  -25.4307  -15.1902   20.4032 N   0  0  0  0  0  0
  -31.7989  -14.7162   20.0401 O   0  0  0  0  0  0
  -21.6638   -6.8882   21.4240 O   0  0  0  0  0  0
  -22.3527  -14.5530   20.6713 O   0  0  0  0  0  0
  -24.6194  -31.8656   23.2084 C   0  0  0  0  0  0
  -25.9062  -32.4818   23.8404 C   0  0  1  0  0  0
  -27.2294  -27.3856   20.1088 C   0  0  0  0  0  0
  -25.5905  -33.8620   24.2330 N   0  0  0  0  0  0
  -23.4095  -30.4901   21.5473 C   0  0  2  0  0  0
  -24.8553  -28.9537   20.1129 C   0  0  0  0  0  0
  -22.7449  -29.4649   22.4957 C   0  0  0  0  0  0
  -18.0276  -28.1365   22.8495 C   0  0  0  0  0  0
  -24.1490  -36.7314   23.2634 C   0  0  0  0  0  0
  -25.9433  -30.8164   21.3701 C   0  0  0  0  0  0
  -26.0159  -29.4477   20.7183 C   0  0  0  0  0  0
  -27.1997  -28.6688   20.7168 C   0  0  0  0  0  0
  -26.0470  -26.9315   19.4735 C   0  0  0  0  0  0
  -24.8690  -27.6985   19.4870 C   0  0  0  0  0  0
  -23.6207  -29.8232   20.1621 C   0  0  0  0  0  0
  -25.4110  -36.3118   24.0341 C   0  0  1  0  0  0
  -20.5877  -28.3664   23.1298 C   0  0  2  0  0  0
  -20.6762  -26.9392   22.5404 C   0  0  0  0  0  0
  -19.5736  -26.6375   21.5205 C   0  0  0  0  0  0
  -18.1919  -26.7913   22.1621 C   0  0  0  0  0  0
  -19.1529  -28.8828   23.2895 C   0  0  0  0  0  0
  -18.9456  -30.1428   23.8915 C   0  0  0  0  0  0
  -17.6455  -30.6568   24.0565 C   0  0  0  0  0  0
  -25.9038  -34.9479   23.5135 C   0  0  0  0  0  0
  -16.5346  -29.9074   23.6316 C   0  0  0  0  0  0
  -16.7263  -28.6482   23.0358 C   0  0  0  0  0  0
  -26.4488  -31.6598   25.0733 C   0  0  0  0  0  0
  -25.3752  -31.3703   26.1480 C   0  0  0  0  0  0
  -27.0304  -30.3037   24.6107 C   0  0  0  0  0  0
  -27.6066  -32.4314   25.7490 C   0  0  0  0  0  0
  -27.5592  -37.1806   24.8460 C   0  0  0  0  0  0
  -21.4168  -29.3037   22.3710 N   0  0  0  0  0  0
  -26.4292  -37.3803   23.9420 N   0  0  0  0  0  0
  -24.6753  -31.0741   22.0990 N   0  0  0  0  0  0
  -23.4210  -28.8171   23.2996 O   0  0  0  0  0  0
  -28.4050  -26.6436   20.1814 O   0  0  0  0  0  0
  -26.5594  -34.8928   22.4697 O   0  0  0  0  0  0
  -23.5369  -32.1420   23.7438 O   0  0  0  0  0  0
  -32.5187  -19.3932   20.8213 C   0  0  0  0  0  0
  -31.8330  -18.1928   20.5766 C   0  0  0  0  0  0
  -31.8066  -20.5789   21.0623 C   0  0  0  0  0  0
  -30.4240  -18.1609   20.5486 C   0  0  0  0  0  0
  -30.3942  -20.6012   21.0747 C   0  0  0  0  0  0
  -29.6950  -19.3705   20.8192 C   0  0  0  0  0  0
  -29.7153  -23.8303   18.0577 C   0  0  0  0  0  0
  -29.4604  -25.2615   18.5520 C   0  0  0  0  0  0
  -30.2448  -22.9224   19.1850 C   0  0  0  0  0  0
  -29.0134  -24.2870   20.8449 C   0  0  0  0  0  0
  -28.4918  -25.2608   19.7392 C   0  0  1  0  0  0
  -28.1688  -19.3345   20.8170 C   0  0  0  0  0  0
  -29.7629  -16.8509   20.0546 C   0  0  0  0  0  0
  -29.7263  -21.9574   21.4482 C   0  0  0  0  0  0
  -29.8872  -15.5965   20.8406 N   0  0  0  0  0  0
  -29.3154  -22.8926   20.3456 N   0  3  2  0  0  0
  -31.4726  -12.4182   19.1561 H   0  0  0  0  0  0
  -30.3256  -11.3221   19.8756 H   0  0  0  0  0  0
  -29.7540  -11.7457   17.4720 H   0  0  0  0  0  0
  -29.6780  -13.4659   17.7617 H   0  0  0  0  0  0
  -27.8357  -11.2997   18.8317 H   0  0  0  0  0  0
  -27.3774  -12.6131   17.7872 H   0  0  0  0  0  0
  -27.6889  -14.2512   19.5530 H   0  0  0  0  0  0
  -28.6797  -12.0077   21.3800 H   0  0  0  0  0  0
  -28.4569  -13.6628   21.8559 H   0  0  0  0  0  0
  -25.2771   -9.5668   22.4753 H   0  0  0  0  0  0
  -24.0013   -7.4626   22.7459 H   0  0  0  0  0  0
  -21.0844   -8.8762   19.8929 H   0  0  0  0  0  0
  -22.3713  -10.9661   19.6142 H   0  0  0  0  0  0
  -21.2001   -7.6154   23.9723 H   0  0  0  0  0  0
  -21.1459   -6.0538   25.9086 H   0  0  0  0  0  0
  -22.0591   -2.7614   23.2895 H   0  0  0  0  0  0
  -22.4149  -11.9839   22.4749 H   0  0  0  0  0  0
  -21.1116  -13.1189   22.2617 H   0  0  0  0  0  0
  -24.6692  -15.8500   20.5142 H   0  0  0  0  0  0
  -26.2819  -15.6247   20.0693 H   0  0  0  0  0  0
  -26.7132  -32.5529   23.1163 H   0  0  0  0  0  0
  -25.0099  -33.9786   25.0512 H   0  0  0  0  0  0
  -22.6998  -31.3074   21.4054 H   0  0  0  0  0  0
  -23.3767  -35.9626   23.3268 H   0  0  0  0  0  0
  -24.3603  -36.8961   22.2055 H   0  0  0  0  0  0
  -23.7208  -37.6499   23.6667 H   0  0  0  0  0  0
  -26.0620  -31.5755   20.5958 H   0  0  0  0  0  0
  -26.8315  -30.8729   21.9881 H   0  0  0  0  0  0
  -28.0932  -29.0405   21.1993 H   0  0  0  0  0  0
  -25.9799  -25.9915   18.9512 H   0  0  0  0  0  0
  -23.9801  -27.3192   19.0021 H   0  0  0  0  0  0
  -23.7327  -30.5955   19.4003 H   0  0  0  0  0  0
  -22.7460  -29.2411   19.8666 H   0  0  0  0  0  0
  -25.1279  -36.1988   25.0830 H   0  0  0  0  0  0
  -20.9976  -28.3221   24.1416 H   0  0  0  0  0  0
  -20.5651  -26.2276   23.3602 H   0  0  0  0  0  0
  -21.6636  -26.7415   22.1205 H   0  0  0  0  0  0
  -19.6898  -25.6291   21.1223 H   0  0  0  0  0  0
  -19.6669  -27.3199   20.6749 H   0  0  0  0  0  0
  -17.4193  -26.6671   21.4018 H   0  0  0  0  0  0
  -18.0308  -26.0042   22.9000 H   0  0  0  0  0  0
  -19.7931  -30.7232   24.2314 H   0  0  0  0  0  0
  -17.5008  -31.6260   24.5147 H   0  0  0  0  0  0
  -15.5349  -30.2984   23.7619 H   0  0  0  0  0  0
  -15.8667  -28.0796   22.7086 H   0  0  0  0  0  0
  -24.5925  -30.7045   25.7828 H   0  0  0  0  0  0
  -24.8939  -32.2849   26.4951 H   0  0  0  0  0  0
  -25.8106  -30.8866   27.0230 H   0  0  0  0  0  0
  -26.2831  -29.6801   24.1173 H   0  0  0  0  0  0
  -27.4094  -29.7272   25.4558 H   0  0  0  0  0  0
  -27.8674  -30.4365   23.9241 H   0  0  0  0  0  0
  -27.2704  -33.3621   26.2075 H   0  0  0  0  0  0
  -28.3873  -32.6855   25.0306 H   0  0  0  0  0  0
  -28.0734  -31.8425   26.5399 H   0  0  0  0  0  0
  -28.2584  -38.0129   24.7561 H   0  0  0  0  0  0
  -28.1113  -36.2669   24.6214 H   0  0  0  0  0  0
  -27.2321  -37.1369   25.8861 H   0  0  0  0  0  0
  -20.9326  -29.8808   21.6972 H   0  0  0  0  0  0
  -26.0187  -38.2877   24.1442 H   0  0  0  0  0  0
  -33.6015  -19.4057   20.8085 H   0  0  0  0  0  0
  -32.4000  -17.2990   20.3527 H   0  0  0  0  0  0
  -32.3643  -21.4865   21.2561 H   0  0  0  0  0  0
  -30.4303  -23.8488   17.2346 H   0  0  0  0  0  0
  -28.7917  -23.4151   17.6516 H   0  0  0  0  0  0
  -29.0589  -25.8767   17.7466 H   0  0  0  0  0  0
  -30.4022  -25.7184   18.8581 H   0  0  0  0  0  0
  -31.2290  -23.2606   19.5136 H   0  0  0  0  0  0
  -30.3747  -21.9182   18.7810 H   0  0  0  0  0  0
  -28.2760  -24.2300   21.6463 H   0  0  0  0  0  0
  -29.9165  -24.7089   21.2864 H   0  0  0  0  0  0
  -27.5470  -24.8441   19.4074 H   0  0  0  0  0  0
  -27.8129  -18.5075   21.4324 H   0  0  0  0  0  0
  -27.8031  -19.1893   19.8002 H   0  0  0  0  0  0
  -27.6973  -20.2353   21.2010 H   0  0  0  0  0  0
  -30.1541  -16.6733   19.0499 H   0  0  0  0  0  0
  -28.7001  -17.0085   19.8912 H   0  0  0  0  0  0
  -30.4420  -22.4895   22.0753 H   0  0  0  0  0  0
  -28.8790  -21.7928   22.1107 H   0  0  0  0  0  0
  -29.0456  -15.3330   21.3307 H   0  0  0  0  0  0
  -28.4531  -22.5071   19.9906 H   0  0  0  0  0  0
  1 25  1  0  0  0
  1 30  2  0  0  0
  1 85  1  0  0  0
  2  3  1  0  0  0
  2 25  1  0  0  0
  2 87  1  0  0  0
  2 88  1  0  0  0
  3  4  1  0  0  0
  3 89  1  0  0  0
  3 90  1  0  0  0
  4  5  1  0  0  0
  4 91  1  0  0  0
  4 92  1  0  0  0
  5  6  1  0  0  0
  5 26  1  0  0  0
  5 93  1  0  0  0
  6 25  1  0  0  0
  6 94  1  0  0  0
  6 95  1  0  0  0
  7  8  2  0  0  0
  7 26  1  0  0  0
  7 29  1  0  0  0
  8  9  1  0  0  0
  8 22  1  0  0  0
  9 10  1  0  0  0
  9 27  2  0  0  0
 10 11  2  0  0  0
 10 15  1  0  0  0
 11 12  1  0  0  0
 11 96  1  0  0  0
 12 13  2  0  0  0
 12 97  1  0  0  0
 13 14  1  0  0  0
 13 31  1  0  0  0
 14 15  2  0  0  0
 14 98  1  0  0  0
 15 99  1  0  0  0
 16 17  2  0  0  0
 16 21  1  0  0  0
 16 31  1  0  0  0
 17 18  1  0  0  0
 17100  1  0  0  0
 18 19  2  0  0  0
 18101  1  0  0  0
 19 20  1  0  0  0
 19 24  1  0  0  0
 20 21  2  0  0  0
 20102  1  0  0  0
 21 23  1  0  0  0
 22 28  1  0  0  0
 22 32  2  0  0  0
 26 27  1  0  0  0
 28103  1  0  0  0
 28104  1  0  0  0
 29105  1  0  0  0
 29106  1  0  0  0
 33 34  1  0  0  0
 33 66  1  0  0  0
 33 70  2  0  0  0
 34 36  1  0  0  0
 34 59  1  0  0  0
 34107  1  0  0  0
 35 44  2  0  0  0
 35 45  1  0  0  0
 35 68  1  0  0  0
 36 56  1  0  0  0
 36108  1  0  0  0
 37 39  1  0  0  0
 37 47  1  0  0  0
 37 66  1  0  0  0
 37109  1  0  0  0
 38 43  2  0  0  0
 38 46  1  0  0  0
 38 47  1  0  0  0
 39 64  1  0  0  0
 39 67  2  0  0  0
 40 52  1  0  0  0
 40 53  2  0  0  0
 40 58  1  0  0  0
 41110  1  0  0  0
 41111  1  0  0  0
 41112  1  0  0  0
 41 48  1  0  0  0
 42 43  1  0  0  0
 42 66  1  0  0  0
 42113  1  0  0  0
 42114  1  0  0  0
 43 44  1  0  0  0
 44115  1  0  0  0
 45 46  2  0  0  0
 45116  1  0  0  0
 46117  1  0  0  0
 47118  1  0  0  0
 47119  1  0  0  0
 48 56  1  0  0  0
 48 65  1  0  0  0
 48120  1  0  0  0
 49 50  1  0  0  0
 49 53  1  0  0  0
 49 64  1  0  0  0
 49121  1  0  0  0
 50 51  1  0  0  0
 50122  1  0  0  0
 50123  1  0  0  0
 51 52  1  0  0  0
 51124  1  0  0  0
 51125  1  0  0  0
 52126  1  0  0  0
 52127  1  0  0  0
 53 54  1  0  0  0
 54 55  2  0  0  0
 54128  1  0  0  0
 55 57  1  0  0  0
 55129  1  0  0  0
 56 69  2  0  0  0
 57 58  2  0  0  0
 57130  1  0  0  0
 58131  1  0  0  0
 59 60  1  0  0  0
 59 61  1  0  0  0
 59 62  1  0  0  0
 60132  1  0  0  0
 60133  1  0  0  0
 60134  1  0  0  0
 61135  1  0  0  0
 61136  1  0  0  0
 61137  1  0  0  0
 62138  1  0  0  0
 62139  1  0  0  0
 62140  1  0  0  0
 63 65  1  0  0  0
 63141  1  0  0  0
 63142  1  0  0  0
 63143  1  0  0  0
 64144  1  0  0  0
 65145  1  0  0  0
 68 81  1  0  0  0
 71 72  2  0  0  0
 71 73  1  0  0  0
 71146  1  0  0  0
 72 74  1  0  0  0
 72147  1  0  0  0
 73 75  2  0  0  0
 73148  1  0  0  0
 74 76  2  0  0  0
 74 83  1  0  0  0
 75 76  1  0  0  0
 75 84  1  0  0  0
 76 82  1  0  0  0
 77 78  1  0  0  0
 77 79  1  0  0  0
 77149  1  0  0  0
 77150  1  0  0  0
 78 81  1  0  0  0
 78151  1  0  0  0
 78152  1  0  0  0
 79 86  1  0  0  0
 79153  1  0  0  0
 79154  1  0  0  0
 80 81  1  0  0  0
 80 86  1  0  0  0
 80155  1  0  0  0
 80156  1  0  0  0
 81157  1  0  0  0
 82158  1  0  0  0
 82159  1  0  0  0
 82160  1  0  0  0
 83 85  1  0  0  0
 83161  1  0  0  0
 83162  1  0  0  0
 84163  1  0  0  0
 84164  1  0  0  0
 84 86  1  0  0  0
 85165  1  0  0  0
 86166  1  0  0  0
M  CHG  1  86   1
M  ISO  4   1 100  68 101  81 101  85 100
M  END
> <chiral flag>
0

> <version>
0

> <s_m_source_file>
/data/baiqing/PycharmProjects/Reinvent-master-3.2/result/LINK_invent/BTK/process_docking_weight1_custom_product_contain_oxygen_bond_distance_aromatic_linkinvent_7_9_3/rearranged_h_0035.sdf

> <i_m_source_file_index>
25

> <r_mmod_Potential_Energy-OPLS-2005>
-102.731452941895

> <r_mmod_Stretch_Energy-OPLS-2005>
56.0313148498535

> <r_mmod_Bend_Energy-OPLS-2005>
130.469909667969

> <r_mmod_Torsional_Energy-OPLS-2005>
241.829071044922

> <r_mmod_Improper_Torsional_Energy-OPLS-2005>
9.30922985076904

> <r_mmod_Van_der_Waal_Energy-OPLS-2005>
154.823089599609

> <r_mmod_Electrostatic_Energy-OPLS-2005>
-290.101531982422

> <r_mmod_Solvation_Energy-OPLS-2005>
-429.607940673828

> <b_mmod_Minimization_Converged-OPLS-2005>
0

> <r_mmod_RMS_Derivative-OPLS-2005>
3.32146167755127

$$$$
26
                    3D
 Structure written by MMmdl.
164173  0  0  1  0            999 V2000
  -30.5981  -14.7419   20.4829 C   0  0  0  0  0  0
  -30.4580  -12.4658   19.4702 C   0  0  0  0  0  0
  -29.5353  -12.5415   18.2345 C   0  0  0  0  0  0
  -28.0554  -12.3684   18.6315 C   0  0  0  0  0  0
  -27.6581  -13.2312   19.8584 C   0  0  2  0  0  0
  -28.6991  -13.1303   20.9939 C   0  0  0  0  0  0
  -25.2647  -13.8205   20.5817 C   0  0  0  0  0  0
  -24.1876  -13.0458   20.9206 C   0  0  0  0  0  0
  -24.6460  -11.6923   20.8692 C   0  0  0  0  0  0
  -23.9136  -10.4316   21.0385 C   0  0  0  0  0  0
  -24.3655   -9.4214   21.9179 C   0  0  0  0  0  0
  -23.6277   -8.2276   22.0771 C   0  0  0  0  0  0
  -22.4243   -8.0345   21.3565 C   0  0  0  0  0  0
  -21.9887   -9.0340   20.4661 C   0  0  0  0  0  0
  -22.7295  -10.2177   20.3055 C   0  0  0  0  0  0
  -21.6858   -6.0749   22.5271 C   0  0  0  0  0  0
  -21.4021   -6.5618   23.8215 C   0  0  0  0  0  0
  -21.3647   -5.6770   24.9170 C   0  0  0  0  0  0
  -21.6023   -4.3040   24.7183 C   0  0  0  0  0  0
  -21.8819   -3.8157   23.4306 C   0  0  0  0  0  0
  -21.9189   -4.6984   22.3375 C   0  0  0  0  0  0
  -22.7890  -13.5268   21.1792 C   0  0  0  0  0  0
  -22.1651   -4.2183   21.0938 F   0  0  0  0  0  0
  -21.5625   -3.4505   25.7685 F   0  0  0  0  0  0
  -30.0086  -13.4971   20.4356 N   0  0  0  0  0  0
  -26.3037  -12.9394   20.3255 N   0  0  0  0  0  0
  -25.9376  -11.6526   20.5637 N   0  0  0  0  0  0
  -22.0435  -12.8344   22.0323 N   0  0  0  0  0  0
  -25.4445  -15.1969   20.4598 N   0  0  0  0  0  0
  -31.7437  -14.8970   20.0558 O   0  0  0  0  0  0
  -21.6646   -6.8914   21.4237 O   0  0  0  0  0  0
  -22.3600  -14.5555   20.6571 O   0  0  0  0  0  0
  -24.6315  -31.8540   23.2018 C   0  0  0  0  0  0
  -25.9147  -32.4741   23.8349 C   0  0  1  0  0  0
  -27.1978  -27.2511   20.1384 C   0  0  0  0  0  0
  -25.5921  -33.8547   24.2261 N   0  0  0  0  0  0
  -23.4291  -30.4806   21.5456 C   0  0  2  0  0  0
  -24.8759  -28.9449   20.1002 C   0  0  0  0  0  0
  -22.7519  -29.4575   22.4893 C   0  0  0  0  0  0
  -18.0285  -28.1380   22.8475 C   0  0  0  0  0  0
  -24.1490  -36.7300   23.2637 C   0  0  0  0  0  0
  -25.9776  -30.7650   21.3887 C   0  0  0  0  0  0
  -26.0462  -29.3909   20.7273 C   0  0  0  0  0  0
  -27.2106  -28.5547   20.7417 C   0  0  0  0  0  0
  -26.0236  -26.9083   19.4262 C   0  0  0  0  0  0
  -24.8714  -27.7123   19.4360 C   0  0  0  0  0  0
  -23.6466  -29.8282   20.1554 C   0  0  0  0  0  0
  -25.4105  -36.3058   24.0309 C   0  0  1  0  0  0
  -20.5894  -28.3686   23.1268 C   0  0  2  0  0  0
  -20.6779  -26.9399   22.5404 C   0  0  0  0  0  0
  -19.5747  -26.6371   21.5214 C   0  0  0  0  0  0
  -18.1926  -26.7926   22.1615 C   0  0  0  0  0  0
  -19.1546  -28.8855   23.2865 C   0  0  0  0  0  0
  -18.9473  -30.1462   23.8880 C   0  0  0  0  0  0
  -17.6471  -30.6589   24.0564 C   0  0  0  0  0  0
  -25.9048  -34.9428   23.5092 C   0  0  0  0  0  0
  -16.5359  -29.9084   23.6328 C   0  0  0  0  0  0
  -16.7267  -28.6495   23.0348 C   0  0  0  0  0  0
  -26.4496  -31.6585   25.0758 C   0  0  0  0  0  0
  -25.3721  -31.3775   26.1488 C   0  0  0  0  0  0
  -27.0302  -30.2967   24.6284 C   0  0  0  0  0  0
  -27.6038  -32.4333   25.7539 C   0  0  0  0  0  0
  -27.5581  -37.1787   24.8440 C   0  0  0  0  0  0
  -21.4218  -29.3020   22.3651 N   0  0  0  0  0  0
  -26.4263  -37.3766   23.9414 N   0  0  0  0  0  0
  -24.6988  -31.0508   22.1005 N   0  0  0  0  0  0
  -23.4209  -28.8090   23.2984 O   0  0  0  0  0  0
  -28.2266  -26.2821   20.2876 O   0  0  0  0  0  0
  -26.5640  -34.8910   22.4673 O   0  0  0  0  0  0
  -23.5455  -32.1368   23.7296 O   0  0  0  0  0  0
  -28.2563  -18.3557   18.6800 C   0  0  0  0  0  0
  -28.5073  -19.6011   19.2848 C   0  0  0  0  0  0
  -28.7613  -17.1547   19.2217 C   0  0  0  0  0  0
  -29.2876  -19.7035   20.4547 C   0  0  0  0  0  0
  -29.8352  -18.4479   20.9910 C   0  0  0  0  0  0
  -29.5580  -17.1436   20.3849 C   0  0  0  0  0  0
  -28.9365  -23.6699   20.4819 C   0  0  0  0  0  0
  -26.1640  -23.1078   21.1404 C   0  0  0  0  0  0
  -26.7140  -24.5229   21.3556 C   0  0  0  0  0  0
  -27.2510  -22.0461   21.3807 C   0  0  0  0  0  0
  -27.8192  -24.8156   20.3127 C   0  0  1  0  0  0
  -32.1766  -18.9871   21.8352 C   0  0  0  0  0  0
  -30.7630  -18.5026   22.2014 C   0  0  0  0  0  0
  -29.5469  -21.1752   21.0356 C   0  0  0  0  0  0
  -28.5840  -22.3536   20.8149 N   0  0  0  0  0  0
  -29.8503  -15.8064   20.9664 N   0  0  0  0  0  0
  -30.1136  -23.9762   20.2647 O   0  0  0  0  0  0
  -31.4977  -12.6090   19.1714 H   0  0  0  0  0  0
  -30.4198  -11.4738   19.9210 H   0  0  0  0  0  0
  -29.8206  -11.7868   17.5010 H   0  0  0  0  0  0
  -29.6719  -13.5079   17.7439 H   0  0  0  0  0  0
  -27.8808  -11.3119   18.8400 H   0  0  0  0  0  0
  -27.4280  -12.6201   17.7769 H   0  0  0  0  0  0
  -27.6596  -14.2624   19.5051 H   0  0  0  0  0  0
  -28.7295  -12.1142   21.3882 H   0  0  0  0  0  0
  -28.4268  -13.7729   21.8331 H   0  0  0  0  0  0
  -25.2795   -9.5650   22.4767 H   0  0  0  0  0  0
  -23.9957   -7.4641   22.7478 H   0  0  0  0  0  0
  -21.0826   -8.8931   19.8950 H   0  0  0  0  0  0
  -22.3815  -10.9730   19.6178 H   0  0  0  0  0  0
  -21.2026   -7.6134   23.9710 H   0  0  0  0  0  0
  -21.1458   -6.0507   25.9073 H   0  0  0  0  0  0
  -22.0603   -2.7621   23.2807 H   0  0  0  0  0  0
  -22.3927  -12.0019   22.4805 H   0  0  0  0  0  0
  -21.1048  -13.1469   22.2397 H   0  0  0  0  0  0
  -24.7205  -15.8618   20.7089 H   0  0  0  0  0  0
  -26.3092  -15.6505   20.1941 H   0  0  0  0  0  0
  -26.7208  -32.5370   23.1078 H   0  0  0  0  0  0
  -25.0006  -33.9678   25.0358 H   0  0  0  0  0  0
  -22.7277  -31.3039   21.4046 H   0  0  0  0  0  0
  -23.3738  -35.9651   23.3284 H   0  0  0  0  0  0
  -24.3600  -36.8948   22.2065 H   0  0  0  0  0  0
  -23.7288  -37.6504   23.6690 H   0  0  0  0  0  0
  -26.1224  -31.5263   20.6211 H   0  0  0  0  0  0
  -26.8544  -30.8066   22.0221 H   0  0  0  0  0  0
  -28.0924  -28.8756   21.2783 H   0  0  0  0  0  0
  -25.9338  -25.9714   18.8977 H   0  0  0  0  0  0
  -23.9801  -27.3749   18.9240 H   0  0  0  0  0  0
  -23.7681  -30.6096   19.4038 H   0  0  0  0  0  0
  -22.7662  -29.2606   19.8459 H   0  0  0  0  0  0
  -25.1289  -36.1902   25.0793 H   0  0  0  0  0  0
  -20.9972  -28.3265   24.1397 H   0  0  0  0  0  0
  -20.5687  -26.2285   23.3602 H   0  0  0  0  0  0
  -21.6656  -26.7423   22.1214 H   0  0  0  0  0  0
  -19.6918  -25.6289   21.1244 H   0  0  0  0  0  0
  -19.6692  -27.3167   20.6743 H   0  0  0  0  0  0
  -17.4200  -26.6673   21.4016 H   0  0  0  0  0  0
  -18.0312  -26.0074   22.9009 H   0  0  0  0  0  0
  -19.7945  -30.7284   24.2240 H   0  0  0  0  0  0
  -17.5019  -31.6274   24.5168 H   0  0  0  0  0  0
  -15.5360  -30.2980   23.7671 H   0  0  0  0  0  0
  -15.8653  -28.0811   22.7077 H   0  0  0  0  0  0
  -24.5827  -30.7181   25.7869 H   0  0  0  0  0  0
  -24.8978  -32.2953   26.4960 H   0  0  0  0  0  0
  -25.8015  -30.8926   27.0253 H   0  0  0  0  0  0
  -26.2861  -29.6759   24.1260 H   0  0  0  0  0  0
  -27.3879  -29.7215   25.4842 H   0  0  0  0  0  0
  -27.8816  -30.4211   23.9586 H   0  0  0  0  0  0
  -27.2600  -33.3596   26.2158 H   0  0  0  0  0  0
  -28.3811  -32.6951   25.0353 H   0  0  0  0  0  0
  -28.0732  -31.8444   26.5425 H   0  0  0  0  0  0
  -28.2546  -38.0132   24.7523 H   0  0  0  0  0  0
  -28.1106  -36.2659   24.6174 H   0  0  0  0  0  0
  -27.2305  -37.1363   25.8840 H   0  0  0  0  0  0
  -20.9408  -29.8772   21.6877 H   0  0  0  0  0  0
  -26.0136  -38.2817   24.1457 H   0  0  0  0  0  0
  -27.6388  -18.3228   17.7918 H   0  0  0  0  0  0
  -28.0949  -20.4910   18.8262 H   0  0  0  0  0  0
  -28.4923  -16.2293   18.7291 H   0  0  0  0  0  0
  -25.7743  -23.0090   20.1261 H   0  0  0  0  0  0
  -25.3150  -22.9268   21.8041 H   0  0  0  0  0  0
  -27.1130  -24.6249   22.3643 H   0  0  0  0  0  0
  -25.8846  -25.2231   21.3015 H   0  0  0  0  0  0
  -26.8944  -21.0808   21.0175 H   0  0  0  0  0  0
  -27.3700  -21.9313   22.4599 H   0  0  0  0  0  0
  -27.4384  -24.5960   19.3170 H   0  0  0  0  0  0
  -32.8154  -19.0739   22.7174 H   0  0  0  0  0  0
  -32.1589  -19.9631   21.3551 H   0  0  0  0  0  0
  -32.6552  -18.3009   21.1376 H   0  0  0  0  0  0
  -30.8421  -17.5183   22.6605 H   0  0  0  0  0  0
  -30.3281  -19.1402   22.9697 H   0  0  0  0  0  0
  -30.5436  -21.4788   20.7160 H   0  0  0  0  0  0
  -29.6263  -21.0796   22.1173 H   0  0  0  0  0  0
  -29.0721  -15.4561   21.5052 H   0  0  0  0  0  0
  1 25  1  0  0  0
  1 30  2  0  0  0
  1 86  1  0  0  0
  2  3  1  0  0  0
  2 25  1  0  0  0
  2 88  1  0  0  0
  2 89  1  0  0  0
  3  4  1  0  0  0
  3 90  1  0  0  0
  3 91  1  0  0  0
  4  5  1  0  0  0
  4 92  1  0  0  0
  4 93  1  0  0  0
  5  6  1  0  0  0
  5 26  1  0  0  0
  5 94  1  0  0  0
  6 25  1  0  0  0
  6 95  1  0  0  0
  6 96  1  0  0  0
  7  8  2  0  0  0
  7 26  1  0  0  0
  7 29  1  0  0  0
  8  9  1  0  0  0
  8 22  1  0  0  0
  9 10  1  0  0  0
  9 27  2  0  0  0
 10 11  2  0  0  0
 10 15  1  0  0  0
 11 12  1  0  0  0
 11 97  1  0  0  0
 12 13  2  0  0  0
 12 98  1  0  0  0
 13 14  1  0  0  0
 13 31  1  0  0  0
 14 15  2  0  0  0
 14 99  1  0  0  0
 15100  1  0  0  0
 16 17  2  0  0  0
 16 21  1  0  0  0
 16 31  1  0  0  0
 17 18  1  0  0  0
 17101  1  0  0  0
 18 19  2  0  0  0
 18102  1  0  0  0
 19 20  1  0  0  0
 19 24  1  0  0  0
 20 21  2  0  0  0
 20103  1  0  0  0
 21 23  1  0  0  0
 22 28  1  0  0  0
 22 32  2  0  0  0
 26 27  1  0  0  0
 28104  1  0  0  0
 28105  1  0  0  0
 29106  1  0  0  0
 29107  1  0  0  0
 33 34  1  0  0  0
 33 66  1  0  0  0
 33 70  2  0  0  0
 34 36  1  0  0  0
 34 59  1  0  0  0
 34108  1  0  0  0
 35 44  2  0  0  0
 35 45  1  0  0  0
 35 68  1  0  0  0
 36 56  1  0  0  0
 36109  1  0  0  0
 37 39  1  0  0  0
 37 47  1  0  0  0
 37 66  1  0  0  0
 37110  1  0  0  0
 38 43  2  0  0  0
 38 46  1  0  0  0
 38 47  1  0  0  0
 39 64  1  0  0  0
 39 67  2  0  0  0
 40 52  1  0  0  0
 40 53  2  0  0  0
 40 58  1  0  0  0
 41111  1  0  0  0
 41112  1  0  0  0
 41113  1  0  0  0
 41 48  1  0  0  0
 42 43  1  0  0  0
 42 66  1  0  0  0
 42114  1  0  0  0
 42115  1  0  0  0
 43 44  1  0  0  0
 44116  1  0  0  0
 45 46  2  0  0  0
 45117  1  0  0  0
 46118  1  0  0  0
 47119  1  0  0  0
 47120  1  0  0  0
 48 56  1  0  0  0
 48 65  1  0  0  0
 48121  1  0  0  0
 49 50  1  0  0  0
 49 53  1  0  0  0
 49 64  1  0  0  0
 49122  1  0  0  0
 50 51  1  0  0  0
 50123  1  0  0  0
 50124  1  0  0  0
 51 52  1  0  0  0
 51125  1  0  0  0
 51126  1  0  0  0
 52127  1  0  0  0
 52128  1  0  0  0
 53 54  1  0  0  0
 54 55  2  0  0  0
 54129  1  0  0  0
 55 57  1  0  0  0
 55130  1  0  0  0
 56 69  2  0  0  0
 57 58  2  0  0  0
 57131  1  0  0  0
 58132  1  0  0  0
 59 60  1  0  0  0
 59 61  1  0  0  0
 59 62  1  0  0  0
 60133  1  0  0  0
 60134  1  0  0  0
 60135  1  0  0  0
 61136  1  0  0  0
 61137  1  0  0  0
 61138  1  0  0  0
 62139  1  0  0  0
 62140  1  0  0  0
 62141  1  0  0  0
 63 65  1  0  0  0
 63142  1  0  0  0
 63143  1  0  0  0
 63144  1  0  0  0
 64145  1  0  0  0
 65146  1  0  0  0
 68 81  1  0  0  0
 71 72  2  0  0  0
 71 73  1  0  0  0
 71147  1  0  0  0
 72 74  1  0  0  0
 72148  1  0  0  0
 73 76  2  0  0  0
 73149  1  0  0  0
 74 75  2  0  0  0
 74 84  1  0  0  0
 75 76  1  0  0  0
 75 83  1  0  0  0
 76 86  1  0  0  0
 77 81  1  0  0  0
 77 85  1  0  0  0
 77 87  2  0  0  0
 78 79  1  0  0  0
 78 80  1  0  0  0
 78150  1  0  0  0
 78151  1  0  0  0
 79 81  1  0  0  0
 79152  1  0  0  0
 79153  1  0  0  0
 80 85  1  0  0  0
 80154  1  0  0  0
 80155  1  0  0  0
 81156  1  0  0  0
 82 83  1  0  0  0
 82157  1  0  0  0
 82158  1  0  0  0
 82159  1  0  0  0
 83160  1  0  0  0
 83161  1  0  0  0
 84 85  1  0  0  0
 84162  1  0  0  0
 84163  1  0  0  0
 86164  1  0  0  0
M  ISO  4   1 100  68 101  81 101  86 100
M  END
> <chiral flag>
0

> <version>
0

> <s_m_source_file>
/data/baiqing/PycharmProjects/Reinvent-master-3.2/result/LINK_invent/BTK/process_docking_weight1_custom_product_contain_oxygen_bond_distance_aromatic_linkinvent_7_9_3/rearranged_h_0035.sdf

> <i_m_source_file_index>
26

> <r_mmod_Potential_Energy-OPLS-2005>
267.736114501953

> <r_mmod_Stretch_Energy-OPLS-2005>
141.107574462891

> <r_mmod_Bend_Energy-OPLS-2005>
169.938995361328

> <r_mmod_Torsional_Energy-OPLS-2005>
277.711700439453

> <r_mmod_Improper_Torsional_Energy-OPLS-2005>
7.1009955406189

> <r_mmod_Van_der_Waal_Energy-OPLS-2005>
146.257308959961

> <r_mmod_Electrostatic_Energy-OPLS-2005>
-339.261505126953

> <r_mmod_Solvation_Energy-OPLS-2005>
-235.071151733398

> <b_mmod_Minimization_Converged-OPLS-2005>
0

> <r_mmod_RMS_Derivative-OPLS-2005>
5.85263109207153

$$$$
27
                    3D
 Structure written by MMmdl.
164173  0  0  1  0            999 V2000
  -31.0040  -14.3610   21.4981 C   0  0  0  0  0  0
  -30.2596  -14.6869   17.6517 C   0  0  0  0  0  0
  -28.9466  -13.4307   17.1314 C   0  0  0  0  0  0
  -27.7891  -12.6718   18.3170 C   0  0  0  0  0  0
  -27.5433  -13.1705   20.0177 C   0  0  2  0  0  0
  -28.6260  -14.1123   21.1668 C   0  0  0  0  0  0
  -25.1860  -13.7756   20.7359 C   0  0  0  0  0  0
  -24.1148  -12.9925   20.9874 C   0  0  0  0  0  0
  -24.5906  -11.6486   20.9163 C   0  0  0  0  0  0
  -23.8716  -10.3941   21.0509 C   0  0  0  0  0  0
  -24.3383   -9.3920   21.9253 C   0  0  0  0  0  0
  -23.6113   -8.1966   22.0756 C   0  0  0  0  0  0
  -22.4103   -8.0072   21.3518 C   0  0  0  0  0  0
  -21.9703   -9.0013   20.4606 C   0  0  0  0  0  0
  -22.6984  -10.1881   20.3058 C   0  0  0  0  0  0
  -21.6745   -6.0624   22.5288 C   0  0  0  0  0  0
  -21.3937   -6.5572   23.8208 C   0  0  0  0  0  0
  -21.3639   -5.6761   24.9193 C   0  0  0  0  0  0
  -21.6049   -4.3027   24.7264 C   0  0  0  0  0  0
  -21.8829   -3.8083   23.4398 C   0  0  0  0  0  0
  -21.9157   -4.6868   22.3433 C   0  0  0  0  0  0
  -22.7208  -13.4819   21.2069 C   0  0  0  0  0  0
  -22.1650   -4.2071   21.1011 F   0  0  0  0  0  0
  -21.5641   -3.4521   25.7785 F   0  0  0  0  0  0
  -30.1586  -14.8919   20.5817 N   0  0  0  0  0  0
  -26.2461  -12.8799   20.5320 N   0  0  0  0  0  0
  -25.8870  -11.5957   20.6524 N   0  0  0  0  0  0
  -21.9717  -12.7918   22.0559 N   0  0  0  0  0  0
  -25.3220  -15.1625   20.6250 N   0  0  0  0  0  0
  -32.1213  -14.8283   21.5933 O   0  0  0  0  0  0
  -21.6475   -6.8703   21.4232 O   0  0  0  0  0  0
  -22.3130  -14.5173   20.6772 O   0  0  0  0  0  0
  -24.7056  -31.7770   23.1343 C   0  0  0  0  0  0
  -25.9543  -32.4353   23.7958 C   0  0  1  0  0  0
  -27.1951  -26.5368   20.0890 C   0  0  0  0  0  0
  -25.6038  -33.8185   24.1835 N   0  0  0  0  0  0
  -23.5333  -30.3792   21.4989 C   0  0  2  0  0  0
  -24.9701  -28.6875   20.1083 C   0  0  0  0  0  0
  -22.7850  -29.4213   22.4668 C   0  0  0  0  0  0
  -18.0349  -28.1430   22.8446 C   0  0  0  0  0  0
  -24.1493  -36.7105   23.2654 C   0  0  0  0  0  0
  -26.1264  -30.4459   21.4160 C   0  0  0  0  0  0
  -26.1784  -28.9980   20.7419 C   0  0  0  0  0  0
  -27.2765  -27.9541   20.6934 C   0  0  0  0  0  0
  -25.9389  -26.4763   19.4394 C   0  0  0  0  0  0
  -24.8957  -27.4544   19.4429 C   0  0  0  0  0  0
  -23.7851  -29.6718   20.1381 C   0  0  0  0  0  0
  -25.4149  -36.2826   24.0266 C   0  0  1  0  0  0
  -20.5995  -28.3798   23.1105 C   0  0  2  0  0  0
  -20.6805  -26.9444   22.5391 C   0  0  0  0  0  0
  -19.5779  -26.6371   21.5208 C   0  0  0  0  0  0
  -18.1967  -26.7954   22.1618 C   0  0  0  0  0  0
  -19.1620  -28.8942   23.2753 C   0  0  0  0  0  0
  -18.9520  -30.1518   23.8810 C   0  0  0  0  0  0
  -17.6507  -30.6606   24.0548 C   0  0  0  0  0  0
  -25.9153  -34.9225   23.4902 C   0  0  0  0  0  0
  -16.5397  -29.9086   23.6353 C   0  0  0  0  0  0
  -16.7326  -28.6511   23.0368 C   0  0  0  0  0  0
  -26.4645  -31.6463   25.0660 C   0  0  0  0  0  0
  -25.3662  -31.3827   26.1242 C   0  0  0  0  0  0
  -27.0617  -30.2787   24.6689 C   0  0  0  0  0  0
  -27.6050  -32.4371   25.7500 C   0  0  0  0  0  0
  -27.5564  -37.1695   24.8455 C   0  0  0  0  0  0
  -21.4477  -29.3021   22.3425 N   0  0  0  0  0  0
  -26.4250  -37.3619   23.9428 N   0  0  0  0  0  0
  -24.8166  -30.9032   22.0691 N   0  0  0  0  0  0
  -23.4216  -28.7816   23.3069 O   0  0  0  0  0  0
  -28.1211  -25.2379   19.9817 O   0  0  0  0  0  0
  -26.5813  -34.8845   22.4532 O   0  0  0  0  0  0
  -23.6047  -32.0930   23.6199 O   0  0  0  0  0  0
  -31.6419  -13.5993   19.1144 C   0  0  0  0  0  0
  -32.0926  -15.2105   19.0500 C   0  0  0  0  0  0
  -29.9653  -13.2220   19.2409 C   0  0  0  0  0  0
  -28.6542  -15.1843   19.0094 C   0  0  0  0  0  0
  -29.5013  -16.7432   19.0704 C   0  0  0  0  0  0
  -31.1281  -16.5542   19.0465 C   0  0  0  0  0  0
  -28.6504  -21.8323   19.1991 C   0  0  0  0  0  0
  -27.2557  -21.3659   21.5106 C   0  0  0  0  0  0
  -27.6926  -22.8791   21.3997 C   0  0  0  0  0  0
  -28.2582  -20.2445   21.0177 C   0  0  0  0  0  0
  -27.8823  -23.4088   19.9569 C   0  0  1  0  0  0
  -27.3853  -15.5928   18.1750 C   0  0  0  0  0  0
  -28.8558  -18.5799   18.9009 C   0  0  0  0  0  0
  -30.2277  -12.2188   20.4333 C   0  0  0  0  0  0
  -28.6729  -20.2925   19.5990 N   0  0  0  0  0  0
  -30.8965  -12.9918   21.5530 N   0  0  0  0  0  0
  -29.1749  -22.0620   18.1046 O   0  0  0  0  0  0
  -32.0028  -18.0382   18.9617 Cl  0  0  0  0  0  0
  -30.0284  -15.5792   17.0552 H   0  0  0  0  0  0
  -31.1378  -14.4110   17.0431 H   0  0  0  0  0  0
  -29.4545  -12.6194   16.6085 H   0  0  0  0  0  0
  -28.3607  -13.8905   16.3364 H   0  0  0  0  0  0
  -28.0546  -11.6143   18.3540 H   0  0  0  0  0  0
  -26.8110  -12.6276   17.8337 H   0  0  0  0  0  0
  -26.9963  -13.9249   19.5906 H   0  0  0  0  0  0
  -28.6730  -13.5771   22.1201 H   0  0  0  0  0  0
  -28.0288  -14.9632   21.5020 H   0  0  0  0  0  0
  -25.2495   -9.5429   22.4870 H   0  0  0  0  0  0
  -23.9814   -7.4332   22.7447 H   0  0  0  0  0  0
  -21.0639   -8.8484   19.8912 H   0  0  0  0  0  0
  -22.3450  -10.9457   19.6196 H   0  0  0  0  0  0
  -21.1908   -7.6084   23.9679 H   0  0  0  0  0  0
  -21.1470   -6.0511   25.9087 H   0  0  0  0  0  0
  -22.0643   -2.7555   23.2921 H   0  0  0  0  0  0
  -22.3244  -11.9615   22.5092 H   0  0  0  0  0  0
  -21.0310  -13.0979   22.2564 H   0  0  0  0  0  0
  -24.5363  -15.7916   20.7452 H   0  0  0  0  0  0
  -26.1985  -15.6384   20.4551 H   0  0  0  0  0  0
  -26.7641  -32.4757   23.0674 H   0  0  0  0  0  0
  -25.0074  -33.9181   24.9921 H   0  0  0  0  0  0
  -22.8703  -31.2243   21.3019 H   0  0  0  0  0  0
  -23.3788  -35.9397   23.3214 H   0  0  0  0  0  0
  -24.3565  -36.8885   22.2090 H   0  0  0  0  0  0
  -23.7214  -37.6232   23.6814 H   0  0  0  0  0  0
  -26.3551  -31.1699   20.6327 H   0  0  0  0  0  0
  -26.9695  -30.5037   22.0922 H   0  0  0  0  0  0
  -28.2008  -28.2057   21.1927 H   0  0  0  0  0  0
  -25.7236  -25.5616   18.9074 H   0  0  0  0  0  0
  -23.9819  -27.2070   18.9184 H   0  0  0  0  0  0
  -23.9815  -30.4299   19.3797 H   0  0  0  0  0  0
  -22.8812  -29.1593   19.8053 H   0  0  0  0  0  0
  -25.1358  -36.1549   25.0752 H   0  0  0  0  0  0
  -21.0067  -28.3429   24.1235 H   0  0  0  0  0  0
  -20.5660  -26.2424   23.3666 H   0  0  0  0  0  0
  -21.6663  -26.7365   22.1213 H   0  0  0  0  0  0
  -19.6932  -25.6261   21.1289 H   0  0  0  0  0  0
  -19.6719  -27.3137   20.6702 H   0  0  0  0  0  0
  -17.4231  -26.6689   21.4027 H   0  0  0  0  0  0
  -18.0361  -26.0118   22.9037 H   0  0  0  0  0  0
  -19.7995  -30.7354   24.2147 H   0  0  0  0  0  0
  -17.5057  -31.6276   24.5169 H   0  0  0  0  0  0
  -15.5394  -30.2962   23.7723 H   0  0  0  0  0  0
  -15.8727  -28.0799   22.7131 H   0  0  0  0  0  0
  -24.5872  -30.7157   25.7528 H   0  0  0  0  0  0
  -24.8830  -32.3064   26.4433 H   0  0  0  0  0  0
  -25.7795  -30.9132   27.0178 H   0  0  0  0  0  0
  -26.3367  -29.6334   24.1721 H   0  0  0  0  0  0
  -27.4027  -29.7312   25.5488 H   0  0  0  0  0  0
  -27.9348  -30.3887   24.0256 H   0  0  0  0  0  0
  -27.2544  -33.3732   26.1862 H   0  0  0  0  0  0
  -28.3972  -32.6850   25.0420 H   0  0  0  0  0  0
  -28.0610  -31.8661   26.5600 H   0  0  0  0  0  0
  -28.2487  -38.0080   24.7578 H   0  0  0  0  0  0
  -28.1152  -36.2605   24.6176 H   0  0  0  0  0  0
  -27.2297  -37.1197   25.8857 H   0  0  0  0  0  0
  -20.9819  -29.8692   21.6480 H   0  0  0  0  0  0
  -26.0051  -38.2643   24.1501 H   0  0  0  0  0  0
  -32.4120  -12.8524   19.2421 H   0  0  0  0  0  0
  -33.1555  -15.4015   19.0277 H   0  0  0  0  0  0
  -26.3038  -21.2367   20.9933 H   0  0  0  0  0  0
  -27.0290  -21.1643   22.5585 H   0  0  0  0  0  0
  -28.6197  -23.0307   21.9523 H   0  0  0  0  0  0
  -26.9400  -23.4926   21.8950 H   0  0  0  0  0  0
  -27.8049  -19.2694   21.2061 H   0  0  0  0  0  0
  -29.1608  -20.2645   21.6308 H   0  0  0  0  0  0
  -26.8962  -23.3616   19.4947 H   0  0  0  0  0  0
  -26.7267  -14.8273   17.7765 H   0  0  0  0  0  0
  -27.6980  -16.1613   17.2994 H   0  0  0  0  0  0
  -26.7602  -16.2710   18.7528 H   0  0  0  0  0  0
  -27.7999  -18.3741   18.7311 H   0  0  0  0  0  0
  -29.2211  -18.8171   17.8996 H   0  0  0  0  0  0
  -30.9020  -11.4309   20.0946 H   0  0  0  0  0  0
  -29.3527  -11.6712   20.7824 H   0  0  0  0  0  0
  -31.6094  -12.5006   22.0718 H   0  0  0  0  0  0
  1 25  1  0  0  0
  1 30  2  0  0  0
  1 86  1  0  0  0
  2  3  1  0  0  0
  2 25  1  0  0  0
  2 89  1  0  0  0
  2 90  1  0  0  0
  3  4  1  0  0  0
  3 91  1  0  0  0
  3 92  1  0  0  0
  4  5  1  0  0  0
  4 93  1  0  0  0
  4 94  1  0  0  0
  5  6  1  0  0  0
  5 26  1  0  0  0
  5 95  1  0  0  0
  6 25  1  0  0  0
  6 96  1  0  0  0
  6 97  1  0  0  0
  7  8  2  0  0  0
  7 26  1  0  0  0
  7 29  1  0  0  0
  8  9  1  0  0  0
  8 22  1  0  0  0
  9 10  1  0  0  0
  9 27  2  0  0  0
 10 11  2  0  0  0
 10 15  1  0  0  0
 11 12  1  0  0  0
 11 98  1  0  0  0
 12 13  2  0  0  0
 12 99  1  0  0  0
 13 14  1  0  0  0
 13 31  1  0  0  0
 14 15  2  0  0  0
 14100  1  0  0  0
 15101  1  0  0  0
 16 17  2  0  0  0
 16 21  1  0  0  0
 16 31  1  0  0  0
 17 18  1  0  0  0
 17102  1  0  0  0
 18 19  2  0  0  0
 18103  1  0  0  0
 19 20  1  0  0  0
 19 24  1  0  0  0
 20 21  2  0  0  0
 20104  1  0  0  0
 21 23  1  0  0  0
 22 28  1  0  0  0
 22 32  2  0  0  0
 26 27  1  0  0  0
 28105  1  0  0  0
 28106  1  0  0  0
 29107  1  0  0  0
 29108  1  0  0  0
 33 34  1  0  0  0
 33 66  1  0  0  0
 33 70  2  0  0  0
 34 36  1  0  0  0
 34 59  1  0  0  0
 34109  1  0  0  0
 35 44  2  0  0  0
 35 45  1  0  0  0
 35 68  1  0  0  0
 36 56  1  0  0  0
 36110  1  0  0  0
 37 39  1  0  0  0
 37 47  1  0  0  0
 37 66  1  0  0  0
 37111  1  0  0  0
 38 43  2  0  0  0
 38 46  1  0  0  0
 38 47  1  0  0  0
 39 64  1  0  0  0
 39 67  2  0  0  0
 40 52  1  0  0  0
 40 53  2  0  0  0
 40 58  1  0  0  0
 41112  1  0  0  0
 41113  1  0  0  0
 41114  1  0  0  0
 41 48  1  0  0  0
 42 43  1  0  0  0
 42 66  1  0  0  0
 42115  1  0  0  0
 42116  1  0  0  0
 43 44  1  0  0  0
 44117  1  0  0  0
 45 46  2  0  0  0
 45118  1  0  0  0
 46119  1  0  0  0
 47120  1  0  0  0
 47121  1  0  0  0
 48 56  1  0  0  0
 48 65  1  0  0  0
 48122  1  0  0  0
 49 50  1  0  0  0
 49 53  1  0  0  0
 49 64  1  0  0  0
 49123  1  0  0  0
 50 51  1  0  0  0
 50124  1  0  0  0
 50125  1  0  0  0
 51 52  1  0  0  0
 51126  1  0  0  0
 51127  1  0  0  0
 52128  1  0  0  0
 52129  1  0  0  0
 53 54  1  0  0  0
 54 55  2  0  0  0
 54130  1  0  0  0
 55 57  1  0  0  0
 55131  1  0  0  0
 56 69  2  0  0  0
 57 58  2  0  0  0
 57132  1  0  0  0
 58133  1  0  0  0
 59 60  1  0  0  0
 59 61  1  0  0  0
 59 62  1  0  0  0
 60134  1  0  0  0
 60135  1  0  0  0
 60136  1  0  0  0
 61137  1  0  0  0
 61138  1  0  0  0
 61139  1  0  0  0
 62140  1  0  0  0
 62141  1  0  0  0
 62142  1  0  0  0
 63 65  1  0  0  0
 63143  1  0  0  0
 63144  1  0  0  0
 63145  1  0  0  0
 64146  1  0  0  0
 65147  1  0  0  0
 68 81  1  0  0  0
 71 72  2  0  0  0
 71 73  1  0  0  0
 71148  1  0  0  0
 72 76  1  0  0  0
 72149  1  0  0  0
 73 74  2  0  0  0
 73 84  1  0  0  0
 74 75  1  0  0  0
 74 82  1  0  0  0
 75 76  2  0  0  0
 75 83  1  0  0  0
 76 88  1  0  0  0
 77 81  1  0  0  0
 77 85  1  0  0  0
 77 87  2  0  0  0
 78 79  1  0  0  0
 78 80  1  0  0  0
 78150  1  0  0  0
 78151  1  0  0  0
 79 81  1  0  0  0
 79152  1  0  0  0
 79153  1  0  0  0
 80 85  1  0  0  0
 80154  1  0  0  0
 80155  1  0  0  0
 81156  1  0  0  0
 82157  1  0  0  0
 82158  1  0  0  0
 82159  1  0  0  0
 83 85  1  0  0  0
 83160  1  0  0  0
 83161  1  0  0  0
 84 86  1  0  0  0
 84162  1  0  0  0
 84163  1  0  0  0
 86164  1  0  0  0
M  ISO  4   1 100  68 101  81 101  86 100
M  END
> <chiral flag>
0

> <version>
0

> <s_m_source_file>
/data/baiqing/PycharmProjects/Reinvent-master-3.2/result/LINK_invent/BTK/process_docking_weight1_custom_product_contain_oxygen_bond_distance_aromatic_linkinvent_7_9_3/rearranged_h_0035.sdf

> <i_m_source_file_index>
27

> <r_mmod_Potential_Energy-OPLS-2005>
14468.8623046875

> <r_mmod_Stretch_Energy-OPLS-2005>
7809.2451171875

> <r_mmod_Bend_Energy-OPLS-2005>
1079.71154785156

> <r_mmod_Torsional_Energy-OPLS-2005>
486.931365966797

> <r_mmod_Improper_Torsional_Energy-OPLS-2005>
81.7168045043945

> <r_mmod_Van_der_Waal_Energy-OPLS-2005>
3186.91845703125

> <r_mmod_Electrostatic_Energy-OPLS-2005>
-367.196960449219

> <r_mmod_Solvation_Energy-OPLS-2005>
-235.928161621094

> <b_mmod_Minimization_Converged-OPLS-2005>
0

> <r_mmod_RMS_Derivative-OPLS-2005>
5.77309513092041

$$$$
28
                    3D
 Structure written by MMmdl.
163172  0  0  1  0            999 V2000
  -30.5580  -14.7711   20.3797 C   0  0  0  0  0  0
  -30.4470  -12.4305   19.5113 C   0  0  0  0  0  0
  -29.5257  -12.3970   18.2699 C   0  0  0  0  0  0
  -28.0306  -12.3336   18.6483 C   0  0  0  0  0  0
  -27.6432  -13.2113   19.8717 C   0  0  2  0  0  0
  -28.6916  -13.1513   20.9997 C   0  0  0  0  0  0
  -25.2489  -13.8156   20.5687 C   0  0  0  0  0  0
  -24.1765  -13.0451   20.9194 C   0  0  0  0  0  0
  -24.6349  -11.6905   20.8830 C   0  0  0  0  0  0
  -23.9050  -10.4279   21.0450 C   0  0  0  0  0  0
  -24.3620   -9.4165   21.9194 C   0  0  0  0  0  0
  -23.6293   -8.2199   22.0763 C   0  0  0  0  0  0
  -22.4281   -8.0243   21.3535 C   0  0  0  0  0  0
  -21.9931   -9.0224   20.4629 C   0  0  0  0  0  0
  -22.7251  -10.2110   20.3051 C   0  0  0  0  0  0
  -21.6826   -6.0736   22.5293 C   0  0  0  0  0  0
  -21.3979   -6.5645   23.8221 C   0  0  0  0  0  0
  -21.3683   -5.6804   24.9193 C   0  0  0  0  0  0
  -21.6067   -4.3067   24.7231 C   0  0  0  0  0  0
  -21.8826   -3.8155   23.4355 C   0  0  0  0  0  0
  -21.9172   -4.6972   22.3418 C   0  0  0  0  0  0
  -22.7763  -13.5241   21.1857 C   0  0  0  0  0  0
  -22.1643   -4.2172   21.0995 F   0  0  0  0  0  0
  -21.5664   -3.4548   25.7738 F   0  0  0  0  0  0
  -29.9855  -13.5164   20.4048 N   0  0  0  0  0  0
  -26.2933  -12.9318   20.3401 N   0  0  0  0  0  0
  -25.9289  -11.6492   20.5907 N   0  0  0  0  0  0
  -22.0425  -12.8208   22.0398 N   0  0  0  0  0  0
  -25.4245  -15.1889   20.4033 N   0  0  0  0  0  0
  -31.7385  -14.9033   20.0454 O   0  0  0  0  0  0
  -21.6622   -6.8862   21.4247 O   0  0  0  0  0  0
  -22.3452  -14.5569   20.6716 O   0  0  0  0  0  0
  -24.6298  -31.8535   23.1978 C   0  0  0  0  0  0
  -25.9124  -32.4738   23.8332 C   0  0  1  0  0  0
  -27.2450  -27.2799   20.1013 C   0  0  0  0  0  0
  -25.5920  -33.8551   24.2238 N   0  0  0  0  0  0
  -23.4265  -30.4751   21.5419 C   0  0  2  0  0  0
  -24.8746  -28.9190   20.1139 C   0  0  0  0  0  0
  -22.7476  -29.4603   22.4926 C   0  0  0  0  0  0
  -18.0279  -28.1413   22.8483 C   0  0  0  0  0  0
  -24.1497  -36.7277   23.2637 C   0  0  0  0  0  0
  -25.9708  -30.7675   21.3788 C   0  0  0  0  0  0
  -26.0450  -29.3933   20.7169 C   0  0  0  0  0  0
  -27.2255  -28.5849   20.7024 C   0  0  0  0  0  0
  -26.0407  -26.8613   19.4877 C   0  0  0  0  0  0
  -24.8758  -27.6575   19.4966 C   0  0  0  0  0  0
  -23.6408  -29.8015   20.1615 C   0  0  0  0  0  0
  -25.4116  -36.3050   24.0319 C   0  0  1  0  0  0
  -20.5873  -28.3714   23.1282 C   0  0  2  0  0  0
  -20.6782  -26.9441   22.5415 C   0  0  0  0  0  0
  -19.5747  -26.6402   21.5231 C   0  0  0  0  0  0
  -18.1923  -26.7949   22.1632 C   0  0  0  0  0  0
  -19.1530  -28.8887   23.2872 C   0  0  0  0  0  0
  -18.9446  -30.1491   23.8890 C   0  0  0  0  0  0
  -17.6443  -30.6612   24.0565 C   0  0  0  0  0  0
  -25.9061  -34.9430   23.5079 C   0  0  0  0  0  0
  -16.5333  -29.9099   23.6357 C   0  0  0  0  0  0
  -16.7266  -28.6523   23.0368 C   0  0  0  0  0  0
  -26.4488  -31.6575   25.0735 C   0  0  0  0  0  0
  -25.3684  -31.3720   26.1424 C   0  0  0  0  0  0
  -27.0372  -30.2982   24.6283 C   0  0  0  0  0  0
  -27.6018  -32.4326   25.7545 C   0  0  0  0  0  0
  -27.5574  -37.1796   24.8444 C   0  0  0  0  0  0
  -21.4181  -29.3051   22.3662 N   0  0  0  0  0  0
  -26.4280  -37.3753   23.9401 N   0  0  0  0  0  0
  -24.6945  -31.0499   22.0954 N   0  0  0  0  0  0
  -23.4166  -28.8153   23.3044 O   0  0  0  0  0  0
  -28.3916  -26.4528   20.1698 O   0  0  0  0  0  0
  -26.5648  -34.8904   22.4658 O   0  0  0  0  0  0
  -23.5452  -32.1383   23.7272 O   0  0  0  0  0  0
  -28.9393  -19.6704   18.5460 C   0  0  0  0  0  0
  -28.8815  -18.4365   17.8837 C   0  0  0  0  0  0
  -29.6378  -18.4843   20.5568 C   0  0  0  0  0  0
  -29.3220  -19.7509   19.8986 C   0  0  0  0  0  0
  -29.1986  -17.2193   18.5233 C   0  0  0  0  0  0
  -29.6006  -17.1836   19.8930 C   0  0  0  0  0  0
  -30.0806  -23.8880   17.9103 C   0  0  0  0  0  0
  -29.7695  -25.2125   18.6376 C   0  0  0  0  0  0
  -30.3307  -22.7286   18.8983 C   0  0  0  0  0  0
  -28.7405  -23.7805   20.4742 C   0  0  0  0  0  0
  -28.5335  -25.0933   19.5483 C   0  0  1  0  0  0
  -29.0252  -15.9736   17.6779 C   0  0  0  0  0  0
  -29.2966  -21.1872   20.6000 C   0  0  0  0  0  0
  -29.7340  -15.8703   20.5939 N   0  0  0  0  0  0
  -29.1428  -22.4740   19.7567 N   0  3  2  0  0  0
  -31.4851  -12.5625   19.2003 H   0  0  0  0  0  0
  -30.4199  -11.4810   20.0471 H   0  0  0  0  0  0
  -29.7726  -11.5279   17.6599 H   0  0  0  0  0  0
  -29.7293  -13.2538   17.6361 H   0  0  0  0  0  0
  -27.8008  -11.2911   18.8627 H   0  0  0  0  0  0
  -27.4192  -12.6003   17.7864 H   0  0  0  0  0  0
  -27.6273  -14.2360   19.5343 H   0  0  0  0  0  0
  -28.7367  -12.1542   21.4383 H   0  0  0  0  0  0
  -28.4253  -13.8300   21.8094 H   0  0  0  0  0  0
  -25.2774   -9.5652   22.4764 H   0  0  0  0  0  0
  -24.0001   -7.4615   22.7522 H   0  0  0  0  0  0
  -21.0862   -8.8760   19.8937 H   0  0  0  0  0  0
  -22.3723  -10.9659   19.6164 H   0  0  0  0  0  0
  -21.1925   -7.6148   23.9722 H   0  0  0  0  0  0
  -21.1503   -6.0539   25.9105 H   0  0  0  0  0  0
  -22.0570   -2.7613   23.2850 H   0  0  0  0  0  0
  -22.4048  -11.9874   22.4791 H   0  0  0  0  0  0
  -21.1053  -13.1209   22.2670 H   0  0  0  0  0  0
  -24.6604  -15.8500   20.4822 H   0  0  0  0  0  0
  -26.2770  -15.6170   20.0664 H   0  0  0  0  0  0
  -26.7190  -32.5385   23.1083 H   0  0  0  0  0  0
  -25.0011  -33.9699   25.0341 H   0  0  0  0  0  0
  -22.7214  -31.2955   21.3953 H   0  0  0  0  0  0
  -23.3771  -35.9597   23.3263 H   0  0  0  0  0  0
  -24.3585  -36.8948   22.2057 H   0  0  0  0  0  0
  -23.7252  -37.6459   23.6707 H   0  0  0  0  0  0
  -26.1125  -31.5319   20.6136 H   0  0  0  0  0  0
  -26.8443  -30.8086   22.0167 H   0  0  0  0  0  0
  -28.1218  -28.9497   21.1847 H   0  0  0  0  0  0
  -25.9428  -25.8979   19.0165 H   0  0  0  0  0  0
  -23.9746  -27.2774   19.0349 H   0  0  0  0  0  0
  -23.7535  -30.5751   19.4018 H   0  0  0  0  0  0
  -22.7611  -29.2262   19.8659 H   0  0  0  0  0  0
  -25.1305  -36.1889   25.0812 H   0  0  0  0  0  0
  -20.9952  -28.3325   24.1408 H   0  0  0  0  0  0
  -20.5730  -26.2328   23.3613 H   0  0  0  0  0  0
  -21.6648  -26.7501   22.1187 H   0  0  0  0  0  0
  -19.6917  -25.6311   21.1276 H   0  0  0  0  0  0
  -19.6698  -27.3210   20.6763 H   0  0  0  0  0  0
  -17.4193  -26.6703   21.4036 H   0  0  0  0  0  0
  -18.0310  -26.0107   22.9038 H   0  0  0  0  0  0
  -19.7915  -30.7321   24.2249 H   0  0  0  0  0  0
  -17.4993  -31.6308   24.5148 H   0  0  0  0  0  0
  -15.5337  -30.2994   23.7703 H   0  0  0  0  0  0
  -15.8656  -28.0845   22.7088 H   0  0  0  0  0  0
  -24.5855  -30.7093   25.7709 H   0  0  0  0  0  0
  -24.8884  -32.2890   26.4849 H   0  0  0  0  0  0
  -25.7951  -30.8865   27.0209 H   0  0  0  0  0  0
  -26.3011  -29.6710   24.1226 H   0  0  0  0  0  0
  -27.3925  -29.7258   25.4866 H   0  0  0  0  0  0
  -27.8940  -30.4232   23.9655 H   0  0  0  0  0  0
  -27.2594  -33.3612   26.2133 H   0  0  0  0  0  0
  -28.3851  -32.6898   25.0399 H   0  0  0  0  0  0
  -28.0675  -31.8444   26.5468 H   0  0  0  0  0  0
  -28.2527  -38.0149   24.7537 H   0  0  0  0  0  0
  -28.1134  -36.2674   24.6228 H   0  0  0  0  0  0
  -27.2283  -37.1379   25.8839 H   0  0  0  0  0  0
  -20.9360  -29.8732   21.6828 H   0  0  0  0  0  0
  -26.0149  -38.2820   24.1419 H   0  0  0  0  0  0
  -28.6580  -20.5517   17.9844 H   0  0  0  0  0  0
  -28.5475  -18.4329   16.8549 H   0  0  0  0  0  0
  -29.8862  -18.5103   21.6098 H   0  0  0  0  0  0
  -30.9591  -24.0199   17.2787 H   0  0  0  0  0  0
  -29.2658  -23.6355   17.2296 H   0  0  0  0  0  0
  -29.6159  -26.0043   17.9025 H   0  0  0  0  0  0
  -30.6344  -25.5158   19.2289 H   0  0  0  0  0  0
  -31.1910  -22.9622   19.5280 H   0  0  0  0  0  0
  -30.6051  -21.8346   18.3391 H   0  0  0  0  0  0
  -27.8271  -23.6001   21.0399 H   0  0  0  0  0  0
  -29.5144  -23.9969   21.2118 H   0  0  0  0  0  0
  -27.7019  -24.8808   18.8827 H   0  0  0  0  0  0
  -28.8680  -16.2188   16.6268 H   0  0  0  0  0  0
  -28.1418  -15.4237   17.9843 H   0  0  0  0  0  0
  -29.9171  -15.3544   17.7377 H   0  0  0  0  0  0
  -30.2010  -21.2854   21.2012 H   0  0  0  0  0  0
  -28.4708  -21.1615   21.3108 H   0  0  0  0  0  0
  -28.8860  -15.5967   21.0672 H   0  0  0  0  0  0
  -28.3791  -22.2659   19.1304 H   0  0  0  0  0  0
  1 25  1  0  0  0
  1 30  2  0  0  0
  1 84  1  0  0  0
  2  3  1  0  0  0
  2 25  1  0  0  0
  2 86  1  0  0  0
  2 87  1  0  0  0
  3  4  1  0  0  0
  3 88  1  0  0  0
  3 89  1  0  0  0
  4  5  1  0  0  0
  4 90  1  0  0  0
  4 91  1  0  0  0
  5  6  1  0  0  0
  5 26  1  0  0  0
  5 92  1  0  0  0
  6 25  1  0  0  0
  6 93  1  0  0  0
  6 94  1  0  0  0
  7  8  2  0  0  0
  7 26  1  0  0  0
  7 29  1  0  0  0
  8  9  1  0  0  0
  8 22  1  0  0  0
  9 10  1  0  0  0
  9 27  2  0  0  0
 10 11  2  0  0  0
 10 15  1  0  0  0
 11 12  1  0  0  0
 11 95  1  0  0  0
 12 13  2  0  0  0
 12 96  1  0  0  0
 13 14  1  0  0  0
 13 31  1  0  0  0
 14 15  2  0  0  0
 14 97  1  0  0  0
 15 98  1  0  0  0
 16 17  2  0  0  0
 16 21  1  0  0  0
 16 31  1  0  0  0
 17 18  1  0  0  0
 17 99  1  0  0  0
 18 19  2  0  0  0
 18100  1  0  0  0
 19 20  1  0  0  0
 19 24  1  0  0  0
 20 21  2  0  0  0
 20101  1  0  0  0
 21 23  1  0  0  0
 22 28  1  0  0  0
 22 32  2  0  0  0
 26 27  1  0  0  0
 28102  1  0  0  0
 28103  1  0  0  0
 29104  1  0  0  0
 29105  1  0  0  0
 33 34  1  0  0  0
 33 66  1  0  0  0
 33 70  2  0  0  0
 34 36  1  0  0  0
 34 59  1  0  0  0
 34106  1  0  0  0
 35 44  2  0  0  0
 35 45  1  0  0  0
 35 68  1  0  0  0
 36 56  1  0  0  0
 36107  1  0  0  0
 37 39  1  0  0  0
 37 47  1  0  0  0
 37 66  1  0  0  0
 37108  1  0  0  0
 38 43  2  0  0  0
 38 46  1  0  0  0
 38 47  1  0  0  0
 39 64  1  0  0  0
 39 67  2  0  0  0
 40 52  1  0  0  0
 40 53  2  0  0  0
 40 58  1  0  0  0
 41109  1  0  0  0
 41110  1  0  0  0
 41111  1  0  0  0
 41 48  1  0  0  0
 42 43  1  0  0  0
 42 66  1  0  0  0
 42112  1  0  0  0
 42113  1  0  0  0
 43 44  1  0  0  0
 44114  1  0  0  0
 45 46  2  0  0  0
 45115  1  0  0  0
 46116  1  0  0  0
 47117  1  0  0  0
 47118  1  0  0  0
 48 56  1  0  0  0
 48 65  1  0  0  0
 48119  1  0  0  0
 49 50  1  0  0  0
 49 53  1  0  0  0
 49 64  1  0  0  0
 49120  1  0  0  0
 50 51  1  0  0  0
 50121  1  0  0  0
 50122  1  0  0  0
 51 52  1  0  0  0
 51123  1  0  0  0
 51124  1  0  0  0
 52125  1  0  0  0
 52126  1  0  0  0
 53 54  1  0  0  0
 54 55  2  0  0  0
 54127  1  0  0  0
 55 57  1  0  0  0
 55128  1  0  0  0
 56 69  2  0  0  0
 57 58  2  0  0  0
 57129  1  0  0  0
 58130  1  0  0  0
 59 60  1  0  0  0
 59 61  1  0  0  0
 59 62  1  0  0  0
 60131  1  0  0  0
 60132  1  0  0  0
 60133  1  0  0  0
 61134  1  0  0  0
 61135  1  0  0  0
 61136  1  0  0  0
 62137  1  0  0  0
 62138  1  0  0  0
 62139  1  0  0  0
 63 65  1  0  0  0
 63140  1  0  0  0
 63141  1  0  0  0
 63142  1  0  0  0
 64143  1  0  0  0
 65144  1  0  0  0
 68 81  1  0  0  0
 71 72  2  0  0  0
 71 74  1  0  0  0
 71145  1  0  0  0
 72 75  1  0  0  0
 72146  1  0  0  0
 73 74  2  0  0  0
 73 76  1  0  0  0
 73147  1  0  0  0
 74 83  1  0  0  0
 75 76  2  0  0  0
 75 82  1  0  0  0
 76 84  1  0  0  0
 77 78  1  0  0  0
 77 79  1  0  0  0
 77148  1  0  0  0
 77149  1  0  0  0
 78 81  1  0  0  0
 78150  1  0  0  0
 78151  1  0  0  0
 79 85  1  0  0  0
 79152  1  0  0  0
 79153  1  0  0  0
 80 81  1  0  0  0
 80 85  1  0  0  0
 80154  1  0  0  0
 80155  1  0  0  0
 81156  1  0  0  0
 82157  1  0  0  0
 82158  1  0  0  0
 82159  1  0  0  0
 83160  1  0  0  0
 83161  1  0  0  0
 83 85  1  0  0  0
 84162  1  0  0  0
 85163  1  0  0  0
M  CHG  1  85   1
M  ISO  4   1 100  68 101  81 101  84 100
M  END
> <chiral flag>
0

> <version>
0

> <s_m_source_file>
/data/baiqing/PycharmProjects/Reinvent-master-3.2/result/LINK_invent/BTK/process_docking_weight1_custom_product_contain_oxygen_bond_distance_aromatic_linkinvent_7_9_3/rearranged_h_0035.sdf

> <i_m_source_file_index>
28

> <r_mmod_Potential_Energy-OPLS-2005>
114.466209411621

> <r_mmod_Stretch_Energy-OPLS-2005>
127.645896911621

> <r_mmod_Bend_Energy-OPLS-2005>
175.279281616211

> <r_mmod_Torsional_Energy-OPLS-2005>
276.524536132812

> <r_mmod_Improper_Torsional_Energy-OPLS-2005>
6.25765895843506

> <r_mmod_Van_der_Waal_Energy-OPLS-2005>
142.332382202148

> <r_mmod_Electrostatic_Energy-OPLS-2005>
-267.240142822266

> <r_mmod_Solvation_Energy-OPLS-2005>
-434.581970214844

> <b_mmod_Minimization_Converged-OPLS-2005>
0

> <r_mmod_RMS_Derivative-OPLS-2005>
4.10533428192139

$$$$
29
                    3D
 Structure written by MMmdl.
154162  0  0  1  0            999 V2000
  -30.5725  -14.7878   20.4397 C   0  0  0  0  0  0
  -30.4398  -12.4719   19.4980 C   0  0  0  0  0  0
  -29.5215  -12.5141   18.2541 C   0  0  0  0  0  0
  -28.0468  -12.3322   18.6614 C   0  0  0  0  0  0
  -27.6458  -13.2330   19.8596 C   0  0  2  0  0  0
  -28.6864  -13.1686   21.0016 C   0  0  0  0  0  0
  -25.2519  -13.8197   20.5703 C   0  0  0  0  0  0
  -24.1804  -13.0442   20.9203 C   0  0  0  0  0  0
  -24.6395  -11.6922   20.8749 C   0  0  0  0  0  0
  -23.9070  -10.4299   21.0413 C   0  0  0  0  0  0
  -24.3622   -9.4213   21.9188 C   0  0  0  0  0  0
  -23.6297   -8.2247   22.0752 C   0  0  0  0  0  0
  -22.4277   -8.0283   21.3544 C   0  0  0  0  0  0
  -21.9914   -9.0260   20.4647 C   0  0  0  0  0  0
  -22.7244  -10.2139   20.3060 C   0  0  0  0  0  0
  -21.6855   -6.0737   22.5278 C   0  0  0  0  0  0
  -21.4017   -6.5640   23.8213 C   0  0  0  0  0  0
  -21.3661   -5.6791   24.9174 C   0  0  0  0  0  0
  -21.6044   -4.3055   24.7222 C   0  0  0  0  0  0
  -21.8821   -3.8148   23.4342 C   0  0  0  0  0  0
  -21.9193   -4.6965   22.3399 C   0  0  0  0  0  0
  -22.7827  -13.5227   21.1857 C   0  0  0  0  0  0
  -22.1662   -4.2153   21.0977 F   0  0  0  0  0  0
  -21.5625   -3.4536   25.7733 F   0  0  0  0  0  0
  -29.9912  -13.5344   20.4336 N   0  0  0  0  0  0
  -26.2952  -12.9405   20.3309 N   0  0  0  0  0  0
  -25.9329  -11.6548   20.5763 N   0  0  0  0  0  0
  -22.0467  -12.8226   22.0418 N   0  0  0  0  0  0
  -25.4207  -15.1921   20.4134 N   0  0  0  0  0  0
  -31.7276  -14.9208   20.0248 O   0  0  0  0  0  0
  -21.6641   -6.8881   21.4241 O   0  0  0  0  0  0
  -22.3520  -14.5531   20.6697 O   0  0  0  0  0  0
  -24.6323  -31.8511   23.1932 C   0  0  0  0  0  0
  -25.9137  -32.4734   23.8296 C   0  0  1  0  0  0
  -27.2325  -27.2391   20.1330 C   0  0  0  0  0  0
  -25.5921  -33.8537   24.2222 N   0  0  0  0  0  0
  -23.4315  -30.4679   21.5357 C   0  0  2  0  0  0
  -24.8812  -28.9042   20.1047 C   0  0  0  0  0  0
  -22.7510  -29.4567   22.4896 C   0  0  0  0  0  0
  -18.0294  -28.1384   22.8482 C   0  0  0  0  0  0
  -24.1485  -36.7274   23.2643 C   0  0  0  0  0  0
  -25.9756  -30.7552   21.3752 C   0  0  0  0  0  0
  -26.0478  -29.3740   20.7188 C   0  0  0  0  0  0
  -27.2193  -28.5514   20.7239 C   0  0  0  0  0  0
  -26.0446  -26.8345   19.4881 C   0  0  0  0  0  0
  -24.8858  -27.6440   19.4790 C   0  0  0  0  0  0
  -23.6507  -29.7928   20.1534 C   0  0  0  0  0  0
  -25.4115  -36.3059   24.0325 C   0  0  1  0  0  0
  -20.5897  -28.3694   23.1266 C   0  0  2  0  0  0
  -20.6772  -26.9408   22.5410 C   0  0  0  0  0  0
  -19.5750  -26.6377   21.5210 C   0  0  0  0  0  0
  -18.1932  -26.7926   22.1623 C   0  0  0  0  0  0
  -19.1548  -28.8859   23.2866 C   0  0  0  0  0  0
  -18.9468  -30.1460   23.8884 C   0  0  0  0  0  0
  -17.6466  -30.6585   24.0562 C   0  0  0  0  0  0
  -25.9058  -34.9431   23.5083 C   0  0  0  0  0  0
  -16.5358  -29.9080   23.6332 C   0  0  0  0  0  0
  -16.7280  -28.6498   23.0353 C   0  0  0  0  0  0
  -26.4499  -31.6583   25.0707 C   0  0  0  0  0  0
  -25.3714  -31.3745   26.1426 C   0  0  0  0  0  0
  -27.0358  -30.3000   24.6217 C   0  0  0  0  0  0
  -27.6041  -32.4340   25.7486 C   0  0  0  0  0  0
  -27.5576  -37.1792   24.8468 C   0  0  0  0  0  0
  -21.4215  -29.3033   22.3650 N   0  0  0  0  0  0
  -26.4287  -37.3762   23.9411 N   0  0  0  0  0  0
  -24.6987  -31.0446   22.0912 N   0  0  0  0  0  0
  -23.4199  -28.8129   23.3022 O   0  0  0  0  0  0
  -28.3478  -26.3719   20.2494 O   0  0  0  0  0  0
  -26.5638  -34.8917   22.4659 O   0  0  0  0  0  0
  -23.5468  -32.1345   23.7215 O   0  0  0  0  0  0
  -31.1400  -19.0785   20.6893 C   0  0  0  0  0  0
  -31.4926  -20.4350   20.8721 C   0  0  0  0  0  0
  -28.8729  -19.8163   20.2759 C   0  0  0  0  0  0
  -29.1894  -21.2320   20.4906 C   0  0  0  0  0  0
  -29.8231  -18.7073   20.3648 C   0  0  0  0  0  0
  -30.5559  -21.4961   20.7719 C   0  0  0  0  0  0
  -28.0942  -22.3428   20.5336 C   0  0  0  0  0  0
  -27.8253  -23.7031   20.2963 C   0  0  0  0  0  0
  -31.0573  -22.9053   21.0340 C   0  0  0  0  0  0
  -29.5488  -17.1895   19.9108 C   0  0  0  0  0  0
  -28.5006  -24.9909   19.6510 C   0  0  0  0  0  0
  -29.7722  -15.8946   20.7149 N   0  0  0  0  0  0
  -31.4823  -12.5983   19.2008 H   0  0  0  0  0  0
  -30.3877  -11.4957   19.9822 H   0  0  0  0  0  0
  -29.8116  -11.7383   17.5440 H   0  0  0  0  0  0
  -29.6457  -13.4660   17.7357 H   0  0  0  0  0  0
  -27.9087  -11.2836   18.9276 H   0  0  0  0  0  0
  -27.3919  -12.5182   17.8094 H   0  0  0  0  0  0
  -27.6398  -14.2541   19.4783 H   0  0  0  0  0  0
  -28.7250  -12.1688   21.4370 H   0  0  0  0  0  0
  -28.4106  -13.8425   21.8140 H   0  0  0  0  0  0
  -25.2768   -9.5687   22.4762 H   0  0  0  0  0  0
  -24.0006   -7.4640   22.7471 H   0  0  0  0  0  0
  -21.0842   -8.8786   19.8957 H   0  0  0  0  0  0
  -22.3708  -10.9678   19.6170 H   0  0  0  0  0  0
  -21.2015   -7.6150   23.9719 H   0  0  0  0  0  0
  -21.1480   -6.0519   25.9077 H   0  0  0  0  0  0
  -22.0598   -2.7608   23.2839 H   0  0  0  0  0  0
  -22.4075  -11.9895   22.4826 H   0  0  0  0  0  0
  -21.1084  -13.1259   22.2606 H   0  0  0  0  0  0
  -24.6510  -15.8439   20.5209 H   0  0  0  0  0  0
  -26.2670  -15.6334   20.0783 H   0  0  0  0  0  0
  -26.7204  -32.5368   23.1035 H   0  0  0  0  0  0
  -25.0065  -33.9673   25.0367 H   0  0  0  0  0  0
  -22.7290  -31.2903   21.3846 H   0  0  0  0  0  0
  -23.3752  -35.9602   23.3302 H   0  0  0  0  0  0
  -24.3571  -36.8902   22.2057 H   0  0  0  0  0  0
  -23.7236  -37.6471   23.6673 H   0  0  0  0  0  0
  -26.1164  -31.5129   20.6032 H   0  0  0  0  0  0
  -26.8524  -30.8068   22.0090 H   0  0  0  0  0  0
  -28.1099  -28.9035   21.2253 H   0  0  0  0  0  0
  -25.9873  -25.8624   19.0202 H   0  0  0  0  0  0
  -23.9906  -27.2778   18.9953 H   0  0  0  0  0  0
  -23.7741  -30.5657   19.3937 H   0  0  0  0  0  0
  -22.7693  -29.2236   19.8525 H   0  0  0  0  0  0
  -25.1301  -36.1897   25.0817 H   0  0  0  0  0  0
  -20.9990  -28.3270   24.1388 H   0  0  0  0  0  0
  -20.5651  -26.2310   23.3618 H   0  0  0  0  0  0
  -21.6642  -26.7411   22.1218 H   0  0  0  0  0  0
  -19.6907  -25.6285   21.1249 H   0  0  0  0  0  0
  -19.6689  -27.3180   20.6734 H   0  0  0  0  0  0
  -17.4201  -26.6678   21.4025 H   0  0  0  0  0  0
  -18.0328  -26.0067   22.9019 H   0  0  0  0  0  0
  -19.7945  -30.7278   24.2244 H   0  0  0  0  0  0
  -17.5022  -31.6263   24.5166 H   0  0  0  0  0  0
  -15.5358  -30.2978   23.7660 H   0  0  0  0  0  0
  -15.8682  -28.0814   22.7071 H   0  0  0  0  0  0
  -24.5891  -30.7093   25.7758 H   0  0  0  0  0  0
  -24.8909  -32.2919   26.4834 H   0  0  0  0  0  0
  -25.8027  -30.8936   27.0217 H   0  0  0  0  0  0
  -26.2952  -29.6736   24.1232 H   0  0  0  0  0  0
  -27.4025  -29.7277   25.4750 H   0  0  0  0  0  0
  -27.8832  -30.4279   23.9476 H   0  0  0  0  0  0
  -27.2640  -33.3648   26.2038 H   0  0  0  0  0  0
  -28.3864  -32.6892   25.0324 H   0  0  0  0  0  0
  -28.0699  -31.8487   26.5426 H   0  0  0  0  0  0
  -28.2596  -38.0086   24.7508 H   0  0  0  0  0  0
  -28.1068  -36.2618   24.6300 H   0  0  0  0  0  0
  -27.2295  -37.1446   25.8871 H   0  0  0  0  0  0
  -20.9406  -29.8755   21.6850 H   0  0  0  0  0  0
  -26.0162  -38.2835   24.1407 H   0  0  0  0  0  0
  -31.9081  -18.3184   20.7453 H   0  0  0  0  0  0
  -32.5259  -20.6634   21.0967 H   0  0  0  0  0  0
  -27.8505  -19.5708   20.0240 H   0  0  0  0  0  0
  -27.2100  -21.8911   20.9626 H   0  0  0  0  0  0
  -26.8170  -23.9683   20.5828 H   0  0  0  0  0  0
  -31.2706  -23.4100   20.0921 H   0  0  0  0  0  0
  -31.9797  -22.8907   21.6154 H   0  0  0  0  0  0
  -30.3351  -23.4937   21.5991 H   0  0  0  0  0  0
  -30.0978  -17.0651   18.9758 H   0  0  0  0  0  0
  -28.5019  -17.1565   19.6069 H   0  0  0  0  0  0
  -28.1463  -25.0476   18.6216 H   0  0  0  0  0  0
  -29.5677  -24.8012   19.5610 H   0  0  0  0  0  0
  -28.9468  -15.6297   21.2317 H   0  0  0  0  0  0
  1 25  1  0  0  0
  1 30  2  0  0  0
  1 82  1  0  0  0
  2  3  1  0  0  0
  2 25  1  0  0  0
  2 83  1  0  0  0
  2 84  1  0  0  0
  3  4  1  0  0  0
  3 85  1  0  0  0
  3 86  1  0  0  0
  4  5  1  0  0  0
  4 87  1  0  0  0
  4 88  1  0  0  0
  5  6  1  0  0  0
  5 26  1  0  0  0
  5 89  1  0  0  0
  6 25  1  0  0  0
  6 90  1  0  0  0
  6 91  1  0  0  0
  7  8  2  0  0  0
  7 26  1  0  0  0
  7 29  1  0  0  0
  8  9  1  0  0  0
  8 22  1  0  0  0
  9 10  1  0  0  0
  9 27  2  0  0  0
 10 11  2  0  0  0
 10 15  1  0  0  0
 11 12  1  0  0  0
 11 92  1  0  0  0
 12 13  2  0  0  0
 12 93  1  0  0  0
 13 14  1  0  0  0
 13 31  1  0  0  0
 14 15  2  0  0  0
 14 94  1  0  0  0
 15 95  1  0  0  0
 16 17  2  0  0  0
 16 21  1  0  0  0
 16 31  1  0  0  0
 17 18  1  0  0  0
 17 96  1  0  0  0
 18 19  2  0  0  0
 18 97  1  0  0  0
 19 20  1  0  0  0
 19 24  1  0  0  0
 20 21  2  0  0  0
 20 98  1  0  0  0
 21 23  1  0  0  0
 22 28  1  0  0  0
 22 32  2  0  0  0
 26 27  1  0  0  0
 28 99  1  0  0  0
 28100  1  0  0  0
 29101  1  0  0  0
 29102  1  0  0  0
 33 34  1  0  0  0
 33 66  1  0  0  0
 33 70  2  0  0  0
 34 36  1  0  0  0
 34 59  1  0  0  0
 34103  1  0  0  0
 35 44  2  0  0  0
 35 45  1  0  0  0
 35 68  1  0  0  0
 36 56  1  0  0  0
 36104  1  0  0  0
 37 39  1  0  0  0
 37 47  1  0  0  0
 37 66  1  0  0  0
 37105  1  0  0  0
 38 43  2  0  0  0
 38 46  1  0  0  0
 38 47  1  0  0  0
 39 64  1  0  0  0
 39 67  2  0  0  0
 40 52  1  0  0  0
 40 53  2  0  0  0
 40 58  1  0  0  0
 41106  1  0  0  0
 41107  1  0  0  0
 41108  1  0  0  0
 41 48  1  0  0  0
 42 43  1  0  0  0
 42 66  1  0  0  0
 42109  1  0  0  0
 42110  1  0  0  0
 43 44  1  0  0  0
 44111  1  0  0  0
 45 46  2  0  0  0
 45112  1  0  0  0
 46113  1  0  0  0
 47114  1  0  0  0
 47115  1  0  0  0
 48 56  1  0  0  0
 48 65  1  0  0  0
 48116  1  0  0  0
 49 50  1  0  0  0
 49 53  1  0  0  0
 49 64  1  0  0  0
 49117  1  0  0  0
 50 51  1  0  0  0
 50118  1  0  0  0
 50119  1  0  0  0
 51 52  1  0  0  0
 51120  1  0  0  0
 51121  1  0  0  0
 52122  1  0  0  0
 52123  1  0  0  0
 53 54  1  0  0  0
 54 55  2  0  0  0
 54124  1  0  0  0
 55 57  1  0  0  0
 55125  1  0  0  0
 56 69  2  0  0  0
 57 58  2  0  0  0
 57126  1  0  0  0
 58127  1  0  0  0
 59 60  1  0  0  0
 59 61  1  0  0  0
 59 62  1  0  0  0
 60128  1  0  0  0
 60129  1  0  0  0
 60130  1  0  0  0
 61131  1  0  0  0
 61132  1  0  0  0
 61133  1  0  0  0
 62134  1  0  0  0
 62135  1  0  0  0
 62136  1  0  0  0
 63 65  1  0  0  0
 63137  1  0  0  0
 63138  1  0  0  0
 63139  1  0  0  0
 64140  1  0  0  0
 65141  1  0  0  0
 68 81  1  0  0  0
 71 72  2  0  0  0
 71 75  1  0  0  0
 71142  1  0  0  0
 72 76  1  0  0  0
 72143  1  0  0  0
 73 74  1  0  0  0
 73 75  2  0  0  0
 73144  1  0  0  0
 74 76  2  0  0  0
 74 77  1  0  0  0
 75 80  1  0  0  0
 76 79  1  0  0  0
 77 78  2  0  0  0
 77145  1  0  0  0
 78 81  1  0  0  0
 78146  1  0  0  0
 79147  1  0  0  0
 79148  1  0  0  0
 79149  1  0  0  0
 80 82  1  0  0  0
 80150  1  0  0  0
 80151  1  0  0  0
 81152  1  0  0  0
 81153  1  0  0  0
 82154  1  0  0  0
M  ISO  4   1 100  68 101  81 101  82 100
M  END
> <chiral flag>
0

> <version>
0

> <s_m_source_file>
/data/baiqing/PycharmProjects/Reinvent-master-3.2/result/LINK_invent/BTK/process_docking_weight1_custom_product_contain_oxygen_bond_distance_aromatic_linkinvent_7_9_3/rearranged_h_0035.sdf

> <i_m_source_file_index>
29

> <r_mmod_Potential_Energy-OPLS-2005>
250.224060058594

> <r_mmod_Stretch_Energy-OPLS-2005>
142.408126831055

> <r_mmod_Bend_Energy-OPLS-2005>
259.041076660156

> <r_mmod_Torsional_Energy-OPLS-2005>
230.658203125

> <r_mmod_Improper_Torsional_Energy-OPLS-2005>
9.48951148986816

> <r_mmod_Van_der_Waal_Energy-OPLS-2005>
130.035385131836

> <r_mmod_Electrostatic_Energy-OPLS-2005>
-407.732635498047

> <r_mmod_Solvation_Energy-OPLS-2005>
-215.992797851562

> <b_mmod_Minimization_Converged-OPLS-2005>
0

> <r_mmod_RMS_Derivative-OPLS-2005>
0.646786987781525

$$$$
30
                    3D
 Structure written by MMmdl.
163172  0  0  1  0            999 V2000
  -30.6387  -14.7272   20.4481 C   0  0  0  0  0  0
  -30.4242  -12.4350   19.4811 C   0  0  0  0  0  0
  -29.5105  -12.4992   18.2382 C   0  0  0  0  0  0
  -28.0376  -12.3255   18.6536 C   0  0  0  0  0  0
  -27.6406  -13.2338   19.8481 C   0  0  2  0  0  0
  -28.6857  -13.1797   20.9872 C   0  0  0  0  0  0
  -25.2474  -13.8194   20.5675 C   0  0  0  0  0  0
  -24.1779  -13.0430   20.9229 C   0  0  0  0  0  0
  -24.6388  -11.6920   20.8746 C   0  0  0  0  0  0
  -23.9067  -10.4295   21.0413 C   0  0  0  0  0  0
  -24.3620   -9.4202   21.9186 C   0  0  0  0  0  0
  -23.6292   -8.2239   22.0750 C   0  0  0  0  0  0
  -22.4272   -8.0282   21.3539 C   0  0  0  0  0  0
  -21.9914   -9.0265   20.4639 C   0  0  0  0  0  0
  -22.7244  -10.2142   20.3055 C   0  0  0  0  0  0
  -21.6849   -6.0745   22.5290 C   0  0  0  0  0  0
  -21.4020   -6.5644   23.8228 C   0  0  0  0  0  0
  -21.3662   -5.6790   24.9185 C   0  0  0  0  0  0
  -21.6049   -4.3059   24.7235 C   0  0  0  0  0  0
  -21.8806   -3.8147   23.4353 C   0  0  0  0  0  0
  -21.9188   -4.6968   22.3406 C   0  0  0  0  0  0
  -22.7809  -13.5217   21.1881 C   0  0  0  0  0  0
  -22.1651   -4.2154   21.0985 F   0  0  0  0  0  0
  -21.5620   -3.4537   25.7745 F   0  0  0  0  0  0
  -29.9905  -13.5125   20.4021 N   0  0  0  0  0  0
  -26.2929  -12.9420   20.3280 N   0  0  0  0  0  0
  -25.9324  -11.6561   20.5759 N   0  0  0  0  0  0
  -22.0443  -12.8217   22.0440 N   0  0  0  0  0  0
  -25.4124  -15.1909   20.4012 N   0  0  0  0  0  0
  -31.8270  -14.7776   20.1228 O   0  0  0  0  0  0
  -21.6630   -6.8885   21.4248 O   0  0  0  0  0  0
  -22.3505  -14.5532   20.6740 O   0  0  0  0  0  0
  -24.6291  -31.8535   23.1966 C   0  0  0  0  0  0
  -25.9126  -32.4734   23.8301 C   0  0  1  0  0  0
  -27.2152  -27.2685   20.1185 C   0  0  0  0  0  0
  -25.5911  -33.8534   24.2239 N   0  0  0  0  0  0
  -23.4226  -30.4736   21.5437 C   0  0  2  0  0  0
  -24.8635  -28.9146   20.1089 C   0  0  0  0  0  0
  -22.7472  -29.4582   22.4950 C   0  0  0  0  0  0
  -18.0277  -28.1398   22.8506 C   0  0  0  0  0  0
  -24.1487  -36.7279   23.2642 C   0  0  0  0  0  0
  -25.9647  -30.7671   21.3719 C   0  0  0  0  0  0
  -26.0322  -29.3897   20.7142 C   0  0  0  0  0  0
  -27.2058  -28.5778   20.7053 C   0  0  0  0  0  0
  -26.0211  -26.8422   19.5007 C   0  0  0  0  0  0
  -24.8621  -27.6490   19.4958 C   0  0  0  0  0  0
  -23.6360  -29.8050   20.1585 C   0  0  0  0  0  0
  -25.4112  -36.3063   24.0330 C   0  0  1  0  0  0
  -20.5888  -28.3700   23.1314 C   0  0  2  0  0  0
  -20.6768  -26.9421   22.5439 C   0  0  0  0  0  0
  -19.5741  -26.6401   21.5244 C   0  0  0  0  0  0
  -18.1926  -26.7944   22.1653 C   0  0  0  0  0  0
  -19.1534  -28.8873   23.2897 C   0  0  0  0  0  0
  -18.9439  -30.1481   23.8906 C   0  0  0  0  0  0
  -17.6442  -30.6595   24.0587 C   0  0  0  0  0  0
  -25.9055  -34.9434   23.5096 C   0  0  0  0  0  0
  -16.5335  -29.9094   23.6339 C   0  0  0  0  0  0
  -16.7273  -28.6521   23.0360 C   0  0  0  0  0  0
  -26.4483  -31.6555   25.0695 C   0  0  0  0  0  0
  -25.3709  -31.3714   26.1422 C   0  0  0  0  0  0
  -27.0313  -30.2965   24.6186 C   0  0  0  0  0  0
  -27.6044  -32.4287   25.7466 C   0  0  0  0  0  0
  -27.5574  -37.1798   24.8465 C   0  0  0  0  0  0
  -21.4184  -29.3024   22.3693 N   0  0  0  0  0  0
  -26.4296  -37.3759   23.9398 N   0  0  0  0  0  0
  -24.6918  -31.0499   22.0944 N   0  0  0  0  0  0
  -23.4179  -28.8130   23.3044 O   0  0  0  0  0  0
  -28.3630  -26.4589   20.2010 O   0  0  0  0  0  0
  -26.5636  -34.8915   22.4678 O   0  0  0  0  0  0
  -23.5452  -32.1362   23.7282 O   0  0  0  0  0  0
  -31.9862  -19.0802   20.5763 C   0  0  0  0  0  0
  -31.0340  -20.1131   20.5801 C   0  0  0  0  0  0
  -31.6028  -17.7275   20.5857 C   0  0  0  0  0  0
  -29.6498  -19.8459   20.5639 C   0  0  0  0  0  0
  -29.2687  -18.4280   20.5456 C   0  0  0  0  0  0
  -30.2409  -17.3334   20.5722 C   0  0  0  0  0  0
  -29.2878  -23.5548   17.7973 C   0  0  0  0  0  0
  -28.4582  -24.7938   18.2408 C   0  0  0  0  0  0
  -29.7039  -22.5737   18.9304 C   0  0  0  0  0  0
  -28.1430  -23.6938   20.5317 C   0  0  0  0  0  0
  -28.5716  -25.0398   19.7517 C   0  0  2  0  0  0
  -27.7949  -18.0612   20.5348 C   0  0  0  0  0  0
  -28.6902  -21.1104   20.8056 C   0  0  0  0  0  0
  -29.8869  -15.8831   20.6465 N   0  0  0  0  0  0
  -28.5974  -22.3559   19.8937 N   0  3  2  0  0  0
  -31.4719  -12.5239   19.1889 H   0  0  0  0  0  0
  -30.3370  -11.4626   19.9696 H   0  0  0  0  0  0
  -29.7921  -11.7246   17.5232 H   0  0  0  0  0  0
  -29.6425  -13.4565   17.7281 H   0  0  0  0  0  0
  -27.9037  -11.2799   18.9317 H   0  0  0  0  0  0
  -27.3771  -12.4989   17.8031 H   0  0  0  0  0  0
  -27.6358  -14.2530   19.4605 H   0  0  0  0  0  0
  -28.7134  -12.1894   21.4429 H   0  0  0  0  0  0
  -28.4265  -13.8775   21.7841 H   0  0  0  0  0  0
  -25.2770   -9.5676   22.4761 H   0  0  0  0  0  0
  -24.0005   -7.4621   22.7469 H   0  0  0  0  0  0
  -21.0843   -8.8783   19.8948 H   0  0  0  0  0  0
  -22.3702  -10.9681   19.6155 H   0  0  0  0  0  0
  -21.2021   -7.6154   23.9740 H   0  0  0  0  0  0
  -21.1491   -6.0518   25.9091 H   0  0  0  0  0  0
  -22.0578   -2.7611   23.2848 H   0  0  0  0  0  0
  -22.4067  -11.9890   22.4847 H   0  0  0  0  0  0
  -21.1064  -13.1236   22.2646 H   0  0  0  0  0  0
  -24.6235  -15.8251   20.4666 H   0  0  0  0  0  0
  -26.2278  -15.6148   19.9838 H   0  0  0  0  0  0
  -26.7189  -32.5363   23.1024 H   0  0  0  0  0  0
  -25.0002  -33.9661   25.0346 H   0  0  0  0  0  0
  -22.7216  -31.2984   21.4002 H   0  0  0  0  0  0
  -23.3748  -35.9610   23.3312 H   0  0  0  0  0  0
  -24.3566  -36.8890   22.2053 H   0  0  0  0  0  0
  -23.7259  -37.6496   23.6658 H   0  0  0  0  0  0
  -26.1047  -31.5307   20.6060 H   0  0  0  0  0  0
  -26.8442  -30.8114   22.0040 H   0  0  0  0  0  0
  -28.1074  -28.9356   21.1843 H   0  0  0  0  0  0
  -25.9521  -25.8671   19.0452 H   0  0  0  0  0  0
  -23.9602  -27.2779   19.0285 H   0  0  0  0  0  0
  -23.7600  -30.5833   19.4052 H   0  0  0  0  0  0
  -22.7504  -29.2433   19.8536 H   0  0  0  0  0  0
  -25.1301  -36.1912   25.0828 H   0  0  0  0  0  0
  -20.9985  -28.3278   24.1435 H   0  0  0  0  0  0
  -20.5719  -26.2284   23.3624 H   0  0  0  0  0  0
  -21.6628  -26.7466   22.1205 H   0  0  0  0  0  0
  -19.6894  -25.6320   21.1255 H   0  0  0  0  0  0
  -19.6691  -27.3236   20.6800 H   0  0  0  0  0  0
  -17.4197  -26.6731   21.4053 H   0  0  0  0  0  0
  -18.0300  -26.0086   22.9046 H   0  0  0  0  0  0
  -19.7914  -30.7308   24.2281 H   0  0  0  0  0  0
  -17.4984  -31.6278   24.5181 H   0  0  0  0  0  0
  -15.5342  -30.2991   23.7659 H   0  0  0  0  0  0
  -15.8676  -28.0844   22.7054 H   0  0  0  0  0  0
  -24.5901  -30.7035   25.7758 H   0  0  0  0  0  0
  -24.8869  -32.2885   26.4805 H   0  0  0  0  0  0
  -25.8027  -30.8929   27.0227 H   0  0  0  0  0  0
  -26.2884  -29.6730   24.1196 H   0  0  0  0  0  0
  -27.3968  -29.7214   25.4707 H   0  0  0  0  0  0
  -27.8785  -30.4219   23.9437 H   0  0  0  0  0  0
  -27.2661  -33.3593   26.2039 H   0  0  0  0  0  0
  -28.3860  -32.6836   25.0295 H   0  0  0  0  0  0
  -28.0712  -31.8414   26.5387 H   0  0  0  0  0  0
  -28.2611  -38.0074   24.7473 H   0  0  0  0  0  0
  -28.1063  -36.2607   24.6348 H   0  0  0  0  0  0
  -27.2284  -37.1515   25.8868 H   0  0  0  0  0  0
  -20.9367  -29.8689   21.6853 H   0  0  0  0  0  0
  -26.0178  -38.2846   24.1371 H   0  0  0  0  0  0
  -33.0364  -19.3347   20.6096 H   0  0  0  0  0  0
  -31.3891  -21.1312   20.6489 H   0  0  0  0  0  0
  -32.4047  -17.0066   20.6325 H   0  0  0  0  0  0
  -30.1950  -23.8942   17.2971 H   0  0  0  0  0  0
  -28.7330  -23.0111   17.0314 H   0  0  0  0  0  0
  -27.4135  -24.6340   17.9731 H   0  0  0  0  0  0
  -28.7813  -25.6766   17.6888 H   0  0  0  0  0  0
  -30.5685  -22.9666   19.4676 H   0  0  0  0  0  0
  -30.0256  -21.6363   18.4728 H   0  0  0  0  0  0
  -27.0571  -23.6633   20.6404 H   0  0  0  0  0  0
  -28.5492  -23.7517   21.5431 H   0  0  0  0  0  0
  -29.6492  -25.0485   19.9178 H   0  0  0  0  0  0
  -27.6345  -17.1061   20.0407 H   0  0  0  0  0  0
  -27.1982  -18.7914   19.9902 H   0  0  0  0  0  0
  -27.4103  -17.9856   21.5518 H   0  0  0  0  0  0
  -28.9970  -21.4797   21.7837 H   0  0  0  0  0  0
  -27.6717  -20.7628   20.9699 H   0  0  0  0  0  0
  -28.9161  -15.6968   20.8379 H   0  0  0  0  0  0
  -27.8388  -22.1044   19.2748 H   0  0  0  0  0  0
  1 25  1  0  0  0
  1 30  2  0  0  0
  1 84  1  0  0  0
  2  3  1  0  0  0
  2 25  1  0  0  0
  2 86  1  0  0  0
  2 87  1  0  0  0
  3  4  1  0  0  0
  3 88  1  0  0  0
  3 89  1  0  0  0
  4  5  1  0  0  0
  4 90  1  0  0  0
  4 91  1  0  0  0
  5  6  1  0  0  0
  5 26  1  0  0  0
  5 92  1  0  0  0
  6 25  1  0  0  0
  6 93  1  0  0  0
  6 94  1  0  0  0
  7  8  2  0  0  0
  7 26  1  0  0  0
  7 29  1  0  0  0
  8  9  1  0  0  0
  8 22  1  0  0  0
  9 10  1  0  0  0
  9 27  2  0  0  0
 10 11  2  0  0  0
 10 15  1  0  0  0
 11 12  1  0  0  0
 11 95  1  0  0  0
 12 13  2  0  0  0
 12 96  1  0  0  0
 13 14  1  0  0  0
 13 31  1  0  0  0
 14 15  2  0  0  0
 14 97  1  0  0  0
 15 98  1  0  0  0
 16 17  2  0  0  0
 16 21  1  0  0  0
 16 31  1  0  0  0
 17 18  1  0  0  0
 17 99  1  0  0  0
 18 19  2  0  0  0
 18100  1  0  0  0
 19 20  1  0  0  0
 19 24  1  0  0  0
 20 21  2  0  0  0
 20101  1  0  0  0
 21 23  1  0  0  0
 22 28  1  0  0  0
 22 32  2  0  0  0
 26 27  1  0  0  0
 28102  1  0  0  0
 28103  1  0  0  0
 29104  1  0  0  0
 29105  1  0  0  0
 33 34  1  0  0  0
 33 66  1  0  0  0
 33 70  2  0  0  0
 34 36  1  0  0  0
 34 59  1  0  0  0
 34106  1  0  0  0
 35 44  2  0  0  0
 35 45  1  0  0  0
 35 68  1  0  0  0
 36 56  1  0  0  0
 36107  1  0  0  0
 37 39  1  0  0  0
 37 47  1  0  0  0
 37 66  1  0  0  0
 37108  1  0  0  0
 38 43  2  0  0  0
 38 46  1  0  0  0
 38 47  1  0  0  0
 39 64  1  0  0  0
 39 67  2  0  0  0
 40 52  1  0  0  0
 40 53  2  0  0  0
 40 58  1  0  0  0
 41109  1  0  0  0
 41110  1  0  0  0
 41111  1  0  0  0
 41 48  1  0  0  0
 42 43  1  0  0  0
 42 66  1  0  0  0
 42112  1  0  0  0
 42113  1  0  0  0
 43 44  1  0  0  0
 44114  1  0  0  0
 45 46  2  0  0  0
 45115  1  0  0  0
 46116  1  0  0  0
 47117  1  0  0  0
 47118  1  0  0  0
 48 56  1  0  0  0
 48 65  1  0  0  0
 48119  1  0  0  0
 49 50  1  0  0  0
 49 53  1  0  0  0
 49 64  1  0  0  0
 49120  1  0  0  0
 50 51  1  0  0  0
 50121  1  0  0  0
 50122  1  0  0  0
 51 52  1  0  0  0
 51123  1  0  0  0
 51124  1  0  0  0
 52125  1  0  0  0
 52126  1  0  0  0
 53 54  1  0  0  0
 54 55  2  0  0  0
 54127  1  0  0  0
 55 57  1  0  0  0
 55128  1  0  0  0
 56 69  2  0  0  0
 57 58  2  0  0  0
 57129  1  0  0  0
 58130  1  0  0  0
 59 60  1  0  0  0
 59 61  1  0  0  0
 59 62  1  0  0  0
 60131  1  0  0  0
 60132  1  0  0  0
 60133  1  0  0  0
 61134  1  0  0  0
 61135  1  0  0  0
 61136  1  0  0  0
 62137  1  0  0  0
 62138  1  0  0  0
 62139  1  0  0  0
 63 65  1  0  0  0
 63140  1  0  0  0
 63141  1  0  0  0
 63142  1  0  0  0
 64143  1  0  0  0
 65144  1  0  0  0
 68 81  1  0  0  0
 71 72  2  0  0  0
 71 73  1  0  0  0
 71145  1  0  0  0
 72 74  1  0  0  0
 72146  1  0  0  0
 73 76  2  0  0  0
 73147  1  0  0  0
 74 75  2  0  0  0
 74 83  1  0  0  0
 75 76  1  0  0  0
 75 82  1  0  0  0
 76 84  1  0  0  0
 77 78  1  0  0  0
 77 79  1  0  0  0
 77148  1  0  0  0
 77149  1  0  0  0
 78 81  1  0  0  0
 78150  1  0  0  0
 78151  1  0  0  0
 79 85  1  0  0  0
 79152  1  0  0  0
 79153  1  0  0  0
 80 81  1  0  0  0
 80 85  1  0  0  0
 80154  1  0  0  0
 80155  1  0  0  0
 81156  1  0  0  0
 82157  1  0  0  0
 82158  1  0  0  0
 82159  1  0  0  0
 83160  1  0  0  0
 83161  1  0  0  0
 83 85  1  0  0  0
 84162  1  0  0  0
 85163  1  0  0  0
M  CHG  1  85   1
M  ISO  4   1 100  68 101  81 101  84 100
M  END
> <chiral flag>
0

> <version>
0

> <s_m_source_file>
/data/baiqing/PycharmProjects/Reinvent-master-3.2/result/LINK_invent/BTK/process_docking_weight1_custom_product_contain_oxygen_bond_distance_aromatic_linkinvent_7_9_3/rearranged_h_0035.sdf

> <i_m_source_file_index>
30

> <r_mmod_Potential_Energy-OPLS-2005>
147.494400024414

> <r_mmod_Stretch_Energy-OPLS-2005>
130.305450439453

> <r_mmod_Bend_Energy-OPLS-2005>
228.90299987793

> <r_mmod_Torsional_Energy-OPLS-2005>
252.736068725586

> <r_mmod_Improper_Torsional_Energy-OPLS-2005>
6.67010068893433

> <r_mmod_Van_der_Waal_Energy-OPLS-2005>
145.438659667969

> <r_mmod_Electrostatic_Energy-OPLS-2005>
-258.369750976562

> <r_mmod_Solvation_Energy-OPLS-2005>
-433.817169189453

> <b_mmod_Minimization_Converged-OPLS-2005>
0

> <r_mmod_RMS_Derivative-OPLS-2005>
3.01359844207764

$$$$
31
                    3D
 Structure written by MMmdl.
168177  0  0  1  0            999 V2000
  -30.6331  -14.6278   20.4996 C   0  0  0  0  0  0
  -30.4414  -12.3830   19.4688 C   0  0  0  0  0  0
  -29.5193  -12.5212   18.2362 C   0  0  0  0  0  0
  -28.0397  -12.3539   18.6375 C   0  0  0  0  0  0
  -27.6593  -13.2241   19.8687 C   0  0  2  0  0  0
  -28.6994  -13.0725   21.0052 C   0  0  0  0  0  0
  -25.2575  -13.8200   20.5718 C   0  0  0  0  0  0
  -24.1846  -13.0466   20.9197 C   0  0  0  0  0  0
  -24.6421  -11.6941   20.8766 C   0  0  0  0  0  0
  -23.9122  -10.4304   21.0426 C   0  0  0  0  0  0
  -24.3674   -9.4212   21.9204 C   0  0  0  0  0  0
  -23.6325   -8.2262   22.0749 C   0  0  0  0  0  0
  -22.4300   -8.0299   21.3545 C   0  0  0  0  0  0
  -21.9948   -9.0294   20.4663 C   0  0  0  0  0  0
  -22.7301  -10.2158   20.3073 C   0  0  0  0  0  0
  -21.6847   -6.0764   22.5303 C   0  0  0  0  0  0
  -21.4006   -6.5661   23.8253 C   0  0  0  0  0  0
  -21.3664   -5.6799   24.9205 C   0  0  0  0  0  0
  -21.6044   -4.3069   24.7226 C   0  0  0  0  0  0
  -21.8822   -3.8162   23.4350 C   0  0  0  0  0  0
  -21.9191   -4.6987   22.3412 C   0  0  0  0  0  0
  -22.7864  -13.5259   21.1849 C   0  0  0  0  0  0
  -22.1659   -4.2189   21.0985 F   0  0  0  0  0  0
  -21.5625   -3.4543   25.7731 F   0  0  0  0  0  0
  -30.0259  -13.4010   20.4557 N   0  0  0  0  0  0
  -26.3013  -12.9412   20.3349 N   0  0  0  0  0  0
  -25.9360  -11.6565   20.5755 N   0  0  0  0  0  0
  -22.0474  -12.8273   22.0394 N   0  0  0  0  0  0
  -25.4245  -15.1920   20.4128 N   0  0  0  0  0  0
  -31.7615  -14.8065   20.0331 O   0  0  0  0  0  0
  -21.6638   -6.8906   21.4258 O   0  0  0  0  0  0
  -22.3581  -14.5570   20.6656 O   0  0  0  0  0  0
  -24.6286  -31.8591   23.2038 C   0  0  0  0  0  0
  -25.9138  -32.4774   23.8354 C   0  0  1  0  0  0
  -27.2214  -27.3137   20.1142 C   0  0  0  0  0  0
  -25.5921  -33.8572   24.2280 N   0  0  0  0  0  0
  -23.4185  -30.4854   21.5471 C   0  0  2  0  0  0
  -24.8598  -28.9402   20.1122 C   0  0  0  0  0  0
  -22.7471  -29.4639   22.4958 C   0  0  0  0  0  0
  -18.0287  -28.1403   22.8495 C   0  0  0  0  0  0
  -24.1482  -36.7295   23.2625 C   0  0  0  0  0  0
  -25.9597  -30.7896   21.3732 C   0  0  0  0  0  0
  -26.0290  -29.4157   20.7177 C   0  0  0  0  0  0
  -27.2087  -28.6129   20.7097 C   0  0  0  0  0  0
  -26.0253  -26.8913   19.4869 C   0  0  0  0  0  0
  -24.8605  -27.6827   19.4901 C   0  0  0  0  0  0
  -23.6301  -29.8232   20.1608 C   0  0  0  0  0  0
  -25.4104  -36.3075   24.0320 C   0  0  1  0  0  0
  -20.5895  -28.3694   23.1295 C   0  0  2  0  0  0
  -20.6788  -26.9411   22.5413 C   0  0  0  0  0  0
  -19.5759  -26.6384   21.5220 C   0  0  0  0  0  0
  -18.1932  -26.7944   22.1628 C   0  0  0  0  0  0
  -19.1541  -28.8867   23.2886 C   0  0  0  0  0  0
  -18.9459  -30.1479   23.8893 C   0  0  0  0  0  0
  -17.6451  -30.6582   24.0578 C   0  0  0  0  0  0
  -25.9047  -34.9451   23.5102 C   0  0  0  0  0  0
  -16.5353  -29.9082   23.6337 C   0  0  0  0  0  0
  -16.7272  -28.6515   23.0343 C   0  0  0  0  0  0
  -26.4509  -31.6586   25.0722 C   0  0  0  0  0  0
  -25.3735  -31.3737   26.1444 C   0  0  0  0  0  0
  -27.0316  -30.2998   24.6168 C   0  0  0  0  0  0
  -27.6059  -32.4304   25.7504 C   0  0  0  0  0  0
  -27.5576  -37.1798   24.8460 C   0  0  0  0  0  0
  -21.4189  -29.3048   22.3690 N   0  0  0  0  0  0
  -26.4285  -37.3767   23.9407 N   0  0  0  0  0  0
  -24.6872  -31.0610   22.0980 N   0  0  0  0  0  0
  -23.4212  -28.8173   23.3008 O   0  0  0  0  0  0
  -28.3760  -26.5103   20.1360 O   0  0  0  0  0  0
  -26.5601  -34.8935   22.4671 O   0  0  0  0  0  0
  -23.5448  -32.1397   23.7381 O   0  0  0  0  0  0
  -31.4190  -18.4356   21.0685 C   0  0  0  0  0  0
  -32.0552  -19.6792   21.2347 C   0  0  0  0  0  0
  -30.1016  -18.3543   20.5979 C   0  0  0  0  0  0
  -31.3796  -20.8941   20.9385 C   0  0  0  0  0  0
  -29.3667  -19.5909   20.4355 C   0  0  0  0  0  0
  -29.9858  -20.8900   20.6163 C   0  0  0  0  0  0
  -29.5084  -24.4009   19.2659 C   0  0  0  0  0  0
  -28.1803  -24.2723   21.3919 C   0  0  0  0  0  0
  -29.4176  -22.8330   19.1566 C   0  0  0  0  0  0
  -29.1460  -23.0443   21.6099 C   0  0  0  0  0  0
  -28.3141  -25.0282   20.0307 C   0  0  0  0  0  0
  -33.5063  -19.6617   21.6872 C   0  0  0  0  0  0
  -32.2147  -22.1735   20.9251 C   0  0  0  0  0  0
  -27.8956  -19.4987   20.0438 C   0  0  0  0  0  0
  -29.5884  -16.9471   20.1259 C   0  0  0  0  0  0
  -29.2657  -22.1325   20.4492 N   0  0  0  0  0  0
  -29.8501  -15.6785   20.8884 N   0  0  0  0  0  0
  -31.4847  -12.4924   19.1673 H   0  0  0  0  0  0
  -30.3608  -11.3886   19.9066 H   0  0  0  0  0  0
  -29.7900  -11.7874   17.4761 H   0  0  0  0  0  0
  -29.6669  -13.4995   17.7760 H   0  0  0  0  0  0
  -27.8799  -11.2975   18.8642 H   0  0  0  0  0  0
  -27.3916  -12.5763   17.7880 H   0  0  0  0  0  0
  -27.6802  -14.2622   19.5349 H   0  0  0  0  0  0
  -28.7022  -12.0494   21.3824 H   0  0  0  0  0  0
  -28.4375  -13.7070   21.8528 H   0  0  0  0  0  0
  -25.2821   -9.5685   22.4796 H   0  0  0  0  0  0
  -24.0032   -7.4644   22.7465 H   0  0  0  0  0  0
  -21.0863   -8.8838   19.8987 H   0  0  0  0  0  0
  -22.3768  -10.9708   19.6181 H   0  0  0  0  0  0
  -21.1985   -7.6164   23.9771 H   0  0  0  0  0  0
  -21.1487   -6.0518   25.9119 H   0  0  0  0  0  0
  -22.0586   -2.7615   23.2838 H   0  0  0  0  0  0
  -22.4028  -11.9948   22.4854 H   0  0  0  0  0  0
  -21.1117  -13.1353   22.2597 H   0  0  0  0  0  0
  -24.6443  -15.8336   20.4964 H   0  0  0  0  0  0
  -26.2743  -15.6382   20.0952 H   0  0  0  0  0  0
  -26.7215  -32.5441   23.1106 H   0  0  0  0  0  0
  -25.0101  -33.9718   25.0447 H   0  0  0  0  0  0
  -22.7106  -31.3061   21.4064 H   0  0  0  0  0  0
  -23.3744  -35.9628   23.3292 H   0  0  0  0  0  0
  -24.3578  -36.8902   22.2035 H   0  0  0  0  0  0
  -23.7251  -37.6500   23.6663 H   0  0  0  0  0  0
  -26.0896  -31.5517   20.6048 H   0  0  0  0  0  0
  -26.8432  -30.8396   21.9981 H   0  0  0  0  0  0
  -28.1094  -28.9738   21.1862 H   0  0  0  0  0  0
  -25.9506  -25.9479   18.9717 H   0  0  0  0  0  0
  -23.9668  -27.3129   19.0049 H   0  0  0  0  0  0
  -23.7516  -30.6009   19.4042 H   0  0  0  0  0  0
  -22.7475  -29.2533   19.8594 H   0  0  0  0  0  0
  -25.1296  -36.1900   25.0808 H   0  0  0  0  0  0
  -21.0005  -28.3254   24.1414 H   0  0  0  0  0  0
  -20.5697  -26.2275   23.3607 H   0  0  0  0  0  0
  -21.6652  -26.7438   22.1194 H   0  0  0  0  0  0
  -19.6905  -25.6294   21.1235 H   0  0  0  0  0  0
  -19.6705  -27.3208   20.6768 H   0  0  0  0  0  0
  -17.4205  -26.6697   21.4021 H   0  0  0  0  0  0
  -18.0323  -26.0091   22.9030 H   0  0  0  0  0  0
  -19.7931  -30.7303   24.2234 H   0  0  0  0  0  0
  -17.5005  -31.6263   24.5178 H   0  0  0  0  0  0
  -15.5355  -30.2983   23.7663 H   0  0  0  0  0  0
  -15.8679  -28.0839   22.7043 H   0  0  0  0  0  0
  -24.5959  -30.7008   25.7825 H   0  0  0  0  0  0
  -24.8867  -32.2895   26.4811 H   0  0  0  0  0  0
  -25.8071  -30.8999   27.0264 H   0  0  0  0  0  0
  -26.2874  -29.6768   24.1188 H   0  0  0  0  0  0
  -27.3997  -29.7235   25.4674 H   0  0  0  0  0  0
  -27.8773  -30.4271   23.9402 H   0  0  0  0  0  0
  -27.2685  -33.3636   26.2053 H   0  0  0  0  0  0
  -28.3915  -32.6805   25.0351 H   0  0  0  0  0  0
  -28.0694  -31.8427   26.5445 H   0  0  0  0  0  0
  -28.2585  -38.0101   24.7518 H   0  0  0  0  0  0
  -28.1074  -36.2635   24.6274 H   0  0  0  0  0  0
  -27.2304  -37.1438   25.8862 H   0  0  0  0  0  0
  -20.9349  -29.8738   21.6893 H   0  0  0  0  0  0
  -26.0155  -38.2826   24.1438 H   0  0  0  0  0  0
  -31.9763  -17.5234   21.2300 H   0  0  0  0  0  0
  -29.5609  -24.8195   18.2611 H   0  0  0  0  0  0
  -30.4391  -24.6967   19.7487 H   0  0  0  0  0  0
  -28.3347  -24.9839   22.2070 H   0  0  0  0  0  0
  -27.1484  -23.9301   21.4963 H   0  0  0  0  0  0
  -30.2915  -22.4531   18.6219 H   0  0  0  0  0  0
  -28.5601  -22.5743   18.5376 H   0  0  0  0  0  0
  -28.8280  -22.4822   22.4899 H   0  0  0  0  0  0
  -30.1310  -23.4415   21.8559 H   0  0  0  0  0  0
  -27.4571  -24.7181   19.4398 H   0  0  0  0  0  0
  -33.7116  -18.7799   22.2947 H   0  0  0  0  0  0
  -33.7660  -20.5295   22.2956 H   0  0  0  0  0  0
  -34.1630  -19.6343   20.8171 H   0  0  0  0  0  0
  -31.7584  -22.9798   20.3613 H   0  0  0  0  0  0
  -33.1774  -21.9959   20.4392 H   0  0  0  0  0  0
  -32.4083  -22.5251   21.9387 H   0  0  0  0  0  0
  -27.8001  -18.9879   19.0852 H   0  0  0  0  0  0
  -27.3421  -18.9298   20.7937 H   0  0  0  0  0  0
  -27.4027  -20.4662   19.9442 H   0  0  0  0  0  0
  -28.5089  -16.9768   19.9882 H   0  0  0  0  0  0
  -29.9871  -16.8123   19.1184 H   0  0  0  0  0  0
  -29.0511  -15.3823   21.4271 H   0  0  0  0  0  0
  1 25  1  0  0  0
  1 30  2  0  0  0
  1 87  1  0  0  0
  2  3  1  0  0  0
  2 25  1  0  0  0
  2 88  1  0  0  0
  2 89  1  0  0  0
  3  4  1  0  0  0
  3 90  1  0  0  0
  3 91  1  0  0  0
  4  5  1  0  0  0
  4 92  1  0  0  0
  4 93  1  0  0  0
  5  6  1  0  0  0
  5 26  1  0  0  0
  5 94  1  0  0  0
  6 25  1  0  0  0
  6 95  1  0  0  0
  6 96  1  0  0  0
  7  8  2  0  0  0
  7 26  1  0  0  0
  7 29  1  0  0  0
  8  9  1  0  0  0
  8 22  1  0  0  0
  9 10  1  0  0  0
  9 27  2  0  0  0
 10 11  2  0  0  0
 10 15  1  0  0  0
 11 12  1  0  0  0
 11 97  1  0  0  0
 12 13  2  0  0  0
 12 98  1  0  0  0
 13 14  1  0  0  0
 13 31  1  0  0  0
 14 15  2  0  0  0
 14 99  1  0  0  0
 15100  1  0  0  0
 16 17  2  0  0  0
 16 21  1  0  0  0
 16 31  1  0  0  0
 17 18  1  0  0  0
 17101  1  0  0  0
 18 19  2  0  0  0
 18102  1  0  0  0
 19 20  1  0  0  0
 19 24  1  0  0  0
 20 21  2  0  0  0
 20103  1  0  0  0
 21 23  1  0  0  0
 22 28  1  0  0  0
 22 32  2  0  0  0
 26 27  1  0  0  0
 28104  1  0  0  0
 28105  1  0  0  0
 29106  1  0  0  0
 29107  1  0  0  0
 33 34  1  0  0  0
 33 66  1  0  0  0
 33 70  2  0  0  0
 34 36  1  0  0  0
 34 59  1  0  0  0
 34108  1  0  0  0
 35 44  2  0  0  0
 35 45  1  0  0  0
 35 68  1  0  0  0
 36 56  1  0  0  0
 36109  1  0  0  0
 37 39  1  0  0  0
 37 47  1  0  0  0
 37 66  1  0  0  0
 37110  1  0  0  0
 38 43  2  0  0  0
 38 46  1  0  0  0
 38 47  1  0  0  0
 39 64  1  0  0  0
 39 67  2  0  0  0
 40 52  1  0  0  0
 40 53  2  0  0  0
 40 58  1  0  0  0
 41111  1  0  0  0
 41112  1  0  0  0
 41113  1  0  0  0
 41 48  1  0  0  0
 42 43  1  0  0  0
 42 66  1  0  0  0
 42114  1  0  0  0
 42115  1  0  0  0
 43 44  1  0  0  0
 44116  1  0  0  0
 45 46  2  0  0  0
 45117  1  0  0  0
 46118  1  0  0  0
 47119  1  0  0  0
 47120  1  0  0  0
 48 56  1  0  0  0
 48 65  1  0  0  0
 48121  1  0  0  0
 49 50  1  0  0  0
 49 53  1  0  0  0
 49 64  1  0  0  0
 49122  1  0  0  0
 50 51  1  0  0  0
 50123  1  0  0  0
 50124  1  0  0  0
 51 52  1  0  0  0
 51125  1  0  0  0
 51126  1  0  0  0
 52127  1  0  0  0
 52128  1  0  0  0
 53 54  1  0  0  0
 54 55  2  0  0  0
 54129  1  0  0  0
 55 57  1  0  0  0
 55130  1  0  0  0
 56 69  2  0  0  0
 57 58  2  0  0  0
 57131  1  0  0  0
 58132  1  0  0  0
 59 60  1  0  0  0
 59 61  1  0  0  0
 59 62  1  0  0  0
 60133  1  0  0  0
 60134  1  0  0  0
 60135  1  0  0  0
 61136  1  0  0  0
 61137  1  0  0  0
 61138  1  0  0  0
 62139  1  0  0  0
 62140  1  0  0  0
 62141  1  0  0  0
 63 65  1  0  0  0
 63142  1  0  0  0
 63143  1  0  0  0
 63144  1  0  0  0
 64145  1  0  0  0
 65146  1  0  0  0
 68 81  1  0  0  0
 71 72  2  0  0  0
 71 73  1  0  0  0
 71147  1  0  0  0
 72 74  1  0  0  0
 72 82  1  0  0  0
 73 75  2  0  0  0
 73 85  1  0  0  0
 74 76  2  0  0  0
 74 83  1  0  0  0
 75 76  1  0  0  0
 75 84  1  0  0  0
 76 86  1  0  0  0
 77 79  1  0  0  0
 77 81  1  0  0  0
 77148  1  0  0  0
 77149  1  0  0  0
 78 80  1  0  0  0
 78 81  1  0  0  0
 78150  1  0  0  0
 78151  1  0  0  0
 79 86  1  0  0  0
 79152  1  0  0  0
 79153  1  0  0  0
 80 86  1  0  0  0
 80154  1  0  0  0
 80155  1  0  0  0
 81156  1  0  0  0
 82157  1  0  0  0
 82158  1  0  0  0
 82159  1  0  0  0
 83160  1  0  0  0
 83161  1  0  0  0
 83162  1  0  0  0
 84163  1  0  0  0
 84164  1  0  0  0
 84165  1  0  0  0
 85 87  1  0  0  0
 85166  1  0  0  0
 85167  1  0  0  0
 87168  1  0  0  0
M  ISO  4   1 100  68 101  81 101  87 100
M  END
> <chiral flag>
0

> <version>
0

> <s_m_source_file>
/data/baiqing/PycharmProjects/Reinvent-master-3.2/result/LINK_invent/BTK/process_docking_weight1_custom_product_contain_oxygen_bond_distance_aromatic_linkinvent_7_9_3/rearranged_h_0035.sdf

> <i_m_source_file_index>
31

> <r_mmod_Potential_Energy-OPLS-2005>
69.5420455932617

> <r_mmod_Stretch_Energy-OPLS-2005>
86.0847549438477

> <r_mmod_Bend_Energy-OPLS-2005>
147.232833862305

> <r_mmod_Torsional_Energy-OPLS-2005>
307.299865722656

> <r_mmod_Improper_Torsional_Energy-OPLS-2005>
11.4232788085938

> <r_mmod_Van_der_Waal_Energy-OPLS-2005>
162.079071044922

> <r_mmod_Electrostatic_Energy-OPLS-2005>
-471.445251464844

> <r_mmod_Solvation_Energy-OPLS-2005>
-217.487899780273

> <b_mmod_Minimization_Converged-OPLS-2005>
0

> <r_mmod_RMS_Derivative-OPLS-2005>
4.36553239822388

$$$$
32
                    3D
 Structure written by MMmdl.
172181  0  0  1  0            999 V2000
  -30.6922  -14.4960   20.6341 C   0  0  0  0  0  0
  -30.4489  -12.3170   19.4610 C   0  0  0  0  0  0
  -29.5164  -12.5077   18.2403 C   0  0  0  0  0  0
  -28.0291  -12.3616   18.6420 C   0  0  0  0  0  0
  -27.6882  -13.1722   19.9184 C   0  0  2  0  0  0
  -28.7354  -12.9106   21.0282 C   0  0  0  0  0  0
  -25.2876  -13.8061   20.5811 C   0  0  0  0  0  0
  -24.1963  -13.0362   20.9112 C   0  0  0  0  0  0
  -24.6437  -11.6809   20.8734 C   0  0  0  0  0  0
  -23.9046  -10.4213   21.0420 C   0  0  0  0  0  0
  -24.3598   -9.4126   21.9182 C   0  0  0  0  0  0
  -23.6261   -8.2162   22.0746 C   0  0  0  0  0  0
  -22.4236   -8.0248   21.3546 C   0  0  0  0  0  0
  -21.9893   -9.0194   20.4649 C   0  0  0  0  0  0
  -22.7222  -10.2065   20.3050 C   0  0  0  0  0  0
  -21.6811   -6.0762   22.5300 C   0  0  0  0  0  0
  -21.4027   -6.5675   23.8249 C   0  0  0  0  0  0
  -21.3661   -5.6829   24.9206 C   0  0  0  0  0  0
  -21.6065   -4.3092   24.7219 C   0  0  0  0  0  0
  -21.8817   -3.8189   23.4325 C   0  0  0  0  0  0
  -21.9171   -4.7006   22.3403 C   0  0  0  0  0  0
  -22.8017  -13.5185   21.1797 C   0  0  0  0  0  0
  -22.1631   -4.2209   21.0962 F   0  0  0  0  0  0
  -21.5599   -3.4551   25.7708 F   0  0  0  0  0  0
  -30.0580  -13.2878   20.4970 N   0  0  0  0  0  0
  -26.3207  -12.9073   20.3631 N   0  0  0  0  0  0
  -25.9384  -11.6264   20.5925 N   0  0  0  0  0  0
  -22.0798  -12.7991   22.0352 N   0  0  0  0  0  0
  -25.5103  -15.1696   20.4288 N   0  0  0  0  0  0
  -31.7451  -14.7296   20.0372 O   0  0  0  0  0  0
  -21.6589   -6.8858   21.4255 O   0  0  0  0  0  0
  -22.3618  -14.5538   20.6835 O   0  0  0  0  0  0
  -24.6272  -31.8602   23.2055 C   0  0  0  0  0  0
  -25.9175  -32.4708   23.8351 C   0  0  1  0  0  0
  -27.2185  -27.3808   20.0927 C   0  0  0  0  0  0
  -25.5994  -33.8513   24.2224 N   0  0  0  0  0  0
  -23.4073  -30.5005   21.5416 C   0  0  2  0  0  0
  -24.8466  -28.9673   20.0943 C   0  0  0  0  0  0
  -22.7397  -29.4748   22.4863 C   0  0  0  0  0  0
  -18.0275  -28.1392   22.8469 C   0  0  0  0  0  0
  -24.1473  -36.7330   23.2632 C   0  0  0  0  0  0
  -25.9446  -30.8126   21.3652 C   0  0  0  0  0  0
  -26.0133  -29.4509   20.6979 C   0  0  0  0  0  0
  -27.2018  -28.6744   20.6828 C   0  0  0  0  0  0
  -26.0245  -26.9331   19.4739 C   0  0  0  0  0  0
  -24.8544  -27.7103   19.4702 C   0  0  0  0  0  0
  -23.6147  -29.8448   20.1497 C   0  0  0  0  0  0
  -25.4082  -36.3016   24.0293 C   0  0  1  0  0  0
  -20.5869  -28.3713   23.1237 C   0  0  2  0  0  0
  -20.6731  -26.9418   22.5393 C   0  0  0  0  0  0
  -19.5713  -26.6371   21.5197 C   0  0  0  0  0  0
  -18.1903  -26.7926   22.1623 C   0  0  0  0  0  0
  -19.1519  -28.8868   23.2863 C   0  0  0  0  0  0
  -18.9470  -30.1464   23.8894 C   0  0  0  0  0  0
  -17.6463  -30.6610   24.0576 C   0  0  0  0  0  0
  -25.9055  -34.9399   23.5034 C   0  0  0  0  0  0
  -16.5354  -29.9124   23.6309 C   0  0  0  0  0  0
  -16.7257  -28.6545   23.0320 C   0  0  0  0  0  0
  -26.4545  -31.6522   25.0747 C   0  0  0  0  0  0
  -25.3881  -31.3643   26.1564 C   0  0  0  0  0  0
  -27.0337  -30.2891   24.6240 C   0  0  0  0  0  0
  -27.6014  -32.4309   25.7628 C   0  0  0  0  0  0
  -27.5530  -37.1806   24.8441 C   0  0  0  0  0  0
  -21.4109  -29.3106   22.3640 N   0  0  0  0  0  0
  -26.4209  -37.3743   23.9436 N   0  0  0  0  0  0
  -24.6782  -31.0733   22.0942 N   0  0  0  0  0  0
  -23.4148  -28.8252   23.2894 O   0  0  0  0  0  0
  -28.3605  -26.5796   20.1451 O   0  0  0  0  0  0
  -26.5618  -34.8892   22.4593 O   0  0  0  0  0  0
  -23.5482  -32.1377   23.7478 O   0  0  0  0  0  0
  -28.5857  -19.3632   21.6337 C   0  0  0  0  0  0
  -28.1241  -18.3404   22.4658 C   0  0  0  0  0  0
  -29.6810  -19.1542   20.7663 C   0  0  0  0  0  0
  -28.6842  -17.0532   22.4010 C   0  0  0  0  0  0
  -30.3302  -17.8542   20.7651 C   0  0  0  0  0  0
  -29.7639  -16.7597   21.5240 C   0  0  0  0  0  0
  -30.7285  -24.6436   19.9942 C   0  0  0  0  0  0
  -31.7259  -23.6820   20.6640 C   0  0  0  0  0  0
  -29.1344  -22.7051   19.8401 C   0  0  0  0  0  0
  -29.3143  -24.1765   20.3592 C   0  0  2  0  0  0
  -31.5682  -22.2298   20.1503 C   0  0  1  0  0  0
  -28.0650  -15.9889   23.2926 C   0  0  0  0  0  0
  -31.6398  -17.6338   20.0033 C   0  0  0  0  0  0
  -32.6068  -21.3294   20.8514 C   0  0  0  0  0  0
  -29.9707  -20.3214   19.7710 C   0  0  0  0  0  0
  -28.1808  -25.1540   19.8941 C   0  0  0  0  0  0
  -30.1533  -15.3539   21.5433 N   0  0  0  0  0  0
  -30.1692  -21.7158   20.3333 N   0  3  2  0  0  0
  -31.5026  -12.4297   19.1953 H   0  0  0  0  0  0
  -30.3620  -11.2948   19.8433 H   0  0  0  0  0  0
  -29.7698  -11.7908   17.4567 H   0  0  0  0  0  0
  -29.6762  -13.5038   17.8236 H   0  0  0  0  0  0
  -27.8286  -11.3042   18.8206 H   0  0  0  0  0  0
  -27.3768  -12.6687   17.8249 H   0  0  0  0  0  0
  -27.7558  -14.2233   19.6460 H   0  0  0  0  0  0
  -28.7628  -11.8465   21.2890 H   0  0  0  0  0  0
  -28.4789  -13.4071   21.9593 H   0  0  0  0  0  0
  -25.2785   -9.5498   22.4700 H   0  0  0  0  0  0
  -23.9974   -7.4507   22.7391 H   0  0  0  0  0  0
  -21.0860   -8.8622   19.8905 H   0  0  0  0  0  0
  -22.3725  -10.9550   19.6080 H   0  0  0  0  0  0
  -21.2068   -7.6199   23.9746 H   0  0  0  0  0  0
  -21.1519   -6.0575   25.9107 H   0  0  0  0  0  0
  -22.0620   -2.7650   23.2814 H   0  0  0  0  0  0
  -22.4441  -11.9335   22.4135 H   0  0  0  0  0  0
  -21.1586  -13.1081   22.3115 H   0  0  0  0  0  0
  -24.8815  -15.8984   20.7454 H   0  0  0  0  0  0
  -26.4137  -15.5359   20.1443 H   0  0  0  0  0  0
  -26.7252  -32.5325   23.1102 H   0  0  0  0  0  0
  -25.0090  -33.9592   25.0334 H   0  0  0  0  0  0
  -22.7058  -31.3272   21.4063 H   0  0  0  0  0  0
  -23.3659  -35.9732   23.3205 H   0  0  0  0  0  0
  -24.3596  -36.9083   22.2075 H   0  0  0  0  0  0
  -23.7301  -37.6525   23.6751 H   0  0  0  0  0  0
  -26.0864  -31.5846   20.6087 H   0  0  0  0  0  0
  -26.8245  -30.8376   21.9968 H   0  0  0  0  0  0
  -28.0992  -29.0515   21.1532 H   0  0  0  0  0  0
  -25.9574  -25.9722   18.9867 H   0  0  0  0  0  0
  -23.9650  -27.3363   18.9833 H   0  0  0  0  0  0
  -23.7255  -30.6299   19.3996 H   0  0  0  0  0  0
  -22.7291  -29.2855   19.8428 H   0  0  0  0  0  0
  -25.1251  -36.1793   25.0768 H   0  0  0  0  0  0
  -20.9976  -28.3305   24.1353 H   0  0  0  0  0  0
  -20.5578  -26.2339   23.3619 H   0  0  0  0  0  0
  -21.6602  -26.7414   22.1215 H   0  0  0  0  0  0
  -19.6844  -25.6262   21.1282 H   0  0  0  0  0  0
  -19.6643  -27.3142   20.6697 H   0  0  0  0  0  0
  -17.4137  -26.6665   21.4063 H   0  0  0  0  0  0
  -18.0339  -26.0090   22.9053 H   0  0  0  0  0  0
  -19.7955  -30.7295   24.2228 H   0  0  0  0  0  0
  -17.5040  -31.6291   24.5174 H   0  0  0  0  0  0
  -15.5355  -30.3057   23.7636 H   0  0  0  0  0  0
  -15.8650  -28.0922   22.6959 H   0  0  0  0  0  0
  -24.6019  -30.6963   25.8028 H   0  0  0  0  0  0
  -24.9183  -32.2799   26.5148 H   0  0  0  0  0  0
  -25.8402  -30.8802   27.0231 H   0  0  0  0  0  0
  -26.2865  -29.6676   24.1262 H   0  0  0  0  0  0
  -27.3915  -29.7133   25.4790 H   0  0  0  0  0  0
  -27.8824  -30.4035   23.9490 H   0  0  0  0  0  0
  -27.2434  -33.3546   26.2182 H   0  0  0  0  0  0
  -28.3923  -32.6960   25.0611 H   0  0  0  0  0  0
  -28.0551  -31.8473   26.5644 H   0  0  0  0  0  0
  -28.2455  -38.0173   24.7465 H   0  0  0  0  0  0
  -28.1077  -36.2682   24.6202 H   0  0  0  0  0  0
  -27.2270  -37.1409   25.8845 H   0  0  0  0  0  0
  -20.9241  -29.8922   21.6965 H   0  0  0  0  0  0
  -26.0025  -38.2772   24.1497 H   0  0  0  0  0  0
  -28.0646  -20.3104   21.6716 H   0  0  0  0  0  0
  -27.2910  -18.5300   23.1337 H   0  0  0  0  0  0
  -30.8584  -24.6727   18.9092 H   0  0  0  0  0  0
  -30.8948  -25.6605   20.3493 H   0  0  0  0  0  0
  -31.5666  -23.7030   21.7438 H   0  0  0  0  0  0
  -32.7517  -24.0301   20.5242 H   0  0  0  0  0  0
  -29.1520  -22.7311   18.7488 H   0  0  0  0  0  0
  -28.1464  -22.3310   20.1130 H   0  0  0  0  0  0
  -29.2689  -24.1457   21.4485 H   0  0  0  0  0  0
  -31.7910  -22.2436   19.0771 H   0  0  0  0  0  0
  -27.3749  -16.4530   23.9925 H   0  0  0  0  0  0
  -28.7936  -15.4745   23.9222 H   0  0  0  0  0  0
  -27.5005  -15.2804   22.6829 H   0  0  0  0  0  0
  -31.4959  -17.1042   19.0604 H   0  0  0  0  0  0
  -32.3581  -17.0810   20.6175 H   0  0  0  0  0  0
  -32.1537  -18.5492   19.7536 H   0  0  0  0  0  0
  -32.2724  -21.0336   21.8471 H   0  0  0  0  0  0
  -33.5719  -21.8252   20.9575 H   0  0  0  0  0  0
  -32.8043  -20.4319   20.2779 H   0  0  0  0  0  0
  -29.1072  -20.3445   19.1038 H   0  0  0  0  0  0
  -30.7805  -20.0774   19.0924 H   0  0  0  0  0  0
  -27.2915  -24.8185   20.4318 H   0  0  0  0  0  0
  -27.9707  -25.0142   18.8318 H   0  0  0  0  0  0
  -29.5910  -14.8384   22.2021 H   0  0  0  0  0  0
  -30.0318  -21.6447   21.3292 H   0  0  0  0  0  0
  1 25  1  0  0  0
  1 30  2  0  0  0
  1 87  1  0  0  0
  2  3  1  0  0  0
  2 25  1  0  0  0
  2 89  1  0  0  0
  2 90  1  0  0  0
  3  4  1  0  0  0
  3 91  1  0  0  0
  3 92  1  0  0  0
  4  5  1  0  0  0
  4 93  1  0  0  0
  4 94  1  0  0  0
  5  6  1  0  0  0
  5 26  1  0  0  0
  5 95  1  0  0  0
  6 25  1  0  0  0
  6 96  1  0  0  0
  6 97  1  0  0  0
  7  8  2  0  0  0
  7 26  1  0  0  0
  7 29  1  0  0  0
  8  9  1  0  0  0
  8 22  1  0  0  0
  9 10  1  0  0  0
  9 27  2  0  0  0
 10 11  2  0  0  0
 10 15  1  0  0  0
 11 12  1  0  0  0
 11 98  1  0  0  0
 12 13  2  0  0  0
 12 99  1  0  0  0
 13 14  1  0  0  0
 13 31  1  0  0  0
 14 15  2  0  0  0
 14100  1  0  0  0
 15101  1  0  0  0
 16 17  2  0  0  0
 16 21  1  0  0  0
 16 31  1  0  0  0
 17 18  1  0  0  0
 17102  1  0  0  0
 18 19  2  0  0  0
 18103  1  0  0  0
 19 20  1  0  0  0
 19 24  1  0  0  0
 20 21  2  0  0  0
 20104  1  0  0  0
 21 23  1  0  0  0
 22 28  1  0  0  0
 22 32  2  0  0  0
 26 27  1  0  0  0
 28105  1  0  0  0
 28106  1  0  0  0
 29107  1  0  0  0
 29108  1  0  0  0
 33 34  1  0  0  0
 33 66  1  0  0  0
 33 70  2  0  0  0
 34 36  1  0  0  0
 34 59  1  0  0  0
 34109  1  0  0  0
 35 44  2  0  0  0
 35 45  1  0  0  0
 35 68  1  0  0  0
 36 56  1  0  0  0
 36110  1  0  0  0
 37 39  1  0  0  0
 37 47  1  0  0  0
 37 66  1  0  0  0
 37111  1  0  0  0
 38 43  2  0  0  0
 38 46  1  0  0  0
 38 47  1  0  0  0
 39 64  1  0  0  0
 39 67  2  0  0  0
 40 52  1  0  0  0
 40 53  2  0  0  0
 40 58  1  0  0  0
 41112  1  0  0  0
 41113  1  0  0  0
 41114  1  0  0  0
 41 48  1  0  0  0
 42 43  1  0  0  0
 42 66  1  0  0  0
 42115  1  0  0  0
 42116  1  0  0  0
 43 44  1  0  0  0
 44117  1  0  0  0
 45 46  2  0  0  0
 45118  1  0  0  0
 46119  1  0  0  0
 47120  1  0  0  0
 47121  1  0  0  0
 48 56  1  0  0  0
 48 65  1  0  0  0
 48122  1  0  0  0
 49 50  1  0  0  0
 49 53  1  0  0  0
 49 64  1  0  0  0
 49123  1  0  0  0
 50 51  1  0  0  0
 50124  1  0  0  0
 50125  1  0  0  0
 51 52  1  0  0  0
 51126  1  0  0  0
 51127  1  0  0  0
 52128  1  0  0  0
 52129  1  0  0  0
 53 54  1  0  0  0
 54 55  2  0  0  0
 54130  1  0  0  0
 55 57  1  0  0  0
 55131  1  0  0  0
 56 69  2  0  0  0
 57 58  2  0  0  0
 57132  1  0  0  0
 58133  1  0  0  0
 59 60  1  0  0  0
 59 61  1  0  0  0
 59 62  1  0  0  0
 60134  1  0  0  0
 60135  1  0  0  0
 60136  1  0  0  0
 61137  1  0  0  0
 61138  1  0  0  0
 61139  1  0  0  0
 62140  1  0  0  0
 62141  1  0  0  0
 62142  1  0  0  0
 63 65  1  0  0  0
 63143  1  0  0  0
 63144  1  0  0  0
 63145  1  0  0  0
 64146  1  0  0  0
 65147  1  0  0  0
 68 86  1  0  0  0
 71 72  2  0  0  0
 71 73  1  0  0  0
 71148  1  0  0  0
 72 74  1  0  0  0
 72149  1  0  0  0
 73 75  2  0  0  0
 73 85  1  0  0  0
 74 76  2  0  0  0
 74 82  1  0  0  0
 75 76  1  0  0  0
 75 83  1  0  0  0
 76 87  1  0  0  0
 77 78  1  0  0  0
 77 80  1  0  0  0
 77150  1  0  0  0
 77151  1  0  0  0
 78 81  1  0  0  0
 78152  1  0  0  0
 78153  1  0  0  0
 79 80  1  0  0  0
 79 88  1  0  0  0
 79154  1  0  0  0
 79155  1  0  0  0
 80 86  1  0  0  0
 80156  1  0  0  0
 81 84  1  0  0  0
 81 88  1  0  0  0
 81157  1  0  0  0
 82158  1  0  0  0
 82159  1  0  0  0
 82160  1  0  0  0
 83161  1  0  0  0
 83162  1  0  0  0
 83163  1  0  0  0
 84164  1  0  0  0
 84165  1  0  0  0
 84166  1  0  0  0
 85167  1  0  0  0
 85168  1  0  0  0
 85 88  1  0  0  0
 86169  1  0  0  0
 86170  1  0  0  0
 87171  1  0  0  0
 88172  1  0  0  0
M  CHG  1  88   1
M  ISO  4   1 100  68 101  86 101  87 100
M  END
> <chiral flag>
0

> <version>
0

> <s_m_source_file>
/data/baiqing/PycharmProjects/Reinvent-master-3.2/result/LINK_invent/BTK/process_docking_weight1_custom_product_contain_oxygen_bond_distance_aromatic_linkinvent_7_9_3/rearranged_h_0035.sdf

> <i_m_source_file_index>
32

> <r_mmod_Potential_Energy-OPLS-2005>
-34.966968536377

> <r_mmod_Stretch_Energy-OPLS-2005>
71.6094665527344

> <r_mmod_Bend_Energy-OPLS-2005>
159.758361816406

> <r_mmod_Torsional_Energy-OPLS-2005>
270.230926513672

> <r_mmod_Improper_Torsional_Energy-OPLS-2005>
5.5281720161438

> <r_mmod_Van_der_Waal_Energy-OPLS-2005>
162.160781860352

> <r_mmod_Electrostatic_Energy-OPLS-2005>
-305.323883056641

> <r_mmod_Solvation_Energy-OPLS-2005>
-422.144744873047

> <b_mmod_Minimization_Converged-OPLS-2005>
0

> <r_mmod_RMS_Derivative-OPLS-2005>
9.71815872192383

$$$$
33
                    3D
 Structure written by MMmdl.
166175  0  0  1  0            999 V2000
  -30.6271  -14.6173   20.5356 C   0  0  0  0  0  0
  -30.4434  -12.3862   19.4488 C   0  0  0  0  0  0
  -29.5108  -12.5183   18.2240 C   0  0  0  0  0  0
  -28.0317  -12.3567   18.6326 C   0  0  0  0  0  0
  -27.6601  -13.2129   19.8721 C   0  0  2  0  0  0
  -28.7034  -13.0376   20.9985 C   0  0  0  0  0  0
  -25.2598  -13.8174   20.5713 C   0  0  0  0  0  0
  -24.1842  -13.0450   20.9193 C   0  0  0  0  0  0
  -24.6394  -11.6917   20.8732 C   0  0  0  0  0  0
  -23.9057  -10.4304   21.0395 C   0  0  0  0  0  0
  -24.3609   -9.4219   21.9173 C   0  0  0  0  0  0
  -23.6285   -8.2257   22.0752 C   0  0  0  0  0  0
  -22.4267   -8.0288   21.3542 C   0  0  0  0  0  0
  -21.9895   -9.0265   20.4649 C   0  0  0  0  0  0
  -22.7228  -10.2142   20.3050 C   0  0  0  0  0  0
  -21.6859   -6.0736   22.5273 C   0  0  0  0  0  0
  -21.4025   -6.5636   23.8208 C   0  0  0  0  0  0
  -21.3657   -5.6787   24.9167 C   0  0  0  0  0  0
  -21.6038   -4.3049   24.7221 C   0  0  0  0  0  0
  -21.8819   -3.8145   23.4342 C   0  0  0  0  0  0
  -21.9196   -4.6962   22.3396 C   0  0  0  0  0  0
  -22.7862  -13.5257   21.1848 C   0  0  0  0  0  0
  -22.1660   -4.2142   21.0975 F   0  0  0  0  0  0
  -21.5622   -3.4533   25.7735 F   0  0  0  0  0  0
  -30.0231  -13.3904   20.4462 N   0  0  0  0  0  0
  -26.3022  -12.9341   20.3349 N   0  0  0  0  0  0
  -25.9322  -11.6500   20.5751 N   0  0  0  0  0  0
  -22.0483  -12.8269   22.0400 N   0  0  0  0  0  0
  -25.4362  -15.1893   20.4167 N   0  0  0  0  0  0
  -31.7648  -14.8103   20.0971 O   0  0  0  0  0  0
  -21.6640   -6.8879   21.4234 O   0  0  0  0  0  0
  -22.3557  -14.5566   20.6693 O   0  0  0  0  0  0
  -24.6254  -31.8604   23.2039 C   0  0  0  0  0  0
  -25.9107  -32.4779   23.8359 C   0  0  1  0  0  0
  -27.2232  -27.3214   20.1159 C   0  0  0  0  0  0
  -25.5927  -33.8578   24.2286 N   0  0  0  0  0  0
  -23.4179  -30.4862   21.5465 C   0  0  2  0  0  0
  -24.8641  -28.9473   20.1094 C   0  0  0  0  0  0
  -22.7467  -29.4629   22.4935 C   0  0  0  0  0  0
  -18.0285  -28.1383   22.8482 C   0  0  0  0  0  0
  -24.1491  -36.7296   23.2637 C   0  0  0  0  0  0
  -25.9593  -30.7942   21.3739 C   0  0  0  0  0  0
  -26.0336  -29.4226   20.7148 C   0  0  0  0  0  0
  -27.2143  -28.6223   20.7087 C   0  0  0  0  0  0
  -26.0237  -26.9009   19.4901 C   0  0  0  0  0  0
  -24.8620  -27.6919   19.4868 C   0  0  0  0  0  0
  -23.6309  -29.8243   20.1606 C   0  0  0  0  0  0
  -25.4110  -36.3079   24.0328 C   0  0  1  0  0  0
  -20.5884  -28.3689   23.1278 C   0  0  2  0  0  0
  -20.6775  -26.9411   22.5407 C   0  0  0  0  0  0
  -19.5753  -26.6382   21.5206 C   0  0  0  0  0  0
  -18.1931  -26.7927   22.1616 C   0  0  0  0  0  0
  -19.1538  -28.8852   23.2876 C   0  0  0  0  0  0
  -18.9464  -30.1454   23.8892 C   0  0  0  0  0  0
  -17.6464  -30.6582   24.0560 C   0  0  0  0  0  0
  -25.9047  -34.9449   23.5103 C   0  0  0  0  0  0
  -16.5354  -29.9081   23.6328 C   0  0  0  0  0  0
  -16.7272  -28.6498   23.0350 C   0  0  0  0  0  0
  -26.4498  -31.6583   25.0720 C   0  0  0  0  0  0
  -25.3745  -31.3729   26.1461 C   0  0  0  0  0  0
  -27.0335  -30.3006   24.6168 C   0  0  0  0  0  0
  -27.6065  -32.4314   25.7481 C   0  0  0  0  0  0
  -27.5581  -37.1791   24.8452 C   0  0  0  0  0  0
  -21.4183  -29.3046   22.3675 N   0  0  0  0  0  0
  -26.4285  -37.3774   23.9408 N   0  0  0  0  0  0
  -24.6865  -31.0624   22.0986 N   0  0  0  0  0  0
  -23.4196  -28.8156   23.3000 O   0  0  0  0  0  0
  -28.3508  -26.4807   20.1780 O   0  0  0  0  0  0
  -26.5612  -34.8914   22.4669 O   0  0  0  0  0  0
  -23.5420  -32.1400   23.7374 O   0  0  0  0  0  0
  -30.7440  -17.8376   20.1581 C   0  0  0  0  0  0
  -28.8989  -19.2651   21.7377 C   0  0  0  0  0  0
  -28.9204  -17.8257   21.7403 C   0  0  0  0  0  0
  -29.8108  -20.0233   20.9359 C   0  0  0  0  0  0
  -29.8662  -17.0804   20.9717 C   0  0  0  0  0  0
  -30.7145  -19.2623   20.1327 C   0  0  0  0  0  0
  -28.0278  -23.2602   18.1359 C   0  0  0  0  0  0
  -28.3391  -24.7387   18.4282 C   0  0  0  0  0  0
  -28.9883  -22.3088   18.8770 C   0  0  0  0  0  0
  -29.1788  -24.0214   20.6860 C   0  0  0  0  0  0
  -28.1997  -25.0237   19.9350 C   0  0  1  0  0  0
  -27.9005  -19.9833   22.6467 C   0  0  0  0  0  0
  -27.9389  -17.0488   22.6215 C   0  0  0  0  0  0
  -29.9545  -21.5982   21.0571 C   0  0  0  0  0  0
  -29.8400  -15.6170   21.0384 N   0  0  0  0  0  0
  -28.9949  -22.5382   20.3461 N   0  3  2  0  0  0
  -31.8539  -20.0558   19.1030 Cl  0  0  0  0  0  0
  -31.4847  -12.5147   19.1473 H   0  0  0  0  0  0
  -30.3801  -11.3844   19.8751 H   0  0  0  0  0  0
  -29.7732  -11.7770   17.4680 H   0  0  0  0  0  0
  -29.6559  -13.4934   17.7575 H   0  0  0  0  0  0
  -27.8597  -11.3019   18.8485 H   0  0  0  0  0  0
  -27.3815  -12.6060   17.7931 H   0  0  0  0  0  0
  -27.6887  -14.2541   19.5504 H   0  0  0  0  0  0
  -28.7119  -12.0045   21.3489 H   0  0  0  0  0  0
  -28.4440  -13.6372   21.8720 H   0  0  0  0  0  0
  -25.2754   -9.5701   22.4747 H   0  0  0  0  0  0
  -23.9994   -7.4650   22.7474 H   0  0  0  0  0  0
  -21.0824   -8.8789   19.8959 H   0  0  0  0  0  0
  -22.3681  -10.9680   19.6162 H   0  0  0  0  0  0
  -21.2026   -7.6143   23.9711 H   0  0  0  0  0  0
  -21.1472   -6.0514   25.9068 H   0  0  0  0  0  0
  -22.0602   -2.7605   23.2848 H   0  0  0  0  0  0
  -22.4065  -11.9927   22.4809 H   0  0  0  0  0  0
  -21.1096  -13.1311   22.2569 H   0  0  0  0  0  0
  -24.6805  -15.8526   20.5477 H   0  0  0  0  0  0
  -26.2897  -15.6240   20.0911 H   0  0  0  0  0  0
  -26.7171  -32.5453   23.1105 H   0  0  0  0  0  0
  -25.0085  -33.9730   25.0436 H   0  0  0  0  0  0
  -22.7113  -31.3069   21.4062 H   0  0  0  0  0  0
  -23.3749  -35.9634   23.3293 H   0  0  0  0  0  0
  -24.3590  -36.8918   22.2052 H   0  0  0  0  0  0
  -23.7255  -37.6501   23.6663 H   0  0  0  0  0  0
  -26.0896  -31.5597   20.6077 H   0  0  0  0  0  0
  -26.8399  -30.8426   22.0028 H   0  0  0  0  0  0
  -28.1098  -28.9836   21.1949 H   0  0  0  0  0  0
  -25.9349  -25.9438   19.0020 H   0  0  0  0  0  0
  -23.9663  -27.3222   19.0073 H   0  0  0  0  0  0
  -23.7445  -30.6014   19.4038 H   0  0  0  0  0  0
  -22.7517  -29.2510   19.8607 H   0  0  0  0  0  0
  -25.1290  -36.1928   25.0820 H   0  0  0  0  0  0
  -20.9980  -28.3268   24.1397 H   0  0  0  0  0  0
  -20.5671  -26.2299   23.3607 H   0  0  0  0  0  0
  -21.6645  -26.7438   22.1207 H   0  0  0  0  0  0
  -19.6915  -25.6292   21.1236 H   0  0  0  0  0  0
  -19.6686  -27.3188   20.6733 H   0  0  0  0  0  0
  -17.4201  -26.6675   21.4017 H   0  0  0  0  0  0
  -18.0327  -26.0063   22.9005 H   0  0  0  0  0  0
  -19.7942  -30.7272   24.2254 H   0  0  0  0  0  0
  -17.5021  -31.6265   24.5162 H   0  0  0  0  0  0
  -15.5356  -30.2985   23.7651 H   0  0  0  0  0  0
  -15.8670  -28.0813   22.7072 H   0  0  0  0  0  0
  -24.5908  -30.7082   25.7806 H   0  0  0  0  0  0
  -24.8951  -32.2902   26.4888 H   0  0  0  0  0  0
  -25.8084  -30.8915   27.0234 H   0  0  0  0  0  0
  -26.2902  -29.6755   24.1208 H   0  0  0  0  0  0
  -27.4051  -29.7262   25.4665 H   0  0  0  0  0  0
  -27.8765  -30.4287   23.9373 H   0  0  0  0  0  0
  -27.2678  -33.3611   26.2065 H   0  0  0  0  0  0
  -28.3866  -32.6879   25.0300 H   0  0  0  0  0  0
  -28.0744  -31.8437   26.5389 H   0  0  0  0  0  0
  -28.2581  -38.0105   24.7523 H   0  0  0  0  0  0
  -28.1092  -36.2638   24.6242 H   0  0  0  0  0  0
  -27.2307  -37.1399   25.8856 H   0  0  0  0  0  0
  -20.9351  -29.8794   21.6915 H   0  0  0  0  0  0
  -26.0165  -38.2844   24.1430 H   0  0  0  0  0  0
  -31.4670  -17.3305   19.5364 H   0  0  0  0  0  0
  -28.0955  -23.0772   17.0634 H   0  0  0  0  0  0
  -26.9966  -23.0375   18.4151 H   0  0  0  0  0  0
  -27.6829  -25.3749   17.8371 H   0  0  0  0  0  0
  -29.3531  -24.9768   18.1034 H   0  0  0  0  0  0
  -29.9988  -22.4343   18.4850 H   0  0  0  0  0  0
  -28.7015  -21.2761   18.6718 H   0  0  0  0  0  0
  -29.0558  -24.1511   21.7617 H   0  0  0  0  0  0
  -30.2079  -24.3045   20.4620 H   0  0  0  0  0  0
  -27.2039  -24.7282   20.2675 H   0  0  0  0  0  0
  -26.8798  -19.7799   22.3222 H   0  0  0  0  0  0
  -28.0036  -21.0643   22.6773 H   0  0  0  0  0  0
  -28.0060  -19.6335   23.6744 H   0  0  0  0  0  0
  -28.4102  -16.7947   23.5711 H   0  0  0  0  0  0
  -27.6099  -16.1238   22.1505 H   0  0  0  0  0  0
  -27.0237  -17.5946   22.8399 H   0  0  0  0  0  0
  -30.9610  -21.8836   20.7549 H   0  0  0  0  0  0
  -29.9495  -21.8457   22.1183 H   0  0  0  0  0  0
  -29.0067  -15.2476   21.4673 H   0  0  0  0  0  0
  -28.0745  -22.2843   20.6737 H   0  0  0  0  0  0
  1 25  1  0  0  0
  1 30  2  0  0  0
  1 85  1  0  0  0
  2  3  1  0  0  0
  2 25  1  0  0  0
  2 88  1  0  0  0
  2 89  1  0  0  0
  3  4  1  0  0  0
  3 90  1  0  0  0
  3 91  1  0  0  0
  4  5  1  0  0  0
  4 92  1  0  0  0
  4 93  1  0  0  0
  5  6  1  0  0  0
  5 26  1  0  0  0
  5 94  1  0  0  0
  6 25  1  0  0  0
  6 95  1  0  0  0
  6 96  1  0  0  0
  7  8  2  0  0  0
  7 26  1  0  0  0
  7 29  1  0  0  0
  8  9  1  0  0  0
  8 22  1  0  0  0
  9 10  1  0  0  0
  9 27  2  0  0  0
 10 11  2  0  0  0
 10 15  1  0  0  0
 11 12  1  0  0  0
 11 97  1  0  0  0
 12 13  2  0  0  0
 12 98  1  0  0  0
 13 14  1  0  0  0
 13 31  1  0  0  0
 14 15  2  0  0  0
 14 99  1  0  0  0
 15100  1  0  0  0
 16 17  2  0  0  0
 16 21  1  0  0  0
 16 31  1  0  0  0
 17 18  1  0  0  0
 17101  1  0  0  0
 18 19  2  0  0  0
 18102  1  0  0  0
 19 20  1  0  0  0
 19 24  1  0  0  0
 20 21  2  0  0  0
 20103  1  0  0  0
 21 23  1  0  0  0
 22 28  1  0  0  0
 22 32  2  0  0  0
 26 27  1  0  0  0
 28104  1  0  0  0
 28105  1  0  0  0
 29106  1  0  0  0
 29107  1  0  0  0
 33 34  1  0  0  0
 33 66  1  0  0  0
 33 70  2  0  0  0
 34 36  1  0  0  0
 34 59  1  0  0  0
 34108  1  0  0  0
 35 44  2  0  0  0
 35 45  1  0  0  0
 35 68  1  0  0  0
 36 56  1  0  0  0
 36109  1  0  0  0
 37 39  1  0  0  0
 37 47  1  0  0  0
 37 66  1  0  0  0
 37110  1  0  0  0
 38 43  2  0  0  0
 38 46  1  0  0  0
 38 47  1  0  0  0
 39 64  1  0  0  0
 39 67  2  0  0  0
 40 52  1  0  0  0
 40 53  2  0  0  0
 40 58  1  0  0  0
 41111  1  0  0  0
 41112  1  0  0  0
 41113  1  0  0  0
 41 48  1  0  0  0
 42 43  1  0  0  0
 42 66  1  0  0  0
 42114  1  0  0  0
 42115  1  0  0  0
 43 44  1  0  0  0
 44116  1  0  0  0
 45 46  2  0  0  0
 45117  1  0  0  0
 46118  1  0  0  0
 47119  1  0  0  0
 47120  1  0  0  0
 48 56  1  0  0  0
 48 65  1  0  0  0
 48121  1  0  0  0
 49 50  1  0  0  0
 49 53  1  0  0  0
 49 64  1  0  0  0
 49122  1  0  0  0
 50 51  1  0  0  0
 50123  1  0  0  0
 50124  1  0  0  0
 51 52  1  0  0  0
 51125  1  0  0  0
 51126  1  0  0  0
 52127  1  0  0  0
 52128  1  0  0  0
 53 54  1  0  0  0
 54 55  2  0  0  0
 54129  1  0  0  0
 55 57  1  0  0  0
 55130  1  0  0  0
 56 69  2  0  0  0
 57 58  2  0  0  0
 57131  1  0  0  0
 58132  1  0  0  0
 59 60  1  0  0  0
 59 61  1  0  0  0
 59 62  1  0  0  0
 60133  1  0  0  0
 60134  1  0  0  0
 60135  1  0  0  0
 61136  1  0  0  0
 61137  1  0  0  0
 61138  1  0  0  0
 62139  1  0  0  0
 62140  1  0  0  0
 62141  1  0  0  0
 63 65  1  0  0  0
 63142  1  0  0  0
 63143  1  0  0  0
 63144  1  0  0  0
 64145  1  0  0  0
 65146  1  0  0  0
 68 81  1  0  0  0
 71 75  2  0  0  0
 71 76  1  0  0  0
 71147  1  0  0  0
 72 73  2  0  0  0
 72 74  1  0  0  0
 72 82  1  0  0  0
 73 75  1  0  0  0
 73 83  1  0  0  0
 74 76  2  0  0  0
 74 84  1  0  0  0
 75 85  1  0  0  0
 76 87  1  0  0  0
 77 78  1  0  0  0
 77 79  1  0  0  0
 77148  1  0  0  0
 77149  1  0  0  0
 78 81  1  0  0  0
 78150  1  0  0  0
 78151  1  0  0  0
 79 86  1  0  0  0
 79152  1  0  0  0
 79153  1  0  0  0
 80 81  1  0  0  0
 80 86  1  0  0  0
 80154  1  0  0  0
 80155  1  0  0  0
 81156  1  0  0  0
 82157  1  0  0  0
 82158  1  0  0  0
 82159  1  0  0  0
 83160  1  0  0  0
 83161  1  0  0  0
 83162  1  0  0  0
 84163  1  0  0  0
 84164  1  0  0  0
 84 86  1  0  0  0
 85165  1  0  0  0
 86166  1  0  0  0
M  CHG  1  86   1
M  ISO  4   1 100  68 101  81 101  85 100
M  END
> <chiral flag>
0

> <version>
0

> <s_m_source_file>
/data/baiqing/PycharmProjects/Reinvent-master-3.2/result/LINK_invent/BTK/process_docking_weight1_custom_product_contain_oxygen_bond_distance_aromatic_linkinvent_7_9_3/rearranged_h_0035.sdf

> <i_m_source_file_index>
33

> <r_mmod_Potential_Energy-OPLS-2005>
-27.2712478637695

> <r_mmod_Stretch_Energy-OPLS-2005>
86.6788024902344

> <r_mmod_Bend_Energy-OPLS-2005>
145.583374023438

> <r_mmod_Torsional_Energy-OPLS-2005>
227.548934936523

> <r_mmod_Improper_Torsional_Energy-OPLS-2005>
3.70348572731018

> <r_mmod_Van_der_Waal_Energy-OPLS-2005>
157.060836791992

> <r_mmod_Electrostatic_Energy-OPLS-2005>
-269.623077392578

> <r_mmod_Solvation_Energy-OPLS-2005>
-421.808258056641

> <b_mmod_Minimization_Converged-OPLS-2005>
0

> <r_mmod_RMS_Derivative-OPLS-2005>
1.22423362731934

$$$$
34
                    3D
 Structure written by MMmdl.
166175  0  0  1  0            999 V2000
  -30.6850  -14.5208   20.5369 C   0  0  0  0  0  0
  -30.4223  -12.3253   19.4414 C   0  0  0  0  0  0
  -29.5021  -12.4997   18.2143 C   0  0  0  0  0  0
  -28.0217  -12.3614   18.6202 C   0  0  0  0  0  0
  -27.6570  -13.2146   19.8661 C   0  0  2  0  0  0
  -28.6984  -13.0304   20.9945 C   0  0  0  0  0  0
  -25.2570  -13.8174   20.5669 C   0  0  0  0  0  0
  -24.1830  -13.0444   20.9177 C   0  0  0  0  0  0
  -24.6395  -11.6914   20.8723 C   0  0  0  0  0  0
  -23.9067  -10.4293   21.0394 C   0  0  0  0  0  0
  -24.3615   -9.4205   21.9174 C   0  0  0  0  0  0
  -23.6284   -8.2241   22.0754 C   0  0  0  0  0  0
  -22.4264   -8.0273   21.3542 C   0  0  0  0  0  0
  -21.9899   -9.0253   20.4647 C   0  0  0  0  0  0
  -22.7237  -10.2128   20.3048 C   0  0  0  0  0  0
  -21.6852   -6.0724   22.5283 C   0  0  0  0  0  0
  -21.4015   -6.5635   23.8213 C   0  0  0  0  0  0
  -21.3656   -5.6789   24.9177 C   0  0  0  0  0  0
  -21.6047   -4.3054   24.7231 C   0  0  0  0  0  0
  -21.8818   -3.8138   23.4356 C   0  0  0  0  0  0
  -21.9192   -4.6952   22.3406 C   0  0  0  0  0  0
  -22.7851  -13.5234   21.1843 C   0  0  0  0  0  0
  -22.1660   -4.2139   21.0985 F   0  0  0  0  0  0
  -21.5629   -3.4538   25.7745 F   0  0  0  0  0  0
  -30.0243  -13.3333   20.4382 N   0  0  0  0  0  0
  -26.3002  -12.9358   20.3309 N   0  0  0  0  0  0
  -25.9323  -11.6514   20.5733 N   0  0  0  0  0  0
  -22.0489  -12.8228   22.0400 N   0  0  0  0  0  0
  -25.4275  -15.1891   20.4089 N   0  0  0  0  0  0
  -31.8324  -14.6723   20.1066 O   0  0  0  0  0  0
  -21.6631   -6.8866   21.4238 O   0  0  0  0  0  0
  -22.3531  -14.5528   20.6680 O   0  0  0  0  0  0
  -24.6122  -31.8662   23.2060 C   0  0  0  0  0  0
  -25.8989  -32.4820   23.8387 C   0  0  1  0  0  0
  -27.2321  -27.4151   20.1129 C   0  0  0  0  0  0
  -25.5845  -33.8619   24.2315 N   0  0  0  0  0  0
  -23.4053  -30.4876   21.5449 C   0  0  2  0  0  0
  -24.8540  -28.9480   20.1172 C   0  0  0  0  0  0
  -22.7416  -29.4645   22.4957 C   0  0  0  0  0  0
  -18.0277  -28.1396   22.8511 C   0  0  0  0  0  0
  -24.1476  -36.7308   23.2663 C   0  0  0  0  0  0
  -25.9349  -30.8266   21.3621 C   0  0  0  0  0  0
  -26.0148  -29.4572   20.7152 C   0  0  0  0  0  0
  -27.2103  -28.7002   20.7066 C   0  0  0  0  0  0
  -26.0586  -26.9232   19.5040 C   0  0  0  0  0  0
  -24.8717  -27.6808   19.5079 C   0  0  0  0  0  0
  -23.6182  -29.8188   20.1606 C   0  0  0  0  0  0
  -25.4108  -36.3124   24.0366 C   0  0  1  0  0  0
  -20.5865  -28.3656   23.1318 C   0  0  2  0  0  0
  -20.6774  -26.9396   22.5413 C   0  0  0  0  0  0
  -19.5737  -26.6387   21.5223 C   0  0  0  0  0  0
  -18.1913  -26.7941   22.1633 C   0  0  0  0  0  0
  -19.1529  -28.8843   23.2914 C   0  0  0  0  0  0
  -18.9478  -30.1468   23.8904 C   0  0  0  0  0  0
  -17.6476  -30.6604   24.0578 C   0  0  0  0  0  0
  -25.9028  -34.9478   23.5143 C   0  0  0  0  0  0
  -16.5362  -29.9121   23.6341 C   0  0  0  0  0  0
  -16.7267  -28.6540   23.0355 C   0  0  0  0  0  0
  -26.4435  -31.6600   25.0721 C   0  0  0  0  0  0
  -25.3709  -31.3720   26.1473 C   0  0  0  0  0  0
  -27.0263  -30.3052   24.6081 C   0  0  0  0  0  0
  -27.6019  -32.4322   25.7466 C   0  0  0  0  0  0
  -27.5590  -37.1822   24.8492 C   0  0  0  0  0  0
  -21.4135  -29.3031   22.3731 N   0  0  0  0  0  0
  -26.4295  -37.3817   23.9443 N   0  0  0  0  0  0
  -24.6693  -31.0770   22.0950 N   0  0  0  0  0  0
  -23.4191  -28.8184   23.2987 O   0  0  0  0  0  0
  -28.3832  -26.6534   20.0944 O   0  0  0  0  0  0
  -26.5619  -34.8934   22.4714 O   0  0  0  0  0  0
  -23.5294  -32.1394   23.7447 O   0  0  0  0  0  0
  -28.7246  -17.9021   22.3571 C   0  0  0  0  0  0
  -27.8313  -20.1688   22.2878 C   0  0  0  0  0  0
  -29.4729  -18.1350   21.1833 C   0  0  0  0  0  0
  -28.5802  -20.4630   21.1265 C   0  0  0  0  0  0
  -29.4250  -19.4394   20.5833 C   0  0  0  0  0  0
  -27.9145  -18.9092   22.9068 C   0  0  0  0  0  0
  -29.6900  -24.5458   22.8797 C   0  0  0  0  0  0
  -28.9751  -25.7521   22.2441 C   0  0  0  0  0  0
  -29.0715  -23.2055   22.4436 C   0  0  0  0  0  0
  -29.0946  -24.2602   20.1635 C   0  0  0  0  0  0
  -28.3485  -25.4326   20.8697 C   0  0  2  0  0  0
  -30.2516  -19.7500   19.3410 C   0  0  0  0  0  0
  -30.3445  -16.9884   20.6171 C   0  0  0  0  0  0
  -28.3607  -21.8474   20.4590 C   0  0  0  0  0  0
  -29.9535  -15.5914   20.9219 N   0  0  0  0  0  0
  -29.1901  -22.9869   20.9745 N   0  3  2  0  0  0
  -27.0079  -18.5986   24.3423 Cl  0  0  0  0  0  0
  -31.4707  -12.4131   19.1496 H   0  0  0  0  0  0
  -30.3175  -11.3230   19.8597 H   0  0  0  0  0  0
  -29.7501  -11.7625   17.4498 H   0  0  0  0  0  0
  -29.6701  -13.4774   17.7600 H   0  0  0  0  0  0
  -27.8365  -11.3065   18.8256 H   0  0  0  0  0  0
  -27.3740  -12.6217   17.7817 H   0  0  0  0  0  0
  -27.6879  -14.2575   19.5496 H   0  0  0  0  0  0
  -28.6815  -12.0032   21.3612 H   0  0  0  0  0  0
  -28.4622  -13.6583   21.8553 H   0  0  0  0  0  0
  -25.2770   -9.5680   22.4739 H   0  0  0  0  0  0
  -24.0000   -7.4630   22.7474 H   0  0  0  0  0  0
  -21.0829   -8.8762   19.8955 H   0  0  0  0  0  0
  -22.3694  -10.9653   19.6140 H   0  0  0  0  0  0
  -21.2004   -7.6144   23.9714 H   0  0  0  0  0  0
  -21.1479   -6.0522   25.9082 H   0  0  0  0  0  0
  -22.0598   -2.7601   23.2861 H   0  0  0  0  0  0
  -22.4107  -11.9900   22.4813 H   0  0  0  0  0  0
  -21.1095  -13.1234   22.2573 H   0  0  0  0  0  0
  -24.6581  -15.8408   20.5202 H   0  0  0  0  0  0
  -26.2768  -15.6319   20.0838 H   0  0  0  0  0  0
  -26.7032  -32.5537   23.1136 H   0  0  0  0  0  0
  -24.9994  -33.9791   25.0457 H   0  0  0  0  0  0
  -22.6913  -31.3022   21.4024 H   0  0  0  0  0  0
  -23.3755  -35.9626   23.3352 H   0  0  0  0  0  0
  -24.3566  -36.8866   22.2072 H   0  0  0  0  0  0
  -23.7180  -37.6519   23.6621 H   0  0  0  0  0  0
  -26.0449  -31.5846   20.5857 H   0  0  0  0  0  0
  -26.8226  -30.8842   21.9809 H   0  0  0  0  0  0
  -28.1074  -29.0918   21.1652 H   0  0  0  0  0  0
  -26.0614  -25.9514   19.0295 H   0  0  0  0  0  0
  -23.9794  -27.2834   19.0422 H   0  0  0  0  0  0
  -23.7361  -30.5906   19.3977 H   0  0  0  0  0  0
  -22.7418  -29.2403   19.8629 H   0  0  0  0  0  0
  -25.1267  -36.2018   25.0865 H   0  0  0  0  0  0
  -20.9971  -28.3209   24.1431 H   0  0  0  0  0  0
  -20.5672  -26.2256   23.3590 H   0  0  0  0  0  0
  -21.6655  -26.7462   22.1199 H   0  0  0  0  0  0
  -19.6881  -25.6300   21.1245 H   0  0  0  0  0  0
  -19.6683  -27.3231   20.6773 H   0  0  0  0  0  0
  -17.4193  -26.6710   21.4021 H   0  0  0  0  0  0
  -18.0295  -26.0096   22.9033 H   0  0  0  0  0  0
  -19.7948  -30.7307   24.2247 H   0  0  0  0  0  0
  -17.5041  -31.6283   24.5177 H   0  0  0  0  0  0
  -15.5379  -30.3037   23.7662 H   0  0  0  0  0  0
  -15.8664  -28.0877   22.7044 H   0  0  0  0  0  0
  -24.5875  -30.7071   25.7826 H   0  0  0  0  0  0
  -24.8910  -32.2887   26.4917 H   0  0  0  0  0  0
  -25.8071  -30.8906   27.0228 H   0  0  0  0  0  0
  -26.2824  -29.6813   24.1117 H   0  0  0  0  0  0
  -27.4073  -29.7265   25.4502 H   0  0  0  0  0  0
  -27.8616  -30.4475   23.9232 H   0  0  0  0  0  0
  -27.2661  -33.3633   26.2055 H   0  0  0  0  0  0
  -28.3818  -32.6846   25.0277 H   0  0  0  0  0  0
  -28.0676  -31.8420   26.5366 H   0  0  0  0  0  0
  -28.2635  -38.0104   24.7532 H   0  0  0  0  0  0
  -28.1048  -36.2625   24.6307 H   0  0  0  0  0  0
  -27.2296  -37.1448   25.8896 H   0  0  0  0  0  0
  -20.9281  -29.8759   21.6986 H   0  0  0  0  0  0
  -26.0181  -38.2899   24.1444 H   0  0  0  0  0  0
  -28.7702  -16.9460   22.8594 H   0  0  0  0  0  0
  -27.1737  -20.9103   22.7166 H   0  0  0  0  0  0
  -29.6715  -24.6365   23.9680 H   0  0  0  0  0  0
  -30.7433  -24.5603   22.5969 H   0  0  0  0  0  0
  -29.6978  -26.5632   22.1453 H   0  0  0  0  0  0
  -28.1961  -26.1267   22.9098 H   0  0  0  0  0  0
  -28.0223  -23.1768   22.7434 H   0  0  0  0  0  0
  -29.5688  -22.3890   22.9689 H   0  0  0  0  0  0
  -30.1134  -24.5860   19.9517 H   0  0  0  0  0  0
  -28.6430  -24.0675   19.1893 H   0  0  0  0  0  0
  -27.3193  -25.1067   21.0300 H   0  0  0  0  0  0
  -31.1046  -19.0879   19.2092 H   0  0  0  0  0  0
  -30.6702  -20.7537   19.3941 H   0  0  0  0  0  0
  -29.6297  -19.6863   18.4473 H   0  0  0  0  0  0
  -31.3687  -17.1566   20.9540 H   0  0  0  0  0  0
  -30.3606  -17.0609   19.5294 H   0  0  0  0  0  0
  -27.3066  -22.1127   20.5662 H   0  0  0  0  0  0
  -28.5101  -21.7503   19.3839 H   0  0  0  0  0  0
  -29.0082  -15.4221   21.2286 H   0  0  0  0  0  0
  -30.1393  -22.6759   20.8356 H   0  0  0  0  0  0
  1 25  1  0  0  0
  1 30  2  0  0  0
  1 85  1  0  0  0
  2  3  1  0  0  0
  2 25  1  0  0  0
  2 88  1  0  0  0
  2 89  1  0  0  0
  3  4  1  0  0  0
  3 90  1  0  0  0
  3 91  1  0  0  0
  4  5  1  0  0  0
  4 92  1  0  0  0
  4 93  1  0  0  0
  5  6  1  0  0  0
  5 26  1  0  0  0
  5 94  1  0  0  0
  6 25  1  0  0  0
  6 95  1  0  0  0
  6 96  1  0  0  0
  7  8  2  0  0  0
  7 26  1  0  0  0
  7 29  1  0  0  0
  8  9  1  0  0  0
  8 22  1  0  0  0
  9 10  1  0  0  0
  9 27  2  0  0  0
 10 11  2  0  0  0
 10 15  1  0  0  0
 11 12  1  0  0  0
 11 97  1  0  0  0
 12 13  2  0  0  0
 12 98  1  0  0  0
 13 14  1  0  0  0
 13 31  1  0  0  0
 14 15  2  0  0  0
 14 99  1  0  0  0
 15100  1  0  0  0
 16 17  2  0  0  0
 16 21  1  0  0  0
 16 31  1  0  0  0
 17 18  1  0  0  0
 17101  1  0  0  0
 18 19  2  0  0  0
 18102  1  0  0  0
 19 20  1  0  0  0
 19 24  1  0  0  0
 20 21  2  0  0  0
 20103  1  0  0  0
 21 23  1  0  0  0
 22 28  1  0  0  0
 22 32  2  0  0  0
 26 27  1  0  0  0
 28104  1  0  0  0
 28105  1  0  0  0
 29106  1  0  0  0
 29107  1  0  0  0
 33 34  1  0  0  0
 33 66  1  0  0  0
 33 70  2  0  0  0
 34 36  1  0  0  0
 34 59  1  0  0  0
 34108  1  0  0  0
 35 44  2  0  0  0
 35 45  1  0  0  0
 35 68  1  0  0  0
 36 56  1  0  0  0
 36109  1  0  0  0
 37 39  1  0  0  0
 37 47  1  0  0  0
 37 66  1  0  0  0
 37110  1  0  0  0
 38 43  2  0  0  0
 38 46  1  0  0  0
 38 47  1  0  0  0
 39 64  1  0  0  0
 39 67  2  0  0  0
 40 52  1  0  0  0
 40 53  2  0  0  0
 40 58  1  0  0  0
 41111  1  0  0  0
 41112  1  0  0  0
 41113  1  0  0  0
 41 48  1  0  0  0
 42 43  1  0  0  0
 42 66  1  0  0  0
 42114  1  0  0  0
 42115  1  0  0  0
 43 44  1  0  0  0
 44116  1  0  0  0
 45 46  2  0  0  0
 45117  1  0  0  0
 46118  1  0  0  0
 47119  1  0  0  0
 47120  1  0  0  0
 48 56  1  0  0  0
 48 65  1  0  0  0
 48121  1  0  0  0
 49 50  1  0  0  0
 49 53  1  0  0  0
 49 64  1  0  0  0
 49122  1  0  0  0
 50 51  1  0  0  0
 50123  1  0  0  0
 50124  1  0  0  0
 51 52  1  0  0  0
 51125  1  0  0  0
 51126  1  0  0  0
 52127  1  0  0  0
 52128  1  0  0  0
 53 54  1  0  0  0
 54 55  2  0  0  0
 54129  1  0  0  0
 55 57  1  0  0  0
 55130  1  0  0  0
 56 69  2  0  0  0
 57 58  2  0  0  0
 57131  1  0  0  0
 58132  1  0  0  0
 59 60  1  0  0  0
 59 61  1  0  0  0
 59 62  1  0  0  0
 60133  1  0  0  0
 60134  1  0  0  0
 60135  1  0  0  0
 61136  1  0  0  0
 61137  1  0  0  0
 61138  1  0  0  0
 62139  1  0  0  0
 62140  1  0  0  0
 62141  1  0  0  0
 63 65  1  0  0  0
 63142  1  0  0  0
 63143  1  0  0  0
 63144  1  0  0  0
 64145  1  0  0  0
 65146  1  0  0  0
 68 81  1  0  0  0
 71 73  2  0  0  0
 71 76  1  0  0  0
 71147  1  0  0  0
 72 74  1  0  0  0
 72 76  2  0  0  0
 72148  1  0  0  0
 73 75  1  0  0  0
 73 83  1  0  0  0
 74 75  2  0  0  0
 74 84  1  0  0  0
 75 82  1  0  0  0
 76 87  1  0  0  0
 77 78  1  0  0  0
 77 79  1  0  0  0
 77149  1  0  0  0
 77150  1  0  0  0
 78 81  1  0  0  0
 78151  1  0  0  0
 78152  1  0  0  0
 79 86  1  0  0  0
 79153  1  0  0  0
 79154  1  0  0  0
 80 81  1  0  0  0
 80 86  1  0  0  0
 80155  1  0  0  0
 80156  1  0  0  0
 81157  1  0  0  0
 82158  1  0  0  0
 82159  1  0  0  0
 82160  1  0  0  0
 83 85  1  0  0  0
 83161  1  0  0  0
 83162  1  0  0  0
 84163  1  0  0  0
 84164  1  0  0  0
 84 86  1  0  0  0
 85165  1  0  0  0
 86166  1  0  0  0
M  CHG  1  86   1
M  ISO  4   1 100  68 101  81 101  85 100
M  END
> <chiral flag>
0

> <version>
0

> <s_m_source_file>
/data/baiqing/PycharmProjects/Reinvent-master-3.2/result/LINK_invent/BTK/process_docking_weight1_custom_product_contain_oxygen_bond_distance_aromatic_linkinvent_7_9_3/rearranged_h_0035.sdf

> <i_m_source_file_index>
34

> <r_mmod_Potential_Energy-OPLS-2005>
-131.994094848633

> <r_mmod_Stretch_Energy-OPLS-2005>
50.7585601806641

> <r_mmod_Bend_Energy-OPLS-2005>
103.840385437012

> <r_mmod_Torsional_Energy-OPLS-2005>
266.138366699219

> <r_mmod_Improper_Torsional_Energy-OPLS-2005>
5.70412826538086

> <r_mmod_Van_der_Waal_Energy-OPLS-2005>
153.920440673828

> <r_mmod_Electrostatic_Energy-OPLS-2005>
-302.794952392578

> <r_mmod_Solvation_Energy-OPLS-2005>
-427.684417724609

> <b_mmod_Minimization_Converged-OPLS-2005>
0

> <r_mmod_RMS_Derivative-OPLS-2005>
2.92764401435852

$$$$
35
                    3D
 Structure written by MMmdl.
170179  0  0  1  0            999 V2000
  -30.5616  -14.6547   20.5477 C   0  0  0  0  0  0
  -30.4489  -12.4202   19.4526 C   0  0  0  0  0  0
  -29.5117  -12.5414   18.2291 C   0  0  0  0  0  0
  -28.0319  -12.3693   18.6359 C   0  0  0  0  0  0
  -27.6479  -13.2178   19.8743 C   0  0  2  0  0  0
  -28.6840  -13.0350   21.0014 C   0  0  0  0  0  0
  -25.2630  -13.8127   20.5855 C   0  0  0  0  0  0
  -24.1825  -13.0375   20.9159 C   0  0  0  0  0  0
  -24.6402  -11.6865   20.8667 C   0  0  0  0  0  0
  -23.9068  -10.4291   21.0372 C   0  0  0  0  0  0
  -24.3643   -9.4233   21.9152 C   0  0  0  0  0  0
  -23.6337   -8.2270   22.0755 C   0  0  0  0  0  0
  -22.4337   -8.0281   21.3512 C   0  0  0  0  0  0
  -21.9928   -9.0264   20.4623 C   0  0  0  0  0  0
  -22.7245  -10.2143   20.3047 C   0  0  0  0  0  0
  -21.6877   -6.0726   22.5265 C   0  0  0  0  0  0
  -21.4024   -6.5626   23.8184 C   0  0  0  0  0  0
  -21.3682   -5.6775   24.9143 C   0  0  0  0  0  0
  -21.6080   -4.3048   24.7214 C   0  0  0  0  0  0
  -21.8823   -3.8136   23.4339 C   0  0  0  0  0  0
  -21.9225   -4.6954   22.3384 C   0  0  0  0  0  0
  -22.7885  -13.5210   21.1789 C   0  0  0  0  0  0
  -22.1669   -4.2131   21.0958 F   0  0  0  0  0  0
  -21.5663   -3.4537   25.7728 F   0  0  0  0  0  0
  -30.0014  -13.4066   20.4569 N   0  0  0  0  0  0
  -26.2974  -12.9287   20.3355 N   0  0  0  0  0  0
  -25.9311  -11.6436   20.5657 N   0  0  0  0  0  0
  -22.0545  -12.8188   22.0349 N   0  0  0  0  0  0
  -25.4399  -15.1838   20.4610 N   0  0  0  0  0  0
  -31.7140  -14.8623   20.1521 O   0  0  0  0  0  0
  -21.6681   -6.8890   21.4233 O   0  0  0  0  0  0
  -22.3573  -14.5509   20.6627 O   0  0  0  0  0  0
  -24.6178  -31.8594   23.2023 C   0  0  0  0  0  0
  -25.9068  -32.4765   23.8342 C   0  0  1  0  0  0
  -27.2449  -27.3470   20.1126 C   0  0  0  0  0  0
  -25.5912  -33.8574   24.2255 N   0  0  0  0  0  0
  -23.4138  -30.4752   21.5411 C   0  0  2  0  0  0
  -24.8673  -28.9241   20.1183 C   0  0  0  0  0  0
  -22.7394  -29.4606   22.4924 C   0  0  0  0  0  0
  -18.0285  -28.1351   22.8494 C   0  0  0  0  0  0
  -24.1501  -36.7258   23.2641 C   0  0  0  0  0  0
  -25.9489  -30.7943   21.3785 C   0  0  0  0  0  0
  -26.0275  -29.4267   20.7136 C   0  0  0  0  0  0
  -27.2183  -28.6501   20.6939 C   0  0  0  0  0  0
  -26.0565  -26.8729   19.5186 C   0  0  0  0  0  0
  -24.8823  -27.6545   19.5123 C   0  0  0  0  0  0
  -23.6323  -29.7992   20.1598 C   0  0  0  0  0  0
  -25.4138  -36.3035   24.0290 C   0  0  1  0  0  0
  -20.5869  -28.3647   23.1295 C   0  0  2  0  0  0
  -20.6726  -26.9378   22.5416 C   0  0  0  0  0  0
  -19.5750  -26.6356   21.5168 C   0  0  0  0  0  0
  -18.1942  -26.7919   22.1586 C   0  0  0  0  0  0
  -19.1530  -28.8816   23.2906 C   0  0  0  0  0  0
  -18.9453  -30.1427   23.8907 C   0  0  0  0  0  0
  -17.6463  -30.6573   24.0567 C   0  0  0  0  0  0
  -25.9068  -34.9416   23.5064 C   0  0  0  0  0  0
  -16.5360  -29.9066   23.6353 C   0  0  0  0  0  0
  -16.7279  -28.6480   23.0382 C   0  0  0  0  0  0
  -26.4499  -31.6595   25.0713 C   0  0  0  0  0  0
  -25.3746  -31.3758   26.1445 C   0  0  0  0  0  0
  -27.0360  -30.3013   24.6205 C   0  0  0  0  0  0
  -27.6029  -32.4380   25.7506 C   0  0  0  0  0  0
  -27.5584  -37.1786   24.8451 C   0  0  0  0  0  0
  -21.4107  -29.3037   22.3684 N   0  0  0  0  0  0
  -26.4299  -37.3741   23.9383 N   0  0  0  0  0  0
  -24.6763  -31.0583   22.0979 N   0  0  0  0  0  0
  -23.4127  -28.8155   23.3008 O   0  0  0  0  0  0
  -28.4286  -26.6098   20.1570 O   0  0  0  0  0  0
  -26.5634  -34.8877   22.4639 O   0  0  0  0  0  0
  -23.5348  -32.1423   23.7349 O   0  0  0  0  0  0
  -29.5936  -19.3132   19.7662 C   0  0  0  0  0  0
  -28.4724  -19.1355   21.8730 C   0  0  0  0  0  0
  -28.8141  -19.9549   20.7686 C   0  0  0  0  0  0
  -29.9763  -17.9289   19.8372 C   0  0  0  0  0  0
  -28.8103  -17.7514   21.9460 C   0  0  0  0  0  0
  -29.5744  -17.0943   20.9288 C   0  0  0  0  0  0
  -29.7617  -22.7486   19.2407 C   0  0  0  0  0  0
  -31.0961  -22.5949   19.3048 C   0  0  0  0  0  0
  -28.9622  -23.3115   18.0646 C   0  0  0  0  0  0
  -28.5444  -24.7949   18.2957 C   0  0  0  0  0  0
  -28.1566  -23.9788   20.7017 C   0  0  0  0  0  0
  -28.6402  -25.1919   19.7935 C   0  0  2  0  0  0
  -30.7597  -17.3659   18.6659 C   0  0  0  0  0  0
  -28.2535  -16.9944   23.1455 C   0  0  0  0  0  0
  -31.8809  -22.3296   20.5769 C   0  0  0  0  0  0
  -28.1322  -21.3786   20.6027 C   0  0  0  0  0  0
  -29.7041  -15.6283   21.0019 N   0  0  0  0  0  0
  -28.9247  -22.6703   20.4693 N   0  3  1  0  0  0
  -31.4834  -12.5942   19.1476 H   0  0  0  0  0  0
  -30.4197  -11.4145   19.8725 H   0  0  0  0  0  0
  -29.7729  -11.8054   17.4679 H   0  0  0  0  0  0
  -29.6558  -13.5229   17.7713 H   0  0  0  0  0  0
  -27.8583  -11.3144   18.8519 H   0  0  0  0  0  0
  -27.3829  -12.6206   17.7964 H   0  0  0  0  0  0
  -27.6587  -14.2614   19.5592 H   0  0  0  0  0  0
  -28.6948  -11.9966   21.3342 H   0  0  0  0  0  0
  -28.4156  -13.6207   21.8821 H   0  0  0  0  0  0
  -25.2798   -9.5732   22.4675 H   0  0  0  0  0  0
  -24.0056   -7.4706   22.7513 H   0  0  0  0  0  0
  -21.0851   -8.8813   19.8946 H   0  0  0  0  0  0
  -22.3709  -10.9705   19.6181 H   0  0  0  0  0  0
  -21.1952   -7.6117   23.9653 H   0  0  0  0  0  0
  -21.1515   -6.0511   25.9033 H   0  0  0  0  0  0
  -22.0586   -2.7598   23.2833 H   0  0  0  0  0  0
  -22.4293  -11.9881   22.4654 H   0  0  0  0  0  0
  -21.1180  -13.1173   22.2638 H   0  0  0  0  0  0
  -24.6866  -15.8425   20.6330 H   0  0  0  0  0  0
  -26.3158  -15.6301   20.2202 H   0  0  0  0  0  0
  -26.7155  -32.5424   23.1103 H   0  0  0  0  0  0
  -25.0067  -33.9781   25.0400 H   0  0  0  0  0  0
  -22.7121  -31.2963   21.3872 H   0  0  0  0  0  0
  -23.3756  -35.9605   23.3333 H   0  0  0  0  0  0
  -24.3582  -36.8877   22.2054 H   0  0  0  0  0  0
  -23.7310  -37.6467   23.6702 H   0  0  0  0  0  0
  -26.0972  -31.5711   20.6289 H   0  0  0  0  0  0
  -26.8166  -30.8282   22.0231 H   0  0  0  0  0  0
  -28.1193  -29.0345   21.1523 H   0  0  0  0  0  0
  -26.0127  -25.8953   19.0690 H   0  0  0  0  0  0
  -23.9908  -27.2711   19.0419 H   0  0  0  0  0  0
  -23.7573  -30.5664   19.3948 H   0  0  0  0  0  0
  -22.7582  -29.2220   19.8571 H   0  0  0  0  0  0
  -25.1369  -36.1841   25.0785 H   0  0  0  0  0  0
  -21.0029  -28.3180   24.1380 H   0  0  0  0  0  0
  -20.5509  -26.2261   23.3591 H   0  0  0  0  0  0
  -21.6608  -26.7346   22.1300 H   0  0  0  0  0  0
  -19.6922  -25.6248   21.1249 H   0  0  0  0  0  0
  -19.6719  -27.3104   20.6642 H   0  0  0  0  0  0
  -17.4210  -26.6690   21.4000 H   0  0  0  0  0  0
  -18.0376  -26.0009   22.8927 H   0  0  0  0  0  0
  -19.7921  -30.7246   24.2271 H   0  0  0  0  0  0
  -17.5025  -31.6266   24.5137 H   0  0  0  0  0  0
  -15.5377  -30.2984   23.7648 H   0  0  0  0  0  0
  -15.8666  -28.0794   22.7111 H   0  0  0  0  0  0
  -24.5880  -30.7174   25.7774 H   0  0  0  0  0  0
  -24.8996  -32.2936   26.4905 H   0  0  0  0  0  0
  -25.8033  -30.8894   27.0209 H   0  0  0  0  0  0
  -26.2923  -29.6777   24.1221 H   0  0  0  0  0  0
  -27.4043  -29.7278   25.4728 H   0  0  0  0  0  0
  -27.8826  -30.4324   23.9456 H   0  0  0  0  0  0
  -27.2584  -33.3639   26.2141 H   0  0  0  0  0  0
  -28.3806  -32.7041   25.0334 H   0  0  0  0  0  0
  -28.0773  -31.8523   26.5391 H   0  0  0  0  0  0
  -28.2577  -38.0093   24.7466 H   0  0  0  0  0  0
  -28.1090  -36.2614   24.6319 H   0  0  0  0  0  0
  -27.2278  -37.1472   25.8843 H   0  0  0  0  0  0
  -20.9203  -29.8764   21.6963 H   0  0  0  0  0  0
  -26.0140  -38.2797   24.1409 H   0  0  0  0  0  0
  -29.8448  -19.8801   18.8804 H   0  0  0  0  0  0
  -27.8460  -19.5533   22.6537 H   0  0  0  0  0  0
  -31.6844  -22.8064   18.4238 H   0  0  0  0  0  0
  -28.0699  -22.6990   17.9226 H   0  0  0  0  0  0
  -29.5308  -23.2068   17.1396 H   0  0  0  0  0  0
  -27.5475  -24.9447   17.8902 H   0  0  0  0  0  0
  -29.1936  -25.4476   17.7109 H   0  0  0  0  0  0
  -27.0892  -23.8292   20.5399 H   0  0  0  0  0  0
  -28.2844  -24.2552   21.7493 H   0  0  0  0  0  0
  -29.7180  -25.2060   19.9543 H   0  0  0  0  0  0
  -30.7227  -18.0424   17.8125 H   0  0  0  0  0  0
  -30.3531  -16.4085   18.3368 H   0  0  0  0  0  0
  -31.8040  -17.2252   18.9525 H   0  0  0  0  0  0
  -27.1922  -17.2254   23.2525 H   0  0  0  0  0  0
  -28.7625  -17.3134   24.0554 H   0  0  0  0  0  0
  -28.3467  -15.9124   23.0793 H   0  0  0  0  0  0
  -31.3341  -21.7372   21.3139 H   0  0  0  0  0  0
  -32.1267  -23.2818   21.0461 H   0  0  0  0  0  0
  -32.8194  -21.8249   20.3444 H   0  0  0  0  0  0
  -27.4852  -21.5189   21.4669 H   0  0  0  0  0  0
  -27.4502  -21.3071   19.7569 H   0  0  0  0  0  0
  -28.8851  -15.1934   21.3950 H   0  0  0  0  0  0
  -29.5783  -22.6295   21.2370 H   0  0  0  0  0  0
  1 25  1  0  0  0
  1 30  2  0  0  0
  1 87  1  0  0  0
  2  3  1  0  0  0
  2 25  1  0  0  0
  2 89  1  0  0  0
  2 90  1  0  0  0
  3  4  1  0  0  0
  3 91  1  0  0  0
  3 92  1  0  0  0
  4  5  1  0  0  0
  4 93  1  0  0  0
  4 94  1  0  0  0
  5  6  1  0  0  0
  5 26  1  0  0  0
  5 95  1  0  0  0
  6 25  1  0  0  0
  6 96  1  0  0  0
  6 97  1  0  0  0
  7  8  2  0  0  0
  7 26  1  0  0  0
  7 29  1  0  0  0
  8  9  1  0  0  0
  8 22  1  0  0  0
  9 10  1  0  0  0
  9 27  2  0  0  0
 10 11  2  0  0  0
 10 15  1  0  0  0
 11 12  1  0  0  0
 11 98  1  0  0  0
 12 13  2  0  0  0
 12 99  1  0  0  0
 13 14  1  0  0  0
 13 31  1  0  0  0
 14 15  2  0  0  0
 14100  1  0  0  0
 15101  1  0  0  0
 16 17  2  0  0  0
 16 21  1  0  0  0
 16 31  1  0  0  0
 17 18  1  0  0  0
 17102  1  0  0  0
 18 19  2  0  0  0
 18103  1  0  0  0
 19 20  1  0  0  0
 19 24  1  0  0  0
 20 21  2  0  0  0
 20104  1  0  0  0
 21 23  1  0  0  0
 22 28  1  0  0  0
 22 32  2  0  0  0
 26 27  1  0  0  0
 28105  1  0  0  0
 28106  1  0  0  0
 29107  1  0  0  0
 29108  1  0  0  0
 33 34  1  0  0  0
 33 66  1  0  0  0
 33 70  2  0  0  0
 34 36  1  0  0  0
 34 59  1  0  0  0
 34109  1  0  0  0
 35 44  2  0  0  0
 35 45  1  0  0  0
 35 68  1  0  0  0
 36 56  1  0  0  0
 36110  1  0  0  0
 37 39  1  0  0  0
 37 47  1  0  0  0
 37 66  1  0  0  0
 37111  1  0  0  0
 38 43  2  0  0  0
 38 46  1  0  0  0
 38 47  1  0  0  0
 39 64  1  0  0  0
 39 67  2  0  0  0
 40 52  1  0  0  0
 40 53  2  0  0  0
 40 58  1  0  0  0
 41112  1  0  0  0
 41113  1  0  0  0
 41114  1  0  0  0
 41 48  1  0  0  0
 42 43  1  0  0  0
 42 66  1  0  0  0
 42115  1  0  0  0
 42116  1  0  0  0
 43 44  1  0  0  0
 44117  1  0  0  0
 45 46  2  0  0  0
 45118  1  0  0  0
 46119  1  0  0  0
 47120  1  0  0  0
 47121  1  0  0  0
 48 56  1  0  0  0
 48 65  1  0  0  0
 48122  1  0  0  0
 49 50  1  0  0  0
 49 53  1  0  0  0
 49 64  1  0  0  0
 49123  1  0  0  0
 50 51  1  0  0  0
 50124  1  0  0  0
 50125  1  0  0  0
 51 52  1  0  0  0
 51126  1  0  0  0
 51127  1  0  0  0
 52128  1  0  0  0
 52129  1  0  0  0
 53 54  1  0  0  0
 54 55  2  0  0  0
 54130  1  0  0  0
 55 57  1  0  0  0
 55131  1  0  0  0
 56 69  2  0  0  0
 57 58  2  0  0  0
 57132  1  0  0  0
 58133  1  0  0  0
 59 60  1  0  0  0
 59 61  1  0  0  0
 59 62  1  0  0  0
 60134  1  0  0  0
 60135  1  0  0  0
 60136  1  0  0  0
 61137  1  0  0  0
 61138  1  0  0  0
 61139  1  0  0  0
 62140  1  0  0  0
 62141  1  0  0  0
 62142  1  0  0  0
 63 65  1  0  0  0
 63143  1  0  0  0
 63144  1  0  0  0
 63145  1  0  0  0
 64146  1  0  0  0
 65147  1  0  0  0
 68 82  1  0  0  0
 71 73  2  0  0  0
 71 74  1  0  0  0
 71148  1  0  0  0
 72 73  1  0  0  0
 72 75  2  0  0  0
 72149  1  0  0  0
 73 86  1  0  0  0
 74 76  2  0  0  0
 74 83  1  0  0  0
 75 76  1  0  0  0
 75 84  1  0  0  0
 76 87  1  0  0  0
 77 78  2  0  0  0
 77 79  1  0  0  0
 77 88  1  0  0  0
 78 85  1  0  0  0
 78150  1  0  0  0
 79 80  1  0  0  0
 79151  1  0  0  0
 79152  1  0  0  0
 80 82  1  0  0  0
 80153  1  0  0  0
 80154  1  0  0  0
 81 82  1  0  0  0
 81 88  1  0  0  0
 81155  1  0  0  0
 81156  1  0  0  0
 82157  1  0  0  0
 83158  1  0  0  0
 83159  1  0  0  0
 83160  1  0  0  0
 84161  1  0  0  0
 84162  1  0  0  0
 84163  1  0  0  0
 85164  1  0  0  0
 85165  1  0  0  0
 85166  1  0  0  0
 86167  1  0  0  0
 86168  1  0  0  0
 86 88  1  0  0  0
 87169  1  0  0  0
 88170  1  0  0  0
M  CHG  1  88   1
M  ISO  4   1 100  68 101  82 101  87 100
M  END
> <chiral flag>
0

> <version>
0

> <s_m_source_file>
/data/baiqing/PycharmProjects/Reinvent-master-3.2/result/LINK_invent/BTK/process_docking_weight1_custom_product_contain_oxygen_bond_distance_aromatic_linkinvent_7_9_3/rearranged_h_0035.sdf

> <i_m_source_file_index>
35

> <r_mmod_Potential_Energy-OPLS-2005>
22.2704563140869

> <r_mmod_Stretch_Energy-OPLS-2005>
86.5415649414062

> <r_mmod_Bend_Energy-OPLS-2005>
214.697479248047

> <r_mmod_Torsional_Energy-OPLS-2005>
252.987152099609

> <r_mmod_Improper_Torsional_Energy-OPLS-2005>
5.98935604095459

> <r_mmod_Van_der_Waal_Energy-OPLS-2005>
148.684158325195

> <r_mmod_Electrostatic_Energy-OPLS-2005>
-317.596038818359

> <r_mmod_Solvation_Energy-OPLS-2005>
-414.074005126953

> <b_mmod_Minimization_Converged-OPLS-2005>
0

> <r_mmod_RMS_Derivative-OPLS-2005>
5.70385646820068

$$$$
36
                    3D
 Structure written by MMmdl.
156165  0  0  1  0            999 V2000
  -30.5363  -14.9749   20.4314 C   0  0  0  0  0  0
  -30.4389  -12.6142   19.4883 C   0  0  0  0  0  0
  -29.5178  -12.5294   18.2500 C   0  0  0  0  0  0
  -28.0535  -12.3088   18.6745 C   0  0  0  0  0  0
  -27.6245  -13.2492   19.8311 C   0  0  2  0  0  0
  -28.6682  -13.2960   20.9648 C   0  0  0  0  0  0
  -25.2449  -13.8216   20.5717 C   0  0  0  0  0  0
  -24.1773  -13.0437   20.9240 C   0  0  0  0  0  0
  -24.6391  -11.6923   20.8761 C   0  0  0  0  0  0
  -23.9078  -10.4292   21.0412 C   0  0  0  0  0  0
  -24.3627   -9.4206   21.9189 C   0  0  0  0  0  0
  -23.6298   -8.2242   22.0756 C   0  0  0  0  0  0
  -22.4280   -8.0283   21.3545 C   0  0  0  0  0  0
  -21.9919   -9.0258   20.4647 C   0  0  0  0  0  0
  -22.7251  -10.2135   20.3059 C   0  0  0  0  0  0
  -21.6854   -6.0739   22.5280 C   0  0  0  0  0  0
  -21.4016   -6.5642   23.8214 C   0  0  0  0  0  0
  -21.3659   -5.6794   24.9175 C   0  0  0  0  0  0
  -21.6042   -4.3056   24.7226 C   0  0  0  0  0  0
  -21.8819   -3.8149   23.4346 C   0  0  0  0  0  0
  -21.9193   -4.6966   22.3402 C   0  0  0  0  0  0
  -22.7793  -13.5208   21.1891 C   0  0  0  0  0  0
  -22.1662   -4.2151   21.0980 F   0  0  0  0  0  0
  -21.5626   -3.4541   25.7738 F   0  0  0  0  0  0
  -29.9332  -13.7193   20.3526 N   0  0  0  0  0  0
  -26.2863  -12.9448   20.3224 N   0  0  0  0  0  0
  -25.9320  -11.6578   20.5733 N   0  0  0  0  0  0
  -22.0444  -12.8194   22.0443 N   0  0  0  0  0  0
  -25.4107  -15.1946   20.4141 N   0  0  0  0  0  0
  -31.7543  -15.0178   20.2275 O   0  0  0  0  0  0
  -21.6641   -6.8882   21.4242 O   0  0  0  0  0  0
  -22.3478  -14.5512   20.6731 O   0  0  0  0  0  0
  -24.6442  -31.8424   23.1870 C   0  0  0  0  0  0
  -25.9211  -32.4682   23.8264 C   0  0  1  0  0  0
  -27.2139  -27.0999   20.1773 C   0  0  0  0  0  0
  -25.5957  -33.8490   24.2181 N   0  0  0  0  0  0
  -23.4490  -30.4590   21.5332 C   0  0  2  0  0  0
  -24.8974  -28.8687   20.1262 C   0  0  0  0  0  0
  -22.7564  -29.4537   22.4867 C   0  0  0  0  0  0
  -18.0302  -28.1394   22.8474 C   0  0  0  0  0  0
  -24.1490  -36.7249   23.2642 C   0  0  0  0  0  0
  -26.0055  -30.7003   21.3949 C   0  0  0  0  0  0
  -26.0723  -29.3011   20.7549 C   0  0  0  0  0  0
  -27.2287  -28.4306   20.7677 C   0  0  0  0  0  0
  -26.0207  -26.7811   19.4970 C   0  0  0  0  0  0
  -24.8835  -27.6198   19.4859 C   0  0  0  0  0  0
  -23.6794  -29.7804   20.1564 C   0  0  0  0  0  0
  -25.4124  -36.3023   24.0312 C   0  0  1  0  0  0
  -20.5914  -28.3721   23.1232 C   0  0  2  0  0  0
  -20.6787  -26.9424   22.5404 C   0  0  0  0  0  0
  -19.5763  -26.6382   21.5208 C   0  0  0  0  0  0
  -18.1944  -26.7934   22.1618 C   0  0  0  0  0  0
  -19.1559  -28.8875   23.2845 C   0  0  0  0  0  0
  -18.9478  -30.1470   23.8873 C   0  0  0  0  0  0
  -17.6477  -30.6592   24.0556 C   0  0  0  0  0  0
  -25.9076  -34.9400   23.5056 C   0  0  0  0  0  0
  -16.5366  -29.9086   23.6334 C   0  0  0  0  0  0
  -16.7288  -28.6502   23.0356 C   0  0  0  0  0  0
  -26.4528  -31.6560   25.0715 C   0  0  0  0  0  0
  -25.3702  -31.3754   26.1402 C   0  0  0  0  0  0
  -27.0405  -30.2954   24.6323 C   0  0  0  0  0  0
  -27.6054  -32.4336   25.7499 C   0  0  0  0  0  0
  -27.5577  -37.1775   24.8461 C   0  0  0  0  0  0
  -21.4256  -29.3047   22.3606 N   0  0  0  0  0  0
  -26.4282  -37.3743   23.9412 N   0  0  0  0  0  0
  -24.7194  -31.0243   22.0929 N   0  0  0  0  0  0
  -23.4192  -28.8091   23.3034 O   0  0  0  0  0  0
  -28.3227  -26.1804   20.0649 O   0  0  0  0  0  0
  -26.5665  -34.8903   22.4638 O   0  0  0  0  0  0
  -23.5555  -32.1325   23.7066 O   0  0  0  0  0  0
  -30.7587  -20.0355   19.9477 C   0  0  0  0  0  0
  -28.4410  -21.4637   20.6198 C   0  0  0  0  0  0
  -29.5278  -22.2352   20.1454 C   0  0  0  0  0  0
  -29.7403  -19.1971   20.4996 C   0  0  0  0  0  0
  -28.5478  -19.9937   20.8209 C   0  0  0  0  0  0
  -30.6738  -21.4636   19.7827 C   0  0  0  0  0  0
  -27.2017  -22.3546   20.9452 C   0  0  0  0  0  0
  -29.4378  -23.8409   19.9700 C   0  0  0  0  0  0
  -27.1439  -23.8445   20.3294 C   0  0  0  0  0  0
  -27.3631  -19.2792   21.4449 C   0  0  0  0  0  0
  -30.1849  -17.6490   20.9629 C   0  0  0  0  0  0
  -28.3409  -24.6634   20.6323 N   0  0  0  0  0  0
  -29.7718  -16.1778   20.5478 N   0  0  0  0  0  0
  -32.0514  -22.2756   19.1294 Cl  0  0  0  0  0  0
  -31.4687  -12.7848   19.1705 H   0  0  0  0  0  0
  -30.4466  -11.6695   20.0344 H   0  0  0  0  0  0
  -29.8422  -11.7249   17.5888 H   0  0  0  0  0  0
  -29.5963  -13.4518   17.6726 H   0  0  0  0  0  0
  -27.9584  -11.2702   18.9930 H   0  0  0  0  0  0
  -27.3868  -12.4272   17.8195 H   0  0  0  0  0  0
  -27.5806  -14.2464   19.3927 H   0  0  0  0  0  0
  -28.7683  -12.3253   21.4528 H   0  0  0  0  0  0
  -28.3639  -14.0038   21.7377 H   0  0  0  0  0  0
  -25.2770   -9.5683   22.4768 H   0  0  0  0  0  0
  -24.0005   -7.4635   22.7477 H   0  0  0  0  0  0
  -21.0851   -8.8780   19.8952 H   0  0  0  0  0  0
  -22.3710  -10.9678   19.6171 H   0  0  0  0  0  0
  -21.2010   -7.6152   23.9718 H   0  0  0  0  0  0
  -21.1479   -6.0525   25.9078 H   0  0  0  0  0  0
  -22.0598   -2.7612   23.2847 H   0  0  0  0  0  0
  -22.4068  -11.9859   22.4830 H   0  0  0  0  0  0
  -21.1059  -13.1210   22.2646 H   0  0  0  0  0  0
  -24.6373  -15.8417   20.5214 H   0  0  0  0  0  0
  -26.2453  -15.6353   20.0512 H   0  0  0  0  0  0
  -26.7271  -32.5280   23.0985 H   0  0  0  0  0  0
  -25.0073  -33.9603   25.0307 H   0  0  0  0  0  0
  -22.7529  -31.2849   21.3730 H   0  0  0  0  0  0
  -23.3756  -35.9576   23.3293 H   0  0  0  0  0  0
  -24.3573  -36.8896   22.2059 H   0  0  0  0  0  0
  -23.7246  -37.6441   23.6688 H   0  0  0  0  0  0
  -26.1623  -31.4431   20.6114 H   0  0  0  0  0  0
  -26.8768  -30.7592   22.0354 H   0  0  0  0  0  0
  -28.1359  -28.7685   21.2485 H   0  0  0  0  0  0
  -25.9588  -25.8477   18.9584 H   0  0  0  0  0  0
  -23.9926  -27.2895   18.9696 H   0  0  0  0  0  0
  -23.8258  -30.5499   19.3976 H   0  0  0  0  0  0
  -22.7928  -29.2263   19.8434 H   0  0  0  0  0  0
  -25.1311  -36.1843   25.0803 H   0  0  0  0  0  0
  -20.9999  -28.3314   24.1356 H   0  0  0  0  0  0
  -20.5676  -26.2336   23.3622 H   0  0  0  0  0  0
  -21.6653  -26.7428   22.1205 H   0  0  0  0  0  0
  -19.6926  -25.6287   21.1254 H   0  0  0  0  0  0
  -19.6703  -27.3171   20.6721 H   0  0  0  0  0  0
  -17.4213  -26.6671   21.4022 H   0  0  0  0  0  0
  -18.0347  -26.0081   22.9019 H   0  0  0  0  0  0
  -19.7954  -30.7289   24.2233 H   0  0  0  0  0  0
  -17.5031  -31.6269   24.5163 H   0  0  0  0  0  0
  -15.5365  -30.2982   23.7677 H   0  0  0  0  0  0
  -15.8686  -28.0816   22.7090 H   0  0  0  0  0  0
  -24.5895  -30.7089   25.7719 H   0  0  0  0  0  0
  -24.8871  -32.2933   26.4756 H   0  0  0  0  0  0
  -25.7973  -30.8976   27.0226 H   0  0  0  0  0  0
  -26.3034  -29.6661   24.1322 H   0  0  0  0  0  0
  -27.3998  -29.7271   25.4914 H   0  0  0  0  0  0
  -27.8948  -30.4187   23.9665 H   0  0  0  0  0  0
  -27.2646  -33.3660   26.2012 H   0  0  0  0  0  0
  -28.3891  -32.6861   25.0344 H   0  0  0  0  0  0
  -28.0691  -31.8507   26.5467 H   0  0  0  0  0  0
  -28.2567  -38.0098   24.7534 H   0  0  0  0  0  0
  -28.1102  -36.2629   24.6253 H   0  0  0  0  0  0
  -27.2297  -37.1378   25.8863 H   0  0  0  0  0  0
  -20.9474  -29.8754   21.6775 H   0  0  0  0  0  0
  -26.0144  -38.2803   24.1439 H   0  0  0  0  0  0
  -31.7016  -19.5747   19.6896 H   0  0  0  0  0  0
  -27.1358  -22.4277   22.0314 H   0  0  0  0  0  0
  -26.3060  -21.8189   20.6304 H   0  0  0  0  0  0
  -29.3862  -24.0260   18.8962 H   0  0  0  0  0  0
  -30.3904  -24.2627   20.2918 H   0  0  0  0  0  0
  -26.2619  -24.3435   20.7305 H   0  0  0  0  0  0
  -27.0080  -23.7847   19.2482 H   0  0  0  0  0  0
  -26.5482  -19.2004   20.7252 H   0  0  0  0  0  0
  -26.9986  -19.8248   22.3153 H   0  0  0  0  0  0
  -27.6183  -18.2717   21.7721 H   0  0  0  0  0  0
  -30.0215  -17.6559   22.0411 H   0  0  0  0  0  0
  -31.2728  -17.6424   20.8830 H   0  0  0  0  0  0
  -28.7761  -16.0186   20.5573 H   0  0  0  0  0  0
  1 25  1  0  0  0
  1 30  2  0  0  0
  1 83  1  0  0  0
  2  3  1  0  0  0
  2 25  1  0  0  0
  2 85  1  0  0  0
  2 86  1  0  0  0
  3  4  1  0  0  0
  3 87  1  0  0  0
  3 88  1  0  0  0
  4  5  1  0  0  0
  4 89  1  0  0  0
  4 90  1  0  0  0
  5  6  1  0  0  0
  5 26  1  0  0  0
  5 91  1  0  0  0
  6 25  1  0  0  0
  6 92  1  0  0  0
  6 93  1  0  0  0
  7  8  2  0  0  0
  7 26  1  0  0  0
  7 29  1  0  0  0
  8  9  1  0  0  0
  8 22  1  0  0  0
  9 10  1  0  0  0
  9 27  2  0  0  0
 10 11  2  0  0  0
 10 15  1  0  0  0
 11 12  1  0  0  0
 11 94  1  0  0  0
 12 13  2  0  0  0
 12 95  1  0  0  0
 13 14  1  0  0  0
 13 31  1  0  0  0
 14 15  2  0  0  0
 14 96  1  0  0  0
 15 97  1  0  0  0
 16 17  2  0  0  0
 16 21  1  0  0  0
 16 31  1  0  0  0
 17 18  1  0  0  0
 17 98  1  0  0  0
 18 19  2  0  0  0
 18 99  1  0  0  0
 19 20  1  0  0  0
 19 24  1  0  0  0
 20 21  2  0  0  0
 20100  1  0  0  0
 21 23  1  0  0  0
 22 28  1  0  0  0
 22 32  2  0  0  0
 26 27  1  0  0  0
 28101  1  0  0  0
 28102  1  0  0  0
 29103  1  0  0  0
 29104  1  0  0  0
 33 34  1  0  0  0
 33 66  1  0  0  0
 33 70  2  0  0  0
 34 36  1  0  0  0
 34 59  1  0  0  0
 34105  1  0  0  0
 35 44  2  0  0  0
 35 45  1  0  0  0
 35 68  1  0  0  0
 36 56  1  0  0  0
 36106  1  0  0  0
 37 39  1  0  0  0
 37 47  1  0  0  0
 37 66  1  0  0  0
 37107  1  0  0  0
 38 43  2  0  0  0
 38 46  1  0  0  0
 38 47  1  0  0  0
 39 64  1  0  0  0
 39 67  2  0  0  0
 40 52  1  0  0  0
 40 53  2  0  0  0
 40 58  1  0  0  0
 41108  1  0  0  0
 41109  1  0  0  0
 41110  1  0  0  0
 41 48  1  0  0  0
 42 43  1  0  0  0
 42 66  1  0  0  0
 42111  1  0  0  0
 42112  1  0  0  0
 43 44  1  0  0  0
 44113  1  0  0  0
 45 46  2  0  0  0
 45114  1  0  0  0
 46115  1  0  0  0
 47116  1  0  0  0
 47117  1  0  0  0
 48 56  1  0  0  0
 48 65  1  0  0  0
 48118  1  0  0  0
 49 50  1  0  0  0
 49 53  1  0  0  0
 49 64  1  0  0  0
 49119  1  0  0  0
 50 51  1  0  0  0
 50120  1  0  0  0
 50121  1  0  0  0
 51 52  1  0  0  0
 51122  1  0  0  0
 51123  1  0  0  0
 52124  1  0  0  0
 52125  1  0  0  0
 53 54  1  0  0  0
 54 55  2  0  0  0
 54126  1  0  0  0
 55 57  1  0  0  0
 55127  1  0  0  0
 56 69  2  0  0  0
 57 58  2  0  0  0
 57128  1  0  0  0
 58129  1  0  0  0
 59 60  1  0  0  0
 59 61  1  0  0  0
 59 62  1  0  0  0
 60130  1  0  0  0
 60131  1  0  0  0
 60132  1  0  0  0
 61133  1  0  0  0
 61134  1  0  0  0
 61135  1  0  0  0
 62136  1  0  0  0
 62137  1  0  0  0
 62138  1  0  0  0
 63 65  1  0  0  0
 63139  1  0  0  0
 63140  1  0  0  0
 63141  1  0  0  0
 64142  1  0  0  0
 65143  1  0  0  0
 68 82  1  0  0  0
 71 74  2  0  0  0
 71 76  1  0  0  0
 71144  1  0  0  0
 72 73  1  0  0  0
 72 75  2  0  0  0
 72 77  1  0  0  0
 73 76  2  0  0  0
 73 78  1  0  0  0
 74 75  1  0  0  0
 74 81  1  0  0  0
 75 80  1  0  0  0
 76 84  1  0  0  0
 77 79  1  0  0  0
 77145  1  0  0  0
 77146  1  0  0  0
 78 82  1  0  0  0
 78147  1  0  0  0
 78148  1  0  0  0
 79 82  1  0  0  0
 79149  1  0  0  0
 79150  1  0  0  0
 80151  1  0  0  0
 80152  1  0  0  0
 80153  1  0  0  0
 81 83  1  0  0  0
 81154  1  0  0  0
 81155  1  0  0  0
 83156  1  0  0  0
M  ISO  4   1 100  68 101  82 101  83 100
M  END
> <chiral flag>
0

> <version>
0

> <s_m_source_file>
/data/baiqing/PycharmProjects/Reinvent-master-3.2/result/LINK_invent/BTK/process_docking_weight1_custom_product_contain_oxygen_bond_distance_aromatic_linkinvent_7_9_3/rearranged_h_0035.sdf

> <i_m_source_file_index>
36

> <r_mmod_Potential_Energy-OPLS-2005>
525.43603515625

> <r_mmod_Stretch_Energy-OPLS-2005>
254.28010559082

> <r_mmod_Bend_Energy-OPLS-2005>
300.136077880859

> <r_mmod_Torsional_Energy-OPLS-2005>
237.628311157227

> <r_mmod_Improper_Torsional_Energy-OPLS-2005>
7.8274188041687

> <r_mmod_Van_der_Waal_Energy-OPLS-2005>
133.617614746094

> <r_mmod_Electrostatic_Energy-OPLS-2005>
-391.406433105469

> <r_mmod_Solvation_Energy-OPLS-2005>
-221.841293334961

> <b_mmod_Minimization_Converged-OPLS-2005>
0

> <r_mmod_RMS_Derivative-OPLS-2005>
0.461897015571594

$$$$
37
                    3D
 Structure written by MMmdl.
161170  0  0  1  0            999 V2000
  -30.5981  -14.7633   20.4320 C   0  0  0  0  0  0
  -30.4425  -12.4414   19.5097 C   0  0  0  0  0  0
  -29.5265  -12.4348   18.2644 C   0  0  0  0  0  0
  -28.0436  -12.3092   18.6651 C   0  0  0  0  0  0
  -27.6464  -13.2296   19.8511 C   0  0  2  0  0  0
  -28.6851  -13.1767   20.9927 C   0  0  0  0  0  0
  -25.2532  -13.8209   20.5685 C   0  0  0  0  0  0
  -24.1815  -13.0455   20.9205 C   0  0  0  0  0  0
  -24.6402  -11.6930   20.8751 C   0  0  0  0  0  0
  -23.9082  -10.4302   21.0416 C   0  0  0  0  0  0
  -24.3630   -9.4211   21.9187 C   0  0  0  0  0  0
  -23.6301   -8.2247   22.0750 C   0  0  0  0  0  0
  -22.4280   -8.0287   21.3547 C   0  0  0  0  0  0
  -21.9931   -9.0262   20.4643 C   0  0  0  0  0  0
  -22.7262  -10.2141   20.3058 C   0  0  0  0  0  0
  -21.6849   -6.0742   22.5277 C   0  0  0  0  0  0
  -21.4017   -6.5646   23.8212 C   0  0  0  0  0  0
  -21.3661   -5.6794   24.9175 C   0  0  0  0  0  0
  -21.6041   -4.3055   24.7222 C   0  0  0  0  0  0
  -21.8821   -3.8153   23.4341 C   0  0  0  0  0  0
  -21.9194   -4.6972   22.3400 C   0  0  0  0  0  0
  -22.7832  -13.5226   21.1865 C   0  0  0  0  0  0
  -22.1660   -4.2158   21.0974 F   0  0  0  0  0  0
  -21.5631   -3.4537   25.7736 F   0  0  0  0  0  0
  -29.9918  -13.5237   20.4185 N   0  0  0  0  0  0
  -26.2958  -12.9412   20.3280 N   0  0  0  0  0  0
  -25.9334  -11.6556   20.5775 N   0  0  0  0  0  0
  -22.0493  -12.8197   22.0421 N   0  0  0  0  0  0
  -25.4254  -15.1922   20.4092 N   0  0  0  0  0  0
  -31.7737  -14.8716   20.0715 O   0  0  0  0  0  0
  -21.6638   -6.8884   21.4240 O   0  0  0  0  0  0
  -22.3514  -14.5534   20.6721 O   0  0  0  0  0  0
  -24.6307  -31.8532   23.1973 C   0  0  0  0  0  0
  -25.9136  -32.4732   23.8311 C   0  0  1  0  0  0
  -27.2230  -27.2530   20.1341 C   0  0  0  0  0  0
  -25.5943  -33.8537   24.2231 N   0  0  0  0  0  0
  -23.4287  -30.4747   21.5393 C   0  0  2  0  0  0
  -24.8784  -28.9219   20.1054 C   0  0  0  0  0  0
  -22.7509  -29.4575   22.4890 C   0  0  0  0  0  0
  -18.0298  -28.1370   22.8465 C   0  0  0  0  0  0
  -24.1504  -36.7286   23.2641 C   0  0  0  0  0  0
  -25.9747  -30.7614   21.3818 C   0  0  0  0  0  0
  -26.0472  -29.3839   20.7238 C   0  0  0  0  0  0
  -27.2188  -28.5600   20.7306 C   0  0  0  0  0  0
  -26.0367  -26.8703   19.4668 C   0  0  0  0  0  0
  -24.8802  -27.6746   19.4628 C   0  0  0  0  0  0
  -23.6494  -29.8090   20.1543 C   0  0  0  0  0  0
  -25.4127  -36.3045   24.0317 C   0  0  1  0  0  0
  -20.5896  -28.3681   23.1246 C   0  0  2  0  0  0
  -20.6779  -26.9387   22.5396 C   0  0  0  0  0  0
  -19.5761  -26.6358   21.5193 C   0  0  0  0  0  0
  -18.1940  -26.7908   22.1602 C   0  0  0  0  0  0
  -19.1546  -28.8838   23.2849 C   0  0  0  0  0  0
  -18.9477  -30.1439   23.8865 C   0  0  0  0  0  0
  -17.6478  -30.6570   24.0545 C   0  0  0  0  0  0
  -25.9068  -34.9422   23.5072 C   0  0  0  0  0  0
  -16.5368  -29.9063   23.6328 C   0  0  0  0  0  0
  -16.7283  -28.6487   23.0338 C   0  0  0  0  0  0
  -26.4506  -31.6572   25.0715 C   0  0  0  0  0  0
  -25.3729  -31.3729   26.1440 C   0  0  0  0  0  0
  -27.0368  -30.2988   24.6217 C   0  0  0  0  0  0
  -27.6038  -32.4335   25.7497 C   0  0  0  0  0  0
  -27.5579  -37.1790   24.8460 C   0  0  0  0  0  0
  -21.4213  -29.3029   22.3643 N   0  0  0  0  0  0
  -26.4293  -37.3750   23.9402 N   0  0  0  0  0  0
  -24.6969  -31.0487   22.0955 N   0  0  0  0  0  0
  -23.4209  -28.8112   23.2986 O   0  0  0  0  0  0
  -28.3210  -26.3605   20.2236 O   0  0  0  0  0  0
  -26.5637  -34.8904   22.4642 O   0  0  0  0  0  0
  -23.5458  -32.1359   23.7274 O   0  0  0  0  0  0
  -29.4903  -19.7767   18.7135 C   0  0  0  0  0  0
  -29.4806  -18.5584   18.0193 C   0  0  0  0  0  0
  -29.6063  -19.8195   20.1151 C   0  0  0  0  0  0
  -29.7570  -18.5241   20.7945 C   0  0  0  0  0  0
  -29.7901  -17.2392   20.0835 C   0  0  0  0  0  0
  -29.6129  -17.3202   18.6737 C   0  0  0  0  0  0
  -27.4545  -22.6375   20.8805 C   0  0  0  0  0  0
  -26.6783  -21.6366   21.3339 C   0  0  0  0  0  0
  -27.1395  -24.1452   20.8984 C   0  0  0  0  0  0
  -29.3558  -23.8488   20.1672 C   0  0  0  0  0  0
  -28.1548  -24.8748   19.9908 C   0  0  2  0  0  0
  -29.9070  -18.5196   22.3075 C   0  0  0  0  0  0
  -29.6739  -21.2850   20.7659 C   0  0  0  0  0  0
  -29.8305  -15.8872   20.7243 N   0  0  0  0  0  0
  -28.7885  -22.4350   20.2319 N   0  3  1  0  0  0
  -29.4619  -15.9287   17.6662 Cl  0  0  0  0  0  0
  -31.4845  -12.5617   19.2098 H   0  0  0  0  0  0
  -30.3936  -11.4803   20.0245 H   0  0  0  0  0  0
  -29.8007  -11.6059   17.6112 H   0  0  0  0  0  0
  -29.6878  -13.3311   17.6738 H   0  0  0  0  0  0
  -27.8793  -11.2674   18.9425 H   0  0  0  0  0  0
  -27.4005  -12.4969   17.8051 H   0  0  0  0  0  0
  -27.6418  -14.2454   19.4563 H   0  0  0  0  0  0
  -28.7158  -12.1844   21.4450 H   0  0  0  0  0  0
  -28.4117  -13.8650   21.7936 H   0  0  0  0  0  0
  -25.2778   -9.5675   22.4759 H   0  0  0  0  0  0
  -24.0007   -7.4637   22.7465 H   0  0  0  0  0  0
  -21.0864   -8.8783   19.8940 H   0  0  0  0  0  0
  -22.3729  -10.9678   19.6159 H   0  0  0  0  0  0
  -21.2010   -7.6151   23.9720 H   0  0  0  0  0  0
  -21.1481   -6.0522   25.9077 H   0  0  0  0  0  0
  -22.0600   -2.7616   23.2837 H   0  0  0  0  0  0
  -22.4122  -11.9844   22.4777 H   0  0  0  0  0  0
  -21.1111  -13.1202   22.2643 H   0  0  0  0  0  0
  -24.6599  -15.8489   20.5139 H   0  0  0  0  0  0
  -26.2719  -15.6257   20.0650 H   0  0  0  0  0  0
  -26.7204  -32.5374   23.1049 H   0  0  0  0  0  0
  -25.0074  -33.9662   25.0360 H   0  0  0  0  0  0
  -22.7256  -31.2975   21.3922 H   0  0  0  0  0  0
  -23.3744  -35.9643   23.3300 H   0  0  0  0  0  0
  -24.3599  -36.8924   22.2058 H   0  0  0  0  0  0
  -23.7279  -37.6489   23.6686 H   0  0  0  0  0  0
  -26.1173  -31.5202   20.6124 H   0  0  0  0  0  0
  -26.8506  -30.8077   22.0164 H   0  0  0  0  0  0
  -28.1085  -28.9013   21.2422 H   0  0  0  0  0  0
  -25.9686  -25.9262   18.9494 H   0  0  0  0  0  0
  -23.9909  -27.3206   18.9582 H   0  0  0  0  0  0
  -23.7775  -30.5870   19.4013 H   0  0  0  0  0  0
  -22.7679  -29.2438   19.8466 H   0  0  0  0  0  0
  -25.1303  -36.1889   25.0807 H   0  0  0  0  0  0
  -20.9982  -28.3274   24.1368 H   0  0  0  0  0  0
  -20.5670  -26.2283   23.3612 H   0  0  0  0  0  0
  -21.6650  -26.7407   22.1187 H   0  0  0  0  0  0
  -19.6929  -25.6267   21.1224 H   0  0  0  0  0  0
  -19.6702  -27.3176   20.6727 H   0  0  0  0  0  0
  -17.4202  -26.6641   21.4014 H   0  0  0  0  0  0
  -18.0334  -26.0064   22.9007 H   0  0  0  0  0  0
  -19.7970  -30.7233   24.2229 H   0  0  0  0  0  0
  -17.5053  -31.6256   24.5139 H   0  0  0  0  0  0
  -15.5369  -30.2950   23.7680 H   0  0  0  0  0  0
  -15.8689  -28.0807   22.7046 H   0  0  0  0  0  0
  -24.5902  -30.7079   25.7775 H   0  0  0  0  0  0
  -24.8925  -32.2907   26.4842 H   0  0  0  0  0  0
  -25.8047  -30.8921   27.0228 H   0  0  0  0  0  0
  -26.2954  -29.6704   24.1268 H   0  0  0  0  0  0
  -27.4062  -29.7278   25.4741 H   0  0  0  0  0  0
  -27.8832  -30.4245   23.9461 H   0  0  0  0  0  0
  -27.2616  -33.3636   26.2042 H   0  0  0  0  0  0
  -28.3866  -32.6891   25.0351 H   0  0  0  0  0  0
  -28.0690  -31.8492   26.5446 H   0  0  0  0  0  0
  -28.2552  -38.0120   24.7491 H   0  0  0  0  0  0
  -28.1100  -36.2627   24.6285 H   0  0  0  0  0  0
  -27.2290  -37.1438   25.8862 H   0  0  0  0  0  0
  -20.9409  -29.8780   21.6871 H   0  0  0  0  0  0
  -26.0158  -38.2815   24.1419 H   0  0  0  0  0  0
  -29.4101  -20.6874   18.1374 H   0  0  0  0  0  0
  -29.3516  -18.5680   16.9467 H   0  0  0  0  0  0
  -25.7181  -21.8411   21.7858 H   0  0  0  0  0  0
  -26.9773  -20.6000   21.2682 H   0  0  0  0  0  0
  -27.2298  -24.5024   21.9239 H   0  0  0  0  0  0
  -26.1113  -24.3149   20.5828 H   0  0  0  0  0  0
  -29.8641  -24.0621   21.1088 H   0  0  0  0  0  0
  -30.0944  -23.9462   19.3716 H   0  0  0  0  0  0
  -27.8322  -24.7607   18.9547 H   0  0  0  0  0  0
  -30.8729  -18.9385   22.5921 H   0  0  0  0  0  0
  -29.8422  -17.5192   22.7340 H   0  0  0  0  0  0
  -29.1227  -19.1140   22.7749 H   0  0  0  0  0  0
  -30.7068  -21.6056   20.6218 H   0  0  0  0  0  0
  -29.5554  -21.2238   21.8467 H   0  0  0  0  0  0
  -28.9872  -15.6602   21.2287 H   0  0  0  0  0  0
  -28.6191  -22.1852   19.2694 H   0  0  0  0  0  0
  1 25  1  0  0  0
  1 30  2  0  0  0
  1 84  1  0  0  0
  2  3  1  0  0  0
  2 25  1  0  0  0
  2 87  1  0  0  0
  2 88  1  0  0  0
  3  4  1  0  0  0
  3 89  1  0  0  0
  3 90  1  0  0  0
  4  5  1  0  0  0
  4 91  1  0  0  0
  4 92  1  0  0  0
  5  6  1  0  0  0
  5 26  1  0  0  0
  5 93  1  0  0  0
  6 25  1  0  0  0
  6 94  1  0  0  0
  6 95  1  0  0  0
  7  8  2  0  0  0
  7 26  1  0  0  0
  7 29  1  0  0  0
  8  9  1  0  0  0
  8 22  1  0  0  0
  9 10  1  0  0  0
  9 27  2  0  0  0
 10 11  2  0  0  0
 10 15  1  0  0  0
 11 12  1  0  0  0
 11 96  1  0  0  0
 12 13  2  0  0  0
 12 97  1  0  0  0
 13 14  1  0  0  0
 13 31  1  0  0  0
 14 15  2  0  0  0
 14 98  1  0  0  0
 15 99  1  0  0  0
 16 17  2  0  0  0
 16 21  1  0  0  0
 16 31  1  0  0  0
 17 18  1  0  0  0
 17100  1  0  0  0
 18 19  2  0  0  0
 18101  1  0  0  0
 19 20  1  0  0  0
 19 24  1  0  0  0
 20 21  2  0  0  0
 20102  1  0  0  0
 21 23  1  0  0  0
 22 28  1  0  0  0
 22 32  2  0  0  0
 26 27  1  0  0  0
 28103  1  0  0  0
 28104  1  0  0  0
 29105  1  0  0  0
 29106  1  0  0  0
 33 34  1  0  0  0
 33 66  1  0  0  0
 33 70  2  0  0  0
 34 36  1  0  0  0
 34 59  1  0  0  0
 34107  1  0  0  0
 35 44  2  0  0  0
 35 45  1  0  0  0
 35 68  1  0  0  0
 36 56  1  0  0  0
 36108  1  0  0  0
 37 39  1  0  0  0
 37 47  1  0  0  0
 37 66  1  0  0  0
 37109  1  0  0  0
 38 43  2  0  0  0
 38 46  1  0  0  0
 38 47  1  0  0  0
 39 64  1  0  0  0
 39 67  2  0  0  0
 40 52  1  0  0  0
 40 53  2  0  0  0
 40 58  1  0  0  0
 41110  1  0  0  0
 41111  1  0  0  0
 41112  1  0  0  0
 41 48  1  0  0  0
 42 43  1  0  0  0
 42 66  1  0  0  0
 42113  1  0  0  0
 42114  1  0  0  0
 43 44  1  0  0  0
 44115  1  0  0  0
 45 46  2  0  0  0
 45116  1  0  0  0
 46117  1  0  0  0
 47118  1  0  0  0
 47119  1  0  0  0
 48 56  1  0  0  0
 48 65  1  0  0  0
 48120  1  0  0  0
 49 50  1  0  0  0
 49 53  1  0  0  0
 49 64  1  0  0  0
 49121  1  0  0  0
 50 51  1  0  0  0
 50122  1  0  0  0
 50123  1  0  0  0
 51 52  1  0  0  0
 51124  1  0  0  0
 51125  1  0  0  0
 52126  1  0  0  0
 52127  1  0  0  0
 53 54  1  0  0  0
 54 55  2  0  0  0
 54128  1  0  0  0
 55 57  1  0  0  0
 55129  1  0  0  0
 56 69  2  0  0  0
 57 58  2  0  0  0
 57130  1  0  0  0
 58131  1  0  0  0
 59 60  1  0  0  0
 59 61  1  0  0  0
 59 62  1  0  0  0
 60132  1  0  0  0
 60133  1  0  0  0
 60134  1  0  0  0
 61135  1  0  0  0
 61136  1  0  0  0
 61137  1  0  0  0
 62138  1  0  0  0
 62139  1  0  0  0
 62140  1  0  0  0
 63 65  1  0  0  0
 63141  1  0  0  0
 63142  1  0  0  0
 63143  1  0  0  0
 64144  1  0  0  0
 65145  1  0  0  0
 68 81  1  0  0  0
 71 72  2  0  0  0
 71 73  1  0  0  0
 71146  1  0  0  0
 72 76  1  0  0  0
 72147  1  0  0  0
 73 74  2  0  0  0
 73 83  1  0  0  0
 74 75  1  0  0  0
 74 82  1  0  0  0
 75 76  2  0  0  0
 75 84  1  0  0  0
 76 86  1  0  0  0
 77 78  2  0  0  0
 77 79  1  0  0  0
 77 85  1  0  0  0
 78148  1  0  0  0
 78149  1  0  0  0
 79 81  1  0  0  0
 79150  1  0  0  0
 79151  1  0  0  0
 80 81  1  0  0  0
 80 85  1  0  0  0
 80152  1  0  0  0
 80153  1  0  0  0
 81154  1  0  0  0
 82155  1  0  0  0
 82156  1  0  0  0
 82157  1  0  0  0
 83158  1  0  0  0
 83159  1  0  0  0
 83 85  1  0  0  0
 84160  1  0  0  0
 85161  1  0  0  0
M  CHG  1  85   1
M  ISO  4   1 100  68 101  81 101  84 100
M  END
> <chiral flag>
0

> <version>
0

> <s_m_source_file>
/data/baiqing/PycharmProjects/Reinvent-master-3.2/result/LINK_invent/BTK/process_docking_weight1_custom_product_contain_oxygen_bond_distance_aromatic_linkinvent_7_9_3/rearranged_h_0035.sdf

> <i_m_source_file_index>
37

> <r_mmod_Potential_Energy-OPLS-2005>
89.9182205200195

> <r_mmod_Stretch_Energy-OPLS-2005>
130.045364379883

> <r_mmod_Bend_Energy-OPLS-2005>
200.217971801758

> <r_mmod_Torsional_Energy-OPLS-2005>
260.317565917969

> <r_mmod_Improper_Torsional_Energy-OPLS-2005>
5.29312419891357

> <r_mmod_Van_der_Waal_Energy-OPLS-2005>
132.081695556641

> <r_mmod_Electrostatic_Energy-OPLS-2005>
-282.398071289062

> <r_mmod_Solvation_Energy-OPLS-2005>
-450.521362304688

> <b_mmod_Minimization_Converged-OPLS-2005>
0

> <r_mmod_RMS_Derivative-OPLS-2005>
1.75553739070892

$$$$
38
                    3D
 Structure written by MMmdl.
169178  0  0  1  0            999 V2000
  -30.5767  -14.7556   20.4052 C   0  0  0  0  0  0
  -30.4408  -12.4287   19.5024 C   0  0  0  0  0  0
  -29.5226  -12.4104   18.2599 C   0  0  0  0  0  0
  -28.0327  -12.3195   18.6528 C   0  0  0  0  0  0
  -27.6429  -13.2231   19.8558 C   0  0  2  0  0  0
  -28.6866  -13.1546   20.9893 C   0  0  0  0  0  0
  -25.2506  -13.8188   20.5708 C   0  0  0  0  0  0
  -24.1786  -13.0445   20.9215 C   0  0  0  0  0  0
  -24.6361  -11.6923   20.8752 C   0  0  0  0  0  0
  -23.9025  -10.4311   21.0405 C   0  0  0  0  0  0
  -24.3591   -9.4236   21.9183 C   0  0  0  0  0  0
  -23.6286   -8.2259   22.0746 C   0  0  0  0  0  0
  -22.4270   -8.0286   21.3530 C   0  0  0  0  0  0
  -21.9891   -9.0254   20.4635 C   0  0  0  0  0  0
  -22.7198  -10.2147   20.3048 C   0  0  0  0  0  0
  -21.6849   -6.0744   22.5276 C   0  0  0  0  0  0
  -21.4010   -6.5642   23.8215 C   0  0  0  0  0  0
  -21.3667   -5.6796   24.9170 C   0  0  0  0  0  0
  -21.6051   -4.3059   24.7224 C   0  0  0  0  0  0
  -21.8815   -3.8156   23.4339 C   0  0  0  0  0  0
  -21.9188   -4.6971   22.3396 C   0  0  0  0  0  0
  -22.7809  -13.5225   21.1885 C   0  0  0  0  0  0
  -22.1639   -4.2156   21.0972 F   0  0  0  0  0  0
  -21.5649   -3.4544   25.7739 F   0  0  0  0  0  0
  -29.9860  -13.5105   20.4054 N   0  0  0  0  0  0
  -26.2934  -12.9377   20.3325 N   0  0  0  0  0  0
  -25.9297  -11.6535   20.5805 N   0  0  0  0  0  0
  -22.0466  -12.8197   22.0436 N   0  0  0  0  0  0
  -25.4205  -15.1912   20.4138 N   0  0  0  0  0  0
  -31.7686  -14.8737   20.1074 O   0  0  0  0  0  0
  -21.6636   -6.8878   21.4237 O   0  0  0  0  0  0
  -22.3499  -14.5540   20.6746 O   0  0  0  0  0  0
  -24.6317  -31.8555   23.1985 C   0  0  0  0  0  0
  -25.9147  -32.4756   23.8329 C   0  0  1  0  0  0
  -27.2230  -27.2653   20.1161 C   0  0  0  0  0  0
  -25.5945  -33.8560   24.2252 N   0  0  0  0  0  0
  -23.4273  -30.4790   21.5422 C   0  0  2  0  0  0
  -24.8720  -28.9272   20.1083 C   0  0  0  0  0  0
  -22.7509  -29.4601   22.4912 C   0  0  0  0  0  0
  -18.0299  -28.1399   22.8487 C   0  0  0  0  0  0
  -24.1486  -36.7283   23.2644 C   0  0  0  0  0  0
  -25.9726  -30.7688   21.3765 C   0  0  0  0  0  0
  -26.0423  -29.3918   20.7177 C   0  0  0  0  0  0
  -27.2154  -28.5725   20.7118 C   0  0  0  0  0  0
  -26.0204  -26.8646   19.4853 C   0  0  0  0  0  0
  -24.8665  -27.6722   19.4831 C   0  0  0  0  0  0
  -23.6436  -29.8150   20.1570 C   0  0  0  0  0  0
  -25.4112  -36.3068   24.0326 C   0  0  1  0  0  0
  -20.5902  -28.3704   23.1273 C   0  0  2  0  0  0
  -20.6789  -26.9423   22.5404 C   0  0  0  0  0  0
  -19.5757  -26.6386   21.5222 C   0  0  0  0  0  0
  -18.1937  -26.7942   22.1629 C   0  0  0  0  0  0
  -19.1551  -28.8870   23.2874 C   0  0  0  0  0  0
  -18.9475  -30.1476   23.8891 C   0  0  0  0  0  0
  -17.6471  -30.6599   24.0567 C   0  0  0  0  0  0
  -25.9055  -34.9443   23.5086 C   0  0  0  0  0  0
  -16.5365  -29.9094   23.6340 C   0  0  0  0  0  0
  -16.7285  -28.6516   23.0352 C   0  0  0  0  0  0
  -26.4515  -31.6595   25.0728 C   0  0  0  0  0  0
  -25.3734  -31.3739   26.1442 C   0  0  0  0  0  0
  -27.0384  -30.3026   24.6212 C   0  0  0  0  0  0
  -27.6059  -32.4356   25.7505 C   0  0  0  0  0  0
  -27.5571  -37.1796   24.8469 C   0  0  0  0  0  0
  -21.4214  -29.3054   22.3666 N   0  0  0  0  0  0
  -26.4281  -37.3766   23.9417 N   0  0  0  0  0  0
  -24.6968  -31.0521   22.0960 N   0  0  0  0  0  0
  -23.4216  -28.8139   23.3001 O   0  0  0  0  0  0
  -28.3521  -26.4149   20.2002 O   0  0  0  0  0  0
  -26.5618  -34.8920   22.4650 O   0  0  0  0  0  0
  -23.5472  -32.1368   23.7286 O   0  0  0  0  0  0
  -29.5181  -18.4414   20.5808 C   0  0  0  0  0  0
  -28.9215  -19.6586   20.0489 C   0  0  0  0  0  0
  -28.1297  -19.4825   18.8832 C   0  0  0  0  0  0
  -28.2416  -18.2894   18.1164 C   0  0  0  0  0  0
  -29.0810  -17.2053   18.5294 C   0  0  0  0  0  0
  -29.5511  -17.1613   19.8866 C   0  0  0  0  0  0
  -29.7924  -23.6600   17.9756 C   0  0  0  0  0  0
  -29.5902  -25.0296   18.6582 C   0  0  0  0  0  0
  -30.0507  -22.5208   18.9861 C   0  0  0  0  0  0
  -28.6573  -23.7412   20.6392 C   0  0  0  0  0  0
  -28.4253  -25.0106   19.6627 C   0  0  1  0  0  0
  -27.1341  -20.5636   18.4482 C   0  0  0  0  0  0
  -27.4054  -18.1800   16.8326 C   0  0  0  0  0  0
  -28.9870  -21.0896   20.7738 C   0  0  0  0  0  0
  -29.4212  -16.1272   17.4850 C   0  0  0  0  0  0
  -29.7620  -15.8638   20.6107 N   0  0  0  0  0  0
  -28.9215  -22.3898   19.9407 N   0  3  2  0  0  0
  -29.6356  -16.6662   16.2832 F   0  0  0  0  0  0
  -30.5552  -15.4917   17.7369 F   0  0  0  0  0  0
  -28.4218  -15.2528   17.3902 F   0  0  0  0  0  0
  -31.4813  -12.5562   19.2003 H   0  0  0  0  0  0
  -30.3976  -11.4693   20.0210 H   0  0  0  0  0  0
  -29.7815  -11.5597   17.6290 H   0  0  0  0  0  0
  -29.7063  -13.2806   17.6411 H   0  0  0  0  0  0
  -27.8374  -11.2766   18.9042 H   0  0  0  0  0  0
  -27.3998  -12.5437   17.7926 H   0  0  0  0  0  0
  -27.6380  -14.2463   19.4873 H   0  0  0  0  0  0
  -28.7217  -12.1542   21.4233 H   0  0  0  0  0  0
  -28.4213  -13.8278   21.8054 H   0  0  0  0  0  0
  -25.2725   -9.5740   22.4765 H   0  0  0  0  0  0
  -24.0023   -7.4640   22.7427 H   0  0  0  0  0  0
  -21.0843   -8.8735   19.8919 H   0  0  0  0  0  0
  -22.3625  -10.9682   19.6163 H   0  0  0  0  0  0
  -21.1986   -7.6146   23.9720 H   0  0  0  0  0  0
  -21.1491   -6.0519   25.9070 H   0  0  0  0  0  0
  -22.0587   -2.7620   23.2832 H   0  0  0  0  0  0
  -22.4084  -11.9839   22.4785 H   0  0  0  0  0  0
  -21.1095  -13.1227   22.2683 H   0  0  0  0  0  0
  -24.6511  -15.8416   20.5286 H   0  0  0  0  0  0
  -26.2598  -15.6327   20.0645 H   0  0  0  0  0  0
  -26.7215  -32.5400   23.1071 H   0  0  0  0  0  0
  -25.0126  -33.9701   25.0420 H   0  0  0  0  0  0
  -22.7243  -31.3021   21.3978 H   0  0  0  0  0  0
  -23.3749  -35.9610   23.3292 H   0  0  0  0  0  0
  -24.3576  -36.8914   22.2060 H   0  0  0  0  0  0
  -23.7233  -37.6479   23.6674 H   0  0  0  0  0  0
  -26.1102  -31.5290   20.6061 H   0  0  0  0  0  0
  -26.8525  -30.8176   22.0068 H   0  0  0  0  0  0
  -28.1126  -28.9257   21.2008 H   0  0  0  0  0  0
  -25.9079  -25.9111   18.9982 H   0  0  0  0  0  0
  -23.9681  -27.3098   19.0028 H   0  0  0  0  0  0
  -23.7692  -30.5941   19.4040 H   0  0  0  0  0  0
  -22.7610  -29.2511   19.8496 H   0  0  0  0  0  0
  -25.1292  -36.1901   25.0814 H   0  0  0  0  0  0
  -20.9998  -28.3277   24.1391 H   0  0  0  0  0  0
  -20.5723  -26.2313   23.3607 H   0  0  0  0  0  0
  -21.6648  -26.7467   22.1170 H   0  0  0  0  0  0
  -19.6915  -25.6293   21.1263 H   0  0  0  0  0  0
  -19.6694  -27.3193   20.6749 H   0  0  0  0  0  0
  -17.4207  -26.6712   21.4026 H   0  0  0  0  0  0
  -18.0319  -26.0084   22.9024 H   0  0  0  0  0  0
  -19.7946  -30.7308   24.2239 H   0  0  0  0  0  0
  -17.5021  -31.6278   24.5168 H   0  0  0  0  0  0
  -15.5363  -30.2997   23.7670 H   0  0  0  0  0  0
  -15.8681  -28.0845   22.7054 H   0  0  0  0  0  0
  -24.5903  -30.7102   25.7753 H   0  0  0  0  0  0
  -24.8940  -32.2911   26.4875 H   0  0  0  0  0  0
  -25.8041  -30.8899   27.0216 H   0  0  0  0  0  0
  -26.2977  -29.6760   24.1233 H   0  0  0  0  0  0
  -27.4084  -29.7299   25.4725 H   0  0  0  0  0  0
  -27.8834  -30.4329   23.9447 H   0  0  0  0  0  0
  -27.2653  -33.3659   26.2059 H   0  0  0  0  0  0
  -28.3875  -32.6917   25.0341 H   0  0  0  0  0  0
  -28.0724  -31.8507   26.5440 H   0  0  0  0  0  0
  -28.2575  -38.0105   24.7518 H   0  0  0  0  0  0
  -28.1078  -36.2635   24.6285 H   0  0  0  0  0  0
  -27.2294  -37.1424   25.8874 H   0  0  0  0  0  0
  -20.9400  -29.8788   21.6881 H   0  0  0  0  0  0
  -26.0156  -38.2832   24.1427 H   0  0  0  0  0  0
  -29.9334  -18.4830   21.5777 H   0  0  0  0  0  0
  -30.6313  -23.7220   17.2819 H   0  0  0  0  0  0
  -28.9200  -23.4206   17.3658 H   0  0  0  0  0  0
  -29.4066  -25.7930   17.9010 H   0  0  0  0  0  0
  -30.5078  -25.3236   19.1703 H   0  0  0  0  0  0
  -30.9761  -22.7034   19.5351 H   0  0  0  0  0  0
  -30.1962  -21.5856   18.4435 H   0  0  0  0  0  0
  -27.7924  -23.6380   21.2940 H   0  0  0  0  0  0
  -29.5059  -23.9515   21.2913 H   0  0  0  0  0  0
  -27.5454  -24.7686   19.0777 H   0  0  0  0  0  0
  -26.7901  -21.1678   19.2856 H   0  0  0  0  0  0
  -26.2091  -20.1494   18.0549 H   0  0  0  0  0  0
  -27.5604  -21.2098   17.6806 H   0  0  0  0  0  0
  -26.3465  -18.3328   17.0336 H   0  0  0  0  0  0
  -27.4222  -17.2052   16.3547 H   0  0  0  0  0  0
  -27.7311  -18.9168   16.0977 H   0  0  0  0  0  0
  -29.8957  -21.1223   21.3755 H   0  0  0  0  0  0
  -28.1645  -21.1141   21.4891 H   0  0  0  0  0  0
  -28.9386  -15.5915   21.1264 H   0  0  0  0  0  0
  -28.1086  -22.2343   19.3628 H   0  0  0  0  0  0
  1 25  1  0  0  0
  1 30  2  0  0  0
  1 86  1  0  0  0
  2  3  1  0  0  0
  2 25  1  0  0  0
  2 91  1  0  0  0
  2 92  1  0  0  0
  3  4  1  0  0  0
  3 93  1  0  0  0
  3 94  1  0  0  0
  4  5  1  0  0  0
  4 95  1  0  0  0
  4 96  1  0  0  0
  5  6  1  0  0  0
  5 26  1  0  0  0
  5 97  1  0  0  0
  6 25  1  0  0  0
  6 98  1  0  0  0
  6 99  1  0  0  0
  7  8  2  0  0  0
  7 26  1  0  0  0
  7 29  1  0  0  0
  8  9  1  0  0  0
  8 22  1  0  0  0
  9 10  1  0  0  0
  9 27  2  0  0  0
 10 11  2  0  0  0
 10 15  1  0  0  0
 11 12  1  0  0  0
 11100  1  0  0  0
 12 13  2  0  0  0
 12101  1  0  0  0
 13 14  1  0  0  0
 13 31  1  0  0  0
 14 15  2  0  0  0
 14102  1  0  0  0
 15103  1  0  0  0
 16 17  2  0  0  0
 16 21  1  0  0  0
 16 31  1  0  0  0
 17 18  1  0  0  0
 17104  1  0  0  0
 18 19  2  0  0  0
 18105  1  0  0  0
 19 20  1  0  0  0
 19 24  1  0  0  0
 20 21  2  0  0  0
 20106  1  0  0  0
 21 23  1  0  0  0
 22 28  1  0  0  0
 22 32  2  0  0  0
 26 27  1  0  0  0
 28107  1  0  0  0
 28108  1  0  0  0
 29109  1  0  0  0
 29110  1  0  0  0
 33 34  1  0  0  0
 33 66  1  0  0  0
 33 70  2  0  0  0
 34 36  1  0  0  0
 34 59  1  0  0  0
 34111  1  0  0  0
 35 44  2  0  0  0
 35 45  1  0  0  0
 35 68  1  0  0  0
 36 56  1  0  0  0
 36112  1  0  0  0
 37 39  1  0  0  0
 37 47  1  0  0  0
 37 66  1  0  0  0
 37113  1  0  0  0
 38 43  2  0  0  0
 38 46  1  0  0  0
 38 47  1  0  0  0
 39 64  1  0  0  0
 39 67  2  0  0  0
 40 52  1  0  0  0
 40 53  2  0  0  0
 40 58  1  0  0  0
 41114  1  0  0  0
 41115  1  0  0  0
 41116  1  0  0  0
 41 48  1  0  0  0
 42 43  1  0  0  0
 42 66  1  0  0  0
 42117  1  0  0  0
 42118  1  0  0  0
 43 44  1  0  0  0
 44119  1  0  0  0
 45 46  2  0  0  0
 45120  1  0  0  0
 46121  1  0  0  0
 47122  1  0  0  0
 47123  1  0  0  0
 48 56  1  0  0  0
 48 65  1  0  0  0
 48124  1  0  0  0
 49 50  1  0  0  0
 49 53  1  0  0  0
 49 64  1  0  0  0
 49125  1  0  0  0
 50 51  1  0  0  0
 50126  1  0  0  0
 50127  1  0  0  0
 51 52  1  0  0  0
 51128  1  0  0  0
 51129  1  0  0  0
 52130  1  0  0  0
 52131  1  0  0  0
 53 54  1  0  0  0
 54 55  2  0  0  0
 54132  1  0  0  0
 55 57  1  0  0  0
 55133  1  0  0  0
 56 69  2  0  0  0
 57 58  2  0  0  0
 57134  1  0  0  0
 58135  1  0  0  0
 59 60  1  0  0  0
 59 61  1  0  0  0
 59 62  1  0  0  0
 60136  1  0  0  0
 60137  1  0  0  0
 60138  1  0  0  0
 61139  1  0  0  0
 61140  1  0  0  0
 61141  1  0  0  0
 62142  1  0  0  0
 62143  1  0  0  0
 62144  1  0  0  0
 63 65  1  0  0  0
 63145  1  0  0  0
 63146  1  0  0  0
 63147  1  0  0  0
 64148  1  0  0  0
 65149  1  0  0  0
 68 81  1  0  0  0
 71 72  2  0  0  0
 71 76  1  0  0  0
 71150  1  0  0  0
 72 73  1  0  0  0
 72 84  1  0  0  0
 73 74  2  0  0  0
 73 82  1  0  0  0
 74 75  1  0  0  0
 74 83  1  0  0  0
 75 76  2  0  0  0
 75 85  1  0  0  0
 76 86  1  0  0  0
 77 78  1  0  0  0
 77 79  1  0  0  0
 77151  1  0  0  0
 77152  1  0  0  0
 78 81  1  0  0  0
 78153  1  0  0  0
 78154  1  0  0  0
 79 87  1  0  0  0
 79155  1  0  0  0
 79156  1  0  0  0
 80 81  1  0  0  0
 80 87  1  0  0  0
 80157  1  0  0  0
 80158  1  0  0  0
 81159  1  0  0  0
 82160  1  0  0  0
 82161  1  0  0  0
 82162  1  0  0  0
 83163  1  0  0  0
 83164  1  0  0  0
 83165  1  0  0  0
 84166  1  0  0  0
 84167  1  0  0  0
 84 87  1  0  0  0
 85 88  1  0  0  0
 85 89  1  0  0  0
 85 90  1  0  0  0
 86168  1  0  0  0
 87169  1  0  0  0
M  CHG  1  87   1
M  ISO  4   1 100  68 101  81 101  86 100
M  END
> <chiral flag>
0

> <version>
0

> <s_m_source_file>
/data/baiqing/PycharmProjects/Reinvent-master-3.2/result/LINK_invent/BTK/process_docking_weight1_custom_product_contain_oxygen_bond_distance_aromatic_linkinvent_7_9_3/rearranged_h_0035.sdf

> <i_m_source_file_index>
38

> <r_mmod_Potential_Energy-OPLS-2005>
305.11279296875

> <r_mmod_Stretch_Energy-OPLS-2005>
136.282333374023

> <r_mmod_Bend_Energy-OPLS-2005>
186.142532348633

> <r_mmod_Torsional_Energy-OPLS-2005>
327.343048095703

> <r_mmod_Improper_Torsional_Energy-OPLS-2005>
7.24055862426758

> <r_mmod_Van_der_Waal_Energy-OPLS-2005>
164.073089599609

> <r_mmod_Electrostatic_Energy-OPLS-2005>
-161.31510925293

> <r_mmod_Solvation_Energy-OPLS-2005>
-442.430450439453

> <b_mmod_Minimization_Converged-OPLS-2005>
0

> <r_mmod_RMS_Derivative-OPLS-2005>
1.48972010612488

$$$$
39
                    3D
 Structure written by MMmdl.
156164  0  0  1  0            999 V2000
  -30.6284  -14.6262   20.5053 C   0  0  0  0  0  0
  -30.4405  -12.3873   19.4444 C   0  0  0  0  0  0
  -29.5063  -12.5098   18.2199 C   0  0  0  0  0  0
  -28.0293  -12.3465   18.6320 C   0  0  0  0  0  0
  -27.6542  -13.2123   19.8636 C   0  0  2  0  0  0
  -28.7011  -13.0605   20.9907 C   0  0  0  0  0  0
  -25.2559  -13.8153   20.5683 C   0  0  0  0  0  0
  -24.1823  -13.0418   20.9175 C   0  0  0  0  0  0
  -24.6396  -11.6889   20.8725 C   0  0  0  0  0  0
  -23.9064  -10.4276   21.0402 C   0  0  0  0  0  0
  -24.3616   -9.4188   21.9183 C   0  0  0  0  0  0
  -23.6280   -8.2232   22.0756 C   0  0  0  0  0  0
  -22.4265   -8.0276   21.3548 C   0  0  0  0  0  0
  -21.9900   -9.0249   20.4650 C   0  0  0  0  0  0
  -22.7236  -10.2123   20.3055 C   0  0  0  0  0  0
  -21.6848   -6.0723   22.5279 C   0  0  0  0  0  0
  -21.4011   -6.5627   23.8214 C   0  0  0  0  0  0
  -21.3660   -5.6782   24.9176 C   0  0  0  0  0  0
  -21.6050   -4.3045   24.7227 C   0  0  0  0  0  0
  -21.8818   -3.8136   23.4350 C   0  0  0  0  0  0
  -21.9186   -4.6951   22.3403 C   0  0  0  0  0  0
  -22.7848  -13.5221   21.1839 C   0  0  0  0  0  0
  -22.1657   -4.2134   21.0980 F   0  0  0  0  0  0
  -21.5629   -3.4530   25.7743 F   0  0  0  0  0  0
  -30.0177  -13.4023   20.4281 N   0  0  0  0  0  0
  -26.2992  -12.9336   20.3321 N   0  0  0  0  0  0
  -25.9324  -11.6492   20.5744 N   0  0  0  0  0  0
  -22.0487  -12.8228   22.0403 N   0  0  0  0  0  0
  -25.4244  -15.1879   20.4138 N   0  0  0  0  0  0
  -31.7909  -14.7957   20.1267 O   0  0  0  0  0  0
  -21.6629   -6.8872   21.4245 O   0  0  0  0  0  0
  -22.3536  -14.5524   20.6678 O   0  0  0  0  0  0
  -24.6264  -31.8606   23.2027 C   0  0  0  0  0  0
  -25.9115  -32.4779   23.8355 C   0  0  1  0  0  0
  -27.2242  -27.3263   20.1105 C   0  0  0  0  0  0
  -25.5931  -33.8578   24.2282 N   0  0  0  0  0  0
  -23.4191  -30.4855   21.5458 C   0  0  2  0  0  0
  -24.8643  -28.9448   20.1094 C   0  0  0  0  0  0
  -22.7476  -29.4632   22.4935 C   0  0  0  0  0  0
  -18.0284  -28.1388   22.8481 C   0  0  0  0  0  0
  -24.1488  -36.7298   23.2639 C   0  0  0  0  0  0
  -25.9603  -30.7943   21.3721 C   0  0  0  0  0  0
  -26.0340  -29.4231   20.7127 C   0  0  0  0  0  0
  -27.2174  -28.6270   20.7013 C   0  0  0  0  0  0
  -26.0277  -26.9009   19.4846 C   0  0  0  0  0  0
  -24.8637  -27.6900   19.4847 C   0  0  0  0  0  0
  -23.6319  -29.8234   20.1600 C   0  0  0  0  0  0
  -25.4111  -36.3083   24.0329 C   0  0  1  0  0  0
  -20.5886  -28.3690   23.1283 C   0  0  2  0  0  0
  -20.6772  -26.9413   22.5408 C   0  0  0  0  0  0
  -19.5751  -26.6388   21.5206 C   0  0  0  0  0  0
  -18.1930  -26.7932   22.1619 C   0  0  0  0  0  0
  -19.1536  -28.8856   23.2878 C   0  0  0  0  0  0
  -18.9460  -30.1455   23.8898 C   0  0  0  0  0  0
  -17.6459  -30.6587   24.0565 C   0  0  0  0  0  0
  -25.9048  -34.9450   23.5105 C   0  0  0  0  0  0
  -16.5351  -29.9087   23.6326 C   0  0  0  0  0  0
  -16.7271  -28.6506   23.0345 C   0  0  0  0  0  0
  -26.4503  -31.6586   25.0722 C   0  0  0  0  0  0
  -25.3746  -31.3718   26.1456 C   0  0  0  0  0  0
  -27.0344  -30.3012   24.6169 C   0  0  0  0  0  0
  -27.6065  -32.4321   25.7492 C   0  0  0  0  0  0
  -27.5579  -37.1802   24.8463 C   0  0  0  0  0  0
  -21.4188  -29.3045   22.3679 N   0  0  0  0  0  0
  -26.4291  -37.3775   23.9408 N   0  0  0  0  0  0
  -24.6877  -31.0631   22.0969 N   0  0  0  0  0  0
  -23.4201  -28.8164   23.3007 O   0  0  0  0  0  0
  -28.3479  -26.4850   20.1544 O   0  0  0  0  0  0
  -26.5612  -34.8920   22.4668 O   0  0  0  0  0  0
  -23.5433  -32.1402   23.7359 O   0  0  0  0  0  0
  -29.3031  -19.2165   19.5140 C   0  0  0  0  0  0
  -30.6383  -17.9226   21.5997 C   0  0  0  0  0  0
  -29.2741  -17.7916   19.6160 C   0  0  0  0  0  0
  -29.9931  -20.0375   20.4441 C   0  0  0  0  0  0
  -29.9600  -17.1061   20.6595 C   0  0  0  0  0  0
  -30.6580  -19.3461   21.5011 C   0  0  0  0  0  0
  -28.4942  -17.0077   18.5754 C   0  0  0  0  0  0
  -30.1624  -21.5879   20.2020 C   0  0  0  0  0  0
  -29.3361  -24.0319   20.3161 C   0  0  0  0  0  0
  -28.1176  -25.0228   20.0979 C   0  0  0  0  0  0
  -29.8146  -15.6675   20.8563 N   0  0  0  0  0  0
  -29.0064  -22.5428   20.3976 N   0  3  0  0  0  0
  -31.5379  -20.2186   22.7067 Cl  0  0  0  0  0  0
  -31.4808  -12.5153   19.1400 H   0  0  0  0  0  0
  -30.3779  -11.3891   19.8797 H   0  0  0  0  0  0
  -29.7677  -11.7642   17.4677 H   0  0  0  0  0  0
  -29.6468  -13.4826   17.7460 H   0  0  0  0  0  0
  -27.8644  -11.2921   18.8568 H   0  0  0  0  0  0
  -27.3763  -12.5830   17.7912 H   0  0  0  0  0  0
  -27.6715  -14.2474   19.5252 H   0  0  0  0  0  0
  -28.7100  -12.0363   21.3667 H   0  0  0  0  0  0
  -28.4493  -13.6872   21.8473 H   0  0  0  0  0  0
  -25.2768   -9.5642   22.4745 H   0  0  0  0  0  0
  -23.9978   -7.4617   22.7476 H   0  0  0  0  0  0
  -21.0828   -8.8781   19.8955 H   0  0  0  0  0  0
  -22.3715  -10.9660   19.6153 H   0  0  0  0  0  0
  -21.2009   -7.6137   23.9716 H   0  0  0  0  0  0
  -21.1486   -6.0512   25.9080 H   0  0  0  0  0  0
  -22.0597   -2.7595   23.2861 H   0  0  0  0  0  0
  -22.4097  -11.9892   22.4804 H   0  0  0  0  0  0
  -21.1110  -13.1268   22.2610 H   0  0  0  0  0  0
  -24.6557  -15.8388   20.5335 H   0  0  0  0  0  0
  -26.2747  -15.6348   20.1000 H   0  0  0  0  0  0
  -26.7185  -32.5453   23.1108 H   0  0  0  0  0  0
  -25.0080  -33.9723   25.0428 H   0  0  0  0  0  0
  -22.7128  -31.3060   21.4049 H   0  0  0  0  0  0
  -23.3743  -35.9638   23.3303 H   0  0  0  0  0  0
  -24.3580  -36.8916   22.2053 H   0  0  0  0  0  0
  -23.7249  -37.6505   23.6658 H   0  0  0  0  0  0
  -26.0924  -31.5590   20.6052 H   0  0  0  0  0  0
  -26.8411  -30.8413   22.0012 H   0  0  0  0  0  0
  -28.1156  -28.9920   21.1791 H   0  0  0  0  0  0
  -25.9533  -25.9474   18.9858 H   0  0  0  0  0  0
  -23.9692  -27.3219   19.0005 H   0  0  0  0  0  0
  -23.7482  -30.6015   19.4047 H   0  0  0  0  0  0
  -22.7523  -29.2524   19.8577 H   0  0  0  0  0  0
  -25.1290  -36.1936   25.0821 H   0  0  0  0  0  0
  -20.9974  -28.3260   24.1406 H   0  0  0  0  0  0
  -20.5662  -26.2298   23.3604 H   0  0  0  0  0  0
  -21.6643  -26.7437   22.1210 H   0  0  0  0  0  0
  -19.6913  -25.6298   21.1235 H   0  0  0  0  0  0
  -19.6693  -27.3197   20.6735 H   0  0  0  0  0  0
  -17.4196  -26.6669   21.4025 H   0  0  0  0  0  0
  -18.0338  -26.0077   22.9020 H   0  0  0  0  0  0
  -19.7933  -30.7271   24.2272 H   0  0  0  0  0  0
  -17.5012  -31.6265   24.5169 H   0  0  0  0  0  0
  -15.5351  -30.2990   23.7653 H   0  0  0  0  0  0
  -15.8669  -28.0829   22.7059 H   0  0  0  0  0  0
  -24.5919  -30.7067   25.7790 H   0  0  0  0  0  0
  -24.8944  -32.2881   26.4897 H   0  0  0  0  0  0
  -25.8086  -30.8889   27.0220 H   0  0  0  0  0  0
  -26.2911  -29.6758   24.1210 H   0  0  0  0  0  0
  -27.4064  -29.7272   25.4667 H   0  0  0  0  0  0
  -27.8772  -30.4300   23.9375 H   0  0  0  0  0  0
  -27.2672  -33.3613   26.2081 H   0  0  0  0  0  0
  -28.3867  -32.6893   25.0316 H   0  0  0  0  0  0
  -28.0742  -31.8440   26.5399 H   0  0  0  0  0  0
  -28.2596  -38.0099   24.7501 H   0  0  0  0  0  0
  -28.1075  -36.2629   24.6294 H   0  0  0  0  0  0
  -27.2299  -37.1455   25.8868 H   0  0  0  0  0  0
  -20.9360  -29.8785   21.6910 H   0  0  0  0  0  0
  -26.0172  -38.2853   24.1403 H   0  0  0  0  0  0
  -28.8004  -19.6916   18.6831 H   0  0  0  0  0  0
  -31.1466  -17.4557   22.4310 H   0  0  0  0  0  0
  -28.2974  -17.6136   17.6905 H   0  0  0  0  0  0
  -27.5349  -16.6899   18.9816 H   0  0  0  0  0  0
  -29.0455  -16.1244   18.2521 H   0  0  0  0  0  0
  -30.5001  -21.7040   19.1716 H   0  0  0  0  0  0
  -30.9934  -21.9564   20.8007 H   0  0  0  0  0  0
  -29.8604  -24.3111   21.2306 H   0  0  0  0  0  0
  -30.0438  -24.1908   19.5019 H   0  0  0  0  0  0
  -27.3492  -24.7783   20.8330 H   0  0  0  0  0  0
  -27.7061  -24.7759   19.1195 H   0  0  0  0  0  0
  -28.8828  -15.3659   21.0946 H   0  0  0  0  0  0
  -28.5912  -22.3536   21.2963 H   0  0  0  0  0  0
  -28.3157  -22.3158   19.6999 H   0  0  0  0  0  0
  1 25  1  0  0  0
  1 30  2  0  0  0
  1 81  1  0  0  0
  2  3  1  0  0  0
  2 25  1  0  0  0
  2 84  1  0  0  0
  2 85  1  0  0  0
  3  4  1  0  0  0
  3 86  1  0  0  0
  3 87  1  0  0  0
  4  5  1  0  0  0
  4 88  1  0  0  0
  4 89  1  0  0  0
  5  6  1  0  0  0
  5 26  1  0  0  0
  5 90  1  0  0  0
  6 25  1  0  0  0
  6 91  1  0  0  0
  6 92  1  0  0  0
  7  8  2  0  0  0
  7 26  1  0  0  0
  7 29  1  0  0  0
  8  9  1  0  0  0
  8 22  1  0  0  0
  9 10  1  0  0  0
  9 27  2  0  0  0
 10 11  2  0  0  0
 10 15  1  0  0  0
 11 12  1  0  0  0
 11 93  1  0  0  0
 12 13  2  0  0  0
 12 94  1  0  0  0
 13 14  1  0  0  0
 13 31  1  0  0  0
 14 15  2  0  0  0
 14 95  1  0  0  0
 15 96  1  0  0  0
 16 17  2  0  0  0
 16 21  1  0  0  0
 16 31  1  0  0  0
 17 18  1  0  0  0
 17 97  1  0  0  0
 18 19  2  0  0  0
 18 98  1  0  0  0
 19 20  1  0  0  0
 19 24  1  0  0  0
 20 21  2  0  0  0
 20 99  1  0  0  0
 21 23  1  0  0  0
 22 28  1  0  0  0
 22 32  2  0  0  0
 26 27  1  0  0  0
 28100  1  0  0  0
 28101  1  0  0  0
 29102  1  0  0  0
 29103  1  0  0  0
 33 34  1  0  0  0
 33 66  1  0  0  0
 33 70  2  0  0  0
 34 36  1  0  0  0
 34 59  1  0  0  0
 34104  1  0  0  0
 35 44  2  0  0  0
 35 45  1  0  0  0
 35 68  1  0  0  0
 36 56  1  0  0  0
 36105  1  0  0  0
 37 39  1  0  0  0
 37 47  1  0  0  0
 37 66  1  0  0  0
 37106  1  0  0  0
 38 43  2  0  0  0
 38 46  1  0  0  0
 38 47  1  0  0  0
 39 64  1  0  0  0
 39 67  2  0  0  0
 40 52  1  0  0  0
 40 53  2  0  0  0
 40 58  1  0  0  0
 41107  1  0  0  0
 41108  1  0  0  0
 41109  1  0  0  0
 41 48  1  0  0  0
 42 43  1  0  0  0
 42 66  1  0  0  0
 42110  1  0  0  0
 42111  1  0  0  0
 43 44  1  0  0  0
 44112  1  0  0  0
 45 46  2  0  0  0
 45113  1  0  0  0
 46114  1  0  0  0
 47115  1  0  0  0
 47116  1  0  0  0
 48 56  1  0  0  0
 48 65  1  0  0  0
 48117  1  0  0  0
 49 50  1  0  0  0
 49 53  1  0  0  0
 49 64  1  0  0  0
 49118  1  0  0  0
 50 51  1  0  0  0
 50119  1  0  0  0
 50120  1  0  0  0
 51 52  1  0  0  0
 51121  1  0  0  0
 51122  1  0  0  0
 52123  1  0  0  0
 52124  1  0  0  0
 53 54  1  0  0  0
 54 55  2  0  0  0
 54125  1  0  0  0
 55 57  1  0  0  0
 55126  1  0  0  0
 56 69  2  0  0  0
 57 58  2  0  0  0
 57127  1  0  0  0
 58128  1  0  0  0
 59 60  1  0  0  0
 59 61  1  0  0  0
 59 62  1  0  0  0
 60129  1  0  0  0
 60130  1  0  0  0
 60131  1  0  0  0
 61132  1  0  0  0
 61133  1  0  0  0
 61134  1  0  0  0
 62135  1  0  0  0
 62136  1  0  0  0
 62137  1  0  0  0
 63 65  1  0  0  0
 63138  1  0  0  0
 63139  1  0  0  0
 63140  1  0  0  0
 64141  1  0  0  0
 65142  1  0  0  0
 68 80  1  0  0  0
 71 73  2  0  0  0
 71 74  1  0  0  0
 71143  1  0  0  0
 72 75  2  0  0  0
 72 76  1  0  0  0
 72144  1  0  0  0
 73 75  1  0  0  0
 73 77  1  0  0  0
 74 76  2  0  0  0
 74 78  1  0  0  0
 75 81  1  0  0  0
 76 83  1  0  0  0
 77145  1  0  0  0
 77146  1  0  0  0
 77147  1  0  0  0
 78 82  1  0  0  0
 78148  1  0  0  0
 78149  1  0  0  0
 79 80  1  0  0  0
 79 82  1  0  0  0
 79150  1  0  0  0
 79151  1  0  0  0
 80152  1  0  0  0
 80153  1  0  0  0
 81154  1  0  0  0
 82155  1  0  0  0
 82156  1  0  0  0
M  CHG  1  82   1
M  ISO  4   1 100  68 101  80 101  81 100
M  END
> <chiral flag>
0

> <version>
0

> <s_m_source_file>
/data/baiqing/PycharmProjects/Reinvent-master-3.2/result/LINK_invent/BTK/process_docking_weight1_custom_product_contain_oxygen_bond_distance_aromatic_linkinvent_7_9_3/rearranged_h_0035.sdf

> <i_m_source_file_index>
39

> <r_mmod_Potential_Energy-OPLS-2005>
-135.164184570312

> <r_mmod_Stretch_Energy-OPLS-2005>
75.1016235351562

> <r_mmod_Bend_Energy-OPLS-2005>
126.764350891113

> <r_mmod_Torsional_Energy-OPLS-2005>
233.653747558594

> <r_mmod_Improper_Torsional_Energy-OPLS-2005>
5.93656492233276

> <r_mmod_Van_der_Waal_Energy-OPLS-2005>
139.219604492188

> <r_mmod_Electrostatic_Energy-OPLS-2005>
-290.225952148438

> <r_mmod_Solvation_Energy-OPLS-2005>
-470.257629394531

> <b_mmod_Minimization_Converged-OPLS-2005>
0

> <r_mmod_RMS_Derivative-OPLS-2005>
1.03966426849365

$$$$
40
                    3D
 Structure written by MMmdl.
162170  0  0  1  0            999 V2000
  -30.6838  -14.5223   20.4765 C   0  0  0  0  0  0
  -30.4168  -12.3131   19.4161 C   0  0  0  0  0  0
  -29.4941  -12.4875   18.1921 C   0  0  0  0  0  0
  -28.0115  -12.3512   18.6042 C   0  0  0  0  0  0
  -27.6522  -13.2045   19.8493 C   0  0  2  0  0  0
  -28.7036  -13.0355   20.9684 C   0  0  0  0  0  0
  -25.2574  -13.8158   20.5652 C   0  0  0  0  0  0
  -24.1843  -13.0414   20.9161 C   0  0  0  0  0  0
  -24.6379  -11.6901   20.8684 C   0  0  0  0  0  0
  -23.9000  -10.4310   21.0373 C   0  0  0  0  0  0
  -24.3607   -9.4241   21.9191 C   0  0  0  0  0  0
  -23.6300   -8.2252   22.0728 C   0  0  0  0  0  0
  -22.4283   -8.0274   21.3557 C   0  0  0  0  0  0
  -21.9873   -9.0216   20.4639 C   0  0  0  0  0  0
  -22.7143  -10.2130   20.3033 C   0  0  0  0  0  0
  -21.6886   -6.0700   22.5318 C   0  0  0  0  0  0
  -21.4004   -6.5602   23.8233 C   0  0  0  0  0  0
  -21.3674   -5.6746   24.9215 C   0  0  0  0  0  0
  -21.6059   -4.3030   24.7274 C   0  0  0  0  0  0
  -21.8819   -3.8118   23.4397 C   0  0  0  0  0  0
  -21.9182   -4.6948   22.3439 C   0  0  0  0  0  0
  -22.7873  -13.5197   21.1891 C   0  0  0  0  0  0
  -22.1638   -4.2109   21.1050 F   0  0  0  0  0  0
  -21.5666   -3.4505   25.7810 F   0  0  0  0  0  0
  -30.0224  -13.3402   20.3923 N   0  0  0  0  0  0
  -26.3009  -12.9316   20.3237 N   0  0  0  0  0  0
  -25.9320  -11.6490   20.5676 N   0  0  0  0  0  0
  -22.0523  -12.8207   22.0457 N   0  0  0  0  0  0
  -25.4238  -15.1914   20.4052 N   0  0  0  0  0  0
  -31.8697  -14.6533   20.1546 O   0  0  0  0  0  0
  -21.6668   -6.8862   21.4239 O   0  0  0  0  0  0
  -22.3545  -14.5490   20.6717 O   0  0  0  0  0  0
  -24.6012  -31.8662   23.2147 C   0  0  0  0  0  0
  -25.8860  -32.4832   23.8451 C   0  0  1  0  0  0
  -27.2291  -27.3990   20.1146 C   0  0  0  0  0  0
  -25.5769  -33.8643   24.2335 N   0  0  0  0  0  0
  -23.3981  -30.4765   21.5637 C   0  0  2  0  0  0
  -24.8503  -28.9398   20.1374 C   0  0  0  0  0  0
  -22.7380  -29.4538   22.5159 C   0  0  0  0  0  0
  -18.0248  -28.1305   22.8509 C   0  0  0  0  0  0
  -24.1497  -36.7251   23.2649 C   0  0  0  0  0  0
  -25.9303  -30.8192   21.3905 C   0  0  0  0  0  0
  -26.0049  -29.4480   20.7409 C   0  0  0  0  0  0
  -27.1919  -28.6716   20.7455 C   0  0  0  0  0  0
  -26.0580  -26.9360   19.4729 C   0  0  0  0  0  0
  -24.8707  -27.6881   19.5066 C   0  0  0  0  0  0
  -23.6057  -29.7933   20.1851 C   0  0  0  0  0  0
  -25.4130  -36.3119   24.0363 C   0  0  1  0  0  0
  -20.5805  -28.3547   23.1401 C   0  0  2  0  0  0
  -20.6715  -26.9290   22.5465 C   0  0  0  0  0  0
  -19.5699  -26.6318   21.5233 C   0  0  0  0  0  0
  -18.1869  -26.7856   22.1636 C   0  0  0  0  0  0
  -19.1482  -28.8765   23.2933 C   0  0  0  0  0  0
  -18.9408  -30.1389   23.8899 C   0  0  0  0  0  0
  -17.6398  -30.6554   24.0474 C   0  0  0  0  0  0
  -25.9018  -34.9486   23.5143 C   0  0  0  0  0  0
  -16.5296  -29.9011   23.6320 C   0  0  0  0  0  0
  -16.7222  -28.6412   23.0394 C   0  0  0  0  0  0
  -26.4332  -31.6659   25.0786 C   0  0  0  0  0  0
  -25.3625  -31.3693   26.1573 C   0  0  0  0  0  0
  -27.0102  -30.3100   24.6132 C   0  0  0  0  0  0
  -27.5943  -32.4416   25.7456 C   0  0  0  0  0  0
  -27.5593  -37.1798   24.8471 C   0  0  0  0  0  0
  -21.4129  -29.2901   22.3890 N   0  0  0  0  0  0
  -26.4303  -37.3807   23.9420 N   0  0  0  0  0  0
  -24.6604  -31.0735   22.1092 N   0  0  0  0  0  0
  -23.4166  -28.8100   23.3217 O   0  0  0  0  0  0
  -28.4083  -26.6672   20.1723 O   0  0  0  0  0  0
  -26.5625  -34.8919   22.4753 O   0  0  0  0  0  0
  -23.5219  -32.1422   23.7516 O   0  0  0  0  0  0
  -29.6164  -19.3849   20.3651 C   0  0  0  0  0  0
  -29.6396  -19.0549   17.6123 C   0  0  0  0  0  0
  -29.3179  -20.5101   19.5429 C   0  0  0  0  0  0
  -29.9292  -18.0954   19.8511 C   0  0  0  0  0  0
  -29.3721  -20.3353   18.1290 C   0  0  0  0  0  0
  -29.8951  -17.9374   18.4384 C   0  0  0  0  0  0
  -28.9005  -21.7791   20.2089 C   0  0  0  0  0  0
  -29.1106  -21.4477   17.1195 C   0  0  0  0  0  0
  -30.1532  -16.6173   17.7397 C   0  0  0  0  0  0
  -30.3743  -16.9990   20.8565 C   0  0  0  0  0  0
  -29.1111  -24.3095   20.5041 C   0  0  0  0  0  0
  -28.5720  -25.3809   19.5318 C   0  0  0  0  0  0
  -28.0291  -21.7122   21.2403 N   0  0  0  0  0  0
  -29.9118  -15.6082   20.7184 N   0  0  0  0  0  0
  -29.3613  -22.9985   19.8295 N   0  3  0  0  0  0
  -31.4681  -12.3950   19.1289 H   0  0  0  0  0  0
  -30.3045  -11.3161   19.8491 H   0  0  0  0  0  0
  -29.7403  -11.7407   17.4332 H   0  0  0  0  0  0
  -29.6617  -13.4560   17.7296 H   0  0  0  0  0  0
  -27.8129  -11.2967   18.8002 H   0  0  0  0  0  0
  -27.3674  -12.6222   17.7681 H   0  0  0  0  0  0
  -27.6596  -14.2424   19.5178 H   0  0  0  0  0  0
  -28.7077  -12.0116   21.3403 H   0  0  0  0  0  0
  -28.4867  -13.6644   21.8346 H   0  0  0  0  0  0
  -25.2742   -9.5746   22.4755 H   0  0  0  0  0  0
  -24.0056   -7.4621   22.7396 H   0  0  0  0  0  0
  -21.0822   -8.8635   19.8925 H   0  0  0  0  0  0
  -22.3539  -10.9645   19.6134 H   0  0  0  0  0  0
  -21.1952   -7.6097   23.9714 H   0  0  0  0  0  0
  -21.1505   -6.0520   25.9109 H   0  0  0  0  0  0
  -22.0587   -2.7573   23.2939 H   0  0  0  0  0  0
  -22.4077  -11.9819   22.4825 H   0  0  0  0  0  0
  -21.1129  -13.1236   22.2678 H   0  0  0  0  0  0
  -24.6502  -15.8370   20.5245 H   0  0  0  0  0  0
  -26.2691  -15.6472   20.0867 H   0  0  0  0  0  0
  -26.6905  -32.5574   23.1216 H   0  0  0  0  0  0
  -24.9872  -33.9871   25.0438 H   0  0  0  0  0  0
  -22.6810  -31.2886   21.4157 H   0  0  0  0  0  0
  -23.3817  -35.9510   23.3323 H   0  0  0  0  0  0
  -24.3547  -36.8849   22.2044 H   0  0  0  0  0  0
  -23.7189  -37.6441   23.6648 H   0  0  0  0  0  0
  -26.0744  -31.5911   20.6355 H   0  0  0  0  0  0
  -26.7969  -30.8547   22.0323 H   0  0  0  0  0  0
  -28.0795  -29.0360   21.2504 H   0  0  0  0  0  0
  -26.0130  -26.0119   18.9270 H   0  0  0  0  0  0
  -23.9765  -27.2993   19.0424 H   0  0  0  0  0  0
  -23.7018  -30.5528   19.4094 H   0  0  0  0  0  0
  -22.7405  -29.1845   19.9038 H   0  0  0  0  0  0
  -25.1346  -36.1981   25.0864 H   0  0  0  0  0  0
  -20.9841  -28.3033   24.1521 H   0  0  0  0  0  0
  -20.5593  -26.2099   23.3615 H   0  0  0  0  0  0
  -21.6583  -26.7329   22.1228 H   0  0  0  0  0  0
  -19.6829  -25.6226   21.1231 H   0  0  0  0  0  0
  -19.6640  -27.3152   20.6779 H   0  0  0  0  0  0
  -17.4140  -26.6614   21.4029 H   0  0  0  0  0  0
  -18.0237  -25.9978   22.9018 H   0  0  0  0  0  0
  -19.7895  -30.7205   24.2250 H   0  0  0  0  0  0
  -17.4961  -31.6252   24.5033 H   0  0  0  0  0  0
  -15.5292  -30.2885   23.7680 H   0  0  0  0  0  0
  -15.8618  -28.0691   22.7171 H   0  0  0  0  0  0
  -24.5753  -30.7089   25.7914 H   0  0  0  0  0  0
  -24.8820  -32.2784   26.5212 H   0  0  0  0  0  0
  -25.8012  -30.8728   27.0241 H   0  0  0  0  0  0
  -26.2572  -29.7001   24.1094 H   0  0  0  0  0  0
  -27.3762  -29.7246   25.4587 H   0  0  0  0  0  0
  -27.8533  -30.4459   23.9334 H   0  0  0  0  0  0
  -27.2567  -33.3739   26.2025 H   0  0  0  0  0  0
  -28.3644  -32.6975   25.0152 H   0  0  0  0  0  0
  -28.0693  -31.8542   26.5336 H   0  0  0  0  0  0
  -28.2652  -38.0072   24.7567 H   0  0  0  0  0  0
  -28.1090  -36.2624   24.6295 H   0  0  0  0  0  0
  -27.2291  -37.1421   25.8870 H   0  0  0  0  0  0
  -20.9325  -29.8542   21.7028 H   0  0  0  0  0  0
  -26.0215  -38.2886   24.1473 H   0  0  0  0  0  0
  -29.6032  -19.5260   21.4364 H   0  0  0  0  0  0
  -29.6261  -18.8958   16.5413 H   0  0  0  0  0  0
  -29.0359  -21.0224   16.1150 H   0  0  0  0  0  0
  -29.9220  -22.1788   17.0926 H   0  0  0  0  0  0
  -28.1689  -21.9640   17.3132 H   0  0  0  0  0  0
  -29.8585  -16.6740   16.6903 H   0  0  0  0  0  0
  -29.5736  -15.8097   18.1747 H   0  0  0  0  0  0
  -31.2114  -16.3702   17.7830 H   0  0  0  0  0  0
  -30.0344  -17.2923   21.8489 H   0  0  0  0  0  0
  -31.4642  -17.0444   20.9132 H   0  0  0  0  0  0
  -28.4273  -24.2110   21.3493 H   0  0  0  0  0  0
  -30.0355  -24.6640   20.9606 H   0  0  0  0  0  0
  -27.7038  -24.9354   19.0466 H   0  0  0  0  0  0
  -29.3160  -25.5371   18.7520 H   0  0  0  0  0  0
  -27.5877  -20.8453   21.5271 H   0  0  0  0  0  0
  -27.6751  -22.5420   21.6812 H   0  0  0  0  0  0
  -28.9422  -15.4325   20.9260 H   0  0  0  0  0  0
  -29.9435  -23.0600   18.9981 H   0  0  0  0  0  0
  1 25  1  0  0  0
  1 30  2  0  0  0
  1 84  1  0  0  0
  2  3  1  0  0  0
  2 25  1  0  0  0
  2 86  1  0  0  0
  2 87  1  0  0  0
  3  4  1  0  0  0
  3 88  1  0  0  0
  3 89  1  0  0  0
  4  5  1  0  0  0
  4 90  1  0  0  0
  4 91  1  0  0  0
  5  6  1  0  0  0
  5 26  1  0  0  0
  5 92  1  0  0  0
  6 25  1  0  0  0
  6 93  1  0  0  0
  6 94  1  0  0  0
  7  8  2  0  0  0
  7 26  1  0  0  0
  7 29  1  0  0  0
  8  9  1  0  0  0
  8 22  1  0  0  0
  9 10  1  0  0  0
  9 27  2  0  0  0
 10 11  2  0  0  0
 10 15  1  0  0  0
 11 12  1  0  0  0
 11 95  1  0  0  0
 12 13  2  0  0  0
 12 96  1  0  0  0
 13 14  1  0  0  0
 13 31  1  0  0  0
 14 15  2  0  0  0
 14 97  1  0  0  0
 15 98  1  0  0  0
 16 17  2  0  0  0
 16 21  1  0  0  0
 16 31  1  0  0  0
 17 18  1  0  0  0
 17 99  1  0  0  0
 18 19  2  0  0  0
 18100  1  0  0  0
 19 20  1  0  0  0
 19 24  1  0  0  0
 20 21  2  0  0  0
 20101  1  0  0  0
 21 23  1  0  0  0
 22 28  1  0  0  0
 22 32  2  0  0  0
 26 27  1  0  0  0
 28102  1  0  0  0
 28103  1  0  0  0
 29104  1  0  0  0
 29105  1  0  0  0
 33 34  1  0  0  0
 33 66  1  0  0  0
 33 70  2  0  0  0
 34 36  1  0  0  0
 34 59  1  0  0  0
 34106  1  0  0  0
 35 44  2  0  0  0
 35 45  1  0  0  0
 35 68  1  0  0  0
 36 56  1  0  0  0
 36107  1  0  0  0
 37 39  1  0  0  0
 37 47  1  0  0  0
 37 66  1  0  0  0
 37108  1  0  0  0
 38 43  2  0  0  0
 38 46  1  0  0  0
 38 47  1  0  0  0
 39 64  1  0  0  0
 39 67  2  0  0  0
 40 52  1  0  0  0
 40 53  2  0  0  0
 40 58  1  0  0  0
 41109  1  0  0  0
 41110  1  0  0  0
 41111  1  0  0  0
 41 48  1  0  0  0
 42 43  1  0  0  0
 42 66  1  0  0  0
 42112  1  0  0  0
 42113  1  0  0  0
 43 44  1  0  0  0
 44114  1  0  0  0
 45 46  2  0  0  0
 45115  1  0  0  0
 46116  1  0  0  0
 47117  1  0  0  0
 47118  1  0  0  0
 48 56  1  0  0  0
 48 65  1  0  0  0
 48119  1  0  0  0
 49 50  1  0  0  0
 49 53  1  0  0  0
 49 64  1  0  0  0
 49120  1  0  0  0
 50 51  1  0  0  0
 50121  1  0  0  0
 50122  1  0  0  0
 51 52  1  0  0  0
 51123  1  0  0  0
 51124  1  0  0  0
 52125  1  0  0  0
 52126  1  0  0  0
 53 54  1  0  0  0
 54 55  2  0  0  0
 54127  1  0  0  0
 55 57  1  0  0  0
 55128  1  0  0  0
 56 69  2  0  0  0
 57 58  2  0  0  0
 57129  1  0  0  0
 58130  1  0  0  0
 59 60  1  0  0  0
 59 61  1  0  0  0
 59 62  1  0  0  0
 60131  1  0  0  0
 60132  1  0  0  0
 60133  1  0  0  0
 61134  1  0  0  0
 61135  1  0  0  0
 61136  1  0  0  0
 62137  1  0  0  0
 62138  1  0  0  0
 62139  1  0  0  0
 63 65  1  0  0  0
 63140  1  0  0  0
 63141  1  0  0  0
 63142  1  0  0  0
 64143  1  0  0  0
 65144  1  0  0  0
 68 82  1  0  0  0
 71 73  2  0  0  0
 71 74  1  0  0  0
 71145  1  0  0  0
 72 75  2  0  0  0
 72 76  1  0  0  0
 72146  1  0  0  0
 73 75  1  0  0  0
 73 77  1  0  0  0
 74 76  2  0  0  0
 74 80  1  0  0  0
 75 78  1  0  0  0
 76 79  1  0  0  0
 77 83  1  0  0  0
 77 85  2  0  0  0
 78147  1  0  0  0
 78148  1  0  0  0
 78149  1  0  0  0
 79150  1  0  0  0
 79151  1  0  0  0
 79152  1  0  0  0
 80 84  1  0  0  0
 80153  1  0  0  0
 80154  1  0  0  0
 81 82  1  0  0  0
 81 85  1  0  0  0
 81155  1  0  0  0
 81156  1  0  0  0
 82157  1  0  0  0
 82158  1  0  0  0
 83159  1  0  0  0
 83160  1  0  0  0
 84161  1  0  0  0
 85162  1  0  0  0
M  CHG  1  85   1
M  ISO  4   1 100  68 101  82 101  84 100
M  END
> <chiral flag>
0

> <version>
0

> <s_m_source_file>
/data/baiqing/PycharmProjects/Reinvent-master-3.2/result/LINK_invent/BTK/process_docking_weight1_custom_product_contain_oxygen_bond_distance_aromatic_linkinvent_7_9_3/rearranged_h_0035.sdf

> <i_m_source_file_index>
40

> <r_mmod_Potential_Energy-OPLS-2005>
-235.390548706055

> <r_mmod_Stretch_Energy-OPLS-2005>
46.636474609375

> <r_mmod_Bend_Energy-OPLS-2005>
131.761962890625

> <r_mmod_Torsional_Energy-OPLS-2005>
200.394561767578

> <r_mmod_Improper_Torsional_Energy-OPLS-2005>
5.48382902145386

> <r_mmod_Van_der_Waal_Energy-OPLS-2005>
158.498306274414

> <r_mmod_Electrostatic_Energy-OPLS-2005>
-397.339538574219

> <r_mmod_Solvation_Energy-OPLS-2005>
-406.040740966797

> <b_mmod_Minimization_Converged-OPLS-2005>
0

> <r_mmod_RMS_Derivative-OPLS-2005>
12.826605796814

$$$$
41
                    3D
 Structure written by MMmdl.
166175  0  0  1  0            999 V2000
  -30.5900  -14.6579   20.4892 C   0  0  0  0  0  0
  -30.4616  -12.4104   19.4422 C   0  0  0  0  0  0
  -29.5148  -12.5031   18.2244 C   0  0  0  0  0  0
  -28.0358  -12.3538   18.6360 C   0  0  0  0  0  0
  -27.6632  -13.2135   19.8748 C   0  0  2  0  0  0
  -28.7139  -13.0329   20.9928 C   0  0  0  0  0  0
  -25.2671  -13.8144   20.5824 C   0  0  0  0  0  0
  -24.1917  -13.0450   20.9262 C   0  0  0  0  0  0
  -24.6452  -11.6897   20.8777 C   0  0  0  0  0  0
  -23.9107  -10.4271   21.0413 C   0  0  0  0  0  0
  -24.3637   -9.4177   21.9190 C   0  0  0  0  0  0
  -23.6291   -8.2225   22.0779 C   0  0  0  0  0  0
  -22.4275   -8.0249   21.3560 C   0  0  0  0  0  0
  -21.9927   -9.0259   20.4687 C   0  0  0  0  0  0
  -22.7274  -10.2133   20.3080 C   0  0  0  0  0  0
  -21.6821   -6.0709   22.5285 C   0  0  0  0  0  0
  -21.3976   -6.5623   23.8222 C   0  0  0  0  0  0
  -21.3674   -5.6794   24.9199 C   0  0  0  0  0  0
  -21.6065   -4.3061   24.7267 C   0  0  0  0  0  0
  -21.8807   -3.8141   23.4384 C   0  0  0  0  0  0
  -21.9173   -4.6938   22.3420 C   0  0  0  0  0  0
  -22.7913  -13.5252   21.1828 C   0  0  0  0  0  0
  -22.1639   -4.2112   21.1002 F   0  0  0  0  0  0
  -21.5659   -3.4562   25.7788 F   0  0  0  0  0  0
  -30.0199  -13.4123   20.4313 N   0  0  0  0  0  0
  -26.3081  -12.9324   20.3422 N   0  0  0  0  0  0
  -25.9387  -11.6478   20.5794 N   0  0  0  0  0  0
  -22.0498  -12.8294   22.0352 N   0  0  0  0  0  0
  -25.4426  -15.1876   20.4298 N   0  0  0  0  0  0
  -31.7499  -14.8476   20.1080 O   0  0  0  0  0  0
  -21.6621   -6.8862   21.4246 O   0  0  0  0  0  0
  -22.3634  -14.5563   20.6647 O   0  0  0  0  0  0
  -24.6233  -31.8608   23.2030 C   0  0  0  0  0  0
  -25.9078  -32.4791   23.8350 C   0  0  1  0  0  0
  -27.2399  -27.3467   20.1233 C   0  0  0  0  0  0
  -25.5881  -33.8592   24.2279 N   0  0  0  0  0  0
  -23.4177  -30.4809   21.5455 C   0  0  2  0  0  0
  -24.8666  -28.9249   20.1250 C   0  0  0  0  0  0
  -22.7447  -29.4634   22.4963 C   0  0  0  0  0  0
  -18.0278  -28.1393   22.8502 C   0  0  0  0  0  0
  -24.1485  -36.7304   23.2644 C   0  0  0  0  0  0
  -25.9541  -30.7980   21.3686 C   0  0  0  0  0  0
  -26.0317  -29.4208   20.7242 C   0  0  0  0  0  0
  -27.2231  -28.6433   20.7105 C   0  0  0  0  0  0
  -26.0526  -26.8765   19.5252 C   0  0  0  0  0  0
  -24.8743  -27.6530   19.5226 C   0  0  0  0  0  0
  -23.6337  -29.8056   20.1637 C   0  0  0  0  0  0
  -25.4109  -36.3107   24.0335 C   0  0  1  0  0  0
  -20.5877  -28.3681   23.1300 C   0  0  2  0  0  0
  -20.6770  -26.9411   22.5414 C   0  0  0  0  0  0
  -19.5747  -26.6391   21.5220 C   0  0  0  0  0  0
  -18.1925  -26.7949   22.1631 C   0  0  0  0  0  0
  -19.1533  -28.8854   23.2900 C   0  0  0  0  0  0
  -18.9465  -30.1462   23.8911 C   0  0  0  0  0  0
  -17.6465  -30.6600   24.0580 C   0  0  0  0  0  0
  -25.9042  -34.9464   23.5114 C   0  0  0  0  0  0
  -16.5353  -29.9101   23.6328 C   0  0  0  0  0  0
  -16.7268  -28.6515   23.0349 C   0  0  0  0  0  0
  -26.4472  -31.6605   25.0710 C   0  0  0  0  0  0
  -25.3709  -31.3742   26.1432 C   0  0  0  0  0  0
  -27.0300  -30.3038   24.6135 C   0  0  0  0  0  0
  -27.6040  -32.4333   25.7465 C   0  0  0  0  0  0
  -27.5589  -37.1802   24.8462 C   0  0  0  0  0  0
  -21.4166  -29.3039   22.3692 N   0  0  0  0  0  0
  -26.4294  -37.3794   23.9424 N   0  0  0  0  0  0
  -24.6841  -31.0631   22.0972 N   0  0  0  0  0  0
  -23.4170  -28.8166   23.3036 O   0  0  0  0  0  0
  -28.3965  -26.5796   20.0126 O   0  0  0  0  0  0
  -26.5635  -34.8938   22.4703 O   0  0  0  0  0  0
  -23.5387  -32.1396   23.7343 O   0  0  0  0  0  0
  -29.8147  -19.1924   19.2001 C   0  0  0  0  0  0
  -29.1462  -17.9719   21.5998 C   0  0  0  0  0  0
  -30.0244  -17.7860   19.3656 C   0  0  0  0  0  0
  -29.2114  -20.0160   20.1887 C   0  0  0  0  0  0
  -29.7104  -17.1303   20.5986 C   0  0  0  0  0  0
  -28.8949  -19.3646   21.4071 C   0  0  0  0  0  0
  -30.3713  -24.6765   22.5765 C   0  0  0  0  0  0
  -31.2572  -23.7785   21.7027 C   0  0  0  0  0  0
  -29.6855  -25.7769   21.7538 C   0  0  0  0  0  0
  -30.5581  -22.5314   21.1336 C   0  0  0  0  0  0
  -28.9128  -24.0503   19.9053 C   0  0  0  0  0  0
  -28.5622  -25.3418   20.7851 C   0  0  2  0  0  0
  -30.4788  -17.0286   18.1309 C   0  0  0  0  0  0
  -28.7330  -21.4818   19.8305 C   0  0  0  0  0  0
  -29.7472  -15.6806   20.8520 N   0  0  0  0  0  0
  -29.1706  -22.7115   20.6158 N   0  3  1  0  0  0
  -28.3011  -20.0721   22.3987 F   0  0  0  0  0  0
  -31.4904  -12.5848   19.1206 H   0  0  0  0  0  0
  -30.4560  -11.4072   19.8734 H   0  0  0  0  0  0
  -29.7718  -11.7336   17.4940 H   0  0  0  0  0  0
  -29.6573  -13.4618   17.7237 H   0  0  0  0  0  0
  -27.8602  -11.2990   18.8502 H   0  0  0  0  0  0
  -27.3964  -12.6092   17.7914 H   0  0  0  0  0  0
  -27.6855  -14.2567   19.5574 H   0  0  0  0  0  0
  -28.7438  -11.9940   21.3256 H   0  0  0  0  0  0
  -28.4641  -13.6173   21.8778 H   0  0  0  0  0  0
  -25.2762   -9.5657   22.4776 H   0  0  0  0  0  0
  -23.9975   -7.4623   22.7523 H   0  0  0  0  0  0
  -21.0863   -8.8840   19.8978 H   0  0  0  0  0  0
  -22.3756  -10.9699   19.6219 H   0  0  0  0  0  0
  -21.1917   -7.6117   23.9730 H   0  0  0  0  0  0
  -21.1525   -6.0520   25.9117 H   0  0  0  0  0  0
  -22.0573   -2.7589   23.2920 H   0  0  0  0  0  0
  -22.4022  -11.9905   22.4722 H   0  0  0  0  0  0
  -21.1106  -13.1380   22.2468 H   0  0  0  0  0  0
  -24.6956  -15.8481   20.6095 H   0  0  0  0  0  0
  -26.2915  -15.6342   20.1074 H   0  0  0  0  0  0
  -26.7146  -32.5484   23.1101 H   0  0  0  0  0  0
  -24.9982  -33.9739   25.0389 H   0  0  0  0  0  0
  -22.7113  -31.3005   21.3973 H   0  0  0  0  0  0
  -23.3757  -35.9628   23.3308 H   0  0  0  0  0  0
  -24.3573  -36.8928   22.2059 H   0  0  0  0  0  0
  -23.7219  -37.6498   23.6662 H   0  0  0  0  0  0
  -26.0730  -31.5547   20.5915 H   0  0  0  0  0  0
  -26.8393  -30.8574   21.9897 H   0  0  0  0  0  0
  -28.1297  -29.0329   21.1525 H   0  0  0  0  0  0
  -26.0422  -25.9085   19.0460 H   0  0  0  0  0  0
  -23.9807  -27.2643   19.0545 H   0  0  0  0  0  0
  -23.7558  -30.5790   19.4041 H   0  0  0  0  0  0
  -22.7540  -29.2340   19.8622 H   0  0  0  0  0  0
  -25.1297  -36.1974   25.0824 H   0  0  0  0  0  0
  -20.9977  -28.3268   24.1421 H   0  0  0  0  0  0
  -20.5681  -26.2294   23.3612 H   0  0  0  0  0  0
  -21.6644  -26.7447   22.1217 H   0  0  0  0  0  0
  -19.6909  -25.6297   21.1253 H   0  0  0  0  0  0
  -19.6702  -27.3197   20.6748 H   0  0  0  0  0  0
  -17.4200  -26.6709   21.4025 H   0  0  0  0  0  0
  -18.0318  -26.0077   22.9011 H   0  0  0  0  0  0
  -19.7929  -30.7283   24.2293 H   0  0  0  0  0  0
  -17.5008  -31.6281   24.5177 H   0  0  0  0  0  0
  -15.5355  -30.3012   23.7638 H   0  0  0  0  0  0
  -15.8670  -28.0845   22.7051 H   0  0  0  0  0  0
  -24.5835  -30.7159   25.7749 H   0  0  0  0  0  0
  -24.8935  -32.2901   26.4916 H   0  0  0  0  0  0
  -25.7992  -30.8850   27.0183 H   0  0  0  0  0  0
  -26.2857  -29.6796   24.1167 H   0  0  0  0  0  0
  -27.4028  -29.7286   25.4623 H   0  0  0  0  0  0
  -27.8715  -30.4352   23.9329 H   0  0  0  0  0  0
  -27.2667  -33.3623   26.2072 H   0  0  0  0  0  0
  -28.3810  -32.6918   25.0262 H   0  0  0  0  0  0
  -28.0750  -31.8441   26.5343 H   0  0  0  0  0  0
  -28.2606  -38.0103   24.7535 H   0  0  0  0  0  0
  -28.1094  -36.2638   24.6266 H   0  0  0  0  0  0
  -27.2314  -37.1429   25.8866 H   0  0  0  0  0  0
  -20.9335  -29.8750   21.6906 H   0  0  0  0  0  0
  -26.0193  -38.2880   24.1416 H   0  0  0  0  0  0
  -30.0323  -19.6284   18.2333 H   0  0  0  0  0  0
  -28.8436  -17.5372   22.5412 H   0  0  0  0  0  0
  -31.0172  -25.1693   23.3063 H   0  0  0  0  0  0
  -29.6600  -24.0889   23.1591 H   0  0  0  0  0  0
  -32.0975  -23.4333   22.3062 H   0  0  0  0  0  0
  -31.7169  -24.3556   20.8984 H   0  0  0  0  0  0
  -30.4542  -26.3062   21.1877 H   0  0  0  0  0  0
  -29.2882  -26.5251   22.4407 H   0  0  0  0  0  0
  -30.5291  -21.7642   21.9086 H   0  0  0  0  0  0
  -31.1925  -22.1322   20.3414 H   0  0  0  0  0  0
  -29.7537  -24.2758   19.2471 H   0  0  0  0  0  0
  -28.0678  -23.9067   19.2295 H   0  0  0  0  0  0
  -27.6529  -25.1379   21.3539 H   0  0  0  0  0  0
  -30.0205  -17.4580   17.2367 H   0  0  0  0  0  0
  -30.1849  -15.9816   18.1386 H   0  0  0  0  0  0
  -31.5604  -17.1016   18.0227 H   0  0  0  0  0  0
  -27.6435  -21.4653   19.8194 H   0  0  0  0  0  0
  -29.0148  -21.6562   18.7907 H   0  0  0  0  0  0
  -28.9212  -15.3324   21.3174 H   0  0  0  0  0  0
  -28.5674  -22.7167   21.4279 H   0  0  0  0  0  0
  1 25  1  0  0  0
  1 30  2  0  0  0
  1 85  1  0  0  0
  2  3  1  0  0  0
  2 25  1  0  0  0
  2 88  1  0  0  0
  2 89  1  0  0  0
  3  4  1  0  0  0
  3 90  1  0  0  0
  3 91  1  0  0  0
  4  5  1  0  0  0
  4 92  1  0  0  0
  4 93  1  0  0  0
  5  6  1  0  0  0
  5 26  1  0  0  0
  5 94  1  0  0  0
  6 25  1  0  0  0
  6 95  1  0  0  0
  6 96  1  0  0  0
  7  8  2  0  0  0
  7 26  1  0  0  0
  7 29  1  0  0  0
  8  9  1  0  0  0
  8 22  1  0  0  0
  9 10  1  0  0  0
  9 27  2  0  0  0
 10 11  2  0  0  0
 10 15  1  0  0  0
 11 12  1  0  0  0
 11 97  1  0  0  0
 12 13  2  0  0  0
 12 98  1  0  0  0
 13 14  1  0  0  0
 13 31  1  0  0  0
 14 15  2  0  0  0
 14 99  1  0  0  0
 15100  1  0  0  0
 16 17  2  0  0  0
 16 21  1  0  0  0
 16 31  1  0  0  0
 17 18  1  0  0  0
 17101  1  0  0  0
 18 19  2  0  0  0
 18102  1  0  0  0
 19 20  1  0  0  0
 19 24  1  0  0  0
 20 21  2  0  0  0
 20103  1  0  0  0
 21 23  1  0  0  0
 22 28  1  0  0  0
 22 32  2  0  0  0
 26 27  1  0  0  0
 28104  1  0  0  0
 28105  1  0  0  0
 29106  1  0  0  0
 29107  1  0  0  0
 33 34  1  0  0  0
 33 66  1  0  0  0
 33 70  2  0  0  0
 34 36  1  0  0  0
 34 59  1  0  0  0
 34108  1  0  0  0
 35 44  2  0  0  0
 35 45  1  0  0  0
 35 68  1  0  0  0
 36 56  1  0  0  0
 36109  1  0  0  0
 37 39  1  0  0  0
 37 47  1  0  0  0
 37 66  1  0  0  0
 37110  1  0  0  0
 38 43  2  0  0  0
 38 46  1  0  0  0
 38 47  1  0  0  0
 39 64  1  0  0  0
 39 67  2  0  0  0
 40 52  1  0  0  0
 40 53  2  0  0  0
 40 58  1  0  0  0
 41111  1  0  0  0
 41112  1  0  0  0
 41113  1  0  0  0
 41 48  1  0  0  0
 42 43  1  0  0  0
 42 66  1  0  0  0
 42114  1  0  0  0
 42115  1  0  0  0
 43 44  1  0  0  0
 44116  1  0  0  0
 45 46  2  0  0  0
 45117  1  0  0  0
 46118  1  0  0  0
 47119  1  0  0  0
 47120  1  0  0  0
 48 56  1  0  0  0
 48 65  1  0  0  0
 48121  1  0  0  0
 49 50  1  0  0  0
 49 53  1  0  0  0
 49 64  1  0  0  0
 49122  1  0  0  0
 50 51  1  0  0  0
 50123  1  0  0  0
 50124  1  0  0  0
 51 52  1  0  0  0
 51125  1  0  0  0
 51126  1  0  0  0
 52127  1  0  0  0
 52128  1  0  0  0
 53 54  1  0  0  0
 54 55  2  0  0  0
 54129  1  0  0  0
 55 57  1  0  0  0
 55130  1  0  0  0
 56 69  2  0  0  0
 57 58  2  0  0  0
 57131  1  0  0  0
 58132  1  0  0  0
 59 60  1  0  0  0
 59 61  1  0  0  0
 59 62  1  0  0  0
 60133  1  0  0  0
 60134  1  0  0  0
 60135  1  0  0  0
 61136  1  0  0  0
 61137  1  0  0  0
 61138  1  0  0  0
 62139  1  0  0  0
 62140  1  0  0  0
 62141  1  0  0  0
 63 65  1  0  0  0
 63142  1  0  0  0
 63143  1  0  0  0
 63144  1  0  0  0
 64145  1  0  0  0
 65146  1  0  0  0
 68 82  1  0  0  0
 71 73  2  0  0  0
 71 74  1  0  0  0
 71147  1  0  0  0
 72 75  2  0  0  0
 72 76  1  0  0  0
 72148  1  0  0  0
 73 75  1  0  0  0
 73 83  1  0  0  0
 74 76  2  0  0  0
 74 84  1  0  0  0
 75 85  1  0  0  0
 76 87  1  0  0  0
 77 78  1  0  0  0
 77 79  1  0  0  0
 77149  1  0  0  0
 77150  1  0  0  0
 78 80  1  0  0  0
 78151  1  0  0  0
 78152  1  0  0  0
 79 82  1  0  0  0
 79153  1  0  0  0
 79154  1  0  0  0
 80 86  1  0  0  0
 80155  1  0  0  0
 80156  1  0  0  0
 81 82  1  0  0  0
 81 86  1  0  0  0
 81157  1  0  0  0
 81158  1  0  0  0
 82159  1  0  0  0
 83160  1  0  0  0
 83161  1  0  0  0
 83162  1  0  0  0
 84163  1  0  0  0
 84164  1  0  0  0
 84 86  1  0  0  0
 85165  1  0  0  0
 86166  1  0  0  0
M  CHG  1  86   1
M  ISO  4   1 100  68 101  82 101  85 100
M  END
> <chiral flag>
0

> <version>
0

> <s_m_source_file>
/data/baiqing/PycharmProjects/Reinvent-master-3.2/result/LINK_invent/BTK/process_docking_weight1_custom_product_contain_oxygen_bond_distance_aromatic_linkinvent_7_9_3/rearranged_h_0035.sdf

> <i_m_source_file_index>
41

> <r_mmod_Potential_Energy-OPLS-2005>
43.8746070861816

> <r_mmod_Stretch_Energy-OPLS-2005>
82.9639663696289

> <r_mmod_Bend_Energy-OPLS-2005>
167.696304321289

> <r_mmod_Torsional_Energy-OPLS-2005>
297.081604003906

> <r_mmod_Improper_Torsional_Energy-OPLS-2005>
6.16821432113647

> <r_mmod_Van_der_Waal_Energy-OPLS-2005>
136.145462036133

> <r_mmod_Electrostatic_Energy-OPLS-2005>
-279.094421386719

> <r_mmod_Solvation_Energy-OPLS-2005>
-410.025543212891

> <b_mmod_Minimization_Converged-OPLS-2005>
0

> <r_mmod_RMS_Derivative-OPLS-2005>
4.17874336242676

$$$$
42
                    3D
 Structure written by MMmdl.
169178  0  0  1  0            999 V2000
  -30.5872  -14.6345   20.5147 C   0  0  0  0  0  0
  -30.4504  -12.3966   19.4518 C   0  0  0  0  0  0
  -29.5177  -12.5119   18.2258 C   0  0  0  0  0  0
  -28.0347  -12.3515   18.6279 C   0  0  0  0  0  0
  -27.6523  -13.2086   19.8637 C   0  0  2  0  0  0
  -28.6931  -13.0258   20.9901 C   0  0  0  0  0  0
  -25.2544  -13.8149   20.5658 C   0  0  0  0  0  0
  -24.1817  -13.0437   20.9182 C   0  0  0  0  0  0
  -24.6364  -11.6899   20.8737 C   0  0  0  0  0  0
  -23.9055  -10.4290   21.0404 C   0  0  0  0  0  0
  -24.3614   -9.4204   21.9191 C   0  0  0  0  0  0
  -23.6292   -8.2240   22.0774 C   0  0  0  0  0  0
  -22.4269   -8.0284   21.3554 C   0  0  0  0  0  0
  -21.9891   -9.0252   20.4647 C   0  0  0  0  0  0
  -22.7218  -10.2125   20.3050 C   0  0  0  0  0  0
  -21.6841   -6.0741   22.5288 C   0  0  0  0  0  0
  -21.4003   -6.5646   23.8217 C   0  0  0  0  0  0
  -21.3667   -5.6793   24.9185 C   0  0  0  0  0  0
  -21.6046   -4.3061   24.7220 C   0  0  0  0  0  0
  -21.8819   -3.8153   23.4347 C   0  0  0  0  0  0
  -21.9176   -4.6975   22.3399 C   0  0  0  0  0  0
  -22.7840  -13.5251   21.1834 C   0  0  0  0  0  0
  -22.1651   -4.2168   21.0977 F   0  0  0  0  0  0
  -21.5625   -3.4535   25.7732 F   0  0  0  0  0  0
  -30.0101  -13.3946   20.4438 N   0  0  0  0  0  0
  -26.2964  -12.9307   20.3263 N   0  0  0  0  0  0
  -25.9278  -11.6476   20.5715 N   0  0  0  0  0  0
  -22.0449  -12.8278   22.0387 N   0  0  0  0  0  0
  -25.4241  -15.1887   20.4089 N   0  0  0  0  0  0
  -31.7439  -14.8221   20.1278 O   0  0  0  0  0  0
  -21.6631   -6.8889   21.4252 O   0  0  0  0  0  0
  -22.3547  -14.5554   20.6659 O   0  0  0  0  0  0
  -24.6300  -31.8596   23.1982 C   0  0  0  0  0  0
  -25.9150  -32.4766   23.8325 C   0  0  1  0  0  0
  -27.2216  -27.3214   20.1168 C   0  0  0  0  0  0
  -25.5973  -33.8570   24.2259 N   0  0  0  0  0  0
  -23.4211  -30.4798   21.5446 C   0  0  2  0  0  0
  -24.8615  -28.9172   20.1273 C   0  0  0  0  0  0
  -22.7488  -29.4625   22.4972 C   0  0  0  0  0  0
  -18.0294  -28.1382   22.8488 C   0  0  0  0  0  0
  -24.1467  -36.7310   23.2630 C   0  0  0  0  0  0
  -25.9592  -30.7892   21.3634 C   0  0  0  0  0  0
  -26.0312  -29.4088   20.7208 C   0  0  0  0  0  0
  -27.2180  -28.6228   20.7024 C   0  0  0  0  0  0
  -26.0334  -26.8653   19.5179 C   0  0  0  0  0  0
  -24.8608  -27.6466   19.5257 C   0  0  0  0  0  0
  -23.6319  -29.8011   20.1664 C   0  0  0  0  0  0
  -25.4101  -36.3077   24.0296 C   0  0  1  0  0  0
  -20.5882  -28.3664   23.1277 C   0  0  2  0  0  0
  -20.6753  -26.9382   22.5400 C   0  0  0  0  0  0
  -19.5728  -26.6377   21.5194 C   0  0  0  0  0  0
  -18.1920  -26.7932   22.1621 C   0  0  0  0  0  0
  -19.1550  -28.8849   23.2878 C   0  0  0  0  0  0
  -18.9470  -30.1444   23.8892 C   0  0  0  0  0  0
  -17.6472  -30.6572   24.0576 C   0  0  0  0  0  0
  -25.9047  -34.9441   23.5066 C   0  0  0  0  0  0
  -16.5359  -29.9079   23.6324 C   0  0  0  0  0  0
  -16.7292  -28.6503   23.0352 C   0  0  0  0  0  0
  -26.4534  -31.6588   25.0703 C   0  0  0  0  0  0
  -25.3826  -31.3822   26.1507 C   0  0  0  0  0  0
  -27.0266  -30.2942   24.6171 C   0  0  0  0  0  0
  -27.6144  -32.4308   25.7466 C   0  0  0  0  0  0
  -27.5564  -37.1793   24.8446 C   0  0  0  0  0  0
  -21.4199  -29.3036   22.3702 N   0  0  0  0  0  0
  -26.4283  -37.3771   23.9379 N   0  0  0  0  0  0
  -24.6892  -31.0616   22.0934 N   0  0  0  0  0  0
  -23.4204  -28.8173   23.3057 O   0  0  0  0  0  0
  -28.3692  -26.5406   20.0166 O   0  0  0  0  0  0
  -26.5628  -34.8940   22.4634 O   0  0  0  0  0  0
  -23.5465  -32.1379   23.7329 O   0  0  0  0  0  0
  -28.2514  -19.0525   21.4932 C   0  0  0  0  0  0
  -29.8416  -19.3183   19.7178 C   0  0  0  0  0  0
  -28.8252  -19.8999   20.5168 C   0  0  0  0  0  0
  -28.6308  -17.6900   21.6433 C   0  0  0  0  0  0
  -30.2197  -17.9403   19.8258 C   0  0  0  0  0  0
  -29.6035  -17.0779   20.7946 C   0  0  0  0  0  0
  -29.9513  -25.2889   21.1699 C   0  0  0  0  0  0
  -30.3777  -24.0815   22.0090 C   0  0  0  0  0  0
  -28.2420  -23.8740   19.9766 C   0  0  0  0  0  0
  -28.4880  -25.2593   20.7318 C   0  0  2  0  0  0
  -29.4735  -22.8317   21.9058 C   0  0  2  0  0  0
  -27.9189  -16.8759   22.7189 C   0  0  0  0  0  0
  -31.2340  -17.4420   18.8103 C   0  0  0  0  0  0
  -30.2864  -21.6576   22.4835 C   0  0  0  0  0  0
  -28.2145  -21.3322   20.2606 C   0  0  0  0  0  0
  -29.7381  -15.6252   20.9342 N   0  0  0  0  0  0
  -28.9769  -22.6280   20.5071 N   0  3  1  0  0  0
  -31.4855  -12.5560   19.1492 H   0  0  0  0  0  0
  -30.4189  -11.3931   19.8822 H   0  0  0  0  0  0
  -29.7903  -11.7649   17.4801 H   0  0  0  0  0  0
  -29.6614  -13.4851   17.7514 H   0  0  0  0  0  0
  -27.8639  -11.2963   18.8465 H   0  0  0  0  0  0
  -27.3919  -12.5892   17.7813 H   0  0  0  0  0  0
  -27.6759  -14.2484   19.5397 H   0  0  0  0  0  0
  -28.7077  -11.9864   21.3216 H   0  0  0  0  0  0
  -28.4277  -13.6086   21.8736 H   0  0  0  0  0  0
  -25.2761   -9.5679   22.4765 H   0  0  0  0  0  0
  -23.9984   -7.4637   22.7512 H   0  0  0  0  0  0
  -21.0812   -8.8779   19.8964 H   0  0  0  0  0  0
  -22.3696  -10.9671   19.6160 H   0  0  0  0  0  0
  -21.2009   -7.6148   23.9735 H   0  0  0  0  0  0
  -21.1484   -6.0518   25.9088 H   0  0  0  0  0  0
  -22.0588   -2.7618   23.2829 H   0  0  0  0  0  0
  -22.4032  -11.9932   22.4786 H   0  0  0  0  0  0
  -21.1079  -13.1366   22.2595 H   0  0  0  0  0  0
  -24.6551  -15.8384   20.5317 H   0  0  0  0  0  0
  -26.2650  -15.6334   20.0654 H   0  0  0  0  0  0
  -26.7225  -32.5440   23.1078 H   0  0  0  0  0  0
  -25.0119  -33.9701   25.0407 H   0  0  0  0  0  0
  -22.7145  -31.2989   21.3962 H   0  0  0  0  0  0
  -23.3709  -35.9668   23.3318 H   0  0  0  0  0  0
  -24.3534  -36.8938   22.2042 H   0  0  0  0  0  0
  -23.7276  -37.6533   23.6674 H   0  0  0  0  0  0
  -26.0791  -31.5382   20.5791 H   0  0  0  0  0  0
  -26.8459  -30.8482   21.9847 H   0  0  0  0  0  0
  -28.1302  -29.0055   21.1410 H   0  0  0  0  0  0
  -26.0144  -25.9013   19.0270 H   0  0  0  0  0  0
  -23.9636  -27.2618   19.0623 H   0  0  0  0  0  0
  -23.7495  -30.5677   19.3987 H   0  0  0  0  0  0
  -22.7513  -29.2269   19.8733 H   0  0  0  0  0  0
  -25.1285  -36.1908   25.0795 H   0  0  0  0  0  0
  -20.9978  -28.3233   24.1398 H   0  0  0  0  0  0
  -20.5576  -26.2287   23.3603 H   0  0  0  0  0  0
  -21.6627  -26.7363   22.1226 H   0  0  0  0  0  0
  -19.6847  -25.6287   21.1226 H   0  0  0  0  0  0
  -19.6659  -27.3183   20.6716 H   0  0  0  0  0  0
  -17.4170  -26.6689   21.4040 H   0  0  0  0  0  0
  -18.0315  -26.0078   22.9013 H   0  0  0  0  0  0
  -19.7948  -30.7265   24.2238 H   0  0  0  0  0  0
  -17.5032  -31.6239   24.5198 H   0  0  0  0  0  0
  -15.5355  -30.2982   23.7634 H   0  0  0  0  0  0
  -15.8704  -28.0818   22.7047 H   0  0  0  0  0  0
  -24.5857  -30.7308   25.7889 H   0  0  0  0  0  0
  -24.9212  -32.3037   26.5043 H   0  0  0  0  0  0
  -25.8192  -30.8906   27.0200 H   0  0  0  0  0  0
  -26.2696  -29.6716   24.1389 H   0  0  0  0  0  0
  -27.4041  -29.7259   25.4685 H   0  0  0  0  0  0
  -27.8598  -30.4095   23.9245 H   0  0  0  0  0  0
  -27.2724  -33.3529   26.2217 H   0  0  0  0  0  0
  -28.3877  -32.7029   25.0270 H   0  0  0  0  0  0
  -28.0934  -31.8393   26.5277 H   0  0  0  0  0  0
  -28.2589  -38.0080   24.7467 H   0  0  0  0  0  0
  -28.1045  -36.2604   24.6282 H   0  0  0  0  0  0
  -27.2282  -37.1474   25.8854 H   0  0  0  0  0  0
  -20.9386  -29.8806   21.6949 H   0  0  0  0  0  0
  -26.0157  -38.2842   24.1386 H   0  0  0  0  0  0
  -27.4607  -19.4468   22.1183 H   0  0  0  0  0  0
  -30.3003  -19.9315   18.9553 H   0  0  0  0  0  0
  -30.5655  -25.3136   20.2708 H   0  0  0  0  0  0
  -30.1715  -26.2085   21.7115 H   0  0  0  0  0  0
  -30.4380  -24.3745   23.0588 H   0  0  0  0  0  0
  -31.3999  -23.8320   21.7190 H   0  0  0  0  0  0
  -28.4922  -23.9770   18.9197 H   0  0  0  0  0  0
  -27.1685  -23.6858   19.9992 H   0  0  0  0  0  0
  -27.8538  -25.2946   21.6208 H   0  0  0  0  0  0
  -28.5946  -22.9803   22.5369 H   0  0  0  0  0  0
  -27.3066  -17.5097   23.3615 H   0  0  0  0  0  0
  -28.6298  -16.3561   23.3625 H   0  0  0  0  0  0
  -27.2572  -16.1351   22.2704 H   0  0  0  0  0  0
  -32.2271  -17.3577   19.2547 H   0  0  0  0  0  0
  -31.3127  -18.1300   17.9687 H   0  0  0  0  0  0
  -30.9382  -16.4832   18.3865 H   0  0  0  0  0  0
  -30.9663  -21.2278   21.7459 H   0  0  0  0  0  0
  -29.6478  -20.8711   22.8763 H   0  0  0  0  0  0
  -30.8940  -21.9833   23.3276 H   0  0  0  0  0  0
  -27.3015  -21.3977   20.8546 H   0  0  0  0  0  0
  -27.8716  -21.3363   19.2246 H   0  0  0  0  0  0
  -28.9089  -15.2165   21.3366 H   0  0  0  0  0  0
  -29.8108  -22.5457   19.9426 H   0  0  0  0  0  0
  1 25  1  0  0  0
  1 30  2  0  0  0
  1 86  1  0  0  0
  2  3  1  0  0  0
  2 25  1  0  0  0
  2 88  1  0  0  0
  2 89  1  0  0  0
  3  4  1  0  0  0
  3 90  1  0  0  0
  3 91  1  0  0  0
  4  5  1  0  0  0
  4 92  1  0  0  0
  4 93  1  0  0  0
  5  6  1  0  0  0
  5 26  1  0  0  0
  5 94  1  0  0  0
  6 25  1  0  0  0
  6 95  1  0  0  0
  6 96  1  0  0  0
  7  8  2  0  0  0
  7 26  1  0  0  0
  7 29  1  0  0  0
  8  9  1  0  0  0
  8 22  1  0  0  0
  9 10  1  0  0  0
  9 27  2  0  0  0
 10 11  2  0  0  0
 10 15  1  0  0  0
 11 12  1  0  0  0
 11 97  1  0  0  0
 12 13  2  0  0  0
 12 98  1  0  0  0
 13 14  1  0  0  0
 13 31  1  0  0  0
 14 15  2  0  0  0
 14 99  1  0  0  0
 15100  1  0  0  0
 16 17  2  0  0  0
 16 21  1  0  0  0
 16 31  1  0  0  0
 17 18  1  0  0  0
 17101  1  0  0  0
 18 19  2  0  0  0
 18102  1  0  0  0
 19 20  1  0  0  0
 19 24  1  0  0  0
 20 21  2  0  0  0
 20103  1  0  0  0
 21 23  1  0  0  0
 22 28  1  0  0  0
 22 32  2  0  0  0
 26 27  1  0  0  0
 28104  1  0  0  0
 28105  1  0  0  0
 29106  1  0  0  0
 29107  1  0  0  0
 33 34  1  0  0  0
 33 66  1  0  0  0
 33 70  2  0  0  0
 34 36  1  0  0  0
 34 59  1  0  0  0
 34108  1  0  0  0
 35 44  2  0  0  0
 35 45  1  0  0  0
 35 68  1  0  0  0
 36 56  1  0  0  0
 36109  1  0  0  0
 37 39  1  0  0  0
 37 47  1  0  0  0
 37 66  1  0  0  0
 37110  1  0  0  0
 38 43  2  0  0  0
 38 46  1  0  0  0
 38 47  1  0  0  0
 39 64  1  0  0  0
 39 67  2  0  0  0
 40 52  1  0  0  0
 40 53  2  0  0  0
 40 58  1  0  0  0
 41111  1  0  0  0
 41112  1  0  0  0
 41113  1  0  0  0
 41 48  1  0  0  0
 42 43  1  0  0  0
 42 66  1  0  0  0
 42114  1  0  0  0
 42115  1  0  0  0
 43 44  1  0  0  0
 44116  1  0  0  0
 45 46  2  0  0  0
 45117  1  0  0  0
 46118  1  0  0  0
 47119  1  0  0  0
 47120  1  0  0  0
 48 56  1  0  0  0
 48 65  1  0  0  0
 48121  1  0  0  0
 49 50  1  0  0  0
 49 53  1  0  0  0
 49 64  1  0  0  0
 49122  1  0  0  0
 50 51  1  0  0  0
 50123  1  0  0  0
 50124  1  0  0  0
 51 52  1  0  0  0
 51125  1  0  0  0
 51126  1  0  0  0
 52127  1  0  0  0
 52128  1  0  0  0
 53 54  1  0  0  0
 54 55  2  0  0  0
 54129  1  0  0  0
 55 57  1  0  0  0
 55130  1  0  0  0
 56 69  2  0  0  0
 57 58  2  0  0  0
 57131  1  0  0  0
 58132  1  0  0  0
 59 60  1  0  0  0
 59 61  1  0  0  0
 59 62  1  0  0  0
 60133  1  0  0  0
 60134  1  0  0  0
 60135  1  0  0  0
 61136  1  0  0  0
 61137  1  0  0  0
 61138  1  0  0  0
 62139  1  0  0  0
 62140  1  0  0  0
 62141  1  0  0  0
 63 65  1  0  0  0
 63142  1  0  0  0
 63143  1  0  0  0
 63144  1  0  0  0
 64145  1  0  0  0
 65146  1  0  0  0
 68 80  1  0  0  0
 71 73  2  0  0  0
 71 74  1  0  0  0
 71147  1  0  0  0
 72 73  1  0  0  0
 72 75  2  0  0  0
 72148  1  0  0  0
 73 85  1  0  0  0
 74 76  2  0  0  0
 74 82  1  0  0  0
 75 76  1  0  0  0
 75 83  1  0  0  0
 76 86  1  0  0  0
 77 78  1  0  0  0
 77 80  1  0  0  0
 77149  1  0  0  0
 77150  1  0  0  0
 78 81  1  0  0  0
 78151  1  0  0  0
 78152  1  0  0  0
 79 80  1  0  0  0
 79 87  1  0  0  0
 79153  1  0  0  0
 79154  1  0  0  0
 80155  1  0  0  0
 81 84  1  0  0  0
 81 87  1  0  0  0
 81156  1  0  0  0
 82157  1  0  0  0
 82158  1  0  0  0
 82159  1  0  0  0
 83160  1  0  0  0
 83161  1  0  0  0
 83162  1  0  0  0
 84163  1  0  0  0
 84164  1  0  0  0
 84165  1  0  0  0
 85166  1  0  0  0
 85167  1  0  0  0
 85 87  1  0  0  0
 86168  1  0  0  0
 87169  1  0  0  0
M  CHG  1  87   1
M  ISO  4   1 100  68 101  80 101  86 100
M  END
> <chiral flag>
0

> <version>
0

> <s_m_source_file>
/data/baiqing/PycharmProjects/Reinvent-master-3.2/result/LINK_invent/BTK/process_docking_weight1_custom_product_contain_oxygen_bond_distance_aromatic_linkinvent_7_9_3/rearranged_h_0035.sdf

> <i_m_source_file_index>
42

> <r_mmod_Potential_Energy-OPLS-2005>
44.8213157653809

> <r_mmod_Stretch_Energy-OPLS-2005>
82.0088500976562

> <r_mmod_Bend_Energy-OPLS-2005>
185.807723999023

> <r_mmod_Torsional_Energy-OPLS-2005>
294.975524902344

> <r_mmod_Improper_Torsional_Energy-OPLS-2005>
4.93772888183594

> <r_mmod_Van_der_Waal_Energy-OPLS-2005>
147.877151489258

> <r_mmod_Electrostatic_Energy-OPLS-2005>
-304.410552978516

> <r_mmod_Solvation_Energy-OPLS-2005>
-409.700592041016

> <b_mmod_Minimization_Converged-OPLS-2005>
0

> <r_mmod_RMS_Derivative-OPLS-2005>
4.34365320205688

$$$$
43
                    3D
 Structure written by MMmdl.
164173  0  0  1  0            999 V2000
  -30.6068  -14.7395   20.4329 C   0  0  0  0  0  0
  -30.4347  -12.4404   19.4822 C   0  0  0  0  0  0
  -29.5114  -12.4789   18.2420 C   0  0  0  0  0  0
  -28.0344  -12.3265   18.6497 C   0  0  0  0  0  0
  -27.6436  -13.2298   19.8487 C   0  0  2  0  0  0
  -28.6876  -13.1591   20.9859 C   0  0  0  0  0  0
  -25.2519  -13.8194   20.5685 C   0  0  0  0  0  0
  -24.1800  -13.0444   20.9195 C   0  0  0  0  0  0
  -24.6394  -11.6930   20.8745 C   0  0  0  0  0  0
  -23.9075  -10.4299   21.0395 C   0  0  0  0  0  0
  -24.3631   -9.4211   21.9164 C   0  0  0  0  0  0
  -23.6310   -8.2239   22.0736 C   0  0  0  0  0  0
  -22.4289   -8.0274   21.3532 C   0  0  0  0  0  0
  -21.9930   -9.0244   20.4630 C   0  0  0  0  0  0
  -22.7253  -10.2130   20.3036 C   0  0  0  0  0  0
  -21.6857   -6.0736   22.5275 C   0  0  0  0  0  0
  -21.4019   -6.5637   23.8209 C   0  0  0  0  0  0
  -21.3664   -5.6781   24.9165 C   0  0  0  0  0  0
  -21.6052   -4.3046   24.7217 C   0  0  0  0  0  0
  -21.8813   -3.8141   23.4337 C   0  0  0  0  0  0
  -21.9192   -4.6959   22.3396 C   0  0  0  0  0  0
  -22.7815  -13.5207   21.1848 C   0  0  0  0  0  0
  -22.1652   -4.2143   21.0971 F   0  0  0  0  0  0
  -21.5637   -3.4527   25.7730 F   0  0  0  0  0  0
  -29.9925  -13.5072   20.4100 N   0  0  0  0  0  0
  -26.2944  -12.9401   20.3263 N   0  0  0  0  0  0
  -25.9324  -11.6553   20.5762 N   0  0  0  0  0  0
  -22.0462  -12.8201   22.0408 N   0  0  0  0  0  0
  -25.4205  -15.1909   20.4092 N   0  0  0  0  0  0
  -31.8010  -14.8354   20.1407 O   0  0  0  0  0  0
  -21.6638   -6.8883   21.4240 O   0  0  0  0  0  0
  -22.3499  -14.5506   20.6684 O   0  0  0  0  0  0
  -24.6273  -31.8566   23.1952 C   0  0  0  0  0  0
  -25.9107  -32.4760   23.8312 C   0  0  1  0  0  0
  -27.2392  -27.2848   20.1306 C   0  0  0  0  0  0
  -25.5920  -33.8561   24.2243 N   0  0  0  0  0  0
  -23.4242  -30.4749   21.5355 C   0  0  2  0  0  0
  -24.8752  -28.9154   20.1057 C   0  0  0  0  0  0
  -22.7487  -29.4605   22.4892 C   0  0  0  0  0  0
  -18.0292  -28.1384   22.8486 C   0  0  0  0  0  0
  -24.1494  -36.7288   23.2643 C   0  0  0  0  0  0
  -25.9638  -30.7749   21.3703 C   0  0  0  0  0  0
  -26.0381  -29.3966   20.7170 C   0  0  0  0  0  0
  -27.2144  -28.5895   20.7235 C   0  0  0  0  0  0
  -26.0536  -26.8554   19.4946 C   0  0  0  0  0  0
  -24.8869  -27.6525   19.4861 C   0  0  0  0  0  0
  -23.6422  -29.7992   20.1530 C   0  0  0  0  0  0
  -25.4118  -36.3068   24.0325 C   0  0  1  0  0  0
  -20.5899  -28.3701   23.1267 C   0  0  2  0  0  0
  -20.6779  -26.9420   22.5412 C   0  0  0  0  0  0
  -19.5759  -26.6378   21.5215 C   0  0  0  0  0  0
  -18.1934  -26.7926   22.1619 C   0  0  0  0  0  0
  -19.1542  -28.8853   23.2873 C   0  0  0  0  0  0
  -18.9472  -30.1452   23.8893 C   0  0  0  0  0  0
  -17.6471  -30.6584   24.0564 C   0  0  0  0  0  0
  -25.9055  -34.9442   23.5088 C   0  0  0  0  0  0
  -16.5360  -29.9087   23.6328 C   0  0  0  0  0  0
  -16.7278  -28.6504   23.0347 C   0  0  0  0  0  0
  -26.4485  -31.6577   25.0695 C   0  0  0  0  0  0
  -25.3716  -31.3732   26.1424 C   0  0  0  0  0  0
  -27.0337  -30.2999   24.6162 C   0  0  0  0  0  0
  -27.6031  -32.4323   25.7476 C   0  0  0  0  0  0
  -27.5578  -37.1801   24.8463 C   0  0  0  0  0  0
  -21.4191  -29.3051   22.3646 N   0  0  0  0  0  0
  -26.4288  -37.3768   23.9406 N   0  0  0  0  0  0
  -24.6903  -31.0540   22.0911 N   0  0  0  0  0  0
  -23.4197  -28.8157   23.2990 O   0  0  0  0  0  0
  -28.3803  -26.4657   20.2428 O   0  0  0  0  0  0
  -26.5634  -34.8921   22.4665 O   0  0  0  0  0  0
  -23.5431  -32.1378   23.7263 O   0  0  0  0  0  0
  -29.7724  -19.7817   18.6285 C   0  0  0  0  0  0
  -29.5045  -18.4582   20.6428 C   0  0  0  0  0  0
  -29.4471  -19.7676   20.0001 C   0  0  0  0  0  0
  -30.1463  -18.6130   17.9382 C   0  0  0  0  0  0
  -29.8822  -17.2183   19.9691 C   0  0  0  0  0  0
  -30.1851  -17.3491   18.5790 C   0  0  0  0  0  0
  -28.4274  -23.8174   20.5357 C   0  0  0  0  0  0
  -27.8029  -23.8286   21.7266 C   0  0  0  0  0  0
  -30.6444  -23.9291   18.6173 C   0  0  0  0  0  0
  -30.0454  -25.2419   19.1370 C   0  0  0  0  0  0
  -30.5589  -22.8230   19.6803 C   0  0  0  0  0  0
  -28.5880  -25.1186   19.6283 C   0  0  2  0  0  0
  -30.4783  -18.7331   16.4586 C   0  0  0  0  0  0
  -29.0038  -21.1409   20.7088 C   0  0  0  0  0  0
  -29.8202  -15.8715   20.6142 N   0  0  0  0  0  0
  -29.1419  -22.5119   19.9949 N   0  3  1  0  0  0
  -30.5068  -15.9826   17.5631 Cl  0  0  0  0  0  0
  -31.4730  -12.5663   19.1746 H   0  0  0  0  0  0
  -30.3827  -11.4673   19.9734 H   0  0  0  0  0  0
  -29.7903  -11.6895   17.5429 H   0  0  0  0  0  0
  -29.6419  -13.4144   17.7023 H   0  0  0  0  0  0
  -27.8756  -11.2808   18.9125 H   0  0  0  0  0  0
  -27.3851  -12.5242   17.7963 H   0  0  0  0  0  0
  -27.6425  -14.2520   19.4693 H   0  0  0  0  0  0
  -28.7158  -12.1594   21.4213 H   0  0  0  0  0  0
  -28.4227  -13.8408   21.7959 H   0  0  0  0  0  0
  -25.2781   -9.5678   22.4740 H   0  0  0  0  0  0
  -24.0013   -7.4626   22.7469 H   0  0  0  0  0  0
  -21.0847   -8.8765   19.8950 H   0  0  0  0  0  0
  -22.3701  -10.9660   19.6143 H   0  0  0  0  0  0
  -21.2012   -7.6145   23.9718 H   0  0  0  0  0  0
  -21.1496   -6.0507   25.9073 H   0  0  0  0  0  0
  -22.0597   -2.7610   23.2831 H   0  0  0  0  0  0
  -22.4099  -11.9907   22.4850 H   0  0  0  0  0  0
  -21.1071  -13.1213   22.2586 H   0  0  0  0  0  0
  -24.6545  -15.8459   20.5196 H   0  0  0  0  0  0
  -26.2684  -15.6289   20.0733 H   0  0  0  0  0  0
  -26.7169  -32.5425   23.1055 H   0  0  0  0  0  0
  -25.0077  -33.9696   25.0393 H   0  0  0  0  0  0
  -22.7199  -31.2964   21.3864 H   0  0  0  0  0  0
  -23.3749  -35.9629   23.3303 H   0  0  0  0  0  0
  -24.3577  -36.8916   22.2057 H   0  0  0  0  0  0
  -23.7251  -37.6490   23.6675 H   0  0  0  0  0  0
  -26.0971  -31.5338   20.5978 H   0  0  0  0  0  0
  -26.8430  -30.8291   22.0009 H   0  0  0  0  0  0
  -28.1018  -28.9528   21.2231 H   0  0  0  0  0  0
  -25.9979  -25.8818   19.0319 H   0  0  0  0  0  0
  -23.9933  -27.2745   19.0081 H   0  0  0  0  0  0
  -23.7610  -30.5727   19.3932 H   0  0  0  0  0  0
  -22.7627  -29.2278   19.8517 H   0  0  0  0  0  0
  -25.1300  -36.1916   25.0816 H   0  0  0  0  0  0
  -20.9995  -28.3287   24.1387 H   0  0  0  0  0  0
  -20.5673  -26.2320   23.3625 H   0  0  0  0  0  0
  -21.6647  -26.7435   22.1215 H   0  0  0  0  0  0
  -19.6920  -25.6287   21.1257 H   0  0  0  0  0  0
  -19.6695  -27.3176   20.6742 H   0  0  0  0  0  0
  -17.4214  -26.6675   21.4014 H   0  0  0  0  0  0
  -18.0329  -26.0062   22.9012 H   0  0  0  0  0  0
  -19.7947  -30.7269   24.2251 H   0  0  0  0  0  0
  -17.5030  -31.6259   24.5181 H   0  0  0  0  0  0
  -15.5360  -30.2995   23.7644 H   0  0  0  0  0  0
  -15.8679  -28.0827   22.7055 H   0  0  0  0  0  0
  -24.5879  -30.7091   25.7761 H   0  0  0  0  0  0
  -24.8920  -32.2912   26.4835 H   0  0  0  0  0  0
  -25.8033  -30.8920   27.0207 H   0  0  0  0  0  0
  -26.2909  -29.6737   24.1202 H   0  0  0  0  0  0
  -27.4057  -29.7266   25.4663 H   0  0  0  0  0  0
  -27.8772  -30.4286   23.9370 H   0  0  0  0  0  0
  -27.2616  -33.3624   26.2033 H   0  0  0  0  0  0
  -28.3850  -32.6878   25.0312 H   0  0  0  0  0  0
  -28.0687  -31.8464   26.5411 H   0  0  0  0  0  0
  -28.2594  -38.0099   24.7499 H   0  0  0  0  0  0
  -28.1068  -36.2624   24.6297 H   0  0  0  0  0  0
  -27.2298  -37.1464   25.8867 H   0  0  0  0  0  0
  -20.9370  -29.8784   21.6869 H   0  0  0  0  0  0
  -26.0167  -38.2850   24.1384 H   0  0  0  0  0  0
  -29.7273  -20.6997   18.0628 H   0  0  0  0  0  0
  -29.2323  -18.3975   21.6867 H   0  0  0  0  0  0
  -27.3531  -24.7411   22.0924 H   0  0  0  0  0  0
  -27.7226  -22.9559   22.3571 H   0  0  0  0  0  0
  -31.6886  -24.0919   18.3485 H   0  0  0  0  0  0
  -30.1395  -23.6210   17.7008 H   0  0  0  0  0  0
  -30.1133  -26.0068   18.3632 H   0  0  0  0  0  0
  -30.6660  -25.6006   19.9610 H   0  0  0  0  0  0
  -31.0756  -23.1324   20.5914 H   0  0  0  0  0  0
  -31.1003  -21.9492   19.3238 H   0  0  0  0  0  0
  -27.9533  -24.9947   18.7521 H   0  0  0  0  0  0
  -30.4739  -19.7702   16.1217 H   0  0  0  0  0  0
  -29.7495  -18.1869   15.8591 H   0  0  0  0  0  0
  -31.4684  -18.3241   16.2533 H   0  0  0  0  0  0
  -29.5319  -21.2097   21.6609 H   0  0  0  0  0  0
  -27.9523  -21.0163   20.9666 H   0  0  0  0  0  0
  -28.9522  -15.6833   21.0898 H   0  0  0  0  0  0
  -28.7119  -22.3198   19.1029 H   0  0  0  0  0  0
  1 25  1  0  0  0
  1 30  2  0  0  0
  1 85  1  0  0  0
  2  3  1  0  0  0
  2 25  1  0  0  0
  2 88  1  0  0  0
  2 89  1  0  0  0
  3  4  1  0  0  0
  3 90  1  0  0  0
  3 91  1  0  0  0
  4  5  1  0  0  0
  4 92  1  0  0  0
  4 93  1  0  0  0
  5  6  1  0  0  0
  5 26  1  0  0  0
  5 94  1  0  0  0
  6 25  1  0  0  0
  6 95  1  0  0  0
  6 96  1  0  0  0
  7  8  2  0  0  0
  7 26  1  0  0  0
  7 29  1  0  0  0
  8  9  1  0  0  0
  8 22  1  0  0  0
  9 10  1  0  0  0
  9 27  2  0  0  0
 10 11  2  0  0  0
 10 15  1  0  0  0
 11 12  1  0  0  0
 11 97  1  0  0  0
 12 13  2  0  0  0
 12 98  1  0  0  0
 13 14  1  0  0  0
 13 31  1  0  0  0
 14 15  2  0  0  0
 14 99  1  0  0  0
 15100  1  0  0  0
 16 17  2  0  0  0
 16 21  1  0  0  0
 16 31  1  0  0  0
 17 18  1  0  0  0
 17101  1  0  0  0
 18 19  2  0  0  0
 18102  1  0  0  0
 19 20  1  0  0  0
 19 24  1  0  0  0
 20 21  2  0  0  0
 20103  1  0  0  0
 21 23  1  0  0  0
 22 28  1  0  0  0
 22 32  2  0  0  0
 26 27  1  0  0  0
 28104  1  0  0  0
 28105  1  0  0  0
 29106  1  0  0  0
 29107  1  0  0  0
 33 34  1  0  0  0
 33 66  1  0  0  0
 33 70  2  0  0  0
 34 36  1  0  0  0
 34 59  1  0  0  0
 34108  1  0  0  0
 35 44  2  0  0  0
 35 45  1  0  0  0
 35 68  1  0  0  0
 36 56  1  0  0  0
 36109  1  0  0  0
 37 39  1  0  0  0
 37 47  1  0  0  0
 37 66  1  0  0  0
 37110  1  0  0  0
 38 43  2  0  0  0
 38 46  1  0  0  0
 38 47  1  0  0  0
 39 64  1  0  0  0
 39 67  2  0  0  0
 40 52  1  0  0  0
 40 53  2  0  0  0
 40 58  1  0  0  0
 41111  1  0  0  0
 41112  1  0  0  0
 41113  1  0  0  0
 41 48  1  0  0  0
 42 43  1  0  0  0
 42 66  1  0  0  0
 42114  1  0  0  0
 42115  1  0  0  0
 43 44  1  0  0  0
 44116  1  0  0  0
 45 46  2  0  0  0
 45117  1  0  0  0
 46118  1  0  0  0
 47119  1  0  0  0
 47120  1  0  0  0
 48 56  1  0  0  0
 48 65  1  0  0  0
 48121  1  0  0  0
 49 50  1  0  0  0
 49 53  1  0  0  0
 49 64  1  0  0  0
 49122  1  0  0  0
 50 51  1  0  0  0
 50123  1  0  0  0
 50124  1  0  0  0
 51 52  1  0  0  0
 51125  1  0  0  0
 51126  1  0  0  0
 52127  1  0  0  0
 52128  1  0  0  0
 53 54  1  0  0  0
 54 55  2  0  0  0
 54129  1  0  0  0
 55 57  1  0  0  0
 55130  1  0  0  0
 56 69  2  0  0  0
 57 58  2  0  0  0
 57131  1  0  0  0
 58132  1  0  0  0
 59 60  1  0  0  0
 59 61  1  0  0  0
 59 62  1  0  0  0
 60133  1  0  0  0
 60134  1  0  0  0
 60135  1  0  0  0
 61136  1  0  0  0
 61137  1  0  0  0
 61138  1  0  0  0
 62139  1  0  0  0
 62140  1  0  0  0
 62141  1  0  0  0
 63 65  1  0  0  0
 63142  1  0  0  0
 63143  1  0  0  0
 63144  1  0  0  0
 64145  1  0  0  0
 65146  1  0  0  0
 68 82  1  0  0  0
 71 73  2  0  0  0
 71 74  1  0  0  0
 71147  1  0  0  0
 72 73  1  0  0  0
 72 75  2  0  0  0
 72148  1  0  0  0
 73 84  1  0  0  0
 74 76  2  0  0  0
 74 83  1  0  0  0
 75 76  1  0  0  0
 75 85  1  0  0  0
 76 87  1  0  0  0
 77 78  2  0  0  0
 77 82  1  0  0  0
 77 86  1  0  0  0
 78149  1  0  0  0
 78150  1  0  0  0
 79 80  1  0  0  0
 79 81  1  0  0  0
 79151  1  0  0  0
 79152  1  0  0  0
 80 82  1  0  0  0
 80153  1  0  0  0
 80154  1  0  0  0
 81 86  1  0  0  0
 81155  1  0  0  0
 81156  1  0  0  0
 82157  1  0  0  0
 83158  1  0  0  0
 83159  1  0  0  0
 83160  1  0  0  0
 84161  1  0  0  0
 84162  1  0  0  0
 84 86  1  0  0  0
 85163  1  0  0  0
 86164  1  0  0  0
M  CHG  1  86   1
M  ISO  4   1 100  68 101  82 101  85 100
M  END
> <chiral flag>
0

> <version>
0

> <s_m_source_file>
/data/baiqing/PycharmProjects/Reinvent-master-3.2/result/LINK_invent/BTK/process_docking_weight1_custom_product_contain_oxygen_bond_distance_aromatic_linkinvent_7_9_3/rearranged_h_0035.sdf

> <i_m_source_file_index>
43

> <r_mmod_Potential_Energy-OPLS-2005>
56.8533058166504

> <r_mmod_Stretch_Energy-OPLS-2005>
133.283264160156

> <r_mmod_Bend_Energy-OPLS-2005>
182.300659179688

> <r_mmod_Torsional_Energy-OPLS-2005>
245.890991210938

> <r_mmod_Improper_Torsional_Energy-OPLS-2005>
5.36850166320801

> <r_mmod_Van_der_Waal_Energy-OPLS-2005>
145.497085571289

> <r_mmod_Electrostatic_Energy-OPLS-2005>
-277.563751220703

> <r_mmod_Solvation_Energy-OPLS-2005>
-455.686920166016

> <b_mmod_Minimization_Converged-OPLS-2005>
0

> <r_mmod_RMS_Derivative-OPLS-2005>
2.16674065589905

$$$$
44
                    3D
 Structure written by MMmdl.
170179  0  0  1  0            999 V2000
  -30.6191  -14.7406   20.4916 C   0  0  0  0  0  0
  -30.4291  -12.4575   19.4744 C   0  0  0  0  0  0
  -29.5094  -12.5205   18.2365 C   0  0  0  0  0  0
  -28.0342  -12.3424   18.6473 C   0  0  0  0  0  0
  -27.6402  -13.2349   19.8550 C   0  0  2  0  0  0
  -28.6849  -13.1574   20.9901 C   0  0  0  0  0  0
  -25.2479  -13.8186   20.5701 C   0  0  0  0  0  0
  -24.1786  -13.0423   20.9234 C   0  0  0  0  0  0
  -24.6388  -11.6910   20.8756 C   0  0  0  0  0  0
  -23.9069  -10.4279   21.0409 C   0  0  0  0  0  0
  -24.3620   -9.4194   21.9188 C   0  0  0  0  0  0
  -23.6287   -8.2233   22.0757 C   0  0  0  0  0  0
  -22.4269   -8.0270   21.3548 C   0  0  0  0  0  0
  -21.9912   -9.0242   20.4647 C   0  0  0  0  0  0
  -22.7244  -10.2120   20.3058 C   0  0  0  0  0  0
  -21.6846   -6.0726   22.5277 C   0  0  0  0  0  0
  -21.4006   -6.5630   23.8210 C   0  0  0  0  0  0
  -21.3670   -5.6789   24.9177 C   0  0  0  0  0  0
  -21.6056   -4.3051   24.7234 C   0  0  0  0  0  0
  -21.8815   -3.8139   23.4352 C   0  0  0  0  0  0
  -21.9188   -4.6954   22.3404 C   0  0  0  0  0  0
  -22.7807  -13.5201   21.1894 C   0  0  0  0  0  0
  -22.1653   -4.2145   21.0978 F   0  0  0  0  0  0
  -21.5645   -3.4537   25.7746 F   0  0  0  0  0  0
  -29.9871  -13.5176   20.4124 N   0  0  0  0  0  0
  -26.2917  -12.9410   20.3286 N   0  0  0  0  0  0
  -25.9322  -11.6546   20.5754 N   0  0  0  0  0  0
  -22.0452  -12.8179   22.0438 N   0  0  0  0  0  0
  -25.4148  -15.1907   20.4107 N   0  0  0  0  0  0
  -31.8051  -14.8249   20.1572 O   0  0  0  0  0  0
  -21.6634   -6.8870   21.4236 O   0  0  0  0  0  0
  -22.3489  -14.5506   20.6739 O   0  0  0  0  0  0
  -24.6308  -31.8543   23.1978 C   0  0  0  0  0  0
  -25.9119  -32.4766   23.8352 C   0  0  1  0  0  0
  -27.2240  -27.2515   20.1423 C   0  0  0  0  0  0
  -25.5933  -33.8579   24.2261 N   0  0  0  0  0  0
  -23.4307  -30.4761   21.5408 C   0  0  2  0  0  0
  -24.8825  -28.9241   20.1098 C   0  0  0  0  0  0
  -22.7511  -29.4601   22.4908 C   0  0  0  0  0  0
  -18.0296  -28.1384   22.8500 C   0  0  0  0  0  0
  -24.1490  -36.7298   23.2636 C   0  0  0  0  0  0
  -25.9754  -30.7665   21.3797 C   0  0  0  0  0  0
  -26.0515  -29.3873   20.7256 C   0  0  0  0  0  0
  -27.2239  -28.5635   20.7316 C   0  0  0  0  0  0
  -26.0386  -26.8711   19.4730 C   0  0  0  0  0  0
  -24.8824  -27.6764   19.4688 C   0  0  0  0  0  0
  -23.6514  -29.8091   20.1581 C   0  0  0  0  0  0
  -25.4126  -36.3078   24.0308 C   0  0  1  0  0  0
  -20.5899  -28.3715   23.1273 C   0  0  2  0  0  0
  -20.6805  -26.9442   22.5417 C   0  0  0  0  0  0
  -19.5765  -26.6387   21.5234 C   0  0  0  0  0  0
  -18.1933  -26.7930   22.1624 C   0  0  0  0  0  0
  -19.1544  -28.8867   23.2885 C   0  0  0  0  0  0
  -18.9461  -30.1473   23.8900 C   0  0  0  0  0  0
  -17.6461  -30.6603   24.0562 C   0  0  0  0  0  0
  -25.9055  -34.9451   23.5082 C   0  0  0  0  0  0
  -16.5364  -29.9086   23.6328 C   0  0  0  0  0  0
  -16.7281  -28.6497   23.0356 C   0  0  0  0  0  0
  -26.4484  -31.6579   25.0744 C   0  0  0  0  0  0
  -25.3696  -31.3726   26.1461 C   0  0  0  0  0  0
  -27.0329  -30.2999   24.6221 C   0  0  0  0  0  0
  -27.6055  -32.4319   25.7505 C   0  0  0  0  0  0
  -27.5580  -37.1806   24.8454 C   0  0  0  0  0  0
  -21.4213  -29.3053   22.3656 N   0  0  0  0  0  0
  -26.4291  -37.3786   23.9410 N   0  0  0  0  0  0
  -24.6981  -31.0495   22.0963 N   0  0  0  0  0  0
  -23.4202  -28.8126   23.3013 O   0  0  0  0  0  0
  -28.3142  -26.3490   20.2417 O   0  0  0  0  0  0
  -26.5626  -34.8902   22.4652 O   0  0  0  0  0  0
  -23.5448  -32.1380   23.7239 O   0  0  0  0  0  0
  -30.9440  -20.1160   21.0038 C   0  0  0  0  0  0
  -31.5032  -17.7239   21.1220 C   0  0  0  0  0  0
  -31.8694  -19.0813   21.2484 C   0  0  0  0  0  0
  -29.6043  -19.8481   20.6551 C   0  0  0  0  0  0
  -29.2344  -18.4259   20.5728 C   0  0  0  0  0  0
  -30.1877  -17.3319   20.7776 C   0  0  0  0  0  0
  -28.7543  -22.9360   18.5840 C   0  0  0  0  0  0
  -28.7618  -22.2089   17.4467 C   0  0  0  0  0  0
  -28.4085  -24.4286   18.6224 C   0  0  0  0  0  0
  -28.9393  -23.7415   20.8391 C   0  0  0  0  0  0
  -28.1159  -24.8587   20.0570 C   0  0  1  0  0  0
  -33.2760  -19.4346   21.6963 C   0  0  0  0  0  0
  -29.1404  -20.7584   17.2295 C   0  0  0  0  0  0
  -27.5398  -17.5797   18.8654 C   0  0  0  0  0  0
  -27.7826  -18.0436   20.3082 C   0  0  0  0  0  0
  -28.6265  -21.1162   20.4807 C   0  0  0  0  0  0
  -29.8476  -15.8754   20.7303 N   0  0  0  0  0  0
  -29.1417  -22.4903   19.9770 N   0  3  1  0  0  0
  -31.4715  -12.5756   19.1753 H   0  0  0  0  0  0
  -30.3662  -11.4768   19.9507 H   0  0  0  0  0  0
  -29.7914  -11.7527   17.5153 H   0  0  0  0  0  0
  -29.6381  -13.4783   17.7316 H   0  0  0  0  0  0
  -27.8911  -11.2922   18.9039 H   0  0  0  0  0  0
  -27.3775  -12.5405   17.7992 H   0  0  0  0  0  0
  -27.6352  -14.2591   19.4824 H   0  0  0  0  0  0
  -28.7194  -12.1534   21.4144 H   0  0  0  0  0  0
  -28.4198  -13.8248   21.8105 H   0  0  0  0  0  0
  -25.2774   -9.5650   22.4765 H   0  0  0  0  0  0
  -24.0000   -7.4614   22.7467 H   0  0  0  0  0  0
  -21.0858   -8.8749   19.8940 H   0  0  0  0  0  0
  -22.3716  -10.9651   19.6158 H   0  0  0  0  0  0
  -21.1974   -7.6135   23.9712 H   0  0  0  0  0  0
  -21.1513   -6.0521   25.9084 H   0  0  0  0  0  0
  -22.0585   -2.7602   23.2856 H   0  0  0  0  0  0
  -22.4073  -11.9838   22.4819 H   0  0  0  0  0  0
  -21.1069  -13.1190   22.2638 H   0  0  0  0  0  0
  -24.6399  -15.8384   20.5084 H   0  0  0  0  0  0
  -26.2398  -15.6168   20.0129 H   0  0  0  0  0  0
  -26.7193  -32.5423   23.1105 H   0  0  0  0  0  0
  -25.0104  -33.9751   25.0415 H   0  0  0  0  0  0
  -22.7287  -31.2997   21.3928 H   0  0  0  0  0  0
  -23.3751  -35.9624   23.3279 H   0  0  0  0  0  0
  -24.3581  -36.8963   22.2056 H   0  0  0  0  0  0
  -23.7229  -37.6490   23.6677 H   0  0  0  0  0  0
  -26.1085  -31.5232   20.6050 H   0  0  0  0  0  0
  -26.8550  -30.8237   22.0088 H   0  0  0  0  0  0
  -28.1154  -28.9080   21.2358 H   0  0  0  0  0  0
  -25.9656  -25.9259   18.9587 H   0  0  0  0  0  0
  -23.9926  -27.3251   18.9645 H   0  0  0  0  0  0
  -23.7773  -30.5869   19.4031 H   0  0  0  0  0  0
  -22.7697  -29.2432   19.8507 H   0  0  0  0  0  0
  -25.1288  -36.1938   25.0792 H   0  0  0  0  0  0
  -20.9997  -28.3305   24.1387 H   0  0  0  0  0  0
  -20.5735  -26.2330   23.3612 H   0  0  0  0  0  0
  -21.6662  -26.7481   22.1182 H   0  0  0  0  0  0
  -19.6951  -25.6288   21.1259 H   0  0  0  0  0  0
  -19.6700  -27.3195   20.6751 H   0  0  0  0  0  0
  -17.4221  -26.6704   21.4005 H   0  0  0  0  0  0
  -18.0339  -26.0055   22.8994 H   0  0  0  0  0  0
  -19.7936  -30.7308   24.2254 H   0  0  0  0  0  0
  -17.4998  -31.6266   24.5181 H   0  0  0  0  0  0
  -15.5354  -30.2978   23.7655 H   0  0  0  0  0  0
  -15.8673  -28.0805   22.7074 H   0  0  0  0  0  0
  -24.5890  -30.7054   25.7786 H   0  0  0  0  0  0
  -24.8846  -32.2878   26.4862 H   0  0  0  0  0  0
  -25.7999  -30.8926   27.0256 H   0  0  0  0  0  0
  -26.2901  -29.6773   24.1222 H   0  0  0  0  0  0
  -27.3991  -29.7257   25.4742 H   0  0  0  0  0  0
  -27.8781  -30.4291   23.9462 H   0  0  0  0  0  0
  -27.2690  -33.3648   26.2043 H   0  0  0  0  0  0
  -28.3870  -32.6850   25.0321 H   0  0  0  0  0  0
  -28.0696  -31.8464   26.5454 H   0  0  0  0  0  0
  -28.2570  -38.0126   24.7532 H   0  0  0  0  0  0
  -28.1095  -36.2665   24.6228 H   0  0  0  0  0  0
  -27.2298  -37.1391   25.8853 H   0  0  0  0  0  0
  -20.9406  -29.8778   21.6856 H   0  0  0  0  0  0
  -26.0164  -38.2850   24.1440 H   0  0  0  0  0  0
  -31.2723  -21.1392   21.1242 H   0  0  0  0  0  0
  -32.2539  -16.9786   21.3412 H   0  0  0  0  0  0
  -28.4630  -22.7174   16.5393 H   0  0  0  0  0  0
  -27.5774  -24.6549   17.9552 H   0  0  0  0  0  0
  -29.2789  -24.9712   18.2542 H   0  0  0  0  0  0
  -28.4887  -23.5172   21.8074 H   0  0  0  0  0  0
  -29.9324  -24.1391   21.0517 H   0  0  0  0  0  0
  -27.0777  -24.6173   20.2819 H   0  0  0  0  0  0
  -33.4692  -20.5051   21.6077 H   0  0  0  0  0  0
  -34.0228  -18.9096   21.1002 H   0  0  0  0  0  0
  -33.4145  -19.1571   22.7427 H   0  0  0  0  0  0
  -29.5524  -20.2774   18.1095 H   0  0  0  0  0  0
  -29.8907  -20.6938   16.4417 H   0  0  0  0  0  0
  -28.2686  -20.1972   16.8952 H   0  0  0  0  0  0
  -26.4961  -17.3024   18.7145 H   0  0  0  0  0  0
  -28.1526  -16.7149   18.6112 H   0  0  0  0  0  0
  -27.7743  -18.3663   18.1522 H   0  0  0  0  0  0
  -27.1136  -18.8666   20.5535 H   0  0  0  0  0  0
  -27.5018  -17.2519   21.0029 H   0  0  0  0  0  0
  -28.1426  -21.2666   21.4456 H   0  0  0  0  0  0
  -27.8170  -20.8294   19.8110 H   0  0  0  0  0  0
  -28.8710  -15.6642   20.8608 H   0  0  0  0  0  0
  -30.1418  -22.3565   19.9680 H   0  0  0  0  0  0
  1 25  1  0  0  0
  1 30  2  0  0  0
  1 87  1  0  0  0
  2  3  1  0  0  0
  2 25  1  0  0  0
  2 89  1  0  0  0
  2 90  1  0  0  0
  3  4  1  0  0  0
  3 91  1  0  0  0
  3 92  1  0  0  0
  4  5  1  0  0  0
  4 93  1  0  0  0
  4 94  1  0  0  0
  5  6  1  0  0  0
  5 26  1  0  0  0
  5 95  1  0  0  0
  6 25  1  0  0  0
  6 96  1  0  0  0
  6 97  1  0  0  0
  7  8  2  0  0  0
  7 26  1  0  0  0
  7 29  1  0  0  0
  8  9  1  0  0  0
  8 22  1  0  0  0
  9 10  1  0  0  0
  9 27  2  0  0  0
 10 11  2  0  0  0
 10 15  1  0  0  0
 11 12  1  0  0  0
 11 98  1  0  0  0
 12 13  2  0  0  0
 12 99  1  0  0  0
 13 14  1  0  0  0
 13 31  1  0  0  0
 14 15  2  0  0  0
 14100  1  0  0  0
 15101  1  0  0  0
 16 17  2  0  0  0
 16 21  1  0  0  0
 16 31  1  0  0  0
 17 18  1  0  0  0
 17102  1  0  0  0
 18 19  2  0  0  0
 18103  1  0  0  0
 19 20  1  0  0  0
 19 24  1  0  0  0
 20 21  2  0  0  0
 20104  1  0  0  0
 21 23  1  0  0  0
 22 28  1  0  0  0
 22 32  2  0  0  0
 26 27  1  0  0  0
 28105  1  0  0  0
 28106  1  0  0  0
 29107  1  0  0  0
 29108  1  0  0  0
 33 34  1  0  0  0
 33 66  1  0  0  0
 33 70  2  0  0  0
 34 36  1  0  0  0
 34 59  1  0  0  0
 34109  1  0  0  0
 35 44  2  0  0  0
 35 45  1  0  0  0
 35 68  1  0  0  0
 36 56  1  0  0  0
 36110  1  0  0  0
 37 39  1  0  0  0
 37 47  1  0  0  0
 37 66  1  0  0  0
 37111  1  0  0  0
 38 43  2  0  0  0
 38 46  1  0  0  0
 38 47  1  0  0  0
 39 64  1  0  0  0
 39 67  2  0  0  0
 40 52  1  0  0  0
 40 53  2  0  0  0
 40 58  1  0  0  0
 41112  1  0  0  0
 41113  1  0  0  0
 41114  1  0  0  0
 41 48  1  0  0  0
 42 43  1  0  0  0
 42 66  1  0  0  0
 42115  1  0  0  0
 42116  1  0  0  0
 43 44  1  0  0  0
 44117  1  0  0  0
 45 46  2  0  0  0
 45118  1  0  0  0
 46119  1  0  0  0
 47120  1  0  0  0
 47121  1  0  0  0
 48 56  1  0  0  0
 48 65  1  0  0  0
 48122  1  0  0  0
 49 50  1  0  0  0
 49 53  1  0  0  0
 49 64  1  0  0  0
 49123  1  0  0  0
 50 51  1  0  0  0
 50124  1  0  0  0
 50125  1  0  0  0
 51 52  1  0  0  0
 51126  1  0  0  0
 51127  1  0  0  0
 52128  1  0  0  0
 52129  1  0  0  0
 53 54  1  0  0  0
 54 55  2  0  0  0
 54130  1  0  0  0
 55 57  1  0  0  0
 55131  1  0  0  0
 56 69  2  0  0  0
 57 58  2  0  0  0
 57132  1  0  0  0
 58133  1  0  0  0
 59 60  1  0  0  0
 59 61  1  0  0  0
 59 62  1  0  0  0
 60134  1  0  0  0
 60135  1  0  0  0
 60136  1  0  0  0
 61137  1  0  0  0
 61138  1  0  0  0
 61139  1  0  0  0
 62140  1  0  0  0
 62141  1  0  0  0
 62142  1  0  0  0
 63 65  1  0  0  0
 63143  1  0  0  0
 63144  1  0  0  0
 63145  1  0  0  0
 64146  1  0  0  0
 65147  1  0  0  0
 68 81  1  0  0  0
 71 73  2  0  0  0
 71 74  1  0  0  0
 71148  1  0  0  0
 72 73  1  0  0  0
 72 76  2  0  0  0
 72149  1  0  0  0
 73 82  1  0  0  0
 74 75  2  0  0  0
 74 86  1  0  0  0
 75 76  1  0  0  0
 75 85  1  0  0  0
 76 87  1  0  0  0
 77 78  2  0  0  0
 77 79  1  0  0  0
 77 88  1  0  0  0
 78 83  1  0  0  0
 78150  1  0  0  0
 79 81  1  0  0  0
 79151  1  0  0  0
 79152  1  0  0  0
 80 81  1  0  0  0
 80 88  1  0  0  0
 80153  1  0  0  0
 80154  1  0  0  0
 81155  1  0  0  0
 82156  1  0  0  0
 82157  1  0  0  0
 82158  1  0  0  0
 83159  1  0  0  0
 83160  1  0  0  0
 83161  1  0  0  0
 84 85  1  0  0  0
 84162  1  0  0  0
 84163  1  0  0  0
 84164  1  0  0  0
 85165  1  0  0  0
 85166  1  0  0  0
 86167  1  0  0  0
 86168  1  0  0  0
 86 88  1  0  0  0
 87169  1  0  0  0
 88170  1  0  0  0
M  CHG  1  88   1
M  ISO  4   1 100  68 101  81 101  87 100
M  END
> <chiral flag>
0

> <version>
0

> <s_m_source_file>
/data/baiqing/PycharmProjects/Reinvent-master-3.2/result/LINK_invent/BTK/process_docking_weight1_custom_product_contain_oxygen_bond_distance_aromatic_linkinvent_7_9_3/rearranged_h_0035.sdf

> <i_m_source_file_index>
44

> <r_mmod_Potential_Energy-OPLS-2005>
100.885681152344

> <r_mmod_Stretch_Energy-OPLS-2005>
135.689361572266

> <r_mmod_Bend_Energy-OPLS-2005>
203.019348144531

> <r_mmod_Torsional_Energy-OPLS-2005>
252.576461791992

> <r_mmod_Improper_Torsional_Energy-OPLS-2005>
5.62275791168213

> <r_mmod_Van_der_Waal_Energy-OPLS-2005>
128.881164550781

> <r_mmod_Electrostatic_Energy-OPLS-2005>
-290.282501220703

> <r_mmod_Solvation_Energy-OPLS-2005>
-422.260284423828

> <b_mmod_Minimization_Converged-OPLS-2005>
0

> <r_mmod_RMS_Derivative-OPLS-2005>
2.92202997207642

$$$$
45
                    3D
 Structure written by MMmdl.
163172  0  0  1  0            999 V2000
  -30.4279  -15.3656   20.3338 C   0  0  0  0  0  0
  -30.4297  -12.8858   19.5212 C   0  0  0  0  0  0
  -29.5358  -12.5841   18.2914 C   0  0  0  0  0  0
  -28.0885  -12.2966   18.7252 C   0  0  0  0  0  0
  -27.6013  -13.2877   19.8102 C   0  0  2  0  0  0
  -28.6322  -13.5257   20.9336 C   0  0  0  0  0  0
  -25.2352  -13.8265   20.5757 C   0  0  0  0  0  0
  -24.1714  -13.0438   20.9267 C   0  0  0  0  0  0
  -24.6381  -11.6938   20.8749 C   0  0  0  0  0  0
  -23.9086  -10.4288   21.0393 C   0  0  0  0  0  0
  -24.3633   -9.4207   21.9176 C   0  0  0  0  0  0
  -23.6304   -8.2245   22.0755 C   0  0  0  0  0  0
  -22.4288   -8.0279   21.3548 C   0  0  0  0  0  0
  -21.9925   -9.0245   20.4647 C   0  0  0  0  0  0
  -22.7256  -10.2123   20.3046 C   0  0  0  0  0  0
  -21.6858   -6.0728   22.5270 C   0  0  0  0  0  0
  -21.4021   -6.5633   23.8203 C   0  0  0  0  0  0
  -21.3654   -5.6788   24.9163 C   0  0  0  0  0  0
  -21.6047   -4.3050   24.7221 C   0  0  0  0  0  0
  -21.8814   -3.8139   23.4338 C   0  0  0  0  0  0
  -21.9195   -4.6953   22.3395 C   0  0  0  0  0  0
  -22.7727  -13.5176   21.1906 C   0  0  0  0  0  0
  -22.1660   -4.2133   21.0974 F   0  0  0  0  0  0
  -21.5635   -3.4537   25.7735 F   0  0  0  0  0  0
  -29.8437  -14.0573   20.2842 N   0  0  0  0  0  0
  -26.2775  -12.9558   20.3198 N   0  0  0  0  0  0
  -25.9319  -11.6650   20.5697 N   0  0  0  0  0  0
  -22.0393  -12.8152   22.0460 N   0  0  0  0  0  0
  -25.3998  -15.1999   20.4194 N   0  0  0  0  0  0
  -31.6652  -15.2850   20.2667 O   0  0  0  0  0  0
  -21.6652   -6.8872   21.4238 O   0  0  0  0  0  0
  -22.3399  -14.5477   20.6745 O   0  0  0  0  0  0
  -24.6700  -31.8172   23.1649 C   0  0  0  0  0  0
  -25.9348  -32.4557   23.8145 C   0  0  1  0  0  0
  -27.2164  -26.8598   20.1985 C   0  0  0  0  0  0
  -25.5999  -33.8375   24.2050 N   0  0  0  0  0  0
  -23.4878  -30.4263   21.5152 C   0  0  2  0  0  0
  -24.9415  -28.7975   20.1169 C   0  0  0  0  0  0
  -22.7693  -29.4419   22.4753 C   0  0  0  0  0  0
  -18.0332  -28.1410   22.8453 C   0  0  0  0  0  0
  -24.1501  -36.7187   23.2646 C   0  0  0  0  0  0
  -26.0610  -30.6015   21.4037 C   0  0  0  0  0  0
  -26.1279  -29.1826   20.7540 C   0  0  0  0  0  0
  -27.2604  -28.2379   20.7639 C   0  0  0  0  0  0
  -26.0019  -26.6449   19.5078 C   0  0  0  0  0  0
  -24.9074  -27.5511   19.4715 C   0  0  0  0  0  0
  -23.7324  -29.7359   20.1448 C   0  0  0  0  0  0
  -25.4139  -36.2944   24.0297 C   0  0  1  0  0  0
  -20.5958  -28.3770   23.1156 C   0  0  2  0  0  0
  -20.6804  -26.9443   22.5388 C   0  0  0  0  0  0
  -19.5786  -26.6379   21.5195 C   0  0  0  0  0  0
  -18.1968  -26.7944   22.1605 C   0  0  0  0  0  0
  -19.1589  -28.8909   23.2799 C   0  0  0  0  0  0
  -18.9498  -30.1490   23.8850 C   0  0  0  0  0  0
  -17.6492  -30.6597   24.0550 C   0  0  0  0  0  0
  -25.9109  -34.9331   23.4992 C   0  0  0  0  0  0
  -16.5384  -29.9081   23.6340 C   0  0  0  0  0  0
  -16.7314  -28.6498   23.0363 C   0  0  0  0  0  0
  -26.4586  -31.6520   25.0693 C   0  0  0  0  0  0
  -25.3706  -31.3757   26.1337 C   0  0  0  0  0  0
  -27.0475  -30.2882   24.6445 C   0  0  0  0  0  0
  -27.6079  -32.4337   25.7492 C   0  0  0  0  0  0
  -27.5571  -37.1743   24.8463 C   0  0  0  0  0  0
  -21.4355  -29.3057   22.3501 N   0  0  0  0  0  0
  -26.4273  -37.3691   23.9416 N   0  0  0  0  0  0
  -24.7619  -30.9774   22.0814 N   0  0  0  0  0  0
  -23.4207  -28.8006   23.3034 O   0  0  0  0  0  0
  -28.2088  -25.7219   20.2321 O   0  0  0  0  0  0
  -26.5716  -34.8881   22.4587 O   0  0  0  0  0  0
  -23.5755  -32.1166   23.6705 O   0  0  0  0  0  0
  -31.6615  -20.1491   18.1045 C   0  0  0  0  0  0
  -32.0254  -18.8200   18.1536 C   0  0  0  0  0  0
  -29.6820  -19.7802   19.5736 C   0  0  0  0  0  0
  -30.0811  -18.1904   19.6063 C   0  0  0  0  0  0
  -30.3712  -20.4780   18.5199 C   0  0  0  0  0  0
  -31.0985  -17.8906   18.6258 C   0  0  0  0  0  0
  -28.7742  -21.1097   20.2033 C   0  0  0  0  0  0
  -28.8543  -22.6091   20.0831 C   0  0  0  0  0  0
  -31.4738  -24.7248   16.1973 C   0  0  0  0  0  0
  -30.2281  -25.3215   16.8458 C   0  0  0  0  0  0
  -31.5054  -23.2727   16.6909 C   0  0  0  0  0  0
  -29.2683  -24.1367   16.9198 C   0  0  0  0  0  0
  -27.9103  -24.0775   20.4075 C   0  0  0  0  0  0
  -30.1392  -22.9810   17.1518 N   0  0  0  0  0  0
  -29.7269  -16.7128   20.2566 N   0  0  0  0  0  0
  -29.8972  -20.7700   15.8819 O   0  0  0  0  0  0
  -28.0547  -21.4771   17.4488 O   0  0  0  0  0  0
  -29.4957  -21.3686   17.1655 S   0  0  0  0  0  0
  -31.1157  -16.4561   17.6408 Cl  0  0  0  0  0  0
  -31.4399  -13.1032   19.1721 H   0  0  0  0  0  0
  -30.5249  -12.0087   20.1634 H   0  0  0  0  0  0
  -29.9360  -11.7394   17.7287 H   0  0  0  0  0  0
  -29.5520  -13.4392   17.6130 H   0  0  0  0  0  0
  -28.0583  -11.2815   19.1229 H   0  0  0  0  0  0
  -27.4196  -12.3086   17.8636 H   0  0  0  0  0  0
  -27.4963  -14.2377   19.2840 H   0  0  0  0  0  0
  -28.8293  -12.6149   21.5006 H   0  0  0  0  0  0
  -28.2529  -14.2616   21.6437 H   0  0  0  0  0  0
  -25.2772   -9.5695   22.4756 H   0  0  0  0  0  0
  -24.0003   -7.4647   22.7489 H   0  0  0  0  0  0
  -21.0850   -8.8760   19.8963 H   0  0  0  0  0  0
  -22.3699  -10.9657   19.6153 H   0  0  0  0  0  0
  -21.2019   -7.6144   23.9694 H   0  0  0  0  0  0
  -21.1487   -6.0526   25.9067 H   0  0  0  0  0  0
  -22.0601   -2.7599   23.2842 H   0  0  0  0  0  0
  -22.4032  -11.9824   22.4847 H   0  0  0  0  0  0
  -21.1001  -13.1152   22.2658 H   0  0  0  0  0  0
  -24.6393  -15.8577   20.5515 H   0  0  0  0  0  0
  -26.2410  -15.6333   20.0625 H   0  0  0  0  0  0
  -26.7421  -32.5078   23.0858 H   0  0  0  0  0  0
  -25.0130  -33.9451   25.0193 H   0  0  0  0  0  0
  -22.8052  -31.2597   21.3372 H   0  0  0  0  0  0
  -23.3782  -35.9497   23.3257 H   0  0  0  0  0  0
  -24.3592  -36.8888   22.2074 H   0  0  0  0  0  0
  -23.7240  -37.6351   23.6736 H   0  0  0  0  0  0
  -26.2472  -31.3355   20.6185 H   0  0  0  0  0  0
  -26.9189  -30.6656   22.0602 H   0  0  0  0  0  0
  -28.1621  -28.5348   21.2811 H   0  0  0  0  0  0
  -25.8687  -25.7020   18.9975 H   0  0  0  0  0  0
  -24.0112  -27.2525   18.9455 H   0  0  0  0  0  0
  -23.8982  -30.5006   19.3853 H   0  0  0  0  0  0
  -22.8400  -29.1962   19.8237 H   0  0  0  0  0  0
  -25.1342  -36.1726   25.0788 H   0  0  0  0  0  0
  -21.0050  -28.3395   24.1277 H   0  0  0  0  0  0
  -20.5654  -26.2405   23.3641 H   0  0  0  0  0  0
  -21.6672  -26.7399   22.1214 H   0  0  0  0  0  0
  -19.6947  -25.6271   21.1272 H   0  0  0  0  0  0
  -19.6726  -27.3146   20.6688 H   0  0  0  0  0  0
  -17.4231  -26.6672   21.4017 H   0  0  0  0  0  0
  -18.0377  -26.0097   22.9014 H   0  0  0  0  0  0
  -19.7974  -30.7307   24.2209 H   0  0  0  0  0  0
  -17.5045  -31.6267   24.5166 H   0  0  0  0  0  0
  -15.5381  -30.2967   23.7684 H   0  0  0  0  0  0
  -15.8715  -28.0792   22.7117 H   0  0  0  0  0  0
  -24.5931  -30.7067   25.7632 H   0  0  0  0  0  0
  -24.8846  -32.2940   26.4639 H   0  0  0  0  0  0
  -25.7945  -30.9007   27.0195 H   0  0  0  0  0  0
  -26.3130  -29.6554   24.1448 H   0  0  0  0  0  0
  -27.3988  -29.7264   25.5109 H   0  0  0  0  0  0
  -27.9098  -30.4053   23.9880 H   0  0  0  0  0  0
  -27.2663  -33.3702   26.1911 H   0  0  0  0  0  0
  -28.3968  -32.6784   25.0369 H   0  0  0  0  0  0
  -28.0659  -31.8560   26.5529 H   0  0  0  0  0  0
  -28.2544  -38.0080   24.7532 H   0  0  0  0  0  0
  -28.1110  -36.2602   24.6257 H   0  0  0  0  0  0
  -27.2294  -37.1348   25.8867 H   0  0  0  0  0  0
  -20.9621  -29.8751   21.6621 H   0  0  0  0  0  0
  -26.0111  -38.2743   24.1435 H   0  0  0  0  0  0
  -32.1927  -20.7673   17.3989 H   0  0  0  0  0  0
  -32.8410  -18.5012   17.5213 H   0  0  0  0  0  0
  -27.8960  -20.7632   20.7295 H   0  0  0  0  0  0
  -29.7621  -22.9322   19.6039 H   0  0  0  0  0  0
  -32.3832  -25.2727   16.4480 H   0  0  0  0  0  0
  -31.3663  -24.7473   15.1117 H   0  0  0  0  0  0
  -29.8200  -26.1646   16.2866 H   0  0  0  0  0  0
  -30.4615  -25.6703   17.8531 H   0  0  0  0  0  0
  -32.2060  -23.1449   17.5169 H   0  0  0  0  0  0
  -31.7998  -22.5983   15.8850 H   0  0  0  0  0  0
  -28.7441  -24.0032   15.9723 H   0  0  0  0  0  0
  -28.5217  -24.2478   17.7054 H   0  0  0  0  0  0
  -27.6222  -23.9765   21.4537 H   0  0  0  0  0  0
  -26.9808  -23.9009   19.8662 H   0  0  0  0  0  0
  -28.7581  -16.6311   20.5249 H   0  0  0  0  0  0
  1 25  1  0  0  0
  1 30  2  0  0  0
  1 85  1  0  0  0
  2  3  1  0  0  0
  2 25  1  0  0  0
  2 90  1  0  0  0
  2 91  1  0  0  0
  3  4  1  0  0  0
  3 92  1  0  0  0
  3 93  1  0  0  0
  4  5  1  0  0  0
  4 94  1  0  0  0
  4 95  1  0  0  0
  5  6  1  0  0  0
  5 26  1  0  0  0
  5 96  1  0  0  0
  6 25  1  0  0  0
  6 97  1  0  0  0
  6 98  1  0  0  0
  7  8  2  0  0  0
  7 26  1  0  0  0
  7 29  1  0  0  0
  8  9  1  0  0  0
  8 22  1  0  0  0
  9 10  1  0  0  0
  9 27  2  0  0  0
 10 11  2  0  0  0
 10 15  1  0  0  0
 11 12  1  0  0  0
 11 99  1  0  0  0
 12 13  2  0  0  0
 12100  1  0  0  0
 13 14  1  0  0  0
 13 31  1  0  0  0
 14 15  2  0  0  0
 14101  1  0  0  0
 15102  1  0  0  0
 16 17  2  0  0  0
 16 21  1  0  0  0
 16 31  1  0  0  0
 17 18  1  0  0  0
 17103  1  0  0  0
 18 19  2  0  0  0
 18104  1  0  0  0
 19 20  1  0  0  0
 19 24  1  0  0  0
 20 21  2  0  0  0
 20105  1  0  0  0
 21 23  1  0  0  0
 22 28  1  0  0  0
 22 32  2  0  0  0
 26 27  1  0  0  0
 28106  1  0  0  0
 28107  1  0  0  0
 29108  1  0  0  0
 29109  1  0  0  0
 33 34  1  0  0  0
 33 66  1  0  0  0
 33 70  2  0  0  0
 34 36  1  0  0  0
 34 59  1  0  0  0
 34110  1  0  0  0
 35 44  2  0  0  0
 35 45  1  0  0  0
 35 68  1  0  0  0
 36 56  1  0  0  0
 36111  1  0  0  0
 37 39  1  0  0  0
 37 47  1  0  0  0
 37 66  1  0  0  0
 37112  1  0  0  0
 38 43  2  0  0  0
 38 46  1  0  0  0
 38 47  1  0  0  0
 39 64  1  0  0  0
 39 67  2  0  0  0
 40 52  1  0  0  0
 40 53  2  0  0  0
 40 58  1  0  0  0
 41113  1  0  0  0
 41114  1  0  0  0
 41115  1  0  0  0
 41 48  1  0  0  0
 42 43  1  0  0  0
 42 66  1  0  0  0
 42116  1  0  0  0
 42117  1  0  0  0
 43 44  1  0  0  0
 44118  1  0  0  0
 45 46  2  0  0  0
 45119  1  0  0  0
 46120  1  0  0  0
 47121  1  0  0  0
 47122  1  0  0  0
 48 56  1  0  0  0
 48 65  1  0  0  0
 48123  1  0  0  0
 49 50  1  0  0  0
 49 53  1  0  0  0
 49 64  1  0  0  0
 49124  1  0  0  0
 50 51  1  0  0  0
 50125  1  0  0  0
 50126  1  0  0  0
 51 52  1  0  0  0
 51127  1  0  0  0
 51128  1  0  0  0
 52129  1  0  0  0
 52130  1  0  0  0
 53 54  1  0  0  0
 54 55  2  0  0  0
 54131  1  0  0  0
 55 57  1  0  0  0
 55132  1  0  0  0
 56 69  2  0  0  0
 57 58  2  0  0  0
 57133  1  0  0  0
 58134  1  0  0  0
 59 60  1  0  0  0
 59 61  1  0  0  0
 59 62  1  0  0  0
 60135  1  0  0  0
 60136  1  0  0  0
 60137  1  0  0  0
 61138  1  0  0  0
 61139  1  0  0  0
 61140  1  0  0  0
 62141  1  0  0  0
 62142  1  0  0  0
 62143  1  0  0  0
 63 65  1  0  0  0
 63144  1  0  0  0
 63145  1  0  0  0
 63146  1  0  0  0
 64147  1  0  0  0
 65148  1  0  0  0
 68 83  1  0  0  0
 71 72  2  0  0  0
 71 75  1  0  0  0
 71149  1  0  0  0
 72 76  1  0  0  0
 72150  1  0  0  0
 73 74  1  0  0  0
 73 75  2  0  0  0
 73 77  1  0  0  0
 74 76  2  0  0  0
 74 85  1  0  0  0
 75 88  1  0  0  0
 76 89  1  0  0  0
 77 78  2  0  0  0
 77151  1  0  0  0
 78 83  1  0  0  0
 78152  1  0  0  0
 79 80  1  0  0  0
 79 81  1  0  0  0
 79153  1  0  0  0
 79154  1  0  0  0
 80 82  1  0  0  0
 80155  1  0  0  0
 80156  1  0  0  0
 81 84  1  0  0  0
 81157  1  0  0  0
 81158  1  0  0  0
 82 84  1  0  0  0
 82159  1  0  0  0
 82160  1  0  0  0
 83161  1  0  0  0
 83162  1  0  0  0
 84 88  1  0  0  0
 85163  1  0  0  0
 86 88  2  0  0  0
 87 88  2  0  0  0
M  ISO  4   1 100  68 101  83 101  85 100
M  END
> <chiral flag>
0

> <version>
0

> <s_m_source_file>
/data/baiqing/PycharmProjects/Reinvent-master-3.2/result/LINK_invent/BTK/process_docking_weight1_custom_product_contain_oxygen_bond_distance_aromatic_linkinvent_7_9_3/rearranged_h_0035.sdf

> <i_m_source_file_index>
45

> <r_mmod_Potential_Energy-OPLS-2005>
1905.52453613281

> <r_mmod_Stretch_Energy-OPLS-2005>
772.883972167969

> <r_mmod_Bend_Energy-OPLS-2005>
583.634643554688

> <r_mmod_Torsional_Energy-OPLS-2005>
449.819671630859

> <r_mmod_Improper_Torsional_Energy-OPLS-2005>
17.8612632751465

> <r_mmod_Van_der_Waal_Energy-OPLS-2005>
150.330139160156

> <r_mmod_Electrostatic_Energy-OPLS-2005>
-387.963134765625

> <r_mmod_Solvation_Energy-OPLS-2005>
-247.625152587891

> <b_mmod_Minimization_Converged-OPLS-2005>
0

> <r_mmod_RMS_Derivative-OPLS-2005>
1.65904140472412

$$$$
46
                    3D
 Structure written by MMmdl.
166175  0  0  1  0            999 V2000
  -30.6113  -14.6530   20.4949 C   0  0  0  0  0  0
  -30.4427  -12.4036   19.4479 C   0  0  0  0  0  0
  -29.5100  -12.5197   18.2215 C   0  0  0  0  0  0
  -28.0333  -12.3535   18.6338 C   0  0  0  0  0  0
  -27.6545  -13.2173   19.8651 C   0  0  2  0  0  0
  -28.7008  -13.0694   20.9930 C   0  0  0  0  0  0
  -25.2564  -13.8162   20.5688 C   0  0  0  0  0  0
  -24.1829  -13.0428   20.9183 C   0  0  0  0  0  0
  -24.6398  -11.6900   20.8728 C   0  0  0  0  0  0
  -23.9060  -10.4283   21.0396 C   0  0  0  0  0  0
  -24.3611   -9.4201   21.9181 C   0  0  0  0  0  0
  -23.6285   -8.2242   22.0753 C   0  0  0  0  0  0
  -22.4259   -8.0277   21.3549 C   0  0  0  0  0  0
  -21.9899   -9.0250   20.4655 C   0  0  0  0  0  0
  -22.7231  -10.2127   20.3056 C   0  0  0  0  0  0
  -21.6855   -6.0729   22.5278 C   0  0  0  0  0  0
  -21.4014   -6.5634   23.8210 C   0  0  0  0  0  0
  -21.3662   -5.6789   24.9174 C   0  0  0  0  0  0
  -21.6043   -4.3050   24.7223 C   0  0  0  0  0  0
  -21.8819   -3.8141   23.4345 C   0  0  0  0  0  0
  -21.9193   -4.6960   22.3402 C   0  0  0  0  0  0
  -22.7854  -13.5232   21.1847 C   0  0  0  0  0  0
  -22.1661   -4.2151   21.0981 F   0  0  0  0  0  0
  -21.5635   -3.4532   25.7734 F   0  0  0  0  0  0
  -30.0141  -13.4204   20.4293 N   0  0  0  0  0  0
  -26.2995  -12.9346   20.3315 N   0  0  0  0  0  0
  -25.9325  -11.6502   20.5731 N   0  0  0  0  0  0
  -22.0484  -12.8235   22.0402 N   0  0  0  0  0  0
  -25.4254  -15.1888   20.4127 N   0  0  0  0  0  0
  -31.7721  -14.8243   20.1084 O   0  0  0  0  0  0
  -21.6636   -6.8868   21.4237 O   0  0  0  0  0  0
  -22.3544  -14.5543   20.6694 O   0  0  0  0  0  0
  -24.6278  -31.8605   23.2051 C   0  0  0  0  0  0
  -25.9129  -32.4774   23.8368 C   0  0  1  0  0  0
  -27.2129  -27.3052   20.1131 C   0  0  0  0  0  0
  -25.5950  -33.8574   24.2304 N   0  0  0  0  0  0
  -23.4201  -30.4870   21.5490 C   0  0  2  0  0  0
  -24.8643  -28.9444   20.1166 C   0  0  0  0  0  0
  -22.7482  -29.4630   22.4944 C   0  0  0  0  0  0
  -18.0288  -28.1392   22.8472 C   0  0  0  0  0  0
  -24.1488  -36.7291   23.2631 C   0  0  0  0  0  0
  -25.9637  -30.7845   21.3809 C   0  0  0  0  0  0
  -26.0349  -29.4092   20.7289 C   0  0  0  0  0  0
  -27.2117  -28.5995   20.7244 C   0  0  0  0  0  0
  -26.0291  -26.9220   19.4448 C   0  0  0  0  0  0
  -24.8638  -27.7046   19.4664 C   0  0  0  0  0  0
  -23.6358  -29.8282   20.1636 C   0  0  0  0  0  0
  -25.4103  -36.3077   24.0333 C   0  0  1  0  0  0
  -20.5887  -28.3695   23.1285 C   0  0  2  0  0  0
  -20.6778  -26.9419   22.5406 C   0  0  0  0  0  0
  -19.5752  -26.6393   21.5206 C   0  0  0  0  0  0
  -18.1932  -26.7932   22.1621 C   0  0  0  0  0  0
  -19.1539  -28.8858   23.2871 C   0  0  0  0  0  0
  -18.9458  -30.1459   23.8887 C   0  0  0  0  0  0
  -17.6455  -30.6582   24.0567 C   0  0  0  0  0  0
  -25.9046  -34.9449   23.5112 C   0  0  0  0  0  0
  -16.5347  -29.9083   23.6331 C   0  0  0  0  0  0
  -16.7272  -28.6512   23.0327 C   0  0  0  0  0  0
  -26.4509  -31.6562   25.0726 C   0  0  0  0  0  0
  -25.3751  -31.3706   26.1463 C   0  0  0  0  0  0
  -27.0325  -30.2976   24.6162 C   0  0  0  0  0  0
  -27.6075  -32.4285   25.7497 C   0  0  0  0  0  0
  -27.5574  -37.1801   24.8459 C   0  0  0  0  0  0
  -21.4194  -29.3055   22.3693 N   0  0  0  0  0  0
  -26.4276  -37.3775   23.9416 N   0  0  0  0  0  0
  -24.6896  -31.0607   22.1016 N   0  0  0  0  0  0
  -23.4213  -28.8150   23.3003 O   0  0  0  0  0  0
  -28.3274  -26.4468   20.1154 O   0  0  0  0  0  0
  -26.5604  -34.8912   22.4672 O   0  0  0  0  0  0
  -23.5442  -32.1423   23.7366 O   0  0  0  0  0  0
  -29.5242  -19.2212   19.3952 C   0  0  0  0  0  0
  -29.8776  -20.0778   20.4704 C   0  0  0  0  0  0
  -29.5275  -17.7989   19.5006 C   0  0  0  0  0  0
  -30.2112  -19.4279   21.6999 C   0  0  0  0  0  0
  -30.2499  -17.9894   21.8043 C   0  0  0  0  0  0
  -29.9237  -17.1441   20.7013 C   0  0  0  0  0  0
  -27.3261  -24.0821   19.5533 C   0  0  0  0  0  0
  -27.7770  -22.6180   19.7978 C   0  0  0  0  0  0
  -29.4471  -24.1113   20.5592 C   0  0  0  0  0  0
  -28.1574  -25.0032   20.4738 C   0  0  1  0  0  0
  -29.0814  -16.9822   18.2993 C   0  0  0  0  0  0
  -30.5496  -20.2782   22.9220 C   0  0  0  0  0  0
  -30.6354  -17.3157   23.1190 C   0  0  0  0  0  0
  -30.0802  -21.6275   20.2098 C   0  0  0  0  0  0
  -29.7958  -15.6927   20.8625 N   0  0  0  0  0  0
  -29.0274  -22.6572   20.5849 N   0  3  2  0  0  0
  -31.4828  -12.5360   19.1449 H   0  0  0  0  0  0
  -30.3828  -11.4054   19.8847 H   0  0  0  0  0  0
  -29.7755  -11.7736   17.4713 H   0  0  0  0  0  0
  -29.6497  -13.4920   17.7457 H   0  0  0  0  0  0
  -27.8702  -11.2987   18.8577 H   0  0  0  0  0  0
  -27.3788  -12.5899   17.7940 H   0  0  0  0  0  0
  -27.6712  -14.2530   19.5278 H   0  0  0  0  0  0
  -28.7167  -12.0449   21.3692 H   0  0  0  0  0  0
  -28.4452  -13.6943   21.8496 H   0  0  0  0  0  0
  -25.2754   -9.5690   22.4751 H   0  0  0  0  0  0
  -24.0004   -7.4634   22.7465 H   0  0  0  0  0  0
  -21.0835   -8.8762   19.8961 H   0  0  0  0  0  0
  -22.3679  -10.9662   19.6166 H   0  0  0  0  0  0
  -21.2002   -7.6137   23.9713 H   0  0  0  0  0  0
  -21.1488   -6.0516   25.9078 H   0  0  0  0  0  0
  -22.0595   -2.7604   23.2838 H   0  0  0  0  0  0
  -22.4084  -11.9901   22.4813 H   0  0  0  0  0  0
  -21.1106  -13.1281   22.2592 H   0  0  0  0  0  0
  -24.6533  -15.8368   20.5241 H   0  0  0  0  0  0
  -26.2743  -15.6369   20.0943 H   0  0  0  0  0  0
  -26.7192  -32.5447   23.1111 H   0  0  0  0  0  0
  -25.0128  -33.9722   25.0467 H   0  0  0  0  0  0
  -22.7138  -31.3081   21.4092 H   0  0  0  0  0  0
  -23.3748  -35.9626   23.3278 H   0  0  0  0  0  0
  -24.3588  -36.8920   22.2049 H   0  0  0  0  0  0
  -23.7244  -37.6491   23.6655 H   0  0  0  0  0  0
  -26.0953  -31.5415   20.6064 H   0  0  0  0  0  0
  -26.8458  -30.8376   22.0070 H   0  0  0  0  0  0
  -28.1085  -28.9509   21.2163 H   0  0  0  0  0  0
  -25.9760  -26.0272   18.8527 H   0  0  0  0  0  0
  -23.9777  -27.3571   18.9535 H   0  0  0  0  0  0
  -23.7644  -30.6076   19.4115 H   0  0  0  0  0  0
  -22.7538  -29.2645   19.8545 H   0  0  0  0  0  0
  -25.1277  -36.1927   25.0825 H   0  0  0  0  0  0
  -20.9972  -28.3264   24.1408 H   0  0  0  0  0  0
  -20.5689  -26.2297   23.3599 H   0  0  0  0  0  0
  -21.6645  -26.7457   22.1196 H   0  0  0  0  0  0
  -19.6915  -25.6307   21.1227 H   0  0  0  0  0  0
  -19.6688  -27.3208   20.6737 H   0  0  0  0  0  0
  -17.4202  -26.6668   21.4023 H   0  0  0  0  0  0
  -18.0337  -26.0083   22.9028 H   0  0  0  0  0  0
  -19.7930  -30.7279   24.2253 H   0  0  0  0  0  0
  -17.5006  -31.6253   24.5185 H   0  0  0  0  0  0
  -15.5343  -30.2976   23.7658 H   0  0  0  0  0  0
  -15.8678  -28.0836   22.7022 H   0  0  0  0  0  0
  -24.5929  -30.7041   25.7808 H   0  0  0  0  0  0
  -24.8937  -32.2872   26.4882 H   0  0  0  0  0  0
  -25.8093  -30.8900   27.0240 H   0  0  0  0  0  0
  -26.2879  -29.6742   24.1196 H   0  0  0  0  0  0
  -27.4024  -29.7213   25.4649 H   0  0  0  0  0  0
  -27.8761  -30.4236   23.9374 H   0  0  0  0  0  0
  -27.2698  -33.3603   26.2046 H   0  0  0  0  0  0
  -28.3905  -32.6807   25.0335 H   0  0  0  0  0  0
  -28.0716  -31.8419   26.5435 H   0  0  0  0  0  0
  -28.2577  -38.0110   24.7510 H   0  0  0  0  0  0
  -28.1084  -36.2641   24.6268 H   0  0  0  0  0  0
  -27.2304  -37.1439   25.8865 H   0  0  0  0  0  0
  -20.9373  -29.8810   21.6930 H   0  0  0  0  0  0
  -26.0155  -38.2848   24.1419 H   0  0  0  0  0  0
  -29.2646  -19.6708   18.4461 H   0  0  0  0  0  0
  -26.2567  -24.1609   19.7471 H   0  0  0  0  0  0
  -27.5070  -24.3422   18.5096 H   0  0  0  0  0  0
  -27.9159  -22.1036   18.8462 H   0  0  0  0  0  0
  -27.0265  -22.0617   20.3610 H   0  0  0  0  0  0
  -30.0649  -24.3647   21.4206 H   0  0  0  0  0  0
  -30.0506  -24.2833   19.6666 H   0  0  0  0  0  0
  -27.6926  -24.9868   21.4607 H   0  0  0  0  0  0
  -28.8320  -17.6217   17.4517 H   0  0  0  0  0  0
  -28.1940  -16.4003   18.5471 H   0  0  0  0  0  0
  -29.8669  -16.2966   17.9803 H   0  0  0  0  0  0
  -30.2354  -21.3152   22.8238 H   0  0  0  0  0  0
  -31.6243  -20.2713   23.1049 H   0  0  0  0  0  0
  -30.0443  -19.9022   23.8124 H   0  0  0  0  0  0
  -31.1955  -17.9582   23.7953 H   0  0  0  0  0  0
  -31.2744  -16.4517   22.9370 H   0  0  0  0  0  0
  -29.7429  -16.9686   23.6391 H   0  0  0  0  0  0
  -30.3099  -21.7582   19.1513 H   0  0  0  0  0  0
  -31.0030  -21.9134   20.7163 H   0  0  0  0  0  0
  -28.8906  -15.3881   21.1843 H   0  0  0  0  0  0
  -28.7571  -22.4570   21.5366 H   0  0  0  0  0  0
  1 25  1  0  0  0
  1 30  2  0  0  0
  1 85  1  0  0  0
  2  3  1  0  0  0
  2 25  1  0  0  0
  2 87  1  0  0  0
  2 88  1  0  0  0
  3  4  1  0  0  0
  3 89  1  0  0  0
  3 90  1  0  0  0
  4  5  1  0  0  0
  4 91  1  0  0  0
  4 92  1  0  0  0
  5  6  1  0  0  0
  5 26  1  0  0  0
  5 93  1  0  0  0
  6 25  1  0  0  0
  6 94  1  0  0  0
  6 95  1  0  0  0
  7  8  2  0  0  0
  7 26  1  0  0  0
  7 29  1  0  0  0
  8  9  1  0  0  0
  8 22  1  0  0  0
  9 10  1  0  0  0
  9 27  2  0  0  0
 10 11  2  0  0  0
 10 15  1  0  0  0
 11 12  1  0  0  0
 11 96  1  0  0  0
 12 13  2  0  0  0
 12 97  1  0  0  0
 13 14  1  0  0  0
 13 31  1  0  0  0
 14 15  2  0  0  0
 14 98  1  0  0  0
 15 99  1  0  0  0
 16 17  2  0  0  0
 16 21  1  0  0  0
 16 31  1  0  0  0
 17 18  1  0  0  0
 17100  1  0  0  0
 18 19  2  0  0  0
 18101  1  0  0  0
 19 20  1  0  0  0
 19 24  1  0  0  0
 20 21  2  0  0  0
 20102  1  0  0  0
 21 23  1  0  0  0
 22 28  1  0  0  0
 22 32  2  0  0  0
 26 27  1  0  0  0
 28103  1  0  0  0
 28104  1  0  0  0
 29105  1  0  0  0
 29106  1  0  0  0
 33 34  1  0  0  0
 33 66  1  0  0  0
 33 70  2  0  0  0
 34 36  1  0  0  0
 34 59  1  0  0  0
 34107  1  0  0  0
 35 44  2  0  0  0
 35 45  1  0  0  0
 35 68  1  0  0  0
 36 56  1  0  0  0
 36108  1  0  0  0
 37 39  1  0  0  0
 37 47  1  0  0  0
 37 66  1  0  0  0
 37109  1  0  0  0
 38 43  2  0  0  0
 38 46  1  0  0  0
 38 47  1  0  0  0
 39 64  1  0  0  0
 39 67  2  0  0  0
 40 52  1  0  0  0
 40 53  2  0  0  0
 40 58  1  0  0  0
 41110  1  0  0  0
 41111  1  0  0  0
 41112  1  0  0  0
 41 48  1  0  0  0
 42 43  1  0  0  0
 42 66  1  0  0  0
 42113  1  0  0  0
 42114  1  0  0  0
 43 44  1  0  0  0
 44115  1  0  0  0
 45 46  2  0  0  0
 45116  1  0  0  0
 46117  1  0  0  0
 47118  1  0  0  0
 47119  1  0  0  0
 48 56  1  0  0  0
 48 65  1  0  0  0
 48120  1  0  0  0
 49 50  1  0  0  0
 49 53  1  0  0  0
 49 64  1  0  0  0
 49121  1  0  0  0
 50 51  1  0  0  0
 50122  1  0  0  0
 50123  1  0  0  0
 51 52  1  0  0  0
 51124  1  0  0  0
 51125  1  0  0  0
 52126  1  0  0  0
 52127  1  0  0  0
 53 54  1  0  0  0
 54 55  2  0  0  0
 54128  1  0  0  0
 55 57  1  0  0  0
 55129  1  0  0  0
 56 69  2  0  0  0
 57 58  2  0  0  0
 57130  1  0  0  0
 58131  1  0  0  0
 59 60  1  0  0  0
 59 61  1  0  0  0
 59 62  1  0  0  0
 60132  1  0  0  0
 60133  1  0  0  0
 60134  1  0  0  0
 61135  1  0  0  0
 61136  1  0  0  0
 61137  1  0  0  0
 62138  1  0  0  0
 62139  1  0  0  0
 62140  1  0  0  0
 63 65  1  0  0  0
 63141  1  0  0  0
 63142  1  0  0  0
 63143  1  0  0  0
 64144  1  0  0  0
 65145  1  0  0  0
 68 80  1  0  0  0
 71 72  2  0  0  0
 71 73  1  0  0  0
 71146  1  0  0  0
 72 74  1  0  0  0
 72 84  1  0  0  0
 73 76  2  0  0  0
 73 81  1  0  0  0
 74 75  2  0  0  0
 74 82  1  0  0  0
 75 76  1  0  0  0
 75 83  1  0  0  0
 76 85  1  0  0  0
 77 78  1  0  0  0
 77 80  1  0  0  0
 77147  1  0  0  0
 77148  1  0  0  0
 78 86  1  0  0  0
 78149  1  0  0  0
 78150  1  0  0  0
 79 80  1  0  0  0
 79 86  1  0  0  0
 79151  1  0  0  0
 79152  1  0  0  0
 80153  1  0  0  0
 81154  1  0  0  0
 81155  1  0  0  0
 81156  1  0  0  0
 82157  1  0  0  0
 82158  1  0  0  0
 82159  1  0  0  0
 83160  1  0  0  0
 83161  1  0  0  0
 83162  1  0  0  0
 84163  1  0  0  0
 84164  1  0  0  0
 84 86  1  0  0  0
 85165  1  0  0  0
 86166  1  0  0  0
M  CHG  1  86   1
M  ISO  4   1 100  68 101  80 101  85 100
M  END
> <chiral flag>
0

> <version>
0

> <s_m_source_file>
/data/baiqing/PycharmProjects/Reinvent-master-3.2/result/LINK_invent/BTK/process_docking_weight1_custom_product_contain_oxygen_bond_distance_aromatic_linkinvent_7_9_3/rearranged_h_0035.sdf

> <i_m_source_file_index>
46

> <r_mmod_Potential_Energy-OPLS-2005>
2.91751313209534

> <r_mmod_Stretch_Energy-OPLS-2005>
84.2027740478516

> <r_mmod_Bend_Energy-OPLS-2005>
167.910064697266

> <r_mmod_Torsional_Energy-OPLS-2005>
305.123107910156

> <r_mmod_Improper_Torsional_Energy-OPLS-2005>
5.68570566177368

> <r_mmod_Van_der_Waal_Energy-OPLS-2005>
142.769805908203

> <r_mmod_Electrostatic_Energy-OPLS-2005>
-322.488708496094

> <r_mmod_Solvation_Energy-OPLS-2005>
-433.106506347656

> <b_mmod_Minimization_Converged-OPLS-2005>
0

> <r_mmod_RMS_Derivative-OPLS-2005>
1.57600116729736

$$$$
47
                    3D
 Structure written by MMmdl.
158167  0  0  1  0            999 V2000
  -30.5766  -14.7322   20.4626 C   0  0  0  0  0  0
  -30.4464  -12.4465   19.4575 C   0  0  0  0  0  0
  -29.5111  -12.5140   18.2282 C   0  0  0  0  0  0
  -28.0364  -12.3333   18.6434 C   0  0  0  0  0  0
  -27.6456  -13.2163   19.8573 C   0  0  2  0  0  0
  -28.6961  -13.1142   20.9866 C   0  0  0  0  0  0
  -25.2509  -13.8112   20.5747 C   0  0  0  0  0  0
  -24.1794  -13.0373   20.9239 C   0  0  0  0  0  0
  -24.6385  -11.6861   20.8752 C   0  0  0  0  0  0
  -23.9059  -10.4256   21.0413 C   0  0  0  0  0  0
  -24.3612   -9.4177   21.9193 C   0  0  0  0  0  0
  -23.6285   -8.2217   22.0762 C   0  0  0  0  0  0
  -22.4267   -8.0267   21.3548 C   0  0  0  0  0  0
  -21.9903   -9.0239   20.4647 C   0  0  0  0  0  0
  -22.7235  -10.2114   20.3056 C   0  0  0  0  0  0
  -21.6843   -6.0731   22.5282 C   0  0  0  0  0  0
  -21.4006   -6.5637   23.8215 C   0  0  0  0  0  0
  -21.3655   -5.6793   24.9179 C   0  0  0  0  0  0
  -21.6044   -4.3057   24.7229 C   0  0  0  0  0  0
  -21.8819   -3.8142   23.4352 C   0  0  0  0  0  0
  -21.9190   -4.6959   22.3406 C   0  0  0  0  0  0
  -22.7818  -13.5182   21.1881 C   0  0  0  0  0  0
  -22.1661   -4.2142   21.0987 F   0  0  0  0  0  0
  -21.5627   -3.4543   25.7744 F   0  0  0  0  0  0
  -29.9996  -13.4838   20.4115 N   0  0  0  0  0  0
  -26.2945  -12.9317   20.3311 N   0  0  0  0  0  0
  -25.9311  -11.6470   20.5749 N   0  0  0  0  0  0
  -22.0453  -12.8180   22.0438 N   0  0  0  0  0  0
  -25.4081  -15.1826   20.4225 N   0  0  0  0  0  0
  -31.7558  -14.8910   20.1359 O   0  0  0  0  0  0
  -21.6625   -6.8873   21.4246 O   0  0  0  0  0  0
  -22.3508  -14.5490   20.6723 O   0  0  0  0  0  0
  -24.6280  -31.8562   23.1982 C   0  0  0  0  0  0
  -25.9115  -32.4761   23.8327 C   0  0  1  0  0  0
  -27.2304  -27.2846   20.1211 C   0  0  0  0  0  0
  -25.5920  -33.8566   24.2251 N   0  0  0  0  0  0
  -23.4245  -30.4766   21.5407 C   0  0  2  0  0  0
  -24.8729  -28.9238   20.1089 C   0  0  0  0  0  0
  -22.7484  -29.4599   22.4914 C   0  0  0  0  0  0
  -18.0285  -28.1385   22.8485 C   0  0  0  0  0  0
  -24.1492  -36.7285   23.2639 C   0  0  0  0  0  0
  -25.9666  -30.7749   21.3740 C   0  0  0  0  0  0
  -26.0408  -29.3982   20.7182 C   0  0  0  0  0  0
  -27.2181  -28.5886   20.7171 C   0  0  0  0  0  0
  -26.0383  -26.8680   19.4864 C   0  0  0  0  0  0
  -24.8757  -27.6660   19.4842 C   0  0  0  0  0  0
  -23.6414  -29.8075   20.1571 C   0  0  0  0  0  0
  -25.4120  -36.3076   24.0320 C   0  0  1  0  0  0
  -20.5886  -28.3698   23.1278 C   0  0  2  0  0  0
  -20.6775  -26.9418   22.5416 C   0  0  0  0  0  0
  -19.5753  -26.6385   21.5215 C   0  0  0  0  0  0
  -18.1931  -26.7927   22.1622 C   0  0  0  0  0  0
  -19.1538  -28.8856   23.2875 C   0  0  0  0  0  0
  -18.9462  -30.1457   23.8895 C   0  0  0  0  0  0
  -17.6463  -30.6589   24.0565 C   0  0  0  0  0  0
  -25.9057  -34.9445   23.5090 C   0  0  0  0  0  0
  -16.5354  -29.9091   23.6329 C   0  0  0  0  0  0
  -16.7272  -28.6506   23.0353 C   0  0  0  0  0  0
  -26.4492  -31.6577   25.0707 C   0  0  0  0  0  0
  -25.3715  -31.3717   26.1424 C   0  0  0  0  0  0
  -27.0338  -30.2999   24.6177 C   0  0  0  0  0  0
  -27.6050  -32.4311   25.7484 C   0  0  0  0  0  0
  -27.5580  -37.1802   24.8465 C   0  0  0  0  0  0
  -21.4192  -29.3045   22.3663 N   0  0  0  0  0  0
  -26.4296  -37.3774   23.9402 N   0  0  0  0  0  0
  -24.6921  -31.0534   22.0949 N   0  0  0  0  0  0
  -23.4186  -28.8144   23.3017 O   0  0  0  0  0  0
  -28.3514  -26.4318   20.1959 O   0  0  0  0  0  0
  -26.5638  -34.8917   22.4665 O   0  0  0  0  0  0
  -23.5435  -32.1379   23.7286 O   0  0  0  0  0  0
  -30.4489  -19.5496   21.2547 C   0  0  0  0  0  0
  -29.3212  -20.2191   20.6847 C   0  0  0  0  0  0
  -28.4248  -19.3490   19.9866 C   0  0  0  0  0  0
  -29.7370  -17.2581   20.5593 C   0  0  0  0  0  0
  -30.6478  -18.1279   21.2252 C   0  0  0  0  0  0
  -28.6590  -17.9270   19.9002 C   0  0  0  0  0  0
  -29.5130  -24.1308   20.0113 C   0  0  0  0  0  0
  -30.8013  -24.3726   20.3098 C   0  0  0  0  0  0
  -27.6304  -23.8331   20.3535 C   0  0  0  0  0  0
  -28.3350  -25.0444   19.6383 C   0  0  1  0  0  0
  -27.1476  -19.9046   19.3646 C   0  0  0  0  0  0
  -29.0259  -21.7542   21.0599 C   0  0  0  0  0  0
  -29.7001  -15.7771   20.6757 N   0  0  0  0  0  0
  -28.7583  -22.8786   20.0456 N   0  3  2  0  0  0
  -31.9767  -17.4820   22.1209 Cl  0  0  0  0  0  0
  -27.5662  -16.9588   18.9706 Cl  0  0  0  0  0  0
  -31.4836  -12.5924   19.1514 H   0  0  0  0  0  0
  -30.4063  -11.4600   19.9213 H   0  0  0  0  0  0
  -29.7898  -11.7527   17.4982 H   0  0  0  0  0  0
  -29.6327  -13.4759   17.7276 H   0  0  0  0  0  0
  -27.8896  -11.2814   18.8914 H   0  0  0  0  0  0
  -27.3782  -12.5407   17.7985 H   0  0  0  0  0  0
  -27.6442  -14.2401   19.4916 H   0  0  0  0  0  0
  -28.7324  -12.0995   21.3863 H   0  0  0  0  0  0
  -28.4320  -13.7578   21.8274 H   0  0  0  0  0  0
  -25.2760   -9.5652   22.4765 H   0  0  0  0  0  0
  -23.9987   -7.4607   22.7480 H   0  0  0  0  0  0
  -21.0835   -8.8760   19.8950 H   0  0  0  0  0  0
  -22.3702  -10.9659   19.6162 H   0  0  0  0  0  0
  -21.1998   -7.6145   23.9716 H   0  0  0  0  0  0
  -21.1479   -6.0527   25.9085 H   0  0  0  0  0  0
  -22.0603   -2.7604   23.2855 H   0  0  0  0  0  0
  -22.4065  -11.9842   22.4828 H   0  0  0  0  0  0
  -21.1070  -13.1207   22.2634 H   0  0  0  0  0  0
  -24.6170  -15.8101   20.5087 H   0  0  0  0  0  0
  -26.2126  -15.6283   19.9975 H   0  0  0  0  0  0
  -26.7180  -32.5420   23.1070 H   0  0  0  0  0  0
  -25.0057  -33.9714   25.0388 H   0  0  0  0  0  0
  -22.7203  -31.2982   21.3944 H   0  0  0  0  0  0
  -23.3758  -35.9616   23.3304 H   0  0  0  0  0  0
  -24.3579  -36.8913   22.2057 H   0  0  0  0  0  0
  -23.7248  -37.6485   23.6666 H   0  0  0  0  0  0
  -26.0996  -31.5359   20.6035 H   0  0  0  0  0  0
  -26.8460  -30.8268   22.0040 H   0  0  0  0  0  0
  -28.1118  -28.9474   21.2081 H   0  0  0  0  0  0
  -25.9738  -25.9047   19.0035 H   0  0  0  0  0  0
  -23.9796  -27.2973   19.0039 H   0  0  0  0  0  0
  -23.7610  -30.5825   19.3990 H   0  0  0  0  0  0
  -22.7611  -29.2369   19.8557 H   0  0  0  0  0  0
  -25.1303  -36.1927   25.0814 H   0  0  0  0  0  0
  -20.9977  -28.3285   24.1397 H   0  0  0  0  0  0
  -20.5674  -26.2312   23.3619 H   0  0  0  0  0  0
  -21.6646  -26.7446   22.1216 H   0  0  0  0  0  0
  -19.6924  -25.6297   21.1247 H   0  0  0  0  0  0
  -19.6690  -27.3195   20.6742 H   0  0  0  0  0  0
  -17.4204  -26.6671   21.4025 H   0  0  0  0  0  0
  -18.0335  -26.0069   22.9015 H   0  0  0  0  0  0
  -19.7940  -30.7272   24.2262 H   0  0  0  0  0  0
  -17.5020  -31.6267   24.5175 H   0  0  0  0  0  0
  -15.5357  -30.2997   23.7645 H   0  0  0  0  0  0
  -15.8670  -28.0823   22.7072 H   0  0  0  0  0  0
  -24.5899  -30.7057   25.7744 H   0  0  0  0  0  0
  -24.8888  -32.2883   26.4832 H   0  0  0  0  0  0
  -25.8031  -30.8906   27.0210 H   0  0  0  0  0  0
  -26.2918  -29.6747   24.1197 H   0  0  0  0  0  0
  -27.4029  -29.7256   25.4684 H   0  0  0  0  0  0
  -27.8785  -30.4279   23.9404 H   0  0  0  0  0  0
  -27.2667  -33.3618   26.2050 H   0  0  0  0  0  0
  -28.3870  -32.6861   25.0320 H   0  0  0  0  0  0
  -28.0700  -31.8437   26.5412 H   0  0  0  0  0  0
  -28.2599  -38.0099   24.7510 H   0  0  0  0  0  0
  -28.1074  -36.2628   24.6294 H   0  0  0  0  0  0
  -27.2288  -37.1455   25.8865 H   0  0  0  0  0  0
  -20.9371  -29.8770   21.6873 H   0  0  0  0  0  0
  -26.0171  -38.2847   24.1407 H   0  0  0  0  0  0
  -31.1573  -20.1314   21.8273 H   0  0  0  0  0  0
  -31.1937  -25.3789   20.2752 H   0  0  0  0  0  0
  -31.4798  -23.5808   20.5901 H   0  0  0  0  0  0
  -26.6884  -23.5358   19.8922 H   0  0  0  0  0  0
  -27.4874  -24.0037   21.4240 H   0  0  0  0  0  0
  -28.1182  -25.0698   18.5685 H   0  0  0  0  0  0
  -26.8900  -20.8992   19.7189 H   0  0  0  0  0  0
  -26.2933  -19.2735   19.6115 H   0  0  0  0  0  0
  -27.2371  -19.9405   18.2786 H   0  0  0  0  0  0
  -29.8285  -22.0933   21.7137 H   0  0  0  0  0  0
  -28.1580  -21.7144   21.7189 H   0  0  0  0  0  0
  -28.7595  -15.4300   20.7711 H   0  0  0  0  0  0
  -28.6624  -22.5012   19.1156 H   0  0  0  0  0  0
  1 25  1  0  0  0
  1 30  2  0  0  0
  1 83  1  0  0  0
  2  3  1  0  0  0
  2 25  1  0  0  0
  2 87  1  0  0  0
  2 88  1  0  0  0
  3  4  1  0  0  0
  3 89  1  0  0  0
  3 90  1  0  0  0
  4  5  1  0  0  0
  4 91  1  0  0  0
  4 92  1  0  0  0
  5  6  1  0  0  0
  5 26  1  0  0  0
  5 93  1  0  0  0
  6 25  1  0  0  0
  6 94  1  0  0  0
  6 95  1  0  0  0
  7  8  2  0  0  0
  7 26  1  0  0  0
  7 29  1  0  0  0
  8  9  1  0  0  0
  8 22  1  0  0  0
  9 10  1  0  0  0
  9 27  2  0  0  0
 10 11  2  0  0  0
 10 15  1  0  0  0
 11 12  1  0  0  0
 11 96  1  0  0  0
 12 13  2  0  0  0
 12 97  1  0  0  0
 13 14  1  0  0  0
 13 31  1  0  0  0
 14 15  2  0  0  0
 14 98  1  0  0  0
 15 99  1  0  0  0
 16 17  2  0  0  0
 16 21  1  0  0  0
 16 31  1  0  0  0
 17 18  1  0  0  0
 17100  1  0  0  0
 18 19  2  0  0  0
 18101  1  0  0  0
 19 20  1  0  0  0
 19 24  1  0  0  0
 20 21  2  0  0  0
 20102  1  0  0  0
 21 23  1  0  0  0
 22 28  1  0  0  0
 22 32  2  0  0  0
 26 27  1  0  0  0
 28103  1  0  0  0
 28104  1  0  0  0
 29105  1  0  0  0
 29106  1  0  0  0
 33 34  1  0  0  0
 33 66  1  0  0  0
 33 70  2  0  0  0
 34 36  1  0  0  0
 34 59  1  0  0  0
 34107  1  0  0  0
 35 44  2  0  0  0
 35 45  1  0  0  0
 35 68  1  0  0  0
 36 56  1  0  0  0
 36108  1  0  0  0
 37 39  1  0  0  0
 37 47  1  0  0  0
 37 66  1  0  0  0
 37109  1  0  0  0
 38 43  2  0  0  0
 38 46  1  0  0  0
 38 47  1  0  0  0
 39 64  1  0  0  0
 39 67  2  0  0  0
 40 52  1  0  0  0
 40 53  2  0  0  0
 40 58  1  0  0  0
 41110  1  0  0  0
 41111  1  0  0  0
 41112  1  0  0  0
 41 48  1  0  0  0
 42 43  1  0  0  0
 42 66  1  0  0  0
 42113  1  0  0  0
 42114  1  0  0  0
 43 44  1  0  0  0
 44115  1  0  0  0
 45 46  2  0  0  0
 45116  1  0  0  0
 46117  1  0  0  0
 47118  1  0  0  0
 47119  1  0  0  0
 48 56  1  0  0  0
 48 65  1  0  0  0
 48120  1  0  0  0
 49 50  1  0  0  0
 49 53  1  0  0  0
 49 64  1  0  0  0
 49121  1  0  0  0
 50 51  1  0  0  0
 50122  1  0  0  0
 50123  1  0  0  0
 51 52  1  0  0  0
 51124  1  0  0  0
 51125  1  0  0  0
 52126  1  0  0  0
 52127  1  0  0  0
 53 54  1  0  0  0
 54 55  2  0  0  0
 54128  1  0  0  0
 55 57  1  0  0  0
 55129  1  0  0  0
 56 69  2  0  0  0
 57 58  2  0  0  0
 57130  1  0  0  0
 58131  1  0  0  0
 59 60  1  0  0  0
 59 61  1  0  0  0
 59 62  1  0  0  0
 60132  1  0  0  0
 60133  1  0  0  0
 60134  1  0  0  0
 61135  1  0  0  0
 61136  1  0  0  0
 61137  1  0  0  0
 62138  1  0  0  0
 62139  1  0  0  0
 62140  1  0  0  0
 63 65  1  0  0  0
 63141  1  0  0  0
 63142  1  0  0  0
 63143  1  0  0  0
 64144  1  0  0  0
 65145  1  0  0  0
 68 80  1  0  0  0
 71 72  2  0  0  0
 71 75  1  0  0  0
 71146  1  0  0  0
 72 73  1  0  0  0
 72 82  1  0  0  0
 73 76  2  0  0  0
 73 81  1  0  0  0
 74 75  2  0  0  0
 74 76  1  0  0  0
 74 83  1  0  0  0
 75 85  1  0  0  0
 76 86  1  0  0  0
 77 78  2  0  0  0
 77 80  1  0  0  0
 77 84  1  0  0  0
 78147  1  0  0  0
 78148  1  0  0  0
 79 80  1  0  0  0
 79 84  1  0  0  0
 79149  1  0  0  0
 79150  1  0  0  0
 80151  1  0  0  0
 81152  1  0  0  0
 81153  1  0  0  0
 81154  1  0  0  0
 82155  1  0  0  0
 82156  1  0  0  0
 82 84  1  0  0  0
 83157  1  0  0  0
 84158  1  0  0  0
M  CHG  1  84   1
M  ISO  4   1 100  68 101  80 101  83 100
M  END
> <chiral flag>
0

> <version>
0

> <s_m_source_file>
/data/baiqing/PycharmProjects/Reinvent-master-3.2/result/LINK_invent/BTK/process_docking_weight1_custom_product_contain_oxygen_bond_distance_aromatic_linkinvent_7_9_3/rearranged_h_0035.sdf

> <i_m_source_file_index>
47

> <r_mmod_Potential_Energy-OPLS-2005>
-40.9163818359375

> <r_mmod_Stretch_Energy-OPLS-2005>
106.667640686035

> <r_mmod_Bend_Energy-OPLS-2005>
217.097076416016

> <r_mmod_Torsional_Energy-OPLS-2005>
233.970169067383

> <r_mmod_Improper_Torsional_Energy-OPLS-2005>
8.87084197998047

> <r_mmod_Van_der_Waal_Energy-OPLS-2005>
136.405792236328

> <r_mmod_Electrostatic_Energy-OPLS-2005>
-335.452972412109

> <r_mmod_Solvation_Energy-OPLS-2005>
-483.762756347656

> <b_mmod_Minimization_Converged-OPLS-2005>
0

> <r_mmod_RMS_Derivative-OPLS-2005>
0.813896238803864

$$$$
48
                    3D
 Structure written by MMmdl.
169178  0  0  1  0            999 V2000
  -30.7386  -14.5039   20.5765 C   0  0  0  0  0  0
  -30.4283  -12.3427   19.4169 C   0  0  0  0  0  0
  -29.5042  -12.5387   18.2005 C   0  0  0  0  0  0
  -28.0233  -12.4037   18.6084 C   0  0  0  0  0  0
  -27.6613  -13.2312   19.8711 C   0  0  2  0  0  0
  -28.7124  -13.0350   20.9887 C   0  0  0  0  0  0
  -25.2487  -13.8151   20.5587 C   0  0  0  0  0  0
  -24.1800  -13.0403   20.9221 C   0  0  0  0  0  0
  -24.6415  -11.6892   20.8753 C   0  0  0  0  0  0
  -23.9088  -10.4281   21.0404 C   0  0  0  0  0  0
  -24.3638   -9.4211   21.9186 C   0  0  0  0  0  0
  -23.6325   -8.2234   22.0737 C   0  0  0  0  0  0
  -22.4318   -8.0266   21.3541 C   0  0  0  0  0  0
  -21.9987   -9.0238   20.4637 C   0  0  0  0  0  0
  -22.7275  -10.2126   20.3035 C   0  0  0  0  0  0
  -21.6862   -6.0747   22.5316 C   0  0  0  0  0  0
  -21.3988   -6.5633   23.8259 C   0  0  0  0  0  0
  -21.3677   -5.6771   24.9202 C   0  0  0  0  0  0
  -21.6074   -4.3042   24.7226 C   0  0  0  0  0  0
  -21.8811   -3.8148   23.4335 C   0  0  0  0  0  0
  -21.9198   -4.6974   22.3409 C   0  0  0  0  0  0
  -22.7801  -13.5208   21.1857 C   0  0  0  0  0  0
  -22.1655   -4.2169   21.0971 F   0  0  0  0  0  0
  -21.5655   -3.4501   25.7727 F   0  0  0  0  0  0
  -30.0398  -13.3396   20.4302 N   0  0  0  0  0  0
  -26.3029  -12.9427   20.3351 N   0  0  0  0  0  0
  -25.9372  -11.6557   20.5775 N   0  0  0  0  0  0
  -22.0383  -12.8187   22.0320 N   0  0  0  0  0  0
  -25.3923  -15.1840   20.3789 N   0  0  0  0  0  0
  -31.8607  -14.6698   20.0973 O   0  0  0  0  0  0
  -21.6659   -6.8882   21.4273 O   0  0  0  0  0  0
  -22.3524  -14.5545   20.6733 O   0  0  0  0  0  0
  -24.6179  -31.8682   23.2106 C   0  0  0  0  0  0
  -25.9090  -32.4819   23.8386 C   0  0  1  0  0  0
  -27.2210  -27.4048   20.0861 C   0  0  0  0  0  0
  -25.5962  -33.8621   24.2346 N   0  0  0  0  0  0
  -23.4054  -30.4986   21.5506 C   0  0  2  0  0  0
  -24.8456  -28.9648   20.1087 C   0  0  0  0  0  0
  -22.7439  -29.4688   22.4953 C   0  0  0  0  0  0
  -18.0290  -28.1386   22.8488 C   0  0  0  0  0  0
  -24.1481  -36.7270   23.2640 C   0  0  0  0  0  0
  -25.9399  -30.8217   21.3701 C   0  0  0  0  0  0
  -26.0097  -29.4599   20.7071 C   0  0  0  0  0  0
  -27.1979  -28.6880   20.6926 C   0  0  0  0  0  0
  -26.0331  -26.9477   19.4610 C   0  0  0  0  0  0
  -24.8531  -27.7102   19.4839 C   0  0  0  0  0  0
  -23.6136  -29.8408   20.1627 C   0  0  0  0  0  0
  -25.4111  -36.3113   24.0353 C   0  0  1  0  0  0
  -20.5885  -28.3678   23.1297 C   0  0  2  0  0  0
  -20.6782  -26.9410   22.5416 C   0  0  0  0  0  0
  -19.5755  -26.6396   21.5208 C   0  0  0  0  0  0
  -18.1928  -26.7940   22.1606 C   0  0  0  0  0  0
  -19.1544  -28.8844   23.2890 C   0  0  0  0  0  0
  -18.9475  -30.1449   23.8905 C   0  0  0  0  0  0
  -17.6477  -30.6592   24.0557 C   0  0  0  0  0  0
  -25.9069  -34.9479   23.5142 C   0  0  0  0  0  0
  -16.5364  -29.9100   23.6313 C   0  0  0  0  0  0
  -16.7281  -28.6515   23.0336 C   0  0  0  0  0  0
  -26.4487  -31.6598   25.0714 C   0  0  0  0  0  0
  -25.3777  -31.3697   26.1482 C   0  0  0  0  0  0
  -27.0341  -30.3057   24.6084 C   0  0  0  0  0  0
  -27.6041  -32.4347   25.7512 C   0  0  0  0  0  0
  -27.5589  -37.1810   24.8469 C   0  0  0  0  0  0
  -21.4163  -29.3046   22.3697 N   0  0  0  0  0  0
  -26.4285  -37.3809   23.9426 N   0  0  0  0  0  0
  -24.6731  -31.0797   22.1001 N   0  0  0  0  0  0
  -23.4220  -28.8210   23.2983 O   0  0  0  0  0  0
  -28.3841  -26.6481   20.1358 O   0  0  0  0  0  0
  -26.5574  -34.8929   22.4675 O   0  0  0  0  0  0
  -23.5377  -32.1439   23.7512 O   0  0  0  0  0  0
  -27.9858  -20.3974   21.5700 C   0  0  0  0  0  0
  -30.1717  -19.3908   21.2542 C   0  0  0  0  0  0
  -29.3625  -20.5589   21.3224 C   0  0  0  0  0  0
  -27.4342  -19.1181   21.7864 C   0  0  0  0  0  0
  -29.6507  -18.0855   21.4987 C   0  0  0  0  0  0
  -28.2685  -17.9693   21.8273 C   0  0  0  0  0  0
  -28.7416  -23.5695   17.9475 C   0  0  0  0  0  0
  -28.7353  -25.0586   18.3337 C   0  0  0  0  0  0
  -29.6317  -22.7373   18.8913 C   0  0  0  0  0  0
  -29.2354  -24.3552   20.7204 C   0  0  0  0  0  0
  -28.3337  -25.2361   19.8067 C   0  0  1  0  0  0
  -25.9296  -19.0090   21.9799 C   0  0  0  0  0  0
  -27.6786  -16.6372   22.2677 C   0  0  0  0  0  0
  -30.6326  -16.8807   21.4597 C   0  0  0  0  0  0
  -29.9575  -21.9800   21.2251 C   0  0  0  0  0  0
  -30.0983  -15.5230   21.1840 N   0  0  0  0  0  0
  -29.2192  -22.9069   20.3083 N   0  3  2  0  0  0
  -31.4721  -12.4379   19.1116 H   0  0  0  0  0  0
  -30.3277  -11.3312   19.8153 H   0  0  0  0  0  0
  -29.7506  -11.8177   17.4203 H   0  0  0  0  0  0
  -29.6788  -13.5290   17.7706 H   0  0  0  0  0  0
  -27.8255  -11.3483   18.7954 H   0  0  0  0  0  0
  -27.3783  -12.6947   17.7772 H   0  0  0  0  0  0
  -27.6990  -14.2787   19.5674 H   0  0  0  0  0  0
  -28.6968  -12.0070   21.3506 H   0  0  0  0  0  0
  -28.4789  -13.6507   21.8589 H   0  0  0  0  0  0
  -25.2746   -9.5746   22.4793 H   0  0  0  0  0  0
  -24.0069   -7.4631   22.7428 H   0  0  0  0  0  0
  -21.0954   -8.8756   19.8905 H   0  0  0  0  0  0
  -22.3724  -10.9672   19.6142 H   0  0  0  0  0  0
  -21.1919   -7.6138   23.9784 H   0  0  0  0  0  0
  -21.1531   -6.0460   25.9136 H   0  0  0  0  0  0
  -22.0579   -2.7607   23.2793 H   0  0  0  0  0  0
  -22.3915  -11.9771   22.4652 H   0  0  0  0  0  0
  -21.0949  -13.1180   22.2403 H   0  0  0  0  0  0
  -24.6042  -15.8113   20.4874 H   0  0  0  0  0  0
  -26.2169  -15.6379   20.0082 H   0  0  0  0  0  0
  -26.7138  -32.5495   23.1114 H   0  0  0  0  0  0
  -25.0233  -33.9766   25.0575 H   0  0  0  0  0  0
  -22.6933  -31.3166   21.4169 H   0  0  0  0  0  0
  -23.3784  -35.9563   23.3294 H   0  0  0  0  0  0
  -24.3600  -36.8887   22.2063 H   0  0  0  0  0  0
  -23.7168  -37.6451   23.6631 H   0  0  0  0  0  0
  -26.0718  -31.5902   20.6078 H   0  0  0  0  0  0
  -26.8251  -30.8594   21.9945 H   0  0  0  0  0  0
  -28.0934  -29.0689   21.1613 H   0  0  0  0  0  0
  -25.9748  -26.0056   18.9396 H   0  0  0  0  0  0
  -23.9587  -27.3293   19.0105 H   0  0  0  0  0  0
  -23.7333  -30.6211   19.4102 H   0  0  0  0  0  0
  -22.7325  -29.2741   19.8576 H   0  0  0  0  0  0
  -25.1277  -36.1976   25.0842 H   0  0  0  0  0  0
  -20.9984  -28.3257   24.1413 H   0  0  0  0  0  0
  -20.5676  -26.2295   23.3616 H   0  0  0  0  0  0
  -21.6652  -26.7446   22.1212 H   0  0  0  0  0  0
  -19.6916  -25.6311   21.1225 H   0  0  0  0  0  0
  -19.6705  -27.3216   20.6745 H   0  0  0  0  0  0
  -17.4214  -26.6699   21.3979 H   0  0  0  0  0  0
  -18.0306  -26.0078   22.8993 H   0  0  0  0  0  0
  -19.7956  -30.7234   24.2291 H   0  0  0  0  0  0
  -17.5049  -31.6259   24.5179 H   0  0  0  0  0  0
  -15.5370  -30.2998   23.7655 H   0  0  0  0  0  0
  -15.8679  -28.0848   22.7036 H   0  0  0  0  0  0
  -24.5985  -30.6971   25.7849 H   0  0  0  0  0  0
  -24.8900  -32.2834   26.4886 H   0  0  0  0  0  0
  -25.8183  -30.8937   27.0255 H   0  0  0  0  0  0
  -26.2870  -29.6831   24.1127 H   0  0  0  0  0  0
  -27.4123  -29.7269   25.4514 H   0  0  0  0  0  0
  -27.8700  -30.4382   23.9220 H   0  0  0  0  0  0
  -27.2630  -33.3677   26.2007 H   0  0  0  0  0  0
  -28.3909  -32.6878   25.0397 H   0  0  0  0  0  0
  -28.0614  -31.8523   26.5512 H   0  0  0  0  0  0
  -28.2588  -38.0129   24.7567 H   0  0  0  0  0  0
  -28.1107  -36.2665   24.6224 H   0  0  0  0  0  0
  -27.2321  -37.1390   25.8876 H   0  0  0  0  0  0
  -20.9331  -29.8793   21.6938 H   0  0  0  0  0  0
  -26.0179  -38.2887   24.1436 H   0  0  0  0  0  0
  -27.3427  -21.2647   21.6203 H   0  0  0  0  0  0
  -31.2283  -19.5056   21.0595 H   0  0  0  0  0  0
  -29.0916  -23.4544   16.9211 H   0  0  0  0  0  0
  -27.7215  -23.1842   17.9662 H   0  0  0  0  0  0
  -28.0462  -25.6019   17.6868 H   0  0  0  0  0  0
  -29.7208  -25.4960   18.1670 H   0  0  0  0  0  0
  -30.6785  -23.0284   18.7793 H   0  0  0  0  0  0
  -29.5721  -21.6833   18.6152 H   0  0  0  0  0  0
  -28.8655  -24.4422   21.7413 H   0  0  0  0  0  0
  -30.2581  -24.7333   20.7260 H   0  0  0  0  0  0
  -27.3342  -24.8315   19.9581 H   0  0  0  0  0  0
  -25.4392  -19.9743   21.8528 H   0  0  0  0  0  0
  -25.6758  -18.6350   22.9737 H   0  0  0  0  0  0
  -25.5137  -18.3337   21.2306 H   0  0  0  0  0  0
  -26.7080  -16.7067   22.7535 H   0  0  0  0  0  0
  -28.3296  -16.1449   22.9897 H   0  0  0  0  0  0
  -27.5627  -15.9949   21.4029 H   0  0  0  0  0  0
  -31.1324  -16.8431   22.4289 H   0  0  0  0  0  0
  -31.4147  -17.1159   20.7366 H   0  0  0  0  0  0
  -31.0113  -21.9389   20.9409 H   0  0  0  0  0  0
  -29.9471  -22.3867   22.2363 H   0  0  0  0  0  0
  -29.1598  -15.3381   21.4978 H   0  0  0  0  0  0
  -28.2593  -22.6028   20.3651 H   0  0  0  0  0  0
  1 25  1  0  0  0
  1 30  2  0  0  0
  1 86  1  0  0  0
  2  3  1  0  0  0
  2 25  1  0  0  0
  2 88  1  0  0  0
  2 89  1  0  0  0
  3  4  1  0  0  0
  3 90  1  0  0  0
  3 91  1  0  0  0
  4  5  1  0  0  0
  4 92  1  0  0  0
  4 93  1  0  0  0
  5  6  1  0  0  0
  5 26  1  0  0  0
  5 94  1  0  0  0
  6 25  1  0  0  0
  6 95  1  0  0  0
  6 96  1  0  0  0
  7  8  2  0  0  0
  7 26  1  0  0  0
  7 29  1  0  0  0
  8  9  1  0  0  0
  8 22  1  0  0  0
  9 10  1  0  0  0
  9 27  2  0  0  0
 10 11  2  0  0  0
 10 15  1  0  0  0
 11 12  1  0  0  0
 11 97  1  0  0  0
 12 13  2  0  0  0
 12 98  1  0  0  0
 13 14  1  0  0  0
 13 31  1  0  0  0
 14 15  2  0  0  0
 14 99  1  0  0  0
 15100  1  0  0  0
 16 17  2  0  0  0
 16 21  1  0  0  0
 16 31  1  0  0  0
 17 18  1  0  0  0
 17101  1  0  0  0
 18 19  2  0  0  0
 18102  1  0  0  0
 19 20  1  0  0  0
 19 24  1  0  0  0
 20 21  2  0  0  0
 20103  1  0  0  0
 21 23  1  0  0  0
 22 28  1  0  0  0
 22 32  2  0  0  0
 26 27  1  0  0  0
 28104  1  0  0  0
 28105  1  0  0  0
 29106  1  0  0  0
 29107  1  0  0  0
 33 34  1  0  0  0
 33 66  1  0  0  0
 33 70  2  0  0  0
 34 36  1  0  0  0
 34 59  1  0  0  0
 34108  1  0  0  0
 35 44  2  0  0  0
 35 45  1  0  0  0
 35 68  1  0  0  0
 36 56  1  0  0  0
 36109  1  0  0  0
 37 39  1  0  0  0
 37 47  1  0  0  0
 37 66  1  0  0  0
 37110  1  0  0  0
 38 43  2  0  0  0
 38 46  1  0  0  0
 38 47  1  0  0  0
 39 64  1  0  0  0
 39 67  2  0  0  0
 40 52  1  0  0  0
 40 53  2  0  0  0
 40 58  1  0  0  0
 41111  1  0  0  0
 41112  1  0  0  0
 41113  1  0  0  0
 41 48  1  0  0  0
 42 43  1  0  0  0
 42 66  1  0  0  0
 42114  1  0  0  0
 42115  1  0  0  0
 43 44  1  0  0  0
 44116  1  0  0  0
 45 46  2  0  0  0
 45117  1  0  0  0
 46118  1  0  0  0
 47119  1  0  0  0
 47120  1  0  0  0
 48 56  1  0  0  0
 48 65  1  0  0  0
 48121  1  0  0  0
 49 50  1  0  0  0
 49 53  1  0  0  0
 49 64  1  0  0  0
 49122  1  0  0  0
 50 51  1  0  0  0
 50123  1  0  0  0
 50124  1  0  0  0
 51 52  1  0  0  0
 51125  1  0  0  0
 51126  1  0  0  0
 52127  1  0  0  0
 52128  1  0  0  0
 53 54  1  0  0  0
 54 55  2  0  0  0
 54129  1  0  0  0
 55 57  1  0  0  0
 55130  1  0  0  0
 56 69  2  0  0  0
 57 58  2  0  0  0
 57131  1  0  0  0
 58132  1  0  0  0
 59 60  1  0  0  0
 59 61  1  0  0  0
 59 62  1  0  0  0
 60133  1  0  0  0
 60134  1  0  0  0
 60135  1  0  0  0
 61136  1  0  0  0
 61137  1  0  0  0
 61138  1  0  0  0
 62139  1  0  0  0
 62140  1  0  0  0
 62141  1  0  0  0
 63 65  1  0  0  0
 63142  1  0  0  0
 63143  1  0  0  0
 63144  1  0  0  0
 64145  1  0  0  0
 65146  1  0  0  0
 68 81  1  0  0  0
 71 73  2  0  0  0
 71 74  1  0  0  0
 71147  1  0  0  0
 72 73  1  0  0  0
 72 75  2  0  0  0
 72148  1  0  0  0
 73 85  1  0  0  0
 74 76  2  0  0  0
 74 82  1  0  0  0
 75 76  1  0  0  0
 75 84  1  0  0  0
 76 83  1  0  0  0
 77 78  1  0  0  0
 77 79  1  0  0  0
 77149  1  0  0  0
 77150  1  0  0  0
 78 81  1  0  0  0
 78151  1  0  0  0
 78152  1  0  0  0
 79 87  1  0  0  0
 79153  1  0  0  0
 79154  1  0  0  0
 80 81  1  0  0  0
 80 87  1  0  0  0
 80155  1  0  0  0
 80156  1  0  0  0
 81157  1  0  0  0
 82158  1  0  0  0
 82159  1  0  0  0
 82160  1  0  0  0
 83161  1  0  0  0
 83162  1  0  0  0
 83163  1  0  0  0
 84 86  1  0  0  0
 84164  1  0  0  0
 84165  1  0  0  0
 85166  1  0  0  0
 85167  1  0  0  0
 85 87  1  0  0  0
 86168  1  0  0  0
 87169  1  0  0  0
M  CHG  1  87   1
M  ISO  4   1 100  68 101  81 101  86 100
M  END
> <chiral flag>
0

> <version>
0

> <s_m_source_file>
/data/baiqing/PycharmProjects/Reinvent-master-3.2/result/LINK_invent/BTK/process_docking_weight1_custom_product_contain_oxygen_bond_distance_aromatic_linkinvent_7_9_3/rearranged_h_0035.sdf

> <i_m_source_file_index>
48

> <r_mmod_Potential_Energy-OPLS-2005>
-162.763061523438

> <r_mmod_Stretch_Energy-OPLS-2005>
50.4138107299805

> <r_mmod_Bend_Energy-OPLS-2005>
112.036659240723

> <r_mmod_Torsional_Energy-OPLS-2005>
220.186004638672

> <r_mmod_Improper_Torsional_Energy-OPLS-2005>
2.96950054168701

> <r_mmod_Van_der_Waal_Energy-OPLS-2005>
165.138626098633

> <r_mmod_Electrostatic_Energy-OPLS-2005>
-318.650299072266

> <r_mmod_Solvation_Energy-OPLS-2005>
-413.952697753906

> <b_mmod_Minimization_Converged-OPLS-2005>
0

> <r_mmod_RMS_Derivative-OPLS-2005>
5.18779325485229

$$$$
49
                    3D
 Structure written by MMmdl.
157165  0  0  1  0            999 V2000
  -30.4663  -15.0732   20.3946 C   0  0  0  0  0  0
  -30.4404  -12.6926   19.4893 C   0  0  0  0  0  0
  -29.5176  -12.5682   18.2560 C   0  0  0  0  0  0
  -28.0525  -12.3216   18.6724 C   0  0  0  0  0  0
  -27.6103  -13.2640   19.8191 C   0  0  2  0  0  0
  -28.6493  -13.3436   20.9503 C   0  0  0  0  0  0
  -25.2246  -13.8206   20.5710 C   0  0  0  0  0  0
  -24.1635  -13.0362   20.9269 C   0  0  0  0  0  0
  -24.6386  -11.6864   20.8901 C   0  0  0  0  0  0
  -23.9152  -10.4172   21.0549 C   0  0  0  0  0  0
  -24.3719   -9.4040   21.9251 C   0  0  0  0  0  0
  -23.6351   -8.2086   22.0801 C   0  0  0  0  0  0
  -22.4307   -8.0237   21.3600 C   0  0  0  0  0  0
  -22.0010   -9.0191   20.4623 C   0  0  0  0  0  0
  -22.7413  -10.2037   20.3078 C   0  0  0  0  0  0
  -21.6780   -6.0761   22.5294 C   0  0  0  0  0  0
  -21.3937   -6.5657   23.8210 C   0  0  0  0  0  0
  -21.3659   -5.6796   24.9170 C   0  0  0  0  0  0
  -21.6065   -4.3083   24.7215 C   0  0  0  0  0  0
  -21.8808   -3.8158   23.4345 C   0  0  0  0  0  0
  -21.9150   -4.6995   22.3392 C   0  0  0  0  0  0
  -22.7595  -13.5089   21.1852 C   0  0  0  0  0  0
  -22.1635   -4.2173   21.0996 F   0  0  0  0  0  0
  -21.5691   -3.4574   25.7758 F   0  0  0  0  0  0
  -29.9137  -13.7933   20.3503 N   0  0  0  0  0  0
  -26.2759  -12.9504   20.3257 N   0  0  0  0  0  0
  -25.9347  -11.6627   20.5973 N   0  0  0  0  0  0
  -22.0342  -12.8005   22.0466 N   0  0  0  0  0  0
  -25.3582  -15.1923   20.3948 N   0  0  0  0  0  0
  -31.6845  -15.1348   20.1755 O   0  0  0  0  0  0
  -21.6564   -6.8900   21.4287 O   0  0  0  0  0  0
  -22.3099  -14.5228   20.6583 O   0  0  0  0  0  0
  -24.6435  -31.8484   23.1912 C   0  0  0  0  0  0
  -25.9202  -32.4712   23.8278 C   0  0  1  0  0  0
  -27.2249  -27.1423   20.1528 C   0  0  0  0  0  0
  -25.5988  -33.8507   24.2190 N   0  0  0  0  0  0
  -23.4366  -30.4780   21.5410 C   0  0  2  0  0  0
  -24.8834  -28.8915   20.1216 C   0  0  0  0  0  0
  -22.7535  -29.4582   22.4897 C   0  0  0  0  0  0
  -18.0261  -28.1394   22.8467 C   0  0  0  0  0  0
  -24.1488  -36.7273   23.2641 C   0  0  0  0  0  0
  -25.9930  -30.7301   21.3766 C   0  0  0  0  0  0
  -26.0690  -29.3345   20.7258 C   0  0  0  0  0  0
  -27.2398  -28.4826   20.7179 C   0  0  0  0  0  0
  -26.0128  -26.7994   19.5212 C   0  0  0  0  0  0
  -24.8687  -27.6308   19.4980 C   0  0  0  0  0  0
  -23.6641  -29.8101   20.1634 C   0  0  0  0  0  0
  -25.4118  -36.3031   24.0308 C   0  0  1  0  0  0
  -20.5898  -28.3687   23.1264 C   0  0  2  0  0  0
  -20.6774  -26.9411   22.5395 C   0  0  0  0  0  0
  -19.5750  -26.6370   21.5209 C   0  0  0  0  0  0
  -18.1920  -26.7931   22.1617 C   0  0  0  0  0  0
  -19.1530  -28.8850   23.2859 C   0  0  0  0  0  0
  -18.9473  -30.1466   23.8858 C   0  0  0  0  0  0
  -17.6484  -30.6602   24.0561 C   0  0  0  0  0  0
  -25.9079  -34.9406   23.5043 C   0  0  0  0  0  0
  -16.5363  -29.9102   23.6350 C   0  0  0  0  0  0
  -16.7250  -28.6526   23.0339 C   0  0  0  0  0  0
  -26.4541  -31.6568   25.0712 C   0  0  0  0  0  0
  -25.3728  -31.3790   26.1420 C   0  0  0  0  0  0
  -27.0414  -30.2973   24.6251 C   0  0  0  0  0  0
  -27.6050  -32.4334   25.7539 C   0  0  0  0  0  0
  -27.5559  -37.1800   24.8452 C   0  0  0  0  0  0
  -21.4242  -29.3042   22.3655 N   0  0  0  0  0  0
  -26.4264  -37.3752   23.9408 N   0  0  0  0  0  0
  -24.7107  -31.0399   22.0910 N   0  0  0  0  0  0
  -23.4206  -28.8165   23.3032 O   0  0  0  0  0  0
  -28.2974  -26.1659   20.0975 O   0  0  0  0  0  0
  -26.5677  -34.8899   22.4622 O   0  0  0  0  0  0
  -23.5570  -32.1332   23.7185 O   0  0  0  0  0  0
  -26.5011  -19.5767   19.0280 C   0  0  0  0  0  0
  -26.3588  -18.7633   20.1682 C   0  0  0  0  0  0
  -28.6119  -20.4129   19.9134 C   0  0  0  0  0  0
  -27.6632  -20.3665   18.8529 C   0  0  0  0  0  0
  -27.4965  -18.4794   20.9512 C   0  0  0  0  0  0
  -28.7368  -19.0531   20.5869 C   0  0  0  0  0  0
  -28.6682  -21.9359   20.5281 C   0  0  0  0  0  0
  -28.4087  -23.2598   20.0309 C   0  0  0  0  0  0
  -27.7094  -21.2919   17.6411 C   0  0  0  0  0  0
  -27.3892  -17.4587   22.0733 C   0  0  0  0  0  0
  -29.8869  -17.8570   20.3884 C   0  0  0  0  0  0
  -28.2527  -24.7472   20.7559 C   0  0  0  0  0  0
  -29.6504  -16.2558   20.4684 N   0  0  0  0  0  0
  -31.4484  -12.9161   19.1370 H   0  0  0  0  0  0
  -30.4970  -11.7606   20.0535 H   0  0  0  0  0  0
  -29.8576  -11.7730   17.5920 H   0  0  0  0  0  0
  -29.5755  -13.4947   17.6740 H   0  0  0  0  0  0
  -27.9664  -11.2884   19.0099 H   0  0  0  0  0  0
  -27.3898  -12.4387   17.8124 H   0  0  0  0  0  0
  -27.5376  -14.2479   19.3711 H   0  0  0  0  0  0
  -28.7494  -12.3960   21.4712 H   0  0  0  0  0  0
  -28.3397  -14.0676   21.7016 H   0  0  0  0  0  0
  -25.2917   -9.5289   22.4843 H   0  0  0  0  0  0
  -24.0062   -7.4335   22.7421 H   0  0  0  0  0  0
  -21.1022   -8.8637   19.8764 H   0  0  0  0  0  0
  -22.4076  -10.9595   19.6109 H   0  0  0  0  0  0
  -21.1889   -7.6152   23.9710 H   0  0  0  0  0  0
  -21.1547   -6.0546   25.9072 H   0  0  0  0  0  0
  -22.0598   -2.7653   23.2833 H   0  0  0  0  0  0
  -22.4331  -12.0090   22.5261 H   0  0  0  0  0  0
  -21.0624  -13.0341   22.2048 H   0  0  0  0  0  0
  -24.5326  -15.7861   20.3998 H   0  0  0  0  0  0
  -26.1528  -15.6401   19.9671 H   0  0  0  0  0  0
  -26.7259  -32.5373   23.1012 H   0  0  0  0  0  0
  -25.0159  -33.9568   25.0359 H   0  0  0  0  0  0
  -22.7313  -31.3022   21.3919 H   0  0  0  0  0  0
  -23.3738  -35.9627   23.3310 H   0  0  0  0  0  0
  -24.3569  -36.8921   22.2060 H   0  0  0  0  0  0
  -23.7261  -37.6467   23.6684 H   0  0  0  0  0  0
  -26.1239  -31.4743   20.5906 H   0  0  0  0  0  0
  -26.8726  -30.8043   22.0062 H   0  0  0  0  0  0
  -28.1400  -28.8407   21.1908 H   0  0  0  0  0  0
  -25.9514  -25.8299   19.0565 H   0  0  0  0  0  0
  -23.9709  -27.2668   19.0090 H   0  0  0  0  0  0
  -23.8110  -30.5914   19.4136 H   0  0  0  0  0  0
  -22.7706  -29.2762   19.8383 H   0  0  0  0  0  0
  -25.1302  -36.1865   25.0804 H   0  0  0  0  0  0
  -20.9934  -28.3270   24.1420 H   0  0  0  0  0  0
  -20.5628  -26.2351   23.3625 H   0  0  0  0  0  0
  -21.6664  -26.7444   22.1252 H   0  0  0  0  0  0
  -19.6932  -25.6265   21.1288 H   0  0  0  0  0  0
  -19.6687  -27.3157   20.6731 H   0  0  0  0  0  0
  -17.4207  -26.6645   21.4008 H   0  0  0  0  0  0
  -18.0312  -26.0065   22.9008 H   0  0  0  0  0  0
  -19.7944  -30.7277   24.2218 H   0  0  0  0  0  0
  -17.5033  -31.6266   24.5188 H   0  0  0  0  0  0
  -15.5357  -30.3011   23.7662 H   0  0  0  0  0  0
  -15.8654  -28.0838   22.7077 H   0  0  0  0  0  0
  -24.5887  -30.7139   25.7793 H   0  0  0  0  0  0
  -24.8943  -32.2992   26.4742 H   0  0  0  0  0  0
  -25.8022  -30.9050   27.0238 H   0  0  0  0  0  0
  -26.3018  -29.6672   24.1289 H   0  0  0  0  0  0
  -27.4110  -29.7293   25.4788 H   0  0  0  0  0  0
  -27.8868  -30.4238   23.9500 H   0  0  0  0  0  0
  -27.2589  -33.3622   26.2061 H   0  0  0  0  0  0
  -28.3917  -32.6899   25.0444 H   0  0  0  0  0  0
  -28.0625  -31.8490   26.5515 H   0  0  0  0  0  0
  -28.2566  -38.0096   24.7480 H   0  0  0  0  0  0
  -28.1049  -36.2626   24.6294 H   0  0  0  0  0  0
  -27.2264  -37.1471   25.8844 H   0  0  0  0  0  0
  -20.9437  -29.8798   21.6893 H   0  0  0  0  0  0
  -26.0136  -38.2814   24.1430 H   0  0  0  0  0  0
  -25.6717  -19.6622   18.3390 H   0  0  0  0  0  0
  -25.4292  -18.2486   20.3677 H   0  0  0  0  0  0
  -28.8822  -21.9431   21.5915 H   0  0  0  0  0  0
  -28.2303  -23.3772   18.9785 H   0  0  0  0  0  0
  -27.4721  -20.7592   16.7126 H   0  0  0  0  0  0
  -28.7097  -21.7060   17.5130 H   0  0  0  0  0  0
  -26.9822  -22.1013   17.7466 H   0  0  0  0  0  0
  -27.2858  -16.4482   21.6882 H   0  0  0  0  0  0
  -26.5047  -17.6726   22.6781 H   0  0  0  0  0  0
  -28.2698  -17.4957   22.7232 H   0  0  0  0  0  0
  -30.6811  -18.0809   21.1034 H   0  0  0  0  0  0
  -30.3231  -18.0707   19.4128 H   0  0  0  0  0  0
  -29.0698  -24.7792   21.4790 H   0  0  0  0  0  0
  -27.3458  -24.7244   21.3527 H   0  0  0  0  0  0
  -28.6669  -16.0247   20.5199 H   0  0  0  0  0  0
  1 25  1  0  0  0
  1 30  2  0  0  0
  1 83  1  0  0  0
  2  3  1  0  0  0
  2 25  1  0  0  0
  2 84  1  0  0  0
  2 85  1  0  0  0
  3  4  1  0  0  0
  3 86  1  0  0  0
  3 87  1  0  0  0
  4  5  1  0  0  0
  4 88  1  0  0  0
  4 89  1  0  0  0
  5  6  1  0  0  0
  5 26  1  0  0  0
  5 90  1  0  0  0
  6 25  1  0  0  0
  6 91  1  0  0  0
  6 92  1  0  0  0
  7  8  2  0  0  0
  7 26  1  0  0  0
  7 29  1  0  0  0
  8  9  1  0  0  0
  8 22  1  0  0  0
  9 10  1  0  0  0
  9 27  2  0  0  0
 10 11  2  0  0  0
 10 15  1  0  0  0
 11 12  1  0  0  0
 11 93  1  0  0  0
 12 13  2  0  0  0
 12 94  1  0  0  0
 13 14  1  0  0  0
 13 31  1  0  0  0
 14 15  2  0  0  0
 14 95  1  0  0  0
 15 96  1  0  0  0
 16 17  2  0  0  0
 16 21  1  0  0  0
 16 31  1  0  0  0
 17 18  1  0  0  0
 17 97  1  0  0  0
 18 19  2  0  0  0
 18 98  1  0  0  0
 19 20  1  0  0  0
 19 24  1  0  0  0
 20 21  2  0  0  0
 20 99  1  0  0  0
 21 23  1  0  0  0
 22 28  1  0  0  0
 22 32  2  0  0  0
 26 27  1  0  0  0
 28100  1  0  0  0
 28101  1  0  0  0
 29102  1  0  0  0
 29103  1  0  0  0
 33 34  1  0  0  0
 33 66  1  0  0  0
 33 70  2  0  0  0
 34 36  1  0  0  0
 34 59  1  0  0  0
 34104  1  0  0  0
 35 44  2  0  0  0
 35 45  1  0  0  0
 35 68  1  0  0  0
 36 56  1  0  0  0
 36105  1  0  0  0
 37 39  1  0  0  0
 37 47  1  0  0  0
 37 66  1  0  0  0
 37106  1  0  0  0
 38 43  2  0  0  0
 38 46  1  0  0  0
 38 47  1  0  0  0
 39 64  1  0  0  0
 39 67  2  0  0  0
 40 52  1  0  0  0
 40 53  2  0  0  0
 40 58  1  0  0  0
 41107  1  0  0  0
 41108  1  0  0  0
 41109  1  0  0  0
 41 48  1  0  0  0
 42 43  1  0  0  0
 42 66  1  0  0  0
 42110  1  0  0  0
 42111  1  0  0  0
 43 44  1  0  0  0
 44112  1  0  0  0
 45 46  2  0  0  0
 45113  1  0  0  0
 46114  1  0  0  0
 47115  1  0  0  0
 47116  1  0  0  0
 48 56  1  0  0  0
 48 65  1  0  0  0
 48117  1  0  0  0
 49 50  1  0  0  0
 49 53  1  0  0  0
 49 64  1  0  0  0
 49118  1  0  0  0
 50 51  1  0  0  0
 50119  1  0  0  0
 50120  1  0  0  0
 51 52  1  0  0  0
 51121  1  0  0  0
 51122  1  0  0  0
 52123  1  0  0  0
 52124  1  0  0  0
 53 54  1  0  0  0
 54 55  2  0  0  0
 54125  1  0  0  0
 55 57  1  0  0  0
 55126  1  0  0  0
 56 69  2  0  0  0
 57 58  2  0  0  0
 57127  1  0  0  0
 58128  1  0  0  0
 59 60  1  0  0  0
 59 61  1  0  0  0
 59 62  1  0  0  0
 60129  1  0  0  0
 60130  1  0  0  0
 60131  1  0  0  0
 61132  1  0  0  0
 61133  1  0  0  0
 61134  1  0  0  0
 62135  1  0  0  0
 62136  1  0  0  0
 62137  1  0  0  0
 63 65  1  0  0  0
 63138  1  0  0  0
 63139  1  0  0  0
 63140  1  0  0  0
 64141  1  0  0  0
 65142  1  0  0  0
 68 82  1  0  0  0
 71 72  2  0  0  0
 71 74  1  0  0  0
 71143  1  0  0  0
 72 75  1  0  0  0
 72144  1  0  0  0
 73 74  2  0  0  0
 73 76  1  0  0  0
 73 77  1  0  0  0
 74 79  1  0  0  0
 75 76  2  0  0  0
 75 80  1  0  0  0
 76 81  1  0  0  0
 77 78  2  0  0  0
 77145  1  0  0  0
 78 82  1  0  0  0
 78146  1  0  0  0
 79147  1  0  0  0
 79148  1  0  0  0
 79149  1  0  0  0
 80150  1  0  0  0
 80151  1  0  0  0
 80152  1  0  0  0
 81 83  1  0  0  0
 81153  1  0  0  0
 81154  1  0  0  0
 82155  1  0  0  0
 82156  1  0  0  0
 83157  1  0  0  0
M  ISO  4   1 100  68 101  82 101  83 100
M  END
> <chiral flag>
0

> <version>
0

> <s_m_source_file>
/data/baiqing/PycharmProjects/Reinvent-master-3.2/result/LINK_invent/BTK/process_docking_weight1_custom_product_contain_oxygen_bond_distance_aromatic_linkinvent_7_9_3/rearranged_h_0035.sdf

> <i_m_source_file_index>
49

> <r_mmod_Potential_Energy-OPLS-2005>
873.678344726562

> <r_mmod_Stretch_Energy-OPLS-2005>
326.394897460938

> <r_mmod_Bend_Energy-OPLS-2005>
290.754333496094

> <r_mmod_Torsional_Energy-OPLS-2005>
464.664306640625

> <r_mmod_Improper_Torsional_Energy-OPLS-2005>
27.9448299407959

> <r_mmod_Van_der_Waal_Energy-OPLS-2005>
131.747833251953

> <r_mmod_Electrostatic_Energy-OPLS-2005>
-412.063110351562

> <r_mmod_Solvation_Energy-OPLS-2005>
-199.675308227539

> <b_mmod_Minimization_Converged-OPLS-2005>
0

> <r_mmod_RMS_Derivative-OPLS-2005>
12.7866554260254

$$$$
50
                    3D
 Structure written by MMmdl.
148156  0  0  1  0            999 V2000
  -30.3754  -15.4297   20.3549 C   0  0  0  0  0  0
  -30.4364  -12.9273   19.5363 C   0  0  0  0  0  0
  -29.5453  -12.6152   18.3042 C   0  0  0  0  0  0
  -28.1026  -12.3030   18.7349 C   0  0  0  0  0  0
  -27.6057  -13.2900   19.8184 C   0  0  2  0  0  0
  -28.6320  -13.5314   20.9477 C   0  0  0  0  0  0
  -25.2364  -13.8264   20.5757 C   0  0  0  0  0  0
  -24.1737  -13.0436   20.9274 C   0  0  0  0  0  0
  -24.6412  -11.6941   20.8763 C   0  0  0  0  0  0
  -23.9109  -10.4295   21.0402 C   0  0  0  0  0  0
  -24.3647   -9.4208   21.9183 C   0  0  0  0  0  0
  -23.6312   -8.2248   22.0754 C   0  0  0  0  0  0
  -22.4292   -8.0288   21.3546 C   0  0  0  0  0  0
  -21.9937   -9.0263   20.4644 C   0  0  0  0  0  0
  -22.7276  -10.2136   20.3053 C   0  0  0  0  0  0
  -21.6858   -6.0742   22.5281 C   0  0  0  0  0  0
  -21.4017   -6.5644   23.8215 C   0  0  0  0  0  0
  -21.3660   -5.6795   24.9176 C   0  0  0  0  0  0
  -21.6044   -4.3058   24.7225 C   0  0  0  0  0  0
  -21.8818   -3.8151   23.4346 C   0  0  0  0  0  0
  -21.9194   -4.6969   22.3402 C   0  0  0  0  0  0
  -22.7751  -13.5180   21.1911 C   0  0  0  0  0  0
  -22.1662   -4.2155   21.0980 F   0  0  0  0  0  0
  -21.5627   -3.4540   25.7737 F   0  0  0  0  0  0
  -29.8404  -14.0910   20.3116 N   0  0  0  0  0  0
  -26.2802  -12.9563   20.3212 N   0  0  0  0  0  0
  -25.9353  -11.6655   20.5705 N   0  0  0  0  0  0
  -22.0408  -12.8162   22.0461 N   0  0  0  0  0  0
  -25.3968  -15.2000   20.4172 N   0  0  0  0  0  0
  -31.6029  -15.4077   20.1605 O   0  0  0  0  0  0
  -21.6648   -6.8889   21.4245 O   0  0  0  0  0  0
  -22.3430  -14.5480   20.6745 O   0  0  0  0  0  0
  -24.6732  -31.8123   23.1634 C   0  0  0  0  0  0
  -25.9366  -32.4529   23.8130 C   0  0  1  0  0  0
  -27.2188  -26.8153   20.2014 C   0  0  0  0  0  0
  -25.5989  -33.8350   24.2020 N   0  0  0  0  0  0
  -23.4941  -30.4206   21.5142 C   0  0  2  0  0  0
  -24.9513  -28.7884   20.1156 C   0  0  0  0  0  0
  -22.7720  -29.4381   22.4744 C   0  0  0  0  0  0
  -18.0332  -28.1414   22.8456 C   0  0  0  0  0  0
  -24.1500  -36.7187   23.2648 C   0  0  0  0  0  0
  -26.0700  -30.5801   21.4150 C   0  0  0  0  0  0
  -26.1363  -29.1571   20.7648 C   0  0  0  0  0  0
  -27.2599  -28.1934   20.7855 C   0  0  0  0  0  0
  -26.0104  -26.6402   19.4828 C   0  0  0  0  0  0
  -24.9202  -27.5522   19.4524 C   0  0  0  0  0  0
  -23.7426  -29.7296   20.1442 C   0  0  0  0  0  0
  -25.4143  -36.2933   24.0288 C   0  0  1  0  0  0
  -20.5961  -28.3772   23.1158 C   0  0  2  0  0  0
  -20.6802  -26.9441   22.5400 C   0  0  0  0  0  0
  -19.5777  -26.6373   21.5214 C   0  0  0  0  0  0
  -18.1960  -26.7942   22.1621 C   0  0  0  0  0  0
  -19.1595  -28.8915   23.2790 C   0  0  0  0  0  0
  -18.9501  -30.1499   23.8834 C   0  0  0  0  0  0
  -17.6492  -30.6598   24.0552 C   0  0  0  0  0  0
  -25.9113  -34.9317   23.4983 C   0  0  0  0  0  0
  -16.5383  -29.9081   23.6345 C   0  0  0  0  0  0
  -16.7312  -28.6504   23.0359 C   0  0  0  0  0  0
  -26.4577  -31.6517   25.0706 C   0  0  0  0  0  0
  -25.3671  -31.3801   26.1338 C   0  0  0  0  0  0
  -27.0491  -30.2863   24.6537 C   0  0  0  0  0  0
  -27.6042  -32.4355   25.7519 C   0  0  0  0  0  0
  -27.5569  -37.1751   24.8463 C   0  0  0  0  0  0
  -21.4378  -29.3041   22.3494 N   0  0  0  0  0  0
  -26.4279  -37.3678   23.9401 N   0  0  0  0  0  0
  -24.7680  -30.9675   22.0836 N   0  0  0  0  0  0
  -23.4214  -28.7961   23.3035 O   0  0  0  0  0  0
  -28.1741  -25.6263   20.2478 O   0  0  0  0  0  0
  -26.5737  -34.8868   22.4589 O   0  0  0  0  0  0
  -23.5775  -32.1149   23.6651 O   0  0  0  0  0  0
  -31.0959  -18.8642   20.2005 C   0  0  0  0  0  0
  -31.4327  -20.2482   20.1168 C   0  0  0  0  0  0
  -29.1241  -21.1921   20.3045 C   0  0  0  0  0  0
  -28.8245  -19.6416   20.3917 C   0  0  0  0  0  0
  -29.7752  -18.3848   20.3455 C   0  0  0  0  0  0
  -30.5254  -21.3495   20.1632 C   0  0  0  0  0  0
  -28.1284  -22.6316   20.3462 C   0  0  0  0  0  0
  -27.7761  -24.1133   20.3276 C   0  0  0  0  0  0
  -27.3541  -19.3088   20.5455 C   0  0  0  0  0  0
  -29.5876  -16.7297   20.4235 N   0  0  0  0  0  0
  -31.1934  -22.9387   20.0382 Cl  0  0  0  0  0  0
  -31.4456  -13.1578   19.1929 H   0  0  0  0  0  0
  -30.5432  -12.0460   20.1713 H   0  0  0  0  0  0
  -29.9583  -11.7826   17.7333 H   0  0  0  0  0  0
  -29.5455  -13.4765   17.6344 H   0  0  0  0  0  0
  -28.0875  -11.2872   19.1316 H   0  0  0  0  0  0
  -27.4349  -12.3069   17.8724 H   0  0  0  0  0  0
  -27.4984  -14.2389   19.2915 H   0  0  0  0  0  0
  -28.8400  -12.6176   21.5062 H   0  0  0  0  0  0
  -28.2390  -14.2515   21.6670 H   0  0  0  0  0  0
  -25.2787   -9.5682   22.4767 H   0  0  0  0  0  0
  -24.0013   -7.4640   22.7478 H   0  0  0  0  0  0
  -21.0867   -8.8789   19.8950 H   0  0  0  0  0  0
  -22.3734  -10.9679   19.6165 H   0  0  0  0  0  0
  -21.2012   -7.6152   23.9720 H   0  0  0  0  0  0
  -21.1483   -6.0525   25.9079 H   0  0  0  0  0  0
  -22.0595   -2.7614   23.2843 H   0  0  0  0  0  0
  -22.4042  -11.9838   22.4863 H   0  0  0  0  0  0
  -21.1014  -13.1162   22.2649 H   0  0  0  0  0  0
  -24.6184  -15.8425   20.5168 H   0  0  0  0  0  0
  -26.2228  -15.6363   20.0311 H   0  0  0  0  0  0
  -26.7441  -32.5029   23.0841 H   0  0  0  0  0  0
  -25.0064  -33.9413   25.0122 H   0  0  0  0  0  0
  -22.8139  -31.2557   21.3347 H   0  0  0  0  0  0
  -23.3771  -35.9509   23.3273 H   0  0  0  0  0  0
  -24.3575  -36.8880   22.2071 H   0  0  0  0  0  0
  -23.7252  -37.6358   23.6738 H   0  0  0  0  0  0
  -26.2622  -31.3118   20.6293 H   0  0  0  0  0  0
  -26.9258  -30.6436   22.0747 H   0  0  0  0  0  0
  -28.1525  -28.4754   21.3256 H   0  0  0  0  0  0
  -25.8704  -25.7067   18.9572 H   0  0  0  0  0  0
  -24.0276  -27.2668   18.9123 H   0  0  0  0  0  0
  -23.9081  -30.4950   19.3853 H   0  0  0  0  0  0
  -22.8503  -29.1901   19.8221 H   0  0  0  0  0  0
  -25.1348  -36.1715   25.0778 H   0  0  0  0  0  0
  -21.0043  -28.3389   24.1284 H   0  0  0  0  0  0
  -20.5671  -26.2397   23.3653 H   0  0  0  0  0  0
  -21.6665  -26.7394   22.1214 H   0  0  0  0  0  0
  -19.6936  -25.6268   21.1284 H   0  0  0  0  0  0
  -19.6715  -27.3149   20.6717 H   0  0  0  0  0  0
  -17.4226  -26.6677   21.4029 H   0  0  0  0  0  0
  -18.0356  -26.0104   22.9037 H   0  0  0  0  0  0
  -19.7976  -30.7331   24.2177 H   0  0  0  0  0  0
  -17.5042  -31.6271   24.5167 H   0  0  0  0  0  0
  -15.5379  -30.2961   23.7704 H   0  0  0  0  0  0
  -15.8714  -28.0802   22.7105 H   0  0  0  0  0  0
  -24.5885  -30.7116   25.7646 H   0  0  0  0  0  0
  -24.8825  -32.3010   26.4588 H   0  0  0  0  0  0
  -25.7876  -30.9086   27.0231 H   0  0  0  0  0  0
  -26.3185  -29.6505   24.1522 H   0  0  0  0  0  0
  -27.3941  -29.7270   25.5245 H   0  0  0  0  0  0
  -27.9163  -30.4005   24.0031 H   0  0  0  0  0  0
  -27.2588  -33.3709   26.1934 H   0  0  0  0  0  0
  -28.3937  -32.6832   25.0412 H   0  0  0  0  0  0
  -28.0620  -31.8595   26.5571 H   0  0  0  0  0  0
  -28.2555  -38.0075   24.7508 H   0  0  0  0  0  0
  -28.1096  -36.2597   24.6295 H   0  0  0  0  0  0
  -27.2283  -37.1396   25.8864 H   0  0  0  0  0  0
  -20.9657  -29.8721   21.6597 H   0  0  0  0  0  0
  -26.0119  -38.2734   24.1402 H   0  0  0  0  0  0
  -31.9047  -18.1493   20.1499 H   0  0  0  0  0  0
  -32.4809  -20.4856   20.0079 H   0  0  0  0  0  0
  -27.1525  -22.1795   20.4503 H   0  0  0  0  0  0
  -26.7023  -24.1800   20.4349 H   0  0  0  0  0  0
  -26.9425  -19.8053   21.4244 H   0  0  0  0  0  0
  -27.1900  -18.2374   20.6588 H   0  0  0  0  0  0
  -26.7977  -19.6436   19.6700 H   0  0  0  0  0  0
  -28.6152  -16.4869   20.5395 H   0  0  0  0  0  0
  1 25  1  0  0  0
  1 30  2  0  0  0
  1 80  1  0  0  0
  2  3  1  0  0  0
  2 25  1  0  0  0
  2 82  1  0  0  0
  2 83  1  0  0  0
  3  4  1  0  0  0
  3 84  1  0  0  0
  3 85  1  0  0  0
  4  5  1  0  0  0
  4 86  1  0  0  0
  4 87  1  0  0  0
  5  6  1  0  0  0
  5 26  1  0  0  0
  5 88  1  0  0  0
  6 25  1  0  0  0
  6 89  1  0  0  0
  6 90  1  0  0  0
  7  8  2  0  0  0
  7 26  1  0  0  0
  7 29  1  0  0  0
  8  9  1  0  0  0
  8 22  1  0  0  0
  9 10  1  0  0  0
  9 27  2  0  0  0
 10 11  2  0  0  0
 10 15  1  0  0  0
 11 12  1  0  0  0
 11 91  1  0  0  0
 12 13  2  0  0  0
 12 92  1  0  0  0
 13 14  1  0  0  0
 13 31  1  0  0  0
 14 15  2  0  0  0
 14 93  1  0  0  0
 15 94  1  0  0  0
 16 17  2  0  0  0
 16 21  1  0  0  0
 16 31  1  0  0  0
 17 18  1  0  0  0
 17 95  1  0  0  0
 18 19  2  0  0  0
 18 96  1  0  0  0
 19 20  1  0  0  0
 19 24  1  0  0  0
 20 21  2  0  0  0
 20 97  1  0  0  0
 21 23  1  0  0  0
 22 28  1  0  0  0
 22 32  2  0  0  0
 26 27  1  0  0  0
 28 98  1  0  0  0
 28 99  1  0  0  0
 29100  1  0  0  0
 29101  1  0  0  0
 33 34  1  0  0  0
 33 66  1  0  0  0
 33 70  2  0  0  0
 34 36  1  0  0  0
 34 59  1  0  0  0
 34102  1  0  0  0
 35 44  2  0  0  0
 35 45  1  0  0  0
 35 68  1  0  0  0
 36 56  1  0  0  0
 36103  1  0  0  0
 37 39  1  0  0  0
 37 47  1  0  0  0
 37 66  1  0  0  0
 37104  1  0  0  0
 38 43  2  0  0  0
 38 46  1  0  0  0
 38 47  1  0  0  0
 39 64  1  0  0  0
 39 67  2  0  0  0
 40 52  1  0  0  0
 40 53  2  0  0  0
 40 58  1  0  0  0
 41105  1  0  0  0
 41106  1  0  0  0
 41107  1  0  0  0
 41 48  1  0  0  0
 42 43  1  0  0  0
 42 66  1  0  0  0
 42108  1  0  0  0
 42109  1  0  0  0
 43 44  1  0  0  0
 44110  1  0  0  0
 45 46  2  0  0  0
 45111  1  0  0  0
 46112  1  0  0  0
 47113  1  0  0  0
 47114  1  0  0  0
 48 56  1  0  0  0
 48 65  1  0  0  0
 48115  1  0  0  0
 49 50  1  0  0  0
 49 53  1  0  0  0
 49 64  1  0  0  0
 49116  1  0  0  0
 50 51  1  0  0  0
 50117  1  0  0  0
 50118  1  0  0  0
 51 52  1  0  0  0
 51119  1  0  0  0
 51120  1  0  0  0
 52121  1  0  0  0
 52122  1  0  0  0
 53 54  1  0  0  0
 54 55  2  0  0  0
 54123  1  0  0  0
 55 57  1  0  0  0
 55124  1  0  0  0
 56 69  2  0  0  0
 57 58  2  0  0  0
 57125  1  0  0  0
 58126  1  0  0  0
 59 60  1  0  0  0
 59 61  1  0  0  0
 59 62  1  0  0  0
 60127  1  0  0  0
 60128  1  0  0  0
 60129  1  0  0  0
 61130  1  0  0  0
 61131  1  0  0  0
 61132  1  0  0  0
 62133  1  0  0  0
 62134  1  0  0  0
 62135  1  0  0  0
 63 65  1  0  0  0
 63136  1  0  0  0
 63137  1  0  0  0
 63138  1  0  0  0
 64139  1  0  0  0
 65140  1  0  0  0
 68 78  1  0  0  0
 71 72  2  0  0  0
 71 75  1  0  0  0
 71141  1  0  0  0
 72 76  1  0  0  0
 72142  1  0  0  0
 73 74  1  0  0  0
 73 76  2  0  0  0
 73 77  1  0  0  0
 74 75  2  0  0  0
 74 79  1  0  0  0
 75 80  1  0  0  0
 76 81  1  0  0  0
 77 78  2  0  0  0
 77143  1  0  0  0
 78144  1  0  0  0
 79145  1  0  0  0
 79146  1  0  0  0
 79147  1  0  0  0
 80148  1  0  0  0
M  ISO  4   1 100  68 101  78 101  80 100
M  END
> <chiral flag>
0

> <version>
0

> <s_m_source_file>
/data/baiqing/PycharmProjects/Reinvent-master-3.2/result/LINK_invent/BTK/process_docking_weight1_custom_product_contain_oxygen_bond_distance_aromatic_linkinvent_7_9_3/rearranged_h_0035.sdf

> <i_m_source_file_index>
50

> <r_mmod_Potential_Energy-OPLS-2005>
1715.72924804688

> <r_mmod_Stretch_Energy-OPLS-2005>
726.206481933594

> <r_mmod_Bend_Energy-OPLS-2005>
567.925354003906

> <r_mmod_Torsional_Energy-OPLS-2005>
211.357299804688

> <r_mmod_Improper_Torsional_Energy-OPLS-2005>
3.86696219444275

> <r_mmod_Van_der_Waal_Energy-OPLS-2005>
125.576347351074

> <r_mmod_Electrostatic_Energy-OPLS-2005>
-357.403198242188

> <r_mmod_Solvation_Energy-OPLS-2005>
-211.347442626953

> <b_mmod_Minimization_Converged-OPLS-2005>
0

> <r_mmod_RMS_Derivative-OPLS-2005>
0.52885228395462

$$$$
51
                    3D
 Structure written by MMmdl.
164173  0  0  1  0            999 V2000
  -30.6243  -14.6238   20.5053 C   0  0  0  0  0  0
  -30.4363  -12.3818   19.4516 C   0  0  0  0  0  0
  -29.5041  -12.5036   18.2245 C   0  0  0  0  0  0
  -28.0268  -12.3470   18.6383 C   0  0  0  0  0  0
  -27.6551  -13.2108   19.8732 C   0  0  2  0  0  0
  -28.7004  -13.0551   21.0008 C   0  0  0  0  0  0
  -25.2566  -13.8158   20.5710 C   0  0  0  0  0  0
  -24.1818  -13.0428   20.9195 C   0  0  0  0  0  0
  -24.6383  -11.6899   20.8753 C   0  0  0  0  0  0
  -23.9050  -10.4287   21.0411 C   0  0  0  0  0  0
  -24.3607   -9.4206   21.9190 C   0  0  0  0  0  0
  -23.6288   -8.2239   22.0755 C   0  0  0  0  0  0
  -22.4273   -8.0277   21.3546 C   0  0  0  0  0  0
  -21.9903   -9.0246   20.4647 C   0  0  0  0  0  0
  -22.7224  -10.2130   20.3057 C   0  0  0  0  0  0
  -21.6849   -6.0731   22.5279 C   0  0  0  0  0  0
  -21.4012   -6.5636   23.8210 C   0  0  0  0  0  0
  -21.3658   -5.6792   24.9175 C   0  0  0  0  0  0
  -21.6049   -4.3054   24.7227 C   0  0  0  0  0  0
  -21.8818   -3.8144   23.4347 C   0  0  0  0  0  0
  -21.9195   -4.6961   22.3403 C   0  0  0  0  0  0
  -22.7846  -13.5236   21.1859 C   0  0  0  0  0  0
  -22.1664   -4.2141   21.0981 F   0  0  0  0  0  0
  -21.5633   -3.4540   25.7740 F   0  0  0  0  0  0
  -30.0172  -13.3977   20.4378 N   0  0  0  0  0  0
  -26.2994  -12.9326   20.3387 N   0  0  0  0  0  0
  -25.9313  -11.6486   20.5788 N   0  0  0  0  0  0
  -22.0490  -12.8217   22.0410 N   0  0  0  0  0  0
  -25.4296  -15.1876   20.4141 N   0  0  0  0  0  0
  -31.7747  -14.7988   20.0925 O   0  0  0  0  0  0
  -21.6642   -6.8872   21.4238 O   0  0  0  0  0  0
  -22.3531  -14.5546   20.6718 O   0  0  0  0  0  0
  -24.6244  -31.8624   23.2056 C   0  0  0  0  0  0
  -25.9103  -32.4784   23.8375 C   0  0  1  0  0  0
  -27.2186  -27.3251   20.1171 C   0  0  0  0  0  0
  -25.5928  -33.8587   24.2296 N   0  0  0  0  0  0
  -23.4182  -30.4873   21.5469 C   0  0  2  0  0  0
  -24.8634  -28.9456   20.1122 C   0  0  0  0  0  0
  -22.7458  -29.4651   22.4935 C   0  0  0  0  0  0
  -18.0304  -28.1382   22.8514 C   0  0  0  0  0  0
  -24.1493  -36.7294   23.2639 C   0  0  0  0  0  0
  -25.9589  -30.7945   21.3773 C   0  0  0  0  0  0
  -26.0323  -29.4218   20.7199 C   0  0  0  0  0  0
  -27.2134  -28.6225   20.7151 C   0  0  0  0  0  0
  -26.0311  -26.9131   19.4667 C   0  0  0  0  0  0
  -24.8638  -27.6958   19.4781 C   0  0  0  0  0  0
  -23.6325  -29.8249   20.1617 C   0  0  0  0  0  0
  -25.4112  -36.3079   24.0329 C   0  0  1  0  0  0
  -20.5899  -28.3713   23.1302 C   0  0  2  0  0  0
  -20.6792  -26.9426   22.5439 C   0  0  0  0  0  0
  -19.5761  -26.6374   21.5248 C   0  0  0  0  0  0
  -18.1946  -26.7925   22.1669 C   0  0  0  0  0  0
  -19.1551  -28.8857   23.2907 C   0  0  0  0  0  0
  -18.9490  -30.1464   23.8911 C   0  0  0  0  0  0
  -17.6492  -30.6603   24.0576 C   0  0  0  0  0  0
  -25.9046  -34.9449   23.5108 C   0  0  0  0  0  0
  -16.5382  -29.9100   23.6335 C   0  0  0  0  0  0
  -16.7296  -28.6520   23.0354 C   0  0  0  0  0  0
  -26.4493  -31.6584   25.0743 C   0  0  0  0  0  0
  -25.3726  -31.3723   26.1472 C   0  0  0  0  0  0
  -27.0340  -30.3004   24.6193 C   0  0  0  0  0  0
  -27.6042  -32.4325   25.7521 C   0  0  0  0  0  0
  -27.5577  -37.1801   24.8463 C   0  0  0  0  0  0
  -21.4162  -29.3106   22.3706 N   0  0  0  0  0  0
  -26.4291  -37.3770   23.9404 N   0  0  0  0  0  0
  -24.6854  -31.0653   22.0999 N   0  0  0  0  0  0
  -23.4193  -28.8148   23.2977 O   0  0  0  0  0  0
  -28.3357  -26.4758   20.1547 O   0  0  0  0  0  0
  -26.5608  -34.8914   22.4673 O   0  0  0  0  0  0
  -23.5416  -32.1414   23.7404 O   0  0  0  0  0  0
  -29.3166  -18.9954   19.1240 C   0  0  0  0  0  0
  -30.2193  -18.0576   21.5833 C   0  0  0  0  0  0
  -29.4193  -17.5932   19.3538 C   0  0  0  0  0  0
  -29.6706  -19.9694   20.0943 C   0  0  0  0  0  0
  -29.8838  -17.0849   20.5997 C   0  0  0  0  0  0
  -30.1354  -19.4644   21.3376 C   0  0  0  0  0  0
  -27.6872  -22.3505   21.1205 C   0  0  0  0  0  0
  -26.8000  -21.4656   20.6323 C   0  0  0  0  0  0
  -27.3994  -23.3609   22.2358 C   0  0  0  0  0  0
  -27.8659  -24.8087   21.9306 C   0  0  0  0  0  0
  -29.2006  -23.9891   19.9661 C   0  0  0  0  0  0
  -28.1058  -25.0336   20.4296 C   0  0  2  0  0  0
  -29.0023  -16.6574   18.2332 C   0  0  0  0  0  0
  -29.6643  -21.4915   19.6833 C   0  0  0  0  0  0
  -29.8371  -15.6609   20.9244 N   0  0  0  0  0  0
  -29.0516  -22.5829   20.5452 N   0  3  2  0  0  0
  -30.6123  -20.5672   22.5796 Cl  0  0  0  0  0  0
  -31.4785  -12.5041   19.1506 H   0  0  0  0  0  0
  -30.3665  -11.3842   19.8881 H   0  0  0  0  0  0
  -29.7623  -11.7531   17.4763 H   0  0  0  0  0  0
  -29.6492  -13.4708   17.7434 H   0  0  0  0  0  0
  -27.8599  -11.2928   18.8651 H   0  0  0  0  0  0
  -27.3698  -12.5848   17.8002 H   0  0  0  0  0  0
  -27.6759  -14.2471   19.5428 H   0  0  0  0  0  0
  -28.7087  -12.0300   21.3752 H   0  0  0  0  0  0
  -28.4467  -13.6796   21.8588 H   0  0  0  0  0  0
  -25.2751   -9.5681   22.4765 H   0  0  0  0  0  0
  -23.9999   -7.4628   22.7469 H   0  0  0  0  0  0
  -21.0839   -8.8767   19.8950 H   0  0  0  0  0  0
  -22.3688  -10.9673   19.6169 H   0  0  0  0  0  0
  -21.2002   -7.6143   23.9705 H   0  0  0  0  0  0
  -21.1485   -6.0528   25.9076 H   0  0  0  0  0  0
  -22.0598   -2.7603   23.2854 H   0  0  0  0  0  0
  -22.4107  -11.9876   22.4789 H   0  0  0  0  0  0
  -21.1109  -13.1239   22.2623 H   0  0  0  0  0  0
  -24.6632  -15.8425   20.5253 H   0  0  0  0  0  0
  -26.2855  -15.6304   20.1059 H   0  0  0  0  0  0
  -26.7161  -32.5459   23.1116 H   0  0  0  0  0  0
  -25.0050  -33.9735   25.0422 H   0  0  0  0  0  0
  -22.7121  -31.3078   21.4038 H   0  0  0  0  0  0
  -23.3745  -35.9638   23.3308 H   0  0  0  0  0  0
  -24.3587  -36.8915   22.2055 H   0  0  0  0  0  0
  -23.7264  -37.6507   23.6661 H   0  0  0  0  0  0
  -26.0917  -31.5603   20.6115 H   0  0  0  0  0  0
  -26.8388  -30.8413   22.0072 H   0  0  0  0  0  0
  -28.1084  -28.9821   21.2030 H   0  0  0  0  0  0
  -25.9713  -25.9806   18.9260 H   0  0  0  0  0  0
  -23.9717  -27.3320   18.9865 H   0  0  0  0  0  0
  -23.7506  -30.6042   19.4076 H   0  0  0  0  0  0
  -22.7526  -29.2536   19.8585 H   0  0  0  0  0  0
  -25.1296  -36.1930   25.0821 H   0  0  0  0  0  0
  -20.9996  -28.3307   24.1423 H   0  0  0  0  0  0
  -20.5726  -26.2318   23.3657 H   0  0  0  0  0  0
  -21.6660  -26.7472   22.1215 H   0  0  0  0  0  0
  -19.6945  -25.6283   21.1277 H   0  0  0  0  0  0
  -19.6677  -27.3177   20.6771 H   0  0  0  0  0  0
  -17.4210  -26.6644   21.4090 H   0  0  0  0  0  0
  -18.0360  -26.0101   22.9108 H   0  0  0  0  0  0
  -19.7969  -30.7286   24.2252 H   0  0  0  0  0  0
  -17.5054  -31.6290   24.5172 H   0  0  0  0  0  0
  -15.5379  -30.3003   23.7648 H   0  0  0  0  0  0
  -15.8693  -28.0856   22.7052 H   0  0  0  0  0  0
  -24.5889  -30.7087   25.7807 H   0  0  0  0  0  0
  -24.8927  -32.2895   26.4900 H   0  0  0  0  0  0
  -25.8045  -30.8900   27.0249 H   0  0  0  0  0  0
  -26.2930  -29.6756   24.1193 H   0  0  0  0  0  0
  -27.4015  -29.7253   25.4703 H   0  0  0  0  0  0
  -27.8803  -30.4299   23.9438 H   0  0  0  0  0  0
  -27.2635  -33.3608   26.2122 H   0  0  0  0  0  0
  -28.3840  -32.6920   25.0349 H   0  0  0  0  0  0
  -28.0721  -31.8443   26.5428 H   0  0  0  0  0  0
  -28.2588  -38.0101   24.7491 H   0  0  0  0  0  0
  -28.1073  -36.2627   24.6300 H   0  0  0  0  0  0
  -27.2290  -37.1462   25.8864 H   0  0  0  0  0  0
  -20.9318  -29.8918   21.7005 H   0  0  0  0  0  0
  -26.0165  -38.2846   24.1394 H   0  0  0  0  0  0
  -28.9726  -19.3320   18.1554 H   0  0  0  0  0  0
  -30.5480  -17.7237   22.5565 H   0  0  0  0  0  0
  -25.8137  -21.3836   21.0651 H   0  0  0  0  0  0
  -27.0205  -20.8109   19.8030 H   0  0  0  0  0  0
  -27.8439  -23.0117   23.1687 H   0  0  0  0  0  0
  -26.3224  -23.3715   22.4091 H   0  0  0  0  0  0
  -28.7868  -25.0258   22.4714 H   0  0  0  0  0  0
  -27.1250  -25.5152   22.3065 H   0  0  0  0  0  0
  -30.1931  -24.3534   20.2295 H   0  0  0  0  0  0
  -29.1748  -23.9402   18.8778 H   0  0  0  0  0  0
  -27.2026  -24.7080   19.9228 H   0  0  0  0  0  0
  -28.0314  -16.2135   18.4479 H   0  0  0  0  0  0
  -29.7332  -15.8626   18.0922 H   0  0  0  0  0  0
  -28.9212  -17.1873   17.2840 H   0  0  0  0  0  0
  -29.1802  -21.5586   18.7081 H   0  0  0  0  0  0
  -30.7035  -21.7647   19.5022 H   0  0  0  0  0  0
  -28.9656  -15.3531   21.3307 H   0  0  0  0  0  0
  -29.6713  -22.5828   21.3441 H   0  0  0  0  0  0
  1 25  1  0  0  0
  1 30  2  0  0  0
  1 85  1  0  0  0
  2  3  1  0  0  0
  2 25  1  0  0  0
  2 88  1  0  0  0
  2 89  1  0  0  0
  3  4  1  0  0  0
  3 90  1  0  0  0
  3 91  1  0  0  0
  4  5  1  0  0  0
  4 92  1  0  0  0
  4 93  1  0  0  0
  5  6  1  0  0  0
  5 26  1  0  0  0
  5 94  1  0  0  0
  6 25  1  0  0  0
  6 95  1  0  0  0
  6 96  1  0  0  0
  7  8  2  0  0  0
  7 26  1  0  0  0
  7 29  1  0  0  0
  8  9  1  0  0  0
  8 22  1  0  0  0
  9 10  1  0  0  0
  9 27  2  0  0  0
 10 11  2  0  0  0
 10 15  1  0  0  0
 11 12  1  0  0  0
 11 97  1  0  0  0
 12 13  2  0  0  0
 12 98  1  0  0  0
 13 14  1  0  0  0
 13 31  1  0  0  0
 14 15  2  0  0  0
 14 99  1  0  0  0
 15100  1  0  0  0
 16 17  2  0  0  0
 16 21  1  0  0  0
 16 31  1  0  0  0
 17 18  1  0  0  0
 17101  1  0  0  0
 18 19  2  0  0  0
 18102  1  0  0  0
 19 20  1  0  0  0
 19 24  1  0  0  0
 20 21  2  0  0  0
 20103  1  0  0  0
 21 23  1  0  0  0
 22 28  1  0  0  0
 22 32  2  0  0  0
 26 27  1  0  0  0
 28104  1  0  0  0
 28105  1  0  0  0
 29106  1  0  0  0
 29107  1  0  0  0
 33 34  1  0  0  0
 33 66  1  0  0  0
 33 70  2  0  0  0
 34 36  1  0  0  0
 34 59  1  0  0  0
 34108  1  0  0  0
 35 44  2  0  0  0
 35 45  1  0  0  0
 35 68  1  0  0  0
 36 56  1  0  0  0
 36109  1  0  0  0
 37 39  1  0  0  0
 37 47  1  0  0  0
 37 66  1  0  0  0
 37110  1  0  0  0
 38 43  2  0  0  0
 38 46  1  0  0  0
 38 47  1  0  0  0
 39 64  1  0  0  0
 39 67  2  0  0  0
 40 52  1  0  0  0
 40 53  2  0  0  0
 40 58  1  0  0  0
 41111  1  0  0  0
 41112  1  0  0  0
 41113  1  0  0  0
 41 48  1  0  0  0
 42 43  1  0  0  0
 42 66  1  0  0  0
 42114  1  0  0  0
 42115  1  0  0  0
 43 44  1  0  0  0
 44116  1  0  0  0
 45 46  2  0  0  0
 45117  1  0  0  0
 46118  1  0  0  0
 47119  1  0  0  0
 47120  1  0  0  0
 48 56  1  0  0  0
 48 65  1  0  0  0
 48121  1  0  0  0
 49 50  1  0  0  0
 49 53  1  0  0  0
 49 64  1  0  0  0
 49122  1  0  0  0
 50 51  1  0  0  0
 50123  1  0  0  0
 50124  1  0  0  0
 51 52  1  0  0  0
 51125  1  0  0  0
 51126  1  0  0  0
 52127  1  0  0  0
 52128  1  0  0  0
 53 54  1  0  0  0
 54 55  2  0  0  0
 54129  1  0  0  0
 55 57  1  0  0  0
 55130  1  0  0  0
 56 69  2  0  0  0
 57 58  2  0  0  0
 57131  1  0  0  0
 58132  1  0  0  0
 59 60  1  0  0  0
 59 61  1  0  0  0
 59 62  1  0  0  0
 60133  1  0  0  0
 60134  1  0  0  0
 60135  1  0  0  0
 61136  1  0  0  0
 61137  1  0  0  0
 61138  1  0  0  0
 62139  1  0  0  0
 62140  1  0  0  0
 62141  1  0  0  0
 63 65  1  0  0  0
 63142  1  0  0  0
 63143  1  0  0  0
 63144  1  0  0  0
 64145  1  0  0  0
 65146  1  0  0  0
 68 82  1  0  0  0
 71 73  2  0  0  0
 71 74  1  0  0  0
 71147  1  0  0  0
 72 75  2  0  0  0
 72 76  1  0  0  0
 72148  1  0  0  0
 73 75  1  0  0  0
 73 83  1  0  0  0
 74 76  2  0  0  0
 74 84  1  0  0  0
 75 85  1  0  0  0
 76 87  1  0  0  0
 77 78  2  0  0  0
 77 79  1  0  0  0
 77 86  1  0  0  0
 78149  1  0  0  0
 78150  1  0  0  0
 79 80  1  0  0  0
 79151  1  0  0  0
 79152  1  0  0  0
 80 82  1  0  0  0
 80153  1  0  0  0
 80154  1  0  0  0
 81 82  1  0  0  0
 81 86  1  0  0  0
 81155  1  0  0  0
 81156  1  0  0  0
 82157  1  0  0  0
 83158  1  0  0  0
 83159  1  0  0  0
 83160  1  0  0  0
 84161  1  0  0  0
 84162  1  0  0  0
 84 86  1  0  0  0
 85163  1  0  0  0
 86164  1  0  0  0
M  CHG  1  86   1
M  ISO  4   1 100  68 101  82 101  85 100
M  END
> <chiral flag>
0

> <version>
0

> <s_m_source_file>
/data/baiqing/PycharmProjects/Reinvent-master-3.2/result/LINK_invent/BTK/process_docking_weight1_custom_product_contain_oxygen_bond_distance_aromatic_linkinvent_7_9_3/rearranged_h_0035.sdf

> <i_m_source_file_index>
51

> <r_mmod_Potential_Energy-OPLS-2005>
-26.9701099395752

> <r_mmod_Stretch_Energy-OPLS-2005>
78.486442565918

> <r_mmod_Bend_Energy-OPLS-2005>
145.829559326172

> <r_mmod_Torsional_Energy-OPLS-2005>
278.304290771484

> <r_mmod_Improper_Torsional_Energy-OPLS-2005>
5.23197746276855

> <r_mmod_Van_der_Waal_Energy-OPLS-2005>
147.041793823242

> <r_mmod_Electrostatic_Energy-OPLS-2005>
-308.527130126953

> <r_mmod_Solvation_Energy-OPLS-2005>
-417.93701171875

> <b_mmod_Minimization_Converged-OPLS-2005>
0

> <r_mmod_RMS_Derivative-OPLS-2005>
1.4118584394455

$$$$
52
                    3D
 Structure written by MMmdl.
176185  0  0  1  0            999 V2000
  -30.6972  -14.5382   20.5553 C   0  0  0  0  0  0
  -30.4252  -12.3454   19.4421 C   0  0  0  0  0  0
  -29.4976  -12.5051   18.2192 C   0  0  0  0  0  0
  -28.0208  -12.3580   18.6318 C   0  0  0  0  0  0
  -27.6581  -13.2167   19.8729 C   0  0  2  0  0  0
  -28.7027  -13.0463   20.9994 C   0  0  0  0  0  0
  -25.2565  -13.8181   20.5690 C   0  0  0  0  0  0
  -24.1838  -13.0450   20.9193 C   0  0  0  0  0  0
  -24.6406  -11.6920   20.8761 C   0  0  0  0  0  0
  -23.9077  -10.4299   21.0414 C   0  0  0  0  0  0
  -24.3623   -9.4210   21.9194 C   0  0  0  0  0  0
  -23.6296   -8.2249   22.0760 C   0  0  0  0  0  0
  -22.4282   -8.0286   21.3547 C   0  0  0  0  0  0
  -21.9922   -9.0263   20.4650 C   0  0  0  0  0  0
  -22.7252  -10.2140   20.3061 C   0  0  0  0  0  0
  -21.6852   -6.0743   22.5278 C   0  0  0  0  0  0
  -21.4015   -6.5646   23.8214 C   0  0  0  0  0  0
  -21.3657   -5.6798   24.9173 C   0  0  0  0  0  0
  -21.6047   -4.3060   24.7222 C   0  0  0  0  0  0
  -21.8816   -3.8156   23.4341 C   0  0  0  0  0  0
  -21.9194   -4.6974   22.3400 C   0  0  0  0  0  0
  -22.7857  -13.5238   21.1852 C   0  0  0  0  0  0
  -22.1661   -4.2160   21.0974 F   0  0  0  0  0  0
  -21.5628   -3.4542   25.7732 F   0  0  0  0  0  0
  -30.0265  -13.3555   20.4379 N   0  0  0  0  0  0
  -26.3020  -12.9378   20.3384 N   0  0  0  0  0  0
  -25.9339  -11.6532   20.5799 N   0  0  0  0  0  0
  -22.0495  -12.8225   22.0390 N   0  0  0  0  0  0
  -25.4256  -15.1896   20.4059 N   0  0  0  0  0  0
  -31.8422  -14.6895   20.1221 O   0  0  0  0  0  0
  -21.6639   -6.8890   21.4242 O   0  0  0  0  0  0
  -22.3543  -14.5548   20.6703 O   0  0  0  0  0  0
  -24.6212  -31.8649   23.2094 C   0  0  0  0  0  0
  -25.9070  -32.4799   23.8415 C   0  0  1  0  0  0
  -27.2361  -27.3643   20.1067 C   0  0  0  0  0  0
  -25.5937  -33.8616   24.2328 N   0  0  0  0  0  0
  -23.4134  -30.4907   21.5498 C   0  0  2  0  0  0
  -24.8608  -28.9553   20.1194 C   0  0  0  0  0  0
  -22.7440  -29.4655   22.4953 C   0  0  0  0  0  0
  -18.0286  -28.1383   22.8468 C   0  0  0  0  0  0
  -24.1500  -36.7296   23.2634 C   0  0  0  0  0  0
  -25.9516  -30.8097   21.3750 C   0  0  0  0  0  0
  -26.0288  -29.4391   20.7220 C   0  0  0  0  0  0
  -27.2152  -28.6538   20.7126 C   0  0  0  0  0  0
  -26.0305  -26.9218   19.5013 C   0  0  0  0  0  0
  -24.8606  -27.6968   19.5070 C   0  0  0  0  0  0
  -23.6285  -29.8303   20.1649 C   0  0  0  0  0  0
  -25.4123  -36.3092   24.0323 C   0  0  1  0  0  0
  -20.5880  -28.3680   23.1285 C   0  0  2  0  0  0
  -20.6789  -26.9409   22.5391 C   0  0  0  0  0  0
  -19.5774  -26.6389   21.5193 C   0  0  0  0  0  0
  -18.1939  -26.7925   22.1595 C   0  0  0  0  0  0
  -19.1535  -28.8845   23.2871 C   0  0  0  0  0  0
  -18.9457  -30.1456   23.8869 C   0  0  0  0  0  0
  -17.6456  -30.6583   24.0560 C   0  0  0  0  0  0
  -25.9046  -34.9453   23.5110 C   0  0  0  0  0  0
  -16.5349  -29.9081   23.6335 C   0  0  0  0  0  0
  -16.7277  -28.6512   23.0329 C   0  0  0  0  0  0
  -26.4496  -31.6577   25.0738 C   0  0  0  0  0  0
  -25.3756  -31.3627   26.1469 C   0  0  0  0  0  0
  -27.0360  -30.3036   24.6109 C   0  0  0  0  0  0
  -27.6093  -32.4282   25.7469 C   0  0  0  0  0  0
  -27.5589  -37.1791   24.8463 C   0  0  0  0  0  0
  -21.4165  -29.3050   22.3689 N   0  0  0  0  0  0
  -26.4302  -37.3782   23.9405 N   0  0  0  0  0  0
  -24.6805  -31.0704   22.1029 N   0  0  0  0  0  0
  -23.4175  -28.8172   23.3009 O   0  0  0  0  0  0
  -28.3925  -26.5676   20.1396 O   0  0  0  0  0  0
  -26.5588  -34.8887   22.4663 O   0  0  0  0  0  0
  -23.5387  -32.1441   23.7432 O   0  0  0  0  0  0
  -27.9369  -20.3398   22.4161 C   0  0  0  0  0  0
  -27.6284  -19.0267   22.8078 C   0  0  0  0  0  0
  -29.8405  -19.4979   21.1663 C   0  0  0  0  0  0
  -29.0598  -20.6109   21.6101 C   0  0  0  0  0  0
  -28.4236  -17.9332   22.4061 C   0  0  0  0  0  0
  -29.5378  -18.1453   21.5424 C   0  0  0  0  0  0
  -29.5121  -24.2656   19.9314 C   0  0  0  0  0  0
  -30.7828  -24.6926   20.1084 C   0  0  0  0  0  0
  -27.5258  -23.4245   17.0733 C   0  0  0  0  0  0
  -28.6942  -24.4169   17.0056 C   0  0  0  0  0  0
  -27.8342  -22.1581   17.8872 C   0  0  0  0  0  0
  -28.5711  -25.5973   17.9759 C   0  0  0  0  0  0
  -27.8397  -22.2838   19.4259 C   0  0  0  0  0  0
  -28.3949  -25.2572   19.4794 C   0  0  2  0  0  0
  -28.0548  -16.5739   22.9822 C   0  0  0  0  0  0
  -32.0325  -23.8691   20.3694 C   0  0  0  0  0  0
  -30.4843  -17.0002   21.0676 C   0  0  0  0  0  0
  -29.4184  -22.1097   21.3573 C   0  0  0  0  0  0
  -29.9950  -15.5981   21.0204 N   0  0  0  0  0  0
  -29.1393  -22.7503   20.0168 N   0  3  2  0  0  0
  -31.4686  -12.4484   19.1387 H   0  0  0  0  0  0
  -30.3363  -11.3452   19.8695 H   0  0  0  0  0  0
  -29.7470  -11.7670   17.4565 H   0  0  0  0  0  0
  -29.6540  -13.4829   17.7610 H   0  0  0  0  0  0
  -27.8406  -11.3046   18.8471 H   0  0  0  0  0  0
  -27.3681  -12.6125   17.7958 H   0  0  0  0  0  0
  -27.6871  -14.2569   19.5492 H   0  0  0  0  0  0
  -28.6933  -12.0246   21.3804 H   0  0  0  0  0  0
  -28.4633  -13.6796   21.8540 H   0  0  0  0  0  0
  -25.2765   -9.5687   22.4774 H   0  0  0  0  0  0
  -24.0006   -7.4638   22.7482 H   0  0  0  0  0  0
  -21.0858   -8.8787   19.8948 H   0  0  0  0  0  0
  -22.3718  -10.9686   19.6171 H   0  0  0  0  0  0
  -21.2009   -7.6156   23.9721 H   0  0  0  0  0  0
  -21.1482   -6.0526   25.9078 H   0  0  0  0  0  0
  -22.0599   -2.7619   23.2836 H   0  0  0  0  0  0
  -22.4115  -11.9877   22.4761 H   0  0  0  0  0  0
  -21.1112  -13.1245   22.2597 H   0  0  0  0  0  0
  -24.6561  -15.8416   20.5130 H   0  0  0  0  0  0
  -26.2671  -15.6286   20.0549 H   0  0  0  0  0  0
  -26.7133  -32.5468   23.1170 H   0  0  0  0  0  0
  -25.0184  -33.9840   25.0534 H   0  0  0  0  0  0
  -22.7041  -31.3085   21.4080 H   0  0  0  0  0  0
  -23.3774  -35.9619   23.3294 H   0  0  0  0  0  0
  -24.3603  -36.8924   22.2054 H   0  0  0  0  0  0
  -23.7245  -37.6487   23.6669 H   0  0  0  0  0  0
  -26.0697  -31.5711   20.6032 H   0  0  0  0  0  0
  -26.8388  -30.8662   21.9942 H   0  0  0  0  0  0
  -28.1125  -29.0289   21.1876 H   0  0  0  0  0  0
  -25.9397  -25.9680   19.0091 H   0  0  0  0  0  0
  -23.9636  -27.3133   19.0411 H   0  0  0  0  0  0
  -23.7447  -30.6078   19.4093 H   0  0  0  0  0  0
  -22.7518  -29.2556   19.8597 H   0  0  0  0  0  0
  -25.1297  -36.1956   25.0816 H   0  0  0  0  0  0
  -20.9954  -28.3249   24.1407 H   0  0  0  0  0  0
  -20.5700  -26.2279   23.3578 H   0  0  0  0  0  0
  -21.6665  -26.7473   22.1171 H   0  0  0  0  0  0
  -19.6938  -25.6294   21.1218 H   0  0  0  0  0  0
  -19.6711  -27.3201   20.6717 H   0  0  0  0  0  0
  -17.4212  -26.6649   21.3999 H   0  0  0  0  0  0
  -18.0357  -26.0066   22.8994 H   0  0  0  0  0  0
  -19.7947  -30.7288   24.2192 H   0  0  0  0  0  0
  -17.5032  -31.6254   24.5186 H   0  0  0  0  0  0
  -15.5358  -30.2981   23.7708 H   0  0  0  0  0  0
  -15.8670  -28.0866   22.7022 H   0  0  0  0  0  0
  -24.5986  -30.6909   25.7785 H   0  0  0  0  0  0
  -24.8868  -32.2754   26.4898 H   0  0  0  0  0  0
  -25.8132  -30.8821   27.0238 H   0  0  0  0  0  0
  -26.2924  -29.6728   24.1217 H   0  0  0  0  0  0
  -27.4242  -29.7308   25.4548 H   0  0  0  0  0  0
  -27.8703  -30.4384   23.9213 H   0  0  0  0  0  0
  -27.2789  -33.3638   26.1992 H   0  0  0  0  0  0
  -28.3935  -32.6726   25.0283 H   0  0  0  0  0  0
  -28.0717  -31.8408   26.5416 H   0  0  0  0  0  0
  -28.2565  -38.0122   24.7585 H   0  0  0  0  0  0
  -28.1123  -36.2662   24.6234 H   0  0  0  0  0  0
  -27.2302  -37.1357   25.8856 H   0  0  0  0  0  0
  -20.9308  -29.8771   21.6922 H   0  0  0  0  0  0
  -26.0179  -38.2836   24.1475 H   0  0  0  0  0  0
  -27.3224  -21.1489   22.7862 H   0  0  0  0  0  0
  -26.7827  -18.8713   23.4648 H   0  0  0  0  0  0
  -30.7137  -19.6823   20.5541 H   0  0  0  0  0  0
  -30.9635  -25.7561   20.0355 H   0  0  0  0  0  0
  -27.3089  -23.1039   16.0525 H   0  0  0  0  0  0
  -26.6119  -23.9087   17.4210 H   0  0  0  0  0  0
  -28.7274  -24.8350   15.9973 H   0  0  0  0  0  0
  -29.6495  -23.9072   17.1319 H   0  0  0  0  0  0
  -28.7547  -21.6914   17.5317 H   0  0  0  0  0  0
  -27.0496  -21.4402   17.6392 H   0  0  0  0  0  0
  -27.7619  -26.2356   17.6247 H   0  0  0  0  0  0
  -29.4689  -26.2065   17.8680 H   0  0  0  0  0  0
  -27.6443  -21.2627   19.7411 H   0  0  0  0  0  0
  -26.9734  -22.8105   19.8190 H   0  0  0  0  0  0
  -27.4463  -24.7873   19.6886 H   0  0  0  0  0  0
  -27.3351  -16.6705   23.7957 H   0  0  0  0  0  0
  -28.9292  -16.0741   23.3996 H   0  0  0  0  0  0
  -27.5961  -15.9409   22.2241 H   0  0  0  0  0  0
  -32.2956  -23.8828   21.4278 H   0  0  0  0  0  0
  -32.8639  -24.3062   19.8155 H   0  0  0  0  0  0
  -31.9456  -22.8360   20.0354 H   0  0  0  0  0  0
  -31.3637  -17.0234   21.7134 H   0  0  0  0  0  0
  -30.8428  -17.2564   20.0687 H   0  0  0  0  0  0
  -30.4653  -22.2222   21.6277 H   0  0  0  0  0  0
  -28.8838  -22.7062   22.0971 H   0  0  0  0  0  0
  -29.0498  -15.4316   21.3233 H   0  0  0  0  0  0
  -29.8073  -22.2765   19.4295 H   0  0  0  0  0  0
  1 25  1  0  0  0
  1 30  2  0  0  0
  1 89  1  0  0  0
  2  3  1  0  0  0
  2 25  1  0  0  0
  2 91  1  0  0  0
  2 92  1  0  0  0
  3  4  1  0  0  0
  3 93  1  0  0  0
  3 94  1  0  0  0
  4  5  1  0  0  0
  4 95  1  0  0  0
  4 96  1  0  0  0
  5  6  1  0  0  0
  5 26  1  0  0  0
  5 97  1  0  0  0
  6 25  1  0  0  0
  6 98  1  0  0  0
  6 99  1  0  0  0
  7  8  2  0  0  0
  7 26  1  0  0  0
  7 29  1  0  0  0
  8  9  1  0  0  0
  8 22  1  0  0  0
  9 10  1  0  0  0
  9 27  2  0  0  0
 10 11  2  0  0  0
 10 15  1  0  0  0
 11 12  1  0  0  0
 11100  1  0  0  0
 12 13  2  0  0  0
 12101  1  0  0  0
 13 14  1  0  0  0
 13 31  1  0  0  0
 14 15  2  0  0  0
 14102  1  0  0  0
 15103  1  0  0  0
 16 17  2  0  0  0
 16 21  1  0  0  0
 16 31  1  0  0  0
 17 18  1  0  0  0
 17104  1  0  0  0
 18 19  2  0  0  0
 18105  1  0  0  0
 19 20  1  0  0  0
 19 24  1  0  0  0
 20 21  2  0  0  0
 20106  1  0  0  0
 21 23  1  0  0  0
 22 28  1  0  0  0
 22 32  2  0  0  0
 26 27  1  0  0  0
 28107  1  0  0  0
 28108  1  0  0  0
 29109  1  0  0  0
 29110  1  0  0  0
 33 34  1  0  0  0
 33 66  1  0  0  0
 33 70  2  0  0  0
 34 36  1  0  0  0
 34 59  1  0  0  0
 34111  1  0  0  0
 35 44  2  0  0  0
 35 45  1  0  0  0
 35 68  1  0  0  0
 36 56  1  0  0  0
 36112  1  0  0  0
 37 39  1  0  0  0
 37 47  1  0  0  0
 37 66  1  0  0  0
 37113  1  0  0  0
 38 43  2  0  0  0
 38 46  1  0  0  0
 38 47  1  0  0  0
 39 64  1  0  0  0
 39 67  2  0  0  0
 40 52  1  0  0  0
 40 53  2  0  0  0
 40 58  1  0  0  0
 41114  1  0  0  0
 41115  1  0  0  0
 41116  1  0  0  0
 41 48  1  0  0  0
 42 43  1  0  0  0
 42 66  1  0  0  0
 42117  1  0  0  0
 42118  1  0  0  0
 43 44  1  0  0  0
 44119  1  0  0  0
 45 46  2  0  0  0
 45120  1  0  0  0
 46121  1  0  0  0
 47122  1  0  0  0
 47123  1  0  0  0
 48 56  1  0  0  0
 48 65  1  0  0  0
 48124  1  0  0  0
 49 50  1  0  0  0
 49 53  1  0  0  0
 49 64  1  0  0  0
 49125  1  0  0  0
 50 51  1  0  0  0
 50126  1  0  0  0
 50127  1  0  0  0
 51 52  1  0  0  0
 51128  1  0  0  0
 51129  1  0  0  0
 52130  1  0  0  0
 52131  1  0  0  0
 53 54  1  0  0  0
 54 55  2  0  0  0
 54132  1  0  0  0
 55 57  1  0  0  0
 55133  1  0  0  0
 56 69  2  0  0  0
 57 58  2  0  0  0
 57134  1  0  0  0
 58135  1  0  0  0
 59 60  1  0  0  0
 59 61  1  0  0  0
 59 62  1  0  0  0
 60136  1  0  0  0
 60137  1  0  0  0
 60138  1  0  0  0
 61139  1  0  0  0
 61140  1  0  0  0
 61141  1  0  0  0
 62142  1  0  0  0
 62143  1  0  0  0
 62144  1  0  0  0
 63 65  1  0  0  0
 63145  1  0  0  0
 63146  1  0  0  0
 63147  1  0  0  0
 64148  1  0  0  0
 65149  1  0  0  0
 68 84  1  0  0  0
 71 72  2  0  0  0
 71 74  1  0  0  0
 71150  1  0  0  0
 72 75  1  0  0  0
 72151  1  0  0  0
 73 74  2  0  0  0
 73 76  1  0  0  0
 73152  1  0  0  0
 74 88  1  0  0  0
 75 76  2  0  0  0
 75 85  1  0  0  0
 76 87  1  0  0  0
 77 78  2  0  0  0
 77 84  1  0  0  0
 77 90  1  0  0  0
 78 86  1  0  0  0
 78153  1  0  0  0
 79 80  1  0  0  0
 79 81  1  0  0  0
 79154  1  0  0  0
 79155  1  0  0  0
 80 82  1  0  0  0
 80156  1  0  0  0
 80157  1  0  0  0
 81 83  1  0  0  0
 81158  1  0  0  0
 81159  1  0  0  0
 82 84  1  0  0  0
 82160  1  0  0  0
 82161  1  0  0  0
 83 90  1  0  0  0
 83162  1  0  0  0
 83163  1  0  0  0
 84164  1  0  0  0
 85165  1  0  0  0
 85166  1  0  0  0
 85167  1  0  0  0
 86168  1  0  0  0
 86169  1  0  0  0
 86170  1  0  0  0
 87 89  1  0  0  0
 87171  1  0  0  0
 87172  1  0  0  0
 88173  1  0  0  0
 88174  1  0  0  0
 88 90  1  0  0  0
 89175  1  0  0  0
 90176  1  0  0  0
M  CHG  1  90   1
M  ISO  4   1 100  68 101  84 101  89 100
M  END
> <chiral flag>
0

> <version>
0

> <s_m_source_file>
/data/baiqing/PycharmProjects/Reinvent-master-3.2/result/LINK_invent/BTK/process_docking_weight1_custom_product_contain_oxygen_bond_distance_aromatic_linkinvent_7_9_3/rearranged_h_0035.sdf

> <i_m_source_file_index>
52

> <r_mmod_Potential_Energy-OPLS-2005>
-86.3192367553711

> <r_mmod_Stretch_Energy-OPLS-2005>
73.4968566894531

> <r_mmod_Bend_Energy-OPLS-2005>
163.550888061523

> <r_mmod_Torsional_Energy-OPLS-2005>
214.050537109375

> <r_mmod_Improper_Torsional_Energy-OPLS-2005>
4.14323902130127

> <r_mmod_Van_der_Waal_Energy-OPLS-2005>
166.180862426758

> <r_mmod_Electrostatic_Energy-OPLS-2005>
-323.177062988281

> <r_mmod_Solvation_Energy-OPLS-2005>
-410.377899169922

> <b_mmod_Minimization_Converged-OPLS-2005>
0

> <r_mmod_RMS_Derivative-OPLS-2005>
2.32816815376282

$$$$
53
                    3D
 Structure written by MMmdl.
157165  0  0  1  0            999 V2000
  -30.6325  -14.7599   20.4075 C   0  0  0  0  0  0
  -30.4378  -12.4363   19.5129 C   0  0  0  0  0  0
  -29.5301  -12.4254   18.2644 C   0  0  0  0  0  0
  -28.0366  -12.3539   18.6421 C   0  0  0  0  0  0
  -27.6449  -13.2502   19.8518 C   0  0  2  0  0  0
  -28.6889  -13.2024   20.9894 C   0  0  0  0  0  0
  -25.2483  -13.8256   20.5696 C   0  0  0  0  0  0
  -24.1816  -13.0461   20.9204 C   0  0  0  0  0  0
  -24.6417  -11.6951   20.8719 C   0  0  0  0  0  0
  -23.9105  -10.4308   21.0363 C   0  0  0  0  0  0
  -24.3669   -9.4227   21.9147 C   0  0  0  0  0  0
  -23.6335   -8.2267   22.0758 C   0  0  0  0  0  0
  -22.4312   -8.0306   21.3548 C   0  0  0  0  0  0
  -21.9937   -9.0264   20.4636 C   0  0  0  0  0  0
  -22.7270  -10.2131   20.3022 C   0  0  0  0  0  0
  -21.6861   -6.0754   22.5281 C   0  0  0  0  0  0
  -21.4026   -6.5657   23.8212 C   0  0  0  0  0  0
  -21.3655   -5.6811   24.9179 C   0  0  0  0  0  0
  -21.6035   -4.3069   24.7225 C   0  0  0  0  0  0
  -21.8810   -3.8161   23.4347 C   0  0  0  0  0  0
  -21.9199   -4.6983   22.3404 C   0  0  0  0  0  0
  -22.7817  -13.5186   21.1887 C   0  0  0  0  0  0
  -22.1665   -4.2168   21.0976 F   0  0  0  0  0  0
  -21.5620   -3.4546   25.7727 F   0  0  0  0  0  0
  -29.9949  -13.5350   20.4027 N   0  0  0  0  0  0
  -26.2958  -12.9510   20.3287 N   0  0  0  0  0  0
  -25.9352  -11.6626   20.5765 N   0  0  0  0  0  0
  -22.0501  -12.8123   22.0420 N   0  0  0  0  0  0
  -25.4121  -15.2006   20.4133 N   0  0  0  0  0  0
  -31.8234  -14.8255   20.0927 O   0  0  0  0  0  0
  -21.6669   -6.8901   21.4242 O   0  0  0  0  0  0
  -22.3471  -14.5529   20.6797 O   0  0  0  0  0  0
  -24.6299  -31.8565   23.2020 C   0  0  0  0  0  0
  -25.9126  -32.4762   23.8355 C   0  0  1  0  0  0
  -27.2178  -27.2666   20.1097 C   0  0  0  0  0  0
  -25.5901  -33.8565   24.2239 N   0  0  0  0  0  0
  -23.4254  -30.4806   21.5480 C   0  0  2  0  0  0
  -24.8704  -28.9339   20.1069 C   0  0  0  0  0  0
  -22.7492  -29.4608   22.4961 C   0  0  0  0  0  0
  -18.0271  -28.1418   22.8466 C   0  0  0  0  0  0
  -24.1492  -36.7280   23.2655 C   0  0  0  0  0  0
  -25.9733  -30.7700   21.3817 C   0  0  0  0  0  0
  -26.0461  -29.3957   20.7143 C   0  0  0  0  0  0
  -27.2216  -28.5747   20.7041 C   0  0  0  0  0  0
  -26.0154  -26.8781   19.4715 C   0  0  0  0  0  0
  -24.8594  -27.6829   19.4770 C   0  0  0  0  0  0
  -23.6395  -29.8190   20.1616 C   0  0  0  0  0  0
  -25.4128  -36.3069   24.0322 C   0  0  1  0  0  0
  -20.5869  -28.3708   23.1268 C   0  0  2  0  0  0
  -20.6761  -26.9435   22.5402 C   0  0  0  0  0  0
  -19.5750  -26.6399   21.5204 C   0  0  0  0  0  0
  -18.1918  -26.7949   22.1608 C   0  0  0  0  0  0
  -19.1528  -28.8889   23.2831 C   0  0  0  0  0  0
  -18.9464  -30.1491   23.8859 C   0  0  0  0  0  0
  -17.6457  -30.6606   24.0577 C   0  0  0  0  0  0
  -25.9076  -34.9447   23.5092 C   0  0  0  0  0  0
  -16.5345  -29.9108   23.6346 C   0  0  0  0  0  0
  -16.7250  -28.6534   23.0343 C   0  0  0  0  0  0
  -26.4489  -31.6603   25.0748 C   0  0  0  0  0  0
  -25.3695  -31.3698   26.1431 C   0  0  0  0  0  0
  -27.0389  -30.3034   24.6258 C   0  0  0  0  0  0
  -27.6048  -32.4374   25.7505 C   0  0  0  0  0  0
  -27.5574  -37.1788   24.8455 C   0  0  0  0  0  0
  -21.4207  -29.3024   22.3672 N   0  0  0  0  0  0
  -26.4285  -37.3775   23.9416 N   0  0  0  0  0  0
  -24.6964  -31.0519   22.1001 N   0  0  0  0  0  0
  -23.4181  -28.8144   23.3064 O   0  0  0  0  0  0
  -28.3099  -26.3633   20.1729 O   0  0  0  0  0  0
  -26.5658  -34.8911   22.4665 O   0  0  0  0  0  0
  -23.5452  -32.1407   23.7301 O   0  0  0  0  0  0
  -30.1080  -18.5856   17.8520 C   0  0  0  0  0  0
  -29.7941  -18.5369   20.5987 C   0  0  0  0  0  0
  -29.9602  -19.8147   18.5293 C   0  0  0  0  0  0
  -30.0846  -17.3358   18.5077 C   0  0  0  0  0  0
  -29.7669  -19.8384   19.9331 C   0  0  0  0  0  0
  -29.9687  -17.2544   19.9239 C   0  0  0  0  0  0
  -29.1013  -23.8056   20.4059 C   0  0  0  0  0  0
  -30.0300  -21.0855   17.6941 C   0  0  0  0  0  0
  -30.1181  -16.1021   17.6229 C   0  0  0  0  0  0
  -29.6404  -21.2337   20.7110 C   0  0  0  0  0  0
  -28.0560  -24.9049   19.8910 C   0  0  0  0  0  0
  -29.8863  -15.9192   20.5943 N   0  0  0  0  0  0
  -28.9075  -22.4540   20.1521 N   0  0  0  0  0  0
  -30.0728  -24.1808   21.0661 O   0  0  0  0  0  0
  -31.4828  -12.5389   19.2143 H   0  0  0  0  0  0
  -30.3743  -11.4827   20.0404 H   0  0  0  0  0  0
  -29.7874  -11.5632   17.6463 H   0  0  0  0  0  0
  -29.7291  -13.2968   17.6447 H   0  0  0  0  0  0
  -27.8054  -11.3116   18.8616 H   0  0  0  0  0  0
  -27.4301  -12.6208   17.7762 H   0  0  0  0  0  0
  -27.6348  -14.2744   19.4782 H   0  0  0  0  0  0
  -28.7138  -12.2160   21.4531 H   0  0  0  0  0  0
  -28.4299  -13.9063   21.7813 H   0  0  0  0  0  0
  -25.2811   -9.5712   22.4704 H   0  0  0  0  0  0
  -24.0029   -7.4657   22.7490 H   0  0  0  0  0  0
  -21.0856   -8.8763   19.8961 H   0  0  0  0  0  0
  -22.3710  -10.9658   19.6125 H   0  0  0  0  0  0
  -21.2037   -7.6162   23.9724 H   0  0  0  0  0  0
  -21.1473   -6.0554   25.9086 H   0  0  0  0  0  0
  -22.0594   -2.7624   23.2849 H   0  0  0  0  0  0
  -22.4184  -11.9786   22.4750 H   0  0  0  0  0  0
  -21.1115  -13.1106   22.2702 H   0  0  0  0  0  0
  -24.6591  -15.8556   20.5881 H   0  0  0  0  0  0
  -26.2431  -15.6469   20.0464 H   0  0  0  0  0  0
  -26.7168  -32.5395   23.1086 H   0  0  0  0  0  0
  -25.0002  -33.9714   25.0342 H   0  0  0  0  0  0
  -22.7210  -31.3045   21.4066 H   0  0  0  0  0  0
  -23.3771  -35.9584   23.3304 H   0  0  0  0  0  0
  -24.3569  -36.8948   22.2066 H   0  0  0  0  0  0
  -23.7238  -37.6467   23.6713 H   0  0  0  0  0  0
  -26.1106  -31.5407   20.6214 H   0  0  0  0  0  0
  -26.8485  -30.8115   22.0171 H   0  0  0  0  0  0
  -28.1233  -28.9214   21.1909 H   0  0  0  0  0  0
  -25.9251  -25.9274   18.9682 H   0  0  0  0  0  0
  -23.9586  -27.3308   18.9955 H   0  0  0  0  0  0
  -23.7577  -30.5996   19.4096 H   0  0  0  0  0  0
  -22.7537  -29.2553   19.8620 H   0  0  0  0  0  0
  -25.1324  -36.1922   25.0818 H   0  0  0  0  0  0
  -20.9904  -28.3295   24.1413 H   0  0  0  0  0  0
  -20.5688  -26.2323   23.3611 H   0  0  0  0  0  0
  -21.6632  -26.7489   22.1204 H   0  0  0  0  0  0
  -19.6930  -25.6304   21.1269 H   0  0  0  0  0  0
  -19.6707  -27.3184   20.6724 H   0  0  0  0  0  0
  -17.4185  -26.6672   21.4007 H   0  0  0  0  0  0
  -18.0314  -26.0117   22.9040 H   0  0  0  0  0  0
  -19.7950  -30.7305   24.2217 H   0  0  0  0  0  0
  -17.5030  -31.6291   24.5183 H   0  0  0  0  0  0
  -15.5350  -30.3004   23.7735 H   0  0  0  0  0  0
  -15.8644  -28.0872   22.7068 H   0  0  0  0  0  0
  -24.5897  -30.7043   25.7690 H   0  0  0  0  0  0
  -24.8833  -32.2837   26.4870 H   0  0  0  0  0  0
  -25.7987  -30.8844   27.0209 H   0  0  0  0  0  0
  -26.2996  -29.6708   24.1306 H   0  0  0  0  0  0
  -27.4108  -29.7363   25.4812 H   0  0  0  0  0  0
  -27.8847  -30.4331   23.9490 H   0  0  0  0  0  0
  -27.2673  -33.3712   26.2011 H   0  0  0  0  0  0
  -28.3856  -32.6887   25.0312 H   0  0  0  0  0  0
  -28.0695  -31.8550   26.5464 H   0  0  0  0  0  0
  -28.2571  -38.0105   24.7556 H   0  0  0  0  0  0
  -28.1110  -36.2651   24.6259 H   0  0  0  0  0  0
  -27.2277  -37.1375   25.8847 H   0  0  0  0  0  0
  -20.9430  -29.8720   21.6839 H   0  0  0  0  0  0
  -26.0177  -38.2844   24.1461 H   0  0  0  0  0  0
  -30.2171  -18.6027   16.7749 H   0  0  0  0  0  0
  -29.6834  -18.5266   21.6727 H   0  0  0  0  0  0
  -30.4052  -20.8859   16.6884 H   0  0  0  0  0  0
  -30.6956  -21.8219   18.1446 H   0  0  0  0  0  0
  -29.0383  -21.5256   17.5863 H   0  0  0  0  0  0
  -29.9484  -16.3454   16.5730 H   0  0  0  0  0  0
  -29.3276  -15.4189   17.9245 H   0  0  0  0  0  0
  -31.0809  -15.5974   17.6928 H   0  0  0  0  0  0
  -30.6635  -21.5452   20.9303 H   0  0  0  0  0  0
  -29.1956  -21.0172   21.6832 H   0  0  0  0  0  0
  -27.1112  -24.6226   20.3565 H   0  0  0  0  0  0
  -27.9352  -24.7727   18.8144 H   0  0  0  0  0  0
  -29.0218  -15.7599   21.0874 H   0  0  0  0  0  0
  -28.0961  -22.2334   19.5911 H   0  0  0  0  0  0
  1 25  1  0  0  0
  1 30  2  0  0  0
  1 82  1  0  0  0
  2  3  1  0  0  0
  2 25  1  0  0  0
  2 85  1  0  0  0
  2 86  1  0  0  0
  3  4  1  0  0  0
  3 87  1  0  0  0
  3 88  1  0  0  0
  4  5  1  0  0  0
  4 89  1  0  0  0
  4 90  1  0  0  0
  5  6  1  0  0  0
  5 26  1  0  0  0
  5 91  1  0  0  0
  6 25  1  0  0  0
  6 92  1  0  0  0
  6 93  1  0  0  0
  7  8  2  0  0  0
  7 26  1  0  0  0
  7 29  1  0  0  0
  8  9  1  0  0  0
  8 22  1  0  0  0
  9 10  1  0  0  0
  9 27  2  0  0  0
 10 11  2  0  0  0
 10 15  1  0  0  0
 11 12  1  0  0  0
 11 94  1  0  0  0
 12 13  2  0  0  0
 12 95  1  0  0  0
 13 14  1  0  0  0
 13 31  1  0  0  0
 14 15  2  0  0  0
 14 96  1  0  0  0
 15 97  1  0  0  0
 16 17  2  0  0  0
 16 21  1  0  0  0
 16 31  1  0  0  0
 17 18  1  0  0  0
 17 98  1  0  0  0
 18 19  2  0  0  0
 18 99  1  0  0  0
 19 20  1  0  0  0
 19 24  1  0  0  0
 20 21  2  0  0  0
 20100  1  0  0  0
 21 23  1  0  0  0
 22 28  1  0  0  0
 22 32  2  0  0  0
 26 27  1  0  0  0
 28101  1  0  0  0
 28102  1  0  0  0
 29103  1  0  0  0
 29104  1  0  0  0
 33 34  1  0  0  0
 33 66  1  0  0  0
 33 70  2  0  0  0
 34 36  1  0  0  0
 34 59  1  0  0  0
 34105  1  0  0  0
 35 44  2  0  0  0
 35 45  1  0  0  0
 35 68  1  0  0  0
 36 56  1  0  0  0
 36106  1  0  0  0
 37 39  1  0  0  0
 37 47  1  0  0  0
 37 66  1  0  0  0
 37107  1  0  0  0
 38 43  2  0  0  0
 38 46  1  0  0  0
 38 47  1  0  0  0
 39 64  1  0  0  0
 39 67  2  0  0  0
 40 52  1  0  0  0
 40 53  2  0  0  0
 40 58  1  0  0  0
 41108  1  0  0  0
 41109  1  0  0  0
 41110  1  0  0  0
 41 48  1  0  0  0
 42 43  1  0  0  0
 42 66  1  0  0  0
 42111  1  0  0  0
 42112  1  0  0  0
 43 44  1  0  0  0
 44113  1  0  0  0
 45 46  2  0  0  0
 45114  1  0  0  0
 46115  1  0  0  0
 47116  1  0  0  0
 47117  1  0  0  0
 48 56  1  0  0  0
 48 65  1  0  0  0
 48118  1  0  0  0
 49 50  1  0  0  0
 49 53  1  0  0  0
 49 64  1  0  0  0
 49119  1  0  0  0
 50 51  1  0  0  0
 50120  1  0  0  0
 50121  1  0  0  0
 51 52  1  0  0  0
 51122  1  0  0  0
 51123  1  0  0  0
 52124  1  0  0  0
 52125  1  0  0  0
 53 54  1  0  0  0
 54 55  2  0  0  0
 54126  1  0  0  0
 55 57  1  0  0  0
 55127  1  0  0  0
 56 69  2  0  0  0
 57 58  2  0  0  0
 57128  1  0  0  0
 58129  1  0  0  0
 59 60  1  0  0  0
 59 61  1  0  0  0
 59 62  1  0  0  0
 60130  1  0  0  0
 60131  1  0  0  0
 60132  1  0  0  0
 61133  1  0  0  0
 61134  1  0  0  0
 61135  1  0  0  0
 62136  1  0  0  0
 62137  1  0  0  0
 62138  1  0  0  0
 63 65  1  0  0  0
 63139  1  0  0  0
 63140  1  0  0  0
 63141  1  0  0  0
 64142  1  0  0  0
 65143  1  0  0  0
 68 81  1  0  0  0
 71 73  2  0  0  0
 71 74  1  0  0  0
 71144  1  0  0  0
 72 75  2  0  0  0
 72 76  1  0  0  0
 72145  1  0  0  0
 73 75  1  0  0  0
 73 78  1  0  0  0
 74 76  2  0  0  0
 74 79  1  0  0  0
 75 80  1  0  0  0
 76 82  1  0  0  0
 77 81  1  0  0  0
 77 83  1  0  0  0
 77 84  2  0  0  0
 78146  1  0  0  0
 78147  1  0  0  0
 78148  1  0  0  0
 79149  1  0  0  0
 79150  1  0  0  0
 79151  1  0  0  0
 80 83  1  0  0  0
 80152  1  0  0  0
 80153  1  0  0  0
 81154  1  0  0  0
 81155  1  0  0  0
 82156  1  0  0  0
 83157  1  0  0  0
M  ISO  4   1 100  68 101  81 101  82 100
M  END
> <chiral flag>
0

> <version>
0

> <s_m_source_file>
/data/baiqing/PycharmProjects/Reinvent-master-3.2/result/LINK_invent/BTK/process_docking_weight1_custom_product_contain_oxygen_bond_distance_aromatic_linkinvent_7_9_3/rearranged_h_0035.sdf

> <i_m_source_file_index>
53

> <r_mmod_Potential_Energy-OPLS-2005>
96.185676574707

> <r_mmod_Stretch_Energy-OPLS-2005>
128.919418334961

> <r_mmod_Bend_Energy-OPLS-2005>
159.672241210938

> <r_mmod_Torsional_Energy-OPLS-2005>
241.265930175781

> <r_mmod_Improper_Torsional_Energy-OPLS-2005>
5.46713304519653

> <r_mmod_Van_der_Waal_Energy-OPLS-2005>
145.652069091797

> <r_mmod_Electrostatic_Energy-OPLS-2005>
-426.270172119141

> <r_mmod_Solvation_Energy-OPLS-2005>
-249.556640625

> <b_mmod_Minimization_Converged-OPLS-2005>
0

> <r_mmod_RMS_Derivative-OPLS-2005>
3.87692546844482

$$$$
54
                    3D
 Structure written by MMmdl.
154162  0  0  1  0            999 V2000
  -30.5108  -15.0544   20.4102 C   0  0  0  0  0  0
  -30.4387  -12.6640   19.4910 C   0  0  0  0  0  0
  -29.5203  -12.5361   18.2527 C   0  0  0  0  0  0
  -28.0558  -12.3112   18.6773 C   0  0  0  0  0  0
  -27.6198  -13.2567   19.8268 C   0  0  2  0  0  0
  -28.6669  -13.3341   20.9548 C   0  0  0  0  0  0
  -25.2433  -13.8218   20.5728 C   0  0  0  0  0  0
  -24.1759  -13.0429   20.9247 C   0  0  0  0  0  0
  -24.6403  -11.6917   20.8770 C   0  0  0  0  0  0
  -23.9092  -10.4290   21.0410 C   0  0  0  0  0  0
  -24.3635   -9.4206   21.9193 C   0  0  0  0  0  0
  -23.6313   -8.2239   22.0755 C   0  0  0  0  0  0
  -22.4295   -8.0283   21.3548 C   0  0  0  0  0  0
  -21.9937   -9.0250   20.4643 C   0  0  0  0  0  0
  -22.7266  -10.2131   20.3055 C   0  0  0  0  0  0
  -21.6852   -6.0750   22.5277 C   0  0  0  0  0  0
  -21.4005   -6.5649   23.8212 C   0  0  0  0  0  0
  -21.3664   -5.6801   24.9172 C   0  0  0  0  0  0
  -21.6042   -4.3061   24.7218 C   0  0  0  0  0  0
  -21.8824   -3.8157   23.4337 C   0  0  0  0  0  0
  -21.9195   -4.6978   22.3398 C   0  0  0  0  0  0
  -22.7789  -13.5195   21.1900 C   0  0  0  0  0  0
  -22.1663   -4.2172   21.0973 F   0  0  0  0  0  0
  -21.5637   -3.4543   25.7731 F   0  0  0  0  0  0
  -29.9191  -13.7847   20.3323 N   0  0  0  0  0  0
  -26.2850  -12.9462   20.3237 N   0  0  0  0  0  0
  -25.9332  -11.6584   20.5734 N   0  0  0  0  0  0
  -22.0448  -12.8164   22.0438 N   0  0  0  0  0  0
  -25.4085  -15.1948   20.4128 N   0  0  0  0  0  0
  -31.7361  -15.0878   20.2438 O   0  0  0  0  0  0
  -21.6643   -6.8889   21.4244 O   0  0  0  0  0  0
  -22.3464  -14.5514   20.6770 O   0  0  0  0  0  0
  -24.6534  -31.8384   23.1823 C   0  0  0  0  0  0
  -25.9278  -32.4673   23.8229 C   0  0  1  0  0  0
  -27.2198  -27.0610   20.1781 C   0  0  0  0  0  0
  -25.5992  -33.8467   24.2174 N   0  0  0  0  0  0
  -23.4599  -30.4570   21.5263 C   0  0  2  0  0  0
  -24.9135  -28.8650   20.1164 C   0  0  0  0  0  0
  -22.7591  -29.4551   22.4798 C   0  0  0  0  0  0
  -18.0311  -28.1423   22.8498 C   0  0  0  0  0  0
  -24.1468  -36.7183   23.2641 C   0  0  0  0  0  0
  -26.0216  -30.6910   21.3897 C   0  0  0  0  0  0
  -26.0954  -29.2916   20.7375 C   0  0  0  0  0  0
  -27.2518  -28.4093   20.7468 C   0  0  0  0  0  0
  -26.0110  -26.7524   19.5201 C   0  0  0  0  0  0
  -24.8878  -27.6104   19.4900 C   0  0  0  0  0  0
  -23.6939  -29.7784   20.1498 C   0  0  0  0  0  0
  -25.4104  -36.2997   24.0324 C   0  0  1  0  0  0
  -20.5938  -28.3760   23.1222 C   0  0  2  0  0  0
  -20.6778  -26.9453   22.5400 C   0  0  0  0  0  0
  -19.5750  -26.6422   21.5211 C   0  0  0  0  0  0
  -18.1938  -26.7965   22.1631 C   0  0  0  0  0  0
  -19.1577  -28.8912   23.2854 C   0  0  0  0  0  0
  -18.9479  -30.1499   23.8896 C   0  0  0  0  0  0
  -17.6478  -30.6619   24.0587 C   0  0  0  0  0  0
  -25.9080  -34.9388   23.5055 C   0  0  0  0  0  0
  -16.5371  -29.9113   23.6366 C   0  0  0  0  0  0
  -16.7295  -28.6526   23.0397 C   0  0  0  0  0  0
  -26.4575  -31.6550   25.0680 C   0  0  0  0  0  0
  -25.3753  -31.3746   26.1379 C   0  0  0  0  0  0
  -27.0444  -30.2943   24.6309 C   0  0  0  0  0  0
  -27.6110  -32.4314   25.7473 C   0  0  0  0  0  0
  -27.5555  -37.1735   24.8480 C   0  0  0  0  0  0
  -21.4275  -29.3059   22.3538 N   0  0  0  0  0  0
  -26.4249  -37.3734   23.9439 N   0  0  0  0  0  0
  -24.7321  -31.0191   22.0879 N   0  0  0  0  0  0
  -23.4198  -28.8120   23.2993 O   0  0  0  0  0  0
  -28.2215  -25.9993   20.1854 O   0  0  0  0  0  0
  -26.5663  -34.8910   22.4634 O   0  0  0  0  0  0
  -23.5638  -32.1264   23.7022 O   0  0  0  0  0  0
  -29.6660  -20.7211   18.2140 C   0  0  0  0  0  0
  -29.7939  -19.4613   18.8547 C   0  0  0  0  0  0
  -28.8945  -21.9247   20.2369 C   0  0  0  0  0  0
  -29.2527  -21.9150   18.8677 C   0  0  0  0  0  0
  -29.5565  -19.2877   20.2293 C   0  0  0  0  0  0
  -29.1147  -20.5720   20.8897 C   0  0  0  0  0  0
  -28.2536  -23.2857   20.8870 C   0  0  0  0  0  0
  -27.9709  -24.7107   20.8718 C   0  0  0  0  0  0
  -29.1799  -23.1981   18.0563 C   0  0  0  0  0  0
  -28.9101  -20.4784   22.3928 C   0  0  0  0  0  0
  -29.9929  -17.7985   20.9018 C   0  0  0  0  0  0
  -29.7329  -16.2694   20.4687 N   0  0  0  0  0  0
  -31.4683  -12.8397   19.1748 H   0  0  0  0  0  0
  -30.4535  -11.7306   20.0561 H   0  0  0  0  0  0
  -29.8534  -11.7164   17.6144 H   0  0  0  0  0  0
  -29.5921  -13.4425   17.6488 H   0  0  0  0  0  0
  -27.9650  -11.2738   19.0013 H   0  0  0  0  0  0
  -27.3900  -12.4233   17.8207 H   0  0  0  0  0  0
  -27.5632  -14.2481   19.3761 H   0  0  0  0  0  0
  -28.7894  -12.3681   21.4474 H   0  0  0  0  0  0
  -28.3537  -14.0386   21.7269 H   0  0  0  0  0  0
  -25.2773   -9.5685   22.4775 H   0  0  0  0  0  0
  -24.0030   -7.4623   22.7461 H   0  0  0  0  0  0
  -21.0881   -8.8764   19.8931 H   0  0  0  0  0  0
  -22.3726  -10.9676   19.6164 H   0  0  0  0  0  0
  -21.1980   -7.6155   23.9720 H   0  0  0  0  0  0
  -21.1487   -6.0527   25.9082 H   0  0  0  0  0  0
  -22.0601   -2.7620   23.2822 H   0  0  0  0  0  0
  -22.4082  -11.9803   22.4780 H   0  0  0  0  0  0
  -21.1064  -13.1162   22.2670 H   0  0  0  0  0  0
  -24.6349  -15.8442   20.5063 H   0  0  0  0  0  0
  -26.2466  -15.6317   20.0531 H   0  0  0  0  0  0
  -26.7342  -32.5273   23.0949 H   0  0  0  0  0  0
  -25.0145  -33.9541   25.0327 H   0  0  0  0  0  0
  -22.7661  -31.2848   21.3638 H   0  0  0  0  0  0
  -23.3768  -35.9478   23.3310 H   0  0  0  0  0  0
  -24.3534  -36.8797   22.2049 H   0  0  0  0  0  0
  -23.7189  -37.6361   23.6676 H   0  0  0  0  0  0
  -26.1860  -31.4401   20.6138 H   0  0  0  0  0  0
  -26.8894  -30.7485   22.0357 H   0  0  0  0  0  0
  -28.1516  -28.7339   21.2490 H   0  0  0  0  0  0
  -25.9181  -25.7840   19.0506 H   0  0  0  0  0  0
  -23.9863  -27.2753   18.9957 H   0  0  0  0  0  0
  -23.8376  -30.5499   19.3920 H   0  0  0  0  0  0
  -22.8070  -29.2251   19.8365 H   0  0  0  0  0  0
  -25.1297  -36.1791   25.0815 H   0  0  0  0  0  0
  -21.0067  -28.3367   24.1335 H   0  0  0  0  0  0
  -20.5654  -26.2375   23.3621 H   0  0  0  0  0  0
  -21.6636  -26.7426   22.1214 H   0  0  0  0  0  0
  -19.6900  -25.6332   21.1243 H   0  0  0  0  0  0
  -19.6699  -27.3205   20.6721 H   0  0  0  0  0  0
  -17.4205  -26.6751   21.4036 H   0  0  0  0  0  0
  -18.0348  -26.0081   22.9006 H   0  0  0  0  0  0
  -19.7941  -30.7330   24.2266 H   0  0  0  0  0  0
  -17.5028  -31.6305   24.5164 H   0  0  0  0  0  0
  -15.5377  -30.3029   23.7693 H   0  0  0  0  0  0
  -15.8681  -28.0845   22.7156 H   0  0  0  0  0  0
  -24.6010  -30.7002   25.7725 H   0  0  0  0  0  0
  -24.8851  -32.2910   26.4663 H   0  0  0  0  0  0
  -25.8061  -30.9052   27.0235 H   0  0  0  0  0  0
  -26.3078  -29.6654   24.1309 H   0  0  0  0  0  0
  -27.4030  -29.7279   25.4908 H   0  0  0  0  0  0
  -27.9008  -30.4159   23.9671 H   0  0  0  0  0  0
  -27.2754  -33.3691   26.1913 H   0  0  0  0  0  0
  -28.4012  -32.6723   25.0348 H   0  0  0  0  0  0
  -28.0687  -31.8496   26.5487 H   0  0  0  0  0  0
  -28.2579  -38.0023   24.7546 H   0  0  0  0  0  0
  -28.1040  -36.2560   24.6297 H   0  0  0  0  0  0
  -27.2272  -37.1380   25.8881 H   0  0  0  0  0  0
  -20.9510  -29.8700   21.6645 H   0  0  0  0  0  0
  -26.0103  -38.2785   24.1505 H   0  0  0  0  0  0
  -29.9096  -20.7660   17.1615 H   0  0  0  0  0  0
  -30.1502  -18.6187   18.2810 H   0  0  0  0  0  0
  -27.7176  -22.9293   21.7539 H   0  0  0  0  0  0
  -27.3380  -24.9824   21.7082 H   0  0  0  0  0  0
  -29.5690  -23.0591   17.0486 H   0  0  0  0  0  0
  -29.7717  -23.9834   18.5297 H   0  0  0  0  0  0
  -28.1497  -23.5474   17.9692 H   0  0  0  0  0  0
  -28.0100  -19.9102   22.6248 H   0  0  0  0  0  0
  -28.8368  -21.4517   22.8723 H   0  0  0  0  0  0
  -29.7592  -19.9781   22.8569 H   0  0  0  0  0  0
  -29.6327  -17.8350   21.9293 H   0  0  0  0  0  0
  -31.0768  -17.8649   21.0011 H   0  0  0  0  0  0
  -28.7485  -16.0699   20.3879 H   0  0  0  0  0  0
  1 25  1  0  0  0
  1 30  2  0  0  0
  1 82  1  0  0  0
  2  3  1  0  0  0
  2 25  1  0  0  0
  2 83  1  0  0  0
  2 84  1  0  0  0
  3  4  1  0  0  0
  3 85  1  0  0  0
  3 86  1  0  0  0
  4  5  1  0  0  0
  4 87  1  0  0  0
  4 88  1  0  0  0
  5  6  1  0  0  0
  5 26  1  0  0  0
  5 89  1  0  0  0
  6 25  1  0  0  0
  6 90  1  0  0  0
  6 91  1  0  0  0
  7  8  2  0  0  0
  7 26  1  0  0  0
  7 29  1  0  0  0
  8  9  1  0  0  0
  8 22  1  0  0  0
  9 10  1  0  0  0
  9 27  2  0  0  0
 10 11  2  0  0  0
 10 15  1  0  0  0
 11 12  1  0  0  0
 11 92  1  0  0  0
 12 13  2  0  0  0
 12 93  1  0  0  0
 13 14  1  0  0  0
 13 31  1  0  0  0
 14 15  2  0  0  0
 14 94  1  0  0  0
 15 95  1  0  0  0
 16 17  2  0  0  0
 16 21  1  0  0  0
 16 31  1  0  0  0
 17 18  1  0  0  0
 17 96  1  0  0  0
 18 19  2  0  0  0
 18 97  1  0  0  0
 19 20  1  0  0  0
 19 24  1  0  0  0
 20 21  2  0  0  0
 20 98  1  0  0  0
 21 23  1  0  0  0
 22 28  1  0  0  0
 22 32  2  0  0  0
 26 27  1  0  0  0
 28 99  1  0  0  0
 28100  1  0  0  0
 29101  1  0  0  0
 29102  1  0  0  0
 33 34  1  0  0  0
 33 66  1  0  0  0
 33 70  2  0  0  0
 34 36  1  0  0  0
 34 59  1  0  0  0
 34103  1  0  0  0
 35 44  2  0  0  0
 35 45  1  0  0  0
 35 68  1  0  0  0
 36 56  1  0  0  0
 36104  1  0  0  0
 37 39  1  0  0  0
 37 47  1  0  0  0
 37 66  1  0  0  0
 37105  1  0  0  0
 38 43  2  0  0  0
 38 46  1  0  0  0
 38 47  1  0  0  0
 39 64  1  0  0  0
 39 67  2  0  0  0
 40 52  1  0  0  0
 40 53  2  0  0  0
 40 58  1  0  0  0
 41106  1  0  0  0
 41107  1  0  0  0
 41108  1  0  0  0
 41 48  1  0  0  0
 42 43  1  0  0  0
 42 66  1  0  0  0
 42109  1  0  0  0
 42110  1  0  0  0
 43 44  1  0  0  0
 44111  1  0  0  0
 45 46  2  0  0  0
 45112  1  0  0  0
 46113  1  0  0  0
 47114  1  0  0  0
 47115  1  0  0  0
 48 56  1  0  0  0
 48 65  1  0  0  0
 48116  1  0  0  0
 49 50  1  0  0  0
 49 53  1  0  0  0
 49 64  1  0  0  0
 49117  1  0  0  0
 50 51  1  0  0  0
 50118  1  0  0  0
 50119  1  0  0  0
 51 52  1  0  0  0
 51120  1  0  0  0
 51121  1  0  0  0
 52122  1  0  0  0
 52123  1  0  0  0
 53 54  1  0  0  0
 54 55  2  0  0  0
 54124  1  0  0  0
 55 57  1  0  0  0
 55125  1  0  0  0
 56 69  2  0  0  0
 57 58  2  0  0  0
 57126  1  0  0  0
 58127  1  0  0  0
 59 60  1  0  0  0
 59 61  1  0  0  0
 59 62  1  0  0  0
 60128  1  0  0  0
 60129  1  0  0  0
 60130  1  0  0  0
 61131  1  0  0  0
 61132  1  0  0  0
 61133  1  0  0  0
 62134  1  0  0  0
 62135  1  0  0  0
 62136  1  0  0  0
 63 65  1  0  0  0
 63137  1  0  0  0
 63138  1  0  0  0
 63139  1  0  0  0
 64140  1  0  0  0
 65141  1  0  0  0
 68 78  1  0  0  0
 71 72  2  0  0  0
 71 74  1  0  0  0
 71142  1  0  0  0
 72 75  1  0  0  0
 72143  1  0  0  0
 73 74  2  0  0  0
 73 76  1  0  0  0
 73 77  1  0  0  0
 74 79  1  0  0  0
 75 76  2  0  0  0
 75 81  1  0  0  0
 76 80  1  0  0  0
 77 78  2  0  0  0
 77144  1  0  0  0
 78145  1  0  0  0
 79146  1  0  0  0
 79147  1  0  0  0
 79148  1  0  0  0
 80149  1  0  0  0
 80150  1  0  0  0
 80151  1  0  0  0
 81 82  1  0  0  0
 81152  1  0  0  0
 81153  1  0  0  0
 82154  1  0  0  0
M  ISO  4   1 100  68 101  78 101  82 100
M  END
> <chiral flag>
0

> <version>
0

> <s_m_source_file>
/data/baiqing/PycharmProjects/Reinvent-master-3.2/result/LINK_invent/BTK/process_docking_weight1_custom_product_contain_oxygen_bond_distance_aromatic_linkinvent_7_9_3/rearranged_h_0035.sdf

> <i_m_source_file_index>
54

> <r_mmod_Potential_Energy-OPLS-2005>
747.934448242188

> <r_mmod_Stretch_Energy-OPLS-2005>
333.313568115234

> <r_mmod_Bend_Energy-OPLS-2005>
392.406890869141

> <r_mmod_Torsional_Energy-OPLS-2005>
229.698806762695

> <r_mmod_Improper_Torsional_Energy-OPLS-2005>
6.16793584823608

> <r_mmod_Van_der_Waal_Energy-OPLS-2005>
129.100524902344

> <r_mmod_Electrostatic_Energy-OPLS-2005>
-410.95166015625

> <r_mmod_Solvation_Energy-OPLS-2005>
-208.605346679688

> <b_mmod_Minimization_Converged-OPLS-2005>
0

> <r_mmod_RMS_Derivative-OPLS-2005>
3.09637546539307

$$$$
55
                    3D
 Structure written by MMmdl.
169178  0  0  1  0            999 V2000
  -30.4651  -15.0540   20.3831 C   0  0  0  0  0  0
  -30.4267  -12.6459   19.5227 C   0  0  0  0  0  0
  -29.5239  -12.5546   18.2698 C   0  0  0  0  0  0
  -28.0611  -12.3143   18.6840 C   0  0  0  0  0  0
  -27.6192  -13.2540   19.8355 C   0  0  2  0  0  0
  -28.6503  -13.3221   20.9802 C   0  0  0  0  0  0
  -25.2427  -13.8225   20.5682 C   0  0  0  0  0  0
  -24.1759  -13.0448   20.9239 C   0  0  0  0  0  0
  -24.6385  -11.6935   20.8765 C   0  0  0  0  0  0
  -23.9084  -10.4293   21.0415 C   0  0  0  0  0  0
  -24.3631   -9.4203   21.9190 C   0  0  0  0  0  0
  -23.6294   -8.2237   22.0768 C   0  0  0  0  0  0
  -22.4276   -8.0275   21.3548 C   0  0  0  0  0  0
  -21.9915   -9.0259   20.4652 C   0  0  0  0  0  0
  -22.7255  -10.2135   20.3058 C   0  0  0  0  0  0
  -21.6851   -6.0732   22.5283 C   0  0  0  0  0  0
  -21.4021   -6.5643   23.8219 C   0  0  0  0  0  0
  -21.3663   -5.6795   24.9184 C   0  0  0  0  0  0
  -21.6039   -4.3059   24.7236 C   0  0  0  0  0  0
  -21.8821   -3.8151   23.4351 C   0  0  0  0  0  0
  -21.9192   -4.6963   22.3401 C   0  0  0  0  0  0
  -22.7790  -13.5218   21.1892 C   0  0  0  0  0  0
  -22.1665   -4.2145   21.0975 F   0  0  0  0  0  0
  -21.5623   -3.4542   25.7749 F   0  0  0  0  0  0
  -29.9124  -13.7630   20.3791 N   0  0  0  0  0  0
  -26.2828  -12.9458   20.3208 N   0  0  0  0  0  0
  -25.9311  -11.6582   20.5727 N   0  0  0  0  0  0
  -22.0442  -12.8191   22.0439 N   0  0  0  0  0  0
  -25.4082  -15.1946   20.4092 N   0  0  0  0  0  0
  -31.6720  -15.1009   20.1099 O   0  0  0  0  0  0
  -21.6643   -6.8870   21.4243 O   0  0  0  0  0  0
  -22.3468  -14.5515   20.6726 O   0  0  0  0  0  0
  -24.6512  -31.8331   23.1808 C   0  0  0  0  0  0
  -25.9262  -32.4627   23.8200 C   0  0  1  0  0  0
  -27.2109  -27.0424   20.1644 C   0  0  0  0  0  0
  -25.5980  -33.8431   24.2125 N   0  0  0  0  0  0
  -23.4595  -30.4470   21.5267 C   0  0  2  0  0  0
  -24.9064  -28.8503   20.1167 C   0  0  0  0  0  0
  -22.7601  -29.4450   22.4796 C   0  0  0  0  0  0
  -18.0308  -28.1343   22.8433 C   0  0  0  0  0  0
  -24.1529  -36.7246   23.2645 C   0  0  0  0  0  0
  -26.0188  -30.6750   21.3925 C   0  0  0  0  0  0
  -26.0889  -29.2742   20.7385 C   0  0  0  0  0  0
  -27.2427  -28.3906   20.7343 C   0  0  0  0  0  0
  -25.9974  -26.7296   19.5148 C   0  0  0  0  0  0
  -24.8771  -27.5934   19.4885 C   0  0  0  0  0  0
  -23.6961  -29.7730   20.1482 C   0  0  0  0  0  0
  -25.4152  -36.2989   24.0325 C   0  0  1  0  0  0
  -20.5922  -28.3678   23.1185 C   0  0  2  0  0  0
  -20.6806  -26.9359   22.5381 C   0  0  0  0  0  0
  -19.5798  -26.6323   21.5166 C   0  0  0  0  0  0
  -18.1956  -26.7878   22.1567 C   0  0  0  0  0  0
  -19.1568  -28.8819   23.2798 C   0  0  0  0  0  0
  -18.9500  -30.1405   23.8851 C   0  0  0  0  0  0
  -17.6506  -30.6555   24.0511 C   0  0  0  0  0  0
  -25.9096  -34.9370   23.5038 C   0  0  0  0  0  0
  -16.5381  -29.9047   23.6319 C   0  0  0  0  0  0
  -16.7296  -28.6456   23.0340 C   0  0  0  0  0  0
  -26.4561  -31.6534   25.0689 C   0  0  0  0  0  0
  -25.3733  -31.3737   26.1387 C   0  0  0  0  0  0
  -27.0448  -30.2924   24.6318 C   0  0  0  0  0  0
  -27.6072  -32.4323   25.7491 C   0  0  0  0  0  0
  -27.5604  -37.1784   24.8465 C   0  0  0  0  0  0
  -21.4276  -29.3047   22.3594 N   0  0  0  0  0  0
  -26.4317  -37.3712   23.9413 N   0  0  0  0  0  0
  -24.7301  -31.0077   22.0895 N   0  0  0  0  0  0
  -23.4200  -28.7975   23.2969 O   0  0  0  0  0  0
  -28.2794  -26.0544   20.1158 O   0  0  0  0  0  0
  -26.5659  -34.8904   22.4612 O   0  0  0  0  0  0
  -23.5628  -32.1239   23.7021 O   0  0  0  0  0  0
  -30.8523  -18.0447   19.2347 C   0  0  0  0  0  0
  -31.1717  -19.3443   18.7909 C   0  0  0  0  0  0
  -30.5264  -20.5177   19.2903 C   0  0  0  0  0  0
  -29.0760  -19.0228   20.5597 C   0  0  0  0  0  0
  -29.3658  -20.4609   20.1282 C   0  0  0  0  0  0
  -29.8454  -17.7728   20.1714 C   0  0  0  0  0  0
  -28.4426  -23.1085   19.7969 C   0  0  0  0  0  0
  -28.1987  -23.1712   18.4678 C   0  0  0  0  0  0
  -27.4076  -22.8452   22.3897 C   0  0  0  0  0  0
  -27.4176  -24.3193   21.8823 C   0  0  0  0  0  0
  -28.6144  -21.9602   21.9628 C   0  0  0  0  0  0
  -28.2968  -24.5462   20.6415 C   0  0  2  0  0  0
  -32.2761  -19.4304   17.7455 C   0  0  0  0  0  0
  -31.1831  -21.8587   18.9625 C   0  0  0  0  0  0
  -27.8789  -18.7832   21.4634 C   0  0  0  0  0  0
  -28.1057  -22.0275   17.4682 C   0  0  0  0  0  0
  -28.7016  -21.7900   20.5054 N   0  0  0  0  0  0
  -29.6642  -16.2558   20.5389 N   0  0  0  0  0  0
  -31.4635  -12.8017   19.2252 H   0  0  0  0  0  0
  -30.4145  -11.7028   20.0710 H   0  0  0  0  0  0
  -29.8657  -11.7587   17.6067 H   0  0  0  0  0  0
  -29.5942  -13.4830   17.7000 H   0  0  0  0  0  0
  -27.9774  -11.2769   19.0069 H   0  0  0  0  0  0
  -27.3977  -12.4218   17.8258 H   0  0  0  0  0  0
  -27.5712  -14.2472   19.3899 H   0  0  0  0  0  0
  -28.7580  -12.3592   21.4786 H   0  0  0  0  0  0
  -28.3296  -14.0322   21.7438 H   0  0  0  0  0  0
  -25.2773   -9.5692   22.4780 H   0  0  0  0  0  0
  -24.0015   -7.4629   22.7492 H   0  0  0  0  0  0
  -21.0839   -8.8778   19.8946 H   0  0  0  0  0  0
  -22.3704  -10.9687   19.6170 H   0  0  0  0  0  0
  -21.2018   -7.6158   23.9722 H   0  0  0  0  0  0
  -21.1485   -6.0532   25.9088 H   0  0  0  0  0  0
  -22.0586   -2.7614   23.2859 H   0  0  0  0  0  0
  -22.4074  -11.9841   22.4800 H   0  0  0  0  0  0
  -21.1072  -13.1224   22.2687 H   0  0  0  0  0  0
  -24.6258  -15.8364   20.4794 H   0  0  0  0  0  0
  -26.2392  -15.6255   20.0264 H   0  0  0  0  0  0
  -26.7281  -32.5202   23.0893 H   0  0  0  0  0  0
  -25.0165  -33.9515   25.0300 H   0  0  0  0  0  0
  -22.7697  -31.2785   21.3671 H   0  0  0  0  0  0
  -23.3805  -35.9564   23.3270 H   0  0  0  0  0  0
  -24.3593  -36.8927   22.2059 H   0  0  0  0  0  0
  -23.7285  -37.6426   23.6722 H   0  0  0  0  0  0
  -26.1808  -31.4259   20.6178 H   0  0  0  0  0  0
  -26.8863  -30.7228   22.0395 H   0  0  0  0  0  0
  -28.1531  -28.7232   21.2179 H   0  0  0  0  0  0
  -25.9060  -25.7694   19.0242 H   0  0  0  0  0  0
  -23.9768  -27.2664   18.9819 H   0  0  0  0  0  0
  -23.8634  -30.5527   19.4035 H   0  0  0  0  0  0
  -22.8067  -29.2334   19.8196 H   0  0  0  0  0  0
  -25.1330  -36.1812   25.0817 H   0  0  0  0  0  0
  -20.9973  -28.3296   24.1319 H   0  0  0  0  0  0
  -20.5671  -26.2282   23.3599 H   0  0  0  0  0  0
  -21.6678  -26.7374   22.1166 H   0  0  0  0  0  0
  -19.6981  -25.6216   21.1234 H   0  0  0  0  0  0
  -19.6780  -27.3105   20.6657 H   0  0  0  0  0  0
  -17.4220  -26.6588   21.3964 H   0  0  0  0  0  0
  -18.0387  -26.0015   22.8977 H   0  0  0  0  0  0
  -19.7985  -30.7177   24.2254 H   0  0  0  0  0  0
  -17.5077  -31.6258   24.5076 H   0  0  0  0  0  0
  -15.5385  -30.2933   23.7675 H   0  0  0  0  0  0
  -15.8688  -28.0768   22.7081 H   0  0  0  0  0  0
  -24.5997  -30.6972   25.7748 H   0  0  0  0  0  0
  -24.8836  -32.2906   26.4652 H   0  0  0  0  0  0
  -25.8032  -30.9064   27.0255 H   0  0  0  0  0  0
  -26.3069  -29.6615   24.1350 H   0  0  0  0  0  0
  -27.4053  -29.7256   25.4904 H   0  0  0  0  0  0
  -27.8981  -30.4134   23.9645 H   0  0  0  0  0  0
  -27.2645  -33.3693   26.1886 H   0  0  0  0  0  0
  -28.3964  -32.6750   25.0370 H   0  0  0  0  0  0
  -28.0624  -31.8547   26.5542 H   0  0  0  0  0  0
  -28.2543  -38.0144   24.7499 H   0  0  0  0  0  0
  -28.1148  -36.2655   24.6275 H   0  0  0  0  0  0
  -27.2294  -37.1383   25.8853 H   0  0  0  0  0  0
  -20.9483  -29.8870   21.6864 H   0  0  0  0  0  0
  -26.0181  -38.2780   24.1432 H   0  0  0  0  0  0
  -31.4179  -17.2212   18.8258 H   0  0  0  0  0  0
  -28.0139  -24.1481   18.0366 H   0  0  0  0  0  0
  -26.4866  -22.3629   22.0581 H   0  0  0  0  0  0
  -27.3471  -22.8453   23.4783 H   0  0  0  0  0  0
  -27.7660  -24.9874   22.6731 H   0  0  0  0  0  0
  -26.3921  -24.6248   21.6704 H   0  0  0  0  0  0
  -28.5557  -21.0041   22.4805 H   0  0  0  0  0  0
  -29.5410  -22.4201   22.3093 H   0  0  0  0  0  0
  -29.3013  -24.5670   21.0618 H   0  0  0  0  0  0
  -32.3137  -18.5202   17.1435 H   0  0  0  0  0  0
  -33.2501  -19.5528   18.2211 H   0  0  0  0  0  0
  -32.1130  -20.2501   17.0475 H   0  0  0  0  0  0
  -32.2613  -21.7552   18.8529 H   0  0  0  0  0  0
  -31.0499  -22.5895   19.7574 H   0  0  0  0  0  0
  -30.8035  -22.2662   18.0276 H   0  0  0  0  0  0
  -27.1444  -19.5844   21.3753 H   0  0  0  0  0  0
  -28.1964  -18.7111   22.5037 H   0  0  0  0  0  0
  -27.3680  -17.8574   21.1989 H   0  0  0  0  0  0
  -28.0786  -21.0506   17.9433 H   0  0  0  0  0  0
  -28.9370  -22.0457   16.7657 H   0  0  0  0  0  0
  -27.1870  -22.1167   16.8882 H   0  0  0  0  0  0
  -28.7431  -16.0377   20.8855 H   0  0  0  0  0  0
  1 25  1  0  0  0
  1 30  2  0  0  0
  1 88  1  0  0  0
  2  3  1  0  0  0
  2 25  1  0  0  0
  2 89  1  0  0  0
  2 90  1  0  0  0
  3  4  1  0  0  0
  3 91  1  0  0  0
  3 92  1  0  0  0
  4  5  1  0  0  0
  4 93  1  0  0  0
  4 94  1  0  0  0
  5  6  1  0  0  0
  5 26  1  0  0  0
  5 95  1  0  0  0
  6 25  1  0  0  0
  6 96  1  0  0  0
  6 97  1  0  0  0
  7  8  2  0  0  0
  7 26  1  0  0  0
  7 29  1  0  0  0
  8  9  1  0  0  0
  8 22  1  0  0  0
  9 10  1  0  0  0
  9 27  2  0  0  0
 10 11  2  0  0  0
 10 15  1  0  0  0
 11 12  1  0  0  0
 11 98  1  0  0  0
 12 13  2  0  0  0
 12 99  1  0  0  0
 13 14  1  0  0  0
 13 31  1  0  0  0
 14 15  2  0  0  0
 14100  1  0  0  0
 15101  1  0  0  0
 16 17  2  0  0  0
 16 21  1  0  0  0
 16 31  1  0  0  0
 17 18  1  0  0  0
 17102  1  0  0  0
 18 19  2  0  0  0
 18103  1  0  0  0
 19 20  1  0  0  0
 19 24  1  0  0  0
 20 21  2  0  0  0
 20104  1  0  0  0
 21 23  1  0  0  0
 22 28  1  0  0  0
 22 32  2  0  0  0
 26 27  1  0  0  0
 28105  1  0  0  0
 28106  1  0  0  0
 29107  1  0  0  0
 29108  1  0  0  0
 33 34  1  0  0  0
 33 66  1  0  0  0
 33 70  2  0  0  0
 34 36  1  0  0  0
 34 59  1  0  0  0
 34109  1  0  0  0
 35 44  2  0  0  0
 35 45  1  0  0  0
 35 68  1  0  0  0
 36 56  1  0  0  0
 36110  1  0  0  0
 37 39  1  0  0  0
 37 47  1  0  0  0
 37 66  1  0  0  0
 37111  1  0  0  0
 38 43  2  0  0  0
 38 46  1  0  0  0
 38 47  1  0  0  0
 39 64  1  0  0  0
 39 67  2  0  0  0
 40 52  1  0  0  0
 40 53  2  0  0  0
 40 58  1  0  0  0
 41112  1  0  0  0
 41113  1  0  0  0
 41114  1  0  0  0
 41 48  1  0  0  0
 42 43  1  0  0  0
 42 66  1  0  0  0
 42115  1  0  0  0
 42116  1  0  0  0
 43 44  1  0  0  0
 44117  1  0  0  0
 45 46  2  0  0  0
 45118  1  0  0  0
 46119  1  0  0  0
 47120  1  0  0  0
 47121  1  0  0  0
 48 56  1  0  0  0
 48 65  1  0  0  0
 48122  1  0  0  0
 49 50  1  0  0  0
 49 53  1  0  0  0
 49 64  1  0  0  0
 49123  1  0  0  0
 50 51  1  0  0  0
 50124  1  0  0  0
 50125  1  0  0  0
 51 52  1  0  0  0
 51126  1  0  0  0
 51127  1  0  0  0
 52128  1  0  0  0
 52129  1  0  0  0
 53 54  1  0  0  0
 54 55  2  0  0  0
 54130  1  0  0  0
 55 57  1  0  0  0
 55131  1  0  0  0
 56 69  2  0  0  0
 57 58  2  0  0  0
 57132  1  0  0  0
 58133  1  0  0  0
 59 60  1  0  0  0
 59 61  1  0  0  0
 59 62  1  0  0  0
 60134  1  0  0  0
 60135  1  0  0  0
 60136  1  0  0  0
 61137  1  0  0  0
 61138  1  0  0  0
 61139  1  0  0  0
 62140  1  0  0  0
 62141  1  0  0  0
 62142  1  0  0  0
 63 65  1  0  0  0
 63143  1  0  0  0
 63144  1  0  0  0
 63145  1  0  0  0
 64146  1  0  0  0
 65147  1  0  0  0
 68 82  1  0  0  0
 71 72  2  0  0  0
 71 76  1  0  0  0
 71148  1  0  0  0
 72 73  1  0  0  0
 72 83  1  0  0  0
 73 75  2  0  0  0
 73 84  1  0  0  0
 74 75  1  0  0  0
 74 76  2  0  0  0
 74 85  1  0  0  0
 75 87  1  0  0  0
 76 88  1  0  0  0
 77 78  2  0  0  0
 77 82  1  0  0  0
 77 87  1  0  0  0
 78 86  1  0  0  0
 78149  1  0  0  0
 79 80  1  0  0  0
 79 81  1  0  0  0
 79150  1  0  0  0
 79151  1  0  0  0
 80 82  1  0  0  0
 80152  1  0  0  0
 80153  1  0  0  0
 81 87  1  0  0  0
 81154  1  0  0  0
 81155  1  0  0  0
 82156  1  0  0  0
 83157  1  0  0  0
 83158  1  0  0  0
 83159  1  0  0  0
 84160  1  0  0  0
 84161  1  0  0  0
 84162  1  0  0  0
 85163  1  0  0  0
 85164  1  0  0  0
 85165  1  0  0  0
 86166  1  0  0  0
 86167  1  0  0  0
 86168  1  0  0  0
 88169  1  0  0  0
M  ISO  4   1 100  68 101  82 101  88 100
M  END
> <chiral flag>
0

> <version>
0

> <s_m_source_file>
/data/baiqing/PycharmProjects/Reinvent-master-3.2/result/LINK_invent/BTK/process_docking_weight1_custom_product_contain_oxygen_bond_distance_aromatic_linkinvent_7_9_3/rearranged_h_0035.sdf

> <i_m_source_file_index>
55

> <r_mmod_Potential_Energy-OPLS-2005>
792.548645019531

> <r_mmod_Stretch_Energy-OPLS-2005>
371.795013427734

> <r_mmod_Bend_Energy-OPLS-2005>
325.863525390625

> <r_mmod_Torsional_Energy-OPLS-2005>
277.796539306641

> <r_mmod_Improper_Torsional_Energy-OPLS-2005>
5.29733085632324

> <r_mmod_Van_der_Waal_Energy-OPLS-2005>
142.234069824219

> <r_mmod_Electrostatic_Energy-OPLS-2005>
-401.011901855469

> <r_mmod_Solvation_Energy-OPLS-2005>
-199.189895629883

> <b_mmod_Minimization_Converged-OPLS-2005>
0

> <r_mmod_RMS_Derivative-OPLS-2005>
4.25879383087158

$$$$
56
                    3D
 Structure written by MMmdl.
154163  0  0  1  0            999 V2000
  -30.3588  -15.3901   20.2738 C   0  0  0  0  0  0
  -30.4309  -12.8816   19.5496 C   0  0  0  0  0  0
  -29.5463  -12.6237   18.3040 C   0  0  0  0  0  0
  -28.1011  -12.3158   18.7253 C   0  0  0  0  0  0
  -27.6064  -13.2918   19.8221 C   0  0  2  0  0  0
  -28.6293  -13.5136   20.9590 C   0  0  0  0  0  0
  -25.2356  -13.8266   20.5727 C   0  0  0  0  0  0
  -24.1740  -13.0460   20.9248 C   0  0  0  0  0  0
  -24.6418  -11.6943   20.8747 C   0  0  0  0  0  0
  -23.9111  -10.4310   21.0387 C   0  0  0  0  0  0
  -24.3647   -9.4220   21.9170 C   0  0  0  0  0  0
  -23.6323   -8.2252   22.0746 C   0  0  0  0  0  0
  -22.4308   -8.0284   21.3529 C   0  0  0  0  0  0
  -21.9936   -9.0266   20.4634 C   0  0  0  0  0  0
  -22.7271  -10.2144   20.3050 C   0  0  0  0  0  0
  -21.6868   -6.0738   22.5287 C   0  0  0  0  0  0
  -21.4013   -6.5635   23.8219 C   0  0  0  0  0  0
  -21.3677   -5.6780   24.9179 C   0  0  0  0  0  0
  -21.6061   -4.3049   24.7222 C   0  0  0  0  0  0
  -21.8821   -3.8141   23.4342 C   0  0  0  0  0  0
  -21.9190   -4.6965   22.3398 C   0  0  0  0  0  0
  -22.7746  -13.5197   21.1896 C   0  0  0  0  0  0
  -22.1663   -4.2151   21.0973 F   0  0  0  0  0  0
  -21.5635   -3.4533   25.7732 F   0  0  0  0  0  0
  -29.8526  -14.0465   20.3336 N   0  0  0  0  0  0
  -26.2804  -12.9575   20.3192 N   0  0  0  0  0  0
  -25.9360  -11.6662   20.5682 N   0  0  0  0  0  0
  -22.0391  -12.8193   22.0442 N   0  0  0  0  0  0
  -25.4007  -15.2015   20.4181 N   0  0  0  0  0  0
  -31.5631  -15.3911   19.9714 O   0  0  0  0  0  0
  -21.6661   -6.8890   21.4251 O   0  0  0  0  0  0
  -22.3430  -14.5509   20.6721 O   0  0  0  0  0  0
  -24.6704  -31.8141   23.1613 C   0  0  0  0  0  0
  -25.9360  -32.4527   23.8108 C   0  0  1  0  0  0
  -27.1941  -26.8545   20.1260 C   0  0  0  0  0  0
  -25.6000  -33.8351   24.2016 N   0  0  0  0  0  0
  -23.4846  -30.4243   21.5165 C   0  0  2  0  0  0
  -24.9259  -28.7950   20.1039 C   0  0  0  0  0  0
  -22.7694  -29.4395   22.4775 C   0  0  0  0  0  0
  -18.0326  -28.1413   22.8458 C   0  0  0  0  0  0
  -24.1500  -36.7184   23.2649 C   0  0  0  0  0  0
  -26.0580  -30.5910   21.3980 C   0  0  0  0  0  0
  -26.1163  -29.1761   20.7322 C   0  0  0  0  0  0
  -27.2420  -28.2250   20.7173 C   0  0  0  0  0  0
  -25.9724  -26.6431   19.4543 C   0  0  0  0  0  0
  -24.8804  -27.5521   19.4495 C   0  0  0  0  0  0
  -23.7202  -29.7337   20.1450 C   0  0  0  0  0  0
  -25.4152  -36.2943   24.0278 C   0  0  1  0  0  0
  -20.5947  -28.3767   23.1171 C   0  0  2  0  0  0
  -20.6806  -26.9440   22.5396 C   0  0  0  0  0  0
  -19.5779  -26.6383   21.5205 C   0  0  0  0  0  0
  -18.1963  -26.7947   22.1608 C   0  0  0  0  0  0
  -19.1586  -28.8914   23.2798 C   0  0  0  0  0  0
  -18.9495  -30.1503   23.8831 C   0  0  0  0  0  0
  -17.6488  -30.6604   24.0553 C   0  0  0  0  0  0
  -25.9121  -34.9325   23.4982 C   0  0  0  0  0  0
  -16.5377  -29.9086   23.6346 C   0  0  0  0  0  0
  -16.7305  -28.6504   23.0362 C   0  0  0  0  0  0
  -26.4603  -31.6494   25.0665 C   0  0  0  0  0  0
  -25.3719  -31.3761   26.1314 C   0  0  0  0  0  0
  -27.0488  -30.2842   24.6440 C   0  0  0  0  0  0
  -27.6096  -32.4309   25.7470 C   0  0  0  0  0  0
  -27.5567  -37.1766   24.8478 C   0  0  0  0  0  0
  -21.4358  -29.3038   22.3518 N   0  0  0  0  0  0
  -26.4307  -37.3672   23.9381 N   0  0  0  0  0  0
  -24.7611  -30.9720   22.0784 N   0  0  0  0  0  0
  -23.4207  -28.7982   23.3063 O   0  0  0  0  0  0
  -28.1998  -25.7330   20.1966 O   0  0  0  0  0  0
  -26.5738  -34.8876   22.4587 O   0  0  0  0  0  0
  -23.5764  -32.1157   23.6667 O   0  0  0  0  0  0
  -28.6924  -19.6802   17.9578 C   0  0  0  0  0  0
  -29.2047  -19.6028   20.6059 C   0  0  0  0  0  0
  -28.5383  -20.9322   18.6400 C   0  0  0  0  0  0
  -28.8236  -20.9910   20.0147 C   0  0  0  0  0  0
  -29.0820  -18.4140   18.5368 C   0  0  0  0  0  0
  -29.3801  -18.2175   19.9271 C   0  0  0  0  0  0
  -28.1004  -22.2247   17.8687 C   0  0  0  0  0  0
  -28.6322  -22.5848   20.6547 C   0  0  0  0  0  0
  -27.4392  -23.4667   18.6284 C   0  0  0  0  0  0
  -28.2881  -24.0865   19.7822 C   0  0  1  0  0  0
  -29.1062  -17.2225   17.5924 C   0  0  0  0  0  0
  -29.5844  -16.6707   20.4881 N   0  0  0  0  0  0
  -31.4568  -13.0754   19.2347 H   0  0  0  0  0  0
  -30.4901  -11.9864   20.1693 H   0  0  0  0  0  0
  -29.9506  -11.8090   17.7033 H   0  0  0  0  0  0
  -29.5604  -13.5120   17.6695 H   0  0  0  0  0  0
  -28.0774  -11.2926   19.1005 H   0  0  0  0  0  0
  -27.4376  -12.3404   17.8597 H   0  0  0  0  0  0
  -27.5066  -14.2484   19.3071 H   0  0  0  0  0  0
  -28.8157  -12.5959   21.5192 H   0  0  0  0  0  0
  -28.2425  -14.2414   21.6736 H   0  0  0  0  0  0
  -25.2788   -9.5694   22.4752 H   0  0  0  0  0  0
  -24.0030   -7.4644   22.7471 H   0  0  0  0  0  0
  -21.0856   -8.8798   19.8948 H   0  0  0  0  0  0
  -22.3724  -10.9687   19.6167 H   0  0  0  0  0  0
  -21.2006   -7.6142   23.9722 H   0  0  0  0  0  0
  -21.1505   -6.0507   25.9078 H   0  0  0  0  0  0
  -22.0579   -2.7607   23.2843 H   0  0  0  0  0  0
  -22.4017  -11.9885   22.4905 H   0  0  0  0  0  0
  -21.1001  -13.1210   22.2618 H   0  0  0  0  0  0
  -24.6258  -15.8483   20.5122 H   0  0  0  0  0  0
  -26.2485  -15.6457   20.0912 H   0  0  0  0  0  0
  -26.7426  -32.5034   23.0809 H   0  0  0  0  0  0
  -25.0095  -33.9415   25.0133 H   0  0  0  0  0  0
  -22.8028  -31.2593   21.3422 H   0  0  0  0  0  0
  -23.3757  -35.9527   23.3335 H   0  0  0  0  0  0
  -24.3551  -36.8808   22.2059 H   0  0  0  0  0  0
  -23.7280  -37.6393   23.6686 H   0  0  0  0  0  0
  -26.2473  -31.3300   20.6183 H   0  0  0  0  0  0
  -26.9174  -30.6483   22.0553 H   0  0  0  0  0  0
  -28.1510  -28.5121   21.2273 H   0  0  0  0  0  0
  -25.8225  -25.6998   18.9516 H   0  0  0  0  0  0
  -23.9694  -27.2576   18.9464 H   0  0  0  0  0  0
  -23.8777  -30.4992   19.3840 H   0  0  0  0  0  0
  -22.8256  -29.1920   19.8323 H   0  0  0  0  0  0
  -25.1364  -36.1751   25.0768 H   0  0  0  0  0  0
  -21.0016  -28.3381   24.1298 H   0  0  0  0  0  0
  -20.5678  -26.2387   23.3640 H   0  0  0  0  0  0
  -21.6672  -26.7409   22.1205 H   0  0  0  0  0  0
  -19.6947  -25.6278   21.1269 H   0  0  0  0  0  0
  -19.6729  -27.3168   20.6712 H   0  0  0  0  0  0
  -17.4225  -26.6669   21.4020 H   0  0  0  0  0  0
  -18.0371  -26.0103   22.9021 H   0  0  0  0  0  0
  -19.7972  -30.7344   24.2160 H   0  0  0  0  0  0
  -17.5036  -31.6276   24.5182 H   0  0  0  0  0  0
  -15.5374  -30.2967   23.7719 H   0  0  0  0  0  0
  -15.8699  -28.0811   22.7103 H   0  0  0  0  0  0
  -24.5926  -30.7084   25.7610 H   0  0  0  0  0  0
  -24.8898  -32.2971   26.4611 H   0  0  0  0  0  0
  -25.7956  -30.9010   27.0177 H   0  0  0  0  0  0
  -26.3144  -29.6507   24.1444 H   0  0  0  0  0  0
  -27.3980  -29.7224   25.5121 H   0  0  0  0  0  0
  -27.9121  -30.3978   23.9872 H   0  0  0  0  0  0
  -27.2671  -33.3667   26.1903 H   0  0  0  0  0  0
  -28.3995  -32.6768   25.0354 H   0  0  0  0  0  0
  -28.0671  -31.8526   26.5514 H   0  0  0  0  0  0
  -28.2616  -38.0032   24.7444 H   0  0  0  0  0  0
  -28.1030  -36.2544   24.6418 H   0  0  0  0  0  0
  -27.2253  -37.1551   25.8879 H   0  0  0  0  0  0
  -20.9629  -29.8697   21.6606 H   0  0  0  0  0  0
  -26.0148  -38.2749   24.1329 H   0  0  0  0  0  0
  -28.4776  -19.6910   16.8963 H   0  0  0  0  0  0
  -29.3623  -19.6141   21.6730 H   0  0  0  0  0  0
  -27.4127  -21.9133   17.0785 H   0  0  0  0  0  0
  -28.9808  -22.5896   17.3381 H   0  0  0  0  0  0
  -29.5055  -22.7790   21.2744 H   0  0  0  0  0  0
  -27.7932  -22.4784   21.3448 H   0  0  0  0  0  0
  -26.4756  -23.1470   19.0356 H   0  0  0  0  0  0
  -27.2319  -24.2376   17.8853 H   0  0  0  0  0  0
  -29.2327  -24.2042   19.2473 H   0  0  0  0  0  0
  -28.7141  -17.4862   16.6083 H   0  0  0  0  0  0
  -28.4954  -16.4024   17.9724 H   0  0  0  0  0  0
  -30.1269  -16.8657   17.4557 H   0  0  0  0  0  0
  -28.8201  -16.4434   21.1071 H   0  0  0  0  0  0
  1 25  1  0  0  0
  1 30  2  0  0  0
  1 82  1  0  0  0
  2  3  1  0  0  0
  2 25  1  0  0  0
  2 83  1  0  0  0
  2 84  1  0  0  0
  3  4  1  0  0  0
  3 85  1  0  0  0
  3 86  1  0  0  0
  4  5  1  0  0  0
  4 87  1  0  0  0
  4 88  1  0  0  0
  5  6  1  0  0  0
  5 26  1  0  0  0
  5 89  1  0  0  0
  6 25  1  0  0  0
  6 90  1  0  0  0
  6 91  1  0  0  0
  7  8  2  0  0  0
  7 26  1  0  0  0
  7 29  1  0  0  0
  8  9  1  0  0  0
  8 22  1  0  0  0
  9 10  1  0  0  0
  9 27  2  0  0  0
 10 11  2  0  0  0
 10 15  1  0  0  0
 11 12  1  0  0  0
 11 92  1  0  0  0
 12 13  2  0  0  0
 12 93  1  0  0  0
 13 14  1  0  0  0
 13 31  1  0  0  0
 14 15  2  0  0  0
 14 94  1  0  0  0
 15 95  1  0  0  0
 16 17  2  0  0  0
 16 21  1  0  0  0
 16 31  1  0  0  0
 17 18  1  0  0  0
 17 96  1  0  0  0
 18 19  2  0  0  0
 18 97  1  0  0  0
 19 20  1  0  0  0
 19 24  1  0  0  0
 20 21  2  0  0  0
 20 98  1  0  0  0
 21 23  1  0  0  0
 22 28  1  0  0  0
 22 32  2  0  0  0
 26 27  1  0  0  0
 28 99  1  0  0  0
 28100  1  0  0  0
 29101  1  0  0  0
 29102  1  0  0  0
 33 34  1  0  0  0
 33 66  1  0  0  0
 33 70  2  0  0  0
 34 36  1  0  0  0
 34 59  1  0  0  0
 34103  1  0  0  0
 35 44  2  0  0  0
 35 45  1  0  0  0
 35 68  1  0  0  0
 36 56  1  0  0  0
 36104  1  0  0  0
 37 39  1  0  0  0
 37 47  1  0  0  0
 37 66  1  0  0  0
 37105  1  0  0  0
 38 43  2  0  0  0
 38 46  1  0  0  0
 38 47  1  0  0  0
 39 64  1  0  0  0
 39 67  2  0  0  0
 40 52  1  0  0  0
 40 53  2  0  0  0
 40 58  1  0  0  0
 41106  1  0  0  0
 41107  1  0  0  0
 41108  1  0  0  0
 41 48  1  0  0  0
 42 43  1  0  0  0
 42 66  1  0  0  0
 42109  1  0  0  0
 42110  1  0  0  0
 43 44  1  0  0  0
 44111  1  0  0  0
 45 46  2  0  0  0
 45112  1  0  0  0
 46113  1  0  0  0
 47114  1  0  0  0
 47115  1  0  0  0
 48 56  1  0  0  0
 48 65  1  0  0  0
 48116  1  0  0  0
 49 50  1  0  0  0
 49 53  1  0  0  0
 49 64  1  0  0  0
 49117  1  0  0  0
 50 51  1  0  0  0
 50118  1  0  0  0
 50119  1  0  0  0
 51 52  1  0  0  0
 51120  1  0  0  0
 51121  1  0  0  0
 52122  1  0  0  0
 52123  1  0  0  0
 53 54  1  0  0  0
 54 55  2  0  0  0
 54124  1  0  0  0
 55 57  1  0  0  0
 55125  1  0  0  0
 56 69  2  0  0  0
 57 58  2  0  0  0
 57126  1  0  0  0
 58127  1  0  0  0
 59 60  1  0  0  0
 59 61  1  0  0  0
 59 62  1  0  0  0
 60128  1  0  0  0
 60129  1  0  0  0
 60130  1  0  0  0
 61131  1  0  0  0
 61132  1  0  0  0
 61133  1  0  0  0
 62134  1  0  0  0
 62135  1  0  0  0
 62136  1  0  0  0
 63 65  1  0  0  0
 63137  1  0  0  0
 63138  1  0  0  0
 63139  1  0  0  0
 64140  1  0  0  0
 65141  1  0  0  0
 68 80  1  0  0  0
 71 73  2  0  0  0
 71 75  1  0  0  0
 71142  1  0  0  0
 72 74  2  0  0  0
 72 76  1  0  0  0
 72143  1  0  0  0
 73 74  1  0  0  0
 73 77  1  0  0  0
 74 78  1  0  0  0
 75 76  2  0  0  0
 75 81  1  0  0  0
 76 82  1  0  0  0
 77 79  1  0  0  0
 77144  1  0  0  0
 77145  1  0  0  0
 78 80  1  0  0  0
 78146  1  0  0  0
 78147  1  0  0  0
 79 80  1  0  0  0
 79148  1  0  0  0
 79149  1  0  0  0
 80150  1  0  0  0
 81151  1  0  0  0
 81152  1  0  0  0
 81153  1  0  0  0
 82154  1  0  0  0
M  ISO  4   1 100  68 101  80 101  82 100
M  END
> <chiral flag>
0

> <version>
0

> <s_m_source_file>
/data/baiqing/PycharmProjects/Reinvent-master-3.2/result/LINK_invent/BTK/process_docking_weight1_custom_product_contain_oxygen_bond_distance_aromatic_linkinvent_7_9_3/rearranged_h_0035.sdf

> <i_m_source_file_index>
56

> <r_mmod_Potential_Energy-OPLS-2005>
1526.16198730469

> <r_mmod_Stretch_Energy-OPLS-2005>
650.637329101562

> <r_mmod_Bend_Energy-OPLS-2005>
505.734405517578

> <r_mmod_Torsional_Energy-OPLS-2005>
249.352111816406

> <r_mmod_Improper_Torsional_Energy-OPLS-2005>
3.79570746421814

> <r_mmod_Van_der_Waal_Energy-OPLS-2005>
124.100395202637

> <r_mmod_Electrostatic_Energy-OPLS-2005>
-385.327850341797

> <r_mmod_Solvation_Energy-OPLS-2005>
-212.527008056641

> <b_mmod_Minimization_Converged-OPLS-2005>
0

> <r_mmod_RMS_Derivative-OPLS-2005>
4.59445953369141

$$$$
57
                    3D
 Structure written by MMmdl.
157166  0  0  1  0            999 V2000
  -30.3959  -15.3301   20.3491 C   0  0  0  0  0  0
  -30.4333  -12.8453   19.5517 C   0  0  0  0  0  0
  -29.5420  -12.5962   18.3064 C   0  0  0  0  0  0
  -28.0915  -12.3094   18.7273 C   0  0  0  0  0  0
  -27.6084  -13.2869   19.8281 C   0  0  2  0  0  0
  -28.6318  -13.4814   20.9682 C   0  0  0  0  0  0
  -25.2357  -13.8261   20.5772 C   0  0  0  0  0  0
  -24.1712  -13.0437   20.9271 C   0  0  0  0  0  0
  -24.6383  -11.6942   20.8760 C   0  0  0  0  0  0
  -23.9083  -10.4291   21.0387 C   0  0  0  0  0  0
  -24.3623   -9.4203   21.9178 C   0  0  0  0  0  0
  -23.6285   -8.2242   22.0749 C   0  0  0  0  0  0
  -22.4266   -8.0274   21.3538 C   0  0  0  0  0  0
  -21.9896   -9.0251   20.4642 C   0  0  0  0  0  0
  -22.7241  -10.2127   20.3050 C   0  0  0  0  0  0
  -21.6849   -6.0715   22.5275 C   0  0  0  0  0  0
  -21.4022   -6.5628   23.8199 C   0  0  0  0  0  0
  -21.3660   -5.6788   24.9170 C   0  0  0  0  0  0
  -21.6040   -4.3054   24.7232 C   0  0  0  0  0  0
  -21.8822   -3.8139   23.4355 C   0  0  0  0  0  0
  -21.9195   -4.6939   22.3406 C   0  0  0  0  0  0
  -22.7726  -13.5183   21.1947 C   0  0  0  0  0  0
  -22.1647   -4.2126   21.0975 F   0  0  0  0  0  0
  -21.5629   -3.4532   25.7741 F   0  0  0  0  0  0
  -29.8658  -14.0003   20.3535 N   0  0  0  0  0  0
  -26.2795  -12.9572   20.3249 N   0  0  0  0  0  0
  -25.9336  -11.6662   20.5739 N   0  0  0  0  0  0
  -22.0404  -12.8156   22.0504 N   0  0  0  0  0  0
  -25.4011  -15.1983   20.4194 N   0  0  0  0  0  0
  -31.6057  -15.3354   20.0705 O   0  0  0  0  0  0
  -21.6642   -6.8862   21.4234 O   0  0  0  0  0  0
  -22.3404  -14.5482   20.6775 O   0  0  0  0  0  0
  -24.6658  -31.8187   23.1648 C   0  0  0  0  0  0
  -25.9327  -32.4563   23.8126 C   0  0  1  0  0  0
  -27.2231  -26.8916   20.1813 C   0  0  0  0  0  0
  -25.5983  -33.8376   24.2053 N   0  0  0  0  0  0
  -23.4829  -30.4265   21.5163 C   0  0  2  0  0  0
  -24.9376  -28.8058   20.1064 C   0  0  0  0  0  0
  -22.7705  -29.4395   22.4779 C   0  0  0  0  0  0
  -18.0319  -28.1421   22.8457 C   0  0  0  0  0  0
  -24.1481  -36.7195   23.2648 C   0  0  0  0  0  0
  -26.0527  -30.6112   21.4003 C   0  0  0  0  0  0
  -26.1192  -29.1968   20.7478 C   0  0  0  0  0  0
  -27.2508  -28.2591   20.7640 C   0  0  0  0  0  0
  -26.0205  -26.6709   19.4713 C   0  0  0  0  0  0
  -24.9175  -27.5658   19.4455 C   0  0  0  0  0  0
  -23.7237  -29.7372   20.1425 C   0  0  0  0  0  0
  -25.4114  -36.2956   24.0307 C   0  0  1  0  0  0
  -20.5954  -28.3750   23.1203 C   0  0  2  0  0  0
  -20.6791  -26.9438   22.5406 C   0  0  0  0  0  0
  -19.5757  -26.6392   21.5221 C   0  0  0  0  0  0
  -18.1942  -26.7949   22.1637 C   0  0  0  0  0  0
  -19.1587  -28.8907   23.2804 C   0  0  0  0  0  0
  -18.9493  -30.1504   23.8830 C   0  0  0  0  0  0
  -17.6486  -30.6593   24.0569 C   0  0  0  0  0  0
  -25.9095  -34.9342   23.5005 C   0  0  0  0  0  0
  -16.5370  -29.9086   23.6345 C   0  0  0  0  0  0
  -16.7304  -28.6524   23.0329 C   0  0  0  0  0  0
  -26.4564  -31.6504   25.0662 C   0  0  0  0  0  0
  -25.3688  -31.3758   26.1320 C   0  0  0  0  0  0
  -27.0437  -30.2864   24.6385 C   0  0  0  0  0  0
  -27.6052  -32.4288   25.7474 C   0  0  0  0  0  0
  -27.5554  -37.1751   24.8473 C   0  0  0  0  0  0
  -21.4371  -29.3028   22.3554 N   0  0  0  0  0  0
  -26.4257  -37.3703   23.9418 N   0  0  0  0  0  0
  -24.7556  -30.9806   22.0807 N   0  0  0  0  0  0
  -23.4237  -28.7965   23.3032 O   0  0  0  0  0  0
  -28.2167  -25.7709   20.3161 O   0  0  0  0  0  0
  -26.5721  -34.8895   22.4619 O   0  0  0  0  0  0
  -23.5717  -32.1153   23.6738 O   0  0  0  0  0  0
  -30.3699  -19.7036   18.2616 C   0  0  0  0  0  0
  -30.3214  -18.4254   18.8770 C   0  0  0  0  0  0
  -29.8252  -20.9107   18.7921 C   0  0  0  0  0  0
  -29.1483  -20.9565   20.0409 C   0  0  0  0  0  0
  -29.0898  -19.5182   20.6480 C   0  0  0  0  0  0
  -29.6777  -18.1769   20.1051 C   0  0  0  0  0  0
  -28.6910  -22.5698   20.6264 C   0  0  0  0  0  0
  -30.0516  -22.1881   17.9860 C   0  0  0  0  0  0
  -28.7042  -24.2411   18.4352 C   0  0  0  0  0  0
  -28.1625  -24.1569   19.8783 C   0  0  2  0  0  0
  -28.3575  -19.4180   21.9721 C   0  0  0  0  0  0
  -29.6256  -16.6033   20.5484 N   0  0  0  0  0  0
  -28.8035  -22.9367   17.7327 N   0  3  0  0  0  0
  -31.4540  -13.0482   19.2270 H   0  0  0  0  0  0
  -30.4986  -11.9449   20.1642 H   0  0  0  0  0  0
  -29.9356  -11.7704   17.7127 H   0  0  0  0  0  0
  -29.5689  -13.4759   17.6615 H   0  0  0  0  0  0
  -28.0522  -11.2869   19.1041 H   0  0  0  0  0  0
  -27.4257  -12.3418   17.8630 H   0  0  0  0  0  0
  -27.5204  -14.2506   19.3255 H   0  0  0  0  0  0
  -28.8018  -12.5552   21.5183 H   0  0  0  0  0  0
  -28.2582  -14.2060   21.6914 H   0  0  0  0  0  0
  -25.2750   -9.5689   22.4767 H   0  0  0  0  0  0
  -23.9985   -7.4625   22.7461 H   0  0  0  0  0  0
  -21.0833   -8.8775   19.8944 H   0  0  0  0  0  0
  -22.3688  -10.9659   19.6166 H   0  0  0  0  0  0
  -21.2016   -7.6141   23.9698 H   0  0  0  0  0  0
  -21.1479   -6.0524   25.9074 H   0  0  0  0  0  0
  -22.0609   -2.7601   23.2871 H   0  0  0  0  0  0
  -22.4020  -11.9793   22.4856 H   0  0  0  0  0  0
  -21.1030  -13.1177   22.2734 H   0  0  0  0  0  0
  -24.6295  -15.8510   20.5052 H   0  0  0  0  0  0
  -26.2489  -15.6308   20.0748 H   0  0  0  0  0  0
  -26.7406  -32.5091   23.0842 H   0  0  0  0  0  0
  -25.0087  -33.9441   25.0173 H   0  0  0  0  0  0
  -22.7955  -31.2564   21.3427 H   0  0  0  0  0  0
  -23.3756  -35.9512   23.3265 H   0  0  0  0  0  0
  -24.3564  -36.8872   22.2072 H   0  0  0  0  0  0
  -23.7215  -37.6368   23.6714 H   0  0  0  0  0  0
  -26.2295  -31.3447   20.6128 H   0  0  0  0  0  0
  -26.9163  -30.6796   22.0500 H   0  0  0  0  0  0
  -28.1385  -28.5547   21.3062 H   0  0  0  0  0  0
  -25.8884  -25.7302   18.9579 H   0  0  0  0  0  0
  -24.0273  -27.2649   18.9100 H   0  0  0  0  0  0
  -23.8824  -30.5038   19.3834 H   0  0  0  0  0  0
  -22.8344  -29.1911   19.8231 H   0  0  0  0  0  0
  -25.1311  -36.1752   25.0797 H   0  0  0  0  0  0
  -21.0009  -28.3344   24.1346 H   0  0  0  0  0  0
  -20.5673  -26.2376   23.3647 H   0  0  0  0  0  0
  -21.6655  -26.7412   22.1219 H   0  0  0  0  0  0
  -19.6908  -25.6297   21.1266 H   0  0  0  0  0  0
  -19.6681  -27.3203   20.6754 H   0  0  0  0  0  0
  -17.4216  -26.6684   21.4043 H   0  0  0  0  0  0
  -18.0330  -26.0109   22.9055 H   0  0  0  0  0  0
  -19.7960  -30.7346   24.2149 H   0  0  0  0  0  0
  -17.5026  -31.6258   24.5213 H   0  0  0  0  0  0
  -15.5365  -30.2964   23.7697 H   0  0  0  0  0  0
  -15.8708  -28.0841   22.7024 H   0  0  0  0  0  0
  -24.5894  -30.7088   25.7626 H   0  0  0  0  0  0
  -24.8863  -32.2963   26.4619 H   0  0  0  0  0  0
  -25.7934  -30.9013   27.0178 H   0  0  0  0  0  0
  -26.3100  -29.6546   24.1376 H   0  0  0  0  0  0
  -27.3958  -29.7215   25.5023 H   0  0  0  0  0  0
  -27.9042  -30.4026   23.9793 H   0  0  0  0  0  0
  -27.2641  -33.3637   26.1926 H   0  0  0  0  0  0
  -28.3947  -32.6751   25.0365 H   0  0  0  0  0  0
  -28.0621  -31.8489   26.5505 H   0  0  0  0  0  0
  -28.2573  -38.0048   24.7516 H   0  0  0  0  0  0
  -28.1052  -36.2580   24.6291 H   0  0  0  0  0  0
  -27.2296  -37.1394   25.8888 H   0  0  0  0  0  0
  -20.9634  -29.8733   21.6695 H   0  0  0  0  0  0
  -26.0103  -38.2760   24.1432 H   0  0  0  0  0  0
  -30.8845  -19.7474   17.3114 H   0  0  0  0  0  0
  -30.7722  -17.5979   18.3486 H   0  0  0  0  0  0
  -29.5805  -22.8556   21.1883 H   0  0  0  0  0  0
  -27.9544  -22.3789   21.4055 H   0  0  0  0  0  0
  -30.4645  -21.9320   17.0084 H   0  0  0  0  0  0
  -30.8164  -22.7986   18.4677 H   0  0  0  0  0  0
  -29.6737  -24.7409   18.4261 H   0  0  0  0  0  0
  -28.0440  -24.8819   17.8509 H   0  0  0  0  0  0
  -27.0917  -23.9831   19.7665 H   0  0  0  0  0  0
  -28.6773  -20.2096   22.6498 H   0  0  0  0  0  0
  -28.5391  -18.4629   22.4660 H   0  0  0  0  0  0
  -27.2836  -19.5175   21.8148 H   0  0  0  0  0  0
  -28.7454  -16.3838   20.9934 H   0  0  0  0  0  0
  -28.0100  -22.3455   17.9239 H   0  0  0  0  0  0
  -28.7936  -23.1246   16.7423 H   0  0  0  0  0  0
  1 25  1  0  0  0
  1 30  2  0  0  0
  1 82  1  0  0  0
  2  3  1  0  0  0
  2 25  1  0  0  0
  2 84  1  0  0  0
  2 85  1  0  0  0
  3  4  1  0  0  0
  3 86  1  0  0  0
  3 87  1  0  0  0
  4  5  1  0  0  0
  4 88  1  0  0  0
  4 89  1  0  0  0
  5  6  1  0  0  0
  5 26  1  0  0  0
  5 90  1  0  0  0
  6 25  1  0  0  0
  6 91  1  0  0  0
  6 92  1  0  0  0
  7  8  2  0  0  0
  7 26  1  0  0  0
  7 29  1  0  0  0
  8  9  1  0  0  0
  8 22  1  0  0  0
  9 10  1  0  0  0
  9 27  2  0  0  0
 10 11  2  0  0  0
 10 15  1  0  0  0
 11 12  1  0  0  0
 11 93  1  0  0  0
 12 13  2  0  0  0
 12 94  1  0  0  0
 13 14  1  0  0  0
 13 31  1  0  0  0
 14 15  2  0  0  0
 14 95  1  0  0  0
 15 96  1  0  0  0
 16 17  2  0  0  0
 16 21  1  0  0  0
 16 31  1  0  0  0
 17 18  1  0  0  0
 17 97  1  0  0  0
 18 19  2  0  0  0
 18 98  1  0  0  0
 19 20  1  0  0  0
 19 24  1  0  0  0
 20 21  2  0  0  0
 20 99  1  0  0  0
 21 23  1  0  0  0
 22 28  1  0  0  0
 22 32  2  0  0  0
 26 27  1  0  0  0
 28100  1  0  0  0
 28101  1  0  0  0
 29102  1  0  0  0
 29103  1  0  0  0
 33 34  1  0  0  0
 33 66  1  0  0  0
 33 70  2  0  0  0
 34 36  1  0  0  0
 34 59  1  0  0  0
 34104  1  0  0  0
 35 44  2  0  0  0
 35 45  1  0  0  0
 35 68  1  0  0  0
 36 56  1  0  0  0
 36105  1  0  0  0
 37 39  1  0  0  0
 37 47  1  0  0  0
 37 66  1  0  0  0
 37106  1  0  0  0
 38 43  2  0  0  0
 38 46  1  0  0  0
 38 47  1  0  0  0
 39 64  1  0  0  0
 39 67  2  0  0  0
 40 52  1  0  0  0
 40 53  2  0  0  0
 40 58  1  0  0  0
 41107  1  0  0  0
 41108  1  0  0  0
 41109  1  0  0  0
 41 48  1  0  0  0
 42 43  1  0  0  0
 42 66  1  0  0  0
 42110  1  0  0  0
 42111  1  0  0  0
 43 44  1  0  0  0
 44112  1  0  0  0
 45 46  2  0  0  0
 45113  1  0  0  0
 46114  1  0  0  0
 47115  1  0  0  0
 47116  1  0  0  0
 48 56  1  0  0  0
 48 65  1  0  0  0
 48117  1  0  0  0
 49 50  1  0  0  0
 49 53  1  0  0  0
 49 64  1  0  0  0
 49118  1  0  0  0
 50 51  1  0  0  0
 50119  1  0  0  0
 50120  1  0  0  0
 51 52  1  0  0  0
 51121  1  0  0  0
 51122  1  0  0  0
 52123  1  0  0  0
 52124  1  0  0  0
 53 54  1  0  0  0
 54 55  2  0  0  0
 54125  1  0  0  0
 55 57  1  0  0  0
 55126  1  0  0  0
 56 69  2  0  0  0
 57 58  2  0  0  0
 57127  1  0  0  0
 58128  1  0  0  0
 59 60  1  0  0  0
 59 61  1  0  0  0
 59 62  1  0  0  0
 60129  1  0  0  0
 60130  1  0  0  0
 60131  1  0  0  0
 61132  1  0  0  0
 61133  1  0  0  0
 61134  1  0  0  0
 62135  1  0  0  0
 62136  1  0  0  0
 62137  1  0  0  0
 63 65  1  0  0  0
 63138  1  0  0  0
 63139  1  0  0  0
 63140  1  0  0  0
 64141  1  0  0  0
 65142  1  0  0  0
 68 80  1  0  0  0
 71 72  2  0  0  0
 71 73  1  0  0  0
 71143  1  0  0  0
 72 76  1  0  0  0
 72144  1  0  0  0
 73 74  2  0  0  0
 73 78  1  0  0  0
 74 75  1  0  0  0
 74 77  1  0  0  0
 75 76  2  0  0  0
 75 81  1  0  0  0
 76 82  1  0  0  0
 77 80  1  0  0  0
 77145  1  0  0  0
 77146  1  0  0  0
 78 83  1  0  0  0
 78147  1  0  0  0
 78148  1  0  0  0
 79 80  1  0  0  0
 79 83  1  0  0  0
 79149  1  0  0  0
 79150  1  0  0  0
 80151  1  0  0  0
 81152  1  0  0  0
 81153  1  0  0  0
 81154  1  0  0  0
 82155  1  0  0  0
 83156  1  0  0  0
 83157  1  0  0  0
M  CHG  1  83   1
M  ISO  4   1 100  68 101  80 101  82 100
M  END
> <chiral flag>
0

> <version>
0

> <s_m_source_file>
/data/baiqing/PycharmProjects/Reinvent-master-3.2/result/LINK_invent/BTK/process_docking_weight1_custom_product_contain_oxygen_bond_distance_aromatic_linkinvent_7_9_3/rearranged_h_0035.sdf

> <i_m_source_file_index>
57

> <r_mmod_Potential_Energy-OPLS-2005>
1244.88671875

> <r_mmod_Stretch_Energy-OPLS-2005>
659.498962402344

> <r_mmod_Bend_Energy-OPLS-2005>
444.141510009766

> <r_mmod_Torsional_Energy-OPLS-2005>
245.404220581055

> <r_mmod_Improper_Torsional_Energy-OPLS-2005>
3.40295839309692

> <r_mmod_Van_der_Waal_Energy-OPLS-2005>
126.140747070312

> <r_mmod_Electrostatic_Energy-OPLS-2005>
-292.725708007812

> <r_mmod_Solvation_Energy-OPLS-2005>
-467.167785644531

> <b_mmod_Minimization_Converged-OPLS-2005>
0

> <r_mmod_RMS_Derivative-OPLS-2005>
2.80283355712891

$$$$
58
                    3D
 Structure written by MMmdl.
166175  0  0  1  0            999 V2000
  -30.6254  -14.7079   20.4678 C   0  0  0  0  0  0
  -30.4347  -12.4299   19.4809 C   0  0  0  0  0  0
  -29.5133  -12.5167   18.2433 C   0  0  0  0  0  0
  -28.0381  -12.3450   18.6524 C   0  0  0  0  0  0
  -27.6514  -13.2299   19.8672 C   0  0  2  0  0  0
  -28.6965  -13.1367   21.0045 C   0  0  0  0  0  0
  -25.2547  -13.8200   20.5725 C   0  0  0  0  0  0
  -24.1822  -13.0445   20.9194 C   0  0  0  0  0  0
  -24.6411  -11.6925   20.8745 C   0  0  0  0  0  0
  -23.9082  -10.4300   21.0401 C   0  0  0  0  0  0
  -24.3625   -9.4210   21.9180 C   0  0  0  0  0  0
  -23.6295   -8.2251   22.0751 C   0  0  0  0  0  0
  -22.4278   -8.0289   21.3546 C   0  0  0  0  0  0
  -21.9921   -9.0261   20.4646 C   0  0  0  0  0  0
  -22.7253  -10.2138   20.3054 C   0  0  0  0  0  0
  -21.6858   -6.0738   22.5279 C   0  0  0  0  0  0
  -21.4018   -6.5641   23.8207 C   0  0  0  0  0  0
  -21.3658   -5.6797   24.9171 C   0  0  0  0  0  0
  -21.6047   -4.3057   24.7224 C   0  0  0  0  0  0
  -21.8818   -3.8147   23.4341 C   0  0  0  0  0  0
  -21.9194   -4.6969   22.3402 C   0  0  0  0  0  0
  -22.7848  -13.5237   21.1855 C   0  0  0  0  0  0
  -22.1663   -4.2154   21.0978 F   0  0  0  0  0  0
  -21.5629   -3.4540   25.7729 F   0  0  0  0  0  0
  -30.0096  -13.4775   20.4379 N   0  0  0  0  0  0
  -26.2991  -12.9410   20.3361 N   0  0  0  0  0  0
  -25.9346  -11.6547   20.5779 N   0  0  0  0  0  0
  -22.0496  -12.8212   22.0407 N   0  0  0  0  0  0
  -25.4249  -15.1919   20.4164 N   0  0  0  0  0  0
  -31.7778  -14.8378   20.0475 O   0  0  0  0  0  0
  -21.6648   -6.8880   21.4240 O   0  0  0  0  0  0
  -22.3533  -14.5550   20.6716 O   0  0  0  0  0  0
  -24.6315  -31.8566   23.2069 C   0  0  0  0  0  0
  -25.9150  -32.4764   23.8382 C   0  0  1  0  0  0
  -27.1850  -27.2419   20.1258 C   0  0  0  0  0  0
  -25.5960  -33.8568   24.2289 N   0  0  0  0  0  0
  -23.4288  -30.4871   21.5491 C   0  0  2  0  0  0
  -24.8751  -28.9540   20.1037 C   0  0  0  0  0  0
  -22.7515  -29.4603   22.4899 C   0  0  0  0  0  0
  -18.0298  -28.1401   22.8463 C   0  0  0  0  0  0
  -24.1486  -36.7276   23.2633 C   0  0  0  0  0  0
  -25.9801  -30.7561   21.4055 C   0  0  0  0  0  0
  -26.0438  -29.3790   20.7503 C   0  0  0  0  0  0
  -27.1960  -28.5231   20.7798 C   0  0  0  0  0  0
  -26.0546  -26.9922   19.3231 C   0  0  0  0  0  0
  -24.8853  -27.7624   19.3785 C   0  0  0  0  0  0
  -23.6482  -29.8390   20.1596 C   0  0  0  0  0  0
  -25.4113  -36.3070   24.0323 C   0  0  1  0  0  0
  -20.5901  -28.3697   23.1258 C   0  0  2  0  0  0
  -20.6777  -26.9419   22.5401 C   0  0  0  0  0  0
  -19.5748  -26.6378   21.5220 C   0  0  0  0  0  0
  -18.1925  -26.7940   22.1619 C   0  0  0  0  0  0
  -19.1555  -28.8866   23.2855 C   0  0  0  0  0  0
  -18.9475  -30.1455   23.8882 C   0  0  0  0  0  0
  -17.6473  -30.6587   24.0559 C   0  0  0  0  0  0
  -25.9051  -34.9436   23.5101 C   0  0  0  0  0  0
  -16.5363  -29.9080   23.6343 C   0  0  0  0  0  0
  -16.7281  -28.6509   23.0349 C   0  0  0  0  0  0
  -26.4521  -31.6588   25.0768 C   0  0  0  0  0  0
  -25.3731  -31.3756   26.1476 C   0  0  0  0  0  0
  -27.0373  -30.2997   24.6283 C   0  0  0  0  0  0
  -27.6073  -32.4337   25.7538 C   0  0  0  0  0  0
  -27.5574  -37.1786   24.8466 C   0  0  0  0  0  0
  -21.4220  -29.3043   22.3641 N   0  0  0  0  0  0
  -26.4275  -37.3777   23.9420 N   0  0  0  0  0  0
  -24.6988  -31.0519   22.1082 N   0  0  0  0  0  0
  -23.4214  -28.8106   23.2962 O   0  0  0  0  0  0
  -28.2053  -26.2541   20.1889 O   0  0  0  0  0  0
  -26.5610  -34.8897   22.4661 O   0  0  0  0  0  0
  -23.5452  -32.1397   23.7337 O   0  0  0  0  0  0
  -31.2161  -18.8108   21.2290 C   0  0  0  0  0  0
  -30.7374  -21.2199   21.4105 C   0  0  0  0  0  0
  -30.0010  -18.5688   20.5620 C   0  0  0  0  0  0
  -29.1409  -19.7271   20.3350 C   0  0  0  0  0  0
  -29.4671  -21.0741   20.8120 C   0  0  0  0  0  0
  -31.5876  -20.1135   21.6235 C   0  0  0  0  0  0
  -27.2338  -22.0428   21.2373 C   0  0  0  0  0  0
  -26.8168  -21.2964   22.2850 C   0  0  0  0  0  0
  -26.2111  -22.7831   20.4015 C   0  0  0  0  0  0
  -26.6693  -24.1395   19.8486 C   0  0  0  0  0  0
  -29.0101  -23.6468   20.5503 C   0  0  0  0  0  0
  -27.8687  -24.8059   20.5810 C   0  0  1  0  0  0
  -27.8686  -19.5149   19.5237 C   0  0  0  0  0  0
  -27.6594  -20.4983   23.2624 C   0  0  0  0  0  0
  -29.7677  -17.1127   19.9649 C   0  0  0  0  0  0
  -28.5565  -22.2124   20.8248 N   0  0  0  0  0  0
  -29.8528  -15.8141   20.7504 N   0  0  0  0  0  0
  -33.1138  -20.3611   22.3910 Cl  0  0  0  0  0  0
  -31.4781  -12.5414   19.1831 H   0  0  0  0  0  0
  -30.3645  -11.4452   19.9455 H   0  0  0  0  0  0
  -29.7894  -11.7561   17.5119 H   0  0  0  0  0  0
  -29.6473  -13.4802   17.7492 H   0  0  0  0  0  0
  -27.8840  -11.2937   18.8963 H   0  0  0  0  0  0
  -27.3834  -12.5594   17.8061 H   0  0  0  0  0  0
  -27.6558  -14.2580   19.5037 H   0  0  0  0  0  0
  -28.7183  -12.1330   21.4310 H   0  0  0  0  0  0
  -28.4355  -13.8074   21.8253 H   0  0  0  0  0  0
  -25.2763   -9.5695   22.4755 H   0  0  0  0  0  0
  -24.0009   -7.4648   22.7472 H   0  0  0  0  0  0
  -21.0851   -8.8777   19.8949 H   0  0  0  0  0  0
  -22.3702  -10.9679   19.6165 H   0  0  0  0  0  0
  -21.2009   -7.6148   23.9713 H   0  0  0  0  0  0
  -21.1486   -6.0523   25.9072 H   0  0  0  0  0  0
  -22.0597   -2.7610   23.2839 H   0  0  0  0  0  0
  -22.4114  -11.9852   22.4763 H   0  0  0  0  0  0
  -21.1117  -13.1230   22.2639 H   0  0  0  0  0  0
  -24.6584  -15.8451   20.5319 H   0  0  0  0  0  0
  -26.2757  -15.6354   20.0967 H   0  0  0  0  0  0
  -26.7189  -32.5408   23.1090 H   0  0  0  0  0  0
  -25.0199  -33.9738   25.0494 H   0  0  0  0  0  0
  -22.7266  -31.3120   21.4088 H   0  0  0  0  0  0
  -23.3747  -35.9610   23.3306 H   0  0  0  0  0  0
  -24.3580  -36.8897   22.2047 H   0  0  0  0  0  0
  -23.7240  -37.6480   23.6645 H   0  0  0  0  0  0
  -26.1318  -31.5114   20.6334 H   0  0  0  0  0  0
  -26.8553  -30.7997   22.0409 H   0  0  0  0  0  0
  -28.0700  -28.8197   21.3431 H   0  0  0  0  0  0
  -26.0521  -26.1833   18.6131 H   0  0  0  0  0  0
  -24.0215  -27.4686   18.7995 H   0  0  0  0  0  0
  -23.7783  -30.6236   19.4140 H   0  0  0  0  0  0
  -22.7648  -29.2783   19.8481 H   0  0  0  0  0  0
  -25.1288  -36.1916   25.0813 H   0  0  0  0  0  0
  -20.9992  -28.3264   24.1382 H   0  0  0  0  0  0
  -20.5710  -26.2301   23.3605 H   0  0  0  0  0  0
  -21.6635  -26.7446   22.1178 H   0  0  0  0  0  0
  -19.6919  -25.6295   21.1232 H   0  0  0  0  0  0
  -19.6693  -27.3193   20.6759 H   0  0  0  0  0  0
  -17.4207  -26.6700   21.4010 H   0  0  0  0  0  0
  -18.0291  -26.0111   22.9035 H   0  0  0  0  0  0
  -19.7956  -30.7257   24.2253 H   0  0  0  0  0  0
  -17.5039  -31.6279   24.5146 H   0  0  0  0  0  0
  -15.5360  -30.2976   23.7676 H   0  0  0  0  0  0
  -15.8689  -28.0812   22.7072 H   0  0  0  0  0  0
  -24.5943  -30.7066   25.7811 H   0  0  0  0  0  0
  -24.8875  -32.2919   26.4831 H   0  0  0  0  0  0
  -25.8028  -30.8996   27.0299 H   0  0  0  0  0  0
  -26.2975  -29.6750   24.1260 H   0  0  0  0  0  0
  -27.4000  -29.7266   25.4828 H   0  0  0  0  0  0
  -27.8880  -30.4285   23.9592 H   0  0  0  0  0  0
  -27.2709  -33.3670   26.2059 H   0  0  0  0  0  0
  -28.3908  -32.6843   25.0376 H   0  0  0  0  0  0
  -28.0704  -31.8499   26.5500 H   0  0  0  0  0  0
  -28.2564  -38.0108   24.7543 H   0  0  0  0  0  0
  -28.1096  -36.2635   24.6245 H   0  0  0  0  0  0
  -27.2295  -37.1400   25.8870 H   0  0  0  0  0  0
  -20.9393  -29.8831   21.6913 H   0  0  0  0  0  0
  -26.0146  -38.2843   24.1458 H   0  0  0  0  0  0
  -31.9040  -17.9926   21.3910 H   0  0  0  0  0  0
  -31.0566  -22.1819   21.7785 H   0  0  0  0  0  0
  -25.7523  -21.2162   22.4611 H   0  0  0  0  0  0
  -25.3332  -22.9561   21.0283 H   0  0  0  0  0  0
  -25.8625  -22.1404   19.5914 H   0  0  0  0  0  0
  -25.7527  -24.7076   19.9545 H   0  0  0  0  0  0
  -26.8996  -24.0479   18.7865 H   0  0  0  0  0  0
  -29.7848  -23.9191   21.2661 H   0  0  0  0  0  0
  -29.4892  -23.6555   19.5719 H   0  0  0  0  0  0
  -27.5625  -24.8934   21.6237 H   0  0  0  0  0  0
  -28.0659  -18.9263   18.6290 H   0  0  0  0  0  0
  -27.4565  -20.4517   19.1564 H   0  0  0  0  0  0
  -27.1076  -19.0127   20.1226 H   0  0  0  0  0  0
  -28.6722  -20.8884   23.3493 H   0  0  0  0  0  0
  -27.7104  -19.4543   22.9492 H   0  0  0  0  0  0
  -27.2094  -20.5343   24.2545 H   0  0  0  0  0  0
  -30.4466  -17.0306   19.1142 H   0  0  0  0  0  0
  -28.7755  -17.0750   19.5201 H   0  0  0  0  0  0
  -28.9880  -15.5821   21.2149 H   0  0  0  0  0  0
  1 25  1  0  0  0
  1 30  2  0  0  0
  1 87  1  0  0  0
  2  3  1  0  0  0
  2 25  1  0  0  0
  2 89  1  0  0  0
  2 90  1  0  0  0
  3  4  1  0  0  0
  3 91  1  0  0  0
  3 92  1  0  0  0
  4  5  1  0  0  0
  4 93  1  0  0  0
  4 94  1  0  0  0
  5  6  1  0  0  0
  5 26  1  0  0  0
  5 95  1  0  0  0
  6 25  1  0  0  0
  6 96  1  0  0  0
  6 97  1  0  0  0
  7  8  2  0  0  0
  7 26  1  0  0  0
  7 29  1  0  0  0
  8  9  1  0  0  0
  8 22  1  0  0  0
  9 10  1  0  0  0
  9 27  2  0  0  0
 10 11  2  0  0  0
 10 15  1  0  0  0
 11 12  1  0  0  0
 11 98  1  0  0  0
 12 13  2  0  0  0
 12 99  1  0  0  0
 13 14  1  0  0  0
 13 31  1  0  0  0
 14 15  2  0  0  0
 14100  1  0  0  0
 15101  1  0  0  0
 16 17  2  0  0  0
 16 21  1  0  0  0
 16 31  1  0  0  0
 17 18  1  0  0  0
 17102  1  0  0  0
 18 19  2  0  0  0
 18103  1  0  0  0
 19 20  1  0  0  0
 19 24  1  0  0  0
 20 21  2  0  0  0
 20104  1  0  0  0
 21 23  1  0  0  0
 22 28  1  0  0  0
 22 32  2  0  0  0
 26 27  1  0  0  0
 28105  1  0  0  0
 28106  1  0  0  0
 29107  1  0  0  0
 29108  1  0  0  0
 33 34  1  0  0  0
 33 66  1  0  0  0
 33 70  2  0  0  0
 34 36  1  0  0  0
 34 59  1  0  0  0
 34109  1  0  0  0
 35 44  2  0  0  0
 35 45  1  0  0  0
 35 68  1  0  0  0
 36 56  1  0  0  0
 36110  1  0  0  0
 37 39  1  0  0  0
 37 47  1  0  0  0
 37 66  1  0  0  0
 37111  1  0  0  0
 38 43  2  0  0  0
 38 46  1  0  0  0
 38 47  1  0  0  0
 39 64  1  0  0  0
 39 67  2  0  0  0
 40 52  1  0  0  0
 40 53  2  0  0  0
 40 58  1  0  0  0
 41112  1  0  0  0
 41113  1  0  0  0
 41114  1  0  0  0
 41 48  1  0  0  0
 42 43  1  0  0  0
 42 66  1  0  0  0
 42115  1  0  0  0
 42116  1  0  0  0
 43 44  1  0  0  0
 44117  1  0  0  0
 45 46  2  0  0  0
 45118  1  0  0  0
 46119  1  0  0  0
 47120  1  0  0  0
 47121  1  0  0  0
 48 56  1  0  0  0
 48 65  1  0  0  0
 48122  1  0  0  0
 49 50  1  0  0  0
 49 53  1  0  0  0
 49 64  1  0  0  0
 49123  1  0  0  0
 50 51  1  0  0  0
 50124  1  0  0  0
 50125  1  0  0  0
 51 52  1  0  0  0
 51126  1  0  0  0
 51127  1  0  0  0
 52128  1  0  0  0
 52129  1  0  0  0
 53 54  1  0  0  0
 54 55  2  0  0  0
 54130  1  0  0  0
 55 57  1  0  0  0
 55131  1  0  0  0
 56 69  2  0  0  0
 57 58  2  0  0  0
 57132  1  0  0  0
 58133  1  0  0  0
 59 60  1  0  0  0
 59 61  1  0  0  0
 59 62  1  0  0  0
 60134  1  0  0  0
 60135  1  0  0  0
 60136  1  0  0  0
 61137  1  0  0  0
 61138  1  0  0  0
 61139  1  0  0  0
 62140  1  0  0  0
 62141  1  0  0  0
 62142  1  0  0  0
 63 65  1  0  0  0
 63143  1  0  0  0
 63144  1  0  0  0
 63145  1  0  0  0
 64146  1  0  0  0
 65147  1  0  0  0
 68 82  1  0  0  0
 71 73  2  0  0  0
 71 76  1  0  0  0
 71148  1  0  0  0
 72 75  1  0  0  0
 72 76  2  0  0  0
 72149  1  0  0  0
 73 74  1  0  0  0
 73 85  1  0  0  0
 74 75  2  0  0  0
 74 83  1  0  0  0
 75 86  1  0  0  0
 76 88  1  0  0  0
 77 78  2  0  0  0
 77 79  1  0  0  0
 77 86  1  0  0  0
 78 84  1  0  0  0
 78150  1  0  0  0
 79 80  1  0  0  0
 79151  1  0  0  0
 79152  1  0  0  0
 80 82  1  0  0  0
 80153  1  0  0  0
 80154  1  0  0  0
 81 82  1  0  0  0
 81 86  1  0  0  0
 81155  1  0  0  0
 81156  1  0  0  0
 82157  1  0  0  0
 83158  1  0  0  0
 83159  1  0  0  0
 83160  1  0  0  0
 84161  1  0  0  0
 84162  1  0  0  0
 84163  1  0  0  0
 85 87  1  0  0  0
 85164  1  0  0  0
 85165  1  0  0  0
 87166  1  0  0  0
M  ISO  4   1 100  68 101  82 101  87 100
M  END
> <chiral flag>
0

> <version>
0

> <s_m_source_file>
/data/baiqing/PycharmProjects/Reinvent-master-3.2/result/LINK_invent/BTK/process_docking_weight1_custom_product_contain_oxygen_bond_distance_aromatic_linkinvent_7_9_3/rearranged_h_0035.sdf

> <i_m_source_file_index>
58

> <r_mmod_Potential_Energy-OPLS-2005>
234.949508666992

> <r_mmod_Stretch_Energy-OPLS-2005>
133.667556762695

> <r_mmod_Bend_Energy-OPLS-2005>
188.660385131836

> <r_mmod_Torsional_Energy-OPLS-2005>
300.156066894531

> <r_mmod_Improper_Torsional_Energy-OPLS-2005>
9.00354385375977

> <r_mmod_Van_der_Waal_Energy-OPLS-2005>
167.45686340332

> <r_mmod_Electrostatic_Energy-OPLS-2005>
-453.583068847656

> <r_mmod_Solvation_Energy-OPLS-2005>
-208.006439208984

> <b_mmod_Minimization_Converged-OPLS-2005>
0

> <r_mmod_RMS_Derivative-OPLS-2005>
2.17131090164185

$$$$
59
                    3D
 Structure written by MMmdl.
177186  0  0  1  0            999 V2000
  -30.2413  -15.2259   20.0536 C   0  0  0  0  0  0
  -30.3952  -12.7583   19.3852 C   0  0  0  0  0  0
  -29.4676  -12.3549   18.2188 C   0  0  0  0  0  0
  -28.0341  -12.1310   18.7206 C   0  0  0  0  0  0
  -27.5741  -13.1724   19.7657 C   0  0  2  0  0  0
  -28.6356  -13.3675   20.8588 C   0  0  0  0  0  0
  -25.2540  -13.8174   20.5786 C   0  0  0  0  0  0
  -24.1799  -13.0477   20.9360 C   0  0  0  0  0  0
  -24.6242  -11.6948   20.8931 C   0  0  0  0  0  0
  -23.8938  -10.4341   21.0539 C   0  0  0  0  0  0
  -24.3552   -9.4155   21.9169 C   0  0  0  0  0  0
  -23.6260   -8.2149   22.0741 C   0  0  0  0  0  0
  -22.4162   -8.0235   21.3579 C   0  0  0  0  0  0
  -21.9835   -9.0212   20.4591 C   0  0  0  0  0  0
  -22.7200  -10.2096   20.3064 C   0  0  0  0  0  0
  -21.6794   -6.0657   22.5289 C   0  0  0  0  0  0
  -21.3954   -6.5580   23.8210 C   0  0  0  0  0  0
  -21.3657   -5.6768   24.9191 C   0  0  0  0  0  0
  -21.6058   -4.3033   24.7266 C   0  0  0  0  0  0
  -21.8813   -3.8087   23.4398 C   0  0  0  0  0  0
  -21.9191   -4.6892   22.3433 C   0  0  0  0  0  0
  -22.7955  -13.5365   21.2056 C   0  0  0  0  0  0
  -22.1634   -4.2080   21.1014 F   0  0  0  0  0  0
  -21.5676   -3.4487   25.7777 F   0  0  0  0  0  0
  -29.7638  -13.8987   20.1052 N   0  0  0  0  0  0
  -26.2734  -12.9081   20.3142 N   0  0  0  0  0  0
  -25.9091  -11.6369   20.5796 N   0  0  0  0  0  0
  -22.0515  -12.8318   22.0497 N   0  0  0  0  0  0
  -25.4572  -15.1937   20.4326 N   0  0  0  0  0  0
  -31.4941  -15.2861   20.1327 O   0  0  0  0  0  0
  -21.6585   -6.8762   21.4253 O   0  0  0  0  0  0
  -22.3761  -14.5768   20.6975 O   0  0  0  0  0  0
  -24.5995  -31.8641   23.1956 C   0  0  0  0  0  0
  -25.8827  -32.4593   23.7784 C   0  0  1  0  0  0
  -27.3212  -27.3513   19.9361 C   0  0  0  0  0  0
  -25.6099  -33.8319   24.1826 N   0  0  0  0  0  0
  -23.4535  -30.4317   21.5360 C   0  0  2  0  0  0
  -24.9066  -28.9369   20.1410 C   0  0  0  0  0  0
  -22.8067  -29.3505   22.4454 C   0  0  0  0  0  0
  -18.0078  -28.1198   22.8579 C   0  0  0  0  0  0
  -24.1510  -36.7272   23.2628 C   0  0  0  0  0  0
  -25.9369  -30.8855   21.2751 C   0  0  0  0  0  0
  -26.0810  -29.4582   20.6090 C   0  0  0  0  0  0
  -27.3078  -28.7073   20.4325 C   0  0  0  0  0  0
  -26.0627  -26.8581   19.5959 C   0  0  0  0  0  0
  -24.8668  -27.6199   19.6857 C   0  0  0  0  0  0
  -23.6976  -29.8492   20.1523 C   0  0  0  0  0  0
  -25.4124  -36.2842   24.0148 C   0  0  1  0  0  0
  -20.5981  -28.3550   23.1917 C   0  0  2  0  0  0
  -20.6730  -26.9224   22.5577 C   0  0  0  0  0  0
  -19.5616  -26.6245   21.5350 C   0  0  0  0  0  0
  -18.1759  -26.7766   22.1825 C   0  0  0  0  0  0
  -19.1298  -28.8460   23.3321 C   0  0  0  0  0  0
  -18.9298  -30.1102   23.9002 C   0  0  0  0  0  0
  -17.6411  -30.6469   24.0317 C   0  0  0  0  0  0
  -25.9022  -34.9285   23.4630 C   0  0  0  0  0  0
  -16.5299  -29.8995   23.6012 C   0  0  0  0  0  0
  -16.7146  -28.6416   23.0049 C   0  0  0  0  0  0
  -26.4235  -31.6197   25.0005 C   0  0  0  0  0  0
  -25.3551  -31.3516   26.0856 C   0  0  0  0  0  0
  -27.0366  -30.2554   24.5678 C   0  0  0  0  0  0
  -27.5847  -32.3924   25.6952 C   0  0  0  0  0  0
  -27.5629  -37.1695   24.8513 C   0  0  0  0  0  0
  -21.4492  -29.3067   22.4452 N   0  0  0  0  0  0
  -26.4502  -37.3419   23.9191 N   0  0  0  0  0  0
  -24.6715  -31.1119   22.1113 N   0  0  0  0  0  0
  -23.4300  -28.6723   23.2538 O   0  0  0  0  0  0
  -28.4348  -26.4365   19.9658 O   0  0  0  0  0  0
  -26.5303  -34.8919   22.4023 O   0  0  0  0  0  0
  -23.5264  -32.1241   23.7621 O   0  0  0  0  0  0
  -26.9610  -20.0601   19.5131 C   0  0  0  0  0  0
  -28.1924  -19.6964   17.5720 C   0  0  0  0  0  0
  -26.0418  -20.9871   18.7562 C   0  0  0  0  0  0
  -27.9370  -19.1213   18.9103 C   0  0  0  0  0  0
  -27.5409  -20.9003   17.0830 C   0  0  0  0  0  0
  -26.1673  -20.8380   17.3751 C   0  0  0  0  0  0
  -28.2901  -25.0645   16.3825 C   0  0  0  0  0  0
  -27.9901  -25.4907   15.1270 C   0  0  0  0  0  0
  -25.1663  -22.2068   19.1902 C   0  0  0  0  0  0
  -28.6931  -26.1379   17.4527 C   0  0  0  0  0  0
  -28.0573  -24.0629   18.4982 C   0  0  0  0  0  0
  -28.7356  -25.4684   18.8248 C   0  0  2  0  0  0
  -25.0047  -21.0218   16.3775 C   0  0  0  0  0  0
  -27.5895  -24.7847   13.8506 C   0  0  0  0  0  0
  -24.4902  -25.2881   16.8256 C   0  0  0  0  0  0
  -28.7270  -17.7643   19.7230 C   0  0  0  0  0  0
  -28.0394  -22.2909   16.3796 C   0  0  0  0  0  0
  -23.9225  -24.1717   17.7622 C   0  0  0  0  0  0
  -24.8880  -23.1077   18.1460 N   0  0  0  0  0  0
  -29.4952  -16.3199   19.3587 N   0  0  0  0  0  0
  -28.3609  -23.6763   17.0528 N   0  3  1  0  0  0
  -24.8587  -22.3892   20.3616 O   0  0  0  0  0  0
  -31.3829  -13.0020   18.9841 H   0  0  0  0  0  0
  -30.5140  -11.9129   20.0563 H   0  0  0  0  0  0
  -29.8127  -11.4474   17.7404 H   0  0  0  0  0  0
  -29.4261  -13.1276   17.4640 H   0  0  0  0  0  0
  -28.0740  -11.1592   19.2514 H   0  0  0  0  0  0
  -27.3022  -11.9867   17.9422 H   0  0  0  0  0  0
  -27.4521  -14.1115   19.2030 H   0  0  0  0  0  0
  -28.8752  -12.4430   21.3752 H   0  0  0  0  0  0
  -28.3291  -14.0366   21.6677 H   0  0  0  0  0  0
  -25.2657   -9.5616   22.4751 H   0  0  0  0  0  0
  -23.9928   -7.4557   22.7494 H   0  0  0  0  0  0
  -21.0686   -8.8723   19.8942 H   0  0  0  0  0  0
  -22.3618  -10.9631   19.6181 H   0  0  0  0  0  0
  -21.1853   -7.6062   23.9709 H   0  0  0  0  0  0
  -21.1506   -6.0459   25.9104 H   0  0  0  0  0  0
  -22.0603   -2.7545   23.2934 H   0  0  0  0  0  0
  -22.4081  -11.9933   22.4816 H   0  0  0  0  0  0
  -21.1078  -13.1425   22.2506 H   0  0  0  0  0  0
  -24.7168  -15.8551   20.5158 H   0  0  0  0  0  0
  -26.2975  -15.5847   20.0369 H   0  0  0  0  0  0
  -26.7357  -32.4721   23.1058 H   0  0  0  0  0  0
  -25.0436  -33.9369   25.0237 H   0  0  0  0  0  0
  -22.7035  -31.1759   21.3785 H   0  0  0  0  0  0
  -23.3740  -35.9655   23.3213 H   0  0  0  0  0  0
  -24.4147  -36.8984   22.2262 H   0  0  0  0  0  0
  -23.7545  -37.6499   23.6821 H   0  0  0  0  0  0
  -25.8715  -31.6885   20.5018 H   0  0  0  0  0  0
  -26.8808  -31.0312   21.7384 H   0  0  0  0  0  0
  -28.2281  -29.1758   20.7730 H   0  0  0  0  0  0
  -25.9653  -25.8450   19.2547 H   0  0  0  0  0  0
  -23.8930  -27.1655   19.4947 H   0  0  0  0  0  0
  -23.8884  -30.5723   19.3491 H   0  0  0  0  0  0
  -22.7971  -29.3596   19.7708 H   0  0  0  0  0  0
  -25.1435  -36.1653   25.0732 H   0  0  0  0  0  0
  -20.9782  -28.2578   24.2250 H   0  0  0  0  0  0
  -20.6030  -26.1795   23.3401 H   0  0  0  0  0  0
  -21.6364  -26.7200   22.0647 H   0  0  0  0  0  0
  -19.6731  -25.6283   21.0755 H   0  0  0  0  0  0
  -19.6272  -27.3506   20.7187 H   0  0  0  0  0  0
  -17.3964  -26.6413   21.4190 H   0  0  0  0  0  0
  -18.0176  -25.9849   22.9250 H   0  0  0  0  0  0
  -19.7606  -30.6878   24.2685 H   0  0  0  0  0  0
  -17.4622  -31.6008   24.5227 H   0  0  0  0  0  0
  -15.5139  -30.2788   23.7234 H   0  0  0  0  0  0
  -15.8509  -28.0488   22.7091 H   0  0  0  0  0  0
  -24.5579  -30.7243   25.7060 H   0  0  0  0  0  0
  -24.9113  -32.2887   26.4072 H   0  0  0  0  0  0
  -25.7809  -30.8635   26.9612 H   0  0  0  0  0  0
  -26.3275  -29.6126   24.0768 H   0  0  0  0  0  0
  -27.4105  -29.6914   25.4215 H   0  0  0  0  0  0
  -27.8729  -30.3737   23.8844 H   0  0  0  0  0  0
  -27.2374  -33.3211   26.1468 H   0  0  0  0  0  0
  -28.3754  -32.6580   24.9824 H   0  0  0  0  0  0
  -28.0468  -31.8031   26.5001 H   0  0  0  0  0  0
  -28.2292  -38.0190   24.7480 H   0  0  0  0  0  0
  -28.1331  -36.2773   24.6245 H   0  0  0  0  0  0
  -27.2461  -37.1306   25.8920 H   0  0  0  0  0  0
  -20.9833  -29.9882   21.8413 H   0  0  0  0  0  0
  -26.0200  -38.2304   24.1305 H   0  0  0  0  0  0
  -26.7789  -20.0046   20.5954 H   0  0  0  0  0  0
  -28.4945  -18.8989   16.8337 H   0  0  0  0  0  0
  -28.0060  -26.5331   14.9746 H   0  0  0  0  0  0
  -27.9634  -26.9427   17.4736 H   0  0  0  0  0  0
  -29.6620  -26.5860   17.1802 H   0  0  0  0  0  0
  -26.9585  -24.1749   18.6310 H   0  0  0  0  0  0
  -28.4539  -23.3227   19.2180 H   0  0  0  0  0  0
  -29.7933  -25.2596   19.0638 H   0  0  0  0  0  0
  -25.1019  -21.8610   15.6761 H   0  0  0  0  0  0
  -24.0543  -21.0626   16.9085 H   0  0  0  0  0  0
  -24.9065  -20.1688   15.6967 H   0  0  0  0  0  0
  -27.8943  -23.7586   13.7442 H   0  0  0  0  0  0
  -27.9623  -25.3646   13.0145 H   0  0  0  0  0  0
  -26.5336  -24.8613   13.6516 H   0  0  0  0  0  0
  -24.7651  -26.2088   17.2989 H   0  0  0  0  0  0
  -23.7677  -25.5414   16.0257 H   0  0  0  0  0  0
  -25.3921  -24.9996   16.3180 H   0  0  0  0  0  0
  -28.1625  -17.5695   20.6721 H   0  0  0  0  0  0
  -29.6269  -18.2819   20.1123 H   0  0  0  0  0  0
  -27.1940  -22.5823   15.7612 H   0  0  0  0  0  0
  -28.7703  -22.0664   15.6521 H   0  0  0  0  0  0
  -23.3367  -23.6168   17.0120 H   0  0  0  0  0  0
  -23.1478  -24.4823   18.4878 H   0  0  0  0  0  0
  -25.3270  -22.7661   17.3238 H   0  0  0  0  0  0
  -29.9452  -16.5467   18.4715 H   0  0  0  0  0  0
  -29.3526  -23.5299   17.0336 H   0  0  0  0  0  0
  1 25  1  0  0  0
  1 30  2  0  0  0
  1 90  1  0  0  0
  2  3  1  0  0  0
  2 25  1  0  0  0
  2 93  1  0  0  0
  2 94  1  0  0  0
  3  4  1  0  0  0
  3 95  1  0  0  0
  3 96  1  0  0  0
  4  5  1  0  0  0
  4 97  1  0  0  0
  4 98  1  0  0  0
  5  6  1  0  0  0
  5 26  1  0  0  0
  5 99  1  0  0  0
  6 25  1  0  0  0
  6100  1  0  0  0
  6101  1  0  0  0
  7  8  2  0  0  0
  7 26  1  0  0  0
  7 29  1  0  0  0
  8  9  1  0  0  0
  8 22  1  0  0  0
  9 10  1  0  0  0
  9 27  2  0  0  0
 10 11  2  0  0  0
 10 15  1  0  0  0
 11 12  1  0  0  0
 11102  1  0  0  0
 12 13  2  0  0  0
 12103  1  0  0  0
 13 14  1  0  0  0
 13 31  1  0  0  0
 14 15  2  0  0  0
 14104  1  0  0  0
 15105  1  0  0  0
 16 17  2  0  0  0
 16 21  1  0  0  0
 16 31  1  0  0  0
 17 18  1  0  0  0
 17106  1  0  0  0
 18 19  2  0  0  0
 18107  1  0  0  0
 19 20  1  0  0  0
 19 24  1  0  0  0
 20 21  2  0  0  0
 20108  1  0  0  0
 21 23  1  0  0  0
 22 28  1  0  0  0
 22 32  2  0  0  0
 26 27  1  0  0  0
 28109  1  0  0  0
 28110  1  0  0  0
 29111  1  0  0  0
 29112  1  0  0  0
 33 34  1  0  0  0
 33 66  1  0  0  0
 33 70  2  0  0  0
 34 36  1  0  0  0
 34 59  1  0  0  0
 34113  1  0  0  0
 35 44  2  0  0  0
 35 45  1  0  0  0
 35 68  1  0  0  0
 36 56  1  0  0  0
 36114  1  0  0  0
 37 39  1  0  0  0
 37 47  1  0  0  0
 37 66  1  0  0  0
 37115  1  0  0  0
 38 43  2  0  0  0
 38 46  1  0  0  0
 38 47  1  0  0  0
 39 64  1  0  0  0
 39 67  2  0  0  0
 40 52  1  0  0  0
 40 53  2  0  0  0
 40 58  1  0  0  0
 41116  1  0  0  0
 41117  1  0  0  0
 41118  1  0  0  0
 41 48  1  0  0  0
 42 43  1  0  0  0
 42 66  1  0  0  0
 42119  1  0  0  0
 42120  1  0  0  0
 43 44  1  0  0  0
 44121  1  0  0  0
 45 46  2  0  0  0
 45122  1  0  0  0
 46123  1  0  0  0
 47124  1  0  0  0
 47125  1  0  0  0
 48 56  1  0  0  0
 48 65  1  0  0  0
 48126  1  0  0  0
 49 50  1  0  0  0
 49 53  1  0  0  0
 49 64  1  0  0  0
 49127  1  0  0  0
 50 51  1  0  0  0
 50128  1  0  0  0
 50129  1  0  0  0
 51 52  1  0  0  0
 51130  1  0  0  0
 51131  1  0  0  0
 52132  1  0  0  0
 52133  1  0  0  0
 53 54  1  0  0  0
 54 55  2  0  0  0
 54134  1  0  0  0
 55 57  1  0  0  0
 55135  1  0  0  0
 56 69  2  0  0  0
 57 58  2  0  0  0
 57136  1  0  0  0
 58137  1  0  0  0
 59 60  1  0  0  0
 59 61  1  0  0  0
 59 62  1  0  0  0
 60138  1  0  0  0
 60139  1  0  0  0
 60140  1  0  0  0
 61141  1  0  0  0
 61142  1  0  0  0
 61143  1  0  0  0
 62144  1  0  0  0
 62145  1  0  0  0
 62146  1  0  0  0
 63 65  1  0  0  0
 63147  1  0  0  0
 63148  1  0  0  0
 63149  1  0  0  0
 64150  1  0  0  0
 65151  1  0  0  0
 68 82  1  0  0  0
 71 73  2  0  0  0
 71 74  1  0  0  0
 71152  1  0  0  0
 72 74  2  0  0  0
 72 75  1  0  0  0
 72153  1  0  0  0
 73 76  1  0  0  0
 73 79  1  0  0  0
 74 86  1  0  0  0
 75 76  2  0  0  0
 75 87  1  0  0  0
 76 83  1  0  0  0
 77 78  2  0  0  0
 77 80  1  0  0  0
 77 91  1  0  0  0
 78 84  1  0  0  0
 78154  1  0  0  0
 79 89  1  0  0  0
 79 92  2  0  0  0
 80 82  1  0  0  0
 80155  1  0  0  0
 80156  1  0  0  0
 81 82  1  0  0  0
 81 91  1  0  0  0
 81157  1  0  0  0
 81158  1  0  0  0
 82159  1  0  0  0
 83160  1  0  0  0
 83161  1  0  0  0
 83162  1  0  0  0
 84163  1  0  0  0
 84164  1  0  0  0
 84165  1  0  0  0
 85 88  1  0  0  0
 85166  1  0  0  0
 85167  1  0  0  0
 85168  1  0  0  0
 86 90  1  0  0  0
 86169  1  0  0  0
 86170  1  0  0  0
 87171  1  0  0  0
 87172  1  0  0  0
 87 91  1  0  0  0
 88 89  1  0  0  0
 88173  1  0  0  0
 88174  1  0  0  0
 89175  1  0  0  0
 90176  1  0  0  0
 91177  1  0  0  0
M  CHG  1  91   1
M  ISO  4   1 100  68 101  82 101  90 100
M  END
> <chiral flag>
0

> <version>
0

> <s_m_source_file>
/data/baiqing/PycharmProjects/Reinvent-master-3.2/result/LINK_invent/BTK/process_docking_weight1_custom_product_contain_oxygen_bond_distance_aromatic_linkinvent_7_9_3/rearranged_h_0035.sdf

> <i_m_source_file_index>
59

> <r_mmod_Potential_Energy-OPLS-2005>
1548.26403808594

> <r_mmod_Stretch_Energy-OPLS-2005>
473.05419921875

> <r_mmod_Bend_Energy-OPLS-2005>
679.560302734375

> <r_mmod_Torsional_Energy-OPLS-2005>
631.44970703125

> <r_mmod_Improper_Torsional_Energy-OPLS-2005>
39.7437171936035

> <r_mmod_Van_der_Waal_Energy-OPLS-2005>
147.415710449219

> <r_mmod_Electrostatic_Energy-OPLS-2005>
-323.237701416016

> <r_mmod_Solvation_Energy-OPLS-2005>
-466.938629150391

> <b_mmod_Minimization_Converged-OPLS-2005>
0

> <r_mmod_RMS_Derivative-OPLS-2005>
74.1347961425781

$$$$
60
                    3D
 Structure written by MMmdl.
164173  0  0  1  0            999 V2000
  -30.6794  -14.5587   20.4740 C   0  0  0  0  0  0
  -30.4106  -12.3336   19.4649 C   0  0  0  0  0  0
  -29.5032  -12.4892   18.2271 C   0  0  0  0  0  0
  -28.0204  -12.3565   18.6305 C   0  0  0  0  0  0
  -27.6462  -13.2247   19.8630 C   0  0  2  0  0  0
  -28.6898  -13.0953   20.9975 C   0  0  0  0  0  0
  -25.2555  -13.8180   20.5733 C   0  0  0  0  0  0
  -24.1841  -13.0408   20.9211 C   0  0  0  0  0  0
  -24.6375  -11.6880   20.8701 C   0  0  0  0  0  0
  -23.9034  -10.4289   21.0359 C   0  0  0  0  0  0
  -24.3598   -9.4244   21.9163 C   0  0  0  0  0  0
  -23.6305   -8.2258   22.0747 C   0  0  0  0  0  0
  -22.4297   -8.0261   21.3524 C   0  0  0  0  0  0
  -21.9888   -9.0227   20.4643 C   0  0  0  0  0  0
  -22.7175  -10.2117   20.3046 C   0  0  0  0  0  0
  -21.6880   -6.0742   22.5260 C   0  0  0  0  0  0
  -21.4041   -6.5654   23.8195 C   0  0  0  0  0  0
  -21.3664   -5.6806   24.9160 C   0  0  0  0  0  0
  -21.6042   -4.3068   24.7209 C   0  0  0  0  0  0
  -21.8836   -3.8147   23.4336 C   0  0  0  0  0  0
  -21.9210   -4.6969   22.3388 C   0  0  0  0  0  0
  -22.7887  -13.5251   21.1867 C   0  0  0  0  0  0
  -22.1684   -4.2148   21.0968 F   0  0  0  0  0  0
  -21.5614   -3.4542   25.7726 F   0  0  0  0  0  0
  -30.0051  -13.3778   20.4165 N   0  0  0  0  0  0
  -26.2973  -12.9358   20.3329 N   0  0  0  0  0  0
  -25.9310  -11.6500   20.5734 N   0  0  0  0  0  0
  -22.0514  -12.8202   22.0408 N   0  0  0  0  0  0
  -25.4186  -15.1879   20.4229 N   0  0  0  0  0  0
  -31.8639  -14.6383   20.1654 O   0  0  0  0  0  0
  -21.6671   -6.8834   21.4204 O   0  0  0  0  0  0
  -22.3556  -14.5570   20.6711 O   0  0  0  0  0  0
  -24.6286  -31.8660   23.2074 C   0  0  0  0  0  0
  -25.9154  -32.4785   23.8411 C   0  0  1  0  0  0
  -27.1932  -27.3565   20.0751 C   0  0  0  0  0  0
  -25.5969  -33.8605   24.2320 N   0  0  0  0  0  0
  -23.4133  -30.5049   21.5547 C   0  0  2  0  0  0
  -24.8420  -28.9655   20.1167 C   0  0  0  0  0  0
  -22.7463  -29.4783   22.5026 C   0  0  0  0  0  0
  -18.0373  -28.1413   22.8469 C   0  0  0  0  0  0
  -24.1511  -36.7326   23.2626 C   0  0  0  0  0  0
  -25.9560  -30.8143   21.3675 C   0  0  0  0  0  0
  -26.0201  -29.4486   20.6978 C   0  0  0  0  0  0
  -27.2021  -28.6580   20.6620 C   0  0  0  0  0  0
  -25.9719  -26.9044   19.5146 C   0  0  0  0  0  0
  -24.8137  -27.6963   19.5242 C   0  0  0  0  0  0
  -23.6166  -29.8475   20.1689 C   0  0  0  0  0  0
  -25.4128  -36.3120   24.0313 C   0  0  1  0  0  0
  -20.5931  -28.3892   23.1418 C   0  0  2  0  0  0
  -20.7020  -26.9653   22.5557 C   0  0  0  0  0  0
  -19.6092  -26.6665   21.5256 C   0  0  0  0  0  0
  -18.2167  -26.8034   22.1512 C   0  0  0  0  0  0
  -19.1557  -28.8954   23.2946 C   0  0  0  0  0  0
  -18.9376  -30.1511   23.9018 C   0  0  0  0  0  0
  -17.6284  -30.6496   24.0637 C   0  0  0  0  0  0
  -25.9058  -34.9457   23.5102 C   0  0  0  0  0  0
  -16.5254  -29.8941   23.6309 C   0  0  0  0  0  0
  -16.7326  -28.6443   23.0293 C   0  0  0  0  0  0
  -26.4532  -31.6590   25.0773 C   0  0  0  0  0  0
  -25.3734  -31.3719   26.1471 C   0  0  0  0  0  0
  -27.0329  -30.3002   24.6181 C   0  0  0  0  0  0
  -27.6099  -32.4283   25.7539 C   0  0  0  0  0  0
  -27.5595  -37.1811   24.8443 C   0  0  0  0  0  0
  -21.4176  -29.3282   22.3841 N   0  0  0  0  0  0
  -26.4324  -37.3786   23.9372 N   0  0  0  0  0  0
  -24.6849  -31.0767   22.0981 N   0  0  0  0  0  0
  -23.4221  -28.8255   23.3032 O   0  0  0  0  0  0
  -28.3381  -26.5537   20.0694 O   0  0  0  0  0  0
  -26.5625  -34.8895   22.4675 O   0  0  0  0  0  0
  -23.5460  -32.1455   23.7432 O   0  0  0  0  0  0
  -30.2727  -20.7496   21.7012 C   0  0  0  0  0  0
  -31.2014  -19.7331   21.9592 C   0  0  0  0  0  0
  -28.9931  -20.4548   21.1942 C   0  0  0  0  0  0
  -28.6604  -19.0755   20.9363 C   0  0  0  0  0  0
  -29.5746  -18.0151   21.2963 C   0  0  0  0  0  0
  -30.8566  -18.3853   21.7891 C   0  0  0  0  0  0
  -29.3968  -22.9945   19.3537 C   0  0  0  0  0  0
  -30.0480  -22.0346   18.6663 C   0  0  0  0  0  0
  -29.6100  -24.5145   19.2865 C   0  0  0  0  0  0
  -27.6601  -24.1141   20.5793 C   0  0  0  0  0  0
  -28.2524  -25.1615   19.6014 C   0  0  1  0  0  0
  -27.3164  -18.7394   20.2988 C   0  0  0  0  0  0
  -29.2063  -16.4972   21.2680 C   0  0  0  0  0  0
  -27.9996  -21.6608   21.1453 C   0  0  0  0  0  0
  -29.9364  -15.6759   20.2819 N   0  0  0  0  0  0
  -28.1252  -22.7627   20.1137 N   0  3  2  0  0  0
  -32.0373  -17.2135   22.2579 Cl  0  0  0  0  0  0
  -31.4637  -12.4028   19.1882 H   0  0  0  0  0  0
  -30.2860  -11.3491   19.9210 H   0  0  0  0  0  0
  -29.7526  -11.7385   17.4760 H   0  0  0  0  0  0
  -29.6748  -13.4614   17.7634 H   0  0  0  0  0  0
  -27.8365  -11.3045   18.8487 H   0  0  0  0  0  0
  -27.3755  -12.6109   17.7878 H   0  0  0  0  0  0
  -27.6573  -14.2599   19.5197 H   0  0  0  0  0  0
  -28.6807  -12.0952   21.4422 H   0  0  0  0  0  0
  -28.4721  -13.7854   21.8095 H   0  0  0  0  0  0
  -25.2709   -9.5787   22.4756 H   0  0  0  0  0  0
  -24.0028   -7.4701   22.7502 H   0  0  0  0  0  0
  -21.0807   -8.8738   19.8986 H   0  0  0  0  0  0
  -22.3585  -10.9666   19.6205 H   0  0  0  0  0  0
  -21.2055   -7.6159   23.9684 H   0  0  0  0  0  0
  -21.1465   -6.0541   25.9055 H   0  0  0  0  0  0
  -22.0605   -2.7599   23.2830 H   0  0  0  0  0  0
  -22.4159  -11.9898   22.4787 H   0  0  0  0  0  0
  -21.1142  -13.1251   22.2620 H   0  0  0  0  0  0
  -24.6362  -15.8215   20.5427 H   0  0  0  0  0  0
  -26.2552  -15.6354   20.0678 H   0  0  0  0  0  0
  -26.7223  -32.5448   23.1161 H   0  0  0  0  0  0
  -25.0090  -33.9777   25.0438 H   0  0  0  0  0  0
  -22.6995  -31.3207   21.4173 H   0  0  0  0  0  0
  -23.3762  -35.9679   23.3298 H   0  0  0  0  0  0
  -24.3596  -36.8941   22.2042 H   0  0  0  0  0  0
  -23.7284  -37.6521   23.6644 H   0  0  0  0  0  0
  -26.1023  -31.5933   20.6173 H   0  0  0  0  0  0
  -26.8315  -30.8360   22.0073 H   0  0  0  0  0  0
  -28.1154  -29.0366   21.1021 H   0  0  0  0  0  0
  -25.8590  -25.9319   19.0681 H   0  0  0  0  0  0
  -23.8956  -27.3148   19.0971 H   0  0  0  0  0  0
  -23.7276  -30.6263   19.4143 H   0  0  0  0  0  0
  -22.7353  -29.2812   19.8730 H   0  0  0  0  0  0
  -25.1316  -36.1989   25.0808 H   0  0  0  0  0  0
  -21.0003  -28.3618   24.1552 H   0  0  0  0  0  0
  -20.6045  -26.2481   23.3725 H   0  0  0  0  0  0
  -21.6982  -26.7909   22.1415 H   0  0  0  0  0  0
  -19.7373  -25.6651   21.1256 H   0  0  0  0  0  0
  -19.7148  -27.3538   20.6836 H   0  0  0  0  0  0
  -17.4551  -26.6816   21.3815 H   0  0  0  0  0  0
  -18.0551  -26.0088   22.8838 H   0  0  0  0  0  0
  -19.7763  -30.7395   24.2432 H   0  0  0  0  0  0
  -17.4641  -31.6147   24.5252 H   0  0  0  0  0  0
  -15.5166  -30.2707   23.7527 H   0  0  0  0  0  0
  -15.8788  -28.0732   22.6871 H   0  0  0  0  0  0
  -24.5978  -30.6978   25.7817 H   0  0  0  0  0  0
  -24.8858  -32.2875   26.4828 H   0  0  0  0  0  0
  -25.8074  -30.8985   27.0295 H   0  0  0  0  0  0
  -26.2925  -29.6805   24.1087 H   0  0  0  0  0  0
  -27.3902  -29.7195   25.4707 H   0  0  0  0  0  0
  -27.8872  -30.4290   23.9512 H   0  0  0  0  0  0
  -27.2760  -33.3619   26.2090 H   0  0  0  0  0  0
  -28.3946  -32.6761   25.0372 H   0  0  0  0  0  0
  -28.0715  -31.8387   26.5470 H   0  0  0  0  0  0
  -28.2598  -38.0121   24.7502 H   0  0  0  0  0  0
  -28.1108  -36.2639   24.6287 H   0  0  0  0  0  0
  -27.2278  -37.1477   25.8834 H   0  0  0  0  0  0
  -20.9292  -29.9169   21.7208 H   0  0  0  0  0  0
  -26.0213  -38.2866   24.1348 H   0  0  0  0  0  0
  -30.5381  -21.7715   21.9240 H   0  0  0  0  0  0
  -32.1763  -19.9864   22.3560 H   0  0  0  0  0  0
  -30.8947  -22.2513   18.0319 H   0  0  0  0  0  0
  -29.7316  -20.9992   18.7009 H   0  0  0  0  0  0
  -29.9663  -24.8106   18.3000 H   0  0  0  0  0  0
  -30.3607  -24.8002   20.0200 H   0  0  0  0  0  0
  -26.5725  -24.1682   20.6669 H   0  0  0  0  0  0
  -28.0705  -24.3295   21.5654 H   0  0  0  0  0  0
  -27.7124  -25.1282   18.6569 H   0  0  0  0  0  0
  -27.3821  -17.8538   19.6631 H   0  0  0  0  0  0
  -26.9738  -19.5428   19.6409 H   0  0  0  0  0  0
  -26.5527  -18.5630   21.0573 H   0  0  0  0  0  0
  -29.3855  -16.0963   22.2670 H   0  0  0  0  0  0
  -28.1432  -16.3441   21.1092 H   0  0  0  0  0  0
  -28.0915  -22.1211   22.1286 H   0  0  0  0  0  0
  -26.9691  -21.2949   21.1312 H   0  0  0  0  0  0
  -30.4085  -16.2906   19.6342 H   0  0  0  0  0  0
  -27.4445  -22.4860   19.4230 H   0  0  0  0  0  0
  1 25  1  0  0  0
  1 30  2  0  0  0
  1 85  1  0  0  0
  2  3  1  0  0  0
  2 25  1  0  0  0
  2 88  1  0  0  0
  2 89  1  0  0  0
  3  4  1  0  0  0
  3 90  1  0  0  0
  3 91  1  0  0  0
  4  5  1  0  0  0
  4 92  1  0  0  0
  4 93  1  0  0  0
  5  6  1  0  0  0
  5 26  1  0  0  0
  5 94  1  0  0  0
  6 25  1  0  0  0
  6 95  1  0  0  0
  6 96  1  0  0  0
  7  8  2  0  0  0
  7 26  1  0  0  0
  7 29  1  0  0  0
  8  9  1  0  0  0
  8 22  1  0  0  0
  9 10  1  0  0  0
  9 27  2  0  0  0
 10 11  2  0  0  0
 10 15  1  0  0  0
 11 12  1  0  0  0
 11 97  1  0  0  0
 12 13  2  0  0  0
 12 98  1  0  0  0
 13 14  1  0  0  0
 13 31  1  0  0  0
 14 15  2  0  0  0
 14 99  1  0  0  0
 15100  1  0  0  0
 16 17  2  0  0  0
 16 21  1  0  0  0
 16 31  1  0  0  0
 17 18  1  0  0  0
 17101  1  0  0  0
 18 19  2  0  0  0
 18102  1  0  0  0
 19 20  1  0  0  0
 19 24  1  0  0  0
 20 21  2  0  0  0
 20103  1  0  0  0
 21 23  1  0  0  0
 22 28  1  0  0  0
 22 32  2  0  0  0
 26 27  1  0  0  0
 28104  1  0  0  0
 28105  1  0  0  0
 29106  1  0  0  0
 29107  1  0  0  0
 33 34  1  0  0  0
 33 66  1  0  0  0
 33 70  2  0  0  0
 34 36  1  0  0  0
 34 59  1  0  0  0
 34108  1  0  0  0
 35 44  2  0  0  0
 35 45  1  0  0  0
 35 68  1  0  0  0
 36 56  1  0  0  0
 36109  1  0  0  0
 37 39  1  0  0  0
 37 47  1  0  0  0
 37 66  1  0  0  0
 37110  1  0  0  0
 38 43  2  0  0  0
 38 46  1  0  0  0
 38 47  1  0  0  0
 39 64  1  0  0  0
 39 67  2  0  0  0
 40 52  1  0  0  0
 40 53  2  0  0  0
 40 58  1  0  0  0
 41111  1  0  0  0
 41112  1  0  0  0
 41113  1  0  0  0
 41 48  1  0  0  0
 42 43  1  0  0  0
 42 66  1  0  0  0
 42114  1  0  0  0
 42115  1  0  0  0
 43 44  1  0  0  0
 44116  1  0  0  0
 45 46  2  0  0  0
 45117  1  0  0  0
 46118  1  0  0  0
 47119  1  0  0  0
 47120  1  0  0  0
 48 56  1  0  0  0
 48 65  1  0  0  0
 48121  1  0  0  0
 49 50  1  0  0  0
 49 53  1  0  0  0
 49 64  1  0  0  0
 49122  1  0  0  0
 50 51  1  0  0  0
 50123  1  0  0  0
 50124  1  0  0  0
 51 52  1  0  0  0
 51125  1  0  0  0
 51126  1  0  0  0
 52127  1  0  0  0
 52128  1  0  0  0
 53 54  1  0  0  0
 54 55  2  0  0  0
 54129  1  0  0  0
 55 57  1  0  0  0
 55130  1  0  0  0
 56 69  2  0  0  0
 57 58  2  0  0  0
 57131  1  0  0  0
 58132  1  0  0  0
 59 60  1  0  0  0
 59 61  1  0  0  0
 59 62  1  0  0  0
 60133  1  0  0  0
 60134  1  0  0  0
 60135  1  0  0  0
 61136  1  0  0  0
 61137  1  0  0  0
 61138  1  0  0  0
 62139  1  0  0  0
 62140  1  0  0  0
 62141  1  0  0  0
 63 65  1  0  0  0
 63142  1  0  0  0
 63143  1  0  0  0
 63144  1  0  0  0
 64145  1  0  0  0
 65146  1  0  0  0
 68 81  1  0  0  0
 71 72  2  0  0  0
 71 73  1  0  0  0
 71147  1  0  0  0
 72 76  1  0  0  0
 72148  1  0  0  0
 73 74  2  0  0  0
 73 84  1  0  0  0
 74 75  1  0  0  0
 74 82  1  0  0  0
 75 76  2  0  0  0
 75 83  1  0  0  0
 76 87  1  0  0  0
 77 78  2  0  0  0
 77 79  1  0  0  0
 77 86  1  0  0  0
 78149  1  0  0  0
 78150  1  0  0  0
 79 81  1  0  0  0
 79151  1  0  0  0
 79152  1  0  0  0
 80 81  1  0  0  0
 80 86  1  0  0  0
 80153  1  0  0  0
 80154  1  0  0  0
 81155  1  0  0  0
 82156  1  0  0  0
 82157  1  0  0  0
 82158  1  0  0  0
 83 85  1  0  0  0
 83159  1  0  0  0
 83160  1  0  0  0
 84161  1  0  0  0
 84162  1  0  0  0
 84 86  1  0  0  0
 85163  1  0  0  0
 86164  1  0  0  0
M  CHG  1  86   1
M  ISO  4   1 100  68 101  81 101  85 100
M  END
> <chiral flag>
0

> <version>
0

> <s_m_source_file>
/data/baiqing/PycharmProjects/Reinvent-master-3.2/result/LINK_invent/BTK/process_docking_weight1_custom_product_contain_oxygen_bond_distance_aromatic_linkinvent_7_9_3/rearranged_h_0035.sdf

> <i_m_source_file_index>
60

> <r_mmod_Potential_Energy-OPLS-2005>
19.2677707672119

> <r_mmod_Stretch_Energy-OPLS-2005>
63.4204864501953

> <r_mmod_Bend_Energy-OPLS-2005>
175.550598144531

> <r_mmod_Torsional_Energy-OPLS-2005>
284.690063476562

> <r_mmod_Improper_Torsional_Energy-OPLS-2005>
25.7063064575195

> <r_mmod_Van_der_Waal_Energy-OPLS-2005>
142.824005126953

> <r_mmod_Electrostatic_Energy-OPLS-2005>
-264.481475830078

> <r_mmod_Solvation_Energy-OPLS-2005>
-444.920318603516

> <b_mmod_Minimization_Converged-OPLS-2005>
0

> <r_mmod_RMS_Derivative-OPLS-2005>
7.32500457763672

$$$$
61
                    3D
 Structure written by MMmdl.
166175  0  0  1  0            999 V2000
  -30.5561  -14.7746   20.4456 C   0  0  0  0  0  0
  -30.4570  -12.4757   19.4377 C   0  0  0  0  0  0
  -29.5139  -12.5173   18.2152 C   0  0  0  0  0  0
  -28.0397  -12.3256   18.6354 C   0  0  0  0  0  0
  -27.6446  -13.2153   19.8417 C   0  0  2  0  0  0
  -28.7065  -13.0985   20.9524 C   0  0  0  0  0  0
  -25.2511  -13.8116   20.5579 C   0  0  0  0  0  0
  -24.1826  -13.0380   20.9197 C   0  0  0  0  0  0
  -24.6420  -11.6880   20.8744 C   0  0  0  0  0  0
  -23.9089  -10.4268   21.0393 C   0  0  0  0  0  0
  -24.3642   -9.4192   21.9182 C   0  0  0  0  0  0
  -23.6319   -8.2228   22.0753 C   0  0  0  0  0  0
  -22.4302   -8.0272   21.3547 C   0  0  0  0  0  0
  -21.9940   -9.0245   20.4651 C   0  0  0  0  0  0
  -22.7254  -10.2116   20.3033 C   0  0  0  0  0  0
  -21.6867   -6.0727   22.5285 C   0  0  0  0  0  0
  -21.4029   -6.5636   23.8215 C   0  0  0  0  0  0
  -21.3654   -5.6796   24.9182 C   0  0  0  0  0  0
  -21.6031   -4.3063   24.7234 C   0  0  0  0  0  0
  -21.8819   -3.8145   23.4366 C   0  0  0  0  0  0
  -21.9198   -4.6955   22.3423 C   0  0  0  0  0  0
  -22.7828  -13.5149   21.1884 C   0  0  0  0  0  0
  -22.1669   -4.2132   21.1007 F   0  0  0  0  0  0
  -21.5643   -3.4571   25.7769 F   0  0  0  0  0  0
  -29.9882  -13.5181   20.3723 N   0  0  0  0  0  0
  -26.2950  -12.9308   20.3229 N   0  0  0  0  0  0
  -25.9329  -11.6467   20.5723 N   0  0  0  0  0  0
  -22.0495  -12.8143   22.0465 N   0  0  0  0  0  0
  -25.4034  -15.1840   20.3823 N   0  0  0  0  0  0
  -31.7685  -14.9185   20.2588 O   0  0  0  0  0  0
  -21.6651   -6.8872   21.4242 O   0  0  0  0  0  0
  -22.3487  -14.5419   20.6694 O   0  0  0  0  0  0
  -24.6325  -31.8549   23.1992 C   0  0  0  0  0  0
  -25.9148  -32.4753   23.8339 C   0  0  1  0  0  0
  -27.2247  -27.2625   20.1085 C   0  0  0  0  0  0
  -25.5959  -33.8553   24.2271 N   0  0  0  0  0  0
  -23.4292  -30.4799   21.5440 C   0  0  2  0  0  0
  -24.8758  -28.9307   20.1139 C   0  0  0  0  0  0
  -22.7504  -29.4608   22.4907 C   0  0  0  0  0  0
  -18.0299  -28.1392   22.8485 C   0  0  0  0  0  0
  -24.1499  -36.7277   23.2639 C   0  0  0  0  0  0
  -25.9779  -30.7683   21.3804 C   0  0  0  0  0  0
  -26.0509  -29.3915   20.7208 C   0  0  0  0  0  0
  -27.2251  -28.5705   20.7086 C   0  0  0  0  0  0
  -26.0126  -26.8701   19.4880 C   0  0  0  0  0  0
  -24.8623  -27.6773   19.4913 C   0  0  0  0  0  0
  -23.6486  -29.8178   20.1590 C   0  0  0  0  0  0
  -25.4122  -36.3058   24.0322 C   0  0  1  0  0  0
  -20.5906  -28.3710   23.1263 C   0  0  2  0  0  0
  -20.6798  -26.9428   22.5405 C   0  0  0  0  0  0
  -19.5774  -26.6390   21.5213 C   0  0  0  0  0  0
  -18.1948  -26.7934   22.1623 C   0  0  0  0  0  0
  -19.1552  -28.8861   23.2872 C   0  0  0  0  0  0
  -18.9472  -30.1466   23.8888 C   0  0  0  0  0  0
  -17.6470  -30.6591   24.0563 C   0  0  0  0  0  0
  -25.9057  -34.9435   23.5086 C   0  0  0  0  0  0
  -16.5362  -29.9092   23.6334 C   0  0  0  0  0  0
  -16.7281  -28.6511   23.0344 C   0  0  0  0  0  0
  -26.4525  -31.6569   25.0723 C   0  0  0  0  0  0
  -25.3745  -31.3726   26.1438 C   0  0  0  0  0  0
  -27.0372  -30.2984   24.6219 C   0  0  0  0  0  0
  -27.6081  -32.4309   25.7500 C   0  0  0  0  0  0
  -27.5587  -37.1797   24.8469 C   0  0  0  0  0  0
  -21.4211  -29.3053   22.3646 N   0  0  0  0  0  0
  -26.4295  -37.3763   23.9410 N   0  0  0  0  0  0
  -24.6992  -31.0518   22.0969 N   0  0  0  0  0  0
  -23.4198  -28.8136   23.2996 O   0  0  0  0  0  0
  -28.3353  -26.3785   20.1494 O   0  0  0  0  0  0
  -26.5608  -34.8908   22.4650 O   0  0  0  0  0  0
  -23.5467  -32.1367   23.7281 O   0  0  0  0  0  0
  -28.3451  -18.5383   22.5965 C   0  0  0  0  0  0
  -29.8557  -18.4941   20.2663 C   0  0  0  0  0  0
  -28.6887  -19.7654   22.0076 C   0  0  0  0  0  0
  -28.7419  -17.2982   22.0633 C   0  0  0  0  0  0
  -29.4530  -19.7965   20.8138 C   0  0  0  0  0  0
  -29.5301  -17.2085   20.8877 C   0  0  0  0  0  0
  -27.9268  -23.3950   17.7728 C   0  0  0  0  0  0
  -28.2839  -24.8188   18.2353 C   0  0  0  0  0  0
  -28.8954  -22.3388   18.3430 C   0  0  0  0  0  0
  -29.1635  -23.7720   20.3626 C   0  0  0  0  0  0
  -28.1895  -24.9239   19.7687 C   0  0  1  0  0  0
  -28.2222  -21.0281   22.7222 C   0  0  0  0  0  0
  -28.2273  -16.0672   22.7766 C   0  0  0  0  0  0
  -29.9405  -21.2259   20.2908 C   0  0  0  0  0  0
  -29.6716  -15.8409   20.3057 N   0  0  0  0  0  0
  -28.9601  -22.3280   19.8315 N   0  3  2  0  0  0
  -31.4874  -12.6437   19.1242 H   0  0  0  0  0  0
  -30.4412  -11.4912   19.9071 H   0  0  0  0  0  0
  -29.8080  -11.7584   17.4896 H   0  0  0  0  0  0
  -29.6253  -13.4768   17.7070 H   0  0  0  0  0  0
  -27.9164  -11.2744   18.8996 H   0  0  0  0  0  0
  -27.3758  -12.5123   17.7908 H   0  0  0  0  0  0
  -27.6360  -14.2419   19.4761 H   0  0  0  0  0  0
  -28.7662  -12.0714   21.3150 H   0  0  0  0  0  0
  -28.4402  -13.6832   21.8226 H   0  0  0  0  0  0
  -25.2778   -9.5689   22.4782 H   0  0  0  0  0  0
  -24.0034   -7.4618   22.7494 H   0  0  0  0  0  0
  -21.0852   -8.8716   19.8981 H   0  0  0  0  0  0
  -22.3665  -10.9648   19.6168 H   0  0  0  0  0  0
  -21.2007   -7.6153   23.9711 H   0  0  0  0  0  0
  -21.1501   -6.0547   25.9081 H   0  0  0  0  0  0
  -22.0594   -2.7603   23.2867 H   0  0  0  0  0  0
  -22.4121  -11.9803   22.4861 H   0  0  0  0  0  0
  -21.1070  -13.1103   22.2562 H   0  0  0  0  0  0
  -24.6084  -15.8068   20.4601 H   0  0  0  0  0  0
  -26.2078  -15.6314   19.9640 H   0  0  0  0  0  0
  -26.7215  -32.5401   23.1084 H   0  0  0  0  0  0
  -25.0158  -33.9705   25.0448 H   0  0  0  0  0  0
  -22.7268  -31.3016   21.3966 H   0  0  0  0  0  0
  -23.3758  -35.9614   23.3285 H   0  0  0  0  0  0
  -24.3593  -36.8906   22.2057 H   0  0  0  0  0  0
  -23.7248  -37.6477   23.6662 H   0  0  0  0  0  0
  -26.1173  -31.5308   20.6122 H   0  0  0  0  0  0
  -26.8533  -30.8164   22.0147 H   0  0  0  0  0  0
  -28.1258  -28.9214   21.1948 H   0  0  0  0  0  0
  -25.8987  -25.9169   18.9965 H   0  0  0  0  0  0
  -23.9608  -27.3165   19.0140 H   0  0  0  0  0  0
  -23.7796  -30.5953   19.4051 H   0  0  0  0  0  0
  -22.7682  -29.2536   19.8474 H   0  0  0  0  0  0
  -25.1310  -36.1906   25.0812 H   0  0  0  0  0  0
  -21.0003  -28.3287   24.1379 H   0  0  0  0  0  0
  -20.5709  -26.2315   23.3606 H   0  0  0  0  0  0
  -21.6659  -26.7457   22.1178 H   0  0  0  0  0  0
  -19.6933  -25.6292   21.1256 H   0  0  0  0  0  0
  -19.6716  -27.3187   20.6727 H   0  0  0  0  0  0
  -17.4222  -26.6669   21.4029 H   0  0  0  0  0  0
  -18.0364  -26.0082   22.9021 H   0  0  0  0  0  0
  -19.7937  -30.7291   24.2256 H   0  0  0  0  0  0
  -17.5012  -31.6265   24.5170 H   0  0  0  0  0  0
  -15.5359  -30.2988   23.7654 H   0  0  0  0  0  0
  -15.8681  -28.0826   22.7065 H   0  0  0  0  0  0
  -24.5949  -30.7045   25.7777 H   0  0  0  0  0  0
  -24.8903  -32.2887   26.4824 H   0  0  0  0  0  0
  -25.8053  -30.8948   27.0239 H   0  0  0  0  0  0
  -26.2955  -29.6728   24.1248 H   0  0  0  0  0  0
  -27.4056  -29.7268   25.4745 H   0  0  0  0  0  0
  -27.8834  -30.4263   23.9465 H   0  0  0  0  0  0
  -27.2711  -33.3640   26.2035 H   0  0  0  0  0  0
  -28.3921  -32.6809   25.0337 H   0  0  0  0  0  0
  -28.0715  -31.8447   26.5453 H   0  0  0  0  0  0
  -28.2588  -38.0110   24.7504 H   0  0  0  0  0  0
  -28.1094  -36.2630   24.6299 H   0  0  0  0  0  0
  -27.2292  -37.1435   25.8869 H   0  0  0  0  0  0
  -20.9396  -29.8804   21.6878 H   0  0  0  0  0  0
  -26.0168  -38.2837   24.1405 H   0  0  0  0  0  0
  -27.7498  -18.5470   23.4994 H   0  0  0  0  0  0
  -30.4191  -18.4849   19.3450 H   0  0  0  0  0  0
  -27.9663  -23.3526   16.6843 H   0  0  0  0  0  0
  -26.8966  -23.1568   18.0438 H   0  0  0  0  0  0
  -27.6290  -25.5312   17.7373 H   0  0  0  0  0  0
  -29.2946  -25.0827   17.9156 H   0  0  0  0  0  0
  -29.8930  -22.5380   17.9460 H   0  0  0  0  0  0
  -28.6117  -21.3497   17.9811 H   0  0  0  0  0  0
  -29.0613  -23.7594   21.4464 H   0  0  0  0  0  0
  -30.1955  -24.0614   20.1658 H   0  0  0  0  0  0
  -27.1950  -24.6068   20.0829 H   0  0  0  0  0  0
  -27.7342  -20.7841   23.6679 H   0  0  0  0  0  0
  -27.4925  -21.5695   22.1235 H   0  0  0  0  0  0
  -29.0559  -21.6866   22.9614 H   0  0  0  0  0  0
  -29.0468  -15.3888   23.0168 H   0  0  0  0  0  0
  -27.4928  -15.5726   22.1427 H   0  0  0  0  0  0
  -27.7213  -16.3143   23.7097 H   0  0  0  0  0  0
  -30.6871  -21.0572   19.5143 H   0  0  0  0  0  0
  -30.5269  -21.6440   21.1102 H   0  0  0  0  0  0
  -28.7664  -15.4470   20.1121 H   0  0  0  0  0  0
  -28.0521  -22.0309   20.1554 H   0  0  0  0  0  0
  1 25  1  0  0  0
  1 30  2  0  0  0
  1 85  1  0  0  0
  2  3  1  0  0  0
  2 25  1  0  0  0
  2 87  1  0  0  0
  2 88  1  0  0  0
  3  4  1  0  0  0
  3 89  1  0  0  0
  3 90  1  0  0  0
  4  5  1  0  0  0
  4 91  1  0  0  0
  4 92  1  0  0  0
  5  6  1  0  0  0
  5 26  1  0  0  0
  5 93  1  0  0  0
  6 25  1  0  0  0
  6 94  1  0  0  0
  6 95  1  0  0  0
  7  8  2  0  0  0
  7 26  1  0  0  0
  7 29  1  0  0  0
  8  9  1  0  0  0
  8 22  1  0  0  0
  9 10  1  0  0  0
  9 27  2  0  0  0
 10 11  2  0  0  0
 10 15  1  0  0  0
 11 12  1  0  0  0
 11 96  1  0  0  0
 12 13  2  0  0  0
 12 97  1  0  0  0
 13 14  1  0  0  0
 13 31  1  0  0  0
 14 15  2  0  0  0
 14 98  1  0  0  0
 15 99  1  0  0  0
 16 17  2  0  0  0
 16 21  1  0  0  0
 16 31  1  0  0  0
 17 18  1  0  0  0
 17100  1  0  0  0
 18 19  2  0  0  0
 18101  1  0  0  0
 19 20  1  0  0  0
 19 24  1  0  0  0
 20 21  2  0  0  0
 20102  1  0  0  0
 21 23  1  0  0  0
 22 28  1  0  0  0
 22 32  2  0  0  0
 26 27  1  0  0  0
 28103  1  0  0  0
 28104  1  0  0  0
 29105  1  0  0  0
 29106  1  0  0  0
 33 34  1  0  0  0
 33 66  1  0  0  0
 33 70  2  0  0  0
 34 36  1  0  0  0
 34 59  1  0  0  0
 34107  1  0  0  0
 35 44  2  0  0  0
 35 45  1  0  0  0
 35 68  1  0  0  0
 36 56  1  0  0  0
 36108  1  0  0  0
 37 39  1  0  0  0
 37 47  1  0  0  0
 37 66  1  0  0  0
 37109  1  0  0  0
 38 43  2  0  0  0
 38 46  1  0  0  0
 38 47  1  0  0  0
 39 64  1  0  0  0
 39 67  2  0  0  0
 40 52  1  0  0  0
 40 53  2  0  0  0
 40 58  1  0  0  0
 41110  1  0  0  0
 41111  1  0  0  0
 41112  1  0  0  0
 41 48  1  0  0  0
 42 43  1  0  0  0
 42 66  1  0  0  0
 42113  1  0  0  0
 42114  1  0  0  0
 43 44  1  0  0  0
 44115  1  0  0  0
 45 46  2  0  0  0
 45116  1  0  0  0
 46117  1  0  0  0
 47118  1  0  0  0
 47119  1  0  0  0
 48 56  1  0  0  0
 48 65  1  0  0  0
 48120  1  0  0  0
 49 50  1  0  0  0
 49 53  1  0  0  0
 49 64  1  0  0  0
 49121  1  0  0  0
 50 51  1  0  0  0
 50122  1  0  0  0
 50123  1  0  0  0
 51 52  1  0  0  0
 51124  1  0  0  0
 51125  1  0  0  0
 52126  1  0  0  0
 52127  1  0  0  0
 53 54  1  0  0  0
 54 55  2  0  0  0
 54128  1  0  0  0
 55 57  1  0  0  0
 55129  1  0  0  0
 56 69  2  0  0  0
 57 58  2  0  0  0
 57130  1  0  0  0
 58131  1  0  0  0
 59 60  1  0  0  0
 59 61  1  0  0  0
 59 62  1  0  0  0
 60132  1  0  0  0
 60133  1  0  0  0
 60134  1  0  0  0
 61135  1  0  0  0
 61136  1  0  0  0
 61137  1  0  0  0
 62138  1  0  0  0
 62139  1  0  0  0
 62140  1  0  0  0
 63 65  1  0  0  0
 63141  1  0  0  0
 63142  1  0  0  0
 63143  1  0  0  0
 64144  1  0  0  0
 65145  1  0  0  0
 68 81  1  0  0  0
 71 73  2  0  0  0
 71 74  1  0  0  0
 71146  1  0  0  0
 72 75  2  0  0  0
 72 76  1  0  0  0
 72147  1  0  0  0
 73 75  1  0  0  0
 73 82  1  0  0  0
 74 76  2  0  0  0
 74 83  1  0  0  0
 75 84  1  0  0  0
 76 85  1  0  0  0
 77 78  1  0  0  0
 77 79  1  0  0  0
 77148  1  0  0  0
 77149  1  0  0  0
 78 81  1  0  0  0
 78150  1  0  0  0
 78151  1  0  0  0
 79 86  1  0  0  0
 79152  1  0  0  0
 79153  1  0  0  0
 80 81  1  0  0  0
 80 86  1  0  0  0
 80154  1  0  0  0
 80155  1  0  0  0
 81156  1  0  0  0
 82157  1  0  0  0
 82158  1  0  0  0
 82159  1  0  0  0
 83160  1  0  0  0
 83161  1  0  0  0
 83162  1  0  0  0
 84163  1  0  0  0
 84164  1  0  0  0
 84 86  1  0  0  0
 85165  1  0  0  0
 86166  1  0  0  0
M  CHG  1  86   1
M  ISO  4   1 100  68 101  81 101  85 100
M  END
> <chiral flag>
0

> <version>
0

> <s_m_source_file>
/data/baiqing/PycharmProjects/Reinvent-master-3.2/result/LINK_invent/BTK/process_docking_weight1_custom_product_contain_oxygen_bond_distance_aromatic_linkinvent_7_9_3/rearranged_h_0035.sdf

> <i_m_source_file_index>
61

> <r_mmod_Potential_Energy-OPLS-2005>
164.38166809082

> <r_mmod_Stretch_Energy-OPLS-2005>
135.39176940918

> <r_mmod_Bend_Energy-OPLS-2005>
192.719482421875

> <r_mmod_Torsional_Energy-OPLS-2005>
279.718353271484

> <r_mmod_Improper_Torsional_Energy-OPLS-2005>
17.603099822998

> <r_mmod_Van_der_Waal_Energy-OPLS-2005>
146.592529296875

> <r_mmod_Electrostatic_Energy-OPLS-2005>
-276.07373046875

> <r_mmod_Solvation_Energy-OPLS-2005>
-425.560516357422

> <b_mmod_Minimization_Converged-OPLS-2005>
0

> <r_mmod_RMS_Derivative-OPLS-2005>
3.99549102783203

$$$$
62
                    3D
 Structure written by MMmdl.
163172  0  0  1  0            999 V2000
  -30.6232  -14.6225   20.5313 C   0  0  0  0  0  0
  -30.4431  -12.3873   19.4488 C   0  0  0  0  0  0
  -29.5091  -12.5073   18.2225 C   0  0  0  0  0  0
  -28.0310  -12.3478   18.6335 C   0  0  0  0  0  0
  -27.6567  -13.2107   19.8680 C   0  0  2  0  0  0
  -28.7010  -13.0432   20.9950 C   0  0  0  0  0  0
  -25.2575  -13.8174   20.5669 C   0  0  0  0  0  0
  -24.1837  -13.0446   20.9188 C   0  0  0  0  0  0
  -24.6394  -11.6913   20.8742 C   0  0  0  0  0  0
  -23.9058  -10.4293   21.0403 C   0  0  0  0  0  0
  -24.3611   -9.4208   21.9184 C   0  0  0  0  0  0
  -23.6278   -8.2247   22.0747 C   0  0  0  0  0  0
  -22.4269   -8.0283   21.3537 C   0  0  0  0  0  0
  -21.9894   -9.0267   20.4642 C   0  0  0  0  0  0
  -22.7226  -10.2141   20.3056 C   0  0  0  0  0  0
  -21.6855   -6.0729   22.5276 C   0  0  0  0  0  0
  -21.4023   -6.5638   23.8210 C   0  0  0  0  0  0
  -21.3647   -5.6783   24.9167 C   0  0  0  0  0  0
  -21.6041   -4.3051   24.7223 C   0  0  0  0  0  0
  -21.8824   -3.8136   23.4346 C   0  0  0  0  0  0
  -21.9193   -4.6952   22.3400 C   0  0  0  0  0  0
  -22.7860  -13.5246   21.1856 C   0  0  0  0  0  0
  -22.1661   -4.2140   21.0976 F   0  0  0  0  0  0
  -21.5613   -3.4540   25.7736 F   0  0  0  0  0  0
  -30.0191  -13.3950   20.4400 N   0  0  0  0  0  0
  -26.2999  -12.9339   20.3321 N   0  0  0  0  0  0
  -25.9317  -11.6503   20.5760 N   0  0  0  0  0  0
  -22.0489  -12.8240   22.0413 N   0  0  0  0  0  0
  -25.4313  -15.1897   20.4064 N   0  0  0  0  0  0
  -31.7714  -14.8088   20.1172 O   0  0  0  0  0  0
  -21.6635   -6.8876   21.4238 O   0  0  0  0  0  0
  -22.3544  -14.5539   20.6684 O   0  0  0  0  0  0
  -24.6253  -31.8612   23.2044 C   0  0  0  0  0  0
  -25.9109  -32.4779   23.8366 C   0  0  1  0  0  0
  -27.2247  -27.3239   20.1159 C   0  0  0  0  0  0
  -25.5929  -33.8579   24.2293 N   0  0  0  0  0  0
  -23.4187  -30.4869   21.5461 C   0  0  2  0  0  0
  -24.8645  -28.9462   20.1115 C   0  0  0  0  0  0
  -22.7470  -29.4638   22.4930 C   0  0  0  0  0  0
  -18.0292  -28.1381   22.8486 C   0  0  0  0  0  0
  -24.1485  -36.7288   23.2634 C   0  0  0  0  0  0
  -25.9603  -30.7947   21.3750 C   0  0  0  0  0  0
  -26.0341  -29.4235   20.7160 C   0  0  0  0  0  0
  -27.2157  -28.6244   20.7092 C   0  0  0  0  0  0
  -26.0257  -26.9017   19.4914 C   0  0  0  0  0  0
  -24.8624  -27.6900   19.4915 C   0  0  0  0  0  0
  -23.6332  -29.8262   20.1602 C   0  0  0  0  0  0
  -25.4103  -36.3075   24.0334 C   0  0  1  0  0  0
  -20.5891  -28.3690   23.1269 C   0  0  2  0  0  0
  -20.6777  -26.9412   22.5397 C   0  0  0  0  0  0
  -19.5751  -26.6383   21.5200 C   0  0  0  0  0  0
  -18.1935  -26.7919   22.1624 C   0  0  0  0  0  0
  -19.1543  -28.8848   23.2874 C   0  0  0  0  0  0
  -18.9470  -30.1446   23.8899 C   0  0  0  0  0  0
  -17.6473  -30.6576   24.0568 C   0  0  0  0  0  0
  -25.9049  -34.9449   23.5107 C   0  0  0  0  0  0
  -16.5361  -29.9085   23.6323 C   0  0  0  0  0  0
  -16.7283  -28.6497   23.0351 C   0  0  0  0  0  0
  -26.4497  -31.6581   25.0726 C   0  0  0  0  0  0
  -25.3742  -31.3738   26.1464 C   0  0  0  0  0  0
  -27.0334  -30.3000   24.6175 C   0  0  0  0  0  0
  -27.6055  -32.4322   25.7487 C   0  0  0  0  0  0
  -27.5581  -37.1781   24.8455 C   0  0  0  0  0  0
  -21.4184  -29.3047   22.3661 N   0  0  0  0  0  0
  -26.4275  -37.3774   23.9425 N   0  0  0  0  0  0
  -24.6869  -31.0640   22.0983 N   0  0  0  0  0  0
  -23.4194  -28.8169   23.3003 O   0  0  0  0  0  0
  -28.3543  -26.4866   20.1748 O   0  0  0  0  0  0
  -26.5618  -34.8917   22.4677 O   0  0  0  0  0  0
  -23.5422  -32.1403   23.7378 O   0  0  0  0  0  0
  -30.9167  -19.3008   20.4807 C   0  0  0  0  0  0
  -30.9641  -17.8724   20.4615 C   0  0  0  0  0  0
  -28.7328  -17.8199   21.3533 C   0  0  0  0  0  0
  -29.7886  -20.0323   20.9542 C   0  0  0  0  0  0
  -28.6823  -19.2456   21.3848 C   0  0  0  0  0  0
  -29.8694  -17.0911   20.9131 C   0  0  0  0  0  0
  -28.0435  -23.2441   18.1577 C   0  0  0  0  0  0
  -28.3492  -24.7273   18.4368 C   0  0  0  0  0  0
  -28.9951  -22.2995   18.9221 C   0  0  0  0  0  0
  -29.1800  -24.0357   20.7035 C   0  0  0  0  0  0
  -28.2046  -25.0293   19.9405 C   0  0  1  0  0  0
  -27.4300  -19.9093   21.9311 C   0  0  0  0  0  0
  -29.8771  -21.5990   21.1509 C   0  0  0  0  0  0
  -29.8129  -15.6321   20.9732 N   0  0  0  0  0  0
  -28.9747  -22.5524   20.3860 N   0  3  2  0  0  0
  -31.4831  -12.5222   19.1457 H   0  0  0  0  0  0
  -30.3856  -11.3880   19.8832 H   0  0  0  0  0  0
  -29.7695  -11.7546   17.4765 H   0  0  0  0  0  0
  -29.6520  -13.4766   17.7423 H   0  0  0  0  0  0
  -27.8637  -11.2929   18.8559 H   0  0  0  0  0  0
  -27.3790  -12.5864   17.7926 H   0  0  0  0  0  0
  -27.6815  -14.2493   19.5387 H   0  0  0  0  0  0
  -28.7122  -12.0132   21.3550 H   0  0  0  0  0  0
  -28.4433  -13.6517   21.8628 H   0  0  0  0  0  0
  -25.2765   -9.5670   22.4754 H   0  0  0  0  0  0
  -23.9980   -7.4637   22.7472 H   0  0  0  0  0  0
  -21.0815   -8.8797   19.8961 H   0  0  0  0  0  0
  -22.3696  -10.9685   19.6157 H   0  0  0  0  0  0
  -21.2042   -7.6147   23.9711 H   0  0  0  0  0  0
  -21.1450   -6.0514   25.9065 H   0  0  0  0  0  0
  -22.0614   -2.7593   23.2858 H   0  0  0  0  0  0
  -22.4105  -11.9912   22.4817 H   0  0  0  0  0  0
  -21.1108  -13.1279   22.2614 H   0  0  0  0  0  0
  -24.6641  -15.8455   20.5077 H   0  0  0  0  0  0
  -26.2707  -15.6193   20.0397 H   0  0  0  0  0  0
  -26.7181  -32.5456   23.1122 H   0  0  0  0  0  0
  -25.0071  -33.9725   25.0433 H   0  0  0  0  0  0
  -22.7119  -31.3069   21.4048 H   0  0  0  0  0  0
  -23.3733  -35.9634   23.3303 H   0  0  0  0  0  0
  -24.3577  -36.8900   22.2047 H   0  0  0  0  0  0
  -23.7255  -37.6501   23.6649 H   0  0  0  0  0  0
  -26.0930  -31.5606   20.6092 H   0  0  0  0  0  0
  -26.8398  -30.8404   22.0059 H   0  0  0  0  0  0
  -28.1107  -28.9869   21.1957 H   0  0  0  0  0  0
  -25.9409  -25.9449   19.0020 H   0  0  0  0  0  0
  -23.9664  -27.3172   19.0139 H   0  0  0  0  0  0
  -23.7528  -30.6051   19.4062 H   0  0  0  0  0  0
  -22.7531  -29.2577   19.8543 H   0  0  0  0  0  0
  -25.1276  -36.1919   25.0824 H   0  0  0  0  0  0
  -20.9990  -28.3273   24.1388 H   0  0  0  0  0  0
  -20.5659  -26.2313   23.3602 H   0  0  0  0  0  0
  -21.6649  -26.7428   22.1201 H   0  0  0  0  0  0
  -19.6913  -25.6294   21.1223 H   0  0  0  0  0  0
  -19.6675  -27.3198   20.6734 H   0  0  0  0  0  0
  -17.4195  -26.6654   21.4039 H   0  0  0  0  0  0
  -18.0356  -26.0061   22.9023 H   0  0  0  0  0  0
  -19.7947  -30.7258   24.2272 H   0  0  0  0  0  0
  -17.5028  -31.6252   24.5183 H   0  0  0  0  0  0
  -15.5365  -30.2994   23.7634 H   0  0  0  0  0  0
  -15.8682  -28.0815   22.7075 H   0  0  0  0  0  0
  -24.5925  -30.7061   25.7824 H   0  0  0  0  0  0
  -24.8935  -32.2919   26.4863 H   0  0  0  0  0  0
  -25.8079  -30.8947   27.0250 H   0  0  0  0  0  0
  -26.2905  -29.6745   24.1206 H   0  0  0  0  0  0
  -27.4046  -29.7256   25.4672 H   0  0  0  0  0  0
  -27.8776  -30.4281   23.9394 H   0  0  0  0  0  0
  -27.2653  -33.3614   26.2072 H   0  0  0  0  0  0
  -28.3860  -32.6887   25.0311 H   0  0  0  0  0  0
  -28.0730  -31.8452   26.5400 H   0  0  0  0  0  0
  -28.2560  -38.0116   24.7553 H   0  0  0  0  0  0
  -28.1116  -36.2652   24.6196 H   0  0  0  0  0  0
  -27.2316  -37.1333   25.8861 H   0  0  0  0  0  0
  -20.9360  -29.8785   21.6882 H   0  0  0  0  0  0
  -26.0147  -38.2835   24.1471 H   0  0  0  0  0  0
  -31.8001  -19.8390   20.1671 H   0  0  0  0  0  0
  -31.8686  -17.3901   20.1196 H   0  0  0  0  0  0
  -27.8724  -17.2671   21.7056 H   0  0  0  0  0  0
  -28.1229  -23.0481   17.0881 H   0  0  0  0  0  0
  -27.0086  -23.0260   18.4280 H   0  0  0  0  0  0
  -27.6929  -25.3551   17.8373 H   0  0  0  0  0  0
  -29.3625  -24.9651   18.1111 H   0  0  0  0  0  0
  -30.0131  -22.4144   18.5484 H   0  0  0  0  0  0
  -28.7050  -21.2661   18.7262 H   0  0  0  0  0  0
  -29.0633  -24.1853   21.7773 H   0  0  0  0  0  0
  -30.2114  -24.3039   20.4700 H   0  0  0  0  0  0
  -27.2088  -24.7357   20.2743 H   0  0  0  0  0  0
  -26.6430  -19.1788   22.1246 H   0  0  0  0  0  0
  -27.0305  -20.6328   21.2212 H   0  0  0  0  0  0
  -27.6430  -20.4205   22.8704 H   0  0  0  0  0  0
  -30.9061  -21.8964   20.9446 H   0  0  0  0  0  0
  -29.7395  -21.7941   22.2155 H   0  0  0  0  0  0
  -28.9349  -15.2720   21.3145 H   0  0  0  0  0  0
  -28.0402  -22.3289   20.6928 H   0  0  0  0  0  0
  1 25  1  0  0  0
  1 30  2  0  0  0
  1 84  1  0  0  0
  2  3  1  0  0  0
  2 25  1  0  0  0
  2 86  1  0  0  0
  2 87  1  0  0  0
  3  4  1  0  0  0
  3 88  1  0  0  0
  3 89  1  0  0  0
  4  5  1  0  0  0
  4 90  1  0  0  0
  4 91  1  0  0  0
  5  6  1  0  0  0
  5 26  1  0  0  0
  5 92  1  0  0  0
  6 25  1  0  0  0
  6 93  1  0  0  0
  6 94  1  0  0  0
  7  8  2  0  0  0
  7 26  1  0  0  0
  7 29  1  0  0  0
  8  9  1  0  0  0
  8 22  1  0  0  0
  9 10  1  0  0  0
  9 27  2  0  0  0
 10 11  2  0  0  0
 10 15  1  0  0  0
 11 12  1  0  0  0
 11 95  1  0  0  0
 12 13  2  0  0  0
 12 96  1  0  0  0
 13 14  1  0  0  0
 13 31  1  0  0  0
 14 15  2  0  0  0
 14 97  1  0  0  0
 15 98  1  0  0  0
 16 17  2  0  0  0
 16 21  1  0  0  0
 16 31  1  0  0  0
 17 18  1  0  0  0
 17 99  1  0  0  0
 18 19  2  0  0  0
 18100  1  0  0  0
 19 20  1  0  0  0
 19 24  1  0  0  0
 20 21  2  0  0  0
 20101  1  0  0  0
 21 23  1  0  0  0
 22 28  1  0  0  0
 22 32  2  0  0  0
 26 27  1  0  0  0
 28102  1  0  0  0
 28103  1  0  0  0
 29104  1  0  0  0
 29105  1  0  0  0
 33 34  1  0  0  0
 33 66  1  0  0  0
 33 70  2  0  0  0
 34 36  1  0  0  0
 34 59  1  0  0  0
 34106  1  0  0  0
 35 44  2  0  0  0
 35 45  1  0  0  0
 35 68  1  0  0  0
 36 56  1  0  0  0
 36107  1  0  0  0
 37 39  1  0  0  0
 37 47  1  0  0  0
 37 66  1  0  0  0
 37108  1  0  0  0
 38 43  2  0  0  0
 38 46  1  0  0  0
 38 47  1  0  0  0
 39 64  1  0  0  0
 39 67  2  0  0  0
 40 52  1  0  0  0
 40 53  2  0  0  0
 40 58  1  0  0  0
 41109  1  0  0  0
 41110  1  0  0  0
 41111  1  0  0  0
 41 48  1  0  0  0
 42 43  1  0  0  0
 42 66  1  0  0  0
 42112  1  0  0  0
 42113  1  0  0  0
 43 44  1  0  0  0
 44114  1  0  0  0
 45 46  2  0  0  0
 45115  1  0  0  0
 46116  1  0  0  0
 47117  1  0  0  0
 47118  1  0  0  0
 48 56  1  0  0  0
 48 65  1  0  0  0
 48119  1  0  0  0
 49 50  1  0  0  0
 49 53  1  0  0  0
 49 64  1  0  0  0
 49120  1  0  0  0
 50 51  1  0  0  0
 50121  1  0  0  0
 50122  1  0  0  0
 51 52  1  0  0  0
 51123  1  0  0  0
 51124  1  0  0  0
 52125  1  0  0  0
 52126  1  0  0  0
 53 54  1  0  0  0
 54 55  2  0  0  0
 54127  1  0  0  0
 55 57  1  0  0  0
 55128  1  0  0  0
 56 69  2  0  0  0
 57 58  2  0  0  0
 57129  1  0  0  0
 58130  1  0  0  0
 59 60  1  0  0  0
 59 61  1  0  0  0
 59 62  1  0  0  0
 60131  1  0  0  0
 60132  1  0  0  0
 60133  1  0  0  0
 61134  1  0  0  0
 61135  1  0  0  0
 61136  1  0  0  0
 62137  1  0  0  0
 62138  1  0  0  0
 62139  1  0  0  0
 63 65  1  0  0  0
 63140  1  0  0  0
 63141  1  0  0  0
 63142  1  0  0  0
 64143  1  0  0  0
 65144  1  0  0  0
 68 81  1  0  0  0
 71 72  2  0  0  0
 71 74  1  0  0  0
 71145  1  0  0  0
 72 76  1  0  0  0
 72146  1  0  0  0
 73 75  1  0  0  0
 73 76  2  0  0  0
 73147  1  0  0  0
 74 75  2  0  0  0
 74 83  1  0  0  0
 75 82  1  0  0  0
 76 84  1  0  0  0
 77 78  1  0  0  0
 77 79  1  0  0  0
 77148  1  0  0  0
 77149  1  0  0  0
 78 81  1  0  0  0
 78150  1  0  0  0
 78151  1  0  0  0
 79 85  1  0  0  0
 79152  1  0  0  0
 79153  1  0  0  0
 80 81  1  0  0  0
 80 85  1  0  0  0
 80154  1  0  0  0
 80155  1  0  0  0
 81156  1  0  0  0
 82157  1  0  0  0
 82158  1  0  0  0
 82159  1  0  0  0
 83160  1  0  0  0
 83161  1  0  0  0
 83 85  1  0  0  0
 84162  1  0  0  0
 85163  1  0  0  0
M  CHG  1  85   1
M  ISO  4   1 100  68 101  81 101  84 100
M  END
> <chiral flag>
0

> <version>
0

> <s_m_source_file>
/data/baiqing/PycharmProjects/Reinvent-master-3.2/result/LINK_invent/BTK/process_docking_weight1_custom_product_contain_oxygen_bond_distance_aromatic_linkinvent_7_9_3/rearranged_h_0035.sdf

> <i_m_source_file_index>
62

> <r_mmod_Potential_Energy-OPLS-2005>
-21.8703289031982

> <r_mmod_Stretch_Energy-OPLS-2005>
80.0288467407227

> <r_mmod_Bend_Energy-OPLS-2005>
144.299545288086

> <r_mmod_Torsional_Energy-OPLS-2005>
226.798751831055

> <r_mmod_Improper_Torsional_Energy-OPLS-2005>
4.39119911193848

> <r_mmod_Van_der_Waal_Energy-OPLS-2005>
147.088241577148

> <r_mmod_Electrostatic_Energy-OPLS-2005>
-241.799285888672

> <r_mmod_Solvation_Energy-OPLS-2005>
-426.735809326172

> <b_mmod_Minimization_Converged-OPLS-2005>
0

> <r_mmod_RMS_Derivative-OPLS-2005>
1.62783217430115

$$$$
63
                    3D
 Structure written by MMmdl.
176185  0  0  1  0            999 V2000
  -30.7719  -14.4662   20.6075 C   0  0  0  0  0  0
  -30.4086  -12.3219   19.4350 C   0  0  0  0  0  0
  -29.4898  -12.5079   18.2138 C   0  0  0  0  0  0
  -28.0147  -12.3648   18.6281 C   0  0  0  0  0  0
  -27.6582  -13.2202   19.8729 C   0  0  2  0  0  0
  -28.7014  -13.0513   21.0015 C   0  0  0  0  0  0
  -25.2564  -13.8191   20.5704 C   0  0  0  0  0  0
  -24.1828  -13.0450   20.9182 C   0  0  0  0  0  0
  -24.6397  -11.6920   20.8729 C   0  0  0  0  0  0
  -23.9077  -10.4298   21.0391 C   0  0  0  0  0  0
  -24.3623   -9.4218   21.9178 C   0  0  0  0  0  0
  -23.6293   -8.2255   22.0757 C   0  0  0  0  0  0
  -22.4283   -8.0280   21.3544 C   0  0  0  0  0  0
  -21.9921   -9.0255   20.4650 C   0  0  0  0  0  0
  -22.7249  -10.2134   20.3047 C   0  0  0  0  0  0
  -21.6857   -6.0737   22.5276 C   0  0  0  0  0  0
  -21.4017   -6.5642   23.8208 C   0  0  0  0  0  0
  -21.3658   -5.6795   24.9170 C   0  0  0  0  0  0
  -21.6046   -4.3059   24.7224 C   0  0  0  0  0  0
  -21.8820   -3.8151   23.4346 C   0  0  0  0  0  0
  -21.9196   -4.6966   22.3401 C   0  0  0  0  0  0
  -22.7850  -13.5233   21.1843 C   0  0  0  0  0  0
  -22.1663   -4.2153   21.0977 F   0  0  0  0  0  0
  -21.5630   -3.4539   25.7736 F   0  0  0  0  0  0
  -30.0338  -13.3313   20.4439 N   0  0  0  0  0  0
  -26.3015  -12.9394   20.3380 N   0  0  0  0  0  0
  -25.9335  -11.6540   20.5790 N   0  0  0  0  0  0
  -22.0486  -12.8206   22.0380 N   0  0  0  0  0  0
  -25.4275  -15.1909   20.4141 N   0  0  0  0  0  0
  -31.8611  -14.6136   20.0495 O   0  0  0  0  0  0
  -21.6642   -6.8881   21.4241 O   0  0  0  0  0  0
  -22.3537  -14.5539   20.6694 O   0  0  0  0  0  0
  -24.6180  -31.8671   23.2107 C   0  0  0  0  0  0
  -25.9067  -32.4807   23.8397 C   0  0  1  0  0  0
  -27.2233  -27.4092   20.0979 C   0  0  0  0  0  0
  -25.5913  -33.8605   24.2303 N   0  0  0  0  0  0
  -23.4082  -30.4945   21.5507 C   0  0  2  0  0  0
  -24.8533  -28.9680   20.1076 C   0  0  0  0  0  0
  -22.7438  -29.4658   22.4956 C   0  0  0  0  0  0
  -18.0276  -28.1385   22.8475 C   0  0  0  0  0  0
  -24.1498  -36.7306   23.2646 C   0  0  0  0  0  0
  -25.9421  -30.8258   21.3706 C   0  0  0  0  0  0
  -26.0176  -29.4624   20.7103 C   0  0  0  0  0  0
  -27.2084  -28.6913   20.7023 C   0  0  0  0  0  0
  -26.0457  -26.9587   19.4558 C   0  0  0  0  0  0
  -24.8641  -27.7165   19.4759 C   0  0  0  0  0  0
  -23.6170  -29.8370   20.1625 C   0  0  0  0  0  0
  -25.4124  -36.3096   24.0330 C   0  0  1  0  0  0
  -20.5876  -28.3665   23.1303 C   0  0  2  0  0  0
  -20.6772  -26.9398   22.5419 C   0  0  0  0  0  0
  -19.5752  -26.6391   21.5213 C   0  0  0  0  0  0
  -18.1914  -26.7927   22.1615 C   0  0  0  0  0  0
  -19.1527  -28.8844   23.2880 C   0  0  0  0  0  0
  -18.9465  -30.1448   23.8891 C   0  0  0  0  0  0
  -17.6459  -30.6579   24.0575 C   0  0  0  0  0  0
  -25.9057  -34.9461   23.5118 C   0  0  0  0  0  0
  -16.5339  -29.9085   23.6348 C   0  0  0  0  0  0
  -16.7272  -28.6516   23.0341 C   0  0  0  0  0  0
  -26.4483  -31.6598   25.0738 C   0  0  0  0  0  0
  -25.3744  -31.3688   26.1478 C   0  0  0  0  0  0
  -27.0347  -30.3051   24.6134 C   0  0  0  0  0  0
  -27.6042  -32.4341   25.7495 C   0  0  0  0  0  0
  -27.5574  -37.1808   24.8459 C   0  0  0  0  0  0
  -21.4163  -29.3026   22.3687 N   0  0  0  0  0  0
  -26.4301  -37.3789   23.9390 N   0  0  0  0  0  0
  -24.6740  -31.0765   22.1011 N   0  0  0  0  0  0
  -23.4186  -28.8198   23.3011 O   0  0  0  0  0  0
  -28.3442  -26.5929   20.1630 O   0  0  0  0  0  0
  -26.5626  -34.8904   22.4685 O   0  0  0  0  0  0
  -23.5370  -32.1420   23.7494 O   0  0  0  0  0  0
  -29.7614  -20.0047   23.0382 C   0  0  0  0  0  0
  -29.9770  -18.6112   22.9799 C   0  0  0  0  0  0
  -30.0388  -20.8602   21.9480 C   0  0  0  0  0  0
  -30.5191  -20.2639   20.7461 C   0  0  0  0  0  0
  -30.7462  -18.8525   20.6788 C   0  0  0  0  0  0
  -30.5327  -18.0218   21.8178 C   0  0  0  0  0  0
  -27.7991  -23.7654   22.5132 C   0  0  0  0  0  0
  -27.0139  -23.1526   23.4325 C   0  0  0  0  0  0
  -27.7319  -25.2290   22.1169 C   0  0  0  0  0  0
  -29.1671  -24.1793   20.5734 C   0  0  0  0  0  0
  -28.0643  -25.2449   20.6335 C   0  0  2  0  0  0
  -29.6590  -17.7809   24.2146 C   0  0  0  0  0  0
  -30.8696  -21.1268   19.5360 C   0  0  0  0  0  0
  -31.2970  -18.2361   19.3942 C   0  0  0  0  0  0
  -26.9488  -21.6550   23.6570 C   0  0  0  0  0  0
  -26.0643  -23.9202   24.3394 C   0  0  0  0  0  0
  -31.0936  -16.5786   21.8792 C   0  0  0  0  0  0
  -29.9349  -22.3944   22.1749 C   0  0  0  0  0  0
  -30.2715  -15.4509   21.3844 N   0  0  0  0  0  0
  -28.7663  -23.1108   21.5527 N   0  3  1  0  0  0
  -31.4546  -12.3922   19.1325 H   0  0  0  0  0  0
  -30.2931  -11.3216   19.8545 H   0  0  0  0  0  0
  -29.7335  -11.7747   17.4432 H   0  0  0  0  0  0
  -29.6572  -13.4908   17.7688 H   0  0  0  0  0  0
  -27.8312  -11.3106   18.8370 H   0  0  0  0  0  0
  -27.3633  -12.6259   17.7934 H   0  0  0  0  0  0
  -27.6897  -14.2620   19.5519 H   0  0  0  0  0  0
  -28.6789  -12.0352   21.3971 H   0  0  0  0  0  0
  -28.4584  -13.7015   21.8431 H   0  0  0  0  0  0
  -25.2763   -9.5696   22.4757 H   0  0  0  0  0  0
  -24.0006   -7.4649   22.7472 H   0  0  0  0  0  0
  -21.0859   -8.8774   19.8937 H   0  0  0  0  0  0
  -22.3712  -10.9673   19.6153 H   0  0  0  0  0  0
  -21.2004   -7.6147   23.9716 H   0  0  0  0  0  0
  -21.1479   -6.0521   25.9076 H   0  0  0  0  0  0
  -22.0599   -2.7612   23.2844 H   0  0  0  0  0  0
  -22.4111  -11.9861   22.4751 H   0  0  0  0  0  0
  -21.1097  -13.1216   22.2567 H   0  0  0  0  0  0
  -24.6651  -15.8492   20.5326 H   0  0  0  0  0  0
  -26.2893  -15.6338   20.1197 H   0  0  0  0  0  0
  -26.7136  -32.5520   23.1149 H   0  0  0  0  0  0
  -25.0057  -33.9746   25.0447 H   0  0  0  0  0  0
  -22.6993  -31.3125   21.4138 H   0  0  0  0  0  0
  -23.3748  -35.9652   23.3334 H   0  0  0  0  0  0
  -24.3592  -36.8920   22.2059 H   0  0  0  0  0  0
  -23.7253  -37.6514   23.6660 H   0  0  0  0  0  0
  -26.0677  -31.5980   20.6097 H   0  0  0  0  0  0
  -26.8250  -30.8688   21.9972 H   0  0  0  0  0  0
  -28.1005  -29.0599   21.1866 H   0  0  0  0  0  0
  -26.0147  -26.0159   18.9289 H   0  0  0  0  0  0
  -23.9731  -27.3369   18.9935 H   0  0  0  0  0  0
  -23.7239  -30.6154   19.4058 H   0  0  0  0  0  0
  -22.7393  -29.2596   19.8668 H   0  0  0  0  0  0
  -25.1297  -36.1972   25.0823 H   0  0  0  0  0  0
  -20.9961  -28.3244   24.1434 H   0  0  0  0  0  0
  -20.5723  -26.2252   23.3600 H   0  0  0  0  0  0
  -21.6631  -26.7465   22.1179 H   0  0  0  0  0  0
  -19.6932  -25.6320   21.1209 H   0  0  0  0  0  0
  -19.6709  -27.3236   20.6769 H   0  0  0  0  0  0
  -17.4201  -26.6703   21.3990 H   0  0  0  0  0  0
  -18.0290  -26.0068   22.9015 H   0  0  0  0  0  0
  -19.7949  -30.7262   24.2242 H   0  0  0  0  0  0
  -17.5029  -31.6262   24.5177 H   0  0  0  0  0  0
  -15.5348  -30.2976   23.7692 H   0  0  0  0  0  0
  -15.8669  -28.0844   22.7021 H   0  0  0  0  0  0
  -24.5938  -30.7002   25.7808 H   0  0  0  0  0  0
  -24.8895  -32.2832   26.4917 H   0  0  0  0  0  0
  -25.8108  -30.8870   27.0245 H   0  0  0  0  0  0
  -26.2909  -29.6767   24.1214 H   0  0  0  0  0  0
  -27.4158  -29.7315   25.4598 H   0  0  0  0  0  0
  -27.8718  -30.4379   23.9272 H   0  0  0  0  0  0
  -27.2653  -33.3654   26.2053 H   0  0  0  0  0  0
  -28.3850  -32.6908   25.0317 H   0  0  0  0  0  0
  -28.0717  -31.8495   26.5432 H   0  0  0  0  0  0
  -28.2590  -38.0103   24.7514 H   0  0  0  0  0  0
  -28.1065  -36.2634   24.6291 H   0  0  0  0  0  0
  -27.2279  -37.1470   25.8858 H   0  0  0  0  0  0
  -20.9322  -29.8766   21.6924 H   0  0  0  0  0  0
  -26.0187  -38.2861   24.1409 H   0  0  0  0  0  0
  -29.4230  -20.4326   23.9715 H   0  0  0  0  0  0
  -28.4632  -25.7986   22.6898 H   0  0  0  0  0  0
  -26.7473  -25.6631   22.2835 H   0  0  0  0  0  0
  -30.1094  -24.6428   20.8660 H   0  0  0  0  0  0
  -29.2830  -23.7826   19.5641 H   0  0  0  0  0  0
  -27.2299  -24.8026   20.0916 H   0  0  0  0  0  0
  -28.9706  -18.3069   24.8768 H   0  0  0  0  0  0
  -30.5655  -17.5625   24.7805 H   0  0  0  0  0  0
  -29.1844  -16.8385   23.9390 H   0  0  0  0  0  0
  -30.9208  -22.1898   19.7483 H   0  0  0  0  0  0
  -30.1388  -20.9810   18.7406 H   0  0  0  0  0  0
  -31.8538  -20.8634   19.1472 H   0  0  0  0  0  0
  -30.9225  -18.7376   18.5029 H   0  0  0  0  0  0
  -31.0065  -17.1922   19.2871 H   0  0  0  0  0  0
  -32.3859  -18.2886   19.3836 H   0  0  0  0  0  0
  -27.3814  -21.0899   22.8352 H   0  0  0  0  0  0
  -25.9103  -21.3328   23.7373 H   0  0  0  0  0  0
  -27.4450  -21.3907   24.5914 H   0  0  0  0  0  0
  -26.2052  -24.9991   24.2993 H   0  0  0  0  0  0
  -26.2120  -23.6201   25.3778 H   0  0  0  0  0  0
  -25.0300  -23.7035   24.0702 H   0  0  0  0  0  0
  -31.3679  -16.3387   22.9058 H   0  0  0  0  0  0
  -32.0659  -16.6089   21.3860 H   0  0  0  0  0  0
  -30.8809  -22.8443   21.8746 H   0  0  0  0  0  0
  -29.9120  -22.5773   23.2502 H   0  0  0  0  0  0
  -29.3599  -15.3166   21.7938 H   0  0  0  0  0  0
  -28.2592  -22.4048   21.0378 H   0  0  0  0  0  0
  1 25  1  0  0  0
  1 30  2  0  0  0
  1 89  1  0  0  0
  2  3  1  0  0  0
  2 25  1  0  0  0
  2 91  1  0  0  0
  2 92  1  0  0  0
  3  4  1  0  0  0
  3 93  1  0  0  0
  3 94  1  0  0  0
  4  5  1  0  0  0
  4 95  1  0  0  0
  4 96  1  0  0  0
  5  6  1  0  0  0
  5 26  1  0  0  0
  5 97  1  0  0  0
  6 25  1  0  0  0
  6 98  1  0  0  0
  6 99  1  0  0  0
  7  8  2  0  0  0
  7 26  1  0  0  0
  7 29  1  0  0  0
  8  9  1  0  0  0
  8 22  1  0  0  0
  9 10  1  0  0  0
  9 27  2  0  0  0
 10 11  2  0  0  0
 10 15  1  0  0  0
 11 12  1  0  0  0
 11100  1  0  0  0
 12 13  2  0  0  0
 12101  1  0  0  0
 13 14  1  0  0  0
 13 31  1  0  0  0
 14 15  2  0  0  0
 14102  1  0  0  0
 15103  1  0  0  0
 16 17  2  0  0  0
 16 21  1  0  0  0
 16 31  1  0  0  0
 17 18  1  0  0  0
 17104  1  0  0  0
 18 19  2  0  0  0
 18105  1  0  0  0
 19 20  1  0  0  0
 19 24  1  0  0  0
 20 21  2  0  0  0
 20106  1  0  0  0
 21 23  1  0  0  0
 22 28  1  0  0  0
 22 32  2  0  0  0
 26 27  1  0  0  0
 28107  1  0  0  0
 28108  1  0  0  0
 29109  1  0  0  0
 29110  1  0  0  0
 33 34  1  0  0  0
 33 66  1  0  0  0
 33 70  2  0  0  0
 34 36  1  0  0  0
 34 59  1  0  0  0
 34111  1  0  0  0
 35 44  2  0  0  0
 35 45  1  0  0  0
 35 68  1  0  0  0
 36 56  1  0  0  0
 36112  1  0  0  0
 37 39  1  0  0  0
 37 47  1  0  0  0
 37 66  1  0  0  0
 37113  1  0  0  0
 38 43  2  0  0  0
 38 46  1  0  0  0
 38 47  1  0  0  0
 39 64  1  0  0  0
 39 67  2  0  0  0
 40 52  1  0  0  0
 40 53  2  0  0  0
 40 58  1  0  0  0
 41114  1  0  0  0
 41115  1  0  0  0
 41116  1  0  0  0
 41 48  1  0  0  0
 42 43  1  0  0  0
 42 66  1  0  0  0
 42117  1  0  0  0
 42118  1  0  0  0
 43 44  1  0  0  0
 44119  1  0  0  0
 45 46  2  0  0  0
 45120  1  0  0  0
 46121  1  0  0  0
 47122  1  0  0  0
 47123  1  0  0  0
 48 56  1  0  0  0
 48 65  1  0  0  0
 48124  1  0  0  0
 49 50  1  0  0  0
 49 53  1  0  0  0
 49 64  1  0  0  0
 49125  1  0  0  0
 50 51  1  0  0  0
 50126  1  0  0  0
 50127  1  0  0  0
 51 52  1  0  0  0
 51128  1  0  0  0
 51129  1  0  0  0
 52130  1  0  0  0
 52131  1  0  0  0
 53 54  1  0  0  0
 54 55  2  0  0  0
 54132  1  0  0  0
 55 57  1  0  0  0
 55133  1  0  0  0
 56 69  2  0  0  0
 57 58  2  0  0  0
 57134  1  0  0  0
 58135  1  0  0  0
 59 60  1  0  0  0
 59 61  1  0  0  0
 59 62  1  0  0  0
 60136  1  0  0  0
 60137  1  0  0  0
 60138  1  0  0  0
 61139  1  0  0  0
 61140  1  0  0  0
 61141  1  0  0  0
 62142  1  0  0  0
 62143  1  0  0  0
 62144  1  0  0  0
 63 65  1  0  0  0
 63145  1  0  0  0
 63146  1  0  0  0
 63147  1  0  0  0
 64148  1  0  0  0
 65149  1  0  0  0
 68 81  1  0  0  0
 71 72  2  0  0  0
 71 73  1  0  0  0
 71150  1  0  0  0
 72 76  1  0  0  0
 72 82  1  0  0  0
 73 74  2  0  0  0
 73 88  1  0  0  0
 74 75  1  0  0  0
 74 83  1  0  0  0
 75 76  2  0  0  0
 75 84  1  0  0  0
 76 87  1  0  0  0
 77 78  2  0  0  0
 77 79  1  0  0  0
 77 90  1  0  0  0
 78 85  1  0  0  0
 78 86  1  0  0  0
 79 81  1  0  0  0
 79151  1  0  0  0
 79152  1  0  0  0
 80 81  1  0  0  0
 80 90  1  0  0  0
 80153  1  0  0  0
 80154  1  0  0  0
 81155  1  0  0  0
 82156  1  0  0  0
 82157  1  0  0  0
 82158  1  0  0  0
 83159  1  0  0  0
 83160  1  0  0  0
 83161  1  0  0  0
 84162  1  0  0  0
 84163  1  0  0  0
 84164  1  0  0  0
 85165  1  0  0  0
 85166  1  0  0  0
 85167  1  0  0  0
 86168  1  0  0  0
 86169  1  0  0  0
 86170  1  0  0  0
 87 89  1  0  0  0
 87171  1  0  0  0
 87172  1  0  0  0
 88173  1  0  0  0
 88174  1  0  0  0
 88 90  1  0  0  0
 89175  1  0  0  0
 90176  1  0  0  0
M  CHG  1  90   1
M  ISO  4   1 100  68 101  81 101  89 100
M  END
> <chiral flag>
0

> <version>
0

> <s_m_source_file>
/data/baiqing/PycharmProjects/Reinvent-master-3.2/result/LINK_invent/BTK/process_docking_weight1_custom_product_contain_oxygen_bond_distance_aromatic_linkinvent_7_9_3/rearranged_h_0035.sdf

> <i_m_source_file_index>
63

> <r_mmod_Potential_Energy-OPLS-2005>
-151.613433837891

> <r_mmod_Stretch_Energy-OPLS-2005>
53.1727981567383

> <r_mmod_Bend_Energy-OPLS-2005>
150.97248840332

> <r_mmod_Torsional_Energy-OPLS-2005>
246.560150146484

> <r_mmod_Improper_Torsional_Energy-OPLS-2005>
3.81077456474304

> <r_mmod_Van_der_Waal_Energy-OPLS-2005>
165.889755249023

> <r_mmod_Electrostatic_Energy-OPLS-2005>
-388.919219970703

> <r_mmod_Solvation_Energy-OPLS-2005>
-402.410522460938

> <b_mmod_Minimization_Converged-OPLS-2005>
0

> <r_mmod_RMS_Derivative-OPLS-2005>
2.35563731193542

$$$$
64
                    3D
 Structure written by MMmdl.
172181  0  0  1  0            999 V2000
  -29.1534  -16.5063   20.3257 C   0  0  0  0  0  0
  -30.1154  -13.8535   19.5522 C   0  0  0  0  0  0
  -29.5001  -12.9259   18.4256 C   0  0  0  0  0  0
  -28.1782  -12.3027   18.8813 C   0  0  0  0  0  0
  -27.4676  -13.3191   19.7864 C   0  0  2  0  0  0
  -28.3101  -13.9316   20.9146 C   0  0  0  0  0  0
  -25.1743  -13.8170   20.5734 C   0  0  0  0  0  0
  -24.1290  -13.0287   20.9319 C   0  0  0  0  0  0
  -24.6084  -11.6829   20.8801 C   0  0  0  0  0  0
  -23.8929  -10.4205   21.0449 C   0  0  0  0  0  0
  -24.3567   -9.4155   21.9204 C   0  0  0  0  0  0
  -23.6268   -8.2183   22.0763 C   0  0  0  0  0  0
  -22.4247   -8.0227   21.3553 C   0  0  0  0  0  0
  -21.9850   -9.0172   20.4646 C   0  0  0  0  0  0
  -22.7143  -10.2053   20.3058 C   0  0  0  0  0  0
  -21.6840   -6.0720   22.5292 C   0  0  0  0  0  0
  -21.3995   -6.5633   23.8220 C   0  0  0  0  0  0
  -21.3646   -5.6788   24.9184 C   0  0  0  0  0  0
  -21.6044   -4.3051   24.7232 C   0  0  0  0  0  0
  -21.8823   -3.8141   23.4354 C   0  0  0  0  0  0
  -21.9191   -4.6956   22.3412 C   0  0  0  0  0  0
  -22.7395  -13.5069   21.2001 C   0  0  0  0  0  0
  -22.1669   -4.2150   21.0988 F   0  0  0  0  0  0
  -21.5626   -3.4535   25.7744 F   0  0  0  0  0  0
  -29.1211  -14.9433   20.2081 N   0  0  0  0  0  0
  -26.1966  -12.9397   20.2954 N   0  0  0  0  0  0
  -25.8930  -11.6510   20.5538 N   0  0  0  0  0  0
  -22.0116  -12.8060   22.0581 N   0  0  0  0  0  0
  -25.3354  -15.1954   20.4250 N   0  0  0  0  0  0
  -30.4403  -16.5107   20.2621 O   0  0  0  0  0  0
  -21.6615   -6.8839   21.4247 O   0  0  0  0  0  0
  -22.3141  -14.5419   20.6876 O   0  0  0  0  0  0
  -24.9330  -31.8902   22.5216 C   0  0  0  0  0  0
  -26.0840  -32.4722   23.5202 C   0  0  1  0  0  0
  -26.6606  -27.9650   21.5405 C   0  0  0  0  0  0
  -25.6490  -33.8065   24.0022 N   0  0  0  0  0  0
  -24.4541  -29.1549   20.9962 C   0  0  2  0  0  0
  -25.7108  -28.8800   19.3379 C   0  0  0  0  0  0
  -23.6620  -27.5801   22.2830 C   0  0  0  0  0  0
  -17.9923  -27.8937   22.8481 C   0  0  0  0  0  0
  -24.1467  -36.7110   23.2713 C   0  0  0  0  0  0
  -26.2914  -30.9855   20.7148 C   0  0  0  0  0  0
  -26.6645  -29.6427   20.1019 C   0  0  0  0  0  0
  -27.4929  -28.8860   20.9174 C   0  0  0  0  0  0
  -26.1678  -26.9907   20.5745 C   0  0  0  0  0  0
  -25.7105  -27.4790   19.3497 C   0  0  0  0  0  0
  -24.3667  -29.3161   19.4341 C   0  0  0  0  0  0
  -25.4217  -36.2740   24.0079 C   0  0  1  0  0  0
  -20.6451  -27.2800   23.3951 C   0  0  2  0  0  0
  -20.3104  -26.0737   22.6119 C   0  0  0  0  0  0
  -19.3684  -26.3117   21.4535 C   0  0  0  0  0  0
  -17.9960  -26.6492   22.0077 C   0  0  0  0  0  0
  -19.1697  -28.2883   23.5576 C   0  0  0  0  0  0
  -18.8688  -29.5686   24.2385 C   0  0  0  0  0  0
  -17.6972  -30.3555   24.1444 C   0  0  0  0  0  0
  -25.9441  -34.9551   23.3985 C   0  0  0  0  0  0
  -16.5876  -29.8233   23.5021 C   0  0  0  0  0  0
  -16.7495  -28.5858   22.8732 C   0  0  0  0  0  0
  -26.5071  -31.7062   24.8993 C   0  0  0  0  0  0
  -25.4040  -31.5731   26.0019 C   0  0  0  0  0  0
  -27.1508  -30.3261   24.6387 C   0  0  0  0  0  0
  -27.6519  -32.4871   25.6035 C   0  0  0  0  0  0
  -27.5536  -37.1663   24.8450 C   0  0  0  0  0  0
  -22.3205  -27.3487   23.0103 N   0  0  0  0  0  0
  -26.4123  -37.3719   23.9585 N   0  0  0  0  0  0
  -25.0742  -30.8145   21.4584 N   0  0  0  0  0  0
  -24.2738  -27.0684   23.1742 O   0  0  0  0  0  0
  -25.9416  -28.6399   22.7370 O   0  0  0  0  0  0
  -26.6275  -34.9833   22.3779 O   0  0  0  0  0  0
  -23.8268  -32.2229   23.0176 O   0  0  0  0  0  0
  -23.4761  -22.1593   18.9877 C   0  0  0  0  0  0
  -24.5402  -21.2418   19.4552 C   0  0  0  0  0  0
  -23.2017  -23.5979   19.2748 C   0  0  0  0  0  0
  -25.6407  -21.5540   20.3199 C   0  0  0  0  0  0
  -23.7625  -24.4948   20.2837 C   0  0  0  0  0  0
  -25.0467  -23.2499   20.7131 C   0  0  0  0  0  0
  -21.4967  -29.6656   23.8803 C   0  0  0  0  0  0
  -23.0391  -29.4488   24.4433 C   0  0  0  0  0  0
  -20.9896  -29.2817   21.9792 C   0  0  0  0  0  0
  -22.5948  -29.9144   21.9818 C   0  0  0  0  0  0
  -24.2125  -29.5968   23.3631 C   0  0  2  0  0  0
  -22.4801  -21.5085   17.9966 C   0  0  0  0  0  0
  -24.5108  -19.7852   18.9735 C   0  0  0  0  0  0
  -22.2066  -24.2835   18.3238 C   0  0  0  0  0  0
  -27.1726  -19.9072   20.5482 C   0  0  0  0  0  0
  -22.5875  -26.4804   20.3158 C   0  0  0  0  0  0
  -28.0195  -17.9271   20.3827 N   0  0  0  0  0  0
  -21.9301  -28.5147   20.8834 N   0  3  2  0  0  0
  -26.0369  -23.8459   21.9933 Cl  0  0  0  0  0  0
  -30.9587  -14.3782   19.1039 H   0  0  0  0  0  0
  -30.5905  -13.2334   20.3132 H   0  0  0  0  0  0
  -30.2043  -12.1525   18.1139 H   0  0  0  0  0  0
  -29.3152  -13.5348   17.5398 H   0  0  0  0  0  0
  -28.3884  -11.3973   19.4514 H   0  0  0  0  0  0
  -27.5577  -12.0145   18.0296 H   0  0  0  0  0  0
  -27.2242  -14.1188   19.0814 H   0  0  0  0  0  0
  -28.8540  -13.1902   21.5047 H   0  0  0  0  0  0
  -27.6935  -14.4766   21.6313 H   0  0  0  0  0  0
  -25.2713   -9.5682   22.4770 H   0  0  0  0  0  0
  -24.0000   -7.4587   22.7481 H   0  0  0  0  0  0
  -21.0784   -8.8676   19.8957 H   0  0  0  0  0  0
  -22.3598  -10.9607   19.6179 H   0  0  0  0  0  0
  -21.1981   -7.6142   23.9716 H   0  0  0  0  0  0
  -21.1459   -6.0524   25.9086 H   0  0  0  0  0  0
  -22.0613   -2.7604   23.2848 H   0  0  0  0  0  0
  -22.3784  -11.9729   22.4941 H   0  0  0  0  0  0
  -21.0733  -13.1073   22.2813 H   0  0  0  0  0  0
  -24.5659  -15.8364   20.5806 H   0  0  0  0  0  0
  -26.1786  -15.6614   20.1167 H   0  0  0  0  0  0
  -27.0018  -32.5992   22.9467 H   0  0  0  0  0  0
  -25.0443  -33.8240   24.8070 H   0  0  0  0  0  0
  -23.7334  -29.4745   20.3148 H   0  0  0  0  0  0
  -23.3888  -35.9260   23.2956 H   0  0  0  0  0  0
  -24.3448  -36.9399   22.2230 H   0  0  0  0  0  0
  -23.7065  -37.5975   23.7288 H   0  0  0  0  0  0
  -26.1118  -31.6924   19.9030 H   0  0  0  0  0  0
  -27.1482  -31.3766   21.2658 H   0  0  0  0  0  0
  -28.1052  -29.4669   21.5934 H   0  0  0  0  0  0
  -25.6904  -26.0936   20.9211 H   0  0  0  0  0  0
  -25.0502  -26.8660   18.7539 H   0  0  0  0  0  0
  -24.4153  -30.3179   18.9315 H   0  0  0  0  0  0
  -23.7687  -28.6589   18.7534 H   0  0  0  0  0  0
  -25.1542  -36.0902   25.0505 H   0  0  0  0  0  0
  -20.7128  -26.9264   24.4254 H   0  0  0  0  0  0
  -19.7881  -25.4010   23.2984 H   0  0  0  0  0  0
  -21.1682  -25.4605   22.3232 H   0  0  0  0  0  0
  -19.2844  -25.3743   20.9001 H   0  0  0  0  0  0
  -19.7049  -27.0459   20.7241 H   0  0  0  0  0  0
  -17.3092  -26.7811   21.1683 H   0  0  0  0  0  0
  -17.5835  -25.8247   22.6002 H   0  0  0  0  0  0
  -19.4790  -30.0259   24.9955 H   0  0  0  0  0  0
  -17.6143  -31.3048   24.6568 H   0  0  0  0  0  0
  -15.6390  -30.3413   23.4779 H   0  0  0  0  0  0
  -15.9001  -28.1844   22.3332 H   0  0  0  0  0  0
  -25.4221  -30.6143   26.5222 H   0  0  0  0  0  0
  -24.4087  -31.7534   25.6086 H   0  0  0  0  0  0
  -25.5131  -32.3431   26.7680 H   0  0  0  0  0  0
  -26.4785  -29.4936   24.8198 H   0  0  0  0  0  0
  -27.9700  -30.1202   25.3295 H   0  0  0  0  0  0
  -27.5789  -30.2553   23.6401 H   0  0  0  0  0  0
  -27.3872  -33.5134   25.8582 H   0  0  0  0  0  0
  -28.5362  -32.5331   24.9656 H   0  0  0  0  0  0
  -27.9549  -32.0099   26.5383 H   0  0  0  0  0  0
  -28.2303  -38.0182   24.7767 H   0  0  0  0  0  0
  -28.1270  -36.2744   24.5871 H   0  0  0  0  0  0
  -27.2356  -37.0802   25.8852 H   0  0  0  0  0  0
  -22.7198  -26.8012   23.7636 H   0  0  0  0  0  0
  -25.9787  -38.2592   24.2007 H   0  0  0  0  0  0
  -21.2316  -30.7052   24.0891 H   0  0  0  0  0  0
  -21.1303  -29.0998   24.7305 H   0  0  0  0  0  0
  -23.1638  -28.5103   24.9852 H   0  0  0  0  0  0
  -23.1152  -30.1457   25.2754 H   0  0  0  0  0  0
  -20.0711  -28.8447   21.6327 H   0  0  0  0  0  0
  -20.4811  -30.1746   21.5542 H   0  0  0  0  0  0
  -22.7113  -30.7042   21.2157 H   0  0  0  0  0  0
  -22.1862  -30.9412   22.1893 H   0  0  0  0  0  0
  -24.6221  -30.2471   24.0974 H   0  0  0  0  0  0
  -22.3394  -20.4382   18.0777 H   0  0  0  0  0  0
  -22.7908  -21.7022   16.9676 H   0  0  0  0  0  0
  -21.4607  -21.8680   18.1303 H   0  0  0  0  0  0
  -23.5882  -19.2934   19.2812 H   0  0  0  0  0  0
  -25.2725  -19.1376   19.3850 H   0  0  0  0  0  0
  -24.6197  -19.7277   17.8887 H   0  0  0  0  0  0
  -22.1082  -23.8051   17.3531 H   0  0  0  0  0  0
  -22.5631  -25.2621   18.0195 H   0  0  0  0  0  0
  -21.2045  -24.3628   18.7461 H   0  0  0  0  0  0
  -27.5006  -20.1491   21.5597 H   0  0  0  0  0  0
  -27.9166  -20.3941   19.9187 H   0  0  0  0  0  0
  -21.6055  -26.0620   20.1343 H   0  0  0  0  0  0
  -22.9041  -26.8130   19.3309 H   0  0  0  0  0  0
  -28.9095  -18.4123   20.3918 H   0  0  0  0  0  0
  -21.6087  -28.8901   20.0037 H   0  0  0  0  0  0
  1 25  1  0  0  0
  1 30  2  0  0  0
  1 87  1  0  0  0
  2  3  1  0  0  0
  2 25  1  0  0  0
  2 90  1  0  0  0
  2 91  1  0  0  0
  3  4  1  0  0  0
  3 92  1  0  0  0
  3 93  1  0  0  0
  4  5  1  0  0  0
  4 94  1  0  0  0
  4 95  1  0  0  0
  5  6  1  0  0  0
  5 26  1  0  0  0
  5 96  1  0  0  0
  6 25  1  0  0  0
  6 97  1  0  0  0
  6 98  1  0  0  0
  7  8  2  0  0  0
  7 26  1  0  0  0
  7 29  1  0  0  0
  8  9  1  0  0  0
  8 22  1  0  0  0
  9 10  1  0  0  0
  9 27  2  0  0  0
 10 11  2  0  0  0
 10 15  1  0  0  0
 11 12  1  0  0  0
 11 99  1  0  0  0
 12 13  2  0  0  0
 12100  1  0  0  0
 13 14  1  0  0  0
 13 31  1  0  0  0
 14 15  2  0  0  0
 14101  1  0  0  0
 15102  1  0  0  0
 16 17  2  0  0  0
 16 21  1  0  0  0
 16 31  1  0  0  0
 17 18  1  0  0  0
 17103  1  0  0  0
 18 19  2  0  0  0
 18104  1  0  0  0
 19 20  1  0  0  0
 19 24  1  0  0  0
 20 21  2  0  0  0
 20105  1  0  0  0
 21 23  1  0  0  0
 22 28  1  0  0  0
 22 32  2  0  0  0
 26 27  1  0  0  0
 28106  1  0  0  0
 28107  1  0  0  0
 29108  1  0  0  0
 29109  1  0  0  0
 33 34  1  0  0  0
 33 66  1  0  0  0
 33 70  2  0  0  0
 34 36  1  0  0  0
 34 59  1  0  0  0
 34110  1  0  0  0
 35 44  2  0  0  0
 35 45  1  0  0  0
 35 68  1  0  0  0
 36 56  1  0  0  0
 36111  1  0  0  0
 37 39  1  0  0  0
 37 47  1  0  0  0
 37 66  1  0  0  0
 37112  1  0  0  0
 38 43  2  0  0  0
 38 46  1  0  0  0
 38 47  1  0  0  0
 39 64  1  0  0  0
 39 67  2  0  0  0
 40 52  1  0  0  0
 40 53  2  0  0  0
 40 58  1  0  0  0
 41113  1  0  0  0
 41114  1  0  0  0
 41115  1  0  0  0
 41 48  1  0  0  0
 42 43  1  0  0  0
 42 66  1  0  0  0
 42116  1  0  0  0
 42117  1  0  0  0
 43 44  1  0  0  0
 44118  1  0  0  0
 45 46  2  0  0  0
 45119  1  0  0  0
 46120  1  0  0  0
 47121  1  0  0  0
 47122  1  0  0  0
 48 56  1  0  0  0
 48 65  1  0  0  0
 48123  1  0  0  0
 49 50  1  0  0  0
 49 53  1  0  0  0
 49 64  1  0  0  0
 49124  1  0  0  0
 50 51  1  0  0  0
 50125  1  0  0  0
 50126  1  0  0  0
 51 52  1  0  0  0
 51127  1  0  0  0
 51128  1  0  0  0
 52129  1  0  0  0
 52130  1  0  0  0
 53 54  1  0  0  0
 54 55  2  0  0  0
 54131  1  0  0  0
 55 57  1  0  0  0
 55132  1  0  0  0
 56 69  2  0  0  0
 57 58  2  0  0  0
 57133  1  0  0  0
 58134  1  0  0  0
 59 60  1  0  0  0
 59 61  1  0  0  0
 59 62  1  0  0  0
 60135  1  0  0  0
 60136  1  0  0  0
 60137  1  0  0  0
 61138  1  0  0  0
 61139  1  0  0  0
 61140  1  0  0  0
 62141  1  0  0  0
 62142  1  0  0  0
 62143  1  0  0  0
 63 65  1  0  0  0
 63144  1  0  0  0
 63145  1  0  0  0
 63146  1  0  0  0
 64147  1  0  0  0
 65148  1  0  0  0
 68 81  1  0  0  0
 71 72  2  0  0  0
 71 73  1  0  0  0
 71 82  1  0  0  0
 72 74  1  0  0  0
 72 83  1  0  0  0
 73 75  2  0  0  0
 73 84  1  0  0  0
 74 76  2  0  0  0
 74 85  1  0  0  0
 75 76  1  0  0  0
 75 86  1  0  0  0
 76 89  1  0  0  0
 77 78  1  0  0  0
 77 79  1  0  0  0
 77149  1  0  0  0
 77150  1  0  0  0
 78 81  1  0  0  0
 78151  1  0  0  0
 78152  1  0  0  0
 79 88  1  0  0  0
 79153  1  0  0  0
 79154  1  0  0  0
 80 81  1  0  0  0
 80 88  1  0  0  0
 80155  1  0  0  0
 80156  1  0  0  0
 81157  1  0  0  0
 82158  1  0  0  0
 82159  1  0  0  0
 82160  1  0  0  0
 83161  1  0  0  0
 83162  1  0  0  0
 83163  1  0  0  0
 84164  1  0  0  0
 84165  1  0  0  0
 84166  1  0  0  0
 85 87  1  0  0  0
 85167  1  0  0  0
 85168  1  0  0  0
 86169  1  0  0  0
 86170  1  0  0  0
 86 88  1  0  0  0
 87171  1  0  0  0
 88172  1  0  0  0
M  CHG  1  88   1
M  ISO  4   1 100  68 101  81 101  87 100
M  END
> <chiral flag>
0

> <version>
0

> <s_m_source_file>
/data/baiqing/PycharmProjects/Reinvent-master-3.2/result/LINK_invent/BTK/process_docking_weight1_custom_product_contain_oxygen_bond_distance_aromatic_linkinvent_7_9_3/rearranged_h_0035.sdf

> <i_m_source_file_index>
64

> <r_mmod_Potential_Energy-OPLS-2005>
20594.462890625

> <r_mmod_Stretch_Energy-OPLS-2005>
7530.10302734375

> <r_mmod_Bend_Energy-OPLS-2005>
3524.763671875

> <r_mmod_Torsional_Energy-OPLS-2005>
731.60546875

> <r_mmod_Improper_Torsional_Energy-OPLS-2005>
93.5326080322266

> <r_mmod_Van_der_Waal_Energy-OPLS-2005>
2498.1318359375

> <r_mmod_Electrostatic_Energy-OPLS-2005>
-293.005706787109

> <r_mmod_Solvation_Energy-OPLS-2005>
-390.567962646484

> <b_mmod_Minimization_Converged-OPLS-2005>
0

> <r_mmod_RMS_Derivative-OPLS-2005>
8.99511337280273

$$$$
65
                    3D
 Structure written by MMmdl.
173182  0  0  1  0            999 V2000
  -29.6830  -15.6440   20.6323 C   0  0  0  0  0  0
  -30.3091  -13.1861   19.6527 C   0  0  0  0  0  0
  -29.5264  -12.6889   18.3883 C   0  0  0  0  0  0
  -28.0979  -12.2516   18.7528 C   0  0  0  0  0  0
  -27.5192  -13.2235   19.7954 C   0  0  2  0  0  0
  -28.4324  -13.3815   20.9995 C   0  0  0  0  0  0
  -25.1921  -13.8038   20.5467 C   0  0  0  0  0  0
  -24.1374  -13.0282   20.9276 C   0  0  0  0  0  0
  -24.6004  -11.6775   20.8820 C   0  0  0  0  0  0
  -23.8817  -10.4164   21.0477 C   0  0  0  0  0  0
  -24.3477   -9.4111   21.9209 C   0  0  0  0  0  0
  -23.6188   -8.2132   22.0747 C   0  0  0  0  0  0
  -22.4166   -8.0173   21.3544 C   0  0  0  0  0  0
  -21.9780   -9.0112   20.4638 C   0  0  0  0  0  0
  -22.7061  -10.2002   20.3063 C   0  0  0  0  0  0
  -21.6803   -6.0664   22.5286 C   0  0  0  0  0  0
  -21.3986   -6.5590   23.8216 C   0  0  0  0  0  0
  -21.3652   -5.6763   24.9189 C   0  0  0  0  0  0
  -21.6051   -4.3023   24.7254 C   0  0  0  0  0  0
  -21.8811   -3.8095   23.4373 C   0  0  0  0  0  0
  -21.9167   -4.6897   22.3424 C   0  0  0  0  0  0
  -22.7493  -13.5119   21.1987 C   0  0  0  0  0  0
  -22.1641   -4.2080   21.1006 F   0  0  0  0  0  0
  -21.5632   -3.4520   25.7779 F   0  0  0  0  0  0
  -29.4858  -14.2080   20.4794 N   0  0  0  0  0  0
  -26.2071  -12.9124   20.2660 N   0  0  0  0  0  0
  -25.8839  -11.6314   20.5551 N   0  0  0  0  0  0
  -22.0179  -12.8109   22.0581 N   0  0  0  0  0  0
  -25.3652  -15.1726   20.3747 N   0  0  0  0  0  0
  -30.9093  -15.7655   20.3561 O   0  0  0  0  0  0
  -21.6541   -6.8775   21.4238 O   0  0  0  0  0  0
  -22.3235  -14.5448   20.6819 O   0  0  0  0  0  0
  -24.6755  -31.9629   23.2195 C   0  0  0  0  0  0
  -25.9721  -32.5178   23.8647 C   0  0  1  0  0  0
  -26.5616  -27.1883   20.1963 C   0  0  0  0  0  0
  -25.6589  -33.8922   24.2603 N   0  0  0  0  0  0
  -23.4555  -30.6254   21.6035 C   0  0  2  0  0  0
  -24.8518  -29.2511   19.9015 C   0  0  0  0  0  0
  -22.9978  -29.5791   22.6580 C   0  0  0  0  0  0
  -18.5800  -27.5773   22.5575 C   0  0  0  0  0  0
  -24.1527  -36.7361   23.2581 C   0  0  0  0  0  0
  -26.0029  -30.7972   21.4569 C   0  0  0  0  0  0
  -25.9450  -29.4659   20.7345 C   0  0  0  0  0  0
  -26.8591  -28.3990   20.9035 C   0  0  0  0  0  0
  -25.9124  -27.2487   19.0024 C   0  0  0  0  0  0
  -24.9077  -28.2120   18.9470 C   0  0  0  0  0  0
  -23.6194  -30.1201   20.1300 C   0  0  0  0  0  0
  -25.4152  -36.3252   24.0317 C   0  0  1  0  0  0
  -21.2657  -28.0657   23.4753 C   0  0  2  0  0  0
  -22.2972  -26.5977   22.7182 C   0  0  0  0  0  0
  -20.7466  -25.2848   21.1545 C   0  0  0  0  0  0
  -18.9119  -26.1605   21.5106 C   0  0  0  0  0  0
  -19.5944  -28.3626   23.3347 C   0  0  0  0  0  0
  -19.1627  -29.6364   23.9336 C   0  0  0  0  0  0
  -17.8538  -30.1629   23.9236 C   0  0  0  0  0  0
  -25.9221  -34.9692   23.5129 C   0  0  0  0  0  0
  -16.8587  -29.3845   23.3206 C   0  0  0  0  0  0
  -17.2290  -28.1512   22.6691 C   0  0  0  0  0  0
  -26.4666  -31.6721   25.0984 C   0  0  0  0  0  0
  -25.3699  -31.3906   26.1507 C   0  0  0  0  0  0
  -27.0445  -30.3082   24.6541 C   0  0  0  0  0  0
  -27.6215  -32.4303   25.7917 C   0  0  0  0  0  0
  -27.5617  -37.1900   24.8458 C   0  0  0  0  0  0
  -21.7284  -29.3425   22.8795 N   0  0  0  0  0  0
  -26.4293  -37.3971   23.9459 N   0  0  0  0  0  0
  -24.7275  -31.1962   22.1037 N   0  0  0  0  0  0
  -23.8059  -28.9977   23.3788 O   0  0  0  0  0  0
  -25.8647  -26.1112   20.7476 O   0  0  0  0  0  0
  -26.5546  -34.9092   22.4541 O   0  0  0  0  0  0
  -23.5969  -32.2598   23.7517 O   0  0  0  0  0  0
  -26.6892  -19.4425   21.3263 C   0  0  0  0  0  0
  -25.4263  -20.2593   22.0179 C   0  0  0  0  0  0
  -24.8854  -19.2372   22.8711 C   0  0  0  0  0  0
  -25.5038  -17.9391   23.1509 C   0  0  0  0  0  0
  -26.7800  -17.4392   22.6652 C   0  0  0  0  0  0
  -27.4158  -17.9489   21.5021 C   0  0  0  0  0  0
  -23.6845  -24.2796   20.7590 C   0  0  0  0  0  0
  -23.6430  -23.6524   19.5672 C   0  0  0  0  0  0
  -20.9544  -27.4588   21.1707 C   0  0  0  0  0  0
  -20.4611  -25.5877   23.3117 C   0  0  0  0  0  0
  -22.6693  -26.9827   20.3378 C   0  0  0  0  0  0
  -21.9308  -24.0159   23.1500 C   0  0  0  0  0  0
  -24.1602  -25.8596   20.7967 C   0  0  2  0  0  0
  -23.5710  -19.5599   23.5854 C   0  0  0  0  0  0
  -24.7444  -16.9646   24.0607 C   0  0  0  0  0  0
  -27.5371  -16.3711   23.4754 C   0  0  0  0  0  0
  -24.6377  -22.0650   22.2560 C   0  0  0  0  0  0
  -28.7016  -16.9457   20.7807 N   0  0  0  0  0  0
  -23.2616  -23.3163   22.0485 N   0  3  2  0  0  0
  -31.2689  -13.5996   19.3287 H   0  0  0  0  0  0
  -30.5931  -12.3366   20.2740 H   0  0  0  0  0  0
  -30.0590  -11.8726   17.9002 H   0  0  0  0  0  0
  -29.4824  -13.5163   17.6764 H   0  0  0  0  0  0
  -28.1396  -11.2511   19.1805 H   0  0  0  0  0  0
  -27.4618  -12.1792   17.8706 H   0  0  0  0  0  0
  -27.4284  -14.1807   19.2716 H   0  0  0  0  0  0
  -28.7608  -12.4270   21.4072 H   0  0  0  0  0  0
  -27.9162  -13.8678   21.8068 H   0  0  0  0  0  0
  -25.2619   -9.5574   22.4787 H   0  0  0  0  0  0
  -23.9887   -7.4494   22.7451 H   0  0  0  0  0  0
  -21.0705   -8.8559   19.8958 H   0  0  0  0  0  0
  -22.3483  -10.9509   19.6147 H   0  0  0  0  0  0
  -21.1984   -7.6100   23.9697 H   0  0  0  0  0  0
  -21.1497   -6.0509   25.9093 H   0  0  0  0  0  0
  -22.0614   -2.7553   23.2892 H   0  0  0  0  0  0
  -22.3808  -11.9802   22.4953 H   0  0  0  0  0  0
  -21.0820  -13.1152   22.2831 H   0  0  0  0  0  0
  -24.5980  -15.8266   20.4663 H   0  0  0  0  0  0
  -26.1953  -15.5909   19.9669 H   0  0  0  0  0  0
  -26.7857  -32.5679   23.1447 H   0  0  0  0  0  0
  -25.0939  -34.0097   25.0877 H   0  0  0  0  0  0
  -22.6977  -31.4141   21.5776 H   0  0  0  0  0  0
  -23.3853  -35.9630   23.3214 H   0  0  0  0  0  0
  -24.3638  -36.9003   22.2006 H   0  0  0  0  0  0
  -23.7190  -37.6522   23.6585 H   0  0  0  0  0  0
  -26.2683  -31.5680   20.7338 H   0  0  0  0  0  0
  -26.8409  -30.7293   22.1350 H   0  0  0  0  0  0
  -27.5586  -28.4290   21.7307 H   0  0  0  0  0  0
  -25.7564  -26.3390   18.4333 H   0  0  0  0  0  0
  -24.1552  -28.1374   18.1719 H   0  0  0  0  0  0
  -23.6893  -30.9834   19.4663 H   0  0  0  0  0  0
  -22.6946  -29.6420   19.8134 H   0  0  0  0  0  0
  -25.1285  -36.2102   25.0801 H   0  0  0  0  0  0
  -21.4877  -28.1033   24.5411 H   0  0  0  0  0  0
  -23.2301  -27.0659   22.5114 H   0  0  0  0  0  0
  -22.7418  -26.1094   23.5969 H   0  0  0  0  0  0
  -20.6141  -24.2109   21.2577 H   0  0  0  0  0  0
  -20.9778  -25.2989   20.0856 H   0  0  0  0  0  0
  -18.5031  -26.4436   20.5387 H   0  0  0  0  0  0
  -18.2087  -25.3798   21.8025 H   0  0  0  0  0  0
  -19.9031  -30.2253   24.4567 H   0  0  0  0  0  0
  -17.6176  -31.1092   24.3943 H   0  0  0  0  0  0
  -15.8314  -29.7147   23.3060 H   0  0  0  0  0  0
  -16.4439  -27.6185   22.1536 H   0  0  0  0  0  0
  -24.5888  -30.7327   25.7662 H   0  0  0  0  0  0
  -24.8891  -32.3098   26.4883 H   0  0  0  0  0  0
  -25.7850  -30.9024   27.0335 H   0  0  0  0  0  0
  -26.3062  -29.6925   24.1395 H   0  0  0  0  0  0
  -27.3821  -29.7278   25.5142 H   0  0  0  0  0  0
  -27.9131  -30.4253   24.0048 H   0  0  0  0  0  0
  -27.2849  -33.3587   26.2541 H   0  0  0  0  0  0
  -28.4117  -32.6868   25.0849 H   0  0  0  0  0  0
  -28.0748  -31.8338   26.5845 H   0  0  0  0  0  0
  -28.2561  -38.0277   24.7669 H   0  0  0  0  0  0
  -28.1202  -36.2838   24.6075 H   0  0  0  0  0  0
  -27.2367  -37.1282   25.8857 H   0  0  0  0  0  0
  -21.0318  -29.8658   22.3607 H   0  0  0  0  0  0
  -26.0168  -38.3019   24.1565 H   0  0  0  0  0  0
  -27.1706  -20.0426   20.5725 H   0  0  0  0  0  0
  -23.9067  -24.1885   18.6678 H   0  0  0  0  0  0
  -23.3760  -22.6028   19.4566 H   0  0  0  0  0  0
  -20.6502  -28.5006   21.1257 H   0  0  0  0  0  0
  -20.3711  -27.3871   20.2460 H   0  0  0  0  0  0
  -19.5040  -25.0875   23.4429 H   0  0  0  0  0  0
  -20.5677  -25.9578   24.3356 H   0  0  0  0  0  0
  -23.1198  -27.8800   20.6451 H   0  0  0  0  0  0
  -22.5248  -26.9942   19.2416 H   0  0  0  0  0  0
  -21.3002  -23.1301   23.2472 H   0  0  0  0  0  0
  -22.4343  -24.0243   24.1100 H   0  0  0  0  0  0
  -24.3351  -25.7236   21.8557 H   0  0  0  0  0  0
  -23.5220  -20.5645   23.9682 H   0  0  0  0  0  0
  -23.3951  -18.9785   24.4739 H   0  0  0  0  0  0
  -22.7327  -19.3944   22.9163 H   0  0  0  0  0  0
  -23.6588  -17.0055   24.0289 H   0  0  0  0  0  0
  -25.0820  -17.1323   25.0803 H   0  0  0  0  0  0
  -24.9600  -15.9351   23.7679 H   0  0  0  0  0  0
  -27.2462  -16.2605   24.5293 H   0  0  0  0  0  0
  -28.6090  -16.5608   23.4897 H   0  0  0  0  0  0
  -27.5941  -15.4271   22.9738 H   0  0  0  0  0  0
  -25.4654  -22.6718   21.8856 H   0  0  0  0  0  0
  -24.7583  -22.1655   23.3348 H   0  0  0  0  0  0
  -29.2357  -17.6089   20.2533 H   0  0  0  0  0  0
  -22.6254  -22.6574   21.6297 H   0  0  0  0  0  0
  1 25  1  0  0  0
  1 30  2  0  0  0
  1 88  1  0  0  0
  2  3  1  0  0  0
  2 25  1  0  0  0
  2 90  1  0  0  0
  2 91  1  0  0  0
  3  4  1  0  0  0
  3 92  1  0  0  0
  3 93  1  0  0  0
  4  5  1  0  0  0
  4 94  1  0  0  0
  4 95  1  0  0  0
  5  6  1  0  0  0
  5 26  1  0  0  0
  5 96  1  0  0  0
  6 25  1  0  0  0
  6 97  1  0  0  0
  6 98  1  0  0  0
  7  8  2  0  0  0
  7 26  1  0  0  0
  7 29  1  0  0  0
  8  9  1  0  0  0
  8 22  1  0  0  0
  9 10  1  0  0  0
  9 27  2  0  0  0
 10 11  2  0  0  0
 10 15  1  0  0  0
 11 12  1  0  0  0
 11 99  1  0  0  0
 12 13  2  0  0  0
 12100  1  0  0  0
 13 14  1  0  0  0
 13 31  1  0  0  0
 14 15  2  0  0  0
 14101  1  0  0  0
 15102  1  0  0  0
 16 17  2  0  0  0
 16 21  1  0  0  0
 16 31  1  0  0  0
 17 18  1  0  0  0
 17103  1  0  0  0
 18 19  2  0  0  0
 18104  1  0  0  0
 19 20  1  0  0  0
 19 24  1  0  0  0
 20 21  2  0  0  0
 20105  1  0  0  0
 21 23  1  0  0  0
 22 28  1  0  0  0
 22 32  2  0  0  0
 26 27  1  0  0  0
 28106  1  0  0  0
 28107  1  0  0  0
 29108  1  0  0  0
 29109  1  0  0  0
 33 34  1  0  0  0
 33 66  1  0  0  0
 33 70  2  0  0  0
 34 36  1  0  0  0
 34 59  1  0  0  0
 34110  1  0  0  0
 35 44  2  0  0  0
 35 45  1  0  0  0
 35 68  1  0  0  0
 36 56  1  0  0  0
 36111  1  0  0  0
 37 39  1  0  0  0
 37 47  1  0  0  0
 37 66  1  0  0  0
 37112  1  0  0  0
 38 43  2  0  0  0
 38 46  1  0  0  0
 38 47  1  0  0  0
 39 64  1  0  0  0
 39 67  2  0  0  0
 40 52  1  0  0  0
 40 53  2  0  0  0
 40 58  1  0  0  0
 41113  1  0  0  0
 41114  1  0  0  0
 41115  1  0  0  0
 41 48  1  0  0  0
 42 43  1  0  0  0
 42 66  1  0  0  0
 42116  1  0  0  0
 42117  1  0  0  0
 43 44  1  0  0  0
 44118  1  0  0  0
 45 46  2  0  0  0
 45119  1  0  0  0
 46120  1  0  0  0
 47121  1  0  0  0
 47122  1  0  0  0
 48 56  1  0  0  0
 48 65  1  0  0  0
 48123  1  0  0  0
 49 50  1  0  0  0
 49 53  1  0  0  0
 49 64  1  0  0  0
 49124  1  0  0  0
 50 51  1  0  0  0
 50125  1  0  0  0
 50126  1  0  0  0
 51 52  1  0  0  0
 51127  1  0  0  0
 51128  1  0  0  0
 52129  1  0  0  0
 52130  1  0  0  0
 53 54  1  0  0  0
 54 55  2  0  0  0
 54131  1  0  0  0
 55 57  1  0  0  0
 55132  1  0  0  0
 56 69  2  0  0  0
 57 58  2  0  0  0
 57133  1  0  0  0
 58134  1  0  0  0
 59 60  1  0  0  0
 59 61  1  0  0  0
 59 62  1  0  0  0
 60135  1  0  0  0
 60136  1  0  0  0
 60137  1  0  0  0
 61138  1  0  0  0
 61139  1  0  0  0
 61140  1  0  0  0
 62141  1  0  0  0
 62142  1  0  0  0
 62143  1  0  0  0
 63 65  1  0  0  0
 63144  1  0  0  0
 63145  1  0  0  0
 63146  1  0  0  0
 64147  1  0  0  0
 65148  1  0  0  0
 68 83  1  0  0  0
 71 72  2  0  0  0
 71 76  1  0  0  0
 71149  1  0  0  0
 72 73  1  0  0  0
 72 87  1  0  0  0
 73 74  2  0  0  0
 73 84  1  0  0  0
 74 75  1  0  0  0
 74 85  1  0  0  0
 75 76  2  0  0  0
 75 86  1  0  0  0
 76 88  1  0  0  0
 77 78  2  0  0  0
 77 83  1  0  0  0
 77 89  1  0  0  0
 78150  1  0  0  0
 78151  1  0  0  0
 79 80  1  0  0  0
 79 81  1  0  0  0
 79152  1  0  0  0
 79153  1  0  0  0
 80 82  1  0  0  0
 80154  1  0  0  0
 80155  1  0  0  0
 81 83  1  0  0  0
 81156  1  0  0  0
 81157  1  0  0  0
 82 89  1  0  0  0
 82158  1  0  0  0
 82159  1  0  0  0
 83160  1  0  0  0
 84161  1  0  0  0
 84162  1  0  0  0
 84163  1  0  0  0
 85164  1  0  0  0
 85165  1  0  0  0
 85166  1  0  0  0
 86167  1  0  0  0
 86168  1  0  0  0
 86169  1  0  0  0
 87170  1  0  0  0
 87171  1  0  0  0
 87 89  1  0  0  0
 88172  1  0  0  0
 89173  1  0  0  0
M  CHG  1  89   1
M  ISO  4   1 100  68 101  83 101  88 100
M  END
> <chiral flag>
0

> <version>
0

> <s_m_source_file>
/data/baiqing/PycharmProjects/Reinvent-master-3.2/result/LINK_invent/BTK/process_docking_weight1_custom_product_contain_oxygen_bond_distance_aromatic_linkinvent_7_9_3/rearranged_h_0035.sdf

> <i_m_source_file_index>
65

> <r_mmod_Potential_Energy-OPLS-2005>
12845.298828125

> <r_mmod_Stretch_Energy-OPLS-2005>
6574.27392578125

> <r_mmod_Bend_Energy-OPLS-2005>
1467.41857910156

> <r_mmod_Torsional_Energy-OPLS-2005>
566.058715820312

> <r_mmod_Improper_Torsional_Energy-OPLS-2005>
34.593822479248

> <r_mmod_Van_der_Waal_Energy-OPLS-2005>
2047.36401367188

> <r_mmod_Electrostatic_Energy-OPLS-2005>
-327.552276611328

> <r_mmod_Solvation_Energy-OPLS-2005>
-418.031799316406

> <b_mmod_Minimization_Converged-OPLS-2005>
0

> <r_mmod_RMS_Derivative-OPLS-2005>
26.4429054260254

$$$$
66
                    3D
 Structure written by MMmdl.
160169  0  0  1  0            999 V2000
  -30.6828  -14.6427   20.4604 C   0  0  0  0  0  0
  -30.4143  -12.3879   19.4692 C   0  0  0  0  0  0
  -29.5030  -12.4894   18.2288 C   0  0  0  0  0  0
  -28.0250  -12.3447   18.6383 C   0  0  0  0  0  0
  -27.6438  -13.2346   19.8529 C   0  0  2  0  0  0
  -28.6883  -13.1565   20.9886 C   0  0  0  0  0  0
  -25.2511  -13.8211   20.5689 C   0  0  0  0  0  0
  -24.1800  -13.0447   20.9195 C   0  0  0  0  0  0
  -24.6397  -11.6926   20.8734 C   0  0  0  0  0  0
  -23.9069  -10.4293   21.0397 C   0  0  0  0  0  0
  -24.3615   -9.4211   21.9180 C   0  0  0  0  0  0
  -23.6291   -8.2241   22.0741 C   0  0  0  0  0  0
  -22.4279   -8.0279   21.3530 C   0  0  0  0  0  0
  -21.9914   -9.0259   20.4632 C   0  0  0  0  0  0
  -22.7239  -10.2139   20.3046 C   0  0  0  0  0  0
  -21.6862   -6.0729   22.5276 C   0  0  0  0  0  0
  -21.4022   -6.5635   23.8208 C   0  0  0  0  0  0
  -21.3657   -5.6786   24.9170 C   0  0  0  0  0  0
  -21.6044   -4.3048   24.7229 C   0  0  0  0  0  0
  -21.8816   -3.8139   23.4347 C   0  0  0  0  0  0
  -21.9193   -4.6952   22.3402 C   0  0  0  0  0  0
  -22.7811  -13.5218   21.1863 C   0  0  0  0  0  0
  -22.1662   -4.2137   21.0974 F   0  0  0  0  0  0
  -21.5628   -3.4534   25.7743 F   0  0  0  0  0  0
  -29.9988  -13.4565   20.4015 N   0  0  0  0  0  0
  -26.2942  -12.9432   20.3298 N   0  0  0  0  0  0
  -25.9334  -11.6560   20.5747 N   0  0  0  0  0  0
  -22.0452  -12.8209   22.0416 N   0  0  0  0  0  0
  -25.4208  -15.1937   20.4108 N   0  0  0  0  0  0
  -31.8755  -14.6890   20.1536 O   0  0  0  0  0  0
  -21.6641   -6.8877   21.4239 O   0  0  0  0  0  0
  -22.3494  -14.5528   20.6723 O   0  0  0  0  0  0
  -24.6228  -31.8606   23.2006 C   0  0  0  0  0  0
  -25.9082  -32.4776   23.8335 C   0  0  1  0  0  0
  -27.2297  -27.3455   20.1157 C   0  0  0  0  0  0
  -25.5908  -33.8573   24.2272 N   0  0  0  0  0  0
  -23.4155  -30.4816   21.5436 C   0  0  2  0  0  0
  -24.8621  -28.9301   20.1180 C   0  0  0  0  0  0
  -22.7461  -29.4624   22.4947 C   0  0  0  0  0  0
  -18.0288  -28.1390   22.8494 C   0  0  0  0  0  0
  -24.1485  -36.7294   23.2636 C   0  0  0  0  0  0
  -25.9525  -30.8028   21.3627 C   0  0  0  0  0  0
  -26.0304  -29.4266   20.7138 C   0  0  0  0  0  0
  -27.2207  -28.6461   20.6985 C   0  0  0  0  0  0
  -26.0426  -26.8860   19.5096 C   0  0  0  0  0  0
  -24.8681  -27.6634   19.5089 C   0  0  0  0  0  0
  -23.6296  -29.8109   20.1605 C   0  0  0  0  0  0
  -25.4107  -36.3077   24.0332 C   0  0  1  0  0  0
  -20.5889  -28.3679   23.1306 C   0  0  2  0  0  0
  -20.6765  -26.9411   22.5405 C   0  0  0  0  0  0
  -19.5731  -26.6414   21.5205 C   0  0  0  0  0  0
  -18.1922  -26.7939   22.1633 C   0  0  0  0  0  0
  -19.1541  -28.8846   23.2901 C   0  0  0  0  0  0
  -18.9464  -30.1455   23.8906 C   0  0  0  0  0  0
  -17.6460  -30.6578   24.0584 C   0  0  0  0  0  0
  -25.9041  -34.9450   23.5103 C   0  0  0  0  0  0
  -16.5348  -29.9082   23.6342 C   0  0  0  0  0  0
  -16.7281  -28.6509   23.0346 C   0  0  0  0  0  0
  -26.4479  -31.6563   25.0682 C   0  0  0  0  0  0
  -25.3738  -31.3693   26.1430 C   0  0  0  0  0  0
  -27.0306  -30.2996   24.6076 C   0  0  0  0  0  0
  -27.6050  -32.4275   25.7462 C   0  0  0  0  0  0
  -27.5587  -37.1790   24.8458 C   0  0  0  0  0  0
  -21.4170  -29.3038   22.3704 N   0  0  0  0  0  0
  -26.4270  -37.3786   23.9432 N   0  0  0  0  0  0
  -24.6825  -31.0647   22.0939 N   0  0  0  0  0  0
  -23.4192  -28.8179   23.3025 O   0  0  0  0  0  0
  -28.3603  -26.5270   20.0917 O   0  0  0  0  0  0
  -26.5627  -34.8913   22.4679 O   0  0  0  0  0  0
  -23.5388  -32.1389   23.7350 O   0  0  0  0  0  0
  -29.9648  -19.4301   19.2957 C   0  0  0  0  0  0
  -29.2339  -20.5687   21.7081 C   0  0  0  0  0  0
  -29.6731  -20.8320   19.3619 C   0  0  0  0  0  0
  -29.9575  -18.5705   20.4287 C   0  0  0  0  0  0
  -29.3533  -21.4661   20.6042 C   0  0  0  0  0  0
  -29.5426  -19.1765   21.6413 C   0  0  0  0  0  0
  -29.6671  -23.6220   21.9218 C   0  0  0  0  0  0
  -30.4706  -23.1940   22.9104 C   0  0  0  0  0  0
  -29.2089  -25.0693   21.8432 C   0  0  0  0  0  0
  -28.6309  -23.8731   19.8527 C   0  0  0  0  0  0
  -28.2452  -25.1727   20.6626 C   0  0  2  0  0  0
  -29.8141  -21.6301   18.0745 C   0  0  0  0  0  0
  -30.6500  -17.1543   20.3513 C   0  0  0  0  0  0
  -29.2202  -22.8984   20.8128 N   0  0  0  0  0  0
  -29.9921  -15.8207   20.6120 N   0  0  0  0  0  0
  -29.5003  -18.2470   23.0969 Cl  0  0  0  0  0  0
  -31.4612  -12.4715   19.1708 H   0  0  0  0  0  0
  -30.3173  -11.4089   19.9426 H   0  0  0  0  0  0
  -29.7682  -11.7200   17.5024 H   0  0  0  0  0  0
  -29.6603  -13.4480   17.7318 H   0  0  0  0  0  0
  -27.8526  -11.2953   18.8795 H   0  0  0  0  0  0
  -27.3772  -12.5726   17.7904 H   0  0  0  0  0  0
  -27.6472  -14.2603   19.4836 H   0  0  0  0  0  0
  -28.6936  -12.1687   21.4506 H   0  0  0  0  0  0
  -28.4429  -13.8663   21.7805 H   0  0  0  0  0  0
  -25.2757   -9.5708   22.4759 H   0  0  0  0  0  0
  -24.0005   -7.4642   22.7471 H   0  0  0  0  0  0
  -21.0836   -8.8776   19.8953 H   0  0  0  0  0  0
  -22.3684  -10.9676   19.6154 H   0  0  0  0  0  0
  -21.2026   -7.6149   23.9708 H   0  0  0  0  0  0
  -21.1480   -6.0517   25.9071 H   0  0  0  0  0  0
  -22.0601   -2.7605   23.2842 H   0  0  0  0  0  0
  -22.4068  -11.9870   22.4799 H   0  0  0  0  0  0
  -21.1065  -13.1229   22.2612 H   0  0  0  0  0  0
  -24.6552  -15.8476   20.5298 H   0  0  0  0  0  0
  -26.2706  -15.6350   20.0840 H   0  0  0  0  0  0
  -26.7157  -32.5471   23.1092 H   0  0  0  0  0  0
  -25.0031  -33.9713   25.0396 H   0  0  0  0  0  0
  -22.7083  -31.3009   21.3986 H   0  0  0  0  0  0
  -23.3737  -35.9633   23.3263 H   0  0  0  0  0  0
  -24.3600  -36.8933   22.2059 H   0  0  0  0  0  0
  -23.7220  -37.6480   23.6671 H   0  0  0  0  0  0
  -26.0689  -31.5617   20.5873 H   0  0  0  0  0  0
  -26.8411  -30.8653   21.9809 H   0  0  0  0  0  0
  -28.1237  -29.0269   21.1558 H   0  0  0  0  0  0
  -26.0272  -25.9155   19.0348 H   0  0  0  0  0  0
  -23.9748  -27.2771   19.0377 H   0  0  0  0  0  0
  -23.7486  -30.5845   19.4009 H   0  0  0  0  0  0
  -22.7517  -29.2367   19.8594 H   0  0  0  0  0  0
  -25.1269  -36.1928   25.0818 H   0  0  0  0  0  0
  -21.0004  -28.3239   24.1418 H   0  0  0  0  0  0
  -20.5668  -26.2282   23.3594 H   0  0  0  0  0  0
  -21.6640  -26.7438   22.1208 H   0  0  0  0  0  0
  -19.6889  -25.6339   21.1203 H   0  0  0  0  0  0
  -19.6665  -27.3252   20.6756 H   0  0  0  0  0  0
  -17.4202  -26.6709   21.4025 H   0  0  0  0  0  0
  -18.0318  -26.0064   22.9012 H   0  0  0  0  0  0
  -19.7931  -30.7288   24.2260 H   0  0  0  0  0  0
  -17.5008  -31.6254   24.5197 H   0  0  0  0  0  0
  -15.5349  -30.2988   23.7640 H   0  0  0  0  0  0
  -15.8691  -28.0838   22.7028 H   0  0  0  0  0  0
  -24.5925  -30.7007   25.7788 H   0  0  0  0  0  0
  -24.8911  -32.2853   26.4849 H   0  0  0  0  0  0
  -25.8103  -30.8903   27.0203 H   0  0  0  0  0  0
  -26.2850  -29.6756   24.1130 H   0  0  0  0  0  0
  -27.4060  -29.7223   25.4532 H   0  0  0  0  0  0
  -27.8692  -30.4284   23.9231 H   0  0  0  0  0  0
  -27.2677  -33.3590   26.2020 H   0  0  0  0  0  0
  -28.3891  -32.6797   25.0312 H   0  0  0  0  0  0
  -28.0677  -31.8391   26.5393 H   0  0  0  0  0  0
  -28.2555  -38.0134   24.7576 H   0  0  0  0  0  0
  -28.1120  -36.2671   24.6176 H   0  0  0  0  0  0
  -27.2333  -37.1321   25.8861 H   0  0  0  0  0  0
  -20.9331  -29.8774   21.6940 H   0  0  0  0  0  0
  -26.0137  -38.2838   24.1476 H   0  0  0  0  0  0
  -30.2909  -19.0196   18.3491 H   0  0  0  0  0  0
  -28.9520  -20.9668   22.6720 H   0  0  0  0  0  0
  -30.7742  -23.8722   23.6966 H   0  0  0  0  0  0
  -30.8629  -22.1899   22.9604 H   0  0  0  0  0  0
  -30.0882  -25.6937   21.6761 H   0  0  0  0  0  0
  -28.7405  -25.4019   22.7704 H   0  0  0  0  0  0
  -29.3821  -24.1285   19.1055 H   0  0  0  0  0  0
  -27.7672  -23.4590   19.3335 H   0  0  0  0  0  0
  -27.2401  -25.0158   21.0585 H   0  0  0  0  0  0
  -30.1394  -21.0038   17.2431 H   0  0  0  0  0  0
  -30.5526  -22.4235   18.1907 H   0  0  0  0  0  0
  -28.8597  -22.0693   17.7853 H   0  0  0  0  0  0
  -31.5011  -17.2150   21.0327 H   0  0  0  0  0  0
  -31.1019  -17.0882   19.3600 H   0  0  0  0  0  0
  -29.0006  -15.7927   20.7916 H   0  0  0  0  0  0
  1 25  1  0  0  0
  1 30  2  0  0  0
  1 85  1  0  0  0
  2  3  1  0  0  0
  2 25  1  0  0  0
  2 87  1  0  0  0
  2 88  1  0  0  0
  3  4  1  0  0  0
  3 89  1  0  0  0
  3 90  1  0  0  0
  4  5  1  0  0  0
  4 91  1  0  0  0
  4 92  1  0  0  0
  5  6  1  0  0  0
  5 26  1  0  0  0
  5 93  1  0  0  0
  6 25  1  0  0  0
  6 94  1  0  0  0
  6 95  1  0  0  0
  7  8  2  0  0  0
  7 26  1  0  0  0
  7 29  1  0  0  0
  8  9  1  0  0  0
  8 22  1  0  0  0
  9 10  1  0  0  0
  9 27  2  0  0  0
 10 11  2  0  0  0
 10 15  1  0  0  0
 11 12  1  0  0  0
 11 96  1  0  0  0
 12 13  2  0  0  0
 12 97  1  0  0  0
 13 14  1  0  0  0
 13 31  1  0  0  0
 14 15  2  0  0  0
 14 98  1  0  0  0
 15 99  1  0  0  0
 16 17  2  0  0  0
 16 21  1  0  0  0
 16 31  1  0  0  0
 17 18  1  0  0  0
 17100  1  0  0  0
 18 19  2  0  0  0
 18101  1  0  0  0
 19 20  1  0  0  0
 19 24  1  0  0  0
 20 21  2  0  0  0
 20102  1  0  0  0
 21 23  1  0  0  0
 22 28  1  0  0  0
 22 32  2  0  0  0
 26 27  1  0  0  0
 28103  1  0  0  0
 28104  1  0  0  0
 29105  1  0  0  0
 29106  1  0  0  0
 33 34  1  0  0  0
 33 66  1  0  0  0
 33 70  2  0  0  0
 34 36  1  0  0  0
 34 59  1  0  0  0
 34107  1  0  0  0
 35 44  2  0  0  0
 35 45  1  0  0  0
 35 68  1  0  0  0
 36 56  1  0  0  0
 36108  1  0  0  0
 37 39  1  0  0  0
 37 47  1  0  0  0
 37 66  1  0  0  0
 37109  1  0  0  0
 38 43  2  0  0  0
 38 46  1  0  0  0
 38 47  1  0  0  0
 39 64  1  0  0  0
 39 67  2  0  0  0
 40 52  1  0  0  0
 40 53  2  0  0  0
 40 58  1  0  0  0
 41110  1  0  0  0
 41111  1  0  0  0
 41112  1  0  0  0
 41 48  1  0  0  0
 42 43  1  0  0  0
 42 66  1  0  0  0
 42113  1  0  0  0
 42114  1  0  0  0
 43 44  1  0  0  0
 44115  1  0  0  0
 45 46  2  0  0  0
 45116  1  0  0  0
 46117  1  0  0  0
 47118  1  0  0  0
 47119  1  0  0  0
 48 56  1  0  0  0
 48 65  1  0  0  0
 48120  1  0  0  0
 49 50  1  0  0  0
 49 53  1  0  0  0
 49 64  1  0  0  0
 49121  1  0  0  0
 50 51  1  0  0  0
 50122  1  0  0  0
 50123  1  0  0  0
 51 52  1  0  0  0
 51124  1  0  0  0
 51125  1  0  0  0
 52126  1  0  0  0
 52127  1  0  0  0
 53 54  1  0  0  0
 54 55  2  0  0  0
 54128  1  0  0  0
 55 57  1  0  0  0
 55129  1  0  0  0
 56 69  2  0  0  0
 57 58  2  0  0  0
 57130  1  0  0  0
 58131  1  0  0  0
 59 60  1  0  0  0
 59 61  1  0  0  0
 59 62  1  0  0  0
 60132  1  0  0  0
 60133  1  0  0  0
 60134  1  0  0  0
 61135  1  0  0  0
 61136  1  0  0  0
 61137  1  0  0  0
 62138  1  0  0  0
 62139  1  0  0  0
 62140  1  0  0  0
 63 65  1  0  0  0
 63141  1  0  0  0
 63142  1  0  0  0
 63143  1  0  0  0
 64144  1  0  0  0
 65145  1  0  0  0
 68 81  1  0  0  0
 71 73  2  0  0  0
 71 74  1  0  0  0
 71146  1  0  0  0
 72 75  2  0  0  0
 72 76  1  0  0  0
 72147  1  0  0  0
 73 75  1  0  0  0
 73 82  1  0  0  0
 74 76  2  0  0  0
 74 83  1  0  0  0
 75 84  1  0  0  0
 76 86  1  0  0  0
 77 78  2  0  0  0
 77 79  1  0  0  0
 77 84  1  0  0  0
 78148  1  0  0  0
 78149  1  0  0  0
 79 81  1  0  0  0
 79150  1  0  0  0
 79151  1  0  0  0
 80 81  1  0  0  0
 80 84  1  0  0  0
 80152  1  0  0  0
 80153  1  0  0  0
 81154  1  0  0  0
 82155  1  0  0  0
 82156  1  0  0  0
 82157  1  0  0  0
 83 85  1  0  0  0
 83158  1  0  0  0
 83159  1  0  0  0
 85160  1  0  0  0
M  ISO  4   1 100  68 101  81 101  85 100
M  END
> <chiral flag>
0

> <version>
0

> <s_m_source_file>
/data/baiqing/PycharmProjects/Reinvent-master-3.2/result/LINK_invent/BTK/process_docking_weight1_custom_product_contain_oxygen_bond_distance_aromatic_linkinvent_7_9_3/rearranged_h_0035.sdf

> <i_m_source_file_index>
66

> <r_mmod_Potential_Energy-OPLS-2005>
108.192024230957

> <r_mmod_Stretch_Energy-OPLS-2005>
77.8616104125977

> <r_mmod_Bend_Energy-OPLS-2005>
190.564956665039

> <r_mmod_Torsional_Energy-OPLS-2005>
261.620544433594

> <r_mmod_Improper_Torsional_Energy-OPLS-2005>
8.04701900482178

> <r_mmod_Van_der_Waal_Energy-OPLS-2005>
145.4765625

> <r_mmod_Electrostatic_Energy-OPLS-2005>
-421.245391845703

> <r_mmod_Solvation_Energy-OPLS-2005>
-201.279632568359

> <b_mmod_Minimization_Converged-OPLS-2005>
0

> <r_mmod_RMS_Derivative-OPLS-2005>
2.37800788879395

$$$$
67
                    3D
 Structure written by MMmdl.
155163  0  0  1  0            999 V2000
  -30.6275  -14.7232   20.4543 C   0  0  0  0  0  0
  -30.4305  -12.4399   19.4753 C   0  0  0  0  0  0
  -29.5088  -12.4987   18.2372 C   0  0  0  0  0  0
  -28.0363  -12.3223   18.6537 C   0  0  0  0  0  0
  -27.6420  -13.2300   19.8492 C   0  0  2  0  0  0
  -28.6860  -13.1682   20.9869 C   0  0  0  0  0  0
  -25.2501  -13.8207   20.5671 C   0  0  0  0  0  0
  -24.1794  -13.0456   20.9204 C   0  0  0  0  0  0
  -24.6383  -11.6929   20.8751 C   0  0  0  0  0  0
  -23.9060  -10.4304   21.0413 C   0  0  0  0  0  0
  -24.3615   -9.4215   21.9187 C   0  0  0  0  0  0
  -23.6293   -8.2249   22.0750 C   0  0  0  0  0  0
  -22.4275   -8.0287   21.3541 C   0  0  0  0  0  0
  -21.9912   -9.0260   20.4639 C   0  0  0  0  0  0
  -22.7238  -10.2140   20.3054 C   0  0  0  0  0  0
  -21.6853   -6.0738   22.5278 C   0  0  0  0  0  0
  -21.4017   -6.5641   23.8212 C   0  0  0  0  0  0
  -21.3655   -5.6790   24.9174 C   0  0  0  0  0  0
  -21.6043   -4.3052   24.7220 C   0  0  0  0  0  0
  -21.8817   -3.8147   23.4342 C   0  0  0  0  0  0
  -21.9194   -4.6967   22.3398 C   0  0  0  0  0  0
  -22.7814  -13.5232   21.1862 C   0  0  0  0  0  0
  -22.1666   -4.2153   21.0977 F   0  0  0  0  0  0
  -21.5626   -3.4536   25.7732 F   0  0  0  0  0  0
  -29.9908  -13.5052   20.4048 N   0  0  0  0  0  0
  -26.2933  -12.9409   20.3273 N   0  0  0  0  0  0
  -25.9310  -11.6559   20.5748 N   0  0  0  0  0  0
  -22.0463  -12.8226   22.0420 N   0  0  0  0  0  0
  -25.4184  -15.1928   20.4037 N   0  0  0  0  0  0
  -31.8143  -14.8114   20.1304 O   0  0  0  0  0  0
  -21.6639   -6.8886   21.4239 O   0  0  0  0  0  0
  -22.3491  -14.5531   20.6686 O   0  0  0  0  0  0
  -24.6310  -31.8552   23.1987 C   0  0  0  0  0  0
  -25.9136  -32.4748   23.8327 C   0  0  1  0  0  0
  -27.2177  -27.2627   20.1176 C   0  0  0  0  0  0
  -25.5934  -33.8553   24.2244 N   0  0  0  0  0  0
  -23.4272  -30.4796   21.5415 C   0  0  2  0  0  0
  -24.8730  -28.9309   20.1054 C   0  0  0  0  0  0
  -22.7490  -29.4613   22.4893 C   0  0  0  0  0  0
  -18.0276  -28.1386   22.8499 C   0  0  0  0  0  0
  -24.1493  -36.7290   23.2640 C   0  0  0  0  0  0
  -25.9735  -30.7665   21.3807 C   0  0  0  0  0  0
  -26.0433  -29.3907   20.7203 C   0  0  0  0  0  0
  -27.2143  -28.5669   20.7209 C   0  0  0  0  0  0
  -26.0282  -26.8859   19.4510 C   0  0  0  0  0  0
  -24.8712  -27.6873   19.4593 C   0  0  0  0  0  0
  -23.6441  -29.8176   20.1557 C   0  0  0  0  0  0
  -25.4121  -36.3067   24.0318 C   0  0  1  0  0  0
  -20.5890  -28.3696   23.1234 C   0  0  2  0  0  0
  -20.6759  -26.9422   22.5332 C   0  0  0  0  0  0
  -19.5698  -26.6422   21.5171 C   0  0  0  0  0  0
  -18.1914  -26.7912   22.1672 C   0  0  0  0  0  0
  -19.1540  -28.8860   23.2868 C   0  0  0  0  0  0
  -18.9467  -30.1457   23.8896 C   0  0  0  0  0  0
  -17.6468  -30.6584   24.0594 C   0  0  0  0  0  0
  -25.9059  -34.9441   23.5084 C   0  0  0  0  0  0
  -16.5358  -29.9080   23.6376 C   0  0  0  0  0  0
  -16.7267  -28.6508   23.0374 C   0  0  0  0  0  0
  -26.4505  -31.6575   25.0720 C   0  0  0  0  0  0
  -25.3721  -31.3733   26.1432 C   0  0  0  0  0  0
  -27.0353  -30.2986   24.6221 C   0  0  0  0  0  0
  -27.6048  -32.4325   25.7498 C   0  0  0  0  0  0
  -27.5580  -37.1799   24.8465 C   0  0  0  0  0  0
  -21.4198  -29.3040   22.3617 N   0  0  0  0  0  0
  -26.4293  -37.3764   23.9401 N   0  0  0  0  0  0
  -24.6962  -31.0521   22.0961 N   0  0  0  0  0  0
  -23.4191  -28.8162   23.2997 O   0  0  0  0  0  0
  -28.3216  -26.3786   20.2033 O   0  0  0  0  0  0
  -26.5636  -34.8919   22.4652 O   0  0  0  0  0  0
  -23.5462  -32.1378   23.7285 O   0  0  0  0  0  0
  -28.1378  -18.4314   21.1936 C   0  0  0  0  0  0
  -27.6976  -20.8581   21.0606 C   0  0  0  0  0  0
  -27.2966  -19.5482   21.4164 C   0  0  0  0  0  0
  -29.4040  -18.5799   20.5909 C   0  0  0  0  0  0
  -28.9396  -21.1013   20.4387 C   0  0  0  0  0  0
  -29.7814  -19.9346   20.2129 C   0  0  0  0  0  0
  -25.9259  -19.3429   22.0317 C   0  0  0  0  0  0
  -30.3302  -17.3030   20.3697 C   0  0  0  0  0  0
  -28.9378  -23.7608   20.6692 C   0  0  0  0  0  0
  -28.2282  -24.9278   19.8066 C   0  0  0  0  0  0
  -29.2796  -22.4403   20.0017 N   0  0  0  0  0  0
  -29.8748  -15.8692   20.6377 N   0  0  0  0  0  0
  -31.3140  -20.1793   19.4478 Cl  0  0  0  0  0  0
  -31.4722  -12.5556   19.1728 H   0  0  0  0  0  0
  -30.3693  -11.4649   19.9612 H   0  0  0  0  0  0
  -29.7892  -11.7269   17.5193 H   0  0  0  0  0  0
  -29.6344  -13.4539   17.7253 H   0  0  0  0  0  0
  -27.8988  -11.2759   18.9274 H   0  0  0  0  0  0
  -27.3762  -12.5023   17.8052 H   0  0  0  0  0  0
  -27.6372  -14.2495   19.4621 H   0  0  0  0  0  0
  -28.7143  -12.1744   21.4359 H   0  0  0  0  0  0
  -28.4242  -13.8598   21.7897 H   0  0  0  0  0  0
  -25.2759   -9.5692   22.4767 H   0  0  0  0  0  0
  -24.0002   -7.4636   22.7465 H   0  0  0  0  0  0
  -21.0848   -8.8771   19.8945 H   0  0  0  0  0  0
  -22.3692  -10.9678   19.6162 H   0  0  0  0  0  0
  -21.2016   -7.6149   23.9716 H   0  0  0  0  0  0
  -21.1476   -6.0522   25.9072 H   0  0  0  0  0  0
  -22.0601   -2.7611   23.2837 H   0  0  0  0  0  0
  -22.4092  -11.9897   22.4825 H   0  0  0  0  0  0
  -21.1071  -13.1226   22.2612 H   0  0  0  0  0  0
  -24.6373  -15.8357   20.4761 H   0  0  0  0  0  0
  -26.2470  -15.6229   20.0148 H   0  0  0  0  0  0
  -26.7201  -32.5395   23.1068 H   0  0  0  0  0  0
  -25.0081  -33.9690   25.0389 H   0  0  0  0  0  0
  -22.7247  -31.3022   21.3978 H   0  0  0  0  0  0
  -23.3748  -35.9629   23.3300 H   0  0  0  0  0  0
  -24.3588  -36.8918   22.2056 H   0  0  0  0  0  0
  -23.7255  -37.6493   23.6670 H   0  0  0  0  0  0
  -26.1153  -31.5280   20.6121 H   0  0  0  0  0  0
  -26.8496  -30.8116   22.0159 H   0  0  0  0  0  0
  -28.1083  -28.9120   21.2221 H   0  0  0  0  0  0
  -25.9494  -25.9581   18.9078 H   0  0  0  0  0  0
  -23.9807  -27.3388   18.9543 H   0  0  0  0  0  0
  -23.7659  -30.5948   19.4002 H   0  0  0  0  0  0
  -22.7610  -29.2522   19.8512 H   0  0  0  0  0  0
  -25.1300  -36.1912   25.0810 H   0  0  0  0  0  0
  -20.9987  -28.3238   24.1351 H   0  0  0  0  0  0
  -20.5669  -26.2299   23.3525 H   0  0  0  0  0  0
  -21.6604  -26.7443   22.1070 H   0  0  0  0  0  0
  -19.6578  -27.3264   20.6723 H   0  0  0  0  0  0
  -19.6852  -25.6345   21.1160 H   0  0  0  0  0  0
  -17.4116  -26.6607   21.4156 H   0  0  0  0  0  0
  -18.0422  -26.0073   22.9113 H   0  0  0  0  0  0
  -19.7943  -30.7267   24.2266 H   0  0  0  0  0  0
  -17.5030  -31.6255   24.5222 H   0  0  0  0  0  0
  -15.5367  -30.2976   23.7751 H   0  0  0  0  0  0
  -15.8654  -28.0843   22.7099 H   0  0  0  0  0  0
  -24.5897  -30.7078   25.7761 H   0  0  0  0  0  0
  -24.8916  -32.2907   26.4840 H   0  0  0  0  0  0
  -25.8034  -30.8921   27.0217 H   0  0  0  0  0  0
  -26.2943  -29.6725   24.1237 H   0  0  0  0  0  0
  -27.4009  -29.7258   25.4754 H   0  0  0  0  0  0
  -27.8832  -30.4247   23.9484 H   0  0  0  0  0  0
  -27.2640  -33.3624   26.2065 H   0  0  0  0  0  0
  -28.3869  -32.6886   25.0338 H   0  0  0  0  0  0
  -28.0704  -31.8458   26.5429 H   0  0  0  0  0  0
  -28.2588  -38.0102   24.7499 H   0  0  0  0  0  0
  -28.1076  -36.2625   24.6296 H   0  0  0  0  0  0
  -27.2292  -37.1457   25.8867 H   0  0  0  0  0  0
  -20.9406  -29.8698   21.6749 H   0  0  0  0  0  0
  -26.0169  -38.2835   24.1400 H   0  0  0  0  0  0
  -27.8000  -17.4478   21.4865 H   0  0  0  0  0  0
  -27.0165  -21.6782   21.2363 H   0  0  0  0  0  0
  -25.6785  -18.2844   22.1275 H   0  0  0  0  0  0
  -25.1582  -19.8084   21.4123 H   0  0  0  0  0  0
  -25.8814  -19.7927   23.0237 H   0  0  0  0  0  0
  -31.2346  -17.4690   20.9577 H   0  0  0  0  0  0
  -30.6581  -17.3358   19.3295 H   0  0  0  0  0  0
  -28.3592  -23.5814   21.5766 H   0  0  0  0  0  0
  -29.8910  -24.1604   21.0185 H   0  0  0  0  0  0
  -27.1953  -24.5975   19.7431 H   0  0  0  0  0  0
  -28.6146  -24.8792   18.7877 H   0  0  0  0  0  0
  -30.1536  -22.4679   19.4814 H   0  0  0  0  0  0
  -28.9021  -15.7344   20.8629 H   0  0  0  0  0  0
  1 25  1  0  0  0
  1 30  2  0  0  0
  1 82  1  0  0  0
  2  3  1  0  0  0
  2 25  1  0  0  0
  2 84  1  0  0  0
  2 85  1  0  0  0
  3  4  1  0  0  0
  3 86  1  0  0  0
  3 87  1  0  0  0
  4  5  1  0  0  0
  4 88  1  0  0  0
  4 89  1  0  0  0
  5  6  1  0  0  0
  5 26  1  0  0  0
  5 90  1  0  0  0
  6 25  1  0  0  0
  6 91  1  0  0  0
  6 92  1  0  0  0
  7  8  2  0  0  0
  7 26  1  0  0  0
  7 29  1  0  0  0
  8  9  1  0  0  0
  8 22  1  0  0  0
  9 10  1  0  0  0
  9 27  2  0  0  0
 10 11  2  0  0  0
 10 15  1  0  0  0
 11 12  1  0  0  0
 11 93  1  0  0  0
 12 13  2  0  0  0
 12 94  1  0  0  0
 13 14  1  0  0  0
 13 31  1  0  0  0
 14 15  2  0  0  0
 14 95  1  0  0  0
 15 96  1  0  0  0
 16 17  2  0  0  0
 16 21  1  0  0  0
 16 31  1  0  0  0
 17 18  1  0  0  0
 17 97  1  0  0  0
 18 19  2  0  0  0
 18 98  1  0  0  0
 19 20  1  0  0  0
 19 24  1  0  0  0
 20 21  2  0  0  0
 20 99  1  0  0  0
 21 23  1  0  0  0
 22 28  1  0  0  0
 22 32  2  0  0  0
 26 27  1  0  0  0
 28100  1  0  0  0
 28101  1  0  0  0
 29102  1  0  0  0
 29103  1  0  0  0
 33 34  1  0  0  0
 33 66  1  0  0  0
 33 70  2  0  0  0
 34 36  1  0  0  0
 34 59  1  0  0  0
 34104  1  0  0  0
 35 44  2  0  0  0
 35 45  1  0  0  0
 35 68  1  0  0  0
 36 56  1  0  0  0
 36105  1  0  0  0
 37 39  1  0  0  0
 37 47  1  0  0  0
 37 66  1  0  0  0
 37106  1  0  0  0
 38 43  2  0  0  0
 38 46  1  0  0  0
 38 47  1  0  0  0
 39 64  1  0  0  0
 39 67  2  0  0  0
 40 52  1  0  0  0
 40 53  2  0  0  0
 40 58  1  0  0  0
 41107  1  0  0  0
 41108  1  0  0  0
 41109  1  0  0  0
 41 48  1  0  0  0
 42 43  1  0  0  0
 42 66  1  0  0  0
 42110  1  0  0  0
 42111  1  0  0  0
 43 44  1  0  0  0
 44112  1  0  0  0
 45 46  2  0  0  0
 45113  1  0  0  0
 46114  1  0  0  0
 47115  1  0  0  0
 47116  1  0  0  0
 48 56  1  0  0  0
 48 65  1  0  0  0
 48117  1  0  0  0
 49 50  1  0  0  0
 49 53  1  0  0  0
 49 64  1  0  0  0
 49118  1  0  0  0
 50 51  1  0  0  0
 50119  1  0  0  0
 50120  1  0  0  0
 51 52  1  0  0  0
 51121  1  0  0  0
 51122  1  0  0  0
 52123  1  0  0  0
 52124  1  0  0  0
 53 54  1  0  0  0
 54 55  2  0  0  0
 54125  1  0  0  0
 55 57  1  0  0  0
 55126  1  0  0  0
 56 69  2  0  0  0
 57 58  2  0  0  0
 57127  1  0  0  0
 58128  1  0  0  0
 59 60  1  0  0  0
 59 61  1  0  0  0
 59 62  1  0  0  0
 60129  1  0  0  0
 60130  1  0  0  0
 60131  1  0  0  0
 61132  1  0  0  0
 61133  1  0  0  0
 61134  1  0  0  0
 62135  1  0  0  0
 62136  1  0  0  0
 62137  1  0  0  0
 63 65  1  0  0  0
 63138  1  0  0  0
 63139  1  0  0  0
 63140  1  0  0  0
 64141  1  0  0  0
 65142  1  0  0  0
 68 80  1  0  0  0
 71 73  2  0  0  0
 71 74  1  0  0  0
 71143  1  0  0  0
 72 73  1  0  0  0
 72 75  2  0  0  0
 72144  1  0  0  0
 73 77  1  0  0  0
 74 76  2  0  0  0
 74 78  1  0  0  0
 75 76  1  0  0  0
 75 81  1  0  0  0
 76 83  1  0  0  0
 77145  1  0  0  0
 77146  1  0  0  0
 77147  1  0  0  0
 78 82  1  0  0  0
 78148  1  0  0  0
 78149  1  0  0  0
 79 80  1  0  0  0
 79 81  1  0  0  0
 79150  1  0  0  0
 79151  1  0  0  0
 80152  1  0  0  0
 80153  1  0  0  0
 81154  1  0  0  0
 82155  1  0  0  0
M  ISO  4   1 100  68 101  80 101  82 100
M  END
> <chiral flag>
0

> <version>
0

> <s_m_source_file>
/data/baiqing/PycharmProjects/Reinvent-master-3.2/result/LINK_invent/BTK/process_docking_weight1_custom_product_contain_oxygen_bond_distance_aromatic_linkinvent_7_9_3/rearranged_h_0035.sdf

> <i_m_source_file_index>
67

> <r_mmod_Potential_Energy-OPLS-2005>
125.864433288574

> <r_mmod_Stretch_Energy-OPLS-2005>
114.583251953125

> <r_mmod_Bend_Energy-OPLS-2005>
167.772155761719

> <r_mmod_Torsional_Energy-OPLS-2005>
199.008422851562

> <r_mmod_Improper_Torsional_Energy-OPLS-2005>
7.89016103744507

> <r_mmod_Van_der_Waal_Energy-OPLS-2005>
138.25862121582

> <r_mmod_Electrostatic_Energy-OPLS-2005>
-368.274169921875

> <r_mmod_Solvation_Energy-OPLS-2005>
-214.586318969727

> <b_mmod_Minimization_Converged-OPLS-2005>
0

> <r_mmod_RMS_Derivative-OPLS-2005>
1.2287163734436

$$$$
68
                    3D
 Structure written by MMmdl.
156164  0  0  1  0            999 V2000
  -30.6722  -14.5058   20.6015 C   0  0  0  0  0  0
  -30.4435  -12.3447   19.4237 C   0  0  0  0  0  0
  -29.5007  -12.5093   18.2167 C   0  0  0  0  0  0
  -28.0293  -12.3367   18.6444 C   0  0  0  0  0  0
  -27.6630  -13.1971   19.8817 C   0  0  2  0  0  0
  -28.7028  -12.9922   21.0027 C   0  0  0  0  0  0
  -25.2622  -13.8129   20.5685 C   0  0  0  0  0  0
  -24.1819  -13.0427   20.9194 C   0  0  0  0  0  0
  -24.6369  -11.6905   20.8718 C   0  0  0  0  0  0
  -23.9044  -10.4287   21.0372 C   0  0  0  0  0  0
  -24.3602   -9.4211   21.9156 C   0  0  0  0  0  0
  -23.6305   -8.2230   22.0715 C   0  0  0  0  0  0
  -22.4310   -8.0291   21.3508 C   0  0  0  0  0  0
  -21.9927   -9.0269   20.4609 C   0  0  0  0  0  0
  -22.7213  -10.2163   20.3016 C   0  0  0  0  0  0
  -21.6838   -6.0744   22.5272 C   0  0  0  0  0  0
  -21.3972   -6.5647   23.8204 C   0  0  0  0  0  0
  -21.3651   -5.6801   24.9166 C   0  0  0  0  0  0
  -21.6058   -4.3085   24.7208 C   0  0  0  0  0  0
  -21.8814   -3.8162   23.4336 C   0  0  0  0  0  0
  -21.9185   -4.6958   22.3390 C   0  0  0  0  0  0
  -22.7836  -13.5254   21.1890 C   0  0  0  0  0  0
  -22.1676   -4.2138   21.0967 F   0  0  0  0  0  0
  -21.5651   -3.4589   25.7733 F   0  0  0  0  0  0
  -30.0287  -13.3148   20.4532 N   0  0  0  0  0  0
  -26.3033  -12.9249   20.3418 N   0  0  0  0  0  0
  -25.9309  -11.6442   20.5838 N   0  0  0  0  0  0
  -22.0501  -12.8237   22.0480 N   0  0  0  0  0  0
  -25.4493  -15.1807   20.4032 N   0  0  0  0  0  0
  -31.7761  -14.7331   20.1045 O   0  0  0  0  0  0
  -21.6673   -6.8896   21.4231 O   0  0  0  0  0  0
  -22.3531  -14.5573   20.6775 O   0  0  0  0  0  0
  -24.6114  -31.8663   23.2139 C   0  0  0  0  0  0
  -25.8973  -32.4823   23.8441 C   0  0  1  0  0  0
  -27.2207  -27.3989   20.0952 C   0  0  0  0  0  0
  -25.5802  -33.8632   24.2323 N   0  0  0  0  0  0
  -23.4041  -30.4956   21.5509 C   0  0  2  0  0  0
  -24.8487  -28.9619   20.1234 C   0  0  0  0  0  0
  -22.7388  -29.4705   22.4965 C   0  0  0  0  0  0
  -18.0318  -28.1353   22.8469 C   0  0  0  0  0  0
  -24.1491  -36.7350   23.2647 C   0  0  0  0  0  0
  -25.9409  -30.8259   21.3710 C   0  0  0  0  0  0
  -26.0190  -29.4584   20.7125 C   0  0  0  0  0  0
  -27.2088  -28.6861   20.6920 C   0  0  0  0  0  0
  -26.0212  -26.9323   19.5007 C   0  0  0  0  0  0
  -24.8465  -27.7004   19.5169 C   0  0  0  0  0  0
  -23.6137  -29.8285   20.1700 C   0  0  0  0  0  0
  -25.4121  -36.3118   24.0326 C   0  0  1  0  0  0
  -20.5882  -28.3689   23.1319 C   0  0  2  0  0  0
  -20.6806  -26.9427   22.5375 C   0  0  0  0  0  0
  -19.5814  -26.6469   21.5138 C   0  0  0  0  0  0
  -18.2003  -26.7912   22.1541 C   0  0  0  0  0  0
  -19.1538  -28.8842   23.2905 C   0  0  0  0  0  0
  -18.9462  -30.1434   23.8958 C   0  0  0  0  0  0
  -17.6449  -30.6557   24.0584 C   0  0  0  0  0  0
  -25.9030  -34.9473   23.5144 C   0  0  0  0  0  0
  -16.5341  -29.9047   23.6317 C   0  0  0  0  0  0
  -16.7293  -28.6465   23.0322 C   0  0  0  0  0  0
  -26.4445  -31.6582   25.0751 C   0  0  0  0  0  0
  -25.3775  -31.3647   26.1546 C   0  0  0  0  0  0
  -27.0258  -30.3022   24.6099 C   0  0  0  0  0  0
  -27.5990  -32.4354   25.7494 C   0  0  0  0  0  0
  -27.5597  -37.1831   24.8452 C   0  0  0  0  0  0
  -21.4113  -29.3098   22.3722 N   0  0  0  0  0  0
  -26.4310  -37.3794   23.9387 N   0  0  0  0  0  0
  -24.6695  -31.0757   22.1039 N   0  0  0  0  0  0
  -23.4129  -28.8215   23.2992 O   0  0  0  0  0  0
  -28.3706  -26.6206   20.1129 O   0  0  0  0  0  0
  -26.5629  -34.8917   22.4731 O   0  0  0  0  0  0
  -23.5284  -32.1409   23.7512 O   0  0  0  0  0  0
  -30.3733  -19.2972   23.2570 C   0  0  0  0  0  0
  -30.1025  -18.0903   22.5877 C   0  0  0  0  0  0
  -30.3785  -20.5172   22.5544 C   0  0  0  0  0  0
  -29.8320  -18.0817   21.1990 C   0  0  0  0  0  0
  -30.0886  -20.5614   21.1735 C   0  0  0  0  0  0
  -29.7908  -19.3357   20.5028 C   0  0  0  0  0  0
  -29.5815  -16.7413   20.4710 C   0  0  0  0  0  0
  -30.2295  -21.9210   20.4501 C   0  0  0  0  0  0
  -29.4480  -24.3263   20.3432 C   0  0  0  0  0  0
  -28.1614  -25.1841   20.1790 C   0  0  0  0  0  0
  -29.9616  -15.4963   21.1856 N   0  0  0  0  0  0
  -29.1628  -22.9133   20.7570 N   0  3  0  0  0  0
  -29.3975  -19.3601   18.8176 Cl  0  0  0  0  0  0
  -31.4827  -12.4814   19.1099 H   0  0  0  0  0  0
  -30.3932  -11.3286   19.8191 H   0  0  0  0  0  0
  -29.7548  -11.7830   17.4482 H   0  0  0  0  0  0
  -29.6484  -13.4960   17.7724 H   0  0  0  0  0  0
  -27.8783  -11.2829   18.8817 H   0  0  0  0  0  0
  -27.3604  -12.5708   17.8121 H   0  0  0  0  0  0
  -27.7055  -14.2411   19.5658 H   0  0  0  0  0  0
  -28.6997  -11.9522   21.3366 H   0  0  0  0  0  0
  -28.4521  -13.5827   21.8874 H   0  0  0  0  0  0
  -25.2717   -9.5713   22.4766 H   0  0  0  0  0  0
  -24.0001   -7.4594   22.7414 H   0  0  0  0  0  0
  -21.0851   -8.8783   19.8920 H   0  0  0  0  0  0
  -22.3634  -10.9720   19.6165 H   0  0  0  0  0  0
  -21.1951   -7.6159   23.9718 H   0  0  0  0  0  0
  -21.1487   -6.0523   25.9087 H   0  0  0  0  0  0
  -22.0600   -2.7628   23.2812 H   0  0  0  0  0  0
  -22.4109  -11.9829   22.4708 H   0  0  0  0  0  0
  -21.1104  -13.1157   22.2747 H   0  0  0  0  0  0
  -24.7167  -15.8706   20.5252 H   0  0  0  0  0  0
  -26.3252  -15.5847   20.0962 H   0  0  0  0  0  0
  -26.7026  -32.5539   23.1190 H   0  0  0  0  0  0
  -24.9767  -33.9789   25.0336 H   0  0  0  0  0  0
  -22.6974  -31.3172   21.4118 H   0  0  0  0  0  0
  -23.3718  -35.9710   23.3315 H   0  0  0  0  0  0
  -24.3606  -36.8983   22.2064 H   0  0  0  0  0  0
  -23.7286  -37.6574   23.6680 H   0  0  0  0  0  0
  -26.0525  -31.5949   20.6077 H   0  0  0  0  0  0
  -26.8288  -30.8820   21.9861 H   0  0  0  0  0  0
  -28.1103  -29.0584   21.1576 H   0  0  0  0  0  0
  -25.9587  -25.9687   19.0162 H   0  0  0  0  0  0
  -23.9365  -27.3033   19.0855 H   0  0  0  0  0  0
  -23.7273  -30.6009   19.4086 H   0  0  0  0  0  0
  -22.7384  -29.2473   19.8717 H   0  0  0  0  0  0
  -25.1307  -36.2007   25.0815 H   0  0  0  0  0  0
  -21.0025  -28.3191   24.1426 H   0  0  0  0  0  0
  -20.5872  -26.2246   23.3518 H   0  0  0  0  0  0
  -21.6649  -26.7589   22.1041 H   0  0  0  0  0  0
  -19.6731  -27.3494   20.6846 H   0  0  0  0  0  0
  -19.7071  -25.6519   21.0885 H   0  0  0  0  0  0
  -17.4320  -26.6639   21.3897 H   0  0  0  0  0  0
  -18.0500  -25.9991   22.8883 H   0  0  0  0  0  0
  -19.7948  -30.7280   24.2277 H   0  0  0  0  0  0
  -17.5015  -31.6254   24.5147 H   0  0  0  0  0  0
  -15.5338  -30.2950   23.7585 H   0  0  0  0  0  0
  -15.8744  -28.0758   22.6986 H   0  0  0  0  0  0
  -24.5912  -30.7033   25.7902 H   0  0  0  0  0  0
  -24.9040  -32.2800   26.5098 H   0  0  0  0  0  0
  -25.8203  -30.8748   27.0231 H   0  0  0  0  0  0
  -26.2752  -29.6800   24.1224 H   0  0  0  0  0  0
  -27.4087  -29.7247   25.4520 H   0  0  0  0  0  0
  -27.8575  -30.4317   23.9184 H   0  0  0  0  0  0
  -27.2496  -33.3570   26.2158 H   0  0  0  0  0  0
  -28.3704  -32.7090   25.0287 H   0  0  0  0  0  0
  -28.0770  -31.8497   26.5353 H   0  0  0  0  0  0
  -28.2599  -38.0127   24.7487 H   0  0  0  0  0  0
  -28.1098  -36.2679   24.6283 H   0  0  0  0  0  0
  -27.2324  -37.1487   25.8847 H   0  0  0  0  0  0
  -20.9243  -29.8707   21.6878 H   0  0  0  0  0  0
  -26.0202  -38.2869   24.1394 H   0  0  0  0  0  0
  -30.5845  -19.2828   24.3210 H   0  0  0  0  0  0
  -30.1008  -17.1793   23.1629 H   0  0  0  0  0  0
  -30.6347  -21.4211   23.0893 H   0  0  0  0  0  0
  -30.0877  -16.7817   19.5019 H   0  0  0  0  0  0
  -28.5145  -16.6827   20.2454 H   0  0  0  0  0  0
  -30.3006  -21.8022   19.3641 H   0  0  0  0  0  0
  -31.1919  -22.3452   20.7524 H   0  0  0  0  0  0
  -30.1167  -24.7777   21.0828 H   0  0  0  0  0  0
  -29.9851  -24.3366   19.3941 H   0  0  0  0  0  0
  -27.4814  -24.9833   21.0121 H   0  0  0  0  0  0
  -27.6735  -24.8306   19.2705 H   0  0  0  0  0  0
  -30.2901  -15.6770   22.1276 H   0  0  0  0  0  0
  -28.9994  -22.9091   21.7523 H   0  0  0  0  0  0
  -28.3170  -22.5965   20.3114 H   0  0  0  0  0  0
  1 25  1  0  0  0
  1 30  2  0  0  0
  1 81  1  0  0  0
  2  3  1  0  0  0
  2 25  1  0  0  0
  2 84  1  0  0  0
  2 85  1  0  0  0
  3  4  1  0  0  0
  3 86  1  0  0  0
  3 87  1  0  0  0
  4  5  1  0  0  0
  4 88  1  0  0  0
  4 89  1  0  0  0
  5  6  1  0  0  0
  5 26  1  0  0  0
  5 90  1  0  0  0
  6 25  1  0  0  0
  6 91  1  0  0  0
  6 92  1  0  0  0
  7  8  2  0  0  0
  7 26  1  0  0  0
  7 29  1  0  0  0
  8  9  1  0  0  0
  8 22  1  0  0  0
  9 10  1  0  0  0
  9 27  2  0  0  0
 10 11  2  0  0  0
 10 15  1  0  0  0
 11 12  1  0  0  0
 11 93  1  0  0  0
 12 13  2  0  0  0
 12 94  1  0  0  0
 13 14  1  0  0  0
 13 31  1  0  0  0
 14 15  2  0  0  0
 14 95  1  0  0  0
 15 96  1  0  0  0
 16 17  2  0  0  0
 16 21  1  0  0  0
 16 31  1  0  0  0
 17 18  1  0  0  0
 17 97  1  0  0  0
 18 19  2  0  0  0
 18 98  1  0  0  0
 19 20  1  0  0  0
 19 24  1  0  0  0
 20 21  2  0  0  0
 20 99  1  0  0  0
 21 23  1  0  0  0
 22 28  1  0  0  0
 22 32  2  0  0  0
 26 27  1  0  0  0
 28100  1  0  0  0
 28101  1  0  0  0
 29102  1  0  0  0
 29103  1  0  0  0
 33 34  1  0  0  0
 33 66  1  0  0  0
 33 70  2  0  0  0
 34 36  1  0  0  0
 34 59  1  0  0  0
 34104  1  0  0  0
 35 44  2  0  0  0
 35 45  1  0  0  0
 35 68  1  0  0  0
 36 56  1  0  0  0
 36105  1  0  0  0
 37 39  1  0  0  0
 37 47  1  0  0  0
 37 66  1  0  0  0
 37106  1  0  0  0
 38 43  2  0  0  0
 38 46  1  0  0  0
 38 47  1  0  0  0
 39 64  1  0  0  0
 39 67  2  0  0  0
 40 52  1  0  0  0
 40 53  2  0  0  0
 40 58  1  0  0  0
 41107  1  0  0  0
 41108  1  0  0  0
 41109  1  0  0  0
 41 48  1  0  0  0
 42 43  1  0  0  0
 42 66  1  0  0  0
 42110  1  0  0  0
 42111  1  0  0  0
 43 44  1  0  0  0
 44112  1  0  0  0
 45 46  2  0  0  0
 45113  1  0  0  0
 46114  1  0  0  0
 47115  1  0  0  0
 47116  1  0  0  0
 48 56  1  0  0  0
 48 65  1  0  0  0
 48117  1  0  0  0
 49 50  1  0  0  0
 49 53  1  0  0  0
 49 64  1  0  0  0
 49118  1  0  0  0
 50 51  1  0  0  0
 50119  1  0  0  0
 50120  1  0  0  0
 51 52  1  0  0  0
 51121  1  0  0  0
 51122  1  0  0  0
 52123  1  0  0  0
 52124  1  0  0  0
 53 54  1  0  0  0
 54 55  2  0  0  0
 54125  1  0  0  0
 55 57  1  0  0  0
 55126  1  0  0  0
 56 69  2  0  0  0
 57 58  2  0  0  0
 57127  1  0  0  0
 58128  1  0  0  0
 59 60  1  0  0  0
 59 61  1  0  0  0
 59 62  1  0  0  0
 60129  1  0  0  0
 60130  1  0  0  0
 60131  1  0  0  0
 61132  1  0  0  0
 61133  1  0  0  0
 61134  1  0  0  0
 62135  1  0  0  0
 62136  1  0  0  0
 62137  1  0  0  0
 63 65  1  0  0  0
 63138  1  0  0  0
 63139  1  0  0  0
 63140  1  0  0  0
 64141  1  0  0  0
 65142  1  0  0  0
 68 80  1  0  0  0
 71 72  2  0  0  0
 71 73  1  0  0  0
 71143  1  0  0  0
 72 74  1  0  0  0
 72144  1  0  0  0
 73 75  2  0  0  0
 73145  1  0  0  0
 74 76  2  0  0  0
 74 77  1  0  0  0
 75 76  1  0  0  0
 75 78  1  0  0  0
 76 83  1  0  0  0
 77 81  1  0  0  0
 77146  1  0  0  0
 77147  1  0  0  0
 78 82  1  0  0  0
 78148  1  0  0  0
 78149  1  0  0  0
 79 80  1  0  0  0
 79 82  1  0  0  0
 79150  1  0  0  0
 79151  1  0  0  0
 80152  1  0  0  0
 80153  1  0  0  0
 81154  1  0  0  0
 82155  1  0  0  0
 82156  1  0  0  0
M  CHG  1  82   1
M  ISO  4   1 100  68 101  80 101  81 100
M  END
> <chiral flag>
0

> <version>
0

> <s_m_source_file>
/data/baiqing/PycharmProjects/Reinvent-master-3.2/result/LINK_invent/BTK/process_docking_weight1_custom_product_contain_oxygen_bond_distance_aromatic_linkinvent_7_9_3/rearranged_h_0035.sdf

> <i_m_source_file_index>
68

> <r_mmod_Potential_Energy-OPLS-2005>
-185.613327026367

> <r_mmod_Stretch_Energy-OPLS-2005>
47.4842872619629

> <r_mmod_Bend_Energy-OPLS-2005>
99.6101837158203

> <r_mmod_Torsional_Energy-OPLS-2005>
261.35400390625

> <r_mmod_Improper_Torsional_Energy-OPLS-2005>
7.65805959701538

> <r_mmod_Van_der_Waal_Energy-OPLS-2005>
154.106079101562

> <r_mmod_Electrostatic_Energy-OPLS-2005>
-312.895782470703

> <r_mmod_Solvation_Energy-OPLS-2005>
-461.6875

> <b_mmod_Minimization_Converged-OPLS-2005>
0

> <r_mmod_RMS_Derivative-OPLS-2005>
7.4249415397644

$$$$
69
                    3D
 Structure written by MMmdl.
172181  0  0  1  0            999 V2000
  -30.6322  -14.7269   20.4747 C   0  0  0  0  0  0
  -30.4500  -12.4337   19.4775 C   0  0  0  0  0  0
  -29.5235  -12.4842   18.2446 C   0  0  0  0  0  0
  -28.0478  -12.3101   18.6587 C   0  0  0  0  0  0
  -27.6446  -13.2191   19.8479 C   0  0  2  0  0  0
  -28.6949  -13.1695   20.9836 C   0  0  0  0  0  0
  -25.2245  -13.7924   20.5368 C   0  0  0  0  0  0
  -24.1693  -13.0211   20.9335 C   0  0  0  0  0  0
  -24.6429  -11.6777   20.8860 C   0  0  0  0  0  0
  -23.9101  -10.4176   21.0403 C   0  0  0  0  0  0
  -24.3610   -9.4114   21.9216 C   0  0  0  0  0  0
  -23.6262   -8.2165   22.0772 C   0  0  0  0  0  0
  -22.4268   -8.0211   21.3547 C   0  0  0  0  0  0
  -21.9922   -9.0176   20.4672 C   0  0  0  0  0  0
  -22.7246  -10.2053   20.3075 C   0  0  0  0  0  0
  -21.6859   -6.0691   22.5257 C   0  0  0  0  0  0
  -21.4000   -6.5601   23.8186 C   0  0  0  0  0  0
  -21.3655   -5.6771   24.9155 C   0  0  0  0  0  0
  -21.6049   -4.3028   24.7206 C   0  0  0  0  0  0
  -21.8816   -3.8121   23.4317 C   0  0  0  0  0  0
  -21.9196   -4.6932   22.3384 C   0  0  0  0  0  0
  -22.7720  -13.5018   21.1823 C   0  0  0  0  0  0
  -22.1676   -4.2120   21.0974 F   0  0  0  0  0  0
  -21.5639   -3.4522   25.7731 F   0  0  0  0  0  0
  -30.0141  -13.4977   20.4066 N   0  0  0  0  0  0
  -26.2910  -12.9295   20.3256 N   0  0  0  0  0  0
  -25.9352  -11.6459   20.5809 N   0  0  0  0  0  0
  -22.0323  -12.8146   22.0467 N   0  0  0  0  0  0
  -25.3023  -15.1416   20.2728 N   0  0  0  0  0  0
  -31.8208  -14.8580   20.1542 O   0  0  0  0  0  0
  -21.6616   -6.8806   21.4233 O   0  0  0  0  0  0
  -22.3381  -14.5205   20.6482 O   0  0  0  0  0  0
  -24.6183  -31.8549   23.1997 C   0  0  0  0  0  0
  -25.8994  -32.4805   23.8343 C   0  0  1  0  0  0
  -27.2768  -27.3303   20.2397 C   0  0  0  0  0  0
  -25.5769  -33.8593   24.2246 N   0  0  0  0  0  0
  -23.4232  -30.4631   21.5329 C   0  0  2  0  0  0
  -24.8978  -28.9078   20.1308 C   0  0  0  0  0  0
  -22.7455  -29.4566   22.4925 C   0  0  0  0  0  0
  -18.0260  -28.1410   22.8467 C   0  0  0  0  0  0
  -24.1468  -36.7340   23.2653 C   0  0  0  0  0  0
  -25.9555  -30.8060   21.3684 C   0  0  0  0  0  0
  -26.0496  -29.4253   20.7378 C   0  0  0  0  0  0
  -27.2407  -28.6491   20.7791 C   0  0  0  0  0  0
  -26.1154  -26.8576   19.5955 C   0  0  0  0  0  0
  -24.9343  -27.6286   19.5416 C   0  0  0  0  0  0
  -23.6499  -29.7671   20.1596 C   0  0  0  0  0  0
  -25.4100  -36.3118   24.0319 C   0  0  1  0  0  0
  -20.5867  -28.3667   23.1295 C   0  0  2  0  0  0
  -20.6752  -26.9391   22.5413 C   0  0  0  0  0  0
  -19.5719  -26.6377   21.5228 C   0  0  0  0  0  0
  -18.1904  -26.7927   22.1658 C   0  0  0  0  0  0
  -19.1526  -28.8862   23.2871 C   0  0  0  0  0  0
  -18.9472  -30.1477   23.8858 C   0  0  0  0  0  0
  -17.6483  -30.6601   24.0564 C   0  0  0  0  0  0
  -25.9014  -34.9469   23.5111 C   0  0  0  0  0  0
  -16.5356  -29.9101   23.6358 C   0  0  0  0  0  0
  -16.7255  -28.6537   23.0332 C   0  0  0  0  0  0
  -26.4459  -31.6670   25.0723 C   0  0  0  0  0  0
  -25.3720  -31.3732   26.1455 C   0  0  0  0  0  0
  -27.0497  -30.3178   24.6180 C   0  0  0  0  0  0
  -27.5864  -32.4595   25.7520 C   0  0  0  0  0  0
  -27.5579  -37.1820   24.8455 C   0  0  0  0  0  0
  -21.4168  -29.2995   22.3669 N   0  0  0  0  0  0
  -26.4303  -37.3783   23.9371 N   0  0  0  0  0  0
  -24.6822  -31.0607   22.0908 N   0  0  0  0  0  0
  -23.4175  -28.8117   23.3032 O   0  0  0  0  0  0
  -28.4245  -26.5344   20.2804 O   0  0  0  0  0  0
  -26.5662  -34.8947   22.4728 O   0  0  0  0  0  0
  -23.5343  -32.1278   23.7345 O   0  0  0  0  0  0
  -30.9681  -18.0960   21.0137 C   0  0  0  0  0  0
  -30.8724  -19.5231   21.1836 C   0  0  0  0  0  0
  -28.5481  -19.4451   20.5608 C   0  0  0  0  0  0
  -29.6321  -20.2399   21.0092 C   0  0  0  0  0  0
  -28.6448  -18.0186   20.4806 C   0  0  0  0  0  0
  -29.8473  -17.2829   20.7018 C   0  0  0  0  0  0
  -29.3557  -25.6038   22.3600 C   0  0  0  0  0  0
  -30.1617  -24.4097   22.9018 C   0  0  0  0  0  0
  -28.9549  -24.0210   20.2559 C   0  0  0  0  0  0
  -28.4736  -25.2962   21.1052 C   0  0  2  0  0  0
  -30.8729  -23.6630   21.7703 C   0  0  2  0  0  0
  -32.1475  -20.2506   21.5623 C   0  0  0  0  0  0
  -27.2168  -20.1147   20.2268 C   0  0  0  0  0  0
  -27.3643  -17.2715   20.2189 C   0  0  0  0  0  0
  -31.7739  -24.6026   20.9509 C   0  0  0  0  0  0
  -29.3264  -21.7184   21.5298 C   0  0  0  0  0  0
  -29.7925  -15.7991   20.6816 N   0  0  0  0  0  0
  -29.8882  -22.9804   20.8874 N   0  3  1  0  0  0
  -31.4902  -12.5540   19.1664 H   0  0  0  0  0  0
  -30.3875  -11.4561   19.9602 H   0  0  0  0  0  0
  -29.7993  -11.7008   17.5387 H   0  0  0  0  0  0
  -29.6642  -13.4332   17.7216 H   0  0  0  0  0  0
  -27.9145  -11.2628   18.9344 H   0  0  0  0  0  0
  -27.3905  -12.4822   17.8098 H   0  0  0  0  0  0
  -27.6303  -14.2329   19.4535 H   0  0  0  0  0  0
  -28.7362  -12.1868   21.4539 H   0  0  0  0  0  0
  -28.4289  -13.8735   21.7786 H   0  0  0  0  0  0
  -25.2716   -9.5585   22.4831 H   0  0  0  0  0  0
  -23.9923   -7.4577   22.7521 H   0  0  0  0  0  0
  -21.0844   -8.8667   19.9020 H   0  0  0  0  0  0
  -22.3624  -10.9573   19.6193 H   0  0  0  0  0  0
  -21.1996   -7.6122   23.9675 H   0  0  0  0  0  0
  -21.1487   -6.0507   25.9053 H   0  0  0  0  0  0
  -22.0616   -2.7575   23.2812 H   0  0  0  0  0  0
  -22.3898  -11.9864   22.4997 H   0  0  0  0  0  0
  -21.0961  -13.1236   22.2605 H   0  0  0  0  0  0
  -24.3783  -15.5511   20.1795 H   0  0  0  0  0  0
  -25.8907  -15.3943   19.4865 H   0  0  0  0  0  0
  -26.7052  -32.5527   23.1124 H   0  0  0  0  0  0
  -24.9696  -33.9734   25.0233 H   0  0  0  0  0  0
  -22.7127  -31.2765   21.3683 H   0  0  0  0  0  0
  -23.3719  -35.9690   23.3341 H   0  0  0  0  0  0
  -24.3538  -36.8952   22.2072 H   0  0  0  0  0  0
  -23.7290  -37.6558   23.6681 H   0  0  0  0  0  0
  -26.0749  -31.5606   20.5905 H   0  0  0  0  0  0
  -26.8354  -30.8742   21.9991 H   0  0  0  0  0  0
  -28.1231  -29.0394   21.2648 H   0  0  0  0  0  0
  -26.1285  -25.8693   19.1555 H   0  0  0  0  0  0
  -24.0599  -27.2162   19.0580 H   0  0  0  0  0  0
  -23.7487  -30.5189   19.3736 H   0  0  0  0  0  0
  -22.7878  -29.1555   19.8821 H   0  0  0  0  0  0
  -25.1336  -36.1949   25.0825 H   0  0  0  0  0  0
  -20.9967  -28.3233   24.1435 H   0  0  0  0  0  0
  -20.5665  -26.2272   23.3611 H   0  0  0  0  0  0
  -21.6605  -26.7410   22.1209 H   0  0  0  0  0  0
  -19.6845  -25.6295   21.1244 H   0  0  0  0  0  0
  -19.6650  -27.3204   20.6779 H   0  0  0  0  0  0
  -17.4162  -26.6633   21.4083 H   0  0  0  0  0  0
  -18.0313  -26.0109   22.9111 H   0  0  0  0  0  0
  -19.7957  -30.7298   24.2168 H   0  0  0  0  0  0
  -17.5050  -31.6268   24.5191 H   0  0  0  0  0  0
  -15.5362  -30.3010   23.7738 H   0  0  0  0  0  0
  -15.8646  -28.0894   22.7038 H   0  0  0  0  0  0
  -24.6113  -30.6814   25.7912 H   0  0  0  0  0  0
  -24.8643  -32.2853   26.4632 H   0  0  0  0  0  0
  -25.8117  -30.9268   27.0392 H   0  0  0  0  0  0
  -26.3235  -29.6851   24.1074 H   0  0  0  0  0  0
  -27.4194  -29.7460   25.4714 H   0  0  0  0  0  0
  -27.8990  -30.4655   23.9531 H   0  0  0  0  0  0
  -27.2156  -33.3583   26.2458 H   0  0  0  0  0  0
  -28.3395  -32.7751   25.0295 H   0  0  0  0  0  0
  -28.0898  -31.8641   26.5148 H   0  0  0  0  0  0
  -28.2624  -38.0090   24.7461 H   0  0  0  0  0  0
  -28.1063  -36.2619   24.6351 H   0  0  0  0  0  0
  -27.2268  -37.1550   25.8852 H   0  0  0  0  0  0
  -20.9356  -29.8694   21.6854 H   0  0  0  0  0  0
  -26.0191  -38.2872   24.1330 H   0  0  0  0  0  0
  -31.9162  -17.6136   21.1934 H   0  0  0  0  0  0
  -30.0623  -26.4019   22.1357 H   0  0  0  0  0  0
  -28.7461  -26.0022   23.1745 H   0  0  0  0  0  0
  -29.5293  -23.7382   23.4835 H   0  0  0  0  0  0
  -30.9269  -24.7521   23.5969 H   0  0  0  0  0  0
  -29.5445  -24.4288   19.4378 H   0  0  0  0  0  0
  -28.1261  -23.5556   19.7254 H   0  0  0  0  0  0
  -27.4803  -25.0705   21.4963 H   0  0  0  0  0  0
  -31.5207  -22.9496   22.2772 H   0  0  0  0  0  0
  -32.9997  -19.8383   21.0276 H   0  0  0  0  0  0
  -32.3667  -20.2069   22.6320 H   0  0  0  0  0  0
  -32.1157  -21.2803   21.2392 H   0  0  0  0  0  0
  -26.5182  -20.0022   21.0569 H   0  0  0  0  0  0
  -26.7755  -19.6601   19.3440 H   0  0  0  0  0  0
  -27.2987  -21.1736   19.9878 H   0  0  0  0  0  0
  -26.5955  -17.6361   20.8991 H   0  0  0  0  0  0
  -27.4623  -16.2139   20.4055 H   0  0  0  0  0  0
  -27.0248  -17.4077   19.1959 H   0  0  0  0  0  0
  -31.2324  -25.4271   20.4870 H   0  0  0  0  0  0
  -32.2722  -24.0787   20.1391 H   0  0  0  0  0  0
  -32.5225  -25.0492   21.6000 H   0  0  0  0  0  0
  -29.6663  -21.6631   22.5610 H   0  0  0  0  0  0
  -28.2603  -21.9035   21.6809 H   0  0  0  0  0  0
  -28.8393  -15.4709   20.6918 H   0  0  0  0  0  0
  -30.3955  -22.6084   20.0975 H   0  0  0  0  0  0
  1 25  1  0  0  0
  1 30  2  0  0  0
  1 87  1  0  0  0
  2  3  1  0  0  0
  2 25  1  0  0  0
  2 89  1  0  0  0
  2 90  1  0  0  0
  3  4  1  0  0  0
  3 91  1  0  0  0
  3 92  1  0  0  0
  4  5  1  0  0  0
  4 93  1  0  0  0
  4 94  1  0  0  0
  5  6  1  0  0  0
  5 26  1  0  0  0
  5 95  1  0  0  0
  6 25  1  0  0  0
  6 96  1  0  0  0
  6 97  1  0  0  0
  7  8  2  0  0  0
  7 26  1  0  0  0
  7 29  1  0  0  0
  8  9  1  0  0  0
  8 22  1  0  0  0
  9 10  1  0  0  0
  9 27  2  0  0  0
 10 11  2  0  0  0
 10 15  1  0  0  0
 11 12  1  0  0  0
 11 98  1  0  0  0
 12 13  2  0  0  0
 12 99  1  0  0  0
 13 14  1  0  0  0
 13 31  1  0  0  0
 14 15  2  0  0  0
 14100  1  0  0  0
 15101  1  0  0  0
 16 17  2  0  0  0
 16 21  1  0  0  0
 16 31  1  0  0  0
 17 18  1  0  0  0
 17102  1  0  0  0
 18 19  2  0  0  0
 18103  1  0  0  0
 19 20  1  0  0  0
 19 24  1  0  0  0
 20 21  2  0  0  0
 20104  1  0  0  0
 21 23  1  0  0  0
 22 28  1  0  0  0
 22 32  2  0  0  0
 26 27  1  0  0  0
 28105  1  0  0  0
 28106  1  0  0  0
 29107  1  0  0  0
 29108  1  0  0  0
 33 34  1  0  0  0
 33 66  1  0  0  0
 33 70  2  0  0  0
 34 36  1  0  0  0
 34 59  1  0  0  0
 34109  1  0  0  0
 35 44  2  0  0  0
 35 45  1  0  0  0
 35 68  1  0  0  0
 36 56  1  0  0  0
 36110  1  0  0  0
 37 39  1  0  0  0
 37 47  1  0  0  0
 37 66  1  0  0  0
 37111  1  0  0  0
 38 43  2  0  0  0
 38 46  1  0  0  0
 38 47  1  0  0  0
 39 64  1  0  0  0
 39 67  2  0  0  0
 40 52  1  0  0  0
 40 53  2  0  0  0
 40 58  1  0  0  0
 41112  1  0  0  0
 41113  1  0  0  0
 41114  1  0  0  0
 41 48  1  0  0  0
 42 43  1  0  0  0
 42 66  1  0  0  0
 42115  1  0  0  0
 42116  1  0  0  0
 43 44  1  0  0  0
 44117  1  0  0  0
 45 46  2  0  0  0
 45118  1  0  0  0
 46119  1  0  0  0
 47120  1  0  0  0
 47121  1  0  0  0
 48 56  1  0  0  0
 48 65  1  0  0  0
 48122  1  0  0  0
 49 50  1  0  0  0
 49 53  1  0  0  0
 49 64  1  0  0  0
 49123  1  0  0  0
 50 51  1  0  0  0
 50124  1  0  0  0
 50125  1  0  0  0
 51 52  1  0  0  0
 51126  1  0  0  0
 51127  1  0  0  0
 52128  1  0  0  0
 52129  1  0  0  0
 53 54  1  0  0  0
 54 55  2  0  0  0
 54130  1  0  0  0
 55 57  1  0  0  0
 55131  1  0  0  0
 56 69  2  0  0  0
 57 58  2  0  0  0
 57132  1  0  0  0
 58133  1  0  0  0
 59 60  1  0  0  0
 59 61  1  0  0  0
 59 62  1  0  0  0
 60134  1  0  0  0
 60135  1  0  0  0
 60136  1  0  0  0
 61137  1  0  0  0
 61138  1  0  0  0
 61139  1  0  0  0
 62140  1  0  0  0
 62141  1  0  0  0
 62142  1  0  0  0
 63 65  1  0  0  0
 63143  1  0  0  0
 63144  1  0  0  0
 63145  1  0  0  0
 64146  1  0  0  0
 65147  1  0  0  0
 68 80  1  0  0  0
 71 72  2  0  0  0
 71 76  1  0  0  0
 71148  1  0  0  0
 72 74  1  0  0  0
 72 82  1  0  0  0
 73 74  2  0  0  0
 73 75  1  0  0  0
 73 83  1  0  0  0
 74 86  1  0  0  0
 75 76  2  0  0  0
 75 84  1  0  0  0
 76 87  1  0  0  0
 77 78  1  0  0  0
 77 80  1  0  0  0
 77149  1  0  0  0
 77150  1  0  0  0
 78 81  1  0  0  0
 78151  1  0  0  0
 78152  1  0  0  0
 79 80  1  0  0  0
 79 88  1  0  0  0
 79153  1  0  0  0
 79154  1  0  0  0
 80155  1  0  0  0
 81 85  1  0  0  0
 81 88  1  0  0  0
 81156  1  0  0  0
 82157  1  0  0  0
 82158  1  0  0  0
 82159  1  0  0  0
 83160  1  0  0  0
 83161  1  0  0  0
 83162  1  0  0  0
 84163  1  0  0  0
 84164  1  0  0  0
 84165  1  0  0  0
 85166  1  0  0  0
 85167  1  0  0  0
 85168  1  0  0  0
 86169  1  0  0  0
 86170  1  0  0  0
 86 88  1  0  0  0
 87171  1  0  0  0
 88172  1  0  0  0
M  CHG  1  88   1
M  ISO  4   1 100  68 101  80 101  87 100
M  END
> <chiral flag>
0

> <version>
0

> <s_m_source_file>
/data/baiqing/PycharmProjects/Reinvent-master-3.2/result/LINK_invent/BTK/process_docking_weight1_custom_product_contain_oxygen_bond_distance_aromatic_linkinvent_7_9_3/rearranged_h_0035.sdf

> <i_m_source_file_index>
69

> <r_mmod_Potential_Energy-OPLS-2005>
190.284210205078

> <r_mmod_Stretch_Energy-OPLS-2005>
101.004592895508

> <r_mmod_Bend_Energy-OPLS-2005>
194.431228637695

> <r_mmod_Torsional_Energy-OPLS-2005>
326.793731689453

> <r_mmod_Improper_Torsional_Energy-OPLS-2005>
13.8539543151855

> <r_mmod_Van_der_Waal_Energy-OPLS-2005>
177.124359130859

> <r_mmod_Electrostatic_Energy-OPLS-2005>
-296.950164794922

> <r_mmod_Solvation_Energy-OPLS-2005>
-402.253265380859

> <b_mmod_Minimization_Converged-OPLS-2005>
0

> <r_mmod_RMS_Derivative-OPLS-2005>
10.2784700393677

$$$$
70
                    3D
 Structure written by MMmdl.
158167  0  0  1  0            999 V2000
  -30.5569  -14.9738   20.4930 C   0  0  0  0  0  0
  -30.4402  -12.6101   19.5355 C   0  0  0  0  0  0
  -29.5380  -12.5380   18.2774 C   0  0  0  0  0  0
  -28.0673  -12.3086   18.6684 C   0  0  0  0  0  0
  -27.6268  -13.2440   19.8180 C   0  0  2  0  0  0
  -28.6472  -13.2745   20.9659 C   0  0  0  0  0  0
  -25.2481  -13.8205   20.5650 C   0  0  0  0  0  0
  -24.1798  -13.0441   20.9206 C   0  0  0  0  0  0
  -24.6398  -11.6925   20.8728 C   0  0  0  0  0  0
  -23.9077  -10.4303   21.0422 C   0  0  0  0  0  0
  -24.3624   -9.4221   21.9200 C   0  0  0  0  0  0
  -23.6308   -8.2252   22.0759 C   0  0  0  0  0  0
  -22.4284   -8.0289   21.3552 C   0  0  0  0  0  0
  -21.9921   -9.0261   20.4655 C   0  0  0  0  0  0
  -22.7249  -10.2142   20.3072 C   0  0  0  0  0  0
  -21.6858   -6.0746   22.5286 C   0  0  0  0  0  0
  -21.4016   -6.5647   23.8220 C   0  0  0  0  0  0
  -21.3657   -5.6795   24.9178 C   0  0  0  0  0  0
  -21.6044   -4.3059   24.7223 C   0  0  0  0  0  0
  -21.8820   -3.8155   23.4343 C   0  0  0  0  0  0
  -21.9199   -4.6975   22.3402 C   0  0  0  0  0  0
  -22.7825  -13.5229   21.1895 C   0  0  0  0  0  0
  -22.1669   -4.2165   21.0979 F   0  0  0  0  0  0
  -21.5626   -3.4542   25.7733 F   0  0  0  0  0  0
  -29.9467  -13.7087   20.4275 N   0  0  0  0  0  0
  -26.2854  -12.9412   20.3058 N   0  0  0  0  0  0
  -25.9314  -11.6553   20.5636 N   0  0  0  0  0  0
  -22.0462  -12.8230   22.0447 N   0  0  0  0  0  0
  -25.4209  -15.1936   20.4152 N   0  0  0  0  0  0
  -31.7159  -15.0279   20.0632 O   0  0  0  0  0  0
  -21.6645   -6.8892   21.4248 O   0  0  0  0  0  0
  -22.3521  -14.5542   20.6753 O   0  0  0  0  0  0
  -24.6477  -31.8425   23.1858 C   0  0  0  0  0  0
  -25.9233  -32.4689   23.8257 C   0  0  1  0  0  0
  -27.2129  -27.1072   20.1439 C   0  0  0  0  0  0
  -25.5968  -33.8494   24.2174 N   0  0  0  0  0  0
  -23.4509  -30.4644   21.5345 C   0  0  2  0  0  0
  -24.8961  -28.8885   20.1156 C   0  0  0  0  0  0
  -22.7586  -29.4557   22.4861 C   0  0  0  0  0  0
  -18.0311  -28.1400   22.8478 C   0  0  0  0  0  0
  -24.1494  -36.7253   23.2642 C   0  0  0  0  0  0
  -26.0116  -30.7111   21.3843 C   0  0  0  0  0  0
  -26.0820  -29.3213   20.7218 C   0  0  0  0  0  0
  -27.2427  -28.4523   20.7079 C   0  0  0  0  0  0
  -25.9766  -26.7712   19.5439 C   0  0  0  0  0  0
  -24.8576  -27.6265   19.5134 C   0  0  0  0  0  0
  -23.6770  -29.7955   20.1549 C   0  0  0  0  0  0
  -25.4129  -36.3027   24.0310 C   0  0  1  0  0  0
  -20.5927  -28.3733   23.1228 C   0  0  2  0  0  0
  -20.6802  -26.9435   22.5400 C   0  0  0  0  0  0
  -19.5771  -26.6383   21.5213 C   0  0  0  0  0  0
  -18.1951  -26.7936   22.1624 C   0  0  0  0  0  0
  -19.1567  -28.8884   23.2843 C   0  0  0  0  0  0
  -18.9478  -30.1479   23.8871 C   0  0  0  0  0  0
  -17.6473  -30.6595   24.0558 C   0  0  0  0  0  0
  -25.9082  -34.9403   23.5053 C   0  0  0  0  0  0
  -16.5368  -29.9085   23.6338 C   0  0  0  0  0  0
  -16.7291  -28.6505   23.0357 C   0  0  0  0  0  0
  -26.4531  -31.6565   25.0711 C   0  0  0  0  0  0
  -25.3701  -31.3760   26.1395 C   0  0  0  0  0  0
  -27.0398  -30.2959   24.6305 C   0  0  0  0  0  0
  -27.6054  -32.4337   25.7506 C   0  0  0  0  0  0
  -27.5577  -37.1786   24.8463 C   0  0  0  0  0  0
  -21.4275  -29.3058   22.3601 N   0  0  0  0  0  0
  -26.4290  -37.3742   23.9404 N   0  0  0  0  0  0
  -24.7243  -31.0263   22.0903 N   0  0  0  0  0  0
  -23.4218  -28.8097   23.3010 O   0  0  0  0  0  0
  -28.2769  -26.1172   20.1886 O   0  0  0  0  0  0
  -26.5663  -34.8905   22.4627 O   0  0  0  0  0  0
  -23.5590  -32.1308   23.7068 O   0  0  0  0  0  0
  -28.7461  -18.8734   22.0521 C   0  0  0  0  0  0
  -28.7096  -17.6488   22.7514 C   0  0  0  0  0  0
  -29.9690  -17.7102   20.3106 C   0  0  0  0  0  0
  -29.8882  -16.3681   20.9801 C   0  0  0  0  0  0
  -29.4346  -19.0106   20.8330 C   0  0  0  0  0  0
  -29.3224  -16.4616   22.2849 C   0  0  0  0  0  0
  -27.2296  -22.8371   18.3423 C   0  0  0  0  0  0
  -27.8656  -24.2383   18.5006 C   0  0  0  0  0  0
  -28.1752  -21.6812   18.7502 C   0  0  0  0  0  0
  -29.0594  -23.2933   20.4756 C   0  0  0  0  0  0
  -28.0576  -24.5676   19.9944 C   0  0  1  0  0  0
  -29.7365  -20.5770   20.3641 C   0  0  0  0  0  0
  -28.6992  -21.7703   20.1418 N   0  3  2  0  0  0
  -29.5063  -15.2072   23.4663 Cl  0  0  0  0  0  0
  -31.4776  -12.7590   19.2341 H   0  0  0  0  0  0
  -30.4304  -11.6582   20.0689 H   0  0  0  0  0  0
  -29.8754  -11.7375   17.6179 H   0  0  0  0  0  0
  -29.6278  -13.4649   17.7086 H   0  0  0  0  0  0
  -27.9662  -11.2685   18.9814 H   0  0  0  0  0  0
  -27.4168  -12.4316   17.8017 H   0  0  0  0  0  0
  -27.5939  -14.2470   19.3912 H   0  0  0  0  0  0
  -28.7296  -12.3036   21.4566 H   0  0  0  0  0  0
  -28.2529  -13.9584   21.7056 H   0  0  0  0  0  0
  -25.2763   -9.5703   22.4783 H   0  0  0  0  0  0
  -24.0022   -7.4636   22.7465 H   0  0  0  0  0  0
  -21.0851   -8.8778   19.8955 H   0  0  0  0  0  0
  -22.3705  -10.9682   19.6186 H   0  0  0  0  0  0
  -21.2004   -7.6157   23.9731 H   0  0  0  0  0  0
  -21.1477   -6.0520   25.9080 H   0  0  0  0  0  0
  -22.0602   -2.7620   23.2834 H   0  0  0  0  0  0
  -22.4055  -11.9884   22.4838 H   0  0  0  0  0  0
  -21.1082  -13.1281   22.2641 H   0  0  0  0  0  0
  -24.6650  -15.8552   20.5535 H   0  0  0  0  0  0
  -26.2820  -15.6345   20.1178 H   0  0  0  0  0  0
  -26.7300  -32.5279   23.0984 H   0  0  0  0  0  0
  -25.0088  -33.9599   25.0305 H   0  0  0  0  0  0
  -22.7551  -31.2918   21.3798 H   0  0  0  0  0  0
  -23.3760  -35.9581   23.3293 H   0  0  0  0  0  0
  -24.3578  -36.8897   22.2058 H   0  0  0  0  0  0
  -23.7245  -37.6445   23.6687 H   0  0  0  0  0  0
  -26.1695  -31.4667   20.6137 H   0  0  0  0  0  0
  -26.8813  -30.7596   22.0278 H   0  0  0  0  0  0
  -28.1513  -28.7884   21.1878 H   0  0  0  0  0  0
  -25.8027  -25.7952   19.1271 H   0  0  0  0  0  0
  -23.9431  -27.2774   19.0537 H   0  0  0  0  0  0
  -23.8198  -30.5698   19.4002 H   0  0  0  0  0  0
  -22.7896  -29.2428   19.8413 H   0  0  0  0  0  0
  -25.1321  -36.1853   25.0803 H   0  0  0  0  0  0
  -21.0014  -28.3321   24.1351 H   0  0  0  0  0  0
  -20.5707  -26.2343   23.3619 H   0  0  0  0  0  0
  -21.6663  -26.7449   22.1186 H   0  0  0  0  0  0
  -19.6934  -25.6284   21.1264 H   0  0  0  0  0  0
  -19.6707  -27.3174   20.6726 H   0  0  0  0  0  0
  -17.4221  -26.6678   21.4028 H   0  0  0  0  0  0
  -18.0355  -26.0087   22.9029 H   0  0  0  0  0  0
  -19.7952  -30.7305   24.2229 H   0  0  0  0  0  0
  -17.5023  -31.6272   24.5161 H   0  0  0  0  0  0
  -15.5364  -30.2973   23.7679 H   0  0  0  0  0  0
  -15.8693  -28.0810   22.7088 H   0  0  0  0  0  0
  -24.5877  -30.7122   25.7698 H   0  0  0  0  0  0
  -24.8896  -32.2945   26.4774 H   0  0  0  0  0  0
  -25.7967  -30.8947   27.0204 H   0  0  0  0  0  0
  -26.3015  -29.6680   24.1302 H   0  0  0  0  0  0
  -27.3991  -29.7266   25.4887 H   0  0  0  0  0  0
  -27.8933  -30.4190   23.9636 H   0  0  0  0  0  0
  -27.2635  -33.3649   26.2034 H   0  0  0  0  0  0
  -28.3893  -32.6881   25.0360 H   0  0  0  0  0  0
  -28.0691  -31.8496   26.5465 H   0  0  0  0  0  0
  -28.2587  -38.0089   24.7511 H   0  0  0  0  0  0
  -28.1081  -36.2619   24.6296 H   0  0  0  0  0  0
  -27.2290  -37.1436   25.8865 H   0  0  0  0  0  0
  -20.9492  -29.8768   21.6776 H   0  0  0  0  0  0
  -26.0157  -38.2811   24.1401 H   0  0  0  0  0  0
  -28.3312  -19.7481   22.5331 H   0  0  0  0  0  0
  -28.2686  -17.6449   23.7380 H   0  0  0  0  0  0
  -30.5232  -17.7465   19.3833 H   0  0  0  0  0  0
  -26.9469  -22.6946   17.2987 H   0  0  0  0  0  0
  -26.2995  -22.7772   18.9093 H   0  0  0  0  0  0
  -27.2649  -24.9744   17.9760 H   0  0  0  0  0  0
  -28.8315  -24.2685   17.9957 H   0  0  0  0  0  0
  -29.0148  -21.6719   18.0535 H   0  0  0  0  0  0
  -27.6674  -20.7234   18.6241 H   0  0  0  0  0  0
  -29.2102  -23.3640   21.5526 H   0  0  0  0  0  0
  -30.0412  -23.4780   20.0387 H   0  0  0  0  0  0
  -27.1129  -24.3832   20.5072 H   0  0  0  0  0  0
  -30.3784  -20.5198   19.4844 H   0  0  0  0  0  0
  -30.4060  -20.9487   21.1405 H   0  0  0  0  0  0
  -27.9221  -21.5527   20.7480 H   0  0  0  0  0  0
  1 25  1  0  0  0
  1 30  2  0  0  0
  1 74  1  0  0  0
  2  3  1  0  0  0
  2 25  1  0  0  0
  2 85  1  0  0  0
  2 86  1  0  0  0
  3  4  1  0  0  0
  3 87  1  0  0  0
  3 88  1  0  0  0
  4  5  1  0  0  0
  4 89  1  0  0  0
  4 90  1  0  0  0
  5  6  1  0  0  0
  5 26  1  0  0  0
  5 91  1  0  0  0
  6 25  1  0  0  0
  6 92  1  0  0  0
  6 93  1  0  0  0
  7  8  2  0  0  0
  7 26  1  0  0  0
  7 29  1  0  0  0
  8  9  1  0  0  0
  8 22  1  0  0  0
  9 10  1  0  0  0
  9 27  2  0  0  0
 10 11  2  0  0  0
 10 15  1  0  0  0
 11 12  1  0  0  0
 11 94  1  0  0  0
 12 13  2  0  0  0
 12 95  1  0  0  0
 13 14  1  0  0  0
 13 31  1  0  0  0
 14 15  2  0  0  0
 14 96  1  0  0  0
 15 97  1  0  0  0
 16 17  2  0  0  0
 16 21  1  0  0  0
 16 31  1  0  0  0
 17 18  1  0  0  0
 17 98  1  0  0  0
 18 19  2  0  0  0
 18 99  1  0  0  0
 19 20  1  0  0  0
 19 24  1  0  0  0
 20 21  2  0  0  0
 20100  1  0  0  0
 21 23  1  0  0  0
 22 28  1  0  0  0
 22 32  2  0  0  0
 26 27  1  0  0  0
 28101  1  0  0  0
 28102  1  0  0  0
 29103  1  0  0  0
 29104  1  0  0  0
 33 34  1  0  0  0
 33 66  1  0  0  0
 33 70  2  0  0  0
 34 36  1  0  0  0
 34 59  1  0  0  0
 34105  1  0  0  0
 35 44  2  0  0  0
 35 45  1  0  0  0
 35 68  1  0  0  0
 36 56  1  0  0  0
 36106  1  0  0  0
 37 39  1  0  0  0
 37 47  1  0  0  0
 37 66  1  0  0  0
 37107  1  0  0  0
 38 43  2  0  0  0
 38 46  1  0  0  0
 38 47  1  0  0  0
 39 64  1  0  0  0
 39 67  2  0  0  0
 40 52  1  0  0  0
 40 53  2  0  0  0
 40 58  1  0  0  0
 41108  1  0  0  0
 41109  1  0  0  0
 41110  1  0  0  0
 41 48  1  0  0  0
 42 43  1  0  0  0
 42 66  1  0  0  0
 42111  1  0  0  0
 42112  1  0  0  0
 43 44  1  0  0  0
 44113  1  0  0  0
 45 46  2  0  0  0
 45114  1  0  0  0
 46115  1  0  0  0
 47116  1  0  0  0
 47117  1  0  0  0
 48 56  1  0  0  0
 48 65  1  0  0  0
 48118  1  0  0  0
 49 50  1  0  0  0
 49 53  1  0  0  0
 49 64  1  0  0  0
 49119  1  0  0  0
 50 51  1  0  0  0
 50120  1  0  0  0
 50121  1  0  0  0
 51 52  1  0  0  0
 51122  1  0  0  0
 51123  1  0  0  0
 52124  1  0  0  0
 52125  1  0  0  0
 53 54  1  0  0  0
 54 55  2  0  0  0
 54126  1  0  0  0
 55 57  1  0  0  0
 55127  1  0  0  0
 56 69  2  0  0  0
 57 58  2  0  0  0
 57128  1  0  0  0
 58129  1  0  0  0
 59 60  1  0  0  0
 59 61  1  0  0  0
 59 62  1  0  0  0
 60130  1  0  0  0
 60131  1  0  0  0
 60132  1  0  0  0
 61133  1  0  0  0
 61134  1  0  0  0
 61135  1  0  0  0
 62136  1  0  0  0
 62137  1  0  0  0
 62138  1  0  0  0
 63 65  1  0  0  0
 63139  1  0  0  0
 63140  1  0  0  0
 63141  1  0  0  0
 64142  1  0  0  0
 65143  1  0  0  0
 68 81  1  0  0  0
 71 72  2  0  0  0
 71 75  1  0  0  0
 71144  1  0  0  0
 72 76  1  0  0  0
 72145  1  0  0  0
 73 74  1  0  0  0
 73 75  2  0  0  0
 73146  1  0  0  0
 74 76  2  0  0  0
 75 82  1  0  0  0
 76 84  1  0  0  0
 77 78  1  0  0  0
 77 79  1  0  0  0
 77147  1  0  0  0
 77148  1  0  0  0
 78 81  1  0  0  0
 78149  1  0  0  0
 78150  1  0  0  0
 79 83  1  0  0  0
 79151  1  0  0  0
 79152  1  0  0  0
 80 81  1  0  0  0
 80 83  1  0  0  0
 80153  1  0  0  0
 80154  1  0  0  0
 81155  1  0  0  0
 82156  1  0  0  0
 82157  1  0  0  0
 82 83  1  0  0  0
 83158  1  0  0  0
M  CHG  1  83   1
M  ISO  4   1 100  68 101  74 100  81 101
M  END
> <chiral flag>
0

> <version>
0

> <s_m_source_file>
/data/baiqing/PycharmProjects/Reinvent-master-3.2/result/LINK_invent/BTK/process_docking_weight1_custom_product_contain_oxygen_bond_distance_aromatic_linkinvent_7_9_3/rearranged_h_0035.sdf

> <i_m_source_file_index>
70

> <r_mmod_Potential_Energy-OPLS-2005>
572.732666015625

> <r_mmod_Stretch_Energy-OPLS-2005>
291.957794189453

> <r_mmod_Bend_Energy-OPLS-2005>
279.072418212891

> <r_mmod_Torsional_Energy-OPLS-2005>
230.601043701172

> <r_mmod_Improper_Torsional_Energy-OPLS-2005>
5.23525381088257

> <r_mmod_Van_der_Waal_Energy-OPLS-2005>
141.547592163086

> <r_mmod_Electrostatic_Energy-OPLS-2005>
-162.002212524414

> <r_mmod_Solvation_Energy-OPLS-2005>
-420.546325683594

> <b_mmod_Minimization_Converged-OPLS-2005>
0

> <r_mmod_RMS_Derivative-OPLS-2005>
1.051154255867

$$$$
71
                    3D
 Structure written by MMmdl.
159167  0  0  1  0            999 V2000
  -30.6494  -14.5780   20.4740 C   0  0  0  0  0  0
  -30.4355  -12.3414   19.4555 C   0  0  0  0  0  0
  -29.5065  -12.4549   18.2268 C   0  0  0  0  0  0
  -28.0207  -12.3552   18.6312 C   0  0  0  0  0  0
  -27.6549  -13.2045   19.8792 C   0  0  2  0  0  0
  -28.7052  -13.0442   21.0006 C   0  0  0  0  0  0
  -25.2574  -13.8137   20.5736 C   0  0  0  0  0  0
  -24.1810  -13.0432   20.9227 C   0  0  0  0  0  0
  -24.6364  -11.6893   20.8770 C   0  0  0  0  0  0
  -23.9030  -10.4279   21.0425 C   0  0  0  0  0  0
  -24.3583   -9.4202   21.9198 C   0  0  0  0  0  0
  -23.6272   -8.2232   22.0767 C   0  0  0  0  0  0
  -22.4247   -8.0276   21.3556 C   0  0  0  0  0  0
  -21.9889   -9.0245   20.4659 C   0  0  0  0  0  0
  -22.7213  -10.2124   20.3060 C   0  0  0  0  0  0
  -21.6847   -6.0727   22.5272 C   0  0  0  0  0  0
  -21.4006   -6.5625   23.8207 C   0  0  0  0  0  0
  -21.3667   -5.6780   24.9172 C   0  0  0  0  0  0
  -21.6049   -4.3037   24.7223 C   0  0  0  0  0  0
  -21.8819   -3.8139   23.4338 C   0  0  0  0  0  0
  -21.9191   -4.6956   22.3395 C   0  0  0  0  0  0
  -22.7834  -13.5241   21.1861 C   0  0  0  0  0  0
  -22.1659   -4.2156   21.0973 F   0  0  0  0  0  0
  -21.5642   -3.4516   25.7732 F   0  0  0  0  0  0
  -30.0236  -13.3651   20.4303 N   0  0  0  0  0  0
  -26.2994  -12.9284   20.3421 N   0  0  0  0  0  0
  -25.9290  -11.6456   20.5822 N   0  0  0  0  0  0
  -22.0402  -12.8268   22.0397 N   0  0  0  0  0  0
  -25.4341  -15.1862   20.4132 N   0  0  0  0  0  0
  -31.8122  -14.7324   20.0860 O   0  0  0  0  0  0
  -21.6624   -6.8864   21.4236 O   0  0  0  0  0  0
  -22.3537  -14.5556   20.6704 O   0  0  0  0  0  0
  -24.6190  -31.8646   23.2099 C   0  0  0  0  0  0
  -25.9069  -32.4800   23.8409 C   0  0  1  0  0  0
  -27.2314  -27.3768   20.1296 C   0  0  0  0  0  0
  -25.5913  -33.8602   24.2321 N   0  0  0  0  0  0
  -23.4101  -30.4895   21.5469 C   0  0  2  0  0  0
  -24.8605  -28.9554   20.1097 C   0  0  0  0  0  0
  -22.7427  -29.4645   22.4940 C   0  0  0  0  0  0
  -18.0268  -28.1362   22.8471 C   0  0  0  0  0  0
  -24.1469  -36.7289   23.2646 C   0  0  0  0  0  0
  -25.9468  -30.8107   21.3819 C   0  0  0  0  0  0
  -26.0197  -29.4452   20.7229 C   0  0  0  0  0  0
  -27.2029  -28.6629   20.7311 C   0  0  0  0  0  0
  -26.0588  -26.9377   19.4682 C   0  0  0  0  0  0
  -24.8799  -27.7041   19.4754 C   0  0  0  0  0  0
  -23.6263  -29.8284   20.1587 C   0  0  0  0  0  0
  -25.4097  -36.3095   24.0340 C   0  0  1  0  0  0
  -20.5860  -28.3663   23.1284 C   0  0  2  0  0  0
  -20.6753  -26.9392   22.5407 C   0  0  0  0  0  0
  -19.5739  -26.6370   21.5191 C   0  0  0  0  0  0
  -18.1913  -26.7913   22.1601 C   0  0  0  0  0  0
  -19.1521  -28.8830   23.2878 C   0  0  0  0  0  0
  -18.9455  -30.1427   23.8894 C   0  0  0  0  0  0
  -17.6471  -30.6577   24.0545 C   0  0  0  0  0  0
  -25.9028  -34.9467   23.5121 C   0  0  0  0  0  0
  -16.5353  -29.9078   23.6332 C   0  0  0  0  0  0
  -16.7263  -28.6490   23.0359 C   0  0  0  0  0  0
  -26.4472  -31.6614   25.0775 C   0  0  0  0  0  0
  -25.3739  -31.3745   26.1532 C   0  0  0  0  0  0
  -27.0342  -30.3044   24.6248 C   0  0  0  0  0  0
  -27.6012  -32.4374   25.7559 C   0  0  0  0  0  0
  -27.5562  -37.1814   24.8460 C   0  0  0  0  0  0
  -21.4153  -29.3038   22.3689 N   0  0  0  0  0  0
  -26.4271  -37.3794   23.9408 N   0  0  0  0  0  0
  -24.6750  -31.0719   22.1018 N   0  0  0  0  0  0
  -23.4187  -28.8173   23.2988 O   0  0  0  0  0  0
  -28.3849  -26.6004   20.2203 O   0  0  0  0  0  0
  -26.5585  -34.8923   22.4676 O   0  0  0  0  0  0
  -23.5370  -32.1424   23.7453 O   0  0  0  0  0  0
  -29.7532  -19.6435   19.2300 C   0  0  0  0  0  0
  -29.5454  -18.5418   18.3870 C   0  0  0  0  0  0
  -30.0796  -18.1170   21.1021 C   0  0  0  0  0  0
  -30.0441  -19.4552   20.5916 C   0  0  0  0  0  0
  -29.6263  -17.2195   18.8741 C   0  0  0  0  0  0
  -29.8915  -16.9784   20.2542 C   0  0  0  0  0  0
  -29.4278  -16.1092   17.8571 C   0  0  0  0  0  0
  -30.4575  -20.6859   21.4315 C   0  0  0  0  0  0
  -28.9910  -24.2414   21.0583 C   0  0  0  0  0  0
  -29.1329  -22.7408   20.6070 C   0  0  0  0  0  0
  -28.3340  -25.1627   19.9767 C   0  0  0  0  0  0
  -29.8687  -15.6393   20.8093 N   0  0  0  0  0  0
  -29.4418  -21.7565   21.6942 N   0  3  0  0  0  0
  -31.4785  -12.4491   19.1540 H   0  0  0  0  0  0
  -30.3607  -11.3507   19.9052 H   0  0  0  0  0  0
  -29.7470  -11.6706   17.5082 H   0  0  0  0  0  0
  -29.6866  -13.3909   17.7058 H   0  0  0  0  0  0
  -27.8130  -11.3026   18.8283 H   0  0  0  0  0  0
  -27.3858  -12.6394   17.7913 H   0  0  0  0  0  0
  -27.6698  -14.2458   19.5792 H   0  0  0  0  0  0
  -28.6974  -12.0213   21.3813 H   0  0  0  0  0  0
  -28.4688  -13.6783   21.8557 H   0  0  0  0  0  0
  -25.2715   -9.5704   22.4788 H   0  0  0  0  0  0
  -23.9995   -7.4620   22.7463 H   0  0  0  0  0  0
  -21.0842   -8.8770   19.8935 H   0  0  0  0  0  0
  -22.3692  -10.9671   19.6164 H   0  0  0  0  0  0
  -21.1980   -7.6128   23.9723 H   0  0  0  0  0  0
  -21.1502   -6.0495   25.9081 H   0  0  0  0  0  0
  -22.0597   -2.7605   23.2825 H   0  0  0  0  0  0
  -22.3912  -11.9913   22.4854 H   0  0  0  0  0  0
  -21.1005  -13.1344   22.2492 H   0  0  0  0  0  0
  -24.6855  -15.8556   20.5540 H   0  0  0  0  0  0
  -26.2922  -15.6173   20.0950 H   0  0  0  0  0  0
  -26.7146  -32.5482   23.1172 H   0  0  0  0  0  0
  -25.0090  -33.9758   25.0487 H   0  0  0  0  0  0
  -22.7010  -31.3079   21.4061 H   0  0  0  0  0  0
  -23.3740  -35.9609   23.3320 H   0  0  0  0  0  0
  -24.3566  -36.8895   22.2056 H   0  0  0  0  0  0
  -23.7217  -37.6495   23.6659 H   0  0  0  0  0  0
  -26.0903  -31.5817   20.6233 H   0  0  0  0  0  0
  -26.8220  -30.8443   22.0200 H   0  0  0  0  0  0
  -28.0888  -29.0308   21.2300 H   0  0  0  0  0  0
  -26.0170  -26.0043   18.9299 H   0  0  0  0  0  0
  -23.9964  -27.3272   18.9789 H   0  0  0  0  0  0
  -23.7463  -30.6075   19.4048 H   0  0  0  0  0  0
  -22.7492  -29.2559   19.8522 H   0  0  0  0  0  0
  -25.1276  -36.1945   25.0838 H   0  0  0  0  0  0
  -20.9948  -28.3239   24.1407 H   0  0  0  0  0  0
  -20.5616  -26.2279   23.3603 H   0  0  0  0  0  0
  -21.6635  -26.7404   22.1234 H   0  0  0  0  0  0
  -19.6898  -25.6274   21.1239 H   0  0  0  0  0  0
  -19.6682  -27.3164   20.6704 H   0  0  0  0  0  0
  -17.4181  -26.6647   21.4007 H   0  0  0  0  0  0
  -18.0321  -26.0057   22.9001 H   0  0  0  0  0  0
  -19.7947  -30.7221   24.2289 H   0  0  0  0  0  0
  -17.5038  -31.6269   24.5128 H   0  0  0  0  0  0
  -15.5355  -30.2978   23.7669 H   0  0  0  0  0  0
  -15.8663  -28.0806   22.7101 H   0  0  0  0  0  0
  -24.5863  -30.7141   25.7891 H   0  0  0  0  0  0
  -24.8997  -32.2916   26.5036 H   0  0  0  0  0  0
  -25.8096  -30.8877   27.0265 H   0  0  0  0  0  0
  -26.2948  -29.6808   24.1213 H   0  0  0  0  0  0
  -27.3973  -29.7286   25.4770 H   0  0  0  0  0  0
  -27.8837  -30.4343   23.9542 H   0  0  0  0  0  0
  -27.2579  -33.3648   26.2160 H   0  0  0  0  0  0
  -28.3813  -32.6993   25.0402 H   0  0  0  0  0  0
  -28.0700  -31.8517   26.5475 H   0  0  0  0  0  0
  -28.2577  -38.0110   24.7507 H   0  0  0  0  0  0
  -28.1051  -36.2643   24.6266 H   0  0  0  0  0  0
  -27.2288  -37.1455   25.8866 H   0  0  0  0  0  0
  -20.9302  -29.8795   21.6947 H   0  0  0  0  0  0
  -26.0144  -38.2866   24.1412 H   0  0  0  0  0  0
  -29.7247  -20.6366   18.8030 H   0  0  0  0  0  0
  -29.3380  -18.7240   17.3432 H   0  0  0  0  0  0
  -30.2942  -17.9596   22.1499 H   0  0  0  0  0  0
  -29.1613  -16.5094   16.8784 H   0  0  0  0  0  0
  -28.6261  -15.4370   18.1434 H   0  0  0  0  0  0
  -30.3505  -15.5438   17.7311 H   0  0  0  0  0  0
  -31.3277  -21.1412   20.9572 H   0  0  0  0  0  0
  -30.8184  -20.3288   22.3962 H   0  0  0  0  0  0
  -29.9759  -24.6289   21.3234 H   0  0  0  0  0  0
  -28.3884  -24.2989   21.9662 H   0  0  0  0  0  0
  -29.8968  -22.6921   19.8324 H   0  0  0  0  0  0
  -28.2053  -22.4106   20.1382 H   0  0  0  0  0  0
  -27.3221  -24.7789   19.8846 H   0  0  0  0  0  0
  -28.8157  -24.9876   19.0143 H   0  0  0  0  0  0
  -29.0057  -15.3790   21.2602 H   0  0  0  0  0  0
  -29.8068  -22.2853   22.4695 H   0  0  0  0  0  0
  -28.5917  -21.3264   22.0181 H   0  0  0  0  0  0
  1 25  1  0  0  0
  1 30  2  0  0  0
  1 82  1  0  0  0
  2  3  1  0  0  0
  2 25  1  0  0  0
  2 84  1  0  0  0
  2 85  1  0  0  0
  3  4  1  0  0  0
  3 86  1  0  0  0
  3 87  1  0  0  0
  4  5  1  0  0  0
  4 88  1  0  0  0
  4 89  1  0  0  0
  5  6  1  0  0  0
  5 26  1  0  0  0
  5 90  1  0  0  0
  6 25  1  0  0  0
  6 91  1  0  0  0
  6 92  1  0  0  0
  7  8  2  0  0  0
  7 26  1  0  0  0
  7 29  1  0  0  0
  8  9  1  0  0  0
  8 22  1  0  0  0
  9 10  1  0  0  0
  9 27  2  0  0  0
 10 11  2  0  0  0
 10 15  1  0  0  0
 11 12  1  0  0  0
 11 93  1  0  0  0
 12 13  2  0  0  0
 12 94  1  0  0  0
 13 14  1  0  0  0
 13 31  1  0  0  0
 14 15  2  0  0  0
 14 95  1  0  0  0
 15 96  1  0  0  0
 16 17  2  0  0  0
 16 21  1  0  0  0
 16 31  1  0  0  0
 17 18  1  0  0  0
 17 97  1  0  0  0
 18 19  2  0  0  0
 18 98  1  0  0  0
 19 20  1  0  0  0
 19 24  1  0  0  0
 20 21  2  0  0  0
 20 99  1  0  0  0
 21 23  1  0  0  0
 22 28  1  0  0  0
 22 32  2  0  0  0
 26 27  1  0  0  0
 28100  1  0  0  0
 28101  1  0  0  0
 29102  1  0  0  0
 29103  1  0  0  0
 33 34  1  0  0  0
 33 66  1  0  0  0
 33 70  2  0  0  0
 34 36  1  0  0  0
 34 59  1  0  0  0
 34104  1  0  0  0
 35 44  2  0  0  0
 35 45  1  0  0  0
 35 68  1  0  0  0
 36 56  1  0  0  0
 36105  1  0  0  0
 37 39  1  0  0  0
 37 47  1  0  0  0
 37 66  1  0  0  0
 37106  1  0  0  0
 38 43  2  0  0  0
 38 46  1  0  0  0
 38 47  1  0  0  0
 39 64  1  0  0  0
 39 67  2  0  0  0
 40 52  1  0  0  0
 40 53  2  0  0  0
 40 58  1  0  0  0
 41107  1  0  0  0
 41108  1  0  0  0
 41109  1  0  0  0
 41 48  1  0  0  0
 42 43  1  0  0  0
 42 66  1  0  0  0
 42110  1  0  0  0
 42111  1  0  0  0
 43 44  1  0  0  0
 44112  1  0  0  0
 45 46  2  0  0  0
 45113  1  0  0  0
 46114  1  0  0  0
 47115  1  0  0  0
 47116  1  0  0  0
 48 56  1  0  0  0
 48 65  1  0  0  0
 48117  1  0  0  0
 49 50  1  0  0  0
 49 53  1  0  0  0
 49 64  1  0  0  0
 49118  1  0  0  0
 50 51  1  0  0  0
 50119  1  0  0  0
 50120  1  0  0  0
 51 52  1  0  0  0
 51121  1  0  0  0
 51122  1  0  0  0
 52123  1  0  0  0
 52124  1  0  0  0
 53 54  1  0  0  0
 54 55  2  0  0  0
 54125  1  0  0  0
 55 57  1  0  0  0
 55126  1  0  0  0
 56 69  2  0  0  0
 57 58  2  0  0  0
 57127  1  0  0  0
 58128  1  0  0  0
 59 60  1  0  0  0
 59 61  1  0  0  0
 59 62  1  0  0  0
 60129  1  0  0  0
 60130  1  0  0  0
 60131  1  0  0  0
 61132  1  0  0  0
 61133  1  0  0  0
 61134  1  0  0  0
 62135  1  0  0  0
 62136  1  0  0  0
 62137  1  0  0  0
 63 65  1  0  0  0
 63138  1  0  0  0
 63139  1  0  0  0
 63140  1  0  0  0
 64141  1  0  0  0
 65142  1  0  0  0
 68 81  1  0  0  0
 71 72  2  0  0  0
 71 74  1  0  0  0
 71143  1  0  0  0
 72 75  1  0  0  0
 72144  1  0  0  0
 73 74  2  0  0  0
 73 76  1  0  0  0
 73145  1  0  0  0
 74 78  1  0  0  0
 75 76  2  0  0  0
 75 77  1  0  0  0
 76 82  1  0  0  0
 77146  1  0  0  0
 77147  1  0  0  0
 77148  1  0  0  0
 78 83  1  0  0  0
 78149  1  0  0  0
 78150  1  0  0  0
 79 80  1  0  0  0
 79 81  1  0  0  0
 79151  1  0  0  0
 79152  1  0  0  0
 80 83  1  0  0  0
 80153  1  0  0  0
 80154  1  0  0  0
 81155  1  0  0  0
 81156  1  0  0  0
 82157  1  0  0  0
 83158  1  0  0  0
 83159  1  0  0  0
M  CHG  1  83   1
M  ISO  4   1 100  68 101  81 101  82 100
M  END
> <chiral flag>
0

> <version>
0

> <s_m_source_file>
/data/baiqing/PycharmProjects/Reinvent-master-3.2/result/LINK_invent/BTK/process_docking_weight1_custom_product_contain_oxygen_bond_distance_aromatic_linkinvent_7_9_3/rearranged_h_0035.sdf

> <i_m_source_file_index>
71

> <r_mmod_Potential_Energy-OPLS-2005>
-195.242248535156

> <r_mmod_Stretch_Energy-OPLS-2005>
54.0150680541992

> <r_mmod_Bend_Energy-OPLS-2005>
122.050567626953

> <r_mmod_Torsional_Energy-OPLS-2005>
249.226974487305

> <r_mmod_Improper_Torsional_Energy-OPLS-2005>
5.53120994567871

> <r_mmod_Van_der_Waal_Energy-OPLS-2005>
147.071975708008

> <r_mmod_Electrostatic_Energy-OPLS-2005>
-320.497589111328

> <r_mmod_Solvation_Energy-OPLS-2005>
-485.327697753906

> <b_mmod_Minimization_Converged-OPLS-2005>
0

> <r_mmod_RMS_Derivative-OPLS-2005>
2.98291420936584

$$$$
72
                    3D
 Structure written by MMmdl.
159167  0  0  1  0            999 V2000
  -30.6973  -14.5462   20.5793 C   0  0  0  0  0  0
  -30.4134  -12.3590   19.4513 C   0  0  0  0  0  0
  -29.4982  -12.5052   18.2183 C   0  0  0  0  0  0
  -28.0218  -12.3505   18.6319 C   0  0  0  0  0  0
  -27.6488  -13.2102   19.8669 C   0  0  2  0  0  0
  -28.6827  -13.0551   21.0013 C   0  0  0  0  0  0
  -25.2494  -13.8101   20.5569 C   0  0  0  0  0  0
  -24.1786  -13.0375   20.9222 C   0  0  0  0  0  0
  -24.6392  -11.6853   20.8787 C   0  0  0  0  0  0
  -23.9060  -10.4234   21.0459 C   0  0  0  0  0  0
  -24.3609   -9.4159   21.9230 C   0  0  0  0  0  0
  -23.6277   -8.2207   22.0775 C   0  0  0  0  0  0
  -22.4270   -8.0261   21.3545 C   0  0  0  0  0  0
  -21.9914   -9.0248   20.4654 C   0  0  0  0  0  0
  -22.7248  -10.2117   20.3082 C   0  0  0  0  0  0
  -21.6845   -6.0694   22.5279 C   0  0  0  0  0  0
  -21.4007   -6.5608   23.8203 C   0  0  0  0  0  0
  -21.3674   -5.6781   24.9178 C   0  0  0  0  0  0
  -21.6062   -4.3040   24.7250 C   0  0  0  0  0  0
  -21.8812   -3.8112   23.4372 C   0  0  0  0  0  0
  -21.9180   -4.6917   22.3414 C   0  0  0  0  0  0
  -22.7833  -13.5241   21.1904 C   0  0  0  0  0  0
  -22.1646   -4.2104   21.0991 F   0  0  0  0  0  0
  -21.5649   -3.4524   25.7764 F   0  0  0  0  0  0
  -29.9964  -13.3804   20.4368 N   0  0  0  0  0  0
  -26.2934  -12.9287   20.3285 N   0  0  0  0  0  0
  -25.9314  -11.6457   20.5780 N   0  0  0  0  0  0
  -22.0431  -12.8223   22.0406 N   0  0  0  0  0  0
  -25.4149  -15.1759   20.3729 N   0  0  0  0  0  0
  -31.8708  -14.6248   20.2190 O   0  0  0  0  0  0
  -21.6617   -6.8855   21.4250 O   0  0  0  0  0  0
  -22.3590  -14.5621   20.6880 O   0  0  0  0  0  0
  -24.6136  -31.8652   23.2094 C   0  0  0  0  0  0
  -25.9031  -32.4804   23.8381 C   0  0  1  0  0  0
  -27.2155  -27.3813   20.1224 C   0  0  0  0  0  0
  -25.5874  -33.8596   24.2312 N   0  0  0  0  0  0
  -23.4037  -30.4873   21.5534 C   0  0  2  0  0  0
  -24.8434  -28.9444   20.1184 C   0  0  0  0  0  0
  -22.7486  -29.4571   22.5016 C   0  0  0  0  0  0
  -18.0288  -28.1303   22.8635 C   0  0  0  0  0  0
  -24.1477  -36.7311   23.2636 C   0  0  0  0  0  0
  -25.9354  -30.8176   21.3634 C   0  0  0  0  0  0
  -26.0074  -29.4460   20.7155 C   0  0  0  0  0  0
  -27.1948  -28.6792   20.7028 C   0  0  0  0  0  0
  -26.0368  -26.9033   19.5110 C   0  0  0  0  0  0
  -24.8576  -27.6776   19.5084 C   0  0  0  0  0  0
  -23.6122  -29.8253   20.1668 C   0  0  0  0  0  0
  -25.4102  -36.3117   24.0339 C   0  0  1  0  0  0
  -20.5920  -28.3515   23.1324 C   0  0  2  0  0  0
  -20.6681  -26.9283   22.5435 C   0  0  0  0  0  0
  -19.5637  -26.6408   21.5263 C   0  0  0  0  0  0
  -18.1877  -26.7817   22.1829 C   0  0  0  0  0  0
  -19.1569  -28.8758   23.2943 C   0  0  0  0  0  0
  -18.9579  -30.1439   23.8808 C   0  0  0  0  0  0
  -17.6600  -30.6675   24.0454 C   0  0  0  0  0  0
  -25.9053  -34.9465   23.5140 C   0  0  0  0  0  0
  -16.5421  -29.9110   23.6446 C   0  0  0  0  0  0
  -16.7315  -28.6472   23.0574 C   0  0  0  0  0  0
  -26.4458  -31.6599   25.0727 C   0  0  0  0  0  0
  -25.3708  -31.3695   26.1472 C   0  0  0  0  0  0
  -27.0296  -30.3040   24.6107 C   0  0  0  0  0  0
  -27.6051  -32.4308   25.7485 C   0  0  0  0  0  0
  -27.5582  -37.1817   24.8469 C   0  0  0  0  0  0
  -21.4194  -29.2975   22.3797 N   0  0  0  0  0  0
  -26.4292  -37.3799   23.9422 N   0  0  0  0  0  0
  -24.6703  -31.0720   22.1001 N   0  0  0  0  0  0
  -23.4260  -28.8087   23.3041 O   0  0  0  0  0  0
  -28.4032  -26.6557   20.1428 O   0  0  0  0  0  0
  -26.5614  -34.8921   22.4707 O   0  0  0  0  0  0
  -23.5309  -32.1421   23.7466 O   0  0  0  0  0  0
  -29.3737  -20.6356   22.2179 C   0  0  0  0  0  0
  -30.1744  -19.7131   22.9064 C   0  0  0  0  0  0
  -28.4298  -20.2216   21.2593 C   0  0  0  0  0  0
  -28.2809  -18.7984   21.0328 C   0  0  0  0  0  0
  -29.1015  -17.8432   21.7402 C   0  0  0  0  0  0
  -30.0448  -18.3366   22.6764 C   0  0  0  0  0  0
  -27.2128  -18.2578   20.0884 C   0  0  0  0  0  0
  -28.9939  -16.2915   21.5577 C   0  0  0  0  0  0
  -27.5540  -21.3501   20.6236 C   0  0  0  0  0  0
  -27.5477  -23.9403   20.4472 C   0  0  0  0  0  0
  -28.5097  -25.1924   20.2781 C   0  0  0  0  0  0
  -30.0414  -15.7319   20.6796 N   0  0  0  0  0  0
  -28.2849  -22.6272   20.3053 N   0  3  0  0  0  0
  -31.0469  -17.2784   23.6063 Cl  0  0  0  0  0  0
  -31.4652  -12.4511   19.1610 H   0  0  0  0  0  0
  -30.3216  -11.3585   19.8758 H   0  0  0  0  0  0
  -29.7515  -11.7611   17.4622 H   0  0  0  0  0  0
  -29.6492  -13.4790   17.7487 H   0  0  0  0  0  0
  -27.8491  -11.2925   18.8411 H   0  0  0  0  0  0
  -27.3711  -12.6069   17.7958 H   0  0  0  0  0  0
  -27.6780  -14.2467   19.5341 H   0  0  0  0  0  0
  -28.6810  -12.0369   21.3987 H   0  0  0  0  0  0
  -28.4372  -13.6976   21.8446 H   0  0  0  0  0  0
  -25.2747   -9.5649   22.4794 H   0  0  0  0  0  0
  -23.9975   -7.4581   22.7483 H   0  0  0  0  0  0
  -21.0852   -8.8794   19.8927 H   0  0  0  0  0  0
  -22.3732  -10.9664   19.6182 H   0  0  0  0  0  0
  -21.1992   -7.6112   23.9696 H   0  0  0  0  0  0
  -21.1518   -6.0509   25.9082 H   0  0  0  0  0  0
  -22.0580   -2.7568   23.2893 H   0  0  0  0  0  0
  -22.4054  -11.9889   22.4781 H   0  0  0  0  0  0
  -21.1054  -13.1244   22.2611 H   0  0  0  0  0  0
  -24.6151  -15.8005   20.3949 H   0  0  0  0  0  0
  -26.1972  -15.5497   19.8584 H   0  0  0  0  0  0
  -26.7076  -32.5494   23.1100 H   0  0  0  0  0  0
  -25.0049  -33.9758   25.0467 H   0  0  0  0  0  0
  -22.6853  -31.2982   21.4186 H   0  0  0  0  0  0
  -23.3750  -35.9637   23.3302 H   0  0  0  0  0  0
  -24.3583  -36.8927   22.2062 H   0  0  0  0  0  0
  -23.7223  -37.6501   23.6655 H   0  0  0  0  0  0
  -26.0498  -31.5808   20.5937 H   0  0  0  0  0  0
  -26.8179  -30.8689   21.9888 H   0  0  0  0  0  0
  -28.0953  -29.0747   21.1494 H   0  0  0  0  0  0
  -26.0080  -25.9446   19.0121 H   0  0  0  0  0  0
  -23.9639  -27.2952   19.0346 H   0  0  0  0  0  0
  -23.7378  -30.6031   19.4106 H   0  0  0  0  0  0
  -22.7314  -29.2585   19.8655 H   0  0  0  0  0  0
  -25.1282  -36.1982   25.0832 H   0  0  0  0  0  0
  -20.9983  -28.2912   24.1472 H   0  0  0  0  0  0
  -20.5485  -26.2205   23.3648 H   0  0  0  0  0  0
  -21.6473  -26.7083   22.1158 H   0  0  0  0  0  0
  -19.6660  -25.6365   21.1118 H   0  0  0  0  0  0
  -19.6625  -27.3364   20.6891 H   0  0  0  0  0  0
  -17.4069  -26.6517   21.4310 H   0  0  0  0  0  0
  -18.0490  -26.0025   22.9345 H   0  0  0  0  0  0
  -19.8106  -30.7310   24.1973 H   0  0  0  0  0  0
  -17.5314  -31.6535   24.4729 H   0  0  0  0  0  0
  -15.5437  -30.3063   23.7840 H   0  0  0  0  0  0
  -15.8695  -28.0710   22.7555 H   0  0  0  0  0  0
  -24.5881  -30.7044   25.7787 H   0  0  0  0  0  0
  -24.8885  -32.2848   26.4931 H   0  0  0  0  0  0
  -25.8044  -30.8844   27.0231 H   0  0  0  0  0  0
  -26.2848  -29.6815   24.1123 H   0  0  0  0  0  0
  -27.4032  -29.7273   25.4584 H   0  0  0  0  0  0
  -27.8699  -30.4383   23.9283 H   0  0  0  0  0  0
  -27.2698  -33.3601   26.2092 H   0  0  0  0  0  0
  -28.3839  -32.6864   25.0293 H   0  0  0  0  0  0
  -28.0731  -31.8404   26.5374 H   0  0  0  0  0  0
  -28.2613  -38.0102   24.7530 H   0  0  0  0  0  0
  -28.1069  -36.2650   24.6278 H   0  0  0  0  0  0
  -27.2313  -37.1441   25.8869 H   0  0  0  0  0  0
  -20.9273  -29.8881   21.7254 H   0  0  0  0  0  0
  -26.0186  -38.2876   24.1407 H   0  0  0  0  0  0
  -29.4870  -21.6795   22.4681 H   0  0  0  0  0  0
  -30.8878  -20.0743   23.6334 H   0  0  0  0  0  0
  -26.4990  -17.6500   20.6469 H   0  0  0  0  0  0
  -27.6713  -17.6256   19.3315 H   0  0  0  0  0  0
  -26.6192  -19.0063   19.5679 H   0  0  0  0  0  0
  -28.0280  -15.9919   21.1634 H   0  0  0  0  0  0
  -29.0369  -15.8262   22.5488 H   0  0  0  0  0  0
  -26.7523  -21.5466   21.3381 H   0  0  0  0  0  0
  -27.0691  -21.0287   19.7017 H   0  0  0  0  0  0
  -26.7121  -23.9585   19.7466 H   0  0  0  0  0  0
  -27.0771  -23.9292   21.4322 H   0  0  0  0  0  0
  -28.1380  -25.5400   21.2430 H   0  0  0  0  0  0
  -28.2099  -25.2770   19.2343 H   0  0  0  0  0  0
  -30.6576  -16.4710   20.3753 H   0  0  0  0  0  0
  -28.6499  -22.5536   19.3698 H   0  0  0  0  0  0
  -29.0769  -22.6563   20.9245 H   0  0  0  0  0  0
  1 25  1  0  0  0
  1 30  2  0  0  0
  1 82  1  0  0  0
  2  3  1  0  0  0
  2 25  1  0  0  0
  2 85  1  0  0  0
  2 86  1  0  0  0
  3  4  1  0  0  0
  3 87  1  0  0  0
  3 88  1  0  0  0
  4  5  1  0  0  0
  4 89  1  0  0  0
  4 90  1  0  0  0
  5  6  1  0  0  0
  5 26  1  0  0  0
  5 91  1  0  0  0
  6 25  1  0  0  0
  6 92  1  0  0  0
  6 93  1  0  0  0
  7  8  2  0  0  0
  7 26  1  0  0  0
  7 29  1  0  0  0
  8  9  1  0  0  0
  8 22  1  0  0  0
  9 10  1  0  0  0
  9 27  2  0  0  0
 10 11  2  0  0  0
 10 15  1  0  0  0
 11 12  1  0  0  0
 11 94  1  0  0  0
 12 13  2  0  0  0
 12 95  1  0  0  0
 13 14  1  0  0  0
 13 31  1  0  0  0
 14 15  2  0  0  0
 14 96  1  0  0  0
 15 97  1  0  0  0
 16 17  2  0  0  0
 16 21  1  0  0  0
 16 31  1  0  0  0
 17 18  1  0  0  0
 17 98  1  0  0  0
 18 19  2  0  0  0
 18 99  1  0  0  0
 19 20  1  0  0  0
 19 24  1  0  0  0
 20 21  2  0  0  0
 20100  1  0  0  0
 21 23  1  0  0  0
 22 28  1  0  0  0
 22 32  2  0  0  0
 26 27  1  0  0  0
 28101  1  0  0  0
 28102  1  0  0  0
 29103  1  0  0  0
 29104  1  0  0  0
 33 34  1  0  0  0
 33 66  1  0  0  0
 33 70  2  0  0  0
 34 36  1  0  0  0
 34 59  1  0  0  0
 34105  1  0  0  0
 35 44  2  0  0  0
 35 45  1  0  0  0
 35 68  1  0  0  0
 36 56  1  0  0  0
 36106  1  0  0  0
 37 39  1  0  0  0
 37 47  1  0  0  0
 37 66  1  0  0  0
 37107  1  0  0  0
 38 43  2  0  0  0
 38 46  1  0  0  0
 38 47  1  0  0  0
 39 64  1  0  0  0
 39 67  2  0  0  0
 40 52  1  0  0  0
 40 53  2  0  0  0
 40 58  1  0  0  0
 41108  1  0  0  0
 41109  1  0  0  0
 41110  1  0  0  0
 41 48  1  0  0  0
 42 43  1  0  0  0
 42 66  1  0  0  0
 42111  1  0  0  0
 42112  1  0  0  0
 43 44  1  0  0  0
 44113  1  0  0  0
 45 46  2  0  0  0
 45114  1  0  0  0
 46115  1  0  0  0
 47116  1  0  0  0
 47117  1  0  0  0
 48 56  1  0  0  0
 48 65  1  0  0  0
 48118  1  0  0  0
 49 50  1  0  0  0
 49 53  1  0  0  0
 49 64  1  0  0  0
 49119  1  0  0  0
 50 51  1  0  0  0
 50120  1  0  0  0
 50121  1  0  0  0
 51 52  1  0  0  0
 51122  1  0  0  0
 51123  1  0  0  0
 52124  1  0  0  0
 52125  1  0  0  0
 53 54  1  0  0  0
 54 55  2  0  0  0
 54126  1  0  0  0
 55 57  1  0  0  0
 55127  1  0  0  0
 56 69  2  0  0  0
 57 58  2  0  0  0
 57128  1  0  0  0
 58129  1  0  0  0
 59 60  1  0  0  0
 59 61  1  0  0  0
 59 62  1  0  0  0
 60130  1  0  0  0
 60131  1  0  0  0
 60132  1  0  0  0
 61133  1  0  0  0
 61134  1  0  0  0
 61135  1  0  0  0
 62136  1  0  0  0
 62137  1  0  0  0
 62138  1  0  0  0
 63 65  1  0  0  0
 63139  1  0  0  0
 63140  1  0  0  0
 63141  1  0  0  0
 64142  1  0  0  0
 65143  1  0  0  0
 68 81  1  0  0  0
 71 72  2  0  0  0
 71 73  1  0  0  0
 71144  1  0  0  0
 72 76  1  0  0  0
 72145  1  0  0  0
 73 74  2  0  0  0
 73 79  1  0  0  0
 74 75  1  0  0  0
 74 77  1  0  0  0
 75 76  2  0  0  0
 75 78  1  0  0  0
 76 84  1  0  0  0
 77146  1  0  0  0
 77147  1  0  0  0
 77148  1  0  0  0
 78 82  1  0  0  0
 78149  1  0  0  0
 78150  1  0  0  0
 79 83  1  0  0  0
 79151  1  0  0  0
 79152  1  0  0  0
 80 81  1  0  0  0
 80 83  1  0  0  0
 80153  1  0  0  0
 80154  1  0  0  0
 81155  1  0  0  0
 81156  1  0  0  0
 82157  1  0  0  0
 83158  1  0  0  0
 83159  1  0  0  0
M  CHG  1  83   1
M  ISO  4   1 100  68 101  81 101  82 100
M  END
> <chiral flag>
0

> <version>
0

> <s_m_source_file>
/data/baiqing/PycharmProjects/Reinvent-master-3.2/result/LINK_invent/BTK/process_docking_weight1_custom_product_contain_oxygen_bond_distance_aromatic_linkinvent_7_9_3/rearranged_h_0035.sdf

> <i_m_source_file_index>
72

> <r_mmod_Potential_Energy-OPLS-2005>
155.3310546875

> <r_mmod_Stretch_Energy-OPLS-2005>
66.5235214233398

> <r_mmod_Bend_Energy-OPLS-2005>
383.319458007812

> <r_mmod_Torsional_Energy-OPLS-2005>
261.810302734375

> <r_mmod_Improper_Torsional_Energy-OPLS-2005>
17.3368225097656

> <r_mmod_Van_der_Waal_Energy-OPLS-2005>
151.114196777344

> <r_mmod_Electrostatic_Energy-OPLS-2005>
-286.117004394531

> <r_mmod_Solvation_Energy-OPLS-2005>
-465.878112792969

> <b_mmod_Minimization_Converged-OPLS-2005>
0

> <r_mmod_RMS_Derivative-OPLS-2005>
8.56133842468262

$$$$
73
                    3D
 Structure written by MMmdl.
164173  0  0  1  0            999 V2000
  -30.6455  -14.6067   20.5157 C   0  0  0  0  0  0
  -30.4345  -12.3782   19.4385 C   0  0  0  0  0  0
  -29.4968  -12.5189   18.2179 C   0  0  0  0  0  0
  -28.0195  -12.3638   18.6308 C   0  0  0  0  0  0
  -27.6584  -13.2176   19.8742 C   0  0  2  0  0  0
  -28.7077  -13.0483   20.9970 C   0  0  0  0  0  0
  -25.2585  -13.8184   20.5719 C   0  0  0  0  0  0
  -24.1850  -13.0446   20.9212 C   0  0  0  0  0  0
  -24.6426  -11.6918   20.8774 C   0  0  0  0  0  0
  -23.9087  -10.4295   21.0404 C   0  0  0  0  0  0
  -24.3620   -9.4210   21.9191 C   0  0  0  0  0  0
  -23.6295   -8.2247   22.0757 C   0  0  0  0  0  0
  -22.4288   -8.0286   21.3530 C   0  0  0  0  0  0
  -21.9918   -9.0279   20.4646 C   0  0  0  0  0  0
  -22.7250  -10.2160   20.3058 C   0  0  0  0  0  0
  -21.6866   -6.0744   22.5286 C   0  0  0  0  0  0
  -21.4028   -6.5642   23.8221 C   0  0  0  0  0  0
  -21.3668   -5.6795   24.9178 C   0  0  0  0  0  0
  -21.6035   -4.3061   24.7224 C   0  0  0  0  0  0
  -21.8817   -3.8154   23.4352 C   0  0  0  0  0  0
  -21.9183   -4.6968   22.3409 C   0  0  0  0  0  0
  -22.7860  -13.5233   21.1863 C   0  0  0  0  0  0
  -22.1655   -4.2154   21.0992 F   0  0  0  0  0  0
  -21.5621   -3.4546   25.7732 F   0  0  0  0  0  0
  -30.0246  -13.3877   20.4346 N   0  0  0  0  0  0
  -26.3029  -12.9378   20.3408 N   0  0  0  0  0  0
  -25.9349  -11.6531   20.5805 N   0  0  0  0  0  0
  -22.0501  -12.8214   22.0412 N   0  0  0  0  0  0
  -25.4294  -15.1901   20.4113 N   0  0  0  0  0  0
  -31.7881  -14.7853   20.0852 O   0  0  0  0  0  0
  -21.6646   -6.8889   21.4245 O   0  0  0  0  0  0
  -22.3529  -14.5531   20.6700 O   0  0  0  0  0  0
  -24.6242  -31.8634   23.2092 C   0  0  0  0  0  0
  -25.9103  -32.4795   23.8413 C   0  0  1  0  0  0
  -27.2147  -27.3172   20.1266 C   0  0  0  0  0  0
  -25.5936  -33.8581   24.2334 N   0  0  0  0  0  0
  -23.4176  -30.4912   21.5491 C   0  0  2  0  0  0
  -24.8671  -28.9528   20.1106 C   0  0  0  0  0  0
  -22.7471  -29.4645   22.4938 C   0  0  0  0  0  0
  -18.0296  -28.1391   22.8508 C   0  0  0  0  0  0
  -24.1490  -36.7214   23.2644 C   0  0  0  0  0  0
  -25.9622  -30.7876   21.3915 C   0  0  0  0  0  0
  -26.0348  -29.4157   20.7356 C   0  0  0  0  0  0
  -27.2070  -28.6020   20.7506 C   0  0  0  0  0  0
  -26.0546  -26.9564   19.4064 C   0  0  0  0  0  0
  -24.8784  -27.7229   19.4420 C   0  0  0  0  0  0
  -23.6356  -29.8325   20.1622 C   0  0  0  0  0  0
  -25.4125  -36.3071   24.0355 C   0  0  1  0  0  0
  -20.5902  -28.3683   23.1288 C   0  0  2  0  0  0
  -20.6766  -26.9404   22.5415 C   0  0  0  0  0  0
  -19.5722  -26.6382   21.5227 C   0  0  0  0  0  0
  -18.1910  -26.7943   22.1649 C   0  0  0  0  0  0
  -19.1550  -28.8846   23.2906 C   0  0  0  0  0  0
  -18.9489  -30.1458   23.8923 C   0  0  0  0  0  0
  -17.6486  -30.6601   24.0576 C   0  0  0  0  0  0
  -25.9072  -34.9454   23.5145 C   0  0  0  0  0  0
  -16.5368  -29.9115   23.6330 C   0  0  0  0  0  0
  -16.7296  -28.6518   23.0380 C   0  0  0  0  0  0
  -26.4488  -31.6573   25.0763 C   0  0  0  0  0  0
  -25.3747  -31.3692   26.1515 C   0  0  0  0  0  0
  -27.0309  -30.2997   24.6172 C   0  0  0  0  0  0
  -27.6063  -32.4292   25.7545 C   0  0  0  0  0  0
  -27.5581  -37.1773   24.8504 C   0  0  0  0  0  0
  -21.4176  -29.3056   22.3682 N   0  0  0  0  0  0
  -26.4292  -37.3780   23.9450 N   0  0  0  0  0  0
  -24.6859  -31.0649   22.1057 N   0  0  0  0  0  0
  -23.4211  -28.8178   23.3000 O   0  0  0  0  0  0
  -28.3191  -26.4465   20.1383 O   0  0  0  0  0  0
  -26.5637  -34.8916   22.4715 O   0  0  0  0  0  0
  -23.5409  -32.1432   23.7433 O   0  0  0  0  0  0
  -29.7048  -17.6800   19.5299 C   0  0  0  0  0  0
  -30.3421  -19.3721   21.6592 C   0  0  0  0  0  0
  -29.7027  -19.0998   19.3473 C   0  0  0  0  0  0
  -30.0315  -19.9940   20.4178 C   0  0  0  0  0  0
  -30.0304  -17.0733   20.7690 C   0  0  0  0  0  0
  -30.3341  -17.9562   21.8371 C   0  0  0  0  0  0
  -29.3685  -24.0796   20.2902 C   0  0  0  0  0  0
  -30.4518  -24.4930   19.6032 C   0  0  0  0  0  0
  -26.8057  -22.9930   21.2661 C   0  0  0  0  0  0
  -26.8447  -24.3676   20.6002 C   0  0  0  0  0  0
  -27.8089  -22.0590   20.5905 C   0  0  0  0  0  0
  -28.2202  -25.0684   20.7244 C   0  0  2  0  0  0
  -29.3391  -19.6210   17.9644 C   0  0  0  0  0  0
  -30.2113  -21.5592   20.2254 C   0  0  0  0  0  0
  -29.8846  -15.6386   20.9759 N   0  0  0  0  0  0
  -29.1900  -22.5752   20.7237 N   0  3  1  0  0  0
  -30.7042  -17.3146   23.3991 Cl  0  0  0  0  0  0
  -31.4721  -12.5063   19.1241 H   0  0  0  0  0  0
  -30.3709  -11.3753   19.8664 H   0  0  0  0  0  0
  -29.7517  -11.7784   17.4590 H   0  0  0  0  0  0
  -29.6405  -13.4951   17.7521 H   0  0  0  0  0  0
  -27.8379  -11.3090   18.8414 H   0  0  0  0  0  0
  -27.3686  -12.6236   17.7928 H   0  0  0  0  0  0
  -27.6842  -14.2590   19.5509 H   0  0  0  0  0  0
  -28.7166  -12.0204   21.3630 H   0  0  0  0  0  0
  -28.4597  -13.6672   21.8605 H   0  0  0  0  0  0
  -25.2767   -9.5691   22.4767 H   0  0  0  0  0  0
  -24.0010   -7.4640   22.7480 H   0  0  0  0  0  0
  -21.0851   -8.8809   19.8953 H   0  0  0  0  0  0
  -22.3716  -10.9705   19.6176 H   0  0  0  0  0  0
  -21.2034   -7.6152   23.9727 H   0  0  0  0  0  0
  -21.1495   -6.0527   25.9084 H   0  0  0  0  0  0
  -22.0578   -2.7614   23.2853 H   0  0  0  0  0  0
  -22.4115  -11.9858   22.4777 H   0  0  0  0  0  0
  -21.1132  -13.1269   22.2652 H   0  0  0  0  0  0
  -24.6653  -15.8460   20.5289 H   0  0  0  0  0  0
  -26.2732  -15.6288   20.0665 H   0  0  0  0  0  0
  -26.7193  -32.5485   23.1187 H   0  0  0  0  0  0
  -25.0145  -33.9730   25.0516 H   0  0  0  0  0  0
  -22.7139  -31.3152   21.4085 H   0  0  0  0  0  0
  -23.3794  -35.9499   23.3343 H   0  0  0  0  0  0
  -24.3596  -36.8790   22.2048 H   0  0  0  0  0  0
  -23.7179  -37.6407   23.6630 H   0  0  0  0  0  0
  -26.1059  -31.5524   20.6264 H   0  0  0  0  0  0
  -26.8389  -30.8315   22.0244 H   0  0  0  0  0  0
  -28.0948  -28.9435   21.2650 H   0  0  0  0  0  0
  -26.0337  -26.0623   18.8045 H   0  0  0  0  0  0
  -23.9963  -27.3756   18.9204 H   0  0  0  0  0  0
  -23.7580  -30.6113   19.4089 H   0  0  0  0  0  0
  -22.7568  -29.2639   19.8553 H   0  0  0  0  0  0
  -25.1297  -36.1930   25.0843 H   0  0  0  0  0  0
  -21.0021  -28.3256   24.1396 H   0  0  0  0  0  0
  -20.5653  -26.2288   23.3622 H   0  0  0  0  0  0
  -21.6637  -26.7412   22.1206 H   0  0  0  0  0  0
  -19.6862  -25.6295   21.1249 H   0  0  0  0  0  0
  -19.6655  -27.3212   20.6783 H   0  0  0  0  0  0
  -17.4179  -26.6736   21.4059 H   0  0  0  0  0  0
  -18.0295  -26.0080   22.9032 H   0  0  0  0  0  0
  -19.7970  -30.7270   24.2282 H   0  0  0  0  0  0
  -17.5058  -31.6290   24.5180 H   0  0  0  0  0  0
  -15.5380  -30.3046   23.7619 H   0  0  0  0  0  0
  -15.8693  -28.0847   22.7096 H   0  0  0  0  0  0
  -24.5943  -30.6998   25.7876 H   0  0  0  0  0  0
  -24.8889  -32.2835   26.4925 H   0  0  0  0  0  0
  -25.8122  -30.8908   27.0291 H   0  0  0  0  0  0
  -26.2849  -29.6779   24.1204 H   0  0  0  0  0  0
  -27.4050  -29.7219   25.4637 H   0  0  0  0  0  0
  -27.8732  -30.4318   23.9387 H   0  0  0  0  0  0
  -27.2687  -33.3595   26.2131 H   0  0  0  0  0  0
  -28.3890  -32.6836   25.0386 H   0  0  0  0  0  0
  -28.0707  -31.8383   26.5460 H   0  0  0  0  0  0
  -28.2635  -38.0035   24.7556 H   0  0  0  0  0  0
  -28.1038  -36.2578   24.6333 H   0  0  0  0  0  0
  -27.2306  -37.1450   25.8910 H   0  0  0  0  0  0
  -20.9338  -29.8763   21.6893 H   0  0  0  0  0  0
  -26.0167  -38.2848   24.1468 H   0  0  0  0  0  0
  -29.4317  -17.0414   18.7014 H   0  0  0  0  0  0
  -30.6150  -19.9895   22.5023 H   0  0  0  0  0  0
  -30.5590  -25.5357   19.3396 H   0  0  0  0  0  0
  -31.2541  -23.8387   19.2937 H   0  0  0  0  0  0
  -25.8023  -22.5760   21.1816 H   0  0  0  0  0  0
  -27.0085  -23.0764   22.3353 H   0  0  0  0  0  0
  -26.0620  -24.9732   21.0531 H   0  0  0  0  0  0
  -26.5896  -24.2228   19.5514 H   0  0  0  0  0  0
  -27.5608  -21.9306   19.5359 H   0  0  0  0  0  0
  -27.7218  -21.0764   21.0568 H   0  0  0  0  0  0
  -28.3877  -25.2303   21.7897 H   0  0  0  0  0  0
  -30.0946  -20.3003   17.5699 H   0  0  0  0  0  0
  -28.3803  -20.1394   17.9945 H   0  0  0  0  0  0
  -29.2423  -18.8053   17.2449 H   0  0  0  0  0  0
  -30.3574  -21.7501   19.1656 H   0  0  0  0  0  0
  -31.1701  -21.8252   20.6776 H   0  0  0  0  0  0
  -29.0102  -15.3525   21.3870 H   0  0  0  0  0  0
  -29.3380  -22.5618   21.7214 H   0  0  0  0  0  0
  1 25  1  0  0  0
  1 30  2  0  0  0
  1 85  1  0  0  0
  2  3  1  0  0  0
  2 25  1  0  0  0
  2 88  1  0  0  0
  2 89  1  0  0  0
  3  4  1  0  0  0
  3 90  1  0  0  0
  3 91  1  0  0  0
  4  5  1  0  0  0
  4 92  1  0  0  0
  4 93  1  0  0  0
  5  6  1  0  0  0
  5 26  1  0  0  0
  5 94  1  0  0  0
  6 25  1  0  0  0
  6 95  1  0  0  0
  6 96  1  0  0  0
  7  8  2  0  0  0
  7 26  1  0  0  0
  7 29  1  0  0  0
  8  9  1  0  0  0
  8 22  1  0  0  0
  9 10  1  0  0  0
  9 27  2  0  0  0
 10 11  2  0  0  0
 10 15  1  0  0  0
 11 12  1  0  0  0
 11 97  1  0  0  0
 12 13  2  0  0  0
 12 98  1  0  0  0
 13 14  1  0  0  0
 13 31  1  0  0  0
 14 15  2  0  0  0
 14 99  1  0  0  0
 15100  1  0  0  0
 16 17  2  0  0  0
 16 21  1  0  0  0
 16 31  1  0  0  0
 17 18  1  0  0  0
 17101  1  0  0  0
 18 19  2  0  0  0
 18102  1  0  0  0
 19 20  1  0  0  0
 19 24  1  0  0  0
 20 21  2  0  0  0
 20103  1  0  0  0
 21 23  1  0  0  0
 22 28  1  0  0  0
 22 32  2  0  0  0
 26 27  1  0  0  0
 28104  1  0  0  0
 28105  1  0  0  0
 29106  1  0  0  0
 29107  1  0  0  0
 33 34  1  0  0  0
 33 66  1  0  0  0
 33 70  2  0  0  0
 34 36  1  0  0  0
 34 59  1  0  0  0
 34108  1  0  0  0
 35 44  2  0  0  0
 35 45  1  0  0  0
 35 68  1  0  0  0
 36 56  1  0  0  0
 36109  1  0  0  0
 37 39  1  0  0  0
 37 47  1  0  0  0
 37 66  1  0  0  0
 37110  1  0  0  0
 38 43  2  0  0  0
 38 46  1  0  0  0
 38 47  1  0  0  0
 39 64  1  0  0  0
 39 67  2  0  0  0
 40 52  1  0  0  0
 40 53  2  0  0  0
 40 58  1  0  0  0
 41111  1  0  0  0
 41112  1  0  0  0
 41113  1  0  0  0
 41 48  1  0  0  0
 42 43  1  0  0  0
 42 66  1  0  0  0
 42114  1  0  0  0
 42115  1  0  0  0
 43 44  1  0  0  0
 44116  1  0  0  0
 45 46  2  0  0  0
 45117  1  0  0  0
 46118  1  0  0  0
 47119  1  0  0  0
 47120  1  0  0  0
 48 56  1  0  0  0
 48 65  1  0  0  0
 48121  1  0  0  0
 49 50  1  0  0  0
 49 53  1  0  0  0
 49 64  1  0  0  0
 49122  1  0  0  0
 50 51  1  0  0  0
 50123  1  0  0  0
 50124  1  0  0  0
 51 52  1  0  0  0
 51125  1  0  0  0
 51126  1  0  0  0
 52127  1  0  0  0
 52128  1  0  0  0
 53 54  1  0  0  0
 54 55  2  0  0  0
 54129  1  0  0  0
 55 57  1  0  0  0
 55130  1  0  0  0
 56 69  2  0  0  0
 57 58  2  0  0  0
 57131  1  0  0  0
 58132  1  0  0  0
 59 60  1  0  0  0
 59 61  1  0  0  0
 59 62  1  0  0  0
 60133  1  0  0  0
 60134  1  0  0  0
 60135  1  0  0  0
 61136  1  0  0  0
 61137  1  0  0  0
 61138  1  0  0  0
 62139  1  0  0  0
 62140  1  0  0  0
 62141  1  0  0  0
 63 65  1  0  0  0
 63142  1  0  0  0
 63143  1  0  0  0
 63144  1  0  0  0
 64145  1  0  0  0
 65146  1  0  0  0
 68 82  1  0  0  0
 71 73  2  0  0  0
 71 75  1  0  0  0
 71147  1  0  0  0
 72 74  2  0  0  0
 72 76  1  0  0  0
 72148  1  0  0  0
 73 74  1  0  0  0
 73 83  1  0  0  0
 74 84  1  0  0  0
 75 76  2  0  0  0
 75 85  1  0  0  0
 76 87  1  0  0  0
 77 78  2  0  0  0
 77 82  1  0  0  0
 77 86  1  0  0  0
 78149  1  0  0  0
 78150  1  0  0  0
 79 80  1  0  0  0
 79 81  1  0  0  0
 79151  1  0  0  0
 79152  1  0  0  0
 80 82  1  0  0  0
 80153  1  0  0  0
 80154  1  0  0  0
 81 86  1  0  0  0
 81155  1  0  0  0
 81156  1  0  0  0
 82157  1  0  0  0
 83158  1  0  0  0
 83159  1  0  0  0
 83160  1  0  0  0
 84161  1  0  0  0
 84162  1  0  0  0
 84 86  1  0  0  0
 85163  1  0  0  0
 86164  1  0  0  0
M  CHG  1  86   1
M  ISO  4   1 100  68 101  82 101  85 100
M  END
> <chiral flag>
0

> <version>
0

> <s_m_source_file>
/data/baiqing/PycharmProjects/Reinvent-master-3.2/result/LINK_invent/BTK/process_docking_weight1_custom_product_contain_oxygen_bond_distance_aromatic_linkinvent_7_9_3/rearranged_h_0035.sdf

> <i_m_source_file_index>
73

> <r_mmod_Potential_Energy-OPLS-2005>
-22.4460067749023

> <r_mmod_Stretch_Energy-OPLS-2005>
93.2695922851562

> <r_mmod_Bend_Energy-OPLS-2005>
148.669586181641

> <r_mmod_Torsional_Energy-OPLS-2005>
264.970520019531

> <r_mmod_Improper_Torsional_Energy-OPLS-2005>
4.76659679412842

> <r_mmod_Van_der_Waal_Energy-OPLS-2005>
154.91389465332

> <r_mmod_Electrostatic_Energy-OPLS-2005>
-286.444274902344

> <r_mmod_Solvation_Energy-OPLS-2005>
-447.493041992188

> <b_mmod_Minimization_Converged-OPLS-2005>
0

> <r_mmod_RMS_Derivative-OPLS-2005>
3.67473745346069

$$$$
74
                    3D
 Structure written by MMmdl.
163172  0  0  1  0            999 V2000
  -30.5872  -14.7433   20.4338 C   0  0  0  0  0  0
  -30.4229  -12.4483   19.4689 C   0  0  0  0  0  0
  -29.5050  -12.5277   18.2281 C   0  0  0  0  0  0
  -28.0290  -12.3592   18.6395 C   0  0  0  0  0  0
  -27.6431  -13.2368   19.8613 C   0  0  2  0  0  0
  -28.6867  -13.1472   20.9955 C   0  0  0  0  0  0
  -25.2498  -13.8227   20.5710 C   0  0  0  0  0  0
  -24.1782  -13.0459   20.9179 C   0  0  0  0  0  0
  -24.6373  -11.6937   20.8714 C   0  0  0  0  0  0
  -23.9063  -10.4298   21.0401 C   0  0  0  0  0  0
  -24.3610   -9.4216   21.9185 C   0  0  0  0  0  0
  -23.6296   -8.2252   22.0787 C   0  0  0  0  0  0
  -22.4266   -8.0294   21.3602 C   0  0  0  0  0  0
  -21.9904   -9.0249   20.4685 C   0  0  0  0  0  0
  -22.7236  -10.2119   20.3061 C   0  0  0  0  0  0
  -21.6866   -6.0732   22.5294 C   0  0  0  0  0  0
  -21.4012   -6.5638   23.8224 C   0  0  0  0  0  0
  -21.3673   -5.6792   24.9191 C   0  0  0  0  0  0
  -21.6049   -4.3059   24.7242 C   0  0  0  0  0  0
  -21.8803   -3.8152   23.4362 C   0  0  0  0  0  0
  -21.9186   -4.6961   22.3412 C   0  0  0  0  0  0
  -22.7798  -13.5246   21.1855 C   0  0  0  0  0  0
  -22.1667   -4.2145   21.0993 F   0  0  0  0  0  0
  -21.5631   -3.4536   25.7763 F   0  0  0  0  0  0
  -29.9916  -13.5014   20.4221 N   0  0  0  0  0  0
  -26.2940  -12.9442   20.3330 N   0  0  0  0  0  0
  -25.9313  -11.6575   20.5740 N   0  0  0  0  0  0
  -22.0447  -12.8208   22.0392 N   0  0  0  0  0  0
  -25.4182  -15.1953   20.4115 N   0  0  0  0  0  0
  -31.7499  -14.8663   20.0350 O   0  0  0  0  0  0
  -21.6663   -6.8874   21.4261 O   0  0  0  0  0  0
  -22.3483  -14.5564   20.6735 O   0  0  0  0  0  0
  -24.6298  -31.8556   23.1948 C   0  0  0  0  0  0
  -25.9127  -32.4756   23.8284 C   0  0  1  0  0  0
  -27.2185  -27.2694   20.1125 C   0  0  0  0  0  0
  -25.5931  -33.8557   24.2220 N   0  0  0  0  0  0
  -23.4240  -30.4768   21.5382 C   0  0  2  0  0  0
  -24.8681  -28.9210   20.1061 C   0  0  0  0  0  0
  -22.7483  -29.4606   22.4905 C   0  0  0  0  0  0
  -18.0309  -28.1355   22.8469 C   0  0  0  0  0  0
  -24.1521  -36.7300   23.2636 C   0  0  0  0  0  0
  -25.9697  -30.7675   21.3733 C   0  0  0  0  0  0
  -26.0386  -29.3919   20.7127 C   0  0  0  0  0  0
  -27.2113  -28.5762   20.7061 C   0  0  0  0  0  0
  -26.0201  -26.8542   19.4902 C   0  0  0  0  0  0
  -24.8640  -27.6610   19.4875 C   0  0  0  0  0  0
  -23.6380  -29.8058   20.1554 C   0  0  0  0  0  0
  -25.4145  -36.3070   24.0312 C   0  0  1  0  0  0
  -20.5909  -28.3674   23.1262 C   0  0  2  0  0  0
  -20.6809  -26.9396   22.5388 C   0  0  0  0  0  0
  -19.5797  -26.6362   21.5185 C   0  0  0  0  0  0
  -18.1968  -26.7904   22.1589 C   0  0  0  0  0  0
  -19.1559  -28.8829   23.2861 C   0  0  0  0  0  0
  -18.9469  -30.1433   23.8876 C   0  0  0  0  0  0
  -17.6475  -30.6566   24.0551 C   0  0  0  0  0  0
  -25.9072  -34.9439   23.5070 C   0  0  0  0  0  0
  -16.5372  -29.9061   23.6320 C   0  0  0  0  0  0
  -16.7298  -28.6478   23.0334 C   0  0  0  0  0  0
  -26.4491  -31.6596   25.0685 C   0  0  0  0  0  0
  -25.3686  -31.3727   26.1375 C   0  0  0  0  0  0
  -27.0358  -30.3022   24.6181 C   0  0  0  0  0  0
  -27.6049  -32.4352   25.7441 C   0  0  0  0  0  0
  -27.5599  -37.1808   24.8455 C   0  0  0  0  0  0
  -21.4206  -29.3035   22.3648 N   0  0  0  0  0  0
  -26.4323  -37.3767   23.9384 N   0  0  0  0  0  0
  -24.6929  -31.0525   22.0915 N   0  0  0  0  0  0
  -23.4198  -28.8148   23.2989 O   0  0  0  0  0  0
  -28.3460  -26.4262   20.1939 O   0  0  0  0  0  0
  -26.5639  -34.8921   22.4640 O   0  0  0  0  0  0
  -23.5449  -32.1390   23.7256 O   0  0  0  0  0  0
  -29.3744  -18.4473   20.6019 C   0  0  0  0  0  0
  -29.4744  -17.0512   18.6255 C   0  0  0  0  0  0
  -28.9693  -19.6271   19.8386 C   0  0  0  0  0  0
  -28.7237  -19.4051   18.4468 C   0  0  0  0  0  0
  -29.6122  -17.1292   20.0247 C   0  0  0  0  0  0
  -29.0308  -18.1465   17.8576 C   0  0  0  0  0  0
  -30.2861  -23.7930   18.2847 C   0  0  0  0  0  0
  -29.8802  -25.1134   18.9643 C   0  0  0  0  0  0
  -30.2246  -22.5929   19.2515 C   0  0  0  0  0  0
  -28.3613  -23.7038   20.4512 C   0  0  0  0  0  0
  -28.4688  -25.0644   19.5734 C   0  0  1  0  0  0
  -28.0859  -20.4753   17.5612 C   0  0  0  0  0  0
  -28.6957  -21.0560   20.5328 C   0  0  0  0  0  0
  -29.8305  -15.8596   20.7724 N   0  0  0  0  0  0
  -28.8507  -22.3981   19.7786 N   0  3  2  0  0  0
  -28.8268  -17.8763   16.1593 Cl  0  0  0  0  0  0
  -31.4671  -12.5586   19.1716 H   0  0  0  0  0  0
  -30.3489  -11.4611   19.9284 H   0  0  0  0  0  0
  -29.7786  -11.7614   17.5006 H   0  0  0  0  0  0
  -29.6440  -13.4868   17.7257 H   0  0  0  0  0  0
  -27.8696  -11.3061   18.8725 H   0  0  0  0  0  0
  -27.3755  -12.5818   17.7949 H   0  0  0  0  0  0
  -27.6428  -14.2658   19.5057 H   0  0  0  0  0  0
  -28.7116  -12.1413   21.4167 H   0  0  0  0  0  0
  -28.4275  -13.8143   21.8190 H   0  0  0  0  0  0
  -25.2753   -9.5684   22.4755 H   0  0  0  0  0  0
  -24.0023   -7.4630   22.7479 H   0  0  0  0  0  0
  -21.0866   -8.8730   19.8967 H   0  0  0  0  0  0
  -22.3715  -10.9635   19.6146 H   0  0  0  0  0  0
  -21.1996   -7.6147   23.9726 H   0  0  0  0  0  0
  -21.1541   -6.0539   25.9093 H   0  0  0  0  0  0
  -22.0567   -2.7617   23.2874 H   0  0  0  0  0  0
  -22.4059  -11.9843   22.4729 H   0  0  0  0  0  0
  -21.1086  -13.1250   22.2671 H   0  0  0  0  0  0
  -24.6440  -15.8450   20.4998 H   0  0  0  0  0  0
  -26.2729  -15.6399   20.0990 H   0  0  0  0  0  0
  -26.7181  -32.5391   23.0997 H   0  0  0  0  0  0
  -25.0081  -33.9695   25.0359 H   0  0  0  0  0  0
  -22.7200  -31.2985   21.3898 H   0  0  0  0  0  0
  -23.3793  -35.9618   23.3263 H   0  0  0  0  0  0
  -24.3627  -36.8982   22.2063 H   0  0  0  0  0  0
  -23.7272  -37.6482   23.6703 H   0  0  0  0  0  0
  -26.1159  -31.5298   20.6075 H   0  0  0  0  0  0
  -26.8453  -30.8099   22.0096 H   0  0  0  0  0  0
  -28.1095  -28.9314   21.1902 H   0  0  0  0  0  0
  -25.9303  -25.8830   19.0280 H   0  0  0  0  0  0
  -23.9646  -27.2905   19.0144 H   0  0  0  0  0  0
  -23.7551  -30.5791   19.3957 H   0  0  0  0  0  0
  -22.7574  -29.2356   19.8542 H   0  0  0  0  0  0
  -25.1344  -36.1916   25.0810 H   0  0  0  0  0  0
  -21.0007  -28.3261   24.1383 H   0  0  0  0  0  0
  -20.5734  -26.2276   23.3584 H   0  0  0  0  0  0
  -21.6679  -26.7444   22.1184 H   0  0  0  0  0  0
  -19.6983  -25.6267   21.1232 H   0  0  0  0  0  0
  -19.6752  -27.3148   20.6698 H   0  0  0  0  0  0
  -17.4246  -26.6646   21.3976 H   0  0  0  0  0  0
  -18.0373  -26.0020   22.8966 H   0  0  0  0  0  0
  -19.7948  -30.7244   24.2253 H   0  0  0  0  0  0
  -17.5028  -31.6237   24.5145 H   0  0  0  0  0  0
  -15.5374  -30.2948   23.7647 H   0  0  0  0  0  0
  -15.8697  -28.0792   22.7046 H   0  0  0  0  0  0
  -24.5855  -30.7113   25.7636 H   0  0  0  0  0  0
  -24.8859  -32.2885   26.4801 H   0  0  0  0  0  0
  -25.7945  -30.8851   27.0149 H   0  0  0  0  0  0
  -26.2933  -29.6736   24.1246 H   0  0  0  0  0  0
  -27.4095  -29.7333   25.4704 H   0  0  0  0  0  0
  -27.8786  -30.4320   23.9387 H   0  0  0  0  0  0
  -27.2674  -33.3680   26.1965 H   0  0  0  0  0  0
  -28.3849  -32.6883   25.0248 H   0  0  0  0  0  0
  -28.0714  -31.8507   26.5379 H   0  0  0  0  0  0
  -28.2594  -38.0128   24.7534 H   0  0  0  0  0  0
  -28.1139  -36.2661   24.6273 H   0  0  0  0  0  0
  -27.2311  -37.1439   25.8856 H   0  0  0  0  0  0
  -20.9384  -29.8725   21.6832 H   0  0  0  0  0  0
  -26.0212  -38.2854   24.1355 H   0  0  0  0  0  0
  -29.4760  -18.5580   21.6720 H   0  0  0  0  0  0
  -29.6370  -16.1125   18.1148 H   0  0  0  0  0  0
  -31.3016  -23.8875   17.8992 H   0  0  0  0  0  0
  -29.6502  -23.6090   17.4182 H   0  0  0  0  0  0
  -29.9346  -25.9293   18.2423 H   0  0  0  0  0  0
  -30.6003  -25.3523   19.7487 H   0  0  0  0  0  0
  -30.9111  -22.7424   20.0863 H   0  0  0  0  0  0
  -30.5632  -21.6951   18.7347 H   0  0  0  0  0  0
  -27.3260  -23.5731   20.7699 H   0  0  0  0  0  0
  -28.9383  -23.8421   21.3662 H   0  0  0  0  0  0
  -27.7858  -24.9734   18.7305 H   0  0  0  0  0  0
  -27.3589  -21.0796   18.1024 H   0  0  0  0  0  0
  -27.5153  -20.0404   16.7404 H   0  0  0  0  0  0
  -28.8438  -21.1177   17.1136 H   0  0  0  0  0  0
  -29.3320  -21.1140   21.4172 H   0  0  0  0  0  0
  -27.6757  -21.0221   20.9179 H   0  0  0  0  0  0
  -29.0914  -15.6508   21.4290 H   0  0  0  0  0  0
  -28.2596  -22.2833   18.9673 H   0  0  0  0  0  0
  1 25  1  0  0  0
  1 30  2  0  0  0
  1 84  1  0  0  0
  2  3  1  0  0  0
  2 25  1  0  0  0
  2 87  1  0  0  0
  2 88  1  0  0  0
  3  4  1  0  0  0
  3 89  1  0  0  0
  3 90  1  0  0  0
  4  5  1  0  0  0
  4 91  1  0  0  0
  4 92  1  0  0  0
  5  6  1  0  0  0
  5 26  1  0  0  0
  5 93  1  0  0  0
  6 25  1  0  0  0
  6 94  1  0  0  0
  6 95  1  0  0  0
  7  8  2  0  0  0
  7 26  1  0  0  0
  7 29  1  0  0  0
  8  9  1  0  0  0
  8 22  1  0  0  0
  9 10  1  0  0  0
  9 27  2  0  0  0
 10 11  2  0  0  0
 10 15  1  0  0  0
 11 12  1  0  0  0
 11 96  1  0  0  0
 12 13  2  0  0  0
 12 97  1  0  0  0
 13 14  1  0  0  0
 13 31  1  0  0  0
 14 15  2  0  0  0
 14 98  1  0  0  0
 15 99  1  0  0  0
 16 17  2  0  0  0
 16 21  1  0  0  0
 16 31  1  0  0  0
 17 18  1  0  0  0
 17100  1  0  0  0
 18 19  2  0  0  0
 18101  1  0  0  0
 19 20  1  0  0  0
 19 24  1  0  0  0
 20 21  2  0  0  0
 20102  1  0  0  0
 21 23  1  0  0  0
 22 28  1  0  0  0
 22 32  2  0  0  0
 26 27  1  0  0  0
 28103  1  0  0  0
 28104  1  0  0  0
 29105  1  0  0  0
 29106  1  0  0  0
 33 34  1  0  0  0
 33 66  1  0  0  0
 33 70  2  0  0  0
 34 36  1  0  0  0
 34 59  1  0  0  0
 34107  1  0  0  0
 35 44  2  0  0  0
 35 45  1  0  0  0
 35 68  1  0  0  0
 36 56  1  0  0  0
 36108  1  0  0  0
 37 39  1  0  0  0
 37 47  1  0  0  0
 37 66  1  0  0  0
 37109  1  0  0  0
 38 43  2  0  0  0
 38 46  1  0  0  0
 38 47  1  0  0  0
 39 64  1  0  0  0
 39 67  2  0  0  0
 40 52  1  0  0  0
 40 53  2  0  0  0
 40 58  1  0  0  0
 41110  1  0  0  0
 41111  1  0  0  0
 41112  1  0  0  0
 41 48  1  0  0  0
 42 43  1  0  0  0
 42 66  1  0  0  0
 42113  1  0  0  0
 42114  1  0  0  0
 43 44  1  0  0  0
 44115  1  0  0  0
 45 46  2  0  0  0
 45116  1  0  0  0
 46117  1  0  0  0
 47118  1  0  0  0
 47119  1  0  0  0
 48 56  1  0  0  0
 48 65  1  0  0  0
 48120  1  0  0  0
 49 50  1  0  0  0
 49 53  1  0  0  0
 49 64  1  0  0  0
 49121  1  0  0  0
 50 51  1  0  0  0
 50122  1  0  0  0
 50123  1  0  0  0
 51 52  1  0  0  0
 51124  1  0  0  0
 51125  1  0  0  0
 52126  1  0  0  0
 52127  1  0  0  0
 53 54  1  0  0  0
 54 55  2  0  0  0
 54128  1  0  0  0
 55 57  1  0  0  0
 55129  1  0  0  0
 56 69  2  0  0  0
 57 58  2  0  0  0
 57130  1  0  0  0
 58131  1  0  0  0
 59 60  1  0  0  0
 59 61  1  0  0  0
 59 62  1  0  0  0
 60132  1  0  0  0
 60133  1  0  0  0
 60134  1  0  0  0
 61135  1  0  0  0
 61136  1  0  0  0
 61137  1  0  0  0
 62138  1  0  0  0
 62139  1  0  0  0
 62140  1  0  0  0
 63 65  1  0  0  0
 63141  1  0  0  0
 63142  1  0  0  0
 63143  1  0  0  0
 64144  1  0  0  0
 65145  1  0  0  0
 68 81  1  0  0  0
 71 73  2  0  0  0
 71 75  1  0  0  0
 71146  1  0  0  0
 72 75  2  0  0  0
 72 76  1  0  0  0
 72147  1  0  0  0
 73 74  1  0  0  0
 73 83  1  0  0  0
 74 76  2  0  0  0
 74 82  1  0  0  0
 75 84  1  0  0  0
 76 86  1  0  0  0
 77 78  1  0  0  0
 77 79  1  0  0  0
 77148  1  0  0  0
 77149  1  0  0  0
 78 81  1  0  0  0
 78150  1  0  0  0
 78151  1  0  0  0
 79 85  1  0  0  0
 79152  1  0  0  0
 79153  1  0  0  0
 80 81  1  0  0  0
 80 85  1  0  0  0
 80154  1  0  0  0
 80155  1  0  0  0
 81156  1  0  0  0
 82157  1  0  0  0
 82158  1  0  0  0
 82159  1  0  0  0
 83160  1  0  0  0
 83161  1  0  0  0
 83 85  1  0  0  0
 84162  1  0  0  0
 85163  1  0  0  0
M  CHG  1  85   1
M  ISO  4   1 100  68 101  81 101  84 100
M  END
> <chiral flag>
0

> <version>
0

> <s_m_source_file>
/data/baiqing/PycharmProjects/Reinvent-master-3.2/result/LINK_invent/BTK/process_docking_weight1_custom_product_contain_oxygen_bond_distance_aromatic_linkinvent_7_9_3/rearranged_h_0035.sdf

> <i_m_source_file_index>
74

> <r_mmod_Potential_Energy-OPLS-2005>
130.652801513672

> <r_mmod_Stretch_Energy-OPLS-2005>
130.80940246582

> <r_mmod_Bend_Energy-OPLS-2005>
177.812164306641

> <r_mmod_Torsional_Energy-OPLS-2005>
272.197967529297

> <r_mmod_Improper_Torsional_Energy-OPLS-2005>
5.57549047470093

> <r_mmod_Van_der_Waal_Energy-OPLS-2005>
138.574920654297

> <r_mmod_Electrostatic_Energy-OPLS-2005>
-230.113403320312

> <r_mmod_Solvation_Energy-OPLS-2005>
-444.240600585938

> <b_mmod_Minimization_Converged-OPLS-2005>
0

> <r_mmod_RMS_Derivative-OPLS-2005>
2.82117438316345

$$$$
75
                    3D
 Structure written by MMmdl.
170179  0  0  1  0            999 V2000
  -30.7511  -14.5311   20.4784 C   0  0  0  0  0  0
  -30.4131  -12.3141   19.4605 C   0  0  0  0  0  0
  -29.5122  -12.4679   18.2194 C   0  0  0  0  0  0
  -28.0246  -12.3792   18.6150 C   0  0  0  0  0  0
  -27.6597  -13.2406   19.8608 C   0  0  2  0  0  0
  -28.7122  -13.0915   20.9891 C   0  0  0  0  0  0
  -25.2600  -13.8230   20.5663 C   0  0  0  0  0  0
  -24.1890  -13.0479   20.9166 C   0  0  0  0  0  0
  -24.6449  -11.6947   20.8730 C   0  0  0  0  0  0
  -23.9148  -10.4319   21.0396 C   0  0  0  0  0  0
  -24.3665   -9.4213   21.9159 C   0  0  0  0  0  0
  -23.6293   -8.2266   22.0703 C   0  0  0  0  0  0
  -22.4271   -8.0281   21.3524 C   0  0  0  0  0  0
  -21.9938   -9.0295   20.4631 C   0  0  0  0  0  0
  -22.7319  -10.2153   20.3041 C   0  0  0  0  0  0
  -21.6875   -6.0752   22.5263 C   0  0  0  0  0  0
  -21.4029   -6.5617   23.8210 C   0  0  0  0  0  0
  -21.3660   -5.6758   24.9178 C   0  0  0  0  0  0
  -21.6042   -4.3013   24.7249 C   0  0  0  0  0  0
  -21.8822   -3.8123   23.4333 C   0  0  0  0  0  0
  -21.9194   -4.6964   22.3400 C   0  0  0  0  0  0
  -22.7889  -13.5219   21.1793 C   0  0  0  0  0  0
  -22.1669   -4.2147   21.0981 F   0  0  0  0  0  0
  -21.5631   -3.4474   25.7761 F   0  0  0  0  0  0
  -30.0360  -13.3690   20.4148 N   0  0  0  0  0  0
  -26.3083  -12.9488   20.3305 N   0  0  0  0  0  0
  -25.9399  -11.6639   20.5755 N   0  0  0  0  0  0
  -22.0502  -12.8298   22.0352 N   0  0  0  0  0  0
  -25.4313  -15.1970   20.4158 N   0  0  0  0  0  0
  -31.9228  -14.5837   20.0922 O   0  0  0  0  0  0
  -21.6603   -6.8885   21.4225 O   0  0  0  0  0  0
  -22.3581  -14.5556   20.6556 O   0  0  0  0  0  0
  -24.6225  -31.8607   23.2031 C   0  0  0  0  0  0
  -25.9062  -32.4771   23.8407 C   0  0  1  0  0  0
  -27.2657  -27.3691   20.1197 C   0  0  0  0  0  0
  -25.5847  -33.8574   24.2304 N   0  0  0  0  0  0
  -23.4208  -30.4855   21.5328 C   0  0  2  0  0  0
  -24.8724  -28.9316   20.1123 C   0  0  0  0  0  0
  -22.7461  -29.4645   22.4815 C   0  0  0  0  0  0
  -18.0291  -28.1382   22.8497 C   0  0  0  0  0  0
  -24.1444  -36.7311   23.2655 C   0  0  0  0  0  0
  -25.9592  -30.8004   21.3810 C   0  0  0  0  0  0
  -26.0272  -29.4305   20.7200 C   0  0  0  0  0  0
  -27.2187  -28.6615   20.7112 C   0  0  0  0  0  0
  -26.0730  -26.8800   19.5313 C   0  0  0  0  0  0
  -24.8928  -27.6553   19.5100 C   0  0  0  0  0  0
  -23.6435  -29.8177   20.1454 C   0  0  0  0  0  0
  -25.4078  -36.3154   24.0363 C   0  0  1  0  0  0
  -20.5873  -28.3695   23.1210 C   0  0  2  0  0  0
  -20.6739  -26.9404   22.5393 C   0  0  0  0  0  0
  -19.5710  -26.6370   21.5195 C   0  0  0  0  0  0
  -18.1901  -26.7933   22.1636 C   0  0  0  0  0  0
  -19.1553  -28.8836   23.2868 C   0  0  0  0  0  0
  -18.9511  -30.1409   23.8915 C   0  0  0  0  0  0
  -17.6523  -30.6574   24.0565 C   0  0  0  0  0  0
  -25.9029  -34.9467   23.5161 C   0  0  0  0  0  0
  -16.5380  -29.9091   23.6321 C   0  0  0  0  0  0
  -16.7295  -28.6485   23.0385 C   0  0  0  0  0  0
  -26.4436  -31.6625   25.0800 C   0  0  0  0  0  0
  -25.3640  -31.3832   26.1538 C   0  0  0  0  0  0
  -27.0258  -30.2998   24.6351 C   0  0  0  0  0  0
  -27.6025  -32.4370   25.7523 C   0  0  0  0  0  0
  -27.5607  -37.1819   24.8482 C   0  0  0  0  0  0
  -21.4156  -29.3057   22.3586 N   0  0  0  0  0  0
  -26.4297  -37.3833   23.9453 N   0  0  0  0  0  0
  -24.6838  -31.0699   22.0937 N   0  0  0  0  0  0
  -23.4197  -28.8226   23.2926 O   0  0  0  0  0  0
  -28.4750  -26.6685   20.1677 O   0  0  0  0  0  0
  -26.5651  -34.8950   22.4754 O   0  0  0  0  0  0
  -23.5391  -32.1379   23.7356 O   0  0  0  0  0  0
  -29.8036  -18.3191   22.2329 C   0  0  0  0  0  0
  -30.4164  -19.5868   20.2518 C   0  0  0  0  0  0
  -30.2421  -18.3250   20.8971 C   0  0  0  0  0  0
  -29.5593  -19.5249   22.9301 C   0  0  0  0  0  0
  -30.1347  -20.8270   20.9102 C   0  0  0  0  0  0
  -29.7477  -20.7825   22.2882 C   0  0  0  0  0  0
  -28.5946  -22.7184   18.1934 C   0  0  0  0  0  0
  -29.0635  -21.8284   17.2838 C   0  0  0  0  0  0
  -27.6624  -23.8852   17.8465 C   0  0  0  0  0  0
  -28.4031  -25.2186   18.0845 C   0  0  0  0  0  0
  -28.5100  -24.0422   20.3879 C   0  0  0  0  0  0
  -28.7999  -25.3646   19.5718 C   0  0  2  0  0  0
  -29.0685  -19.4515   24.3766 C   0  0  0  0  0  0
  -29.5343  -22.0623   23.1059 C   0  0  0  0  0  0
  -30.5540  -17.0036   20.1506 C   0  0  0  0  0  0
  -30.2501  -22.1841   20.1365 C   0  0  0  0  0  0
  -30.0872  -15.6902   20.7010 N   0  0  0  0  0  0
  -28.9213  -22.7485   19.6915 N   0  3  2  0  0  0
  -31.4601  -12.3632   19.1691 H   0  0  0  0  0  0
  -30.2877  -11.3349   19.9137 H   0  0  0  0  0  0
  -29.7588  -11.6912   17.4895 H   0  0  0  0  0  0
  -29.7134  -13.4265   17.7331 H   0  0  0  0  0  0
  -27.8005  -11.3284   18.7971 H   0  0  0  0  0  0
  -27.4091  -12.6719   17.7690 H   0  0  0  0  0  0
  -27.6867  -14.2793   19.5303 H   0  0  0  0  0  0
  -28.7010  -12.0763   21.3933 H   0  0  0  0  0  0
  -28.4946  -13.7569   21.8294 H   0  0  0  0  0  0
  -25.2825   -9.5670   22.4740 H   0  0  0  0  0  0
  -24.0003   -7.4653   22.7381 H   0  0  0  0  0  0
  -21.0855   -8.8821   19.8954 H   0  0  0  0  0  0
  -22.3761  -10.9673   19.6116 H   0  0  0  0  0  0
  -21.2000   -7.6103   23.9760 H   0  0  0  0  0  0
  -21.1493   -6.0435   25.9084 H   0  0  0  0  0  0
  -22.0604   -2.7566   23.2823 H   0  0  0  0  0  0
  -22.4088  -12.0017   22.4916 H   0  0  0  0  0  0
  -21.1092  -13.1351   22.2449 H   0  0  0  0  0  0
  -24.6624  -15.8466   20.5276 H   0  0  0  0  0  0
  -26.2708  -15.6382   20.0547 H   0  0  0  0  0  0
  -26.7139  -32.5488   23.1207 H   0  0  0  0  0  0
  -24.9946  -33.9687   25.0424 H   0  0  0  0  0  0
  -22.7173  -31.3080   21.3830 H   0  0  0  0  0  0
  -23.3772  -35.9600   23.3297 H   0  0  0  0  0  0
  -24.3553  -36.8932   22.2095 H   0  0  0  0  0  0
  -23.7110  -37.6458   23.6652 H   0  0  0  0  0  0
  -26.1232  -31.5717   20.6261 H   0  0  0  0  0  0
  -26.8292  -30.8230   22.0247 H   0  0  0  0  0  0
  -28.1126  -29.0614   21.1731 H   0  0  0  0  0  0
  -26.0502  -25.8973   19.0918 H   0  0  0  0  0  0
  -24.0056  -27.2621   19.0351 H   0  0  0  0  0  0
  -23.7838  -30.6021   19.3957 H   0  0  0  0  0  0
  -22.7668  -29.2454   19.8350 H   0  0  0  0  0  0
  -25.1247  -36.2064   25.0864 H   0  0  0  0  0  0
  -21.0037  -28.3347   24.1295 H   0  0  0  0  0  0
  -20.5495  -26.2395   23.3666 H   0  0  0  0  0  0
  -21.6634  -26.7321   22.1280 H   0  0  0  0  0  0
  -19.6850  -25.6263   21.1244 H   0  0  0  0  0  0
  -19.6634  -27.3156   20.6694 H   0  0  0  0  0  0
  -17.4177  -26.6691   21.4037 H   0  0  0  0  0  0
  -18.0302  -26.0044   22.8995 H   0  0  0  0  0  0
  -19.7972  -30.7184   24.2370 H   0  0  0  0  0  0
  -17.5070  -31.6276   24.5159 H   0  0  0  0  0  0
  -15.5368  -30.3038   23.7558 H   0  0  0  0  0  0
  -15.8697  -28.0766   22.7150 H   0  0  0  0  0  0
  -24.5806  -30.7150   25.7943 H   0  0  0  0  0  0
  -24.8843  -32.3016   26.4927 H   0  0  0  0  0  0
  -25.7960  -30.9091   27.0359 H   0  0  0  0  0  0
  -26.2870  -29.6778   24.1266 H   0  0  0  0  0  0
  -27.3747  -29.7254   25.4962 H   0  0  0  0  0  0
  -27.8855  -30.4241   23.9751 H   0  0  0  0  0  0
  -27.2665  -33.3751   26.1979 H   0  0  0  0  0  0
  -28.3863  -32.6774   25.0309 H   0  0  0  0  0  0
  -28.0624  -31.8537   26.5526 H   0  0  0  0  0  0
  -28.2645  -38.0104   24.7556 H   0  0  0  0  0  0
  -28.1059  -36.2639   24.6239 H   0  0  0  0  0  0
  -27.2331  -37.1420   25.8882 H   0  0  0  0  0  0
  -20.9321  -29.8893   21.6884 H   0  0  0  0  0  0
  -26.0208  -38.2930   24.1408 H   0  0  0  0  0  0
  -29.6735  -17.3709   22.7373 H   0  0  0  0  0  0
  -30.7864  -19.5825   19.2329 H   0  0  0  0  0  0
  -28.7835  -21.9058   16.2375 H   0  0  0  0  0  0
  -29.7410  -21.0081   17.4989 H   0  0  0  0  0  0
  -26.7612  -23.8221   18.4594 H   0  0  0  0  0  0
  -27.2854  -23.8219   16.8291 H   0  0  0  0  0  0
  -27.8314  -26.0737   17.7317 H   0  0  0  0  0  0
  -29.3067  -25.2433   17.4759 H   0  0  0  0  0  0
  -27.4362  -23.9649   20.5630 H   0  0  0  0  0  0
  -28.9201  -24.1113   21.3913 H   0  0  0  0  0  0
  -29.8941  -25.4195   19.5667 H   0  0  0  0  0  0
  -28.8955  -18.4227   24.6880 H   0  0  0  0  0  0
  -28.1333  -20.0004   24.5057 H   0  0  0  0  0  0
  -29.8069  -19.8686   25.0635 H   0  0  0  0  0  0
  -29.6604  -21.9185   24.1786 H   0  0  0  0  0  0
  -28.5176  -22.4346   22.9847 H   0  0  0  0  0  0
  -30.2484  -22.8502   22.8689 H   0  0  0  0  0  0
  -31.6350  -17.0013   19.9963 H   0  0  0  0  0  0
  -30.1334  -17.0892   19.1452 H   0  0  0  0  0  0
  -30.9291  -22.0843   19.2832 H   0  0  0  0  0  0
  -30.7770  -22.9125   20.7608 H   0  0  0  0  0  0
  -29.1347  -15.6298   21.0351 H   0  0  0  0  0  0
  -28.3168  -22.0512   20.1075 H   0  0  0  0  0  0
  1 25  1  0  0  0
  1 30  2  0  0  0
  1 87  1  0  0  0
  2  3  1  0  0  0
  2 25  1  0  0  0
  2 89  1  0  0  0
  2 90  1  0  0  0
  3  4  1  0  0  0
  3 91  1  0  0  0
  3 92  1  0  0  0
  4  5  1  0  0  0
  4 93  1  0  0  0
  4 94  1  0  0  0
  5  6  1  0  0  0
  5 26  1  0  0  0
  5 95  1  0  0  0
  6 25  1  0  0  0
  6 96  1  0  0  0
  6 97  1  0  0  0
  7  8  2  0  0  0
  7 26  1  0  0  0
  7 29  1  0  0  0
  8  9  1  0  0  0
  8 22  1  0  0  0
  9 10  1  0  0  0
  9 27  2  0  0  0
 10 11  2  0  0  0
 10 15  1  0  0  0
 11 12  1  0  0  0
 11 98  1  0  0  0
 12 13  2  0  0  0
 12 99  1  0  0  0
 13 14  1  0  0  0
 13 31  1  0  0  0
 14 15  2  0  0  0
 14100  1  0  0  0
 15101  1  0  0  0
 16 17  2  0  0  0
 16 21  1  0  0  0
 16 31  1  0  0  0
 17 18  1  0  0  0
 17102  1  0  0  0
 18 19  2  0  0  0
 18103  1  0  0  0
 19 20  1  0  0  0
 19 24  1  0  0  0
 20 21  2  0  0  0
 20104  1  0  0  0
 21 23  1  0  0  0
 22 28  1  0  0  0
 22 32  2  0  0  0
 26 27  1  0  0  0
 28105  1  0  0  0
 28106  1  0  0  0
 29107  1  0  0  0
 29108  1  0  0  0
 33 34  1  0  0  0
 33 66  1  0  0  0
 33 70  2  0  0  0
 34 36  1  0  0  0
 34 59  1  0  0  0
 34109  1  0  0  0
 35 44  2  0  0  0
 35 45  1  0  0  0
 35 68  1  0  0  0
 36 56  1  0  0  0
 36110  1  0  0  0
 37 39  1  0  0  0
 37 47  1  0  0  0
 37 66  1  0  0  0
 37111  1  0  0  0
 38 43  2  0  0  0
 38 46  1  0  0  0
 38 47  1  0  0  0
 39 64  1  0  0  0
 39 67  2  0  0  0
 40 52  1  0  0  0
 40 53  2  0  0  0
 40 58  1  0  0  0
 41112  1  0  0  0
 41113  1  0  0  0
 41114  1  0  0  0
 41 48  1  0  0  0
 42 43  1  0  0  0
 42 66  1  0  0  0
 42115  1  0  0  0
 42116  1  0  0  0
 43 44  1  0  0  0
 44117  1  0  0  0
 45 46  2  0  0  0
 45118  1  0  0  0
 46119  1  0  0  0
 47120  1  0  0  0
 47121  1  0  0  0
 48 56  1  0  0  0
 48 65  1  0  0  0
 48122  1  0  0  0
 49 50  1  0  0  0
 49 53  1  0  0  0
 49 64  1  0  0  0
 49123  1  0  0  0
 50 51  1  0  0  0
 50124  1  0  0  0
 50125  1  0  0  0
 51 52  1  0  0  0
 51126  1  0  0  0
 51127  1  0  0  0
 52128  1  0  0  0
 52129  1  0  0  0
 53 54  1  0  0  0
 54 55  2  0  0  0
 54130  1  0  0  0
 55 57  1  0  0  0
 55131  1  0  0  0
 56 69  2  0  0  0
 57 58  2  0  0  0
 57132  1  0  0  0
 58133  1  0  0  0
 59 60  1  0  0  0
 59 61  1  0  0  0
 59 62  1  0  0  0
 60134  1  0  0  0
 60135  1  0  0  0
 60136  1  0  0  0
 61137  1  0  0  0
 61138  1  0  0  0
 61139  1  0  0  0
 62140  1  0  0  0
 62141  1  0  0  0
 62142  1  0  0  0
 63 65  1  0  0  0
 63143  1  0  0  0
 63144  1  0  0  0
 63145  1  0  0  0
 64146  1  0  0  0
 65147  1  0  0  0
 68 82  1  0  0  0
 71 73  2  0  0  0
 71 74  1  0  0  0
 71148  1  0  0  0
 72 73  1  0  0  0
 72 75  2  0  0  0
 72149  1  0  0  0
 73 85  1  0  0  0
 74 76  2  0  0  0
 74 83  1  0  0  0
 75 76  1  0  0  0
 75 86  1  0  0  0
 76 84  1  0  0  0
 77 78  2  0  0  0
 77 79  1  0  0  0
 77 88  1  0  0  0
 78150  1  0  0  0
 78151  1  0  0  0
 79 80  1  0  0  0
 79152  1  0  0  0
 79153  1  0  0  0
 80 82  1  0  0  0
 80154  1  0  0  0
 80155  1  0  0  0
 81 82  1  0  0  0
 81 88  1  0  0  0
 81156  1  0  0  0
 81157  1  0  0  0
 82158  1  0  0  0
 83159  1  0  0  0
 83160  1  0  0  0
 83161  1  0  0  0
 84162  1  0  0  0
 84163  1  0  0  0
 84164  1  0  0  0
 85 87  1  0  0  0
 85165  1  0  0  0
 85166  1  0  0  0
 86167  1  0  0  0
 86168  1  0  0  0
 86 88  1  0  0  0
 87169  1  0  0  0
 88170  1  0  0  0
M  CHG  1  88   1
M  ISO  4   1 100  68 101  82 101  87 100
M  END
> <chiral flag>
0

> <version>
0

> <s_m_source_file>
/data/baiqing/PycharmProjects/Reinvent-master-3.2/result/LINK_invent/BTK/process_docking_weight1_custom_product_contain_oxygen_bond_distance_aromatic_linkinvent_7_9_3/rearranged_h_0035.sdf

> <i_m_source_file_index>
75

> <r_mmod_Potential_Energy-OPLS-2005>
-74.1650466918945

> <r_mmod_Stretch_Energy-OPLS-2005>
76.3496551513672

> <r_mmod_Bend_Energy-OPLS-2005>
174.808975219727

> <r_mmod_Torsional_Energy-OPLS-2005>
230.53337097168

> <r_mmod_Improper_Torsional_Energy-OPLS-2005>
7.37524509429932

> <r_mmod_Van_der_Waal_Energy-OPLS-2005>
162.299438476562

> <r_mmod_Electrostatic_Energy-OPLS-2005>
-340.405456542969

> <r_mmod_Solvation_Energy-OPLS-2005>
-416.908966064453

> <b_mmod_Minimization_Converged-OPLS-2005>
0

> <r_mmod_RMS_Derivative-OPLS-2005>
11.5171575546265

$$$$
76
                    3D
 Structure written by MMmdl.
174183  0  0  1  0            999 V2000
  -30.6441  -14.5368   20.5202 C   0  0  0  0  0  0
  -30.4316  -12.3369   19.4206 C   0  0  0  0  0  0
  -29.4938  -12.4996   18.2054 C   0  0  0  0  0  0
  -28.0176  -12.3473   18.6228 C   0  0  0  0  0  0
  -27.6578  -13.2002   19.8694 C   0  0  2  0  0  0
  -28.7024  -13.0004   20.9900 C   0  0  0  0  0  0
  -25.2577  -13.8184   20.5646 C   0  0  0  0  0  0
  -24.1822  -13.0455   20.9157 C   0  0  0  0  0  0
  -24.6375  -11.6916   20.8745 C   0  0  0  0  0  0
  -23.9047  -10.4296   21.0417 C   0  0  0  0  0  0
  -24.3607   -9.4219   21.9190 C   0  0  0  0  0  0
  -23.6284   -8.2258   22.0772 C   0  0  0  0  0  0
  -22.4273   -8.0285   21.3552 C   0  0  0  0  0  0
  -21.9899   -9.0256   20.4655 C   0  0  0  0  0  0
  -22.7225  -10.2136   20.3057 C   0  0  0  0  0  0
  -21.6847   -6.0738   22.5278 C   0  0  0  0  0  0
  -21.4022   -6.5643   23.8211 C   0  0  0  0  0  0
  -21.3657   -5.6794   24.9169 C   0  0  0  0  0  0
  -21.6042   -4.3056   24.7218 C   0  0  0  0  0  0
  -21.8818   -3.8152   23.4335 C   0  0  0  0  0  0
  -21.9195   -4.6969   22.3395 C   0  0  0  0  0  0
  -22.7853  -13.5268   21.1828 C   0  0  0  0  0  0
  -22.1656   -4.2157   21.0969 F   0  0  0  0  0  0
  -21.5623   -3.4538   25.7729 F   0  0  0  0  0  0
  -30.0266  -13.3248   20.4330 N   0  0  0  0  0  0
  -26.2994  -12.9310   20.3344 N   0  0  0  0  0  0
  -25.9290  -11.6478   20.5770 N   0  0  0  0  0  0
  -22.0489  -12.8286   22.0415 N   0  0  0  0  0  0
  -25.4300  -15.1890   20.4042 N   0  0  0  0  0  0
  -31.7864  -14.7376   20.1003 O   0  0  0  0  0  0
  -21.6641   -6.8877   21.4240 O   0  0  0  0  0  0
  -22.3537  -14.5558   20.6658 O   0  0  0  0  0  0
  -24.6165  -31.8650   23.2085 C   0  0  0  0  0  0
  -25.9035  -32.4826   23.8407 C   0  0  1  0  0  0
  -27.2265  -27.4009   20.0986 C   0  0  0  0  0  0
  -25.5853  -33.8630   24.2315 N   0  0  0  0  0  0
  -23.4081  -30.4881   21.5517 C   0  0  2  0  0  0
  -24.8514  -28.9499   20.1147 C   0  0  0  0  0  0
  -22.7431  -29.4628   22.4985 C   0  0  0  0  0  0
  -18.0256  -28.1395   22.8482 C   0  0  0  0  0  0
  -24.1474  -36.7335   23.2640 C   0  0  0  0  0  0
  -25.9397  -30.8188   21.3687 C   0  0  0  0  0  0
  -26.0151  -29.4501   20.7139 C   0  0  0  0  0  0
  -27.2072  -28.6852   20.6972 C   0  0  0  0  0  0
  -26.0458  -26.9203   19.4928 C   0  0  0  0  0  0
  -24.8631  -27.6845   19.4989 C   0  0  0  0  0  0
  -23.6193  -29.8257   20.1645 C   0  0  0  0  0  0
  -25.4099  -36.3119   24.0334 C   0  0  1  0  0  0
  -20.5851  -28.3669   23.1319 C   0  0  2  0  0  0
  -20.6758  -26.9402   22.5432 C   0  0  0  0  0  0
  -19.5731  -26.6388   21.5237 C   0  0  0  0  0  0
  -18.1901  -26.7939   22.1631 C   0  0  0  0  0  0
  -19.1512  -28.8850   23.2894 C   0  0  0  0  0  0
  -18.9439  -30.1455   23.8915 C   0  0  0  0  0  0
  -17.6449  -30.6598   24.0573 C   0  0  0  0  0  0
  -25.9013  -34.9488   23.5133 C   0  0  0  0  0  0
  -16.5336  -29.9111   23.6333 C   0  0  0  0  0  0
  -16.7248  -28.6526   23.0350 C   0  0  0  0  0  0
  -26.4434  -31.6617   25.0758 C   0  0  0  0  0  0
  -25.3680  -31.3738   26.1489 C   0  0  0  0  0  0
  -27.0259  -30.3054   24.6150 C   0  0  0  0  0  0
  -27.5977  -32.4347   25.7530 C   0  0  0  0  0  0
  -27.5579  -37.1826   24.8450 C   0  0  0  0  0  0
  -21.4159  -29.3037   22.3747 N   0  0  0  0  0  0
  -26.4282  -37.3810   23.9404 N   0  0  0  0  0  0
  -24.6734  -31.0722   22.1010 N   0  0  0  0  0  0
  -23.4184  -28.8167   23.3052 O   0  0  0  0  0  0
  -28.3813  -26.6385   20.0952 O   0  0  0  0  0  0
  -26.5610  -34.8933   22.4716 O   0  0  0  0  0  0
  -23.5352  -32.1418   23.7448 O   0  0  0  0  0  0
  -29.4211  -18.9687   19.4015 C   0  0  0  0  0  0
  -30.3839  -17.8124   21.7579 C   0  0  0  0  0  0
  -29.4788  -17.5566   19.5207 C   0  0  0  0  0  0
  -29.8502  -19.8279   20.4404 C   0  0  0  0  0  0
  -29.9519  -16.9551   20.7198 C   0  0  0  0  0  0
  -30.3576  -19.2231   21.6210 C   0  0  0  0  0  0
  -27.8208  -22.8635   19.5844 C   0  0  0  0  0  0
  -26.6850  -22.3995   19.0230 C   0  0  0  0  0  0
  -26.0751  -21.1116   19.3296 C   0  0  0  0  0  0
  -24.8681  -20.7384   18.8680 C   0  0  0  0  0  0
  -28.4169  -24.2595   19.3311 C   0  0  0  0  0  0
  -29.4371  -23.7254   22.3504 C   0  0  0  0  0  0
  -29.4124  -25.0398   21.5284 C   0  0  0  0  0  0
  -28.4630  -22.5758   21.9895 C   0  0  0  0  0  0
  -28.2723  -25.2543   20.5165 C   0  0  1  0  0  0
  -29.0157  -16.7197   18.3415 C   0  0  0  0  0  0
  -24.2036  -19.4202   19.1990 C   0  0  0  0  0  0
  -29.8248  -21.3625   20.2175 C   0  0  0  0  0  0
  -29.8484  -15.5400   20.9602 N   0  0  0  0  0  0
  -28.5456  -22.0344   20.6097 N   0  3  2  0  0  0
  -30.9492  -20.1856   22.9267 Cl  0  0  0  0  0  0
  -31.4707  -12.4624   19.1100 H   0  0  0  0  0  0
  -30.3597  -11.3267   19.8269 H   0  0  0  0  0  0
  -29.7378  -11.7639   17.4373 H   0  0  0  0  0  0
  -29.6462  -13.4781   17.7483 H   0  0  0  0  0  0
  -27.8442  -11.2915   18.8367 H   0  0  0  0  0  0
  -27.3589  -12.5986   17.7907 H   0  0  0  0  0  0
  -27.6927  -14.2428   19.5576 H   0  0  0  0  0  0
  -28.6903  -11.9672   21.3409 H   0  0  0  0  0  0
  -28.4573  -13.6067   21.8634 H   0  0  0  0  0  0
  -25.2745   -9.5692   22.4768 H   0  0  0  0  0  0
  -23.9983   -7.4652   22.7490 H   0  0  0  0  0  0
  -21.0835   -8.8767   19.8950 H   0  0  0  0  0  0
  -22.3688  -10.9671   19.6164 H   0  0  0  0  0  0
  -21.2026   -7.6152   23.9713 H   0  0  0  0  0  0
  -21.1474   -6.0524   25.9070 H   0  0  0  0  0  0
  -22.0602   -2.7613   23.2831 H   0  0  0  0  0  0
  -22.4105  -11.9978   22.4860 H   0  0  0  0  0  0
  -21.1118  -13.1342   22.2617 H   0  0  0  0  0  0
  -24.6613  -15.8415   20.5064 H   0  0  0  0  0  0
  -26.2843  -15.6342   20.0985 H   0  0  0  0  0  0
  -26.7118  -32.5509   23.1175 H   0  0  0  0  0  0
  -24.9931  -33.9791   25.0412 H   0  0  0  0  0  0
  -22.6969  -31.3052   21.4137 H   0  0  0  0  0  0
  -23.3729  -35.9671   23.3292 H   0  0  0  0  0  0
  -24.3559  -36.8971   22.2048 H   0  0  0  0  0  0
  -23.7222  -37.6540   23.6665 H   0  0  0  0  0  0
  -26.0548  -31.5821   20.5966 H   0  0  0  0  0  0
  -26.8264  -30.8722   21.9901 H   0  0  0  0  0  0
  -28.1071  -29.0620   21.1614 H   0  0  0  0  0  0
  -26.0329  -25.9564   19.0049 H   0  0  0  0  0  0
  -23.9710  -27.2985   19.0227 H   0  0  0  0  0  0
  -23.7420  -30.6036   19.4113 H   0  0  0  0  0  0
  -22.7384  -29.2583   19.8580 H   0  0  0  0  0  0
  -25.1277  -36.1998   25.0828 H   0  0  0  0  0  0
  -20.9918  -28.3235   24.1453 H   0  0  0  0  0  0
  -20.5674  -26.2277   23.3616 H   0  0  0  0  0  0
  -21.6627  -26.7463   22.1214 H   0  0  0  0  0  0
  -19.6894  -25.6297   21.1254 H   0  0  0  0  0  0
  -19.6688  -27.3205   20.6759 H   0  0  0  0  0  0
  -17.4181  -26.6678   21.4020 H   0  0  0  0  0  0
  -18.0286  -26.0096   22.9031 H   0  0  0  0  0  0
  -19.7918  -30.7255   24.2306 H   0  0  0  0  0  0
  -17.5007  -31.6276   24.5177 H   0  0  0  0  0  0
  -15.5335  -30.3031   23.7665 H   0  0  0  0  0  0
  -15.8629  -28.0866   22.7073 H   0  0  0  0  0  0
  -24.5826  -30.7112   25.7831 H   0  0  0  0  0  0
  -24.8894  -32.2897   26.4961 H   0  0  0  0  0  0
  -25.8006  -30.8884   27.0248 H   0  0  0  0  0  0
  -26.2832  -29.6861   24.1102 H   0  0  0  0  0  0
  -27.3900  -29.7248   25.4636 H   0  0  0  0  0  0
  -27.8720  -30.4377   23.9402 H   0  0  0  0  0  0
  -27.2556  -33.3616   26.2154 H   0  0  0  0  0  0
  -28.3760  -32.6974   25.0350 H   0  0  0  0  0  0
  -28.0677  -31.8459   26.5414 H   0  0  0  0  0  0
  -28.2579  -38.0143   24.7511 H   0  0  0  0  0  0
  -28.1091  -36.2667   24.6249 H   0  0  0  0  0  0
  -27.2295  -37.1454   25.8854 H   0  0  0  0  0  0
  -20.9325  -29.8772   21.6977 H   0  0  0  0  0  0
  -26.0171  -38.2889   24.1424 H   0  0  0  0  0  0
  -29.0452  -19.4051   18.4850 H   0  0  0  0  0  0
  -30.7347  -17.3849   22.6873 H   0  0  0  0  0  0
  -26.1778  -23.0409   18.3121 H   0  0  0  0  0  0
  -26.5959  -20.4044   19.9559 H   0  0  0  0  0  0
  -24.3006  -21.3987   18.2243 H   0  0  0  0  0  0
  -27.8959  -24.6709   18.4643 H   0  0  0  0  0  0
  -29.4570  -24.1740   19.0143 H   0  0  0  0  0  0
  -29.2150  -23.9958   23.3856 H   0  0  0  0  0  0
  -30.4584  -23.3483   22.3899 H   0  0  0  0  0  0
  -30.3659  -25.1390   21.0056 H   0  0  0  0  0  0
  -29.4022  -25.8712   22.2339 H   0  0  0  0  0  0
  -27.4360  -22.8966   22.1669 H   0  0  0  0  0  0
  -28.6170  -21.7518   22.6878 H   0  0  0  0  0  0
  -27.3159  -25.0990   21.0230 H   0  0  0  0  0  0
  -28.9956  -17.3156   17.4282 H   0  0  0  0  0  0
  -28.0113  -16.3343   18.5078 H   0  0  0  0  0  0
  -29.6941  -15.8879   18.1577 H   0  0  0  0  0  0
  -24.8069  -18.8176   19.8803 H   0  0  0  0  0  0
  -24.0342  -18.8431   18.2901 H   0  0  0  0  0  0
  -23.2370  -19.6024   19.6715 H   0  0  0  0  0  0
  -29.9849  -21.5423   19.1517 H   0  0  0  0  0  0
  -30.6815  -21.8298   20.7010 H   0  0  0  0  0  0
  -28.9557  -15.2263   21.3098 H   0  0  0  0  0  0
  -27.9523  -21.2240   20.6971 H   0  0  0  0  0  0
  1 25  1  0  0  0
  1 30  2  0  0  0
  1 89  1  0  0  0
  2  3  1  0  0  0
  2 25  1  0  0  0
  2 92  1  0  0  0
  2 93  1  0  0  0
  3  4  1  0  0  0
  3 94  1  0  0  0
  3 95  1  0  0  0
  4  5  1  0  0  0
  4 96  1  0  0  0
  4 97  1  0  0  0
  5  6  1  0  0  0
  5 26  1  0  0  0
  5 98  1  0  0  0
  6 25  1  0  0  0
  6 99  1  0  0  0
  6100  1  0  0  0
  7  8  2  0  0  0
  7 26  1  0  0  0
  7 29  1  0  0  0
  8  9  1  0  0  0
  8 22  1  0  0  0
  9 10  1  0  0  0
  9 27  2  0  0  0
 10 11  2  0  0  0
 10 15  1  0  0  0
 11 12  1  0  0  0
 11101  1  0  0  0
 12 13  2  0  0  0
 12102  1  0  0  0
 13 14  1  0  0  0
 13 31  1  0  0  0
 14 15  2  0  0  0
 14103  1  0  0  0
 15104  1  0  0  0
 16 17  2  0  0  0
 16 21  1  0  0  0
 16 31  1  0  0  0
 17 18  1  0  0  0
 17105  1  0  0  0
 18 19  2  0  0  0
 18106  1  0  0  0
 19 20  1  0  0  0
 19 24  1  0  0  0
 20 21  2  0  0  0
 20107  1  0  0  0
 21 23  1  0  0  0
 22 28  1  0  0  0
 22 32  2  0  0  0
 26 27  1  0  0  0
 28108  1  0  0  0
 28109  1  0  0  0
 29110  1  0  0  0
 29111  1  0  0  0
 33 34  1  0  0  0
 33 66  1  0  0  0
 33 70  2  0  0  0
 34 36  1  0  0  0
 34 59  1  0  0  0
 34112  1  0  0  0
 35 44  2  0  0  0
 35 45  1  0  0  0
 35 68  1  0  0  0
 36 56  1  0  0  0
 36113  1  0  0  0
 37 39  1  0  0  0
 37 47  1  0  0  0
 37 66  1  0  0  0
 37114  1  0  0  0
 38 43  2  0  0  0
 38 46  1  0  0  0
 38 47  1  0  0  0
 39 64  1  0  0  0
 39 67  2  0  0  0
 40 52  1  0  0  0
 40 53  2  0  0  0
 40 58  1  0  0  0
 41115  1  0  0  0
 41116  1  0  0  0
 41117  1  0  0  0
 41 48  1  0  0  0
 42 43  1  0  0  0
 42 66  1  0  0  0
 42118  1  0  0  0
 42119  1  0  0  0
 43 44  1  0  0  0
 44120  1  0  0  0
 45 46  2  0  0  0
 45121  1  0  0  0
 46122  1  0  0  0
 47123  1  0  0  0
 47124  1  0  0  0
 48 56  1  0  0  0
 48 65  1  0  0  0
 48125  1  0  0  0
 49 50  1  0  0  0
 49 53  1  0  0  0
 49 64  1  0  0  0
 49126  1  0  0  0
 50 51  1  0  0  0
 50127  1  0  0  0
 50128  1  0  0  0
 51 52  1  0  0  0
 51129  1  0  0  0
 51130  1  0  0  0
 52131  1  0  0  0
 52132  1  0  0  0
 53 54  1  0  0  0
 54 55  2  0  0  0
 54133  1  0  0  0
 55 57  1  0  0  0
 55134  1  0  0  0
 56 69  2  0  0  0
 57 58  2  0  0  0
 57135  1  0  0  0
 58136  1  0  0  0
 59 60  1  0  0  0
 59 61  1  0  0  0
 59 62  1  0  0  0
 60137  1  0  0  0
 60138  1  0  0  0
 60139  1  0  0  0
 61140  1  0  0  0
 61141  1  0  0  0
 61142  1  0  0  0
 62143  1  0  0  0
 62144  1  0  0  0
 62145  1  0  0  0
 63 65  1  0  0  0
 63146  1  0  0  0
 63147  1  0  0  0
 63148  1  0  0  0
 64149  1  0  0  0
 65150  1  0  0  0
 68 85  1  0  0  0
 71 73  2  0  0  0
 71 74  1  0  0  0
 71151  1  0  0  0
 72 75  2  0  0  0
 72 76  1  0  0  0
 72152  1  0  0  0
 73 75  1  0  0  0
 73 86  1  0  0  0
 74 76  2  0  0  0
 74 88  1  0  0  0
 75 89  1  0  0  0
 76 91  1  0  0  0
 77 78  2  0  0  0
 77 81  1  0  0  0
 77 90  1  0  0  0
 78 79  1  0  0  0
 78153  1  0  0  0
 79 80  2  0  0  0
 79154  1  0  0  0
 80 87  1  0  0  0
 80155  1  0  0  0
 81 85  1  0  0  0
 81156  1  0  0  0
 81157  1  0  0  0
 82 83  1  0  0  0
 82 84  1  0  0  0
 82158  1  0  0  0
 82159  1  0  0  0
 83 85  1  0  0  0
 83160  1  0  0  0
 83161  1  0  0  0
 84 90  1  0  0  0
 84162  1  0  0  0
 84163  1  0  0  0
 85164  1  0  0  0
 86165  1  0  0  0
 86166  1  0  0  0
 86167  1  0  0  0
 87168  1  0  0  0
 87169  1  0  0  0
 87170  1  0  0  0
 88171  1  0  0  0
 88172  1  0  0  0
 88 90  1  0  0  0
 89173  1  0  0  0
 90174  1  0  0  0
M  CHG  1  90   1
M  ISO  4   1 100  68 101  85 101  89 100
M  END
> <chiral flag>
0

> <version>
0

> <s_m_source_file>
/data/baiqing/PycharmProjects/Reinvent-master-3.2/result/LINK_invent/BTK/process_docking_weight1_custom_product_contain_oxygen_bond_distance_aromatic_linkinvent_7_9_3/rearranged_h_0035.sdf

> <i_m_source_file_index>
76

> <r_mmod_Potential_Energy-OPLS-2005>
-102.72420501709

> <r_mmod_Stretch_Energy-OPLS-2005>
47.6251792907715

> <r_mmod_Bend_Energy-OPLS-2005>
134.440826416016

> <r_mmod_Torsional_Energy-OPLS-2005>
286.101715087891

> <r_mmod_Improper_Torsional_Energy-OPLS-2005>
4.96728992462158

> <r_mmod_Van_der_Waal_Energy-OPLS-2005>
128.075561523438

> <r_mmod_Electrostatic_Energy-OPLS-2005>
-293.130767822266

> <r_mmod_Solvation_Energy-OPLS-2005>
-431.887939453125

> <b_mmod_Minimization_Converged-OPLS-2005>
0

> <r_mmod_RMS_Derivative-OPLS-2005>
3.69034218788147

$$$$
77
                    3D
 Structure written by MMmdl.
163172  0  0  1  0            999 V2000
  -30.6542  -14.6153   20.5346 C   0  0  0  0  0  0
  -30.4289  -12.3817   19.4605 C   0  0  0  0  0  0
  -29.5072  -12.5114   18.2289 C   0  0  0  0  0  0
  -28.0290  -12.3578   18.6347 C   0  0  0  0  0  0
  -27.6539  -13.2209   19.8694 C   0  0  2  0  0  0
  -28.6951  -13.0672   21.0012 C   0  0  0  0  0  0
  -25.2542  -13.8191   20.5687 C   0  0  0  0  0  0
  -24.1813  -13.0448   20.9190 C   0  0  0  0  0  0
  -24.6387  -11.6919   20.8730 C   0  0  0  0  0  0
  -23.9064  -10.4295   21.0387 C   0  0  0  0  0  0
  -24.3615   -9.4213   21.9169 C   0  0  0  0  0  0
  -23.6278   -8.2257   22.0749 C   0  0  0  0  0  0
  -22.4258   -8.0291   21.3545 C   0  0  0  0  0  0
  -21.9885   -9.0266   20.4653 C   0  0  0  0  0  0
  -22.7227  -10.2138   20.3051 C   0  0  0  0  0  0
  -21.6857   -6.0724   22.5271 C   0  0  0  0  0  0
  -21.4027   -6.5632   23.8204 C   0  0  0  0  0  0
  -21.3655   -5.6786   24.9162 C   0  0  0  0  0  0
  -21.6035   -4.3045   24.7215 C   0  0  0  0  0  0
  -21.8824   -3.8132   23.4346 C   0  0  0  0  0  0
  -21.9197   -4.6951   22.3399 C   0  0  0  0  0  0
  -22.7832  -13.5232   21.1845 C   0  0  0  0  0  0
  -22.1660   -4.2138   21.0973 F   0  0  0  0  0  0
  -21.5621   -3.4532   25.7735 F   0  0  0  0  0  0
  -30.0153  -13.4046   20.4453 N   0  0  0  0  0  0
  -26.2978  -12.9380   20.3329 N   0  0  0  0  0  0
  -25.9322  -11.6530   20.5754 N   0  0  0  0  0  0
  -22.0471  -12.8241   22.0414 N   0  0  0  0  0  0
  -25.4255  -15.1917   20.4111 N   0  0  0  0  0  0
  -31.7944  -14.7384   20.0913 O   0  0  0  0  0  0
  -21.6641   -6.8875   21.4236 O   0  0  0  0  0  0
  -22.3512  -14.5521   20.6668 O   0  0  0  0  0  0
  -24.6249  -31.8616   23.2047 C   0  0  0  0  0  0
  -25.9103  -32.4782   23.8364 C   0  0  1  0  0  0
  -27.2203  -27.3279   20.1223 C   0  0  0  0  0  0
  -25.5927  -33.8582   24.2293 N   0  0  0  0  0  0
  -23.4170  -30.4870   21.5474 C   0  0  2  0  0  0
  -24.8618  -28.9479   20.1104 C   0  0  0  0  0  0
  -22.7459  -29.4632   22.4941 C   0  0  0  0  0  0
  -18.0287  -28.1383   22.8482 C   0  0  0  0  0  0
  -24.1488  -36.7300   23.2638 C   0  0  0  0  0  0
  -25.9570  -30.7975   21.3738 C   0  0  0  0  0  0
  -26.0304  -29.4266   20.7147 C   0  0  0  0  0  0
  -27.2106  -28.6281   20.7123 C   0  0  0  0  0  0
  -26.0264  -26.9048   19.4883 C   0  0  0  0  0  0
  -24.8611  -27.6917   19.4891 C   0  0  0  0  0  0
  -23.6304  -29.8271   20.1604 C   0  0  0  0  0  0
  -25.4106  -36.3083   24.0338 C   0  0  1  0  0  0
  -20.5884  -28.3684   23.1288 C   0  0  2  0  0  0
  -20.6775  -26.9407   22.5415 C   0  0  0  0  0  0
  -19.5755  -26.6380   21.5212 C   0  0  0  0  0  0
  -18.1932  -26.7930   22.1617 C   0  0  0  0  0  0
  -19.1540  -28.8849   23.2883 C   0  0  0  0  0  0
  -18.9463  -30.1451   23.8905 C   0  0  0  0  0  0
  -17.6464  -30.6581   24.0569 C   0  0  0  0  0  0
  -25.9044  -34.9452   23.5112 C   0  0  0  0  0  0
  -16.5357  -29.9084   23.6327 C   0  0  0  0  0  0
  -16.7275  -28.6504   23.0346 C   0  0  0  0  0  0
  -26.4493  -31.6588   25.0728 C   0  0  0  0  0  0
  -25.3741  -31.3749   26.1472 C   0  0  0  0  0  0
  -27.0319  -30.3004   24.6172 C   0  0  0  0  0  0
  -27.6059  -32.4321   25.7484 C   0  0  0  0  0  0
  -27.5575  -37.1807   24.8461 C   0  0  0  0  0  0
  -21.4177  -29.3037   22.3677 N   0  0  0  0  0  0
  -26.4289  -37.3771   23.9400 N   0  0  0  0  0  0
  -24.6849  -31.0645   22.0991 N   0  0  0  0  0  0
  -23.4190  -28.8166   23.3006 O   0  0  0  0  0  0
  -28.3478  -26.4933   20.1995 O   0  0  0  0  0  0
  -26.5607  -34.8916   22.4675 O   0  0  0  0  0  0
  -23.5418  -32.1407   23.7390 O   0  0  0  0  0  0
  -30.9763  -19.4091   20.7702 C   0  0  0  0  0  0
  -28.7604  -17.8234   21.2740 C   0  0  0  0  0  0
  -31.1013  -17.9859   20.7315 C   0  0  0  0  0  0
  -29.7705  -20.0802   21.0934 C   0  0  0  0  0  0
  -29.9729  -17.1343   20.9796 C   0  0  0  0  0  0
  -28.6535  -19.2453   21.3387 C   0  0  0  0  0  0
  -28.3083  -23.2507   18.1547 C   0  0  0  0  0  0
  -28.4711  -24.7489   18.4757 C   0  0  0  0  0  0
  -29.2291  -22.3643   19.0175 C   0  0  0  0  0  0
  -29.1190  -24.0610   20.8202 C   0  0  0  0  0  0
  -28.2075  -25.0370   19.9663 C   0  0  1  0  0  0
  -32.4997  -17.4584   20.4759 C   0  0  0  0  0  0
  -29.7678  -21.6349   21.3496 C   0  0  0  0  0  0
  -29.9080  -15.6603   21.0242 N   0  0  0  0  0  0
  -28.9822  -22.5815   20.4646 N   0  3  2  0  0  0
  -27.1358  -19.9522   21.7634 Cl  0  0  0  0  0  0
  -31.4736  -12.4857   19.1620 H   0  0  0  0  0  0
  -30.3457  -11.3863   19.8975 H   0  0  0  0  0  0
  -29.7684  -11.7614   17.4810 H   0  0  0  0  0  0
  -29.6605  -13.4829   17.7553 H   0  0  0  0  0  0
  -27.8559  -11.3036   18.8534 H   0  0  0  0  0  0
  -27.3800  -12.6045   17.7938 H   0  0  0  0  0  0
  -27.6776  -14.2595   19.5401 H   0  0  0  0  0  0
  -28.6989  -12.0436   21.3774 H   0  0  0  0  0  0
  -28.4359  -13.6922   21.8569 H   0  0  0  0  0  0
  -25.2762   -9.5680   22.4740 H   0  0  0  0  0  0
  -23.9981   -7.4645   22.7462 H   0  0  0  0  0  0
  -21.0809   -8.8782   19.8966 H   0  0  0  0  0  0
  -22.3673  -10.9671   19.6159 H   0  0  0  0  0  0
  -21.2036   -7.6147   23.9700 H   0  0  0  0  0  0
  -21.1463   -6.0516   25.9060 H   0  0  0  0  0  0
  -22.0609   -2.7593   23.2851 H   0  0  0  0  0  0
  -22.4076  -11.9920   22.4841 H   0  0  0  0  0  0
  -21.1085  -13.1272   22.2604 H   0  0  0  0  0  0
  -24.6583  -15.8463   20.5194 H   0  0  0  0  0  0
  -26.2678  -15.6267   20.0581 H   0  0  0  0  0  0
  -26.7168  -32.5452   23.1112 H   0  0  0  0  0  0
  -25.0065  -33.9730   25.0434 H   0  0  0  0  0  0
  -22.7097  -31.3070   21.4078 H   0  0  0  0  0  0
  -23.3730  -35.9656   23.3333 H   0  0  0  0  0  0
  -24.3570  -36.8879   22.2043 H   0  0  0  0  0  0
  -23.7271  -37.6529   23.6632 H   0  0  0  0  0  0
  -26.0868  -31.5634   20.6080 H   0  0  0  0  0  0
  -26.8371  -30.8447   22.0033 H   0  0  0  0  0  0
  -28.1046  -28.9897   21.2013 H   0  0  0  0  0  0
  -25.9489  -25.9498   18.9937 H   0  0  0  0  0  0
  -23.9645  -27.3182   19.0129 H   0  0  0  0  0  0
  -23.7494  -30.6063   19.4065 H   0  0  0  0  0  0
  -22.7498  -29.2592   19.8558 H   0  0  0  0  0  0
  -25.1285  -36.1945   25.0834 H   0  0  0  0  0  0
  -20.9982  -28.3266   24.1408 H   0  0  0  0  0  0
  -20.5659  -26.2295   23.3613 H   0  0  0  0  0  0
  -21.6652  -26.7425   22.1227 H   0  0  0  0  0  0
  -19.6915  -25.6291   21.1237 H   0  0  0  0  0  0
  -19.6693  -27.3195   20.6745 H   0  0  0  0  0  0
  -17.4201  -26.6674   21.4021 H   0  0  0  0  0  0
  -18.0328  -26.0069   22.9008 H   0  0  0  0  0  0
  -19.7942  -30.7262   24.2274 H   0  0  0  0  0  0
  -17.5022  -31.6257   24.5172 H   0  0  0  0  0  0
  -15.5359  -30.2988   23.7643 H   0  0  0  0  0  0
  -15.8677  -28.0820   22.7061 H   0  0  0  0  0  0
  -24.5901  -30.7100   25.7831 H   0  0  0  0  0  0
  -24.8960  -32.2936   26.4891 H   0  0  0  0  0  0
  -25.8082  -30.8939   27.0247 H   0  0  0  0  0  0
  -26.2886  -29.6766   24.1197 H   0  0  0  0  0  0
  -27.4011  -29.7249   25.4670 H   0  0  0  0  0  0
  -27.8762  -30.4273   23.9394 H   0  0  0  0  0  0
  -27.2661  -33.3607   26.2085 H   0  0  0  0  0  0
  -28.3854  -32.6904   25.0306 H   0  0  0  0  0  0
  -28.0747  -31.8443   26.5385 H   0  0  0  0  0  0
  -28.2620  -38.0076   24.7471 H   0  0  0  0  0  0
  -28.1047  -36.2613   24.6323 H   0  0  0  0  0  0
  -27.2298  -37.1516   25.8867 H   0  0  0  0  0  0
  -20.9342  -29.8765   21.6903 H   0  0  0  0  0  0
  -26.0178  -38.2852   24.1385 H   0  0  0  0  0  0
  -31.8596  -20.0105   20.6067 H   0  0  0  0  0  0
  -27.8700  -17.2506   21.4889 H   0  0  0  0  0  0
  -28.5292  -23.0790   17.1011 H   0  0  0  0  0  0
  -27.2692  -22.9527   18.2996 H   0  0  0  0  0  0
  -27.8023  -25.3334   17.8450 H   0  0  0  0  0  0
  -29.4816  -25.0685   18.2198 H   0  0  0  0  0  0
  -30.2754  -22.5775   18.7907 H   0  0  0  0  0  0
  -29.0620  -21.3166   18.7621 H   0  0  0  0  0  0
  -28.8846  -24.1961   21.8766 H   0  0  0  0  0  0
  -30.1629  -24.3551   20.7007 H   0  0  0  0  0  0
  -27.1923  -24.7337   20.2205 H   0  0  0  0  0  0
  -33.2437  -18.2544   20.5100 H   0  0  0  0  0  0
  -32.5643  -17.0102   19.4854 H   0  0  0  0  0  0
  -32.7849  -16.7340   21.2379 H   0  0  0  0  0  0
  -30.8059  -21.9701   21.3458 H   0  0  0  0  0  0
  -29.4313  -21.7867   22.3757 H   0  0  0  0  0  0
  -29.0263  -15.3161   21.3700 H   0  0  0  0  0  0
  -28.0171  -22.3298   20.6263 H   0  0  0  0  0  0
  1 25  1  0  0  0
  1 30  2  0  0  0
  1 84  1  0  0  0
  2  3  1  0  0  0
  2 25  1  0  0  0
  2 87  1  0  0  0
  2 88  1  0  0  0
  3  4  1  0  0  0
  3 89  1  0  0  0
  3 90  1  0  0  0
  4  5  1  0  0  0
  4 91  1  0  0  0
  4 92  1  0  0  0
  5  6  1  0  0  0
  5 26  1  0  0  0
  5 93  1  0  0  0
  6 25  1  0  0  0
  6 94  1  0  0  0
  6 95  1  0  0  0
  7  8  2  0  0  0
  7 26  1  0  0  0
  7 29  1  0  0  0
  8  9  1  0  0  0
  8 22  1  0  0  0
  9 10  1  0  0  0
  9 27  2  0  0  0
 10 11  2  0  0  0
 10 15  1  0  0  0
 11 12  1  0  0  0
 11 96  1  0  0  0
 12 13  2  0  0  0
 12 97  1  0  0  0
 13 14  1  0  0  0
 13 31  1  0  0  0
 14 15  2  0  0  0
 14 98  1  0  0  0
 15 99  1  0  0  0
 16 17  2  0  0  0
 16 21  1  0  0  0
 16 31  1  0  0  0
 17 18  1  0  0  0
 17100  1  0  0  0
 18 19  2  0  0  0
 18101  1  0  0  0
 19 20  1  0  0  0
 19 24  1  0  0  0
 20 21  2  0  0  0
 20102  1  0  0  0
 21 23  1  0  0  0
 22 28  1  0  0  0
 22 32  2  0  0  0
 26 27  1  0  0  0
 28103  1  0  0  0
 28104  1  0  0  0
 29105  1  0  0  0
 29106  1  0  0  0
 33 34  1  0  0  0
 33 66  1  0  0  0
 33 70  2  0  0  0
 34 36  1  0  0  0
 34 59  1  0  0  0
 34107  1  0  0  0
 35 44  2  0  0  0
 35 45  1  0  0  0
 35 68  1  0  0  0
 36 56  1  0  0  0
 36108  1  0  0  0
 37 39  1  0  0  0
 37 47  1  0  0  0
 37 66  1  0  0  0
 37109  1  0  0  0
 38 43  2  0  0  0
 38 46  1  0  0  0
 38 47  1  0  0  0
 39 64  1  0  0  0
 39 67  2  0  0  0
 40 52  1  0  0  0
 40 53  2  0  0  0
 40 58  1  0  0  0
 41110  1  0  0  0
 41111  1  0  0  0
 41112  1  0  0  0
 41 48  1  0  0  0
 42 43  1  0  0  0
 42 66  1  0  0  0
 42113  1  0  0  0
 42114  1  0  0  0
 43 44  1  0  0  0
 44115  1  0  0  0
 45 46  2  0  0  0
 45116  1  0  0  0
 46117  1  0  0  0
 47118  1  0  0  0
 47119  1  0  0  0
 48 56  1  0  0  0
 48 65  1  0  0  0
 48120  1  0  0  0
 49 50  1  0  0  0
 49 53  1  0  0  0
 49 64  1  0  0  0
 49121  1  0  0  0
 50 51  1  0  0  0
 50122  1  0  0  0
 50123  1  0  0  0
 51 52  1  0  0  0
 51124  1  0  0  0
 51125  1  0  0  0
 52126  1  0  0  0
 52127  1  0  0  0
 53 54  1  0  0  0
 54 55  2  0  0  0
 54128  1  0  0  0
 55 57  1  0  0  0
 55129  1  0  0  0
 56 69  2  0  0  0
 57 58  2  0  0  0
 57130  1  0  0  0
 58131  1  0  0  0
 59 60  1  0  0  0
 59 61  1  0  0  0
 59 62  1  0  0  0
 60132  1  0  0  0
 60133  1  0  0  0
 60134  1  0  0  0
 61135  1  0  0  0
 61136  1  0  0  0
 61137  1  0  0  0
 62138  1  0  0  0
 62139  1  0  0  0
 62140  1  0  0  0
 63 65  1  0  0  0
 63141  1  0  0  0
 63142  1  0  0  0
 63143  1  0  0  0
 64144  1  0  0  0
 65145  1  0  0  0
 68 81  1  0  0  0
 71 73  2  0  0  0
 71 74  1  0  0  0
 71146  1  0  0  0
 72 75  2  0  0  0
 72 76  1  0  0  0
 72147  1  0  0  0
 73 75  1  0  0  0
 73 82  1  0  0  0
 74 76  2  0  0  0
 74 83  1  0  0  0
 75 84  1  0  0  0
 76 86  1  0  0  0
 77 78  1  0  0  0
 77 79  1  0  0  0
 77148  1  0  0  0
 77149  1  0  0  0
 78 81  1  0  0  0
 78150  1  0  0  0
 78151  1  0  0  0
 79 85  1  0  0  0
 79152  1  0  0  0
 79153  1  0  0  0
 80 81  1  0  0  0
 80 85  1  0  0  0
 80154  1  0  0  0
 80155  1  0  0  0
 81156  1  0  0  0
 82157  1  0  0  0
 82158  1  0  0  0
 82159  1  0  0  0
 83160  1  0  0  0
 83161  1  0  0  0
 83 85  1  0  0  0
 84162  1  0  0  0
 85163  1  0  0  0
M  CHG  1  85   1
M  ISO  4   1 100  68 101  81 101  84 100
M  END
> <chiral flag>
0

> <version>
0

> <s_m_source_file>
/data/baiqing/PycharmProjects/Reinvent-master-3.2/result/LINK_invent/BTK/process_docking_weight1_custom_product_contain_oxygen_bond_distance_aromatic_linkinvent_7_9_3/rearranged_h_0035.sdf

> <i_m_source_file_index>
77

> <r_mmod_Potential_Energy-OPLS-2005>
-25.9008693695068

> <r_mmod_Stretch_Energy-OPLS-2005>
81.0102462768555

> <r_mmod_Bend_Energy-OPLS-2005>
160.025543212891

> <r_mmod_Torsional_Energy-OPLS-2005>
228.795806884766

> <r_mmod_Improper_Torsional_Energy-OPLS-2005>
4.26395988464355

> <r_mmod_Van_der_Waal_Energy-OPLS-2005>
152.448196411133

> <r_mmod_Electrostatic_Energy-OPLS-2005>
-276.898468017578

> <r_mmod_Solvation_Energy-OPLS-2005>
-417.536804199219

> <b_mmod_Minimization_Converged-OPLS-2005>
0

> <r_mmod_RMS_Derivative-OPLS-2005>
1.68025243282318

$$$$
78
                    3D
 Structure written by MMmdl.
173182  0  0  1  0            999 V2000
  -30.6003  -14.7123   20.5213 C   0  0  0  0  0  0
  -30.4162  -12.4496   19.4721 C   0  0  0  0  0  0
  -29.5227  -12.6057   18.2255 C   0  0  0  0  0  0
  -28.0325  -12.4264   18.5995 C   0  0  0  0  0  0
  -27.6373  -13.2518   19.8595 C   0  0  2  0  0  0
  -28.6741  -13.1210   20.9907 C   0  0  0  0  0  0
  -25.2404  -13.8233   20.5627 C   0  0  0  0  0  0
  -24.1730  -13.0457   20.9238 C   0  0  0  0  0  0
  -24.6353  -11.6940   20.8654 C   0  0  0  0  0  0
  -23.9076  -10.4297   21.0293 C   0  0  0  0  0  0
  -24.3623   -9.4274   21.9095 C   0  0  0  0  0  0
  -23.6367   -8.2263   22.0679 C   0  0  0  0  0  0
  -22.4355   -8.0207   21.3482 C   0  0  0  0  0  0
  -21.9967   -9.0184   20.4592 C   0  0  0  0  0  0
  -22.7244  -10.2106   20.2979 C   0  0  0  0  0  0
  -21.6864   -6.0721   22.5306 C   0  0  0  0  0  0
  -21.4005   -6.5605   23.8246 C   0  0  0  0  0  0
  -21.3709   -5.6748   24.9198 C   0  0  0  0  0  0
  -21.6125   -4.3039   24.7216 C   0  0  0  0  0  0
  -21.8779   -3.8132   23.4321 C   0  0  0  0  0  0
  -21.9160   -4.6944   22.3413 C   0  0  0  0  0  0
  -22.7724  -13.5179   21.1955 C   0  0  0  0  0  0
  -22.1607   -4.2128   21.0976 F   0  0  0  0  0  0
  -21.5739   -3.4533   25.7733 F   0  0  0  0  0  0
  -29.9723  -13.4883   20.4301 N   0  0  0  0  0  0
  -26.2867  -12.9512   20.3222 N   0  0  0  0  0  0
  -25.9308  -11.6624   20.5686 N   0  0  0  0  0  0
  -22.0340  -12.8116   22.0460 N   0  0  0  0  0  0
  -25.4126  -15.1937   20.3979 N   0  0  0  0  0  0
  -31.7729  -14.8064   20.1560 O   0  0  0  0  0  0
  -21.6666   -6.8847   21.4234 O   0  0  0  0  0  0
  -22.3383  -14.5442   20.6751 O   0  0  0  0  0  0
  -24.6383  -31.8586   23.2077 C   0  0  0  0  0  0
  -25.9244  -32.4754   23.8414 C   0  0  1  0  0  0
  -27.1836  -27.2548   20.1754 C   0  0  0  0  0  0
  -25.6088  -33.8551   24.2344 N   0  0  0  0  0  0
  -23.4258  -30.4922   21.5464 C   0  0  2  0  0  0
  -24.8668  -28.9475   20.1024 C   0  0  0  0  0  0
  -22.7600  -29.4612   22.4910 C   0  0  0  0  0  0
  -18.0346  -28.1377   22.8540 C   0  0  0  0  0  0
  -24.1433  -36.7199   23.2609 C   0  0  0  0  0  0
  -25.9720  -30.7761   21.3874 C   0  0  0  0  0  0
  -26.0393  -29.4050   20.7241 C   0  0  0  0  0  0
  -27.1987  -28.5718   20.7396 C   0  0  0  0  0  0
  -25.9985  -26.8792   19.5012 C   0  0  0  0  0  0
  -24.8516  -27.6947   19.4790 C   0  0  0  0  0  0
  -23.6510  -29.8462   20.1573 C   0  0  0  0  0  0
  -25.4073  -36.3030   24.0333 C   0  0  1  0  0  0
  -20.5936  -28.3723   23.1255 C   0  0  2  0  0  0
  -20.6777  -26.9411   22.5408 C   0  0  0  0  0  0
  -19.5721  -26.6380   21.5223 C   0  0  0  0  0  0
  -18.1923  -26.7927   22.1661 C   0  0  0  0  0  0
  -19.1602  -28.8868   23.2878 C   0  0  0  0  0  0
  -18.9507  -30.1464   23.8856 C   0  0  0  0  0  0
  -17.6488  -30.6547   24.0562 C   0  0  0  0  0  0
  -25.9096  -34.9433   23.5138 C   0  0  0  0  0  0
  -16.5384  -29.9050   23.6293 C   0  0  0  0  0  0
  -16.7332  -28.6452   23.0366 C   0  0  0  0  0  0
  -26.4635  -31.6565   25.0801 C   0  0  0  0  0  0
  -25.3872  -31.3713   26.1538 C   0  0  0  0  0  0
  -27.0459  -30.2938   24.6270 C   0  0  0  0  0  0
  -27.6168  -32.4347   25.7583 C   0  0  0  0  0  0
  -27.5548  -37.1759   24.8509 C   0  0  0  0  0  0
  -21.4301  -29.3045   22.3655 N   0  0  0  0  0  0
  -26.4196  -37.3788   23.9510 N   0  0  0  0  0  0
  -24.6952  -31.0669   22.0994 N   0  0  0  0  0  0
  -23.4324  -28.8119   23.2930 O   0  0  0  0  0  0
  -28.2476  -26.3344   20.3225 O   0  0  0  0  0  0
  -26.5611  -34.8887   22.4655 O   0  0  0  0  0  0
  -23.5570  -32.1400   23.7449 O   0  0  0  0  0  0
  -32.5997  -17.9039   21.3551 C   0  0  0  0  0  0
  -31.5021  -17.2062   21.8970 C   0  0  0  0  0  0
  -32.4475  -18.5621   20.1137 C   0  0  0  0  0  0
  -31.1363  -18.7461   19.5846 C   0  0  0  0  0  0
  -30.0045  -18.4297   20.3985 C   0  0  0  0  0  0
  -30.2968  -17.2059   21.1512 C   0  0  0  0  0  0
  -29.2455  -22.3971   20.3838 C   0  0  0  0  0  0
  -30.2966  -22.5622   19.5571 C   0  0  0  0  0  0
  -27.6569  -22.2089   23.0476 C   0  0  0  0  0  0
  -26.6685  -21.3906   22.2191 C   0  0  0  0  0  0
  -27.9934  -23.6002   22.4887 C   0  0  0  0  0  0
  -27.1699  -20.8289   20.8563 C   0  0  0  0  0  0
  -28.6739  -23.7172   21.0957 C   0  0  2  0  0  0
  -30.9469  -19.1531   18.1367 C   0  0  0  0  0  0
  -29.4837  -19.7552   21.1715 C   0  0  0  0  0  0
  -28.0066  -24.8531   20.1509 C   0  0  0  0  0  0
  -33.7014  -18.9895   19.3461 C   0  0  0  0  0  0
  -29.8307  -15.8420   20.8097 N   0  0  0  0  0  0
  -28.6451  -20.9217   20.5479 N   0  3  2  0  0  0
  -34.8009  -18.8989   20.0927 F   0  0  0  0  0  0
  -33.8565  -18.1912   18.2893 F   0  0  0  0  0  0
  -33.6070  -20.2522   18.9295 F   0  0  0  0  0  0
  -31.4696  -12.5359   19.2082 H   0  0  0  0  0  0
  -30.2993  -11.4573   19.9094 H   0  0  0  0  0  0
  -29.8225  -11.9053   17.4441 H   0  0  0  0  0  0
  -29.6628  -13.6079   17.8133 H   0  0  0  0  0  0
  -27.8261  -11.3703   18.7660 H   0  0  0  0  0  0
  -27.4037  -12.7270   17.7635 H   0  0  0  0  0  0
  -27.6541  -14.2934   19.5470 H   0  0  0  0  0  0
  -28.7021  -12.1004   21.3684 H   0  0  0  0  0  0
  -28.4195  -13.7541   21.8409 H   0  0  0  0  0  0
  -25.2725   -9.5821   22.4696 H   0  0  0  0  0  0
  -24.0129   -7.4632   22.7363 H   0  0  0  0  0  0
  -21.0928   -8.8621   19.8901 H   0  0  0  0  0  0
  -22.3600  -10.9576   19.6090 H   0  0  0  0  0  0
  -21.1919   -7.6090   23.9735 H   0  0  0  0  0  0
  -21.1663   -6.0477   25.9113 H   0  0  0  0  0  0
  -22.0530   -2.7584   23.2819 H   0  0  0  0  0  0
  -22.3949  -11.9802   22.4904 H   0  0  0  0  0  0
  -21.0920  -13.1109   22.2656 H   0  0  0  0  0  0
  -24.6436  -15.8501   20.4646 H   0  0  0  0  0  0
  -26.2686  -15.6136   20.0540 H   0  0  0  0  0  0
  -26.7331  -32.5365   23.1181 H   0  0  0  0  0  0
  -25.0644  -33.9718   25.0753 H   0  0  0  0  0  0
  -22.7093  -31.3074   21.4176 H   0  0  0  0  0  0
  -23.3749  -35.9479   23.3282 H   0  0  0  0  0  0
  -24.3517  -36.8819   22.2021 H   0  0  0  0  0  0
  -23.7094  -37.6345   23.6659 H   0  0  0  0  0  0
  -26.1228  -31.5429   20.6303 H   0  0  0  0  0  0
  -26.8379  -30.8084   22.0357 H   0  0  0  0  0  0
  -28.0872  -28.9233   21.2436 H   0  0  0  0  0  0
  -25.8981  -25.9237   19.0131 H   0  0  0  0  0  0
  -23.9527  -27.3366   18.9927 H   0  0  0  0  0  0
  -23.8081  -30.6311   19.4174 H   0  0  0  0  0  0
  -22.7618  -29.3166   19.8198 H   0  0  0  0  0  0
  -25.1208  -36.1821   25.0811 H   0  0  0  0  0  0
  -21.0041  -28.3221   24.1388 H   0  0  0  0  0  0
  -20.5611  -26.2362   23.3666 H   0  0  0  0  0  0
  -21.6645  -26.7394   22.1195 H   0  0  0  0  0  0
  -19.6819  -25.6273   21.1263 H   0  0  0  0  0  0
  -19.6527  -27.3167   20.6707 H   0  0  0  0  0  0
  -17.4206  -26.6810   21.4014 H   0  0  0  0  0  0
  -18.0194  -26.0011   22.8968 H   0  0  0  0  0  0
  -19.7980  -30.7329   24.2139 H   0  0  0  0  0  0
  -17.5035  -31.6189   24.5255 H   0  0  0  0  0  0
  -15.5349  -30.2937   23.7584 H   0  0  0  0  0  0
  -15.8795  -28.0730   22.7096 H   0  0  0  0  0  0
  -24.6088  -30.6997   25.7921 H   0  0  0  0  0  0
  -24.9021  -32.2879   26.4870 H   0  0  0  0  0  0
  -25.8190  -30.9014   27.0373 H   0  0  0  0  0  0
  -26.3014  -29.6691   24.1320 H   0  0  0  0  0  0
  -27.4165  -29.7183   25.4768 H   0  0  0  0  0  0
  -27.8918  -30.4190   23.9516 H   0  0  0  0  0  0
  -27.2754  -33.3700   26.2034 H   0  0  0  0  0  0
  -28.4028  -32.6813   25.0438 H   0  0  0  0  0  0
  -28.0815  -31.8600   26.5611 H   0  0  0  0  0  0
  -28.2584  -38.0043   24.7588 H   0  0  0  0  0  0
  -28.1024  -36.2591   24.6254 H   0  0  0  0  0  0
  -27.2375  -37.1321   25.8942 H   0  0  0  0  0  0
  -20.9511  -29.8956   21.7006 H   0  0  0  0  0  0
  -26.0066  -38.2839   24.1531 H   0  0  0  0  0  0
  -33.5881  -17.7515   21.7700 H   0  0  0  0  0  0
  -31.7125  -16.4299   22.6210 H   0  0  0  0  0  0
  -30.7321  -23.5462   19.4292 H   0  0  0  0  0  0
  -30.7239  -21.7627   18.9815 H   0  0  0  0  0  0
  -28.5558  -21.6307   23.2408 H   0  0  0  0  0  0
  -27.2059  -22.3527   24.0328 H   0  0  0  0  0  0
  -25.7646  -21.9828   22.0656 H   0  0  0  0  0  0
  -26.3201  -20.5648   22.8487 H   0  0  0  0  0  0
  -28.6684  -24.0654   23.2132 H   0  0  0  0  0  0
  -27.1088  -24.2392   22.5282 H   0  0  0  0  0  0
  -26.5910  -21.2842   20.0472 H   0  0  0  0  0  0
  -26.8784  -19.7777   20.7991 H   0  0  0  0  0  0
  -29.6092  -24.2108   21.3809 H   0  0  0  0  0  0
  -31.4062  -18.3944   17.4982 H   0  0  0  0  0  0
  -31.4382  -20.0937   17.8957 H   0  0  0  0  0  0
  -29.8918  -19.2151   17.8734 H   0  0  0  0  0  0
  -30.3774  -20.2078   21.6090 H   0  0  0  0  0  0
  -28.9378  -19.3716   22.0324 H   0  0  0  0  0  0
  -26.9401  -24.6229   20.2025 H   0  0  0  0  0  0
  -28.2940  -24.6369   19.1258 H   0  0  0  0  0  0
  -28.8392  -15.6852   20.8599 H   0  0  0  0  0  0
  -28.5978  -20.5830   19.5997 H   0  0  0  0  0  0
  1 25  1  0  0  0
  1 30  2  0  0  0
  1 88  1  0  0  0
  2  3  1  0  0  0
  2 25  1  0  0  0
  2 93  1  0  0  0
  2 94  1  0  0  0
  3  4  1  0  0  0
  3 95  1  0  0  0
  3 96  1  0  0  0
  4  5  1  0  0  0
  4 97  1  0  0  0
  4 98  1  0  0  0
  5  6  1  0  0  0
  5 26  1  0  0  0
  5 99  1  0  0  0
  6 25  1  0  0  0
  6100  1  0  0  0
  6101  1  0  0  0
  7  8  2  0  0  0
  7 26  1  0  0  0
  7 29  1  0  0  0
  8  9  1  0  0  0
  8 22  1  0  0  0
  9 10  1  0  0  0
  9 27  2  0  0  0
 10 11  2  0  0  0
 10 15  1  0  0  0
 11 12  1  0  0  0
 11102  1  0  0  0
 12 13  2  0  0  0
 12103  1  0  0  0
 13 14  1  0  0  0
 13 31  1  0  0  0
 14 15  2  0  0  0
 14104  1  0  0  0
 15105  1  0  0  0
 16 17  2  0  0  0
 16 21  1  0  0  0
 16 31  1  0  0  0
 17 18  1  0  0  0
 17106  1  0  0  0
 18 19  2  0  0  0
 18107  1  0  0  0
 19 20  1  0  0  0
 19 24  1  0  0  0
 20 21  2  0  0  0
 20108  1  0  0  0
 21 23  1  0  0  0
 22 28  1  0  0  0
 22 32  2  0  0  0
 26 27  1  0  0  0
 28109  1  0  0  0
 28110  1  0  0  0
 29111  1  0  0  0
 29112  1  0  0  0
 33 34  1  0  0  0
 33 66  1  0  0  0
 33 70  2  0  0  0
 34 36  1  0  0  0
 34 59  1  0  0  0
 34113  1  0  0  0
 35 44  2  0  0  0
 35 45  1  0  0  0
 35 68  1  0  0  0
 36 56  1  0  0  0
 36114  1  0  0  0
 37 39  1  0  0  0
 37 47  1  0  0  0
 37 66  1  0  0  0
 37115  1  0  0  0
 38 43  2  0  0  0
 38 46  1  0  0  0
 38 47  1  0  0  0
 39 64  1  0  0  0
 39 67  2  0  0  0
 40 52  1  0  0  0
 40 53  2  0  0  0
 40 58  1  0  0  0
 41116  1  0  0  0
 41117  1  0  0  0
 41118  1  0  0  0
 41 48  1  0  0  0
 42 43  1  0  0  0
 42 66  1  0  0  0
 42119  1  0  0  0
 42120  1  0  0  0
 43 44  1  0  0  0
 44121  1  0  0  0
 45 46  2  0  0  0
 45122  1  0  0  0
 46123  1  0  0  0
 47124  1  0  0  0
 47125  1  0  0  0
 48 56  1  0  0  0
 48 65  1  0  0  0
 48126  1  0  0  0
 49 50  1  0  0  0
 49 53  1  0  0  0
 49 64  1  0  0  0
 49127  1  0  0  0
 50 51  1  0  0  0
 50128  1  0  0  0
 50129  1  0  0  0
 51 52  1  0  0  0
 51130  1  0  0  0
 51131  1  0  0  0
 52132  1  0  0  0
 52133  1  0  0  0
 53 54  1  0  0  0
 54 55  2  0  0  0
 54134  1  0  0  0
 55 57  1  0  0  0
 55135  1  0  0  0
 56 69  2  0  0  0
 57 58  2  0  0  0
 57136  1  0  0  0
 58137  1  0  0  0
 59 60  1  0  0  0
 59 61  1  0  0  0
 59 62  1  0  0  0
 60138  1  0  0  0
 60139  1  0  0  0
 60140  1  0  0  0
 61141  1  0  0  0
 61142  1  0  0  0
 61143  1  0  0  0
 62144  1  0  0  0
 62145  1  0  0  0
 62146  1  0  0  0
 63 65  1  0  0  0
 63147  1  0  0  0
 63148  1  0  0  0
 63149  1  0  0  0
 64150  1  0  0  0
 65151  1  0  0  0
 68 86  1  0  0  0
 71 72  2  0  0  0
 71 73  1  0  0  0
 71152  1  0  0  0
 72 76  1  0  0  0
 72153  1  0  0  0
 73 74  2  0  0  0
 73 87  1  0  0  0
 74 75  1  0  0  0
 74 84  1  0  0  0
 75 76  2  0  0  0
 75 85  1  0  0  0
 76 88  1  0  0  0
 77 78  2  0  0  0
 77 83  1  0  0  0
 77 89  1  0  0  0
 78154  1  0  0  0
 78155  1  0  0  0
 79 80  1  0  0  0
 79 81  1  0  0  0
 79156  1  0  0  0
 79157  1  0  0  0
 80 82  1  0  0  0
 80158  1  0  0  0
 80159  1  0  0  0
 81 83  1  0  0  0
 81160  1  0  0  0
 81161  1  0  0  0
 82 89  1  0  0  0
 82162  1  0  0  0
 82163  1  0  0  0
 83 86  1  0  0  0
 83164  1  0  0  0
 84165  1  0  0  0
 84166  1  0  0  0
 84167  1  0  0  0
 85168  1  0  0  0
 85169  1  0  0  0
 85 89  1  0  0  0
 86170  1  0  0  0
 86171  1  0  0  0
 87 90  1  0  0  0
 87 91  1  0  0  0
 87 92  1  0  0  0
 88172  1  0  0  0
 89173  1  0  0  0
M  CHG  1  89   1
M  ISO  4   1 100  68 101  86 101  88 100
M  END
> <chiral flag>
0

> <version>
0

> <s_m_source_file>
/data/baiqing/PycharmProjects/Reinvent-master-3.2/result/LINK_invent/BTK/process_docking_weight1_custom_product_contain_oxygen_bond_distance_aromatic_linkinvent_7_9_3/rearranged_h_0035.sdf

> <i_m_source_file_index>
78

> <r_mmod_Potential_Energy-OPLS-2005>
590.207214355469

> <r_mmod_Stretch_Energy-OPLS-2005>
160.588043212891

> <r_mmod_Bend_Energy-OPLS-2005>
274.149047851562

> <r_mmod_Torsional_Energy-OPLS-2005>
522.177368164062

> <r_mmod_Improper_Torsional_Energy-OPLS-2005>
35.2487411499023

> <r_mmod_Van_der_Waal_Energy-OPLS-2005>
150.9580078125

> <r_mmod_Electrostatic_Energy-OPLS-2005>
-187.193298339844

> <r_mmod_Solvation_Energy-OPLS-2005>
-454.822875976562

> <b_mmod_Minimization_Converged-OPLS-2005>
0

> <r_mmod_RMS_Derivative-OPLS-2005>
12.4308080673218

$$$$
79
                    3D
 Structure written by MMmdl.
161170  0  0  1  0            999 V2000
  -30.6130  -14.6647   20.4679 C   0  0  0  0  0  0
  -30.4396  -12.4018   19.4471 C   0  0  0  0  0  0
  -29.5059  -12.5000   18.2196 C   0  0  0  0  0  0
  -28.0300  -12.3321   18.6360 C   0  0  0  0  0  0
  -27.6466  -13.2137   19.8539 C   0  0  2  0  0  0
  -28.6973  -13.0889   20.9809 C   0  0  0  0  0  0
  -25.2507  -13.8103   20.5740 C   0  0  0  0  0  0
  -24.1791  -13.0373   20.9228 C   0  0  0  0  0  0
  -24.6377  -11.6865   20.8717 C   0  0  0  0  0  0
  -23.9060  -10.4260   21.0380 C   0  0  0  0  0  0
  -24.3619   -9.4192   21.9164 C   0  0  0  0  0  0
  -23.6296   -8.2232   22.0744 C   0  0  0  0  0  0
  -22.4274   -8.0265   21.3536 C   0  0  0  0  0  0
  -21.9906   -9.0235   20.4637 C   0  0  0  0  0  0
  -22.7236  -10.2113   20.3034 C   0  0  0  0  0  0
  -21.6848   -6.0738   22.5282 C   0  0  0  0  0  0
  -21.4010   -6.5640   23.8219 C   0  0  0  0  0  0
  -21.3652   -5.6786   24.9176 C   0  0  0  0  0  0
  -21.6042   -4.3048   24.7222 C   0  0  0  0  0  0
  -21.8823   -3.8148   23.4338 C   0  0  0  0  0  0
  -21.9205   -4.6969   22.3397 C   0  0  0  0  0  0
  -22.7821  -13.5185   21.1883 C   0  0  0  0  0  0
  -22.1671   -4.2162   21.0970 F   0  0  0  0  0  0
  -21.5629   -3.4521   25.7729 F   0  0  0  0  0  0
  -30.0093  -13.4337   20.4090 N   0  0  0  0  0  0
  -26.2945  -12.9324   20.3283 N   0  0  0  0  0  0
  -25.9301  -11.6475   20.5716 N   0  0  0  0  0  0
  -22.0460  -12.8174   22.0435 N   0  0  0  0  0  0
  -25.4047  -15.1823   20.4253 N   0  0  0  0  0  0
  -31.7952  -14.8178   20.1493 O   0  0  0  0  0  0
  -21.6631   -6.8875   21.4241 O   0  0  0  0  0  0
  -22.3511  -14.5495   20.6734 O   0  0  0  0  0  0
  -24.6214  -31.8614   23.2011 C   0  0  0  0  0  0
  -25.9066  -32.4784   23.8338 C   0  0  1  0  0  0
  -27.2172  -27.3148   20.1303 C   0  0  0  0  0  0
  -25.5907  -33.8583   24.2278 N   0  0  0  0  0  0
  -23.4158  -30.4845   21.5426 C   0  0  2  0  0  0
  -24.8635  -28.9357   20.1152 C   0  0  0  0  0  0
  -22.7456  -29.4628   22.4909 C   0  0  0  0  0  0
  -18.0301  -28.1390   22.8517 C   0  0  0  0  0  0
  -24.1486  -36.7281   23.2640 C   0  0  0  0  0  0
  -25.9560  -30.7879   21.3761 C   0  0  0  0  0  0
  -26.0286  -29.4106   20.7298 C   0  0  0  0  0  0
  -27.2088  -28.6094   20.7359 C   0  0  0  0  0  0
  -26.0435  -26.9094   19.4600 C   0  0  0  0  0  0
  -24.8698  -27.6881   19.4740 C   0  0  0  0  0  0
  -23.6327  -29.8172   20.1582 C   0  0  0  0  0  0
  -25.4118  -36.3078   24.0332 C   0  0  1  0  0  0
  -20.5901  -28.3683   23.1292 C   0  0  2  0  0  0
  -20.6794  -26.9412   22.5409 C   0  0  0  0  0  0
  -19.5763  -26.6396   21.5214 C   0  0  0  0  0  0
  -18.1942  -26.7940   22.1626 C   0  0  0  0  0  0
  -19.1558  -28.8854   23.2904 C   0  0  0  0  0  0
  -18.9475  -30.1469   23.8899 C   0  0  0  0  0  0
  -17.6476  -30.6597   24.0586 C   0  0  0  0  0  0
  -25.9060  -34.9452   23.5105 C   0  0  0  0  0  0
  -16.5368  -29.9097   23.6342 C   0  0  0  0  0  0
  -16.7291  -28.6512   23.0368 C   0  0  0  0  0  0
  -26.4467  -31.6588   25.0693 C   0  0  0  0  0  0
  -25.3710  -31.3735   26.1429 C   0  0  0  0  0  0
  -27.0300  -30.3013   24.6109 C   0  0  0  0  0  0
  -27.6019  -32.4324   25.7475 C   0  0  0  0  0  0
  -27.5589  -37.1806   24.8474 C   0  0  0  0  0  0
  -21.4178  -29.3034   22.3669 N   0  0  0  0  0  0
  -26.4295  -37.3777   23.9418 N   0  0  0  0  0  0
  -24.6825  -31.0635   22.0957 N   0  0  0  0  0  0
  -23.4194  -28.8181   23.2981 O   0  0  0  0  0  0
  -28.3425  -26.4797   20.1074 O   0  0  0  0  0  0
  -26.5621  -34.8922   22.4668 O   0  0  0  0  0  0
  -23.5379  -32.1400   23.7352 O   0  0  0  0  0  0
  -30.9543  -17.9700   20.9655 C   0  0  0  0  0  0
  -28.8454  -19.2871   19.6815 C   0  0  0  0  0  0
  -30.9680  -19.3976   20.8103 C   0  0  0  0  0  0
  -29.9059  -20.0975   20.1530 C   0  0  0  0  0  0
  -29.8943  -17.1652   20.4704 C   0  0  0  0  0  0
  -28.8440  -17.8712   19.8204 C   0  0  0  0  0  0
  -29.1547  -24.0249   19.9595 C   0  0  0  0  0  0
  -27.0836  -23.1097   21.8091 C   0  0  0  0  0  0
  -26.9643  -24.4890   21.1113 C   0  0  0  0  0  0
  -28.4671  -22.4235   21.6835 C   0  0  0  0  0  0
  -28.3279  -25.1254   20.7407 C   0  0  2  0  0  0
  -32.1760  -20.1563   21.3348 C   0  0  0  0  0  0
  -29.9660  -21.6302   19.7593 C   0  0  0  0  0  0
  -29.1546  -22.7212   20.4208 N   0  0  0  0  0  0
  -29.7679  -15.7197   20.6845 N   0  0  0  0  0  0
  -29.7828  -24.3575   18.9498 O   0  0  0  0  0  0
  -27.5398  -17.0024   19.1039 Cl  0  0  0  0  0  0
  -31.4801  -12.5310   19.1433 H   0  0  0  0  0  0
  -30.3787  -11.4114   19.9006 H   0  0  0  0  0  0
  -29.7733  -11.7427   17.4817 H   0  0  0  0  0  0
  -29.6408  -13.4653   17.7281 H   0  0  0  0  0  0
  -27.8784  -11.2812   18.8845 H   0  0  0  0  0  0
  -27.3708  -12.5416   17.7927 H   0  0  0  0  0  0
  -27.6526  -14.2413   19.4958 H   0  0  0  0  0  0
  -28.7152  -12.0715   21.3732 H   0  0  0  0  0  0
  -28.4456  -13.7313   21.8264 H   0  0  0  0  0  0
  -25.2766   -9.5691   22.4732 H   0  0  0  0  0  0
  -24.0009   -7.4632   22.7465 H   0  0  0  0  0  0
  -21.0840   -8.8755   19.8944 H   0  0  0  0  0  0
  -22.3688  -10.9651   19.6140 H   0  0  0  0  0  0
  -21.1983   -7.6145   23.9730 H   0  0  0  0  0  0
  -21.1467   -6.0503   25.9084 H   0  0  0  0  0  0
  -22.0606   -2.7611   23.2824 H   0  0  0  0  0  0
  -22.4078  -11.9819   22.4792 H   0  0  0  0  0  0
  -21.1080  -13.1196   22.2655 H   0  0  0  0  0  0
  -24.6171  -15.8105   20.5321 H   0  0  0  0  0  0
  -26.2149  -15.6390   20.0209 H   0  0  0  0  0  0
  -26.7128  -32.5468   23.1092 H   0  0  0  0  0  0
  -25.0085  -33.9732   25.0440 H   0  0  0  0  0  0
  -22.7080  -31.3040   21.3994 H   0  0  0  0  0  0
  -23.3754  -35.9606   23.3303 H   0  0  0  0  0  0
  -24.3579  -36.8879   22.2049 H   0  0  0  0  0  0
  -23.7229  -37.6486   23.6648 H   0  0  0  0  0  0
  -26.0873  -31.5437   20.6001 H   0  0  0  0  0  0
  -26.8374  -30.8411   22.0034 H   0  0  0  0  0  0
  -28.1033  -28.9699   21.2262 H   0  0  0  0  0  0
  -26.0243  -25.9814   18.9106 H   0  0  0  0  0  0
  -23.9813  -27.3298   18.9710 H   0  0  0  0  0  0
  -23.7543  -30.5907   19.3978 H   0  0  0  0  0  0
  -22.7526  -29.2453   19.8579 H   0  0  0  0  0  0
  -25.1299  -36.1926   25.0821 H   0  0  0  0  0  0
  -21.0029  -28.3248   24.1395 H   0  0  0  0  0  0
  -20.5701  -26.2282   23.3595 H   0  0  0  0  0  0
  -21.6666  -26.7453   22.1193 H   0  0  0  0  0  0
  -19.6905  -25.6301   21.1242 H   0  0  0  0  0  0
  -19.6703  -27.3216   20.6752 H   0  0  0  0  0  0
  -17.4225  -26.6732   21.4013 H   0  0  0  0  0  0
  -18.0339  -26.0070   22.9008 H   0  0  0  0  0  0
  -19.7947  -30.7322   24.2225 H   0  0  0  0  0  0
  -17.5025  -31.6269   24.5208 H   0  0  0  0  0  0
  -15.5369  -30.3010   23.7646 H   0  0  0  0  0  0
  -15.8703  -28.0839   22.7058 H   0  0  0  0  0  0
  -24.5889  -30.7067   25.7789 H   0  0  0  0  0  0
  -24.8897  -32.2904   26.4831 H   0  0  0  0  0  0
  -25.8049  -30.8953   27.0217 H   0  0  0  0  0  0
  -26.2854  -29.6788   24.1125 H   0  0  0  0  0  0
  -27.4023  -29.7229   25.4575 H   0  0  0  0  0  0
  -27.8715  -30.4325   23.9304 H   0  0  0  0  0  0
  -27.2616  -33.3629   26.2036 H   0  0  0  0  0  0
  -28.3849  -32.6869   25.0322 H   0  0  0  0  0  0
  -28.0655  -31.8451   26.5411 H   0  0  0  0  0  0
  -28.2612  -38.0105   24.7541 H   0  0  0  0  0  0
  -28.1086  -36.2638   24.6283 H   0  0  0  0  0  0
  -27.2317  -37.1436   25.8881 H   0  0  0  0  0  0
  -20.9327  -29.8736   21.6894 H   0  0  0  0  0  0
  -26.0166  -38.2846   24.1426 H   0  0  0  0  0  0
  -31.7746  -17.4851   21.4767 H   0  0  0  0  0  0
  -28.0289  -19.7516   19.1471 H   0  0  0  0  0  0
  -26.3196  -22.4473   21.3967 H   0  0  0  0  0  0
  -26.8404  -23.2086   22.8683 H   0  0  0  0  0  0
  -26.3801  -25.1645   21.7385 H   0  0  0  0  0  0
  -26.3856  -24.3288   20.2041 H   0  0  0  0  0  0
  -28.3493  -21.3512   21.8368 H   0  0  0  0  0  0
  -29.1148  -22.7705   22.4911 H   0  0  0  0  0  0
  -28.8663  -25.2736   21.6791 H   0  0  0  0  0  0
  -32.6950  -19.5867   22.1070 H   0  0  0  0  0  0
  -31.8920  -21.1124   21.7748 H   0  0  0  0  0  0
  -32.8820  -20.3466   20.5257 H   0  0  0  0  0  0
  -29.6942  -21.6588   18.7027 H   0  0  0  0  0  0
  -31.0066  -21.9526   19.7661 H   0  0  0  0  0  0
  -28.8131  -15.4161   20.7958 H   0  0  0  0  0  0
  1 25  1  0  0  0
  1 30  2  0  0  0
  1 85  1  0  0  0
  2  3  1  0  0  0
  2 25  1  0  0  0
  2 88  1  0  0  0
  2 89  1  0  0  0
  3  4  1  0  0  0
  3 90  1  0  0  0
  3 91  1  0  0  0
  4  5  1  0  0  0
  4 92  1  0  0  0
  4 93  1  0  0  0
  5  6  1  0  0  0
  5 26  1  0  0  0
  5 94  1  0  0  0
  6 25  1  0  0  0
  6 95  1  0  0  0
  6 96  1  0  0  0
  7  8  2  0  0  0
  7 26  1  0  0  0
  7 29  1  0  0  0
  8  9  1  0  0  0
  8 22  1  0  0  0
  9 10  1  0  0  0
  9 27  2  0  0  0
 10 11  2  0  0  0
 10 15  1  0  0  0
 11 12  1  0  0  0
 11 97  1  0  0  0
 12 13  2  0  0  0
 12 98  1  0  0  0
 13 14  1  0  0  0
 13 31  1  0  0  0
 14 15  2  0  0  0
 14 99  1  0  0  0
 15100  1  0  0  0
 16 17  2  0  0  0
 16 21  1  0  0  0
 16 31  1  0  0  0
 17 18  1  0  0  0
 17101  1  0  0  0
 18 19  2  0  0  0
 18102  1  0  0  0
 19 20  1  0  0  0
 19 24  1  0  0  0
 20 21  2  0  0  0
 20103  1  0  0  0
 21 23  1  0  0  0
 22 28  1  0  0  0
 22 32  2  0  0  0
 26 27  1  0  0  0
 28104  1  0  0  0
 28105  1  0  0  0
 29106  1  0  0  0
 29107  1  0  0  0
 33 34  1  0  0  0
 33 66  1  0  0  0
 33 70  2  0  0  0
 34 36  1  0  0  0
 34 59  1  0  0  0
 34108  1  0  0  0
 35 44  2  0  0  0
 35 45  1  0  0  0
 35 68  1  0  0  0
 36 56  1  0  0  0
 36109  1  0  0  0
 37 39  1  0  0  0
 37 47  1  0  0  0
 37 66  1  0  0  0
 37110  1  0  0  0
 38 43  2  0  0  0
 38 46  1  0  0  0
 38 47  1  0  0  0
 39 64  1  0  0  0
 39 67  2  0  0  0
 40 52  1  0  0  0
 40 53  2  0  0  0
 40 58  1  0  0  0
 41111  1  0  0  0
 41112  1  0  0  0
 41113  1  0  0  0
 41 48  1  0  0  0
 42 43  1  0  0  0
 42 66  1  0  0  0
 42114  1  0  0  0
 42115  1  0  0  0
 43 44  1  0  0  0
 44116  1  0  0  0
 45 46  2  0  0  0
 45117  1  0  0  0
 46118  1  0  0  0
 47119  1  0  0  0
 47120  1  0  0  0
 48 56  1  0  0  0
 48 65  1  0  0  0
 48121  1  0  0  0
 49 50  1  0  0  0
 49 53  1  0  0  0
 49 64  1  0  0  0
 49122  1  0  0  0
 50 51  1  0  0  0
 50123  1  0  0  0
 50124  1  0  0  0
 51 52  1  0  0  0
 51125  1  0  0  0
 51126  1  0  0  0
 52127  1  0  0  0
 52128  1  0  0  0
 53 54  1  0  0  0
 54 55  2  0  0  0
 54129  1  0  0  0
 55 57  1  0  0  0
 55130  1  0  0  0
 56 69  2  0  0  0
 57 58  2  0  0  0
 57131  1  0  0  0
 58132  1  0  0  0
 59 60  1  0  0  0
 59 61  1  0  0  0
 59 62  1  0  0  0
 60133  1  0  0  0
 60134  1  0  0  0
 60135  1  0  0  0
 61136  1  0  0  0
 61137  1  0  0  0
 61138  1  0  0  0
 62139  1  0  0  0
 62140  1  0  0  0
 62141  1  0  0  0
 63 65  1  0  0  0
 63142  1  0  0  0
 63143  1  0  0  0
 63144  1  0  0  0
 64145  1  0  0  0
 65146  1  0  0  0
 68 81  1  0  0  0
 71 73  2  0  0  0
 71 75  1  0  0  0
 71147  1  0  0  0
 72 74  2  0  0  0
 72 76  1  0  0  0
 72148  1  0  0  0
 73 74  1  0  0  0
 73 82  1  0  0  0
 74 83  1  0  0  0
 75 76  2  0  0  0
 75 85  1  0  0  0
 76 87  1  0  0  0
 77 81  1  0  0  0
 77 84  1  0  0  0
 77 86  2  0  0  0
 78 79  1  0  0  0
 78 80  1  0  0  0
 78149  1  0  0  0
 78150  1  0  0  0
 79 81  1  0  0  0
 79151  1  0  0  0
 79152  1  0  0  0
 80 84  1  0  0  0
 80153  1  0  0  0
 80154  1  0  0  0
 81155  1  0  0  0
 82156  1  0  0  0
 82157  1  0  0  0
 82158  1  0  0  0
 83 84  1  0  0  0
 83159  1  0  0  0
 83160  1  0  0  0
 85161  1  0  0  0
M  ISO  4   1 100  68 101  81 101  85 100
M  END
> <chiral flag>
0

> <version>
0

> <s_m_source_file>
/data/baiqing/PycharmProjects/Reinvent-master-3.2/result/LINK_invent/BTK/process_docking_weight1_custom_product_contain_oxygen_bond_distance_aromatic_linkinvent_7_9_3/rearranged_h_0035.sdf

> <i_m_source_file_index>
79

> <r_mmod_Potential_Energy-OPLS-2005>
149.2333984375

> <r_mmod_Stretch_Energy-OPLS-2005>
87.0115585327148

> <r_mmod_Bend_Energy-OPLS-2005>
153.317169189453

> <r_mmod_Torsional_Energy-OPLS-2005>
289.293395996094

> <r_mmod_Improper_Torsional_Energy-OPLS-2005>
7.53814888000488

> <r_mmod_Van_der_Waal_Energy-OPLS-2005>
151.09375

> <r_mmod_Electrostatic_Energy-OPLS-2005>
-370.557159423828

> <r_mmod_Solvation_Energy-OPLS-2005>
-221.434555053711

> <b_mmod_Minimization_Converged-OPLS-2005>
0

> <r_mmod_RMS_Derivative-OPLS-2005>
2.55570578575134

$$$$
80
                    3D
 Structure written by MMmdl.
176185  0  0  1  0            999 V2000
  -30.7703  -14.3693   20.6837 C   0  0  0  0  0  0
  -30.4164  -12.2956   19.3906 C   0  0  0  0  0  0
  -29.4813  -12.5262   18.1890 C   0  0  0  0  0  0
  -28.0068  -12.3804   18.6079 C   0  0  0  0  0  0
  -27.6657  -13.2025   19.8783 C   0  0  2  0  0  0
  -28.7045  -12.9490   20.9924 C   0  0  0  0  0  0
  -25.2601  -13.8153   20.5677 C   0  0  0  0  0  0
  -24.1845  -13.0440   20.9162 C   0  0  0  0  0  0
  -24.6390  -11.6906   20.8725 C   0  0  0  0  0  0
  -23.9056  -10.4295   21.0401 C   0  0  0  0  0  0
  -24.3607   -9.4214   21.9181 C   0  0  0  0  0  0
  -23.6283   -8.2251   22.0761 C   0  0  0  0  0  0
  -22.4269   -8.0283   21.3545 C   0  0  0  0  0  0
  -21.9907   -9.0249   20.4643 C   0  0  0  0  0  0
  -22.7230  -10.2129   20.3051 C   0  0  0  0  0  0
  -21.6845   -6.0734   22.5275 C   0  0  0  0  0  0
  -21.4010   -6.5637   23.8207 C   0  0  0  0  0  0
  -21.3659   -5.6791   24.9174 C   0  0  0  0  0  0
  -21.6050   -4.3054   24.7226 C   0  0  0  0  0  0
  -21.8819   -3.8148   23.4345 C   0  0  0  0  0  0
  -21.9190   -4.6964   22.3399 C   0  0  0  0  0  0
  -22.7869  -13.5240   21.1828 C   0  0  0  0  0  0
  -22.1658   -4.2151   21.0974 F   0  0  0  0  0  0
  -21.5636   -3.4535   25.7740 F   0  0  0  0  0  0
  -30.0461  -13.2432   20.4529 N   0  0  0  0  0  0
  -26.3042  -12.9317   20.3373 N   0  0  0  0  0  0
  -25.9309  -11.6478   20.5738 N   0  0  0  0  0  0
  -22.0512  -12.8238   22.0382 N   0  0  0  0  0  0
  -25.4338  -15.1873   20.4094 N   0  0  0  0  0  0
  -31.7960  -14.6544   20.0588 O   0  0  0  0  0  0
  -21.6636   -6.8878   21.4239 O   0  0  0  0  0  0
  -22.3563  -14.5554   20.6683 O   0  0  0  0  0  0
  -24.6127  -31.8683   23.2136 C   0  0  0  0  0  0
  -25.9030  -32.4828   23.8419 C   0  0  1  0  0  0
  -27.2385  -27.4659   20.0880 C   0  0  0  0  0  0
  -25.5891  -33.8629   24.2353 N   0  0  0  0  0  0
  -23.3999  -30.4917   21.5524 C   0  0  2  0  0  0
  -24.8478  -28.9573   20.1181 C   0  0  0  0  0  0
  -22.7372  -29.4677   22.5011 C   0  0  0  0  0  0
  -18.0261  -28.1391   22.8510 C   0  0  0  0  0  0
  -24.1476  -36.7319   23.2641 C   0  0  0  0  0  0
  -25.9242  -30.8419   21.3627 C   0  0  0  0  0  0
  -26.0045  -29.4772   20.7140 C   0  0  0  0  0  0
  -27.2055  -28.7361   20.6999 C   0  0  0  0  0  0
  -26.0716  -26.9491   19.4926 C   0  0  0  0  0  0
  -24.8736  -27.6902   19.5068 C   0  0  0  0  0  0
  -23.6069  -29.8198   20.1690 C   0  0  0  0  0  0
  -25.4105  -36.3120   24.0345 C   0  0  1  0  0  0
  -20.5845  -28.3685   23.1325 C   0  0  2  0  0  0
  -20.6764  -26.9432   22.5420 C   0  0  0  0  0  0
  -19.5739  -26.6405   21.5224 C   0  0  0  0  0  0
  -18.1913  -26.7945   22.1626 C   0  0  0  0  0  0
  -19.1505  -28.8850   23.2918 C   0  0  0  0  0  0
  -18.9445  -30.1467   23.8922 C   0  0  0  0  0  0
  -17.6451  -30.6608   24.0583 C   0  0  0  0  0  0
  -25.9028  -34.9479   23.5141 C   0  0  0  0  0  0
  -16.5344  -29.9110   23.6351 C   0  0  0  0  0  0
  -16.7253  -28.6522   23.0374 C   0  0  0  0  0  0
  -26.4488  -31.6590   25.0730 C   0  0  0  0  0  0
  -25.3769  -31.3629   26.1467 C   0  0  0  0  0  0
  -27.0356  -30.3057   24.6091 C   0  0  0  0  0  0
  -27.6056  -32.4312   25.7502 C   0  0  0  0  0  0
  -27.5582  -37.1809   24.8471 C   0  0  0  0  0  0
  -21.4103  -29.3046   22.3725 N   0  0  0  0  0  0
  -26.4293  -37.3803   23.9421 N   0  0  0  0  0  0
  -24.6639  -31.0803   22.1027 N   0  0  0  0  0  0
  -23.4148  -28.8227   23.3058 O   0  0  0  0  0  0
  -28.3919  -26.7269   20.0563 O   0  0  0  0  0  0
  -26.5580  -34.8916   22.4691 O   0  0  0  0  0  0
  -23.5322  -32.1425   23.7540 O   0  0  0  0  0  0
  -31.5905  -18.0003   20.4428 C   0  0  0  0  0  0
  -29.6284  -18.3995   21.8095 C   0  0  0  0  0  0
  -30.7311  -17.5924   21.4779 C   0  0  0  0  0  0
  -31.3654  -19.1990   19.7288 C   0  0  0  0  0  0
  -30.2507  -20.0241   20.0701 C   0  0  0  0  0  0
  -29.3911  -19.6056   21.1219 C   0  0  0  0  0  0
  -29.3517  -23.6130   20.1349 C   0  0  0  0  0  0
  -32.1688  -17.2362   15.7105 C   0  0  0  0  0  0
  -33.1553  -18.3202   15.2843 C   0  0  0  0  0  0
  -31.9491  -17.5392   17.1919 C   0  0  0  0  0  0
  -32.8207  -19.5214   16.1819 C   0  0  0  0  0  0
  -31.5665  -22.6137   20.7173 C   0  0  0  0  0  0
  -31.0048  -16.3025   22.2378 C   0  0  0  0  0  0
  -29.9459  -21.3411   19.3326 C   0  0  0  0  0  0
  -32.3696  -19.5516   18.6298 C   0  0  0  0  0  0
  -29.6785  -24.8542   20.9906 C   0  0  0  0  0  0
  -28.5245  -25.8598   21.1802 C   0  0  0  0  0  0
  -30.3204  -15.1399   21.6814 N   0  0  0  0  0  0
  -30.2336  -22.5767   20.0954 N   0  0  0  0  0  0
  -31.9864  -19.0156   17.3001 N   0  3  0  0  0  0
  -28.2858  -23.5873   19.5118 O   0  0  0  0  0  0
  -28.0233  -20.5508   21.5988 Cl  0  0  0  0  0  0
  -31.4579  -12.3993   19.0829 H   0  0  0  0  0  0
  -30.3163  -11.2731   19.7580 H   0  0  0  0  0  0
  -29.7118  -11.8186   17.3909 H   0  0  0  0  0  0
  -29.6495  -13.5213   17.7744 H   0  0  0  0  0  0
  -27.8154  -11.3218   18.7895 H   0  0  0  0  0  0
  -27.3515  -12.6713   17.7865 H   0  0  0  0  0  0
  -27.7218  -14.2565   19.6051 H   0  0  0  0  0  0
  -28.6695  -11.9054   21.3077 H   0  0  0  0  0  0
  -28.4496  -13.5248   21.8813 H   0  0  0  0  0  0
  -25.2750   -9.5694   22.4757 H   0  0  0  0  0  0
  -23.9992   -7.4657   22.7495 H   0  0  0  0  0  0
  -21.0842   -8.8762   19.8949 H   0  0  0  0  0  0
  -22.3682  -10.9669   19.6163 H   0  0  0  0  0  0
  -21.1997   -7.6144   23.9712 H   0  0  0  0  0  0
  -21.1480   -6.0520   25.9077 H   0  0  0  0  0  0
  -22.0598   -2.7611   23.2843 H   0  0  0  0  0  0
  -22.4126  -11.9893   22.4763 H   0  0  0  0  0  0
  -21.1131  -13.1268   22.2590 H   0  0  0  0  0  0
  -24.6713  -15.8456   20.5257 H   0  0  0  0  0  0
  -26.2967  -15.6280   20.1147 H   0  0  0  0  0  0
  -26.7101  -32.5573   23.1179 H   0  0  0  0  0  0
  -25.0076  -33.9796   25.0524 H   0  0  0  0  0  0
  -22.6902  -31.3099   21.4115 H   0  0  0  0  0  0
  -23.3754  -35.9636   23.3294 H   0  0  0  0  0  0
  -24.3557  -36.8952   22.2058 H   0  0  0  0  0  0
  -23.7204  -37.6505   23.6671 H   0  0  0  0  0  0
  -26.0282  -31.6074   20.5926 H   0  0  0  0  0  0
  -26.8148  -30.9010   21.9767 H   0  0  0  0  0  0
  -28.1021  -29.1332   21.1545 H   0  0  0  0  0  0
  -26.0963  -25.9758   19.0221 H   0  0  0  0  0  0
  -23.9827  -27.2831   19.0476 H   0  0  0  0  0  0
  -23.7089  -30.5917   19.4046 H   0  0  0  0  0  0
  -22.7323  -29.2336   19.8798 H   0  0  0  0  0  0
  -25.1279  -36.1991   25.0836 H   0  0  0  0  0  0
  -20.9945  -28.3267   24.1441 H   0  0  0  0  0  0
  -20.5722  -26.2295   23.3604 H   0  0  0  0  0  0
  -21.6633  -26.7510   22.1193 H   0  0  0  0  0  0
  -19.6920  -25.6323   21.1247 H   0  0  0  0  0  0
  -19.6675  -27.3222   20.6756 H   0  0  0  0  0  0
  -17.4197  -26.6724   21.4014 H   0  0  0  0  0  0
  -18.0290  -26.0077   22.9000 H   0  0  0  0  0  0
  -19.7912  -30.7289   24.2295 H   0  0  0  0  0  0
  -17.5003  -31.6285   24.5180 H   0  0  0  0  0  0
  -15.5351  -30.3032   23.7654 H   0  0  0  0  0  0
  -15.8647  -28.0861   22.7095 H   0  0  0  0  0  0
  -24.5958  -30.6969   25.7774 H   0  0  0  0  0  0
  -24.8939  -32.2750   26.4975 H   0  0  0  0  0  0
  -25.8142  -30.8747   27.0185 H   0  0  0  0  0  0
  -26.2893  -29.6751   24.1244 H   0  0  0  0  0  0
  -27.4261  -29.7348   25.4528 H   0  0  0  0  0  0
  -27.8648  -30.4424   23.9146 H   0  0  0  0  0  0
  -27.2698  -33.3627   26.2072 H   0  0  0  0  0  0
  -28.3867  -32.6845   25.0323 H   0  0  0  0  0  0
  -28.0712  -31.8434   26.5421 H   0  0  0  0  0  0
  -28.2588  -38.0120   24.7564 H   0  0  0  0  0  0
  -28.1089  -36.2651   24.6261 H   0  0  0  0  0  0
  -27.2290  -37.1420   25.8868 H   0  0  0  0  0  0
  -20.9272  -29.8728   21.6908 H   0  0  0  0  0  0
  -26.0186  -38.2880   24.1442 H   0  0  0  0  0  0
  -32.4401  -17.3770   20.1971 H   0  0  0  0  0  0
  -28.9619  -18.1000   22.6058 H   0  0  0  0  0  0
  -32.5447  -16.2270   15.5357 H   0  0  0  0  0  0
  -31.2313  -17.3464   15.1633 H   0  0  0  0  0  0
  -33.0883  -18.5589   14.2219 H   0  0  0  0  0  0
  -34.1751  -17.9874   15.4830 H   0  0  0  0  0  0
  -32.7650  -17.0994   17.7696 H   0  0  0  0  0  0
  -31.0140  -17.1240   17.5692 H   0  0  0  0  0  0
  -32.2536  -20.2743   15.6330 H   0  0  0  0  0  0
  -33.7370  -19.9994   16.5312 H   0  0  0  0  0  0
  -31.8404  -23.5638   21.1710 H   0  0  0  0  0  0
  -32.3318  -22.4136   19.9688 H   0  0  0  0  0  0
  -31.6488  -21.8549   21.4964 H   0  0  0  0  0  0
  -30.6862  -16.4230   23.2733 H   0  0  0  0  0  0
  -32.0809  -16.1201   22.2831 H   0  0  0  0  0  0
  -28.8946  -21.2859   19.0454 H   0  0  0  0  0  0
  -30.4650  -21.4043   18.3784 H   0  0  0  0  0  0
  -33.3530  -19.1675   18.9069 H   0  0  0  0  0  0
  -32.5040  -20.6294   18.5685 H   0  0  0  0  0  0
  -30.5452  -25.3680   20.5757 H   0  0  0  0  0  0
  -29.9610  -24.4992   21.9820 H   0  0  0  0  0  0
  -28.7305  -26.4720   22.0595 H   0  0  0  0  0  0
  -27.5901  -25.3324   21.3860 H   0  0  0  0  0  0
  -29.4774  -14.8371   22.1443 H   0  0  0  0  0  0
  -31.0495  -19.3386   17.1117 H   0  0  0  0  0  0
  1 25  1  0  0  0
  1 30  2  0  0  0
  1 88  1  0  0  0
  2  3  1  0  0  0
  2 25  1  0  0  0
  2 93  1  0  0  0
  2 94  1  0  0  0
  3  4  1  0  0  0
  3 95  1  0  0  0
  3 96  1  0  0  0
  4  5  1  0  0  0
  4 97  1  0  0  0
  4 98  1  0  0  0
  5  6  1  0  0  0
  5 26  1  0  0  0
  5 99  1  0  0  0
  6 25  1  0  0  0
  6100  1  0  0  0
  6101  1  0  0  0
  7  8  2  0  0  0
  7 26  1  0  0  0
  7 29  1  0  0  0
  8  9  1  0  0  0
  8 22  1  0  0  0
  9 10  1  0  0  0
  9 27  2  0  0  0
 10 11  2  0  0  0
 10 15  1  0  0  0
 11 12  1  0  0  0
 11102  1  0  0  0
 12 13  2  0  0  0
 12103  1  0  0  0
 13 14  1  0  0  0
 13 31  1  0  0  0
 14 15  2  0  0  0
 14104  1  0  0  0
 15105  1  0  0  0
 16 17  2  0  0  0
 16 21  1  0  0  0
 16 31  1  0  0  0
 17 18  1  0  0  0
 17106  1  0  0  0
 18 19  2  0  0  0
 18107  1  0  0  0
 19 20  1  0  0  0
 19 24  1  0  0  0
 20 21  2  0  0  0
 20108  1  0  0  0
 21 23  1  0  0  0
 22 28  1  0  0  0
 22 32  2  0  0  0
 26 27  1  0  0  0
 28109  1  0  0  0
 28110  1  0  0  0
 29111  1  0  0  0
 29112  1  0  0  0
 33 34  1  0  0  0
 33 66  1  0  0  0
 33 70  2  0  0  0
 34 36  1  0  0  0
 34 59  1  0  0  0
 34113  1  0  0  0
 35 44  2  0  0  0
 35 45  1  0  0  0
 35 68  1  0  0  0
 36 56  1  0  0  0
 36114  1  0  0  0
 37 39  1  0  0  0
 37 47  1  0  0  0
 37 66  1  0  0  0
 37115  1  0  0  0
 38 43  2  0  0  0
 38 46  1  0  0  0
 38 47  1  0  0  0
 39 64  1  0  0  0
 39 67  2  0  0  0
 40 52  1  0  0  0
 40 53  2  0  0  0
 40 58  1  0  0  0
 41116  1  0  0  0
 41117  1  0  0  0
 41118  1  0  0  0
 41 48  1  0  0  0
 42 43  1  0  0  0
 42 66  1  0  0  0
 42119  1  0  0  0
 42120  1  0  0  0
 43 44  1  0  0  0
 44121  1  0  0  0
 45 46  2  0  0  0
 45122  1  0  0  0
 46123  1  0  0  0
 47124  1  0  0  0
 47125  1  0  0  0
 48 56  1  0  0  0
 48 65  1  0  0  0
 48126  1  0  0  0
 49 50  1  0  0  0
 49 53  1  0  0  0
 49 64  1  0  0  0
 49127  1  0  0  0
 50 51  1  0  0  0
 50128  1  0  0  0
 50129  1  0  0  0
 51 52  1  0  0  0
 51130  1  0  0  0
 51131  1  0  0  0
 52132  1  0  0  0
 52133  1  0  0  0
 53 54  1  0  0  0
 54 55  2  0  0  0
 54134  1  0  0  0
 55 57  1  0  0  0
 55135  1  0  0  0
 56 69  2  0  0  0
 57 58  2  0  0  0
 57136  1  0  0  0
 58137  1  0  0  0
 59 60  1  0  0  0
 59 61  1  0  0  0
 59 62  1  0  0  0
 60138  1  0  0  0
 60139  1  0  0  0
 60140  1  0  0  0
 61141  1  0  0  0
 61142  1  0  0  0
 61143  1  0  0  0
 62144  1  0  0  0
 62145  1  0  0  0
 62146  1  0  0  0
 63 65  1  0  0  0
 63147  1  0  0  0
 63148  1  0  0  0
 63149  1  0  0  0
 64150  1  0  0  0
 65151  1  0  0  0
 68 87  1  0  0  0
 71 73  2  0  0  0
 71 74  1  0  0  0
 71152  1  0  0  0
 72 73  1  0  0  0
 72 76  2  0  0  0
 72153  1  0  0  0
 73 83  1  0  0  0
 74 75  2  0  0  0
 74 85  1  0  0  0
 75 76  1  0  0  0
 75 84  1  0  0  0
 76 92  1  0  0  0
 77 86  1  0  0  0
 77 89  1  0  0  0
 77 91  2  0  0  0
 78 79  1  0  0  0
 78 80  1  0  0  0
 78154  1  0  0  0
 78155  1  0  0  0
 79 81  1  0  0  0
 79156  1  0  0  0
 79157  1  0  0  0
 80 90  1  0  0  0
 80158  1  0  0  0
 80159  1  0  0  0
 81 90  1  0  0  0
 81160  1  0  0  0
 81161  1  0  0  0
 82 89  1  0  0  0
 82162  1  0  0  0
 82163  1  0  0  0
 82164  1  0  0  0
 83 88  1  0  0  0
 83165  1  0  0  0
 83166  1  0  0  0
 84 89  1  0  0  0
 84167  1  0  0  0
 84168  1  0  0  0
 85169  1  0  0  0
 85170  1  0  0  0
 85 90  1  0  0  0
 86 87  1  0  0  0
 86171  1  0  0  0
 86172  1  0  0  0
 87173  1  0  0  0
 87174  1  0  0  0
 88175  1  0  0  0
 90176  1  0  0  0
M  CHG  1  90   1
M  ISO  4   1 100  68 101  87 101  88 100
M  END
> <chiral flag>
0

> <version>
0

> <s_m_source_file>
/data/baiqing/PycharmProjects/Reinvent-master-3.2/result/LINK_invent/BTK/process_docking_weight1_custom_product_contain_oxygen_bond_distance_aromatic_linkinvent_7_9_3/rearranged_h_0035.sdf

> <i_m_source_file_index>
80

> <r_mmod_Potential_Energy-OPLS-2005>
-195.173370361328

> <r_mmod_Stretch_Energy-OPLS-2005>
38.9447555541992

> <r_mmod_Bend_Energy-OPLS-2005>
116.979362487793

> <r_mmod_Torsional_Energy-OPLS-2005>
284.113983154297

> <r_mmod_Improper_Torsional_Energy-OPLS-2005>
1.86503565311432

> <r_mmod_Van_der_Waal_Energy-OPLS-2005>
150.687362670898

> <r_mmod_Electrostatic_Energy-OPLS-2005>
-340.060119628906

> <r_mmod_Solvation_Energy-OPLS-2005>
-454.185852050781

> <b_mmod_Minimization_Converged-OPLS-2005>
0

> <r_mmod_RMS_Derivative-OPLS-2005>
1.52141535282135

$$$$
81
                    3D
 Structure written by MMmdl.
170179  0  0  1  0            999 V2000
  -30.6764  -14.6378   20.5767 C   0  0  0  0  0  0
  -30.4427  -12.4024   19.4910 C   0  0  0  0  0  0
  -29.5333  -12.5158   18.2468 C   0  0  0  0  0  0
  -28.0560  -12.3402   18.6481 C   0  0  0  0  0  0
  -27.6587  -13.2195   19.8639 C   0  0  2  0  0  0
  -28.6946  -13.0969   21.0102 C   0  0  0  0  0  0
  -25.2480  -13.8035   20.5349 C   0  0  0  0  0  0
  -24.1798  -13.0353   20.9037 C   0  0  0  0  0  0
  -24.6445  -11.6875   20.8705 C   0  0  0  0  0  0
  -23.9110  -10.4292   21.0443 C   0  0  0  0  0  0
  -24.3653   -9.4210   21.9224 C   0  0  0  0  0  0
  -23.6338   -8.2225   22.0769 C   0  0  0  0  0  0
  -22.4309   -8.0287   21.3564 C   0  0  0  0  0  0
  -21.9952   -9.0253   20.4638 C   0  0  0  0  0  0
  -22.7277  -10.2146   20.3088 C   0  0  0  0  0  0
  -21.6859   -6.0761   22.5307 C   0  0  0  0  0  0
  -21.3983   -6.5660   23.8227 C   0  0  0  0  0  0
  -21.3645   -5.6813   24.9194 C   0  0  0  0  0  0
  -21.6044   -4.3079   24.7236 C   0  0  0  0  0  0
  -21.8810   -3.8179   23.4353 C   0  0  0  0  0  0
  -21.9181   -4.6992   22.3418 C   0  0  0  0  0  0
  -22.7848  -13.5199   21.1767 C   0  0  0  0  0  0
  -22.1677   -4.2186   21.0988 F   0  0  0  0  0  0
  -21.5641   -3.4558   25.7741 F   0  0  0  0  0  0
  -30.0220  -13.4332   20.4700 N   0  0  0  0  0  0
  -26.2990  -12.9278   20.3198 N   0  0  0  0  0  0
  -25.9387  -11.6458   20.5801 N   0  0  0  0  0  0
  -22.0534  -12.8168   22.0348 N   0  0  0  0  0  0
  -25.3978  -15.1635   20.3303 N   0  0  0  0  0  0
  -31.7878  -14.7824   20.0643 O   0  0  0  0  0  0
  -21.6657   -6.8905   21.4280 O   0  0  0  0  0  0
  -22.3482  -14.5524   20.6737 O   0  0  0  0  0  0
  -24.6306  -31.8584   23.2080 C   0  0  0  0  0  0
  -25.9113  -32.4772   23.8413 C   0  0  1  0  0  0
  -27.2300  -27.3291   20.1155 C   0  0  0  0  0  0
  -25.5930  -33.8560   24.2346 N   0  0  0  0  0  0
  -23.4222  -30.4855   21.5512 C   0  0  2  0  0  0
  -24.8626  -28.9412   20.1135 C   0  0  0  0  0  0
  -22.7482  -29.4622   22.4945 C   0  0  0  0  0  0
  -18.0311  -28.1460   22.8579 C   0  0  0  0  0  0
  -24.1494  -36.7300   23.2652 C   0  0  0  0  0  0
  -25.9638  -30.7900   21.3763 C   0  0  0  0  0  0
  -26.0342  -29.4218   20.7131 C   0  0  0  0  0  0
  -27.2186  -28.6283   20.7057 C   0  0  0  0  0  0
  -26.0374  -26.9106   19.4731 C   0  0  0  0  0  0
  -24.8655  -27.6866   19.4857 C   0  0  0  0  0  0
  -23.6299  -29.8196   20.1655 C   0  0  0  0  0  0
  -25.4105  -36.3087   24.0372 C   0  0  1  0  0  0
  -20.5934  -28.3659   23.1346 C   0  0  2  0  0  0
  -20.6599  -26.9320   22.5643 C   0  0  0  0  0  0
  -19.5673  -26.6464   21.5314 C   0  0  0  0  0  0
  -18.1905  -26.7967   22.1806 C   0  0  0  0  0  0
  -19.1606  -28.8868   23.2961 C   0  0  0  0  0  0
  -18.9616  -30.1487   23.8924 C   0  0  0  0  0  0
  -17.6639  -30.6700   24.0554 C   0  0  0  0  0  0
  -25.9000  -34.9456   23.5138 C   0  0  0  0  0  0
  -16.5480  -29.9312   23.6291 C   0  0  0  0  0  0
  -16.7325  -28.6678   23.0393 C   0  0  0  0  0  0
  -26.4460  -31.6565   25.0765 C   0  0  0  0  0  0
  -25.3687  -31.3697   26.1507 C   0  0  0  0  0  0
  -27.0341  -30.3013   24.6180 C   0  0  0  0  0  0
  -27.6011  -32.4328   25.7483 C   0  0  0  0  0  0
  -27.5574  -37.1816   24.8451 C   0  0  0  0  0  0
  -21.4198  -29.2938   22.3601 N   0  0  0  0  0  0
  -26.4301  -37.3787   23.9392 N   0  0  0  0  0  0
  -24.6903  -31.0623   22.1012 N   0  0  0  0  0  0
  -23.4178  -28.8195   23.3066 O   0  0  0  0  0  0
  -28.3573  -26.4916   20.1960 O   0  0  0  0  0  0
  -26.5609  -34.8913   22.4716 O   0  0  0  0  0  0
  -23.5490  -32.1372   23.7406 O   0  0  0  0  0  0
  -28.6778  -19.2152   21.5047 C   0  0  0  0  0  0
  -29.7121  -20.0998   21.1092 C   0  0  0  0  0  0
  -28.8031  -17.7968   21.4927 C   0  0  0  0  0  0
  -30.9538  -19.4473   20.7935 C   0  0  0  0  0  0
  -31.1228  -18.0135   20.9018 C   0  0  0  0  0  0
  -30.0137  -17.1318   21.1476 C   0  0  0  0  0  0
  -27.3425  -22.9149   20.8638 C   0  0  0  0  0  0
  -26.2683  -22.1173   20.7436 C   0  0  0  0  0  0
  -27.2697  -24.4080   21.1530 C   0  0  0  0  0  0
  -29.3439  -23.9975   20.1907 C   0  0  0  0  0  0
  -28.1618  -25.0256   20.0752 C   0  0  1  0  0  0
  -27.6030  -16.9883   21.9552 C   0  0  0  0  0  0
  -32.1771  -20.2939   20.4396 C   0  0  0  0  0  0
  -32.5363  -17.4461   20.9449 C   0  0  0  0  0  0
  -26.2091  -20.7692   20.0685 C   0  0  0  0  0  0
  -29.5487  -21.6756   21.3350 C   0  0  0  0  0  0
  -30.0213  -15.6525   21.2336 N   0  0  0  0  0  0
  -28.7506  -22.6111   20.4120 N   0  3  1  0  0  0
  -31.4921  -12.4970   19.2112 H   0  0  0  0  0  0
  -30.3533  -11.4117   19.9380 H   0  0  0  0  0  0
  -29.8166  -11.7603   17.5124 H   0  0  0  0  0  0
  -29.6811  -13.4807   17.7585 H   0  0  0  0  0  0
  -27.9085  -11.2917   18.8999 H   0  0  0  0  0  0
  -27.4102  -12.5410   17.7947 H   0  0  0  0  0  0
  -27.6684  -14.2503   19.5132 H   0  0  0  0  0  0
  -28.7036  -12.0832   21.4133 H   0  0  0  0  0  0
  -28.4183  -13.7397   21.8466 H   0  0  0  0  0  0
  -25.2798   -9.5648   22.4814 H   0  0  0  0  0  0
  -24.0066   -7.4611   22.7471 H   0  0  0  0  0  0
  -21.0889   -8.8744   19.8941 H   0  0  0  0  0  0
  -22.3729  -10.9687   19.6202 H   0  0  0  0  0  0
  -21.1978   -7.6168   23.9720 H   0  0  0  0  0  0
  -21.1468   -6.0566   25.9084 H   0  0  0  0  0  0
  -22.0605   -2.7646   23.2849 H   0  0  0  0  0  0
  -22.4236  -11.9845   22.4676 H   0  0  0  0  0  0
  -21.1189  -13.1210   22.2660 H   0  0  0  0  0  0
  -24.6096  -15.7986   20.3885 H   0  0  0  0  0  0
  -26.2108  -15.5725   19.8873 H   0  0  0  0  0  0
  -26.7146  -32.5409   23.1151 H   0  0  0  0  0  0
  -25.0014  -33.9637   25.0440 H   0  0  0  0  0  0
  -22.7249  -31.3129   21.4118 H   0  0  0  0  0  0
  -23.3747  -35.9635   23.3303 H   0  0  0  0  0  0
  -24.3541  -36.8902   22.2047 H   0  0  0  0  0  0
  -23.7253  -37.6517   23.6644 H   0  0  0  0  0  0
  -26.1039  -31.5559   20.6141 H   0  0  0  0  0  0
  -26.8413  -30.8268   22.0081 H   0  0  0  0  0  0
  -28.1121  -28.9805   21.1982 H   0  0  0  0  0  0
  -25.9682  -25.9638   18.9558 H   0  0  0  0  0  0
  -23.9671  -27.3108   19.0117 H   0  0  0  0  0  0
  -23.7463  -30.5982   19.4102 H   0  0  0  0  0  0
  -22.7481  -29.2514   19.8653 H   0  0  0  0  0  0
  -25.1291  -36.1973   25.0892 H   0  0  0  0  0  0
  -20.9976  -28.3382   24.1474 H   0  0  0  0  0  0
  -20.5051  -26.2351   23.3893 H   0  0  0  0  0  0
  -21.6481  -26.6883   22.1723 H   0  0  0  0  0  0
  -19.6714  -25.6434   21.1146 H   0  0  0  0  0  0
  -19.6627  -27.3429   20.6985 H   0  0  0  0  0  0
  -18.0353  -26.0107   22.9253 H   0  0  0  0  0  0
  -17.4166  -26.6650   21.4222 H   0  0  0  0  0  0
  -19.8192  -30.7155   24.2298 H   0  0  0  0  0  0
  -17.5313  -31.6387   24.5163 H   0  0  0  0  0  0
  -15.5526  -30.3360   23.7502 H   0  0  0  0  0  0
  -15.8691  -28.1103   22.7048 H   0  0  0  0  0  0
  -24.5817  -30.7091   25.7835 H   0  0  0  0  0  0
  -24.8944  -32.2897   26.4987 H   0  0  0  0  0  0
  -25.8035  -30.8828   27.0259 H   0  0  0  0  0  0
  -26.2959  -29.6725   24.1209 H   0  0  0  0  0  0
  -27.4072  -29.7280   25.4667 H   0  0  0  0  0  0
  -27.8797  -30.4310   23.9413 H   0  0  0  0  0  0
  -27.2583  -33.3616   26.2073 H   0  0  0  0  0  0
  -28.3797  -32.6926   25.0278 H   0  0  0  0  0  0
  -28.0717  -31.8459   26.5393 H   0  0  0  0  0  0
  -28.2649  -38.0063   24.7512 H   0  0  0  0  0  0
  -28.1051  -36.2625   24.6326 H   0  0  0  0  0  0
  -27.2272  -37.1512   25.8845 H   0  0  0  0  0  0
  -20.9349  -29.8663   21.6802 H   0  0  0  0  0  0
  -26.0199  -38.2878   24.1380 H   0  0  0  0  0  0
  -27.7620  -19.6317   21.8955 H   0  0  0  0  0  0
  -25.3110  -22.5127   21.0520 H   0  0  0  0  0  0
  -27.6648  -24.6141   22.1477 H   0  0  0  0  0  0
  -26.2465  -24.7757   21.1087 H   0  0  0  0  0  0
  -29.9620  -24.2893   21.0425 H   0  0  0  0  0  0
  -29.9769  -24.0231   19.3031 H   0  0  0  0  0  0
  -27.7203  -24.8365   19.0984 H   0  0  0  0  0  0
  -26.6798  -17.5643   21.9226 H   0  0  0  0  0  0
  -27.7385  -16.6260   22.9763 H   0  0  0  0  0  0
  -27.4747  -16.1371   21.2966 H   0  0  0  0  0  0
  -32.8421  -20.3783   21.2998 H   0  0  0  0  0  0
  -31.9249  -21.2995   20.1117 H   0  0  0  0  0  0
  -32.7425  -19.8435   19.6210 H   0  0  0  0  0  0
  -32.8809  -17.0957   19.9722 H   0  0  0  0  0  0
  -32.5726  -16.6242   21.6617 H   0  0  0  0  0  0
  -33.2605  -18.1639   21.3249 H   0  0  0  0  0  0
  -27.1724  -20.4357   19.6891 H   0  0  0  0  0  0
  -25.5416  -20.8553   19.2140 H   0  0  0  0  0  0
  -25.8053  -20.0109   20.7372 H   0  0  0  0  0  0
  -30.5340  -22.1170   21.4781 H   0  0  0  0  0  0
  -29.1107  -21.7764   22.3294 H   0  0  0  0  0  0
  -29.1993  -15.2906   21.6910 H   0  0  0  0  0  0
  -28.7108  -22.1706   19.5039 H   0  0  0  0  0  0
  1 25  1  0  0  0
  1 30  2  0  0  0
  1 87  1  0  0  0
  2  3  1  0  0  0
  2 25  1  0  0  0
  2 89  1  0  0  0
  2 90  1  0  0  0
  3  4  1  0  0  0
  3 91  1  0  0  0
  3 92  1  0  0  0
  4  5  1  0  0  0
  4 93  1  0  0  0
  4 94  1  0  0  0
  5  6  1  0  0  0
  5 26  1  0  0  0
  5 95  1  0  0  0
  6 25  1  0  0  0
  6 96  1  0  0  0
  6 97  1  0  0  0
  7  8  2  0  0  0
  7 26  1  0  0  0
  7 29  1  0  0  0
  8  9  1  0  0  0
  8 22  1  0  0  0
  9 10  1  0  0  0
  9 27  2  0  0  0
 10 11  2  0  0  0
 10 15  1  0  0  0
 11 12  1  0  0  0
 11 98  1  0  0  0
 12 13  2  0  0  0
 12 99  1  0  0  0
 13 14  1  0  0  0
 13 31  1  0  0  0
 14 15  2  0  0  0
 14100  1  0  0  0
 15101  1  0  0  0
 16 17  2  0  0  0
 16 21  1  0  0  0
 16 31  1  0  0  0
 17 18  1  0  0  0
 17102  1  0  0  0
 18 19  2  0  0  0
 18103  1  0  0  0
 19 20  1  0  0  0
 19 24  1  0  0  0
 20 21  2  0  0  0
 20104  1  0  0  0
 21 23  1  0  0  0
 22 28  1  0  0  0
 22 32  2  0  0  0
 26 27  1  0  0  0
 28105  1  0  0  0
 28106  1  0  0  0
 29107  1  0  0  0
 29108  1  0  0  0
 33 34  1  0  0  0
 33 66  1  0  0  0
 33 70  2  0  0  0
 34 36  1  0  0  0
 34 59  1  0  0  0
 34109  1  0  0  0
 35 44  2  0  0  0
 35 45  1  0  0  0
 35 68  1  0  0  0
 36 56  1  0  0  0
 36110  1  0  0  0
 37 39  1  0  0  0
 37 47  1  0  0  0
 37 66  1  0  0  0
 37111  1  0  0  0
 38 43  2  0  0  0
 38 46  1  0  0  0
 38 47  1  0  0  0
 39 64  1  0  0  0
 39 67  2  0  0  0
 40 52  1  0  0  0
 40 53  2  0  0  0
 40 58  1  0  0  0
 41112  1  0  0  0
 41113  1  0  0  0
 41114  1  0  0  0
 41 48  1  0  0  0
 42 43  1  0  0  0
 42 66  1  0  0  0
 42115  1  0  0  0
 42116  1  0  0  0
 43 44  1  0  0  0
 44117  1  0  0  0
 45 46  2  0  0  0
 45118  1  0  0  0
 46119  1  0  0  0
 47120  1  0  0  0
 47121  1  0  0  0
 48 56  1  0  0  0
 48 65  1  0  0  0
 48122  1  0  0  0
 49 50  1  0  0  0
 49 53  1  0  0  0
 49 64  1  0  0  0
 49123  1  0  0  0
 50 51  1  0  0  0
 50124  1  0  0  0
 50125  1  0  0  0
 51 52  1  0  0  0
 51126  1  0  0  0
 51127  1  0  0  0
 52128  1  0  0  0
 52129  1  0  0  0
 53 54  1  0  0  0
 54 55  2  0  0  0
 54130  1  0  0  0
 55 57  1  0  0  0
 55131  1  0  0  0
 56 69  2  0  0  0
 57 58  2  0  0  0
 57132  1  0  0  0
 58133  1  0  0  0
 59 60  1  0  0  0
 59 61  1  0  0  0
 59 62  1  0  0  0
 60134  1  0  0  0
 60135  1  0  0  0
 60136  1  0  0  0
 61137  1  0  0  0
 61138  1  0  0  0
 61139  1  0  0  0
 62140  1  0  0  0
 62141  1  0  0  0
 62142  1  0  0  0
 63 65  1  0  0  0
 63143  1  0  0  0
 63144  1  0  0  0
 63145  1  0  0  0
 64146  1  0  0  0
 65147  1  0  0  0
 68 81  1  0  0  0
 71 72  2  0  0  0
 71 73  1  0  0  0
 71148  1  0  0  0
 72 74  1  0  0  0
 72 86  1  0  0  0
 73 76  2  0  0  0
 73 82  1  0  0  0
 74 75  2  0  0  0
 74 83  1  0  0  0
 75 76  1  0  0  0
 75 84  1  0  0  0
 76 87  1  0  0  0
 77 78  2  0  0  0
 77 79  1  0  0  0
 77 88  1  0  0  0
 78 85  1  0  0  0
 78149  1  0  0  0
 79 81  1  0  0  0
 79150  1  0  0  0
 79151  1  0  0  0
 80 81  1  0  0  0
 80 88  1  0  0  0
 80152  1  0  0  0
 80153  1  0  0  0
 81154  1  0  0  0
 82155  1  0  0  0
 82156  1  0  0  0
 82157  1  0  0  0
 83158  1  0  0  0
 83159  1  0  0  0
 83160  1  0  0  0
 84161  1  0  0  0
 84162  1  0  0  0
 84163  1  0  0  0
 85164  1  0  0  0
 85165  1  0  0  0
 85166  1  0  0  0
 86167  1  0  0  0
 86168  1  0  0  0
 86 88  1  0  0  0
 87169  1  0  0  0
 88170  1  0  0  0
M  CHG  1  88   1
M  ISO  4   1 100  68 101  81 101  87 100
M  END
> <chiral flag>
0

> <version>
0

> <s_m_source_file>
/data/baiqing/PycharmProjects/Reinvent-master-3.2/result/LINK_invent/BTK/process_docking_weight1_custom_product_contain_oxygen_bond_distance_aromatic_linkinvent_7_9_3/rearranged_h_0035.sdf

> <i_m_source_file_index>
81

> <r_mmod_Potential_Energy-OPLS-2005>
36.4660491943359

> <r_mmod_Stretch_Energy-OPLS-2005>
97.5767059326172

> <r_mmod_Bend_Energy-OPLS-2005>
217.771759033203

> <r_mmod_Torsional_Energy-OPLS-2005>
253.205352783203

> <r_mmod_Improper_Torsional_Energy-OPLS-2005>
7.98942470550537

> <r_mmod_Van_der_Waal_Energy-OPLS-2005>
160.015701293945

> <r_mmod_Electrostatic_Energy-OPLS-2005>
-334.097106933594

> <r_mmod_Solvation_Energy-OPLS-2005>
-413.931274414062

> <b_mmod_Minimization_Converged-OPLS-2005>
0

> <r_mmod_RMS_Derivative-OPLS-2005>
7.50861883163452

$$$$
82
                    3D
 Structure written by MMmdl.
171180  0  0  1  0            999 V2000
  -30.7279  -14.4043   20.6586 C   0  0  0  0  0  0
  -30.4240  -12.2992   19.4033 C   0  0  0  0  0  0
  -29.4904  -12.5285   18.1981 C   0  0  0  0  0  0
  -28.0114  -12.3849   18.6109 C   0  0  0  0  0  0
  -27.6661  -13.2022   19.8846 C   0  0  2  0  0  0
  -28.7043  -12.9365   20.9971 C   0  0  0  0  0  0
  -25.2573  -13.8145   20.5625 C   0  0  0  0  0  0
  -24.1827  -13.0438   20.9151 C   0  0  0  0  0  0
  -24.6381  -11.6908   20.8731 C   0  0  0  0  0  0
  -23.9040  -10.4300   21.0415 C   0  0  0  0  0  0
  -24.3599   -9.4213   21.9188 C   0  0  0  0  0  0
  -23.6289   -8.2240   22.0760 C   0  0  0  0  0  0
  -22.4270   -8.0277   21.3549 C   0  0  0  0  0  0
  -21.9899   -9.0243   20.4645 C   0  0  0  0  0  0
  -22.7217  -10.2130   20.3061 C   0  0  0  0  0  0
  -21.6843   -6.0734   22.5282 C   0  0  0  0  0  0
  -21.4006   -6.5635   23.8214 C   0  0  0  0  0  0
  -21.3665   -5.6789   24.9172 C   0  0  0  0  0  0
  -21.6045   -4.3051   24.7220 C   0  0  0  0  0  0
  -21.8821   -3.8148   23.4340 C   0  0  0  0  0  0
  -21.9190   -4.6967   22.3398 C   0  0  0  0  0  0
  -22.7852  -13.5247   21.1836 C   0  0  0  0  0  0
  -22.1665   -4.2158   21.0976 F   0  0  0  0  0  0
  -21.5629   -3.4531   25.7727 F   0  0  0  0  0  0
  -30.0433  -13.2469   20.4604 N   0  0  0  0  0  0
  -26.3032  -12.9321   20.3400 N   0  0  0  0  0  0
  -25.9309  -11.6483   20.5781 N   0  0  0  0  0  0
  -22.0495  -12.8245   22.0401 N   0  0  0  0  0  0
  -25.4246  -15.1842   20.3936 N   0  0  0  0  0  0
  -31.7856  -14.6744   20.0813 O   0  0  0  0  0  0
  -21.6633   -6.8877   21.4246 O   0  0  0  0  0  0
  -22.3530  -14.5551   20.6689 O   0  0  0  0  0  0
  -24.6128  -31.8697   23.2127 C   0  0  0  0  0  0
  -25.9030  -32.4827   23.8420 C   0  0  1  0  0  0
  -27.2326  -27.4411   20.0829 C   0  0  0  0  0  0
  -25.5884  -33.8632   24.2342 N   0  0  0  0  0  0
  -23.4006  -30.4939   21.5537 C   0  0  2  0  0  0
  -24.8429  -28.9605   20.1177 C   0  0  0  0  0  0
  -22.7401  -29.4661   22.5009 C   0  0  0  0  0  0
  -18.0264  -28.1378   22.8489 C   0  0  0  0  0  0
  -24.1485  -36.7323   23.2638 C   0  0  0  0  0  0
  -25.9290  -30.8349   21.3660 C   0  0  0  0  0  0
  -26.0036  -29.4698   20.7118 C   0  0  0  0  0  0
  -27.1989  -28.7162   20.6933 C   0  0  0  0  0  0
  -26.0463  -26.9427   19.4927 C   0  0  0  0  0  0
  -24.8579  -27.6956   19.5090 C   0  0  0  0  0  0
  -23.6064  -29.8277   20.1678 C   0  0  0  0  0  0
  -25.4105  -36.3119   24.0337 C   0  0  1  0  0  0
  -20.5854  -28.3661   23.1324 C   0  0  2  0  0  0
  -20.6755  -26.9398   22.5418 C   0  0  0  0  0  0
  -19.5734  -26.6385   21.5214 C   0  0  0  0  0  0
  -18.1918  -26.7925   22.1624 C   0  0  0  0  0  0
  -19.1516  -28.8835   23.2904 C   0  0  0  0  0  0
  -18.9443  -30.1441   23.8916 C   0  0  0  0  0  0
  -17.6446  -30.6585   24.0566 C   0  0  0  0  0  0
  -25.9034  -34.9481   23.5139 C   0  0  0  0  0  0
  -16.5333  -29.9091   23.6321 C   0  0  0  0  0  0
  -16.7254  -28.6507   23.0349 C   0  0  0  0  0  0
  -26.4458  -31.6600   25.0746 C   0  0  0  0  0  0
  -25.3728  -31.3703   26.1500 C   0  0  0  0  0  0
  -27.0281  -30.3037   24.6126 C   0  0  0  0  0  0
  -27.6044  -32.4309   25.7510 C   0  0  0  0  0  0
  -27.5581  -37.1817   24.8459 C   0  0  0  0  0  0
  -21.4132  -29.3031   22.3742 N   0  0  0  0  0  0
  -26.4295  -37.3796   23.9401 N   0  0  0  0  0  0
  -24.6657  -31.0802   22.1028 N   0  0  0  0  0  0
  -23.4183  -28.8203   23.3044 O   0  0  0  0  0  0
  -28.4213  -26.7372   20.0859 O   0  0  0  0  0  0
  -26.5613  -34.8920   22.4711 O   0  0  0  0  0  0
  -23.5322  -32.1454   23.7516 O   0  0  0  0  0  0
  -30.0348  -18.7609   20.5749 C   0  0  0  0  0  0
  -27.3273  -18.6725   21.2985 C   0  0  0  0  0  0
  -29.1627  -19.7831   20.1334 C   0  0  0  0  0  0
  -29.5713  -17.6956   21.3791 C   0  0  0  0  0  0
  -27.7903  -19.7317   20.4844 C   0  0  0  0  0  0
  -28.2068  -17.6726   21.7604 C   0  0  0  0  0  0
  -25.0212  -22.1066   20.0323 C   0  0  0  0  0  0
  -24.8854  -21.1820   18.8216 C   0  0  0  0  0  0
  -25.9783  -21.3405   20.9386 C   0  0  0  0  0  0
  -26.1812  -20.3582   18.8076 C   0  0  0  0  0  0
  -30.5597  -16.6215   21.8392 C   0  0  0  0  0  0
  -29.7179  -20.9246   19.2784 C   0  0  0  0  0  0
  -29.8137  -24.7688   19.7830 C   0  0  0  0  0  0
  -29.9995  -23.3878   19.1076 C   0  0  0  0  0  0
  -28.4177  -25.3910   19.6025 C   0  0  0  0  0  0
  -26.9234  -20.7348   20.0087 N   0  0  0  0  0  0
  -30.1455  -15.2576   21.5099 N   0  0  0  0  0  0
  -29.4875  -22.2461   19.9023 N   0  3  0  0  0  0
  -27.5838  -16.4445   22.8084 Cl  0  0  0  0  0  0
  -31.4677  -12.4083   19.1009 H   0  0  0  0  0  0
  -30.3288  -11.2765   19.7705 H   0  0  0  0  0  0
  -29.7276  -11.8247   17.3993 H   0  0  0  0  0  0
  -29.6607  -13.5247   17.7879 H   0  0  0  0  0  0
  -27.8165  -11.3264   18.7848 H   0  0  0  0  0  0
  -27.3597  -12.6806   17.7883 H   0  0  0  0  0  0
  -27.7248  -14.2583   19.6200 H   0  0  0  0  0  0
  -28.6736  -11.8875   21.2959 H   0  0  0  0  0  0
  -28.4506  -13.4919   21.9007 H   0  0  0  0  0  0
  -25.2750   -9.5680   22.4752 H   0  0  0  0  0  0
  -24.0005   -7.4622   22.7470 H   0  0  0  0  0  0
  -21.0836   -8.8736   19.8944 H   0  0  0  0  0  0
  -22.3674  -10.9652   19.6157 H   0  0  0  0  0  0
  -21.1998   -7.6144   23.9720 H   0  0  0  0  0  0
  -21.1492   -6.0519   25.9077 H   0  0  0  0  0  0
  -22.0601   -2.7614   23.2826 H   0  0  0  0  0  0
  -22.4094  -11.9901   22.4794 H   0  0  0  0  0  0
  -21.1110  -13.1272   22.2582 H   0  0  0  0  0  0
  -24.6663  -15.8406   20.5360 H   0  0  0  0  0  0
  -26.2957  -15.6292   20.1389 H   0  0  0  0  0  0
  -26.7103  -32.5536   23.1191 H   0  0  0  0  0  0
  -24.9976  -33.9803   25.0447 H   0  0  0  0  0  0
  -22.6886  -31.3107   21.4176 H   0  0  0  0  0  0
  -23.3741  -35.9663   23.3313 H   0  0  0  0  0  0
  -24.3578  -36.8937   22.2050 H   0  0  0  0  0  0
  -23.7244  -37.6532   23.6653 H   0  0  0  0  0  0
  -26.0445  -31.6020   20.5996 H   0  0  0  0  0  0
  -26.8159  -30.8846   21.9860 H   0  0  0  0  0  0
  -28.0970  -29.1090   21.1494 H   0  0  0  0  0  0
  -26.0103  -25.9778   19.0094 H   0  0  0  0  0  0
  -23.9634  -27.2972   19.0497 H   0  0  0  0  0  0
  -23.7176  -30.6043   19.4108 H   0  0  0  0  0  0
  -22.7295  -29.2496   19.8700 H   0  0  0  0  0  0
  -25.1286  -36.1998   25.0833 H   0  0  0  0  0  0
  -20.9936  -28.3224   24.1448 H   0  0  0  0  0  0
  -20.5656  -26.2273   23.3611 H   0  0  0  0  0  0
  -21.6630  -26.7452   22.1213 H   0  0  0  0  0  0
  -19.6896  -25.6305   21.1236 H   0  0  0  0  0  0
  -19.6673  -27.3202   20.6757 H   0  0  0  0  0  0
  -17.4186  -26.6671   21.4028 H   0  0  0  0  0  0
  -18.0313  -26.0068   22.9022 H   0  0  0  0  0  0
  -19.7923  -30.7247   24.2303 H   0  0  0  0  0  0
  -17.5006  -31.6267   24.5169 H   0  0  0  0  0  0
  -15.5340  -30.3000   23.7641 H   0  0  0  0  0  0
  -15.8655  -28.0834   22.7057 H   0  0  0  0  0  0
  -24.5878  -30.7084   25.7826 H   0  0  0  0  0  0
  -24.8945  -32.2857   26.4990 H   0  0  0  0  0  0
  -25.8073  -30.8827   27.0236 H   0  0  0  0  0  0
  -26.2826  -29.6816   24.1151 H   0  0  0  0  0  0
  -27.4006  -29.7258   25.4599 H   0  0  0  0  0  0
  -27.8691  -30.4353   23.9312 H   0  0  0  0  0  0
  -27.2668  -33.3586   26.2144 H   0  0  0  0  0  0
  -28.3824  -32.6903   25.0318 H   0  0  0  0  0  0
  -28.0744  -31.8398   26.5381 H   0  0  0  0  0  0
  -28.2600  -38.0110   24.7507 H   0  0  0  0  0  0
  -28.1078  -36.2646   24.6290 H   0  0  0  0  0  0
  -27.2304  -37.1475   25.8862 H   0  0  0  0  0  0
  -20.9294  -29.8766   21.6975 H   0  0  0  0  0  0
  -26.0191  -38.2883   24.1390 H   0  0  0  0  0  0
  -31.0785  -18.7944   20.2948 H   0  0  0  0  0  0
  -26.2875  -18.6100   21.5817 H   0  0  0  0  0  0
  -24.0667  -22.3318   20.5092 H   0  0  0  0  0  0
  -25.4743  -23.0515   19.7282 H   0  0  0  0  0  0
  -24.7338  -21.7359   17.8945 H   0  0  0  0  0  0
  -24.0285  -20.5185   18.9502 H   0  0  0  0  0  0
  -25.4276  -20.5891   21.5058 H   0  0  0  0  0  0
  -26.4737  -22.0012   21.6522 H   0  0  0  0  0  0
  -26.7703  -20.5820   17.9167 H   0  0  0  0  0  0
  -25.9561  -19.2899   18.7907 H   0  0  0  0  0  0
  -30.6579  -16.6951   22.9234 H   0  0  0  0  0  0
  -31.5516  -16.8322   21.4360 H   0  0  0  0  0  0
  -29.2446  -20.8885   18.2965 H   0  0  0  0  0  0
  -30.7876  -20.7841   19.1172 H   0  0  0  0  0  0
  -30.5348  -25.4514   19.3327 H   0  0  0  0  0  0
  -30.0761  -24.7197   20.8404 H   0  0  0  0  0  0
  -31.0672  -23.2255   18.9502 H   0  0  0  0  0  0
  -29.5437  -23.3875   18.1155 H   0  0  0  0  0  0
  -27.6809  -24.7929   20.1434 H   0  0  0  0  0  0
  -28.1502  -25.3821   18.5446 H   0  0  0  0  0  0
  -29.2902  -14.9407   21.9417 H   0  0  0  0  0  0
  -29.9169  -22.2428   20.8127 H   0  0  0  0  0  0
  -28.4862  -22.3121   20.0231 H   0  0  0  0  0  0
  1 25  1  0  0  0
  1 30  2  0  0  0
  1 87  1  0  0  0
  2  3  1  0  0  0
  2 25  1  0  0  0
  2 90  1  0  0  0
  2 91  1  0  0  0
  3  4  1  0  0  0
  3 92  1  0  0  0
  3 93  1  0  0  0
  4  5  1  0  0  0
  4 94  1  0  0  0
  4 95  1  0  0  0
  5  6  1  0  0  0
  5 26  1  0  0  0
  5 96  1  0  0  0
  6 25  1  0  0  0
  6 97  1  0  0  0
  6 98  1  0  0  0
  7  8  2  0  0  0
  7 26  1  0  0  0
  7 29  1  0  0  0
  8  9  1  0  0  0
  8 22  1  0  0  0
  9 10  1  0  0  0
  9 27  2  0  0  0
 10 11  2  0  0  0
 10 15  1  0  0  0
 11 12  1  0  0  0
 11 99  1  0  0  0
 12 13  2  0  0  0
 12100  1  0  0  0
 13 14  1  0  0  0
 13 31  1  0  0  0
 14 15  2  0  0  0
 14101  1  0  0  0
 15102  1  0  0  0
 16 17  2  0  0  0
 16 21  1  0  0  0
 16 31  1  0  0  0
 17 18  1  0  0  0
 17103  1  0  0  0
 18 19  2  0  0  0
 18104  1  0  0  0
 19 20  1  0  0  0
 19 24  1  0  0  0
 20 21  2  0  0  0
 20105  1  0  0  0
 21 23  1  0  0  0
 22 28  1  0  0  0
 22 32  2  0  0  0
 26 27  1  0  0  0
 28106  1  0  0  0
 28107  1  0  0  0
 29108  1  0  0  0
 29109  1  0  0  0
 33 34  1  0  0  0
 33 66  1  0  0  0
 33 70  2  0  0  0
 34 36  1  0  0  0
 34 59  1  0  0  0
 34110  1  0  0  0
 35 44  2  0  0  0
 35 45  1  0  0  0
 35 68  1  0  0  0
 36 56  1  0  0  0
 36111  1  0  0  0
 37 39  1  0  0  0
 37 47  1  0  0  0
 37 66  1  0  0  0
 37112  1  0  0  0
 38 43  2  0  0  0
 38 46  1  0  0  0
 38 47  1  0  0  0
 39 64  1  0  0  0
 39 67  2  0  0  0
 40 52  1  0  0  0
 40 53  2  0  0  0
 40 58  1  0  0  0
 41113  1  0  0  0
 41114  1  0  0  0
 41115  1  0  0  0
 41 48  1  0  0  0
 42 43  1  0  0  0
 42 66  1  0  0  0
 42116  1  0  0  0
 42117  1  0  0  0
 43 44  1  0  0  0
 44118  1  0  0  0
 45 46  2  0  0  0
 45119  1  0  0  0
 46120  1  0  0  0
 47121  1  0  0  0
 47122  1  0  0  0
 48 56  1  0  0  0
 48 65  1  0  0  0
 48123  1  0  0  0
 49 50  1  0  0  0
 49 53  1  0  0  0
 49 64  1  0  0  0
 49124  1  0  0  0
 50 51  1  0  0  0
 50125  1  0  0  0
 50126  1  0  0  0
 51 52  1  0  0  0
 51127  1  0  0  0
 51128  1  0  0  0
 52129  1  0  0  0
 52130  1  0  0  0
 53 54  1  0  0  0
 54 55  2  0  0  0
 54131  1  0  0  0
 55 57  1  0  0  0
 55132  1  0  0  0
 56 69  2  0  0  0
 57 58  2  0  0  0
 57133  1  0  0  0
 58134  1  0  0  0
 59 60  1  0  0  0
 59 61  1  0  0  0
 59 62  1  0  0  0
 60135  1  0  0  0
 60136  1  0  0  0
 60137  1  0  0  0
 61138  1  0  0  0
 61139  1  0  0  0
 61140  1  0  0  0
 62141  1  0  0  0
 62142  1  0  0  0
 62143  1  0  0  0
 63 65  1  0  0  0
 63144  1  0  0  0
 63145  1  0  0  0
 63146  1  0  0  0
 64147  1  0  0  0
 65148  1  0  0  0
 68 85  1  0  0  0
 71 73  2  0  0  0
 71 74  1  0  0  0
 71149  1  0  0  0
 72 75  2  0  0  0
 72 76  1  0  0  0
 72150  1  0  0  0
 73 75  1  0  0  0
 73 82  1  0  0  0
 74 76  2  0  0  0
 74 81  1  0  0  0
 75 86  1  0  0  0
 76 89  1  0  0  0
 77 78  1  0  0  0
 77 79  1  0  0  0
 77151  1  0  0  0
 77152  1  0  0  0
 78 80  1  0  0  0
 78153  1  0  0  0
 78154  1  0  0  0
 79 86  1  0  0  0
 79155  1  0  0  0
 79156  1  0  0  0
 80 86  1  0  0  0
 80157  1  0  0  0
 80158  1  0  0  0
 81 87  1  0  0  0
 81159  1  0  0  0
 81160  1  0  0  0
 82 88  1  0  0  0
 82161  1  0  0  0
 82162  1  0  0  0
 83 84  1  0  0  0
 83 85  1  0  0  0
 83163  1  0  0  0
 83164  1  0  0  0
 84 88  1  0  0  0
 84165  1  0  0  0
 84166  1  0  0  0
 85167  1  0  0  0
 85168  1  0  0  0
 87169  1  0  0  0
 88170  1  0  0  0
 88171  1  0  0  0
M  CHG  1  88   1
M  ISO  4   1 100  68 101  85 101  87 100
M  END
> <chiral flag>
0

> <version>
0

> <s_m_source_file>
/data/baiqing/PycharmProjects/Reinvent-master-3.2/result/LINK_invent/BTK/process_docking_weight1_custom_product_contain_oxygen_bond_distance_aromatic_linkinvent_7_9_3/rearranged_h_0035.sdf

> <i_m_source_file_index>
82

> <r_mmod_Potential_Energy-OPLS-2005>
-226.272033691406

> <r_mmod_Stretch_Energy-OPLS-2005>
35.9445648193359

> <r_mmod_Bend_Energy-OPLS-2005>
124.725608825684

> <r_mmod_Torsional_Energy-OPLS-2005>
266.647888183594

> <r_mmod_Improper_Torsional_Energy-OPLS-2005>
6.97148466110229

> <r_mmod_Van_der_Waal_Energy-OPLS-2005>
146.454727172852

> <r_mmod_Electrostatic_Energy-OPLS-2005>
-373.257049560547

> <r_mmod_Solvation_Energy-OPLS-2005>
-442.294555664062

> <b_mmod_Minimization_Converged-OPLS-2005>
0

> <r_mmod_RMS_Derivative-OPLS-2005>
1.45512270927429

$$$$
83
                    3D
 Structure written by MMmdl.
166175  0  0  1  0            999 V2000
  -30.5507  -14.7822   20.4227 C   0  0  0  0  0  0
  -30.4445  -12.4704   19.4678 C   0  0  0  0  0  0
  -29.5116  -12.5054   18.2350 C   0  0  0  0  0  0
  -28.0438  -12.3079   18.6625 C   0  0  0  0  0  0
  -27.6422  -13.2224   19.8498 C   0  0  2  0  0  0
  -28.6864  -13.1484   20.9863 C   0  0  0  0  0  0
  -25.2487  -13.8196   20.5697 C   0  0  0  0  0  0
  -24.1791  -13.0421   20.9237 C   0  0  0  0  0  0
  -24.6395  -11.6906   20.8809 C   0  0  0  0  0  0
  -23.9061  -10.4282   21.0460 C   0  0  0  0  0  0
  -24.3623   -9.4171   21.9208 C   0  0  0  0  0  0
  -23.6296   -8.2212   22.0761 C   0  0  0  0  0  0
  -22.4274   -8.0273   21.3554 C   0  0  0  0  0  0
  -21.9911   -9.0244   20.4652 C   0  0  0  0  0  0
  -22.7242  -10.2128   20.3071 C   0  0  0  0  0  0
  -21.6839   -6.0739   22.5279 C   0  0  0  0  0  0
  -21.4002   -6.5640   23.8220 C   0  0  0  0  0  0
  -21.3660   -5.6790   24.9179 C   0  0  0  0  0  0
  -21.6055   -4.3057   24.7231 C   0  0  0  0  0  0
  -21.8807   -3.8147   23.4349 C   0  0  0  0  0  0
  -21.9173   -4.6963   22.3401 C   0  0  0  0  0  0
  -22.7799  -13.5209   21.1874 C   0  0  0  0  0  0
  -22.1650   -4.2164   21.0982 F   0  0  0  0  0  0
  -21.5628   -3.4524   25.7742 F   0  0  0  0  0  0
  -29.9864  -13.5239   20.4099 N   0  0  0  0  0  0
  -26.2913  -12.9385   20.3270 N   0  0  0  0  0  0
  -25.9311  -11.6530   20.5775 N   0  0  0  0  0  0
  -22.0425  -12.8224   22.0454 N   0  0  0  0  0  0
  -25.4133  -15.1933   20.4135 N   0  0  0  0  0  0
  -31.7202  -14.9286   20.0515 O   0  0  0  0  0  0
  -21.6619   -6.8883   21.4246 O   0  0  0  0  0  0
  -22.3466  -14.5489   20.6668 O   0  0  0  0  0  0
  -24.6280  -31.8587   23.2010 C   0  0  0  0  0  0
  -25.9107  -32.4795   23.8349 C   0  0  1  0  0  0
  -27.1901  -27.2663   20.1215 C   0  0  0  0  0  0
  -25.5921  -33.8597   24.2269 N   0  0  0  0  0  0
  -23.4253  -30.4874   21.5447 C   0  0  2  0  0  0
  -24.8702  -28.9515   20.1062 C   0  0  0  0  0  0
  -22.7492  -29.4640   22.4893 C   0  0  0  0  0  0
  -18.0310  -28.1409   22.8505 C   0  0  0  0  0  0
  -24.1492  -36.7277   23.2630 C   0  0  0  0  0  0
  -25.9752  -30.7753   21.3870 C   0  0  0  0  0  0
  -26.0424  -29.4016   20.7231 C   0  0  0  0  0  0
  -27.2099  -28.5691   20.7238 C   0  0  0  0  0  0
  -26.0025  -26.9124   19.4430 C   0  0  0  0  0  0
  -24.8519  -27.7153   19.4577 C   0  0  0  0  0  0
  -23.6467  -29.8396   20.1556 C   0  0  0  0  0  0
  -25.4119  -36.3092   24.0326 C   0  0  1  0  0  0
  -20.5912  -28.3710   23.1290 C   0  0  2  0  0  0
  -20.6797  -26.9440   22.5389 C   0  0  0  0  0  0
  -19.5777  -26.6415   21.5200 C   0  0  0  0  0  0
  -18.1962  -26.7962   22.1620 C   0  0  0  0  0  0
  -19.1556  -28.8880   23.2898 C   0  0  0  0  0  0
  -18.9475  -30.1493   23.8919 C   0  0  0  0  0  0
  -17.6465  -30.6608   24.0602 C   0  0  0  0  0  0
  -25.9046  -34.9471   23.5079 C   0  0  0  0  0  0
  -16.5360  -29.9109   23.6351 C   0  0  0  0  0  0
  -16.7299  -28.6530   23.0358 C   0  0  0  0  0  0
  -26.4489  -31.6619   25.0731 C   0  0  0  0  0  0
  -25.3716  -31.3771   26.1451 C   0  0  0  0  0  0
  -27.0301  -30.3025   24.6206 C   0  0  0  0  0  0
  -27.6065  -32.4326   25.7510 C   0  0  0  0  0  0
  -27.5580  -37.1798   24.8463 C   0  0  0  0  0  0
  -21.4189  -29.3058   22.3663 N   0  0  0  0  0  0
  -26.4288  -37.3795   23.9414 N   0  0  0  0  0  0
  -24.6957  -31.0560   22.1021 N   0  0  0  0  0  0
  -23.4190  -28.8172   23.2979 O   0  0  0  0  0  0
  -28.2460  -26.3252   20.2005 O   0  0  0  0  0  0
  -26.5587  -34.8939   22.4636 O   0  0  0  0  0  0
  -23.5415  -32.1422   23.7277 O   0  0  0  0  0  0
  -31.1903  -20.8092   21.5304 C   0  0  0  0  0  0
  -32.2483  -20.2699   22.2728 C   0  0  0  0  0  0
  -31.4256  -18.0487   21.7965 C   0  0  0  0  0  0
  -30.1993  -20.0132   20.8959 C   0  0  0  0  0  0
  -30.3765  -18.5357   20.9755 C   0  0  0  0  0  0
  -32.3493  -18.8875   22.4344 C   0  0  0  0  0  0
  -27.2227  -24.6984   21.7779 C   0  0  0  0  0  0
  -26.6324  -23.2877   21.8574 C   0  0  0  0  0  0
  -28.9186  -23.6534   20.1249 C   0  0  0  0  0  0
  -27.8868  -24.8689   20.4069 C   0  0  1  0  0  0
  -27.7006  -22.1736   21.8989 C   0  0  2  0  0  0
  -28.3218  -22.0853   23.3040 C   0  0  0  0  0  0
  -29.6785  -17.3496   20.1788 C   0  0  0  0  0  0
  -29.1276  -20.9425   20.1612 C   0  0  0  0  0  0
  -29.7109  -15.8707   20.6471 N   0  0  0  0  0  0
  -28.7751  -22.2888   20.8610 N   0  3  1  0  0  0
  -33.6327  -18.2226   23.3747 Cl  0  0  0  0  0  0
  -31.4799  -12.6182   19.1527 H   0  0  0  0  0  0
  -30.4162  -11.4879   19.9431 H   0  0  0  0  0  0
  -29.7982  -11.7297   17.5212 H   0  0  0  0  0  0
  -29.6230  -13.4583   17.7131 H   0  0  0  0  0  0
  -27.9368  -11.2656   18.9629 H   0  0  0  0  0  0
  -27.3703  -12.4445   17.8157 H   0  0  0  0  0  0
  -27.6396  -14.2421   19.4628 H   0  0  0  0  0  0
  -28.7327  -12.1442   21.4113 H   0  0  0  0  0  0
  -28.4150  -13.8121   21.8064 H   0  0  0  0  0  0
  -25.2761   -9.5641   22.4783 H   0  0  0  0  0  0
  -23.9998   -7.4592   22.7477 H   0  0  0  0  0  0
  -21.0824   -8.8754   19.8968 H   0  0  0  0  0  0
  -22.3692  -10.9667   19.6181 H   0  0  0  0  0  0
  -21.1999   -7.6145   23.9743 H   0  0  0  0  0  0
  -21.1500   -6.0515   25.9101 H   0  0  0  0  0  0
  -22.0591   -2.7605   23.2832 H   0  0  0  0  0  0
  -22.3988  -11.9906   22.4923 H   0  0  0  0  0  0
  -21.1046  -13.1288   22.2663 H   0  0  0  0  0  0
  -24.6350  -15.8341   20.5239 H   0  0  0  0  0  0
  -26.2404  -15.6408   20.0418 H   0  0  0  0  0  0
  -26.7190  -32.5464   23.1111 H   0  0  0  0  0  0
  -25.0153  -33.9768   25.0472 H   0  0  0  0  0  0
  -22.7253  -31.3122   21.4025 H   0  0  0  0  0  0
  -23.3774  -35.9586   23.3285 H   0  0  0  0  0  0
  -24.3583  -36.8879   22.2039 H   0  0  0  0  0  0
  -23.7224  -37.6465   23.6660 H   0  0  0  0  0  0
  -26.1069  -31.5439   20.6232 H   0  0  0  0  0  0
  -26.8533  -30.8248   22.0199 H   0  0  0  0  0  0
  -28.1022  -28.8945   21.2379 H   0  0  0  0  0  0
  -25.9037  -25.9956   18.8905 H   0  0  0  0  0  0
  -23.9611  -27.3741   18.9511 H   0  0  0  0  0  0
  -23.7866  -30.6252   19.4120 H   0  0  0  0  0  0
  -22.7672  -29.2797   19.8335 H   0  0  0  0  0  0
  -25.1309  -36.1923   25.0818 H   0  0  0  0  0  0
  -21.0026  -28.3257   24.1401 H   0  0  0  0  0  0
  -20.5703  -26.2299   23.3550 H   0  0  0  0  0  0
  -21.6672  -26.7477   22.1190 H   0  0  0  0  0  0
  -19.6914  -25.6319   21.1241 H   0  0  0  0  0  0
  -19.6734  -27.3230   20.6738 H   0  0  0  0  0  0
  -17.4214  -26.6743   21.4030 H   0  0  0  0  0  0
  -18.0392  -26.0087   22.9004 H   0  0  0  0  0  0
  -19.7933  -30.7345   24.2252 H   0  0  0  0  0  0
  -17.5006  -31.6298   24.5195 H   0  0  0  0  0  0
  -15.5360  -30.3019   23.7659 H   0  0  0  0  0  0
  -15.8695  -28.0875   22.7017 H   0  0  0  0  0  0
  -24.5964  -30.7019   25.7807 H   0  0  0  0  0  0
  -24.8826  -32.2932   26.4777 H   0  0  0  0  0  0
  -25.8047  -30.9062   27.0285 H   0  0  0  0  0  0
  -26.2873  -29.6831   24.1167 H   0  0  0  0  0  0
  -27.3896  -29.7240   25.4723 H   0  0  0  0  0  0
  -27.8812  -30.4279   23.9509 H   0  0  0  0  0  0
  -27.2715  -33.3657   26.2059 H   0  0  0  0  0  0
  -28.3922  -32.6801   25.0360 H   0  0  0  0  0  0
  -28.0697  -31.8443   26.5443 H   0  0  0  0  0  0
  -28.2589  -38.0105   24.7521 H   0  0  0  0  0  0
  -28.1076  -36.2624   24.6291 H   0  0  0  0  0  0
  -27.2281  -37.1444   25.8861 H   0  0  0  0  0  0
  -20.9293  -29.8763   21.6910 H   0  0  0  0  0  0
  -26.0147  -38.2844   24.1470 H   0  0  0  0  0  0
  -31.1756  -21.8869   21.4499 H   0  0  0  0  0  0
  -32.9859  -20.9248   22.7118 H   0  0  0  0  0  0
  -31.5850  -16.9888   21.9011 H   0  0  0  0  0  0
  -27.9288  -24.8976   22.5833 H   0  0  0  0  0  0
  -26.4107  -25.4155   21.9002 H   0  0  0  0  0  0
  -25.9702  -23.1309   21.0050 H   0  0  0  0  0  0
  -25.9837  -23.2087   22.7320 H   0  0  0  0  0  0
  -29.9266  -24.0093   20.3322 H   0  0  0  0  0  0
  -28.9011  -23.4706   19.0525 H   0  0  0  0  0  0
  -27.1117  -24.6278   19.6898 H   0  0  0  0  0  0
  -27.1545  -21.2402   21.7419 H   0  0  0  0  0  0
  -27.5421  -22.0720   24.0672 H   0  0  0  0  0  0
  -28.9737  -22.9335   23.5193 H   0  0  0  0  0  0
  -28.8983  -21.1685   23.4343 H   0  0  0  0  0  0
  -30.0932  -17.3752   19.1686 H   0  0  0  0  0  0
  -28.6321  -17.6296   20.0479 H   0  0  0  0  0  0
  -28.2233  -20.3738   19.9463 H   0  0  0  0  0  0
  -29.5411  -21.1898   19.1841 H   0  0  0  0  0  0
  -28.8076  -15.5677   20.9791 H   0  0  0  0  0  0
  -29.5812  -22.3607   21.4627 H   0  0  0  0  0  0
  1 25  1  0  0  0
  1 30  2  0  0  0
  1 85  1  0  0  0
  2  3  1  0  0  0
  2 25  1  0  0  0
  2 88  1  0  0  0
  2 89  1  0  0  0
  3  4  1  0  0  0
  3 90  1  0  0  0
  3 91  1  0  0  0
  4  5  1  0  0  0
  4 92  1  0  0  0
  4 93  1  0  0  0
  5  6  1  0  0  0
  5 26  1  0  0  0
  5 94  1  0  0  0
  6 25  1  0  0  0
  6 95  1  0  0  0
  6 96  1  0  0  0
  7  8  2  0  0  0
  7 26  1  0  0  0
  7 29  1  0  0  0
  8  9  1  0  0  0
  8 22  1  0  0  0
  9 10  1  0  0  0
  9 27  2  0  0  0
 10 11  2  0  0  0
 10 15  1  0  0  0
 11 12  1  0  0  0
 11 97  1  0  0  0
 12 13  2  0  0  0
 12 98  1  0  0  0
 13 14  1  0  0  0
 13 31  1  0  0  0
 14 15  2  0  0  0
 14 99  1  0  0  0
 15100  1  0  0  0
 16 17  2  0  0  0
 16 21  1  0  0  0
 16 31  1  0  0  0
 17 18  1  0  0  0
 17101  1  0  0  0
 18 19  2  0  0  0
 18102  1  0  0  0
 19 20  1  0  0  0
 19 24  1  0  0  0
 20 21  2  0  0  0
 20103  1  0  0  0
 21 23  1  0  0  0
 22 28  1  0  0  0
 22 32  2  0  0  0
 26 27  1  0  0  0
 28104  1  0  0  0
 28105  1  0  0  0
 29106  1  0  0  0
 29107  1  0  0  0
 33 34  1  0  0  0
 33 66  1  0  0  0
 33 70  2  0  0  0
 34 36  1  0  0  0
 34 59  1  0  0  0
 34108  1  0  0  0
 35 44  2  0  0  0
 35 45  1  0  0  0
 35 68  1  0  0  0
 36 56  1  0  0  0
 36109  1  0  0  0
 37 39  1  0  0  0
 37 47  1  0  0  0
 37 66  1  0  0  0
 37110  1  0  0  0
 38 43  2  0  0  0
 38 46  1  0  0  0
 38 47  1  0  0  0
 39 64  1  0  0  0
 39 67  2  0  0  0
 40 52  1  0  0  0
 40 53  2  0  0  0
 40 58  1  0  0  0
 41111  1  0  0  0
 41112  1  0  0  0
 41113  1  0  0  0
 41 48  1  0  0  0
 42 43  1  0  0  0
 42 66  1  0  0  0
 42114  1  0  0  0
 42115  1  0  0  0
 43 44  1  0  0  0
 44116  1  0  0  0
 45 46  2  0  0  0
 45117  1  0  0  0
 46118  1  0  0  0
 47119  1  0  0  0
 47120  1  0  0  0
 48 56  1  0  0  0
 48 65  1  0  0  0
 48121  1  0  0  0
 49 50  1  0  0  0
 49 53  1  0  0  0
 49 64  1  0  0  0
 49122  1  0  0  0
 50 51  1  0  0  0
 50123  1  0  0  0
 50124  1  0  0  0
 51 52  1  0  0  0
 51125  1  0  0  0
 51126  1  0  0  0
 52127  1  0  0  0
 52128  1  0  0  0
 53 54  1  0  0  0
 54 55  2  0  0  0
 54129  1  0  0  0
 55 57  1  0  0  0
 55130  1  0  0  0
 56 69  2  0  0  0
 57 58  2  0  0  0
 57131  1  0  0  0
 58132  1  0  0  0
 59 60  1  0  0  0
 59 61  1  0  0  0
 59 62  1  0  0  0
 60133  1  0  0  0
 60134  1  0  0  0
 60135  1  0  0  0
 61136  1  0  0  0
 61137  1  0  0  0
 61138  1  0  0  0
 62139  1  0  0  0
 62140  1  0  0  0
 62141  1  0  0  0
 63 65  1  0  0  0
 63142  1  0  0  0
 63143  1  0  0  0
 63144  1  0  0  0
 64145  1  0  0  0
 65146  1  0  0  0
 68 80  1  0  0  0
 71 72  2  0  0  0
 71 74  1  0  0  0
 71147  1  0  0  0
 72 76  1  0  0  0
 72148  1  0  0  0
 73 75  1  0  0  0
 73 76  2  0  0  0
 73149  1  0  0  0
 74 75  2  0  0  0
 74 84  1  0  0  0
 75 83  1  0  0  0
 76 87  1  0  0  0
 77 78  1  0  0  0
 77 80  1  0  0  0
 77150  1  0  0  0
 77151  1  0  0  0
 78 81  1  0  0  0
 78152  1  0  0  0
 78153  1  0  0  0
 79 80  1  0  0  0
 79 86  1  0  0  0
 79154  1  0  0  0
 79155  1  0  0  0
 80156  1  0  0  0
 81 82  1  0  0  0
 81 86  1  0  0  0
 81157  1  0  0  0
 82158  1  0  0  0
 82159  1  0  0  0
 82160  1  0  0  0
 83 85  1  0  0  0
 83161  1  0  0  0
 83162  1  0  0  0
 84163  1  0  0  0
 84164  1  0  0  0
 84 86  1  0  0  0
 85165  1  0  0  0
 86166  1  0  0  0
M  CHG  1  86   1
M  ISO  4   1 100  68 101  80 101  85 100
M  END
> <chiral flag>
0

> <version>
0

> <s_m_source_file>
/data/baiqing/PycharmProjects/Reinvent-master-3.2/result/LINK_invent/BTK/process_docking_weight1_custom_product_contain_oxygen_bond_distance_aromatic_linkinvent_7_9_3/rearranged_h_0035.sdf

> <i_m_source_file_index>
83

> <r_mmod_Potential_Energy-OPLS-2005>
201.930847167969

> <r_mmod_Stretch_Energy-OPLS-2005>
149.878463745117

> <r_mmod_Bend_Energy-OPLS-2005>
236.365295410156

> <r_mmod_Torsional_Energy-OPLS-2005>
278.075164794922

> <r_mmod_Improper_Torsional_Energy-OPLS-2005>
6.7991623878479

> <r_mmod_Van_der_Waal_Energy-OPLS-2005>
147.309936523438

> <r_mmod_Electrostatic_Energy-OPLS-2005>
-275.943756103516

> <r_mmod_Solvation_Energy-OPLS-2005>
-442.701782226562

> <b_mmod_Minimization_Converged-OPLS-2005>
0

> <r_mmod_RMS_Derivative-OPLS-2005>
4.97173309326172

$$$$
84
                    3D
 Structure written by MMmdl.
169178  0  0  1  0            999 V2000
  -30.5912  -14.7676   20.4421 C   0  0  0  0  0  0
  -30.4406  -12.4452   19.5153 C   0  0  0  0  0  0
  -29.5283  -12.4576   18.2672 C   0  0  0  0  0  0
  -28.0420  -12.3186   18.6652 C   0  0  0  0  0  0
  -27.6368  -13.2029   19.8796 C   0  0  2  0  0  0
  -28.6901  -13.1566   21.0117 C   0  0  0  0  0  0
  -25.2475  -13.8089   20.5734 C   0  0  0  0  0  0
  -24.1739  -13.0375   20.9187 C   0  0  0  0  0  0
  -24.6305  -11.6836   20.8792 C   0  0  0  0  0  0
  -23.9002  -10.4237   21.0453 C   0  0  0  0  0  0
  -24.3583   -9.4144   21.9212 C   0  0  0  0  0  0
  -23.6258   -8.2178   22.0763 C   0  0  0  0  0  0
  -22.4254   -8.0221   21.3529 C   0  0  0  0  0  0
  -21.9880   -9.0197   20.4642 C   0  0  0  0  0  0
  -22.7190  -10.2076   20.3061 C   0  0  0  0  0  0
  -21.6810   -6.0695   22.5272 C   0  0  0  0  0  0
  -21.3992   -6.5607   23.8206 C   0  0  0  0  0  0
  -21.3681   -5.6776   24.9176 C   0  0  0  0  0  0
  -21.6051   -4.3032   24.7231 C   0  0  0  0  0  0
  -21.8822   -3.8119   23.4357 C   0  0  0  0  0  0
  -21.9176   -4.6925   22.3407 C   0  0  0  0  0  0
  -22.7771  -13.5188   21.1847 C   0  0  0  0  0  0
  -22.1650   -4.2114   21.0982 F   0  0  0  0  0  0
  -21.5644   -3.4516   25.7755 F   0  0  0  0  0  0
  -29.9948  -13.5200   20.4348 N   0  0  0  0  0  0
  -26.2897  -12.9200   20.3495 N   0  0  0  0  0  0
  -25.9242  -11.6387   20.5917 N   0  0  0  0  0  0
  -22.0458  -12.8186   22.0432 N   0  0  0  0  0  0
  -25.4162  -15.1839   20.4174 N   0  0  0  0  0  0
  -31.7580  -14.8913   20.0565 O   0  0  0  0  0  0
  -21.6601   -6.8828   21.4236 O   0  0  0  0  0  0
  -22.3481  -14.5511   20.6700 O   0  0  0  0  0  0
  -24.6313  -31.8539   23.2003 C   0  0  0  0  0  0
  -25.9112  -32.4749   23.8383 C   0  0  1  0  0  0
  -27.2279  -27.2576   20.1492 C   0  0  0  0  0  0
  -25.5906  -33.8551   24.2289 N   0  0  0  0  0  0
  -23.4290  -30.4782   21.5442 C   0  0  2  0  0  0
  -24.8828  -28.9281   20.1138 C   0  0  0  0  0  0
  -22.7548  -29.4581   22.4932 C   0  0  0  0  0  0
  -18.0329  -28.1341   22.8574 C   0  0  0  0  0  0
  -24.1485  -36.7296   23.2643 C   0  0  0  0  0  0
  -25.9779  -30.7737   21.3816 C   0  0  0  0  0  0
  -26.0534  -29.3950   20.7244 C   0  0  0  0  0  0
  -27.2296  -28.5740   20.7277 C   0  0  0  0  0  0
  -26.0333  -26.8671   19.4959 C   0  0  0  0  0  0
  -24.8788  -27.6744   19.4878 C   0  0  0  0  0  0
  -23.6516  -29.8112   20.1597 C   0  0  0  0  0  0
  -25.4105  -36.3068   24.0339 C   0  0  1  0  0  0
  -20.5937  -28.3712   23.1374 C   0  0  2  0  0  0
  -20.6847  -26.9495   22.5435 C   0  0  0  0  0  0
  -19.5817  -26.6494   21.5207 C   0  0  0  0  0  0
  -18.2006  -26.7913   22.1674 C   0  0  0  0  0  0
  -19.1587  -28.8814   23.2979 C   0  0  0  0  0  0
  -18.9519  -30.1397   23.9015 C   0  0  0  0  0  0
  -17.6527  -30.6602   24.0553 C   0  0  0  0  0  0
  -25.9036  -34.9432   23.5089 C   0  0  0  0  0  0
  -16.5419  -29.9067   23.6396 C   0  0  0  0  0  0
  -16.7303  -28.6408   23.0512 C   0  0  0  0  0  0
  -26.4493  -31.6580   25.0779 C   0  0  0  0  0  0
  -25.3715  -31.3695   26.1501 C   0  0  0  0  0  0
  -27.0341  -30.2998   24.6262 C   0  0  0  0  0  0
  -27.6046  -32.4360   25.7521 C   0  0  0  0  0  0
  -27.5576  -37.1811   24.8460 C   0  0  0  0  0  0
  -21.4223  -29.3138   22.3823 N   0  0  0  0  0  0
  -26.4285  -37.3767   23.9386 N   0  0  0  0  0  0
  -24.6977  -31.0523   22.0959 N   0  0  0  0  0  0
  -23.4279  -28.8040   23.2924 O   0  0  0  0  0  0
  -28.3187  -26.3503   20.2423 O   0  0  0  0  0  0
  -26.5625  -34.8891   22.4679 O   0  0  0  0  0  0
  -23.5458  -32.1346   23.7320 O   0  0  0  0  0  0
  -28.8775  -19.8033   19.0640 C   0  0  0  0  0  0
  -29.9177  -18.4851   20.8183 C   0  0  0  0  0  0
  -29.5622  -19.7950   20.2826 C   0  0  0  0  0  0
  -28.5538  -18.6209   18.3827 C   0  0  0  0  0  0
  -28.9801  -17.3482   18.8658 C   0  0  0  0  0  0
  -29.6456  -17.2246   20.1342 C   0  0  0  0  0  0
  -26.6878  -23.1573   21.7153 C   0  0  0  0  0  0
  -27.2970  -24.5825   21.6905 C   0  0  0  0  0  0
  -27.5347  -22.0571   21.0216 C   0  0  0  0  0  0
  -29.2554  -23.7667   20.3396 C   0  0  0  0  0  0
  -28.0623  -24.8639   20.3851 C   0  0  2  0  0  0
  -27.7372  -18.8172   17.1099 C   0  0  0  0  0  0
  -29.6106  -16.1310   16.7195 C   0  0  0  0  0  0
  -28.7252  -16.1426   17.9706 C   0  0  0  0  0  0
  -29.9663  -21.2207   20.8655 C   0  0  0  0  0  0
  -29.8140  -15.8761   20.7668 N   0  0  0  0  0  0
  -28.9744  -22.4008   21.0106 N   0  3  2  0  0  0
  -31.4836  -12.5649   19.2194 H   0  0  0  0  0  0
  -30.3822  -11.4781   20.0172 H   0  0  0  0  0  0
  -29.8080  -11.6435   17.5984 H   0  0  0  0  0  0
  -29.7004  -13.3642   17.6915 H   0  0  0  0  0  0
  -27.8802  -11.2686   18.9119 H   0  0  0  0  0  0
  -27.3990  -12.5196   17.8079 H   0  0  0  0  0  0
  -27.5827  -14.2210   19.5259 H   0  0  0  0  0  0
  -28.7331  -12.1592   21.4527 H   0  0  0  0  0  0
  -28.4182  -13.8304   21.8251 H   0  0  0  0  0  0
  -25.2756   -9.5594   22.4736 H   0  0  0  0  0  0
  -23.9952   -7.4560   22.7478 H   0  0  0  0  0  0
  -21.0798   -8.8668   19.8970 H   0  0  0  0  0  0
  -22.3650  -10.9577   19.6119 H   0  0  0  0  0  0
  -21.1957   -7.6113   23.9668 H   0  0  0  0  0  0
  -21.1537   -6.0534   25.9075 H   0  0  0  0  0  0
  -22.0599   -2.7575   23.2869 H   0  0  0  0  0  0
  -22.4146  -11.9869   22.4815 H   0  0  0  0  0  0
  -21.1077  -13.1153   22.2694 H   0  0  0  0  0  0
  -24.6405  -15.8267   20.5251 H   0  0  0  0  0  0
  -26.2744  -15.6461   20.1515 H   0  0  0  0  0  0
  -26.7214  -32.5416   23.1172 H   0  0  0  0  0  0
  -25.0040  -33.9694   25.0429 H   0  0  0  0  0  0
  -22.7237  -31.3000   21.4011 H   0  0  0  0  0  0
  -23.3729  -35.9648   23.3308 H   0  0  0  0  0  0
  -24.3583  -36.8911   22.2056 H   0  0  0  0  0  0
  -23.7277  -37.6513   23.6667 H   0  0  0  0  0  0
  -26.1157  -31.5362   20.6129 H   0  0  0  0  0  0
  -26.8545  -30.8221   22.0165 H   0  0  0  0  0  0
  -28.1193  -28.9177   21.2359 H   0  0  0  0  0  0
  -25.9476  -25.9115   19.0050 H   0  0  0  0  0  0
  -23.9807  -27.3128   19.0058 H   0  0  0  0  0  0
  -23.7722  -30.5885   19.4042 H   0  0  0  0  0  0
  -22.7720  -29.2384   19.8580 H   0  0  0  0  0  0
  -25.1299  -36.1939   25.0846 H   0  0  0  0  0  0
  -21.0100  -28.3211   24.1476 H   0  0  0  0  0  0
  -20.5854  -26.2274   23.3566 H   0  0  0  0  0  0
  -21.6751  -26.7618   22.1270 H   0  0  0  0  0  0
  -19.7040  -25.6455   21.1077 H   0  0  0  0  0  0
  -19.6716  -27.3394   20.6810 H   0  0  0  0  0  0
  -17.4309  -26.6624   21.4050 H   0  0  0  0  0  0
  -18.0483  -26.0039   22.9096 H   0  0  0  0  0  0
  -19.7973  -30.7176   24.2500 H   0  0  0  0  0  0
  -17.5204  -31.6325   24.5108 H   0  0  0  0  0  0
  -15.5469  -30.3024   23.7746 H   0  0  0  0  0  0
  -15.8733  -28.0593   22.7399 H   0  0  0  0  0  0
  -24.5922  -30.7015   25.7804 H   0  0  0  0  0  0
  -24.8889  -32.2840   26.4956 H   0  0  0  0  0  0
  -25.8061  -30.8861   27.0260 H   0  0  0  0  0  0
  -26.2917  -29.6760   24.1269 H   0  0  0  0  0  0
  -27.3963  -29.7272   25.4806 H   0  0  0  0  0  0
  -27.8821  -30.4243   23.9525 H   0  0  0  0  0  0
  -27.2624  -33.3656   26.2076 H   0  0  0  0  0  0
  -28.3824  -32.6933   25.0318 H   0  0  0  0  0  0
  -28.0752  -31.8534   26.5452 H   0  0  0  0  0  0
  -28.2588  -38.0113   24.7496 H   0  0  0  0  0  0
  -28.1077  -36.2641   24.6303 H   0  0  0  0  0  0
  -27.2279  -37.1482   25.8859 H   0  0  0  0  0  0
  -20.9356  -29.9165   21.7337 H   0  0  0  0  0  0
  -26.0162  -38.2827   24.1408 H   0  0  0  0  0  0
  -28.6077  -20.7484   18.6167 H   0  0  0  0  0  0
  -30.4247  -18.4455   21.7727 H   0  0  0  0  0  0
  -25.7086  -23.1839   21.2362 H   0  0  0  0  0  0
  -26.4976  -22.8766   22.7513 H   0  0  0  0  0  0
  -27.9756  -24.7006   22.5349 H   0  0  0  0  0  0
  -26.5064  -25.3133   21.8544 H   0  0  0  0  0  0
  -27.1913  -21.9140   19.9971 H   0  0  0  0  0  0
  -27.3853  -21.1076   21.5402 H   0  0  0  0  0  0
  -30.1327  -24.1896   20.8293 H   0  0  0  0  0  0
  -29.5339  -23.5884   19.3001 H   0  0  0  0  0  0
  -27.4160  -24.5702   19.5602 H   0  0  0  0  0  0
  -26.8671  -19.4328   17.3365 H   0  0  0  0  0  0
  -27.3448  -17.9032   16.6684 H   0  0  0  0  0  0
  -28.3245  -19.3445   16.3538 H   0  0  0  0  0  0
  -29.4536  -15.2214   16.1406 H   0  0  0  0  0  0
  -30.6624  -16.1674   17.0030 H   0  0  0  0  0  0
  -29.4151  -16.9765   16.0636 H   0  0  0  0  0  0
  -27.6642  -16.0604   17.7374 H   0  0  0  0  0  0
  -28.9648  -15.2354   18.4817 H   0  0  0  0  0  0
  -30.8194  -21.5696   20.2817 H   0  0  0  0  0  0
  -30.3717  -21.0451   21.8617 H   0  0  0  0  0  0
  -28.9898  -15.5963   21.2791 H   0  0  0  0  0  0
  -29.1239  -22.6185   21.9870 H   0  0  0  0  0  0
  1 25  1  0  0  0
  1 30  2  0  0  0
  1 86  1  0  0  0
  2  3  1  0  0  0
  2 25  1  0  0  0
  2 88  1  0  0  0
  2 89  1  0  0  0
  3  4  1  0  0  0
  3 90  1  0  0  0
  3 91  1  0  0  0
  4  5  1  0  0  0
  4 92  1  0  0  0
  4 93  1  0  0  0
  5  6  1  0  0  0
  5 26  1  0  0  0
  5 94  1  0  0  0
  6 25  1  0  0  0
  6 95  1  0  0  0
  6 96  1  0  0  0
  7  8  2  0  0  0
  7 26  1  0  0  0
  7 29  1  0  0  0
  8  9  1  0  0  0
  8 22  1  0  0  0
  9 10  1  0  0  0
  9 27  2  0  0  0
 10 11  2  0  0  0
 10 15  1  0  0  0
 11 12  1  0  0  0
 11 97  1  0  0  0
 12 13  2  0  0  0
 12 98  1  0  0  0
 13 14  1  0  0  0
 13 31  1  0  0  0
 14 15  2  0  0  0
 14 99  1  0  0  0
 15100  1  0  0  0
 16 17  2  0  0  0
 16 21  1  0  0  0
 16 31  1  0  0  0
 17 18  1  0  0  0
 17101  1  0  0  0
 18 19  2  0  0  0
 18102  1  0  0  0
 19 20  1  0  0  0
 19 24  1  0  0  0
 20 21  2  0  0  0
 20103  1  0  0  0
 21 23  1  0  0  0
 22 28  1  0  0  0
 22 32  2  0  0  0
 26 27  1  0  0  0
 28104  1  0  0  0
 28105  1  0  0  0
 29106  1  0  0  0
 29107  1  0  0  0
 33 34  1  0  0  0
 33 66  1  0  0  0
 33 70  2  0  0  0
 34 36  1  0  0  0
 34 59  1  0  0  0
 34108  1  0  0  0
 35 44  2  0  0  0
 35 45  1  0  0  0
 35 68  1  0  0  0
 36 56  1  0  0  0
 36109  1  0  0  0
 37 39  1  0  0  0
 37 47  1  0  0  0
 37 66  1  0  0  0
 37110  1  0  0  0
 38 43  2  0  0  0
 38 46  1  0  0  0
 38 47  1  0  0  0
 39 64  1  0  0  0
 39 67  2  0  0  0
 40 52  1  0  0  0
 40 53  2  0  0  0
 40 58  1  0  0  0
 41111  1  0  0  0
 41112  1  0  0  0
 41113  1  0  0  0
 41 48  1  0  0  0
 42 43  1  0  0  0
 42 66  1  0  0  0
 42114  1  0  0  0
 42115  1  0  0  0
 43 44  1  0  0  0
 44116  1  0  0  0
 45 46  2  0  0  0
 45117  1  0  0  0
 46118  1  0  0  0
 47119  1  0  0  0
 47120  1  0  0  0
 48 56  1  0  0  0
 48 65  1  0  0  0
 48121  1  0  0  0
 49 50  1  0  0  0
 49 53  1  0  0  0
 49 64  1  0  0  0
 49122  1  0  0  0
 50 51  1  0  0  0
 50123  1  0  0  0
 50124  1  0  0  0
 51 52  1  0  0  0
 51125  1  0  0  0
 51126  1  0  0  0
 52127  1  0  0  0
 52128  1  0  0  0
 53 54  1  0  0  0
 54 55  2  0  0  0
 54129  1  0  0  0
 55 57  1  0  0  0
 55130  1  0  0  0
 56 69  2  0  0  0
 57 58  2  0  0  0
 57131  1  0  0  0
 58132  1  0  0  0
 59 60  1  0  0  0
 59 61  1  0  0  0
 59 62  1  0  0  0
 60133  1  0  0  0
 60134  1  0  0  0
 60135  1  0  0  0
 61136  1  0  0  0
 61137  1  0  0  0
 61138  1  0  0  0
 62139  1  0  0  0
 62140  1  0  0  0
 62141  1  0  0  0
 63 65  1  0  0  0
 63142  1  0  0  0
 63143  1  0  0  0
 63144  1  0  0  0
 64145  1  0  0  0
 65146  1  0  0  0
 68 81  1  0  0  0
 71 73  2  0  0  0
 71 74  1  0  0  0
 71147  1  0  0  0
 72 73  1  0  0  0
 72 76  2  0  0  0
 72148  1  0  0  0
 73 85  1  0  0  0
 74 75  2  0  0  0
 74 82  1  0  0  0
 75 76  1  0  0  0
 75 84  1  0  0  0
 76 86  1  0  0  0
 77 78  1  0  0  0
 77 79  1  0  0  0
 77149  1  0  0  0
 77150  1  0  0  0
 78 81  1  0  0  0
 78151  1  0  0  0
 78152  1  0  0  0
 79 87  1  0  0  0
 79153  1  0  0  0
 79154  1  0  0  0
 80 81  1  0  0  0
 80 87  1  0  0  0
 80155  1  0  0  0
 80156  1  0  0  0
 81157  1  0  0  0
 82158  1  0  0  0
 82159  1  0  0  0
 82160  1  0  0  0
 83 84  1  0  0  0
 83161  1  0  0  0
 83162  1  0  0  0
 83163  1  0  0  0
 84164  1  0  0  0
 84165  1  0  0  0
 85166  1  0  0  0
 85167  1  0  0  0
 85 87  1  0  0  0
 86168  1  0  0  0
 87169  1  0  0  0
M  CHG  1  87   1
M  ISO  4   1 100  68 101  81 101  86 100
M  END
> <chiral flag>
0

> <version>
0

> <s_m_source_file>
/data/baiqing/PycharmProjects/Reinvent-master-3.2/result/LINK_invent/BTK/process_docking_weight1_custom_product_contain_oxygen_bond_distance_aromatic_linkinvent_7_9_3/rearranged_h_0035.sdf

> <i_m_source_file_index>
84

> <r_mmod_Potential_Energy-OPLS-2005>
203.718795776367

> <r_mmod_Stretch_Energy-OPLS-2005>
139.463684082031

> <r_mmod_Bend_Energy-OPLS-2005>
195.524383544922

> <r_mmod_Torsional_Energy-OPLS-2005>
317.413391113281

> <r_mmod_Improper_Torsional_Energy-OPLS-2005>
6.00077533721924

> <r_mmod_Van_der_Waal_Energy-OPLS-2005>
151.365707397461

> <r_mmod_Electrostatic_Energy-OPLS-2005>
-273.530242919922

> <r_mmod_Solvation_Energy-OPLS-2005>
-427.311370849609

> <b_mmod_Minimization_Converged-OPLS-2005>
0

> <r_mmod_RMS_Derivative-OPLS-2005>
5.78579473495483

$$$$
85
                    3D
 Structure written by MMmdl.
170179  0  0  1  0            999 V2000
  -30.5680  -14.7937   20.4467 C   0  0  0  0  0  0
  -30.4392  -12.4813   19.4832 C   0  0  0  0  0  0
  -29.5149  -12.5117   18.2440 C   0  0  0  0  0  0
  -28.0416  -12.3260   18.6565 C   0  0  0  0  0  0
  -27.6410  -13.2303   19.8519 C   0  0  2  0  0  0
  -28.6839  -13.1720   20.9899 C   0  0  0  0  0  0
  -25.2505  -13.8189   20.5692 C   0  0  0  0  0  0
  -24.1799  -13.0436   20.9211 C   0  0  0  0  0  0
  -24.6391  -11.6914   20.8752 C   0  0  0  0  0  0
  -23.9070  -10.4292   21.0411 C   0  0  0  0  0  0
  -24.3620   -9.4206   21.9188 C   0  0  0  0  0  0
  -23.6295   -8.2241   22.0756 C   0  0  0  0  0  0
  -22.4277   -8.0281   21.3544 C   0  0  0  0  0  0
  -21.9915   -9.0254   20.4646 C   0  0  0  0  0  0
  -22.7244  -10.2132   20.3059 C   0  0  0  0  0  0
  -21.6850   -6.0737   22.5279 C   0  0  0  0  0  0
  -21.4012   -6.5643   23.8214 C   0  0  0  0  0  0
  -21.3659   -5.6795   24.9177 C   0  0  0  0  0  0
  -21.6043   -4.3056   24.7227 C   0  0  0  0  0  0
  -21.8820   -3.8149   23.4348 C   0  0  0  0  0  0
  -21.9191   -4.6965   22.3403 C   0  0  0  0  0  0
  -22.7824  -13.5220   21.1870 C   0  0  0  0  0  0
  -22.1661   -4.2152   21.0977 F   0  0  0  0  0  0
  -21.5627   -3.4541   25.7740 F   0  0  0  0  0  0
  -29.9815  -13.5439   20.4113 N   0  0  0  0  0  0
  -26.2930  -12.9393   20.3282 N   0  0  0  0  0  0
  -25.9321  -11.6539   20.5760 N   0  0  0  0  0  0
  -22.0471  -12.8204   22.0424 N   0  0  0  0  0  0
  -25.4190  -15.1917   20.4095 N   0  0  0  0  0  0
  -31.7497  -14.9187   20.1125 O   0  0  0  0  0  0
  -21.6637   -6.8882   21.4243 O   0  0  0  0  0  0
  -22.3510  -14.5528   20.6722 O   0  0  0  0  0  0
  -24.6336  -31.8513   23.1930 C   0  0  0  0  0  0
  -25.9146  -32.4725   23.8294 C   0  0  1  0  0  0
  -27.2283  -27.2315   20.1239 C   0  0  0  0  0  0
  -25.5930  -33.8531   24.2215 N   0  0  0  0  0  0
  -23.4315  -30.4700   21.5377 C   0  0  2  0  0  0
  -24.8794  -28.9074   20.1081 C   0  0  0  0  0  0
  -22.7507  -29.4570   22.4903 C   0  0  0  0  0  0
  -18.0289  -28.1382   22.8475 C   0  0  0  0  0  0
  -24.1495  -36.7264   23.2642 C   0  0  0  0  0  0
  -25.9787  -30.7532   21.3771 C   0  0  0  0  0  0
  -26.0506  -29.3730   20.7170 C   0  0  0  0  0  0
  -27.2216  -28.5465   20.7133 C   0  0  0  0  0  0
  -26.0290  -26.8343   19.4931 C   0  0  0  0  0  0
  -24.8752  -27.6468   19.4880 C   0  0  0  0  0  0
  -23.6513  -29.7982   20.1557 C   0  0  0  0  0  0
  -25.4124  -36.3039   24.0315 C   0  0  1  0  0  0
  -20.5895  -28.3688   23.1267 C   0  0  2  0  0  0
  -20.6785  -26.9403   22.5415 C   0  0  0  0  0  0
  -19.5760  -26.6375   21.5211 C   0  0  0  0  0  0
  -18.1934  -26.7921   22.1613 C   0  0  0  0  0  0
  -19.1545  -28.8853   23.2864 C   0  0  0  0  0  0
  -18.9467  -30.1450   23.8884 C   0  0  0  0  0  0
  -17.6469  -30.6583   24.0554 C   0  0  0  0  0  0
  -25.9066  -34.9416   23.5071 C   0  0  0  0  0  0
  -16.5358  -29.9077   23.6333 C   0  0  0  0  0  0
  -16.7280  -28.6496   23.0349 C   0  0  0  0  0  0
  -26.4504  -31.6572   25.0705 C   0  0  0  0  0  0
  -25.3706  -31.3744   26.1411 C   0  0  0  0  0  0
  -27.0361  -30.2982   24.6226 C   0  0  0  0  0  0
  -27.6054  -32.4329   25.7479 C   0  0  0  0  0  0
  -27.5570  -37.1782   24.8460 C   0  0  0  0  0  0
  -21.4213  -29.3027   22.3651 N   0  0  0  0  0  0
  -26.4289  -37.3744   23.9399 N   0  0  0  0  0  0
  -24.7004  -31.0442   22.0917 N   0  0  0  0  0  0
  -23.4194  -28.8118   23.3018 O   0  0  0  0  0  0
  -28.3483  -26.3639   20.2162 O   0  0  0  0  0  0
  -26.5646  -34.8894   22.4644 O   0  0  0  0  0  0
  -23.5477  -32.1357   23.7203 O   0  0  0  0  0  0
  -29.1196  -19.7185   24.0403 C   0  0  0  0  0  0
  -30.0173  -17.8916   22.7657 C   0  0  0  0  0  0
  -29.7969  -18.5029   24.0028 C   0  0  0  0  0  0
  -28.7336  -20.3672   22.8555 C   0  0  0  0  0  0
  -29.6287  -18.4687   21.5309 C   0  0  0  0  0  0
  -29.0711  -19.8597   21.5539 C   0  0  0  0  0  0
  -30.4436  -22.5547   19.5318 C   0  0  0  0  0  0
  -31.5884  -21.8863   19.7524 C   0  0  0  0  0  0
  -30.2108  -23.5761   18.4324 C   0  0  0  0  0  0
  -29.8553  -24.9504   19.0123 C   0  0  0  0  0  0
  -28.3089  -23.5995   20.5685 C   0  0  0  0  0  0
  -28.4689  -24.9534   19.6613 C   0  0  1  0  0  0
  -30.2413  -17.8283   25.2857 C   0  0  0  0  0  0
  -27.8910  -21.6136   23.0908 C   0  0  0  0  0  0
  -29.8946  -17.4191   20.3578 C   0  0  0  0  0  0
  -28.7200  -20.8777   20.3550 C   0  0  0  0  0  0
  -29.7444  -15.9012   20.6457 N   0  0  0  0  0  0
  -29.2481  -22.3505   20.4063 N   0  3  2  0  0  0
  -31.4784  -12.6205   19.1810 H   0  0  0  0  0  0
  -30.3985  -11.5063   19.9719 H   0  0  0  0  0  0
  -29.8053  -11.7340   17.5365 H   0  0  0  0  0  0
  -29.6317  -13.4619   17.7201 H   0  0  0  0  0  0
  -27.9067  -11.2778   18.9270 H   0  0  0  0  0  0
  -27.3833  -12.5064   17.8061 H   0  0  0  0  0  0
  -27.6318  -14.2489   19.4641 H   0  0  0  0  0  0
  -28.7295  -12.1733   21.4259 H   0  0  0  0  0  0
  -28.4098  -13.8468   21.8024 H   0  0  0  0  0  0
  -25.2765   -9.5677   22.4767 H   0  0  0  0  0  0
  -24.0001   -7.4630   22.7475 H   0  0  0  0  0  0
  -21.0850   -8.8772   19.8949 H   0  0  0  0  0  0
  -22.3705  -10.9672   19.6170 H   0  0  0  0  0  0
  -21.2006   -7.6151   23.9720 H   0  0  0  0  0  0
  -21.1480   -6.0524   25.9079 H   0  0  0  0  0  0
  -22.0599   -2.7611   23.2846 H   0  0  0  0  0  0
  -22.4090  -11.9856   22.4792 H   0  0  0  0  0  0
  -21.1090  -13.1222   22.2643 H   0  0  0  0  0  0
  -24.6475  -15.8415   20.5155 H   0  0  0  0  0  0
  -26.2596  -15.6317   20.0585 H   0  0  0  0  0  0
  -26.7204  -32.5363   23.1028 H   0  0  0  0  0  0
  -25.0066  -33.9676   25.0348 H   0  0  0  0  0  0
  -22.7292  -31.2920   21.3868 H   0  0  0  0  0  0
  -23.3752  -35.9600   23.3303 H   0  0  0  0  0  0
  -24.3588  -36.8901   22.2058 H   0  0  0  0  0  0
  -23.7255  -37.6463   23.6686 H   0  0  0  0  0  0
  -26.1220  -31.5145   20.6092 H   0  0  0  0  0  0
  -26.8542  -30.8033   22.0129 H   0  0  0  0  0  0
  -28.1188  -28.8964   21.2039 H   0  0  0  0  0  0
  -25.9406  -25.8671   19.0240 H   0  0  0  0  0  0
  -23.9750  -27.2807   19.0131 H   0  0  0  0  0  0
  -23.7748  -30.5732   19.3982 H   0  0  0  0  0  0
  -22.7696  -29.2319   19.8517 H   0  0  0  0  0  0
  -25.1311  -36.1878   25.0808 H   0  0  0  0  0  0
  -20.9987  -28.3275   24.1389 H   0  0  0  0  0  0
  -20.5686  -26.2293   23.3622 H   0  0  0  0  0  0
  -21.6652  -26.7426   22.1202 H   0  0  0  0  0  0
  -19.6933  -25.6285   21.1243 H   0  0  0  0  0  0
  -19.6711  -27.3184   20.6740 H   0  0  0  0  0  0
  -17.4211  -26.6664   21.4008 H   0  0  0  0  0  0
  -18.0324  -26.0061   22.9008 H   0  0  0  0  0  0
  -19.7947  -30.7262   24.2253 H   0  0  0  0  0  0
  -17.5026  -31.6266   24.5148 H   0  0  0  0  0  0
  -15.5359  -30.2975   23.7671 H   0  0  0  0  0  0
  -15.8675  -28.0820   22.7069 H   0  0  0  0  0  0
  -24.5917  -30.7050   25.7740 H   0  0  0  0  0  0
  -24.8845  -32.2914   26.4754 H   0  0  0  0  0  0
  -25.7998  -30.8989   27.0236 H   0  0  0  0  0  0
  -26.2959  -29.6716   24.1241 H   0  0  0  0  0  0
  -27.4020  -29.7268   25.4765 H   0  0  0  0  0  0
  -27.8838  -30.4241   23.9487 H   0  0  0  0  0  0
  -27.2678  -33.3677   26.1968 H   0  0  0  0  0  0
  -28.3904  -32.6815   25.0322 H   0  0  0  0  0  0
  -28.0670  -31.8504   26.5461 H   0  0  0  0  0  0
  -28.2572  -38.0088   24.7507 H   0  0  0  0  0  0
  -28.1081  -36.2619   24.6295 H   0  0  0  0  0  0
  -27.2291  -37.1440   25.8863 H   0  0  0  0  0  0
  -20.9408  -29.8744   21.6843 H   0  0  0  0  0  0
  -26.0158  -38.2809   24.1417 H   0  0  0  0  0  0
  -28.8822  -20.1606   24.9994 H   0  0  0  0  0  0
  -30.5012  -16.9252   22.7825 H   0  0  0  0  0  0
  -32.4521  -22.0414   19.1217 H   0  0  0  0  0  0
  -31.6928  -21.1728   20.5578 H   0  0  0  0  0  0
  -29.4288  -23.2197   17.7601 H   0  0  0  0  0  0
  -31.1179  -23.6614   17.8332 H   0  0  0  0  0  0
  -29.8827  -25.7013   18.2222 H   0  0  0  0  0  0
  -30.6098  -25.2477   19.7412 H   0  0  0  0  0  0
  -27.2694  -23.2782   20.5160 H   0  0  0  0  0  0
  -28.4517  -23.9386   21.5919 H   0  0  0  0  0  0
  -27.7759  -24.8440   18.8298 H   0  0  0  0  0  0
  -29.8057  -18.3072   26.1637 H   0  0  0  0  0  0
  -31.3265  -17.8743   25.3804 H   0  0  0  0  0  0
  -29.9399  -16.7807   25.2951 H   0  0  0  0  0  0
  -27.2976  -21.5006   23.9994 H   0  0  0  0  0  0
  -27.1627  -21.7945   22.3031 H   0  0  0  0  0  0
  -28.5222  -22.4876   23.2435 H   0  0  0  0  0  0
  -30.9044  -17.5957   19.9835 H   0  0  0  0  0  0
  -29.2276  -17.6628   19.5307 H   0  0  0  0  0  0
  -27.6362  -20.9042   20.2459 H   0  0  0  0  0  0
  -29.0656  -20.4192   19.4278 H   0  0  0  0  0  0
  -28.8075  -15.6425   20.9137 H   0  0  0  0  0  0
  -29.6380  -22.3250   21.3367 H   0  0  0  0  0  0
  1 25  1  0  0  0
  1 30  2  0  0  0
  1 87  1  0  0  0
  2  3  1  0  0  0
  2 25  1  0  0  0
  2 89  1  0  0  0
  2 90  1  0  0  0
  3  4  1  0  0  0
  3 91  1  0  0  0
  3 92  1  0  0  0
  4  5  1  0  0  0
  4 93  1  0  0  0
  4 94  1  0  0  0
  5  6  1  0  0  0
  5 26  1  0  0  0
  5 95  1  0  0  0
  6 25  1  0  0  0
  6 96  1  0  0  0
  6 97  1  0  0  0
  7  8  2  0  0  0
  7 26  1  0  0  0
  7 29  1  0  0  0
  8  9  1  0  0  0
  8 22  1  0  0  0
  9 10  1  0  0  0
  9 27  2  0  0  0
 10 11  2  0  0  0
 10 15  1  0  0  0
 11 12  1  0  0  0
 11 98  1  0  0  0
 12 13  2  0  0  0
 12 99  1  0  0  0
 13 14  1  0  0  0
 13 31  1  0  0  0
 14 15  2  0  0  0
 14100  1  0  0  0
 15101  1  0  0  0
 16 17  2  0  0  0
 16 21  1  0  0  0
 16 31  1  0  0  0
 17 18  1  0  0  0
 17102  1  0  0  0
 18 19  2  0  0  0
 18103  1  0  0  0
 19 20  1  0  0  0
 19 24  1  0  0  0
 20 21  2  0  0  0
 20104  1  0  0  0
 21 23  1  0  0  0
 22 28  1  0  0  0
 22 32  2  0  0  0
 26 27  1  0  0  0
 28105  1  0  0  0
 28106  1  0  0  0
 29107  1  0  0  0
 29108  1  0  0  0
 33 34  1  0  0  0
 33 66  1  0  0  0
 33 70  2  0  0  0
 34 36  1  0  0  0
 34 59  1  0  0  0
 34109  1  0  0  0
 35 44  2  0  0  0
 35 45  1  0  0  0
 35 68  1  0  0  0
 36 56  1  0  0  0
 36110  1  0  0  0
 37 39  1  0  0  0
 37 47  1  0  0  0
 37 66  1  0  0  0
 37111  1  0  0  0
 38 43  2  0  0  0
 38 46  1  0  0  0
 38 47  1  0  0  0
 39 64  1  0  0  0
 39 67  2  0  0  0
 40 52  1  0  0  0
 40 53  2  0  0  0
 40 58  1  0  0  0
 41112  1  0  0  0
 41113  1  0  0  0
 41114  1  0  0  0
 41 48  1  0  0  0
 42 43  1  0  0  0
 42 66  1  0  0  0
 42115  1  0  0  0
 42116  1  0  0  0
 43 44  1  0  0  0
 44117  1  0  0  0
 45 46  2  0  0  0
 45118  1  0  0  0
 46119  1  0  0  0
 47120  1  0  0  0
 47121  1  0  0  0
 48 56  1  0  0  0
 48 65  1  0  0  0
 48122  1  0  0  0
 49 50  1  0  0  0
 49 53  1  0  0  0
 49 64  1  0  0  0
 49123  1  0  0  0
 50 51  1  0  0  0
 50124  1  0  0  0
 50125  1  0  0  0
 51 52  1  0  0  0
 51126  1  0  0  0
 51127  1  0  0  0
 52128  1  0  0  0
 52129  1  0  0  0
 53 54  1  0  0  0
 54 55  2  0  0  0
 54130  1  0  0  0
 55 57  1  0  0  0
 55131  1  0  0  0
 56 69  2  0  0  0
 57 58  2  0  0  0
 57132  1  0  0  0
 58133  1  0  0  0
 59 60  1  0  0  0
 59 61  1  0  0  0
 59 62  1  0  0  0
 60134  1  0  0  0
 60135  1  0  0  0
 60136  1  0  0  0
 61137  1  0  0  0
 61138  1  0  0  0
 61139  1  0  0  0
 62140  1  0  0  0
 62141  1  0  0  0
 62142  1  0  0  0
 63 65  1  0  0  0
 63143  1  0  0  0
 63144  1  0  0  0
 63145  1  0  0  0
 64146  1  0  0  0
 65147  1  0  0  0
 68 82  1  0  0  0
 71 73  2  0  0  0
 71 74  1  0  0  0
 71148  1  0  0  0
 72 73  1  0  0  0
 72 75  2  0  0  0
 72149  1  0  0  0
 73 83  1  0  0  0
 74 76  2  0  0  0
 74 84  1  0  0  0
 75 76  1  0  0  0
 75 85  1  0  0  0
 76 86  1  0  0  0
 77 78  2  0  0  0
 77 79  1  0  0  0
 77 88  1  0  0  0
 78150  1  0  0  0
 78151  1  0  0  0
 79 80  1  0  0  0
 79152  1  0  0  0
 79153  1  0  0  0
 80 82  1  0  0  0
 80154  1  0  0  0
 80155  1  0  0  0
 81 82  1  0  0  0
 81 88  1  0  0  0
 81156  1  0  0  0
 81157  1  0  0  0
 82158  1  0  0  0
 83159  1  0  0  0
 83160  1  0  0  0
 83161  1  0  0  0
 84162  1  0  0  0
 84163  1  0  0  0
 84164  1  0  0  0
 85 87  1  0  0  0
 85165  1  0  0  0
 85166  1  0  0  0
 86167  1  0  0  0
 86168  1  0  0  0
 86 88  1  0  0  0
 87169  1  0  0  0
 88170  1  0  0  0
M  CHG  1  88   1
M  ISO  4   1 100  68 101  82 101  87 100
M  END
> <chiral flag>
0

> <version>
0

> <s_m_source_file>
/data/baiqing/PycharmProjects/Reinvent-master-3.2/result/LINK_invent/BTK/process_docking_weight1_custom_product_contain_oxygen_bond_distance_aromatic_linkinvent_7_9_3/rearranged_h_0035.sdf

> <i_m_source_file_index>
85

> <r_mmod_Potential_Energy-OPLS-2005>
190.124481201172

> <r_mmod_Stretch_Energy-OPLS-2005>
174.240997314453

> <r_mmod_Bend_Energy-OPLS-2005>
257.080871582031

> <r_mmod_Torsional_Energy-OPLS-2005>
247.367874145508

> <r_mmod_Improper_Torsional_Energy-OPLS-2005>
5.49645614624023

> <r_mmod_Van_der_Waal_Energy-OPLS-2005>
143.716567993164

> <r_mmod_Electrostatic_Energy-OPLS-2005>
-326.586486816406

> <r_mmod_Solvation_Energy-OPLS-2005>
-414.956512451172

> <b_mmod_Minimization_Converged-OPLS-2005>
0

> <r_mmod_RMS_Derivative-OPLS-2005>
1.34166288375854

$$$$
86
                    3D
 Structure written by MMmdl.
159167  0  0  1  0            999 V2000
  -30.6762  -14.5135   20.5301 C   0  0  0  0  0  0
  -30.4134  -12.3163   19.4425 C   0  0  0  0  0  0
  -29.4943  -12.4941   18.2164 C   0  0  0  0  0  0
  -28.0149  -12.3527   18.6291 C   0  0  0  0  0  0
  -27.6525  -13.2010   19.8791 C   0  0  2  0  0  0
  -28.6952  -13.0188   21.0053 C   0  0  0  0  0  0
  -25.2504  -13.8116   20.5743 C   0  0  0  0  0  0
  -24.1767  -13.0382   20.9205 C   0  0  0  0  0  0
  -24.6355  -11.6854   20.8762 C   0  0  0  0  0  0
  -23.9024  -10.4241   21.0422 C   0  0  0  0  0  0
  -24.3580   -9.4158   21.9192 C   0  0  0  0  0  0
  -23.6264   -8.2190   22.0759 C   0  0  0  0  0  0
  -22.4250   -8.0230   21.3540 C   0  0  0  0  0  0
  -21.9872   -9.0205   20.4653 C   0  0  0  0  0  0
  -22.7195  -10.2087   20.3066 C   0  0  0  0  0  0
  -21.6828   -6.0701   22.5271 C   0  0  0  0  0  0
  -21.4012   -6.5624   23.8200 C   0  0  0  0  0  0
  -21.3667   -5.6790   24.9169 C   0  0  0  0  0  0
  -21.6044   -4.3047   24.7232 C   0  0  0  0  0  0
  -21.8816   -3.8127   23.4355 C   0  0  0  0  0  0
  -21.9191   -4.6938   22.3407 C   0  0  0  0  0  0
  -22.7793  -13.5199   21.1865 C   0  0  0  0  0  0
  -22.1656   -4.2122   21.0981 F   0  0  0  0  0  0
  -21.5635   -3.4535   25.7745 F   0  0  0  0  0  0
  -30.0171  -13.3246   20.4407 N   0  0  0  0  0  0
  -26.2955  -12.9288   20.3418 N   0  0  0  0  0  0
  -25.9271  -11.6452   20.5794 N   0  0  0  0  0  0
  -22.0461  -12.8193   22.0447 N   0  0  0  0  0  0
  -25.4173  -15.1843   20.4245 N   0  0  0  0  0  0
  -31.8305  -14.6578   20.1237 O   0  0  0  0  0  0
  -21.6619   -6.8830   21.4220 O   0  0  0  0  0  0
  -22.3467  -14.5507   20.6717 O   0  0  0  0  0  0
  -24.6167  -31.8681   23.2101 C   0  0  0  0  0  0
  -25.9057  -32.4822   23.8413 C   0  0  1  0  0  0
  -27.2262  -27.4129   20.1007 C   0  0  0  0  0  0
  -25.5905  -33.8631   24.2336 N   0  0  0  0  0  0
  -23.4034  -30.4935   21.5521 C   0  0  2  0  0  0
  -24.8419  -28.9523   20.1198 C   0  0  0  0  0  0
  -22.7405  -29.4680   22.5009 C   0  0  0  0  0  0
  -18.0260  -28.1395   22.8558 C   0  0  0  0  0  0
  -24.1485  -36.7307   23.2642 C   0  0  0  0  0  0
  -25.9330  -30.8296   21.3622 C   0  0  0  0  0  0
  -26.0059  -29.4640   20.7046 C   0  0  0  0  0  0
  -27.1970  -28.7039   20.6832 C   0  0  0  0  0  0
  -26.0329  -26.9138   19.5228 C   0  0  0  0  0  0
  -24.8517  -27.6792   19.5257 C   0  0  0  0  0  0
  -23.6068  -29.8257   20.1669 C   0  0  0  0  0  0
  -25.4113  -36.3133   24.0350 C   0  0  1  0  0  0
  -20.5826  -28.3731   23.1383 C   0  0  2  0  0  0
  -20.6767  -26.9482   22.5438 C   0  0  0  0  0  0
  -19.5745  -26.6427   21.5259 C   0  0  0  0  0  0
  -18.1900  -26.7961   22.1655 C   0  0  0  0  0  0
  -19.1500  -28.8878   23.2961 C   0  0  0  0  0  0
  -18.9428  -30.1509   23.8943 C   0  0  0  0  0  0
  -17.6430  -30.6629   24.0584 C   0  0  0  0  0  0
  -25.9043  -34.9491   23.5145 C   0  0  0  0  0  0
  -16.5347  -29.9117   23.6362 C   0  0  0  0  0  0
  -16.7261  -28.6516   23.0424 C   0  0  0  0  0  0
  -26.4477  -31.6609   25.0748 C   0  0  0  0  0  0
  -25.3733  -31.3696   26.1488 C   0  0  0  0  0  0
  -27.0320  -30.3057   24.6128 C   0  0  0  0  0  0
  -27.6062  -32.4322   25.7476 C   0  0  0  0  0  0
  -27.5590  -37.1808   24.8472 C   0  0  0  0  0  0
  -21.4106  -29.3161   22.3860 N   0  0  0  0  0  0
  -26.4313  -37.3803   23.9408 N   0  0  0  0  0  0
  -24.6698  -31.0801   22.0978 N   0  0  0  0  0  0
  -23.4190  -28.8154   23.2994 O   0  0  0  0  0  0
  -28.4249  -26.7192   20.1241 O   0  0  0  0  0  0
  -26.5607  -34.8919   22.4704 O   0  0  0  0  0  0
  -23.5353  -32.1438   23.7478 O   0  0  0  0  0  0
  -27.2637  -18.9151   19.3787 C   0  0  0  0  0  0
  -28.2570  -17.9295   19.5305 C   0  0  0  0  0  0
  -29.2995  -18.1040   20.4859 C   0  0  0  0  0  0
  -28.4482  -20.4251   20.8827 C   0  0  0  0  0  0
  -27.3395  -20.1386   20.0575 C   0  0  0  0  0  0
  -29.4016  -19.3858   21.1309 C   0  0  0  0  0  0
  -28.1779  -16.7682   18.5521 C   0  0  0  0  0  0
  -30.3732  -17.0002   20.7238 C   0  0  0  0  0  0
  -28.5637  -21.8494   21.4824 C   0  0  0  0  0  0
  -28.3711  -24.3131   20.8660 C   0  0  0  0  0  0
  -28.5254  -25.3421   19.7094 C   0  0  0  0  0  0
  -29.9304  -15.5880   20.8796 N   0  0  0  0  0  0
  -28.6570  -22.9090   20.4313 N   0  3  0  0  0  0
  -26.0850  -21.2995   19.7859 Cl  0  0  0  0  0  0
  -30.7208  -19.7105   22.2075 Cl  0  0  0  0  0  0
  -31.4648  -12.3977   19.1583 H   0  0  0  0  0  0
  -30.2964  -11.3154   19.8601 H   0  0  0  0  0  0
  -29.7386  -11.7587   17.4486 H   0  0  0  0  0  0
  -29.6591  -13.4752   17.7685 H   0  0  0  0  0  0
  -27.8355  -11.2966   18.8413 H   0  0  0  0  0  0
  -27.3614  -12.6054   17.7945 H   0  0  0  0  0  0
  -27.6878  -14.2411   19.5716 H   0  0  0  0  0  0
  -28.6774  -11.9929   21.3787 H   0  0  0  0  0  0
  -28.4613  -13.6476   21.8655 H   0  0  0  0  0  0
  -25.2726   -9.5616   22.4766 H   0  0  0  0  0  0
  -23.9966   -7.4573   22.7477 H   0  0  0  0  0  0
  -21.0797   -8.8714   19.8965 H   0  0  0  0  0  0
  -22.3656  -10.9619   19.6176 H   0  0  0  0  0  0
  -21.2006   -7.6133   23.9686 H   0  0  0  0  0  0
  -21.1504   -6.0532   25.9074 H   0  0  0  0  0  0
  -22.0600   -2.7585   23.2866 H   0  0  0  0  0  0
  -22.4099  -11.9875   22.4856 H   0  0  0  0  0  0
  -21.1082  -13.1184   22.2687 H   0  0  0  0  0  0
  -24.6372  -15.8222   20.5395 H   0  0  0  0  0  0
  -26.2679  -15.6443   20.1321 H   0  0  0  0  0  0
  -26.7113  -32.5523   23.1161 H   0  0  0  0  0  0
  -25.0072  -33.9800   25.0493 H   0  0  0  0  0  0
  -22.6895  -31.3075   21.4151 H   0  0  0  0  0  0
  -23.3766  -35.9621   23.3319 H   0  0  0  0  0  0
  -24.3570  -36.8901   22.2053 H   0  0  0  0  0  0
  -23.7220  -37.6505   23.6634 H   0  0  0  0  0  0
  -26.0586  -31.6020   20.6027 H   0  0  0  0  0  0
  -26.8141  -30.8706   21.9887 H   0  0  0  0  0  0
  -28.0998  -29.1037   21.1254 H   0  0  0  0  0  0
  -25.9735  -25.9371   19.0690 H   0  0  0  0  0  0
  -23.9497  -27.2784   19.0834 H   0  0  0  0  0  0
  -23.7152  -30.6007   19.4087 H   0  0  0  0  0  0
  -22.7260  -29.2505   19.8754 H   0  0  0  0  0  0
  -25.1278  -36.2011   25.0846 H   0  0  0  0  0  0
  -20.9874  -28.3294   24.1515 H   0  0  0  0  0  0
  -20.5744  -26.2305   23.3586 H   0  0  0  0  0  0
  -21.6642  -26.7608   22.1196 H   0  0  0  0  0  0
  -19.6669  -27.3228   20.6772 H   0  0  0  0  0  0
  -19.6935  -25.6326   21.1346 H   0  0  0  0  0  0
  -17.4167  -26.6739   21.4080 H   0  0  0  0  0  0
  -18.0203  -26.0093   22.9032 H   0  0  0  0  0  0
  -19.7888  -30.7363   24.2333 H   0  0  0  0  0  0
  -17.4965  -31.6333   24.5124 H   0  0  0  0  0  0
  -15.5328  -30.3012   23.7667 H   0  0  0  0  0  0
  -15.8676  -28.0803   22.7157 H   0  0  0  0  0  0
  -24.5891  -30.7057   25.7806 H   0  0  0  0  0  0
  -24.8942  -32.2847   26.4983 H   0  0  0  0  0  0
  -25.8095  -30.8819   27.0221 H   0  0  0  0  0  0
  -26.2869  -29.6781   24.1211 H   0  0  0  0  0  0
  -27.4125  -29.7323   25.4595 H   0  0  0  0  0  0
  -27.8687  -30.4381   23.9260 H   0  0  0  0  0  0
  -27.2698  -33.3603   26.2102 H   0  0  0  0  0  0
  -28.3827  -32.6912   25.0265 H   0  0  0  0  0  0
  -28.0782  -31.8426   26.5341 H   0  0  0  0  0  0
  -28.2623  -38.0092   24.7519 H   0  0  0  0  0  0
  -28.1074  -36.2626   24.6306 H   0  0  0  0  0  0
  -27.2295  -37.1459   25.8873 H   0  0  0  0  0  0
  -20.9225  -29.9209   21.7411 H   0  0  0  0  0  0
  -26.0214  -38.2881   24.1407 H   0  0  0  0  0  0
  -26.4457  -18.7639   18.6866 H   0  0  0  0  0  0
  -27.2347  -16.2356   18.6634 H   0  0  0  0  0  0
  -28.9962  -16.0582   18.6109 H   0  0  0  0  0  0
  -28.1954  -17.1640   17.5381 H   0  0  0  0  0  0
  -31.0530  -17.0739   19.8699 H   0  0  0  0  0  0
  -30.9787  -17.2182   21.6004 H   0  0  0  0  0  0
  -29.4143  -21.9573   22.1538 H   0  0  0  0  0  0
  -27.6833  -22.0221   22.1027 H   0  0  0  0  0  0
  -27.3585  -24.3700   21.2669 H   0  0  0  0  0  0
  -29.0428  -24.5793   21.6828 H   0  0  0  0  0  0
  -27.8747  -25.0997   18.8734 H   0  0  0  0  0  0
  -29.5327  -25.2353   19.3036 H   0  0  0  0  0  0
  -28.9823  -15.4294   21.1830 H   0  0  0  0  0  0
  -29.5713  -22.8617   20.0083 H   0  0  0  0  0  0
  -27.9770  -22.6580   19.7274 H   0  0  0  0  0  0
  1 25  1  0  0  0
  1 30  2  0  0  0
  1 82  1  0  0  0
  2  3  1  0  0  0
  2 25  1  0  0  0
  2 86  1  0  0  0
  2 87  1  0  0  0
  3  4  1  0  0  0
  3 88  1  0  0  0
  3 89  1  0  0  0
  4  5  1  0  0  0
  4 90  1  0  0  0
  4 91  1  0  0  0
  5  6  1  0  0  0
  5 26  1  0  0  0
  5 92  1  0  0  0
  6 25  1  0  0  0
  6 93  1  0  0  0
  6 94  1  0  0  0
  7  8  2  0  0  0
  7 26  1  0  0  0
  7 29  1  0  0  0
  8  9  1  0  0  0
  8 22  1  0  0  0
  9 10  1  0  0  0
  9 27  2  0  0  0
 10 11  2  0  0  0
 10 15  1  0  0  0
 11 12  1  0  0  0
 11 95  1  0  0  0
 12 13  2  0  0  0
 12 96  1  0  0  0
 13 14  1  0  0  0
 13 31  1  0  0  0
 14 15  2  0  0  0
 14 97  1  0  0  0
 15 98  1  0  0  0
 16 17  2  0  0  0
 16 21  1  0  0  0
 16 31  1  0  0  0
 17 18  1  0  0  0
 17 99  1  0  0  0
 18 19  2  0  0  0
 18100  1  0  0  0
 19 20  1  0  0  0
 19 24  1  0  0  0
 20 21  2  0  0  0
 20101  1  0  0  0
 21 23  1  0  0  0
 22 28  1  0  0  0
 22 32  2  0  0  0
 26 27  1  0  0  0
 28102  1  0  0  0
 28103  1  0  0  0
 29104  1  0  0  0
 29105  1  0  0  0
 33 34  1  0  0  0
 33 66  1  0  0  0
 33 70  2  0  0  0
 34 36  1  0  0  0
 34 59  1  0  0  0
 34106  1  0  0  0
 35 44  2  0  0  0
 35 45  1  0  0  0
 35 68  1  0  0  0
 36 56  1  0  0  0
 36107  1  0  0  0
 37 39  1  0  0  0
 37 47  1  0  0  0
 37 66  1  0  0  0
 37108  1  0  0  0
 38 43  2  0  0  0
 38 46  1  0  0  0
 38 47  1  0  0  0
 39 64  1  0  0  0
 39 67  2  0  0  0
 40 52  1  0  0  0
 40 53  2  0  0  0
 40 58  1  0  0  0
 41109  1  0  0  0
 41110  1  0  0  0
 41111  1  0  0  0
 41 48  1  0  0  0
 42 43  1  0  0  0
 42 66  1  0  0  0
 42112  1  0  0  0
 42113  1  0  0  0
 43 44  1  0  0  0
 44114  1  0  0  0
 45 46  2  0  0  0
 45115  1  0  0  0
 46116  1  0  0  0
 47117  1  0  0  0
 47118  1  0  0  0
 48 56  1  0  0  0
 48 65  1  0  0  0
 48119  1  0  0  0
 49 50  1  0  0  0
 49 53  1  0  0  0
 49 64  1  0  0  0
 49120  1  0  0  0
 50 51  1  0  0  0
 50121  1  0  0  0
 50122  1  0  0  0
 51 52  1  0  0  0
 51123  1  0  0  0
 51124  1  0  0  0
 52125  1  0  0  0
 52126  1  0  0  0
 53 54  1  0  0  0
 54 55  2  0  0  0
 54127  1  0  0  0
 55 57  1  0  0  0
 55128  1  0  0  0
 56 69  2  0  0  0
 57 58  2  0  0  0
 57129  1  0  0  0
 58130  1  0  0  0
 59 60  1  0  0  0
 59 61  1  0  0  0
 59 62  1  0  0  0
 60131  1  0  0  0
 60132  1  0  0  0
 60133  1  0  0  0
 61134  1  0  0  0
 61135  1  0  0  0
 61136  1  0  0  0
 62137  1  0  0  0
 62138  1  0  0  0
 62139  1  0  0  0
 63 65  1  0  0  0
 63140  1  0  0  0
 63141  1  0  0  0
 63142  1  0  0  0
 64143  1  0  0  0
 65144  1  0  0  0
 68 81  1  0  0  0
 71 72  2  0  0  0
 71 75  1  0  0  0
 71145  1  0  0  0
 72 73  1  0  0  0
 72 77  1  0  0  0
 73 76  2  0  0  0
 73 78  1  0  0  0
 74 75  2  0  0  0
 74 76  1  0  0  0
 74 79  1  0  0  0
 75 84  1  0  0  0
 76 85  1  0  0  0
 77146  1  0  0  0
 77147  1  0  0  0
 77148  1  0  0  0
 78 82  1  0  0  0
 78149  1  0  0  0
 78150  1  0  0  0
 79 83  1  0  0  0
 79151  1  0  0  0
 79152  1  0  0  0
 80 81  1  0  0  0
 80 83  1  0  0  0
 80153  1  0  0  0
 80154  1  0  0  0
 81155  1  0  0  0
 81156  1  0  0  0
 82157  1  0  0  0
 83158  1  0  0  0
 83159  1  0  0  0
M  CHG  1  83   1
M  ISO  4   1 100  68 101  81 101  82 100
M  END
> <chiral flag>
0

> <version>
0

> <s_m_source_file>
/data/baiqing/PycharmProjects/Reinvent-master-3.2/result/LINK_invent/BTK/process_docking_weight1_custom_product_contain_oxygen_bond_distance_aromatic_linkinvent_7_9_3/rearranged_h_0035.sdf

> <i_m_source_file_index>
86

> <r_mmod_Potential_Energy-OPLS-2005>
-240.741439819336

> <r_mmod_Stretch_Energy-OPLS-2005>
49.4981536865234

> <r_mmod_Bend_Energy-OPLS-2005>
116.665870666504

> <r_mmod_Torsional_Energy-OPLS-2005>
191.943283081055

> <r_mmod_Improper_Torsional_Energy-OPLS-2005>
5.6071572303772

> <r_mmod_Van_der_Waal_Energy-OPLS-2005>
153.930526733398

> <r_mmod_Electrostatic_Energy-OPLS-2005>
-327.867034912109

> <r_mmod_Solvation_Energy-OPLS-2005>
-449.151580810547

> <b_mmod_Minimization_Converged-OPLS-2005>
0

> <r_mmod_RMS_Derivative-OPLS-2005>
4.16544055938721

$$$$
87
                    3D
 Structure written by MMmdl.
171180  0  0  1  0            999 V2000
  -30.6588  -14.5654   20.5649 C   0  0  0  0  0  0
  -30.4354  -12.3703   19.4267 C   0  0  0  0  0  0
  -29.4952  -12.5089   18.2098 C   0  0  0  0  0  0
  -28.0200  -12.3487   18.6285 C   0  0  0  0  0  0
  -27.6536  -13.2097   19.8670 C   0  0  2  0  0  0
  -28.6993  -13.0320   20.9883 C   0  0  0  0  0  0
  -25.2559  -13.8154   20.5685 C   0  0  0  0  0  0
  -24.1813  -13.0427   20.9173 C   0  0  0  0  0  0
  -24.6376  -11.6903   20.8736 C   0  0  0  0  0  0
  -23.9057  -10.4286   21.0408 C   0  0  0  0  0  0
  -24.3605   -9.4200   21.9179 C   0  0  0  0  0  0
  -23.6275   -8.2233   22.0755 C   0  0  0  0  0  0
  -22.4268   -8.0266   21.3533 C   0  0  0  0  0  0
  -21.9905   -9.0242   20.4640 C   0  0  0  0  0  0
  -22.7230  -10.2119   20.3049 C   0  0  0  0  0  0
  -21.6851   -6.0724   22.5278 C   0  0  0  0  0  0
  -21.4015   -6.5626   23.8201 C   0  0  0  0  0  0
  -21.3653   -5.6786   24.9169 C   0  0  0  0  0  0
  -21.6044   -4.3058   24.7229 C   0  0  0  0  0  0
  -21.8818   -3.8142   23.4349 C   0  0  0  0  0  0
  -21.9194   -4.6954   22.3407 C   0  0  0  0  0  0
  -22.7841  -13.5213   21.1855 C   0  0  0  0  0  0
  -22.1656   -4.2148   21.0984 F   0  0  0  0  0  0
  -21.5637   -3.4544   25.7737 F   0  0  0  0  0  0
  -30.0159  -13.3697   20.4243 N   0  0  0  0  0  0
  -26.2989  -12.9325   20.3360 N   0  0  0  0  0  0
  -25.9303  -11.6497   20.5769 N   0  0  0  0  0  0
  -22.0500  -12.8192   22.0410 N   0  0  0  0  0  0
  -25.4270  -15.1860   20.4072 N   0  0  0  0  0  0
  -31.8231  -14.7344   20.1918 O   0  0  0  0  0  0
  -21.6631   -6.8859   21.4233 O   0  0  0  0  0  0
  -22.3533  -14.5534   20.6722 O   0  0  0  0  0  0
  -24.6167  -31.8654   23.2015 C   0  0  0  0  0  0
  -25.9055  -32.4794   23.8351 C   0  0  1  0  0  0
  -27.2260  -27.3885   20.0974 C   0  0  0  0  0  0
  -25.5903  -33.8597   24.2291 N   0  0  0  0  0  0
  -23.4064  -30.4880   21.5443 C   0  0  2  0  0  0
  -24.8517  -28.9511   20.1064 C   0  0  0  0  0  0
  -22.7418  -29.4657   22.4961 C   0  0  0  0  0  0
  -18.0276  -28.1369   22.8459 C   0  0  0  0  0  0
  -24.1486  -36.7286   23.2645 C   0  0  0  0  0  0
  -25.9412  -30.8141   21.3652 C   0  0  0  0  0  0
  -26.0160  -29.4484   20.7055 C   0  0  0  0  0  0
  -27.2073  -28.6767   20.6916 C   0  0  0  0  0  0
  -26.0462  -26.9259   19.4716 C   0  0  0  0  0  0
  -24.8669  -27.6922   19.4827 C   0  0  0  0  0  0
  -23.6148  -29.8217   20.1599 C   0  0  0  0  0  0
  -25.4106  -36.3082   24.0335 C   0  0  1  0  0  0
  -20.5862  -28.3671   23.1274 C   0  0  2  0  0  0
  -20.6767  -26.9397   22.5396 C   0  0  0  0  0  0
  -19.5754  -26.6365   21.5186 C   0  0  0  0  0  0
  -18.1925  -26.7919   22.1574 C   0  0  0  0  0  0
  -19.1524  -28.8839   23.2864 C   0  0  0  0  0  0
  -18.9475  -30.1433   23.8888 C   0  0  0  0  0  0
  -17.6472  -30.6569   24.0560 C   0  0  0  0  0  0
  -25.9046  -34.9455   23.5110 C   0  0  0  0  0  0
  -16.5356  -29.9071   23.6338 C   0  0  0  0  0  0
  -16.7267  -28.6492   23.0336 C   0  0  0  0  0  0
  -26.4459  -31.6575   25.0705 C   0  0  0  0  0  0
  -25.3696  -31.3667   26.1440 C   0  0  0  0  0  0
  -27.0344  -30.3030   24.6107 C   0  0  0  0  0  0
  -27.6020  -32.4325   25.7466 C   0  0  0  0  0  0
  -27.5572  -37.1780   24.8464 C   0  0  0  0  0  0
  -21.4147  -29.3032   22.3684 N   0  0  0  0  0  0
  -26.4275  -37.3765   23.9420 N   0  0  0  0  0  0
  -24.6731  -31.0715   22.0945 N   0  0  0  0  0  0
  -23.4174  -28.8210   23.3022 O   0  0  0  0  0  0
  -28.3688  -26.5985   20.1470 O   0  0  0  0  0  0
  -26.5608  -34.8907   22.4678 O   0  0  0  0  0  0
  -23.5360  -32.1475   23.7355 O   0  0  0  0  0  0
  -31.4531  -19.2727   18.7420 C   0  0  0  0  0  0
  -31.2650  -18.1502   19.5647 C   0  0  0  0  0  0
  -30.7161  -20.4589   18.9416 C   0  0  0  0  0  0
  -30.3339  -18.1738   20.6169 C   0  0  0  0  0  0
  -29.7783  -20.5537   20.0098 C   0  0  0  0  0  0
  -29.5883  -19.3870   20.8342 C   0  0  0  0  0  0
  -29.5465  -24.3886   20.3975 C   0  0  0  0  0  0
  -33.1267  -24.8122   19.5644 C   0  0  0  0  0  0
  -30.7217  -24.9236   20.0009 C   0  0  0  0  0  0
  -32.0196  -24.2798   20.1023 C   0  0  0  0  0  0
  -27.5558  -23.6453   22.4390 C   0  0  0  0  0  0
  -27.5742  -25.0742   21.8781 C   0  0  0  0  0  0
  -28.9570  -23.0078   22.3876 C   0  0  0  0  0  0
  -28.2108  -25.1774   20.4654 C   0  0  1  0  0  0
  -30.9270  -21.5824   17.9349 C   0  0  0  0  0  0
  -30.2846  -16.9264   21.5497 C   0  0  0  0  0  0
  -28.9182  -21.8571   20.1671 C   0  0  0  0  0  0
  -29.8923  -15.5932   21.0130 N   0  0  0  0  0  0
  -29.4868  -22.9812   21.0017 N   0  3  1  0  0  0
  -28.4177  -19.4391   22.1063 Cl  0  0  0  0  0  0
  -31.4747  -12.5030   19.1200 H   0  0  0  0  0  0
  -30.3750  -11.3677   19.8514 H   0  0  0  0  0  0
  -29.7472  -11.7649   17.4531 H   0  0  0  0  0  0
  -29.6371  -13.4843   17.7427 H   0  0  0  0  0  0
  -27.8515  -11.2942   18.8478 H   0  0  0  0  0  0
  -27.3625  -12.5939   17.7941 H   0  0  0  0  0  0
  -27.6819  -14.2496   19.5438 H   0  0  0  0  0  0
  -28.7040  -12.0008   21.3468 H   0  0  0  0  0  0
  -28.4519  -13.6404   21.8601 H   0  0  0  0  0  0
  -25.2754   -9.5681   22.4755 H   0  0  0  0  0  0
  -23.9993   -7.4635   22.7477 H   0  0  0  0  0  0
  -21.0845   -8.8747   19.8936 H   0  0  0  0  0  0
  -22.3688  -10.9656   19.6157 H   0  0  0  0  0  0
  -21.1994   -7.6133   23.9704 H   0  0  0  0  0  0
  -21.1477   -6.0522   25.9069 H   0  0  0  0  0  0
  -22.0605   -2.7606   23.2857 H   0  0  0  0  0  0
  -22.4140  -11.9835   22.4765 H   0  0  0  0  0  0
  -21.1119  -13.1200   22.2655 H   0  0  0  0  0  0
  -24.6585  -15.8405   20.5081 H   0  0  0  0  0  0
  -26.2739  -15.6263   20.0704 H   0  0  0  0  0  0
  -26.7128  -32.5480   23.1106 H   0  0  0  0  0  0
  -25.0133  -33.9769   25.0499 H   0  0  0  0  0  0
  -22.6979  -31.3067   21.4013 H   0  0  0  0  0  0
  -23.3748  -35.9613   23.3294 H   0  0  0  0  0  0
  -24.3585  -36.8933   22.2063 H   0  0  0  0  0  0
  -23.7240  -37.6480   23.6687 H   0  0  0  0  0  0
  -26.0651  -31.5806   20.6001 H   0  0  0  0  0  0
  -26.8223  -30.8562   21.9921 H   0  0  0  0  0  0
  -28.1032  -29.0494   21.1690 H   0  0  0  0  0  0
  -26.0188  -25.9708   18.9711 H   0  0  0  0  0  0
  -23.9778  -27.3078   19.0036 H   0  0  0  0  0  0
  -23.7223  -30.5992   19.4035 H   0  0  0  0  0  0
  -22.7344  -29.2477   19.8627 H   0  0  0  0  0  0
  -25.1272  -36.1927   25.0820 H   0  0  0  0  0  0
  -20.9936  -28.3247   24.1395 H   0  0  0  0  0  0
  -20.5633  -26.2292   23.3595 H   0  0  0  0  0  0
  -21.6641  -26.7405   22.1222 H   0  0  0  0  0  0
  -19.6935  -25.6268   21.1230 H   0  0  0  0  0  0
  -19.6711  -27.3161   20.6698 H   0  0  0  0  0  0
  -17.4193  -26.6673   21.3966 H   0  0  0  0  0  0
  -18.0307  -26.0033   22.8951 H   0  0  0  0  0  0
  -19.7953  -30.7239   24.2242 H   0  0  0  0  0  0
  -17.5036  -31.6250   24.5170 H   0  0  0  0  0  0
  -15.5365  -30.2975   23.7666 H   0  0  0  0  0  0
  -15.8666  -28.0818   22.7049 H   0  0  0  0  0  0
  -24.5978  -30.6874   25.7794 H   0  0  0  0  0  0
  -24.8746  -32.2791   26.4776 H   0  0  0  0  0  0
  -25.8058  -30.8975   27.0274 H   0  0  0  0  0  0
  -26.2928  -29.6741   24.1174 H   0  0  0  0  0  0
  -27.4164  -29.7297   25.4567 H   0  0  0  0  0  0
  -27.8707  -30.4390   23.9247 H   0  0  0  0  0  0
  -27.2654  -33.3663   26.1975 H   0  0  0  0  0  0
  -28.3841  -32.6831   25.0285 H   0  0  0  0  0  0
  -28.0672  -31.8502   26.5431 H   0  0  0  0  0  0
  -28.2547  -38.0109   24.7527 H   0  0  0  0  0  0
  -28.1107  -36.2634   24.6262 H   0  0  0  0  0  0
  -27.2293  -37.1403   25.8866 H   0  0  0  0  0  0
  -20.9314  -29.8793   21.6935 H   0  0  0  0  0  0
  -26.0159  -38.2834   24.1436 H   0  0  0  0  0  0
  -32.1759  -19.2097   17.9388 H   0  0  0  0  0  0
  -31.8638  -17.2658   19.3981 H   0  0  0  0  0  0
  -34.0833  -24.3177   19.6641 H   0  0  0  0  0  0
  -33.1037  -25.7420   19.0117 H   0  0  0  0  0  0
  -30.7061  -25.9420   19.6370 H   0  0  0  0  0  0
  -32.1301  -23.3467   20.6402 H   0  0  0  0  0  0
  -26.8361  -23.0437   21.8851 H   0  0  0  0  0  0
  -27.1982  -23.6586   23.4707 H   0  0  0  0  0  0
  -28.1214  -25.7215   22.5661 H   0  0  0  0  0  0
  -26.5510  -25.4546   21.8655 H   0  0  0  0  0  0
  -28.9524  -22.0104   22.8203 H   0  0  0  0  0  0
  -29.6388  -23.5940   23.0076 H   0  0  0  0  0  0
  -27.5629  -24.6985   19.7319 H   0  0  0  0  0  0
  -31.8877  -21.4861   17.4269 H   0  0  0  0  0  0
  -30.9137  -22.5655   18.3925 H   0  0  0  0  0  0
  -30.1473  -21.5537   17.1723 H   0  0  0  0  0  0
  -29.6265  -17.1189   22.3952 H   0  0  0  0  0  0
  -31.2743  -16.8305   22.0007 H   0  0  0  0  0  0
  -27.9260  -21.5882   20.5278 H   0  0  0  0  0  0
  -28.7204  -22.2528   19.1729 H   0  0  0  0  0  0
  -28.9326  -15.3361   21.1861 H   0  0  0  0  0  0
  -30.4454  -22.6928   21.1209 H   0  0  0  0  0  0
  1 25  1  0  0  0
  1 30  2  0  0  0
  1 88  1  0  0  0
  2  3  1  0  0  0
  2 25  1  0  0  0
  2 91  1  0  0  0
  2 92  1  0  0  0
  3  4  1  0  0  0
  3 93  1  0  0  0
  3 94  1  0  0  0
  4  5  1  0  0  0
  4 95  1  0  0  0
  4 96  1  0  0  0
  5  6  1  0  0  0
  5 26  1  0  0  0
  5 97  1  0  0  0
  6 25  1  0  0  0
  6 98  1  0  0  0
  6 99  1  0  0  0
  7  8  2  0  0  0
  7 26  1  0  0  0
  7 29  1  0  0  0
  8  9  1  0  0  0
  8 22  1  0  0  0
  9 10  1  0  0  0
  9 27  2  0  0  0
 10 11  2  0  0  0
 10 15  1  0  0  0
 11 12  1  0  0  0
 11100  1  0  0  0
 12 13  2  0  0  0
 12101  1  0  0  0
 13 14  1  0  0  0
 13 31  1  0  0  0
 14 15  2  0  0  0
 14102  1  0  0  0
 15103  1  0  0  0
 16 17  2  0  0  0
 16 21  1  0  0  0
 16 31  1  0  0  0
 17 18  1  0  0  0
 17104  1  0  0  0
 18 19  2  0  0  0
 18105  1  0  0  0
 19 20  1  0  0  0
 19 24  1  0  0  0
 20 21  2  0  0  0
 20106  1  0  0  0
 21 23  1  0  0  0
 22 28  1  0  0  0
 22 32  2  0  0  0
 26 27  1  0  0  0
 28107  1  0  0  0
 28108  1  0  0  0
 29109  1  0  0  0
 29110  1  0  0  0
 33 34  1  0  0  0
 33 66  1  0  0  0
 33 70  2  0  0  0
 34 36  1  0  0  0
 34 59  1  0  0  0
 34111  1  0  0  0
 35 44  2  0  0  0
 35 45  1  0  0  0
 35 68  1  0  0  0
 36 56  1  0  0  0
 36112  1  0  0  0
 37 39  1  0  0  0
 37 47  1  0  0  0
 37 66  1  0  0  0
 37113  1  0  0  0
 38 43  2  0  0  0
 38 46  1  0  0  0
 38 47  1  0  0  0
 39 64  1  0  0  0
 39 67  2  0  0  0
 40 52  1  0  0  0
 40 53  2  0  0  0
 40 58  1  0  0  0
 41114  1  0  0  0
 41115  1  0  0  0
 41116  1  0  0  0
 41 48  1  0  0  0
 42 43  1  0  0  0
 42 66  1  0  0  0
 42117  1  0  0  0
 42118  1  0  0  0
 43 44  1  0  0  0
 44119  1  0  0  0
 45 46  2  0  0  0
 45120  1  0  0  0
 46121  1  0  0  0
 47122  1  0  0  0
 47123  1  0  0  0
 48 56  1  0  0  0
 48 65  1  0  0  0
 48124  1  0  0  0
 49 50  1  0  0  0
 49 53  1  0  0  0
 49 64  1  0  0  0
 49125  1  0  0  0
 50 51  1  0  0  0
 50126  1  0  0  0
 50127  1  0  0  0
 51 52  1  0  0  0
 51128  1  0  0  0
 51129  1  0  0  0
 52130  1  0  0  0
 52131  1  0  0  0
 53 54  1  0  0  0
 54 55  2  0  0  0
 54132  1  0  0  0
 55 57  1  0  0  0
 55133  1  0  0  0
 56 69  2  0  0  0
 57 58  2  0  0  0
 57134  1  0  0  0
 58135  1  0  0  0
 59 60  1  0  0  0
 59 61  1  0  0  0
 59 62  1  0  0  0
 60136  1  0  0  0
 60137  1  0  0  0
 60138  1  0  0  0
 61139  1  0  0  0
 61140  1  0  0  0
 61141  1  0  0  0
 62142  1  0  0  0
 62143  1  0  0  0
 62144  1  0  0  0
 63 65  1  0  0  0
 63145  1  0  0  0
 63146  1  0  0  0
 63147  1  0  0  0
 64148  1  0  0  0
 65149  1  0  0  0
 68 84  1  0  0  0
 71 72  2  0  0  0
 71 73  1  0  0  0
 71150  1  0  0  0
 72 74  1  0  0  0
 72151  1  0  0  0
 73 75  2  0  0  0
 73 85  1  0  0  0
 74 76  2  0  0  0
 74 86  1  0  0  0
 75 76  1  0  0  0
 75 87  1  0  0  0
 76 90  1  0  0  0
 77 79  2  0  0  0
 77 84  1  0  0  0
 77 89  1  0  0  0
 78 80  2  0  0  0
 78152  1  0  0  0
 78153  1  0  0  0
 79 80  1  0  0  0
 79154  1  0  0  0
 80155  1  0  0  0
 81 82  1  0  0  0
 81 83  1  0  0  0
 81156  1  0  0  0
 81157  1  0  0  0
 82 84  1  0  0  0
 82158  1  0  0  0
 82159  1  0  0  0
 83 89  1  0  0  0
 83160  1  0  0  0
 83161  1  0  0  0
 84162  1  0  0  0
 85163  1  0  0  0
 85164  1  0  0  0
 85165  1  0  0  0
 86 88  1  0  0  0
 86166  1  0  0  0
 86167  1  0  0  0
 87168  1  0  0  0
 87169  1  0  0  0
 87 89  1  0  0  0
 88170  1  0  0  0
 89171  1  0  0  0
M  CHG  1  89   1
M  ISO  4   1 100  68 101  84 101  88 100
M  END
> <chiral flag>
0

> <version>
0

> <s_m_source_file>
/data/baiqing/PycharmProjects/Reinvent-master-3.2/result/LINK_invent/BTK/process_docking_weight1_custom_product_contain_oxygen_bond_distance_aromatic_linkinvent_7_9_3/rearranged_h_0035.sdf

> <i_m_source_file_index>
87

> <r_mmod_Potential_Energy-OPLS-2005>
-137.940658569336

> <r_mmod_Stretch_Energy-OPLS-2005>
66.1814880371094

> <r_mmod_Bend_Energy-OPLS-2005>
128.241363525391

> <r_mmod_Torsional_Energy-OPLS-2005>
224.125518798828

> <r_mmod_Improper_Torsional_Energy-OPLS-2005>
4.44924974441528

> <r_mmod_Van_der_Waal_Energy-OPLS-2005>
147.104782104492

> <r_mmod_Electrostatic_Energy-OPLS-2005>
-324.191436767578

> <r_mmod_Solvation_Energy-OPLS-2005>
-411.728698730469

> <b_mmod_Minimization_Converged-OPLS-2005>
0

> <r_mmod_RMS_Derivative-OPLS-2005>
3.58069825172424

$$$$
88
                    3D
 Structure written by MMmdl.
167176  0  0  1  0            999 V2000
  -30.6201  -14.6401   20.5207 C   0  0  0  0  0  0
  -30.4520  -12.4008   19.4553 C   0  0  0  0  0  0
  -29.5200  -12.5143   18.2274 C   0  0  0  0  0  0
  -28.0444  -12.3388   18.6424 C   0  0  0  0  0  0
  -27.6562  -13.2149   19.8624 C   0  0  2  0  0  0
  -28.7016  -13.0671   20.9930 C   0  0  0  0  0  0
  -25.2563  -13.8179   20.5685 C   0  0  0  0  0  0
  -24.1812  -13.0429   20.9213 C   0  0  0  0  0  0
  -24.6373  -11.6914   20.8714 C   0  0  0  0  0  0
  -23.9046  -10.4293   21.0394 C   0  0  0  0  0  0
  -24.3600   -9.4211   21.9168 C   0  0  0  0  0  0
  -23.6277   -8.2238   22.0736 C   0  0  0  0  0  0
  -22.4264   -8.0276   21.3525 C   0  0  0  0  0  0
  -21.9899   -9.0256   20.4634 C   0  0  0  0  0  0
  -22.7227  -10.2135   20.3043 C   0  0  0  0  0  0
  -21.6834   -6.0734   22.5280 C   0  0  0  0  0  0
  -21.4005   -6.5634   23.8223 C   0  0  0  0  0  0
  -21.3658   -5.6782   24.9185 C   0  0  0  0  0  0
  -21.6056   -4.3046   24.7222 C   0  0  0  0  0  0
  -21.8819   -3.8145   23.4334 C   0  0  0  0  0  0
  -21.9194   -4.6967   22.3401 C   0  0  0  0  0  0
  -22.7841  -13.5233   21.1901 C   0  0  0  0  0  0
  -22.1657   -4.2150   21.0979 F   0  0  0  0  0  0
  -21.5635   -3.4540   25.7744 F   0  0  0  0  0  0
  -30.0233  -13.4111   20.4387 N   0  0  0  0  0  0
  -26.2987  -12.9343   20.3292 N   0  0  0  0  0  0
  -25.9296  -11.6510   20.5692 N   0  0  0  0  0  0
  -22.0459  -12.8206   22.0456 N   0  0  0  0  0  0
  -25.4292  -15.1890   20.4123 N   0  0  0  0  0  0
  -31.7767  -14.8315   20.1317 O   0  0  0  0  0  0
  -21.6622   -6.8869   21.4244 O   0  0  0  0  0  0
  -22.3525  -14.5551   20.6785 O   0  0  0  0  0  0
  -24.6293  -31.8542   23.2038 C   0  0  0  0  0  0
  -25.9130  -32.4748   23.8337 C   0  0  1  0  0  0
  -27.2065  -27.3010   20.1095 C   0  0  0  0  0  0
  -25.5883  -33.8537   24.2228 N   0  0  0  0  0  0
  -23.4225  -30.4858   21.5478 C   0  0  2  0  0  0
  -24.8657  -28.9468   20.1090 C   0  0  0  0  0  0
  -22.7501  -29.4605   22.4927 C   0  0  0  0  0  0
  -18.0308  -28.1377   22.8530 C   0  0  0  0  0  0
  -24.1485  -36.7308   23.2645 C   0  0  0  0  0  0
  -25.9688  -30.7861   21.3753 C   0  0  0  0  0  0
  -26.0400  -29.4134   20.7157 C   0  0  0  0  0  0
  -27.2188  -28.6034   20.7054 C   0  0  0  0  0  0
  -26.0259  -26.9276   19.4316 C   0  0  0  0  0  0
  -24.8620  -27.7095   19.4553 C   0  0  0  0  0  0
  -23.6349  -29.8259   20.1617 C   0  0  0  0  0  0
  -25.4106  -36.3063   24.0332 C   0  0  1  0  0  0
  -20.5903  -28.3661   23.1312 C   0  0  2  0  0  0
  -20.6768  -26.9379   22.5449 C   0  0  0  0  0  0
  -19.5727  -26.6366   21.5266 C   0  0  0  0  0  0
  -18.1920  -26.7927   22.1672 C   0  0  0  0  0  0
  -19.1561  -28.8845   23.2910 C   0  0  0  0  0  0
  -18.9476  -30.1463   23.8890 C   0  0  0  0  0  0
  -17.6463  -30.6565   24.0580 C   0  0  0  0  0  0
  -25.9051  -34.9428   23.5090 C   0  0  0  0  0  0
  -16.5353  -29.9059   23.6343 C   0  0  0  0  0  0
  -16.7302  -28.6494   23.0351 C   0  0  0  0  0  0
  -26.4488  -31.6599   25.0748 C   0  0  0  0  0  0
  -25.3729  -31.3797   26.1507 C   0  0  0  0  0  0
  -27.0351  -30.3012   24.6277 C   0  0  0  0  0  0
  -27.6017  -32.4363   25.7523 C   0  0  0  0  0  0
  -27.5575  -37.1826   24.8463 C   0  0  0  0  0  0
  -21.4201  -29.3014   22.3696 N   0  0  0  0  0  0
  -26.4277  -37.3766   23.9422 N   0  0  0  0  0  0
  -24.6944  -31.0559   22.1000 N   0  0  0  0  0  0
  -23.4244  -28.8116   23.2975 O   0  0  0  0  0  0
  -28.2916  -26.4057   20.1032 O   0  0  0  0  0  0
  -26.5652  -34.8911   22.4683 O   0  0  0  0  0  0
  -23.5443  -32.1329   23.7370 O   0  0  0  0  0  0
  -30.3041  -19.4088   21.4841 C   0  0  0  0  0  0
  -28.8390  -17.6782   19.8870 C   0  0  0  0  0  0
  -29.2870  -20.0041   20.6762 C   0  0  0  0  0  0
  -30.5470  -17.9953   21.5461 C   0  0  0  0  0  0
  -28.5572  -19.0768   19.8605 C   0  0  0  0  0  0
  -29.8067  -17.0926   20.7371 C   0  0  0  0  0  0
  -29.3966  -24.1022   20.6435 C   0  0  0  0  0  0
  -30.6459  -24.4108   21.0283 C   0  0  0  0  0  0
  -26.7944  -23.3590   19.3832 C   0  0  0  0  0  0
  -26.8591  -24.2549   20.6378 C   0  0  0  0  0  0
  -28.1715  -22.8431   18.9088 C   0  0  0  0  0  0
  -28.1648  -25.0773   20.7856 C   0  0  2  0  0  0
  -31.5209  -17.4561   22.5816 C   0  0  0  0  0  0
  -27.3628  -19.4806   19.0097 C   0  0  0  0  0  0
  -28.8505  -21.5146   20.9589 C   0  0  0  0  0  0
  -29.7870  -15.6474   20.9245 N   0  0  0  0  0  0
  -29.1308  -22.6971   20.0261 N   0  3  2  0  0  0
  -31.4932  -12.5337   19.1596 H   0  0  0  0  0  0
  -30.3928  -11.4038   19.8945 H   0  0  0  0  0  0
  -29.7884  -11.7636   17.4823 H   0  0  0  0  0  0
  -29.6604  -13.4823   17.7422 H   0  0  0  0  0  0
  -27.9000  -11.2866   18.8948 H   0  0  0  0  0  0
  -27.3869  -12.5407   17.7965 H   0  0  0  0  0  0
  -27.6725  -14.2466   19.5118 H   0  0  0  0  0  0
  -28.7082  -12.0463   21.3747 H   0  0  0  0  0  0
  -28.4357  -13.6912   21.8484 H   0  0  0  0  0  0
  -25.2734   -9.5705   22.4753 H   0  0  0  0  0  0
  -24.0005   -7.4622   22.7435 H   0  0  0  0  0  0
  -21.0832   -8.8767   19.8920 H   0  0  0  0  0  0
  -22.3669  -10.9678   19.6157 H   0  0  0  0  0  0
  -21.1974   -7.6138   23.9729 H   0  0  0  0  0  0
  -21.1483   -6.0505   25.9089 H   0  0  0  0  0  0
  -22.0594   -2.7606   23.2843 H   0  0  0  0  0  0
  -22.4033  -11.9865   22.4858 H   0  0  0  0  0  0
  -21.1080  -13.1250   22.2639 H   0  0  0  0  0  0
  -24.6639  -15.8480   20.5150 H   0  0  0  0  0  0
  -26.2837  -15.6253   20.0935 H   0  0  0  0  0  0
  -26.7222  -32.5400   23.1091 H   0  0  0  0  0  0
  -24.9931  -33.9669   25.0306 H   0  0  0  0  0  0
  -22.7219  -31.3124   21.4079 H   0  0  0  0  0  0
  -23.3726  -35.9661   23.3285 H   0  0  0  0  0  0
  -24.3577  -36.8955   22.2065 H   0  0  0  0  0  0
  -23.7283  -37.6522   23.6676 H   0  0  0  0  0  0
  -26.1130  -31.5542   20.6118 H   0  0  0  0  0  0
  -26.8420  -30.8235   22.0130 H   0  0  0  0  0  0
  -28.1258  -28.9671   21.1710 H   0  0  0  0  0  0
  -25.9833  -26.0000   18.8864 H   0  0  0  0  0  0
  -23.9669  -27.3687   18.9515 H   0  0  0  0  0  0
  -23.7521  -30.6024   19.4048 H   0  0  0  0  0  0
  -22.7542  -29.2564   19.8575 H   0  0  0  0  0  0
  -25.1305  -36.1893   25.0828 H   0  0  0  0  0  0
  -21.0024  -28.3233   24.1419 H   0  0  0  0  0  0
  -20.5674  -26.2279   23.3657 H   0  0  0  0  0  0
  -21.6639  -26.7408   22.1237 H   0  0  0  0  0  0
  -19.6866  -25.6294   21.1264 H   0  0  0  0  0  0
  -19.6619  -27.3217   20.6825 H   0  0  0  0  0  0
  -17.4194  -26.6736   21.4055 H   0  0  0  0  0  0
  -18.0259  -26.0055   22.9039 H   0  0  0  0  0  0
  -19.7944  -30.7324   24.2189 H   0  0  0  0  0  0
  -17.5005  -31.6254   24.5181 H   0  0  0  0  0  0
  -15.5347  -30.2933   23.7674 H   0  0  0  0  0  0
  -15.8723  -28.0826   22.6986 H   0  0  0  0  0  0
  -24.5866  -30.7143   25.7944 H   0  0  0  0  0  0
  -24.8955  -32.2981   26.4920 H   0  0  0  0  0  0
  -25.8067  -30.9036   27.0311 H   0  0  0  0  0  0
  -26.2970  -29.6769   24.1236 H   0  0  0  0  0  0
  -27.3960  -29.7278   25.4839 H   0  0  0  0  0  0
  -27.8856  -30.4307   23.9578 H   0  0  0  0  0  0
  -27.2568  -33.3653   26.2087 H   0  0  0  0  0  0
  -28.3811  -32.6973   25.0346 H   0  0  0  0  0  0
  -28.0692  -31.8515   26.5454 H   0  0  0  0  0  0
  -28.2589  -38.0125   24.7479 H   0  0  0  0  0  0
  -28.1057  -36.2655   24.6275 H   0  0  0  0  0  0
  -27.2307  -37.1492   25.8870 H   0  0  0  0  0  0
  -20.9368  -29.8726   21.6913 H   0  0  0  0  0  0
  -26.0140  -38.2846   24.1369 H   0  0  0  0  0  0
  -30.8485  -20.0485   22.1669 H   0  0  0  0  0  0
  -28.2196  -17.0224   19.2915 H   0  0  0  0  0  0
  -30.8752  -25.3715   21.4657 H   0  0  0  0  0  0
  -31.4645  -23.7160   20.9055 H   0  0  0  0  0  0
  -26.3082  -23.8686   18.5537 H   0  0  0  0  0  0
  -26.1537  -22.5151   19.6288 H   0  0  0  0  0  0
  -26.8247  -23.5902   21.5037 H   0  0  0  0  0  0
  -25.9493  -24.8339   20.7724 H   0  0  0  0  0  0
  -28.5960  -23.5687   18.2129 H   0  0  0  0  0  0
  -28.0740  -21.9309   18.3287 H   0  0  0  0  0  0
  -28.1850  -25.3710   21.8371 H   0  0  0  0  0  0
  -32.2676  -16.7977   22.1354 H   0  0  0  0  0  0
  -32.0550  -18.2610   23.0862 H   0  0  0  0  0  0
  -30.9814  -16.8810   23.3340 H   0  0  0  0  0  0
  -27.6606  -19.7636   18.0018 H   0  0  0  0  0  0
  -26.7850  -20.2817   19.4613 H   0  0  0  0  0  0
  -26.6782  -18.6400   18.8900 H   0  0  0  0  0  0
  -29.3253  -21.7860   21.9013 H   0  0  0  0  0  0
  -27.7870  -21.4883   21.1947 H   0  0  0  0  0  0
  -28.8729  -15.2859   21.1491 H   0  0  0  0  0  0
  -29.9891  -22.4293   19.5725 H   0  0  0  0  0  0
  1 25  1  0  0  0
  1 30  2  0  0  0
  1 86  1  0  0  0
  2  3  1  0  0  0
  2 25  1  0  0  0
  2 88  1  0  0  0
  2 89  1  0  0  0
  3  4  1  0  0  0
  3 90  1  0  0  0
  3 91  1  0  0  0
  4  5  1  0  0  0
  4 92  1  0  0  0
  4 93  1  0  0  0
  5  6  1  0  0  0
  5 26  1  0  0  0
  5 94  1  0  0  0
  6 25  1  0  0  0
  6 95  1  0  0  0
  6 96  1  0  0  0
  7  8  2  0  0  0
  7 26  1  0  0  0
  7 29  1  0  0  0
  8  9  1  0  0  0
  8 22  1  0  0  0
  9 10  1  0  0  0
  9 27  2  0  0  0
 10 11  2  0  0  0
 10 15  1  0  0  0
 11 12  1  0  0  0
 11 97  1  0  0  0
 12 13  2  0  0  0
 12 98  1  0  0  0
 13 14  1  0  0  0
 13 31  1  0  0  0
 14 15  2  0  0  0
 14 99  1  0  0  0
 15100  1  0  0  0
 16 17  2  0  0  0
 16 21  1  0  0  0
 16 31  1  0  0  0
 17 18  1  0  0  0
 17101  1  0  0  0
 18 19  2  0  0  0
 18102  1  0  0  0
 19 20  1  0  0  0
 19 24  1  0  0  0
 20 21  2  0  0  0
 20103  1  0  0  0
 21 23  1  0  0  0
 22 28  1  0  0  0
 22 32  2  0  0  0
 26 27  1  0  0  0
 28104  1  0  0  0
 28105  1  0  0  0
 29106  1  0  0  0
 29107  1  0  0  0
 33 34  1  0  0  0
 33 66  1  0  0  0
 33 70  2  0  0  0
 34 36  1  0  0  0
 34 59  1  0  0  0
 34108  1  0  0  0
 35 44  2  0  0  0
 35 45  1  0  0  0
 35 68  1  0  0  0
 36 56  1  0  0  0
 36109  1  0  0  0
 37 39  1  0  0  0
 37 47  1  0  0  0
 37 66  1  0  0  0
 37110  1  0  0  0
 38 43  2  0  0  0
 38 46  1  0  0  0
 38 47  1  0  0  0
 39 64  1  0  0  0
 39 67  2  0  0  0
 40 52  1  0  0  0
 40 53  2  0  0  0
 40 58  1  0  0  0
 41111  1  0  0  0
 41112  1  0  0  0
 41113  1  0  0  0
 41 48  1  0  0  0
 42 43  1  0  0  0
 42 66  1  0  0  0
 42114  1  0  0  0
 42115  1  0  0  0
 43 44  1  0  0  0
 44116  1  0  0  0
 45 46  2  0  0  0
 45117  1  0  0  0
 46118  1  0  0  0
 47119  1  0  0  0
 47120  1  0  0  0
 48 56  1  0  0  0
 48 65  1  0  0  0
 48121  1  0  0  0
 49 50  1  0  0  0
 49 53  1  0  0  0
 49 64  1  0  0  0
 49122  1  0  0  0
 50 51  1  0  0  0
 50123  1  0  0  0
 50124  1  0  0  0
 51 52  1  0  0  0
 51125  1  0  0  0
 51126  1  0  0  0
 52127  1  0  0  0
 52128  1  0  0  0
 53 54  1  0  0  0
 54 55  2  0  0  0
 54129  1  0  0  0
 55 57  1  0  0  0
 55130  1  0  0  0
 56 69  2  0  0  0
 57 58  2  0  0  0
 57131  1  0  0  0
 58132  1  0  0  0
 59 60  1  0  0  0
 59 61  1  0  0  0
 59 62  1  0  0  0
 60133  1  0  0  0
 60134  1  0  0  0
 60135  1  0  0  0
 61136  1  0  0  0
 61137  1  0  0  0
 61138  1  0  0  0
 62139  1  0  0  0
 62140  1  0  0  0
 62141  1  0  0  0
 63 65  1  0  0  0
 63142  1  0  0  0
 63143  1  0  0  0
 63144  1  0  0  0
 64145  1  0  0  0
 65146  1  0  0  0
 68 82  1  0  0  0
 71 73  2  0  0  0
 71 74  1  0  0  0
 71147  1  0  0  0
 72 75  2  0  0  0
 72 76  1  0  0  0
 72148  1  0  0  0
 73 75  1  0  0  0
 73 85  1  0  0  0
 74 76  2  0  0  0
 74 83  1  0  0  0
 75 84  1  0  0  0
 76 86  1  0  0  0
 77 78  2  0  0  0
 77 82  1  0  0  0
 77 87  1  0  0  0
 78149  1  0  0  0
 78150  1  0  0  0
 79 80  1  0  0  0
 79 81  1  0  0  0
 79151  1  0  0  0
 79152  1  0  0  0
 80 82  1  0  0  0
 80153  1  0  0  0
 80154  1  0  0  0
 81 87  1  0  0  0
 81155  1  0  0  0
 81156  1  0  0  0
 82157  1  0  0  0
 83158  1  0  0  0
 83159  1  0  0  0
 83160  1  0  0  0
 84161  1  0  0  0
 84162  1  0  0  0
 84163  1  0  0  0
 85164  1  0  0  0
 85165  1  0  0  0
 85 87  1  0  0  0
 86166  1  0  0  0
 87167  1  0  0  0
M  CHG  1  87   1
M  ISO  4   1 100  68 101  82 101  86 100
M  END
> <chiral flag>
0

> <version>
0

> <s_m_source_file>
/data/baiqing/PycharmProjects/Reinvent-master-3.2/result/LINK_invent/BTK/process_docking_weight1_custom_product_contain_oxygen_bond_distance_aromatic_linkinvent_7_9_3/rearranged_h_0035.sdf

> <i_m_source_file_index>
88

> <r_mmod_Potential_Energy-OPLS-2005>
58.8596382141113

> <r_mmod_Stretch_Energy-OPLS-2005>
96.3505325317383

> <r_mmod_Bend_Energy-OPLS-2005>
184.276580810547

> <r_mmod_Torsional_Energy-OPLS-2005>
288.906799316406

> <r_mmod_Improper_Torsional_Energy-OPLS-2005>
8.98669624328613

> <r_mmod_Van_der_Waal_Energy-OPLS-2005>
148.708053588867

> <r_mmod_Electrostatic_Energy-OPLS-2005>
-291.385711669922

> <r_mmod_Solvation_Energy-OPLS-2005>
-432.289520263672

> <b_mmod_Minimization_Converged-OPLS-2005>
0

> <r_mmod_RMS_Derivative-OPLS-2005>
5.03513622283936

$$$$
89
                    3D
 Structure written by MMmdl.
170179  0  0  1  0            999 V2000
  -30.5338  -14.8215   20.5488 C   0  0  0  0  0  0
  -30.4661  -12.5260   19.4803 C   0  0  0  0  0  0
  -29.5278  -12.5642   18.2491 C   0  0  0  0  0  0
  -28.0525  -12.3649   18.6548 C   0  0  0  0  0  0
  -27.6553  -13.2336   19.8780 C   0  0  2  0  0  0
  -28.7059  -13.0940   21.0054 C   0  0  0  0  0  0
  -25.2373  -13.8125   20.5342 C   0  0  0  0  0  0
  -24.1761  -13.0385   20.9115 C   0  0  0  0  0  0
  -24.6418  -11.6888   20.8769 C   0  0  0  0  0  0
  -23.9088  -10.4272   21.0425 C   0  0  0  0  0  0
  -24.3628   -9.4191   21.9203 C   0  0  0  0  0  0
  -23.6298   -8.2233   22.0764 C   0  0  0  0  0  0
  -22.4287   -8.0270   21.3545 C   0  0  0  0  0  0
  -21.9920   -9.0251   20.4658 C   0  0  0  0  0  0
  -22.7253  -10.2125   20.3075 C   0  0  0  0  0  0
  -21.6857   -6.0733   22.5276 C   0  0  0  0  0  0
  -21.4016   -6.5637   23.8208 C   0  0  0  0  0  0
  -21.3657   -5.6787   24.9171 C   0  0  0  0  0  0
  -21.6050   -4.3052   24.7220 C   0  0  0  0  0  0
  -21.8817   -3.8144   23.4341 C   0  0  0  0  0  0
  -21.9196   -4.6962   22.3398 C   0  0  0  0  0  0
  -22.7780  -13.5171   21.1796 C   0  0  0  0  0  0
  -22.1662   -4.2147   21.0975 F   0  0  0  0  0  0
  -21.5631   -3.4536   25.7735 F   0  0  0  0  0  0
  -29.9985  -13.5421   20.4618 N   0  0  0  0  0  0
  -26.2979  -12.9405   20.3350 N   0  0  0  0  0  0
  -25.9392  -11.6551   20.5900 N   0  0  0  0  0  0
  -22.0473  -12.8197   22.0418 N   0  0  0  0  0  0
  -25.3703  -15.1789   20.3172 N   0  0  0  0  0  0
  -31.6483  -15.0321   20.0577 O   0  0  0  0  0  0
  -21.6642   -6.8875   21.4240 O   0  0  0  0  0  0
  -22.3443  -14.5471   20.6655 O   0  0  0  0  0  0
  -24.6350  -31.8514   23.1913 C   0  0  0  0  0  0
  -25.9151  -32.4733   23.8289 C   0  0  1  0  0  0
  -27.2353  -27.2127   20.1661 C   0  0  0  0  0  0
  -25.5930  -33.8535   24.2215 N   0  0  0  0  0  0
  -23.4344  -30.4663   21.5367 C   0  0  2  0  0  0
  -24.8837  -28.8837   20.1326 C   0  0  0  0  0  0
  -22.7506  -29.4581   22.4923 C   0  0  0  0  0  0
  -18.0291  -28.1386   22.8472 C   0  0  0  0  0  0
  -24.1493  -36.7274   23.2644 C   0  0  0  0  0  0
  -25.9810  -30.7476   21.3768 C   0  0  0  0  0  0
  -26.0551  -29.3573   20.7373 C   0  0  0  0  0  0
  -27.2340  -28.5387   20.7316 C   0  0  0  0  0  0
  -26.0370  -26.8009   19.5483 C   0  0  0  0  0  0
  -24.8801  -27.6138   19.5286 C   0  0  0  0  0  0
  -23.6580  -29.7816   20.1608 C   0  0  0  0  0  0
  -25.4124  -36.3056   24.0321 C   0  0  1  0  0  0
  -20.5892  -28.3697   23.1262 C   0  0  2  0  0  0
  -20.6774  -26.9412   22.5414 C   0  0  0  0  0  0
  -19.5760  -26.6374   21.5209 C   0  0  0  0  0  0
  -18.1933  -26.7929   22.1610 C   0  0  0  0  0  0
  -19.1546  -28.8859   23.2857 C   0  0  0  0  0  0
  -18.9471  -30.1456   23.8879 C   0  0  0  0  0  0
  -17.6471  -30.6584   24.0558 C   0  0  0  0  0  0
  -25.9062  -34.9428   23.5072 C   0  0  0  0  0  0
  -16.5359  -29.9080   23.6332 C   0  0  0  0  0  0
  -16.7279  -28.6500   23.0349 C   0  0  0  0  0  0
  -26.4505  -31.6579   25.0702 C   0  0  0  0  0  0
  -25.3726  -31.3745   26.1421 C   0  0  0  0  0  0
  -27.0362  -30.2990   24.6231 C   0  0  0  0  0  0
  -27.6037  -32.4343   25.7491 C   0  0  0  0  0  0
  -27.5576  -37.1790   24.8462 C   0  0  0  0  0  0
  -21.4213  -29.3040   22.3650 N   0  0  0  0  0  0
  -26.4290  -37.3760   23.9405 N   0  0  0  0  0  0
  -24.7026  -31.0426   22.0915 N   0  0  0  0  0  0
  -23.4177  -28.8142   23.3060 O   0  0  0  0  0  0
  -28.3851  -26.3969   20.0195 O   0  0  0  0  0  0
  -26.5645  -34.8914   22.4652 O   0  0  0  0  0  0
  -23.5486  -32.1357   23.7177 O   0  0  0  0  0  0
  -27.7364  -19.6964   21.1832 C   0  0  0  0  0  0
  -27.1834  -18.4957   21.6518 C   0  0  0  0  0  0
  -29.0866  -19.7949   20.8220 C   0  0  0  0  0  0
  -27.9681  -17.3168   21.7472 C   0  0  0  0  0  0
  -29.8348  -18.5111   20.7340 C   0  0  0  0  0  0
  -29.2600  -17.2120   21.1449 C   0  0  0  0  0  0
  -30.2722  -23.4036   19.5291 C   0  0  0  0  0  0
  -31.1719  -23.0790   18.5804 C   0  0  0  0  0  0
  -30.1589  -24.7597   20.2319 C   0  0  0  0  0  0
  -28.0916  -23.5603   20.4057 C   0  0  0  0  0  0
  -28.7011  -25.0416   20.6447 C   0  0  2  0  0  0
  -25.7399  -18.5418   22.1339 C   0  0  0  0  0  0
  -27.4515  -16.1746   22.6259 C   0  0  0  0  0  0
  -31.2929  -18.5409   20.3182 C   0  0  0  0  0  0
  -31.2559  -21.7738   17.8116 C   0  0  0  0  0  0
  -29.6388  -21.3201   20.8360 C   0  0  0  0  0  0
  -29.7866  -15.7874   21.2347 N   0  0  0  0  0  0
  -29.1456  -22.5235   19.9614 N   0  3  1  0  0  0
  -31.4965  -12.7103   19.1698 H   0  0  0  0  0  0
  -30.4693  -11.5318   19.9303 H   0  0  0  0  0  0
  -29.8238  -11.8065   17.5230 H   0  0  0  0  0  0
  -29.6377  -13.5266   17.7468 H   0  0  0  0  0  0
  -27.9149  -11.3098   18.8941 H   0  0  0  0  0  0
  -27.3959  -12.5757   17.8103 H   0  0  0  0  0  0
  -27.6643  -14.2716   19.5439 H   0  0  0  0  0  0
  -28.7700  -12.0547   21.3304 H   0  0  0  0  0  0
  -28.4339  -13.6421   21.9028 H   0  0  0  0  0  0
  -25.2780   -9.5663   22.4774 H   0  0  0  0  0  0
  -24.0007   -7.4623   22.7482 H   0  0  0  0  0  0
  -21.0850   -8.8771   19.8962 H   0  0  0  0  0  0
  -22.3714  -10.9664   19.6178 H   0  0  0  0  0  0
  -21.2004   -7.6147   23.9707 H   0  0  0  0  0  0
  -21.1482   -6.0522   25.9072 H   0  0  0  0  0  0
  -22.0602   -2.7609   23.2842 H   0  0  0  0  0  0
  -22.4110  -11.9871   22.4812 H   0  0  0  0  0  0
  -21.1103  -13.1230   22.2656 H   0  0  0  0  0  0
  -24.5820  -15.8092   20.4045 H   0  0  0  0  0  0
  -26.2133  -15.6411   20.0007 H   0  0  0  0  0  0
  -26.7216  -32.5375   23.1022 H   0  0  0  0  0  0
  -25.0059  -33.9668   25.0348 H   0  0  0  0  0  0
  -22.7339  -31.2893   21.3777 H   0  0  0  0  0  0
  -23.3758  -35.9600   23.3306 H   0  0  0  0  0  0
  -24.3579  -36.8911   22.2058 H   0  0  0  0  0  0
  -23.7240  -37.6468   23.6684 H   0  0  0  0  0  0
  -26.1219  -31.4966   20.5959 H   0  0  0  0  0  0
  -26.8573  -30.8065   22.0110 H   0  0  0  0  0  0
  -28.1448  -28.9179   21.1744 H   0  0  0  0  0  0
  -26.0019  -25.8368   19.0600 H   0  0  0  0  0  0
  -23.9842  -27.2461   19.0467 H   0  0  0  0  0  0
  -23.7918  -30.5485   19.3969 H   0  0  0  0  0  0
  -22.7749  -29.2159   19.8567 H   0  0  0  0  0  0
  -25.1312  -36.1890   25.0812 H   0  0  0  0  0  0
  -20.9975  -28.3289   24.1386 H   0  0  0  0  0  0
  -20.5652  -26.2321   23.3630 H   0  0  0  0  0  0
  -21.6648  -26.7419   22.1227 H   0  0  0  0  0  0
  -19.6923  -25.6279   21.1252 H   0  0  0  0  0  0
  -19.6707  -27.3175   20.6734 H   0  0  0  0  0  0
  -17.4207  -26.6677   21.4005 H   0  0  0  0  0  0
  -18.0326  -26.0071   22.9007 H   0  0  0  0  0  0
  -19.7951  -30.7268   24.2246 H   0  0  0  0  0  0
  -17.5029  -31.6265   24.5161 H   0  0  0  0  0  0
  -15.5360  -30.2975   23.7668 H   0  0  0  0  0  0
  -15.8680  -28.0810   22.7076 H   0  0  0  0  0  0
  -24.5884  -30.7114   25.7752 H   0  0  0  0  0  0
  -24.8940  -32.2921   26.4851 H   0  0  0  0  0  0
  -25.8039  -30.8912   27.0196 H   0  0  0  0  0  0
  -26.2956  -29.6719   24.1250 H   0  0  0  0  0  0
  -27.4015  -29.7279   25.4777 H   0  0  0  0  0  0
  -27.8847  -30.4253   23.9503 H   0  0  0  0  0  0
  -27.2614  -33.3639   26.2055 H   0  0  0  0  0  0
  -28.3855  -32.6918   25.0334 H   0  0  0  0  0  0
  -28.0698  -31.8487   26.5425 H   0  0  0  0  0  0
  -28.2587  -38.0091   24.7506 H   0  0  0  0  0  0
  -28.1075  -36.2619   24.6291 H   0  0  0  0  0  0
  -27.2295  -37.1442   25.8865 H   0  0  0  0  0  0
  -20.9413  -29.8755   21.6835 H   0  0  0  0  0  0
  -26.0165  -38.2830   24.1413 H   0  0  0  0  0  0
  -27.1399  -20.5972   21.2380 H   0  0  0  0  0  0
  -31.9252  -23.8107   18.3223 H   0  0  0  0  0  0
  -30.5404  -25.5371   19.5686 H   0  0  0  0  0  0
  -30.8042  -24.7555   21.1102 H   0  0  0  0  0  0
  -27.3358  -23.6206   19.6230 H   0  0  0  0  0  0
  -27.5787  -23.2069   21.3000 H   0  0  0  0  0  0
  -28.6820  -25.2201   21.7209 H   0  0  0  0  0  0
  -25.1996  -19.3789   21.6905 H   0  0  0  0  0  0
  -25.6998  -18.6562   23.2175 H   0  0  0  0  0  0
  -25.2004  -17.6359   21.8565 H   0  0  0  0  0  0
  -26.6135  -16.4520   23.2618 H   0  0  0  0  0  0
  -28.2291  -15.8439   23.3146 H   0  0  0  0  0  0
  -27.1407  -15.3241   22.0373 H   0  0  0  0  0  0
  -31.4943  -19.3500   19.6182 H   0  0  0  0  0  0
  -31.5782  -17.6157   19.8229 H   0  0  0  0  0  0
  -31.9315  -18.6704   21.1919 H   0  0  0  0  0  0
  -30.4425  -21.0854   18.0376 H   0  0  0  0  0  0
  -32.1984  -21.2728   18.0353 H   0  0  0  0  0  0
  -31.2328  -21.9774   16.7401 H   0  0  0  0  0  0
  -30.7111  -21.2295   20.6722 H   0  0  0  0  0  0
  -29.5774  -21.6591   21.8707 H   0  0  0  0  0  0
  -29.1292  -15.2509   21.7783 H   0  0  0  0  0  0
  -28.7659  -22.0858   19.1353 H   0  0  0  0  0  0
  1 25  1  0  0  0
  1 30  2  0  0  0
  1 87  1  0  0  0
  2  3  1  0  0  0
  2 25  1  0  0  0
  2 89  1  0  0  0
  2 90  1  0  0  0
  3  4  1  0  0  0
  3 91  1  0  0  0
  3 92  1  0  0  0
  4  5  1  0  0  0
  4 93  1  0  0  0
  4 94  1  0  0  0
  5  6  1  0  0  0
  5 26  1  0  0  0
  5 95  1  0  0  0
  6 25  1  0  0  0
  6 96  1  0  0  0
  6 97  1  0  0  0
  7  8  2  0  0  0
  7 26  1  0  0  0
  7 29  1  0  0  0
  8  9  1  0  0  0
  8 22  1  0  0  0
  9 10  1  0  0  0
  9 27  2  0  0  0
 10 11  2  0  0  0
 10 15  1  0  0  0
 11 12  1  0  0  0
 11 98  1  0  0  0
 12 13  2  0  0  0
 12 99  1  0  0  0
 13 14  1  0  0  0
 13 31  1  0  0  0
 14 15  2  0  0  0
 14100  1  0  0  0
 15101  1  0  0  0
 16 17  2  0  0  0
 16 21  1  0  0  0
 16 31  1  0  0  0
 17 18  1  0  0  0
 17102  1  0  0  0
 18 19  2  0  0  0
 18103  1  0  0  0
 19 20  1  0  0  0
 19 24  1  0  0  0
 20 21  2  0  0  0
 20104  1  0  0  0
 21 23  1  0  0  0
 22 28  1  0  0  0
 22 32  2  0  0  0
 26 27  1  0  0  0
 28105  1  0  0  0
 28106  1  0  0  0
 29107  1  0  0  0
 29108  1  0  0  0
 33 34  1  0  0  0
 33 66  1  0  0  0
 33 70  2  0  0  0
 34 36  1  0  0  0
 34 59  1  0  0  0
 34109  1  0  0  0
 35 44  2  0  0  0
 35 45  1  0  0  0
 35 68  1  0  0  0
 36 56  1  0  0  0
 36110  1  0  0  0
 37 39  1  0  0  0
 37 47  1  0  0  0
 37 66  1  0  0  0
 37111  1  0  0  0
 38 43  2  0  0  0
 38 46  1  0  0  0
 38 47  1  0  0  0
 39 64  1  0  0  0
 39 67  2  0  0  0
 40 52  1  0  0  0
 40 53  2  0  0  0
 40 58  1  0  0  0
 41112  1  0  0  0
 41113  1  0  0  0
 41114  1  0  0  0
 41 48  1  0  0  0
 42 43  1  0  0  0
 42 66  1  0  0  0
 42115  1  0  0  0
 42116  1  0  0  0
 43 44  1  0  0  0
 44117  1  0  0  0
 45 46  2  0  0  0
 45118  1  0  0  0
 46119  1  0  0  0
 47120  1  0  0  0
 47121  1  0  0  0
 48 56  1  0  0  0
 48 65  1  0  0  0
 48122  1  0  0  0
 49 50  1  0  0  0
 49 53  1  0  0  0
 49 64  1  0  0  0
 49123  1  0  0  0
 50 51  1  0  0  0
 50124  1  0  0  0
 50125  1  0  0  0
 51 52  1  0  0  0
 51126  1  0  0  0
 51127  1  0  0  0
 52128  1  0  0  0
 52129  1  0  0  0
 53 54  1  0  0  0
 54 55  2  0  0  0
 54130  1  0  0  0
 55 57  1  0  0  0
 55131  1  0  0  0
 56 69  2  0  0  0
 57 58  2  0  0  0
 57132  1  0  0  0
 58133  1  0  0  0
 59 60  1  0  0  0
 59 61  1  0  0  0
 59 62  1  0  0  0
 60134  1  0  0  0
 60135  1  0  0  0
 60136  1  0  0  0
 61137  1  0  0  0
 61138  1  0  0  0
 61139  1  0  0  0
 62140  1  0  0  0
 62141  1  0  0  0
 62142  1  0  0  0
 63 65  1  0  0  0
 63143  1  0  0  0
 63144  1  0  0  0
 63145  1  0  0  0
 64146  1  0  0  0
 65147  1  0  0  0
 68 81  1  0  0  0
 71 72  2  0  0  0
 71 73  1  0  0  0
 71148  1  0  0  0
 72 74  1  0  0  0
 72 82  1  0  0  0
 73 75  2  0  0  0
 73 86  1  0  0  0
 74 76  2  0  0  0
 74 83  1  0  0  0
 75 76  1  0  0  0
 75 84  1  0  0  0
 76 87  1  0  0  0
 77 78  2  0  0  0
 77 79  1  0  0  0
 77 88  1  0  0  0
 78 85  1  0  0  0
 78149  1  0  0  0
 79 81  1  0  0  0
 79150  1  0  0  0
 79151  1  0  0  0
 80 81  1  0  0  0
 80 88  1  0  0  0
 80152  1  0  0  0
 80153  1  0  0  0
 81154  1  0  0  0
 82155  1  0  0  0
 82156  1  0  0  0
 82157  1  0  0  0
 83158  1  0  0  0
 83159  1  0  0  0
 83160  1  0  0  0
 84161  1  0  0  0
 84162  1  0  0  0
 84163  1  0  0  0
 85164  1  0  0  0
 85165  1  0  0  0
 85166  1  0  0  0
 86167  1  0  0  0
 86168  1  0  0  0
 86 88  1  0  0  0
 87169  1  0  0  0
 88170  1  0  0  0
M  CHG  1  88   1
M  ISO  4   1 100  68 101  81 101  87 100
M  END
> <chiral flag>
0

> <version>
0

> <s_m_source_file>
/data/baiqing/PycharmProjects/Reinvent-master-3.2/result/LINK_invent/BTK/process_docking_weight1_custom_product_contain_oxygen_bond_distance_aromatic_linkinvent_7_9_3/rearranged_h_0035.sdf

> <i_m_source_file_index>
89

> <r_mmod_Potential_Energy-OPLS-2005>
331.277130126953

> <r_mmod_Stretch_Energy-OPLS-2005>
177.483734130859

> <r_mmod_Bend_Energy-OPLS-2005>
349.521331787109

> <r_mmod_Torsional_Energy-OPLS-2005>
314.910278320312

> <r_mmod_Improper_Torsional_Energy-OPLS-2005>
8.66136169433594

> <r_mmod_Van_der_Waal_Energy-OPLS-2005>
129.205520629883

> <r_mmod_Electrostatic_Energy-OPLS-2005>
-347.058074951172

> <r_mmod_Solvation_Energy-OPLS-2005>
-411.621826171875

> <b_mmod_Minimization_Converged-OPLS-2005>
0

> <r_mmod_RMS_Derivative-OPLS-2005>
1.45395600795746

$$$$
90
                    3D
 Structure written by MMmdl.
166175  0  0  1  0            999 V2000
  -30.6478  -14.6196   20.5336 C   0  0  0  0  0  0
  -30.4333  -12.3841   19.4589 C   0  0  0  0  0  0
  -29.5087  -12.5118   18.2283 C   0  0  0  0  0  0
  -28.0309  -12.3544   18.6359 C   0  0  0  0  0  0
  -27.6552  -13.2199   19.8680 C   0  0  2  0  0  0
  -28.6967  -13.0666   21.0000 C   0  0  0  0  0  0
  -25.2554  -13.8183   20.5686 C   0  0  0  0  0  0
  -24.1827  -13.0442   20.9192 C   0  0  0  0  0  0
  -24.6400  -11.6914   20.8737 C   0  0  0  0  0  0
  -23.9072  -10.4291   21.0395 C   0  0  0  0  0  0
  -24.3618   -9.4208   21.9179 C   0  0  0  0  0  0
  -23.6285   -8.2250   22.0755 C   0  0  0  0  0  0
  -22.4266   -8.0289   21.3548 C   0  0  0  0  0  0
  -21.9899   -9.0265   20.4655 C   0  0  0  0  0  0
  -22.7236  -10.2140   20.3054 C   0  0  0  0  0  0
  -21.6855   -6.0729   22.5275 C   0  0  0  0  0  0
  -21.4022   -6.5636   23.8208 C   0  0  0  0  0  0
  -21.3655   -5.6790   24.9169 C   0  0  0  0  0  0
  -21.6035   -4.3050   24.7223 C   0  0  0  0  0  0
  -21.8820   -3.8141   23.4346 C   0  0  0  0  0  0
  -21.9195   -4.6956   22.3401 C   0  0  0  0  0  0
  -22.7845  -13.5232   21.1842 C   0  0  0  0  0  0
  -22.1660   -4.2143   21.0978 F   0  0  0  0  0  0
  -21.5624   -3.4534   25.7735 F   0  0  0  0  0  0
  -30.0167  -13.4045   20.4439 N   0  0  0  0  0  0
  -26.2993  -12.9372   20.3332 N   0  0  0  0  0  0
  -25.9332  -11.6522   20.5757 N   0  0  0  0  0  0
  -22.0477  -12.8245   22.0405 N   0  0  0  0  0  0
  -25.4257  -15.1904   20.4078 N   0  0  0  0  0  0
  -31.7901  -14.7517   20.0933 O   0  0  0  0  0  0
  -21.6638   -6.8879   21.4241 O   0  0  0  0  0  0
  -22.3528  -14.5523   20.6667 O   0  0  0  0  0  0
  -24.6240  -31.8613   23.2051 C   0  0  0  0  0  0
  -25.9098  -32.4785   23.8369 C   0  0  1  0  0  0
  -27.2220  -27.3311   20.1206 C   0  0  0  0  0  0
  -25.5918  -33.8584   24.2297 N   0  0  0  0  0  0
  -23.4161  -30.4867   21.5470 C   0  0  2  0  0  0
  -24.8628  -28.9483   20.1088 C   0  0  0  0  0  0
  -22.7457  -29.4628   22.4939 C   0  0  0  0  0  0
  -18.0285  -28.1383   22.8483 C   0  0  0  0  0  0
  -24.1485  -36.7296   23.2635 C   0  0  0  0  0  0
  -25.9561  -30.7970   21.3758 C   0  0  0  0  0  0
  -26.0294  -29.4262   20.7175 C   0  0  0  0  0  0
  -27.2089  -28.6274   20.7180 C   0  0  0  0  0  0
  -26.0348  -26.9134   19.4709 C   0  0  0  0  0  0
  -24.8670  -27.6969   19.4769 C   0  0  0  0  0  0
  -23.6299  -29.8259   20.1602 C   0  0  0  0  0  0
  -25.4105  -36.3085   24.0334 C   0  0  1  0  0  0
  -20.5883  -28.3679   23.1288 C   0  0  2  0  0  0
  -20.6771  -26.9402   22.5414 C   0  0  0  0  0  0
  -19.5750  -26.6379   21.5210 C   0  0  0  0  0  0
  -18.1930  -26.7927   22.1621 C   0  0  0  0  0  0
  -19.1539  -28.8847   23.2883 C   0  0  0  0  0  0
  -18.9462  -30.1450   23.8904 C   0  0  0  0  0  0
  -17.6464  -30.6579   24.0567 C   0  0  0  0  0  0
  -25.9044  -34.9453   23.5116 C   0  0  0  0  0  0
  -16.5355  -29.9082   23.6331 C   0  0  0  0  0  0
  -16.7274  -28.6500   23.0346 C   0  0  0  0  0  0
  -26.4491  -31.6588   25.0727 C   0  0  0  0  0  0
  -25.3738  -31.3734   26.1470 C   0  0  0  0  0  0
  -27.0324  -30.3010   24.6170 C   0  0  0  0  0  0
  -27.6058  -32.4318   25.7491 C   0  0  0  0  0  0
  -27.5580  -37.1797   24.8455 C   0  0  0  0  0  0
  -21.4175  -29.3033   22.3676 N   0  0  0  0  0  0
  -26.4281  -37.3780   23.9415 N   0  0  0  0  0  0
  -24.6840  -31.0641   22.0997 N   0  0  0  0  0  0
  -23.4191  -28.8167   23.3003 O   0  0  0  0  0  0
  -28.3496  -26.4989   20.2057 O   0  0  0  0  0  0
  -26.5609  -34.8912   22.4679 O   0  0  0  0  0  0
  -23.5412  -32.1406   23.7390 O   0  0  0  0  0  0
  -30.9027  -19.4191   20.8051 C   0  0  0  0  0  0
  -28.7092  -17.7929   21.2593 C   0  0  0  0  0  0
  -29.6809  -20.0703   21.1158 C   0  0  0  0  0  0
  -31.0559  -17.9977   20.7602 C   0  0  0  0  0  0
  -28.5707  -19.2117   21.3433 C   0  0  0  0  0  0
  -29.9365  -17.1288   20.9781 C   0  0  0  0  0  0
  -28.5013  -23.3034   18.1029 C   0  0  0  0  0  0
  -28.6045  -24.7972   18.4698 C   0  0  0  0  0  0
  -29.3496  -22.4042   19.0281 C   0  0  0  0  0  0
  -29.0741  -24.0616   20.8463 C   0  0  0  0  0  0
  -28.2277  -25.0476   19.9415 C   0  0  1  0  0  0
  -32.4673  -17.4890   20.5432 C   0  0  0  0  0  0
  -27.2223  -19.7851   21.7470 C   0  0  0  0  0  0
  -29.6651  -21.6254   21.3902 C   0  0  0  0  0  0
  -29.8899  -15.6565   21.0177 N   0  0  0  0  0  0
  -28.9703  -22.5906   20.4507 N   0  3  2  0  0  0
  -31.4762  -12.4936   19.1578 H   0  0  0  0  0  0
  -30.3565  -11.3871   19.8956 H   0  0  0  0  0  0
  -29.7701  -11.7622   17.4801 H   0  0  0  0  0  0
  -29.6615  -13.4832   17.7548 H   0  0  0  0  0  0
  -27.8626  -11.3008   18.8614 H   0  0  0  0  0  0
  -27.3802  -12.5932   17.7936 H   0  0  0  0  0  0
  -27.6787  -14.2579   19.5365 H   0  0  0  0  0  0
  -28.7023  -12.0422   21.3749 H   0  0  0  0  0  0
  -28.4375  -13.6896   21.8566 H   0  0  0  0  0  0
  -25.2759   -9.5675   22.4761 H   0  0  0  0  0  0
  -23.9983   -7.4636   22.7471 H   0  0  0  0  0  0
  -21.0823   -8.8781   19.8969 H   0  0  0  0  0  0
  -22.3681  -10.9677   19.6165 H   0  0  0  0  0  0
  -21.2024   -7.6145   23.9706 H   0  0  0  0  0  0
  -21.1468   -6.0522   25.9069 H   0  0  0  0  0  0
  -22.0604   -2.7603   23.2851 H   0  0  0  0  0  0
  -22.4073  -11.9921   22.4837 H   0  0  0  0  0  0
  -21.1095  -13.1293   22.2579 H   0  0  0  0  0  0
  -24.6518  -15.8396   20.4980 H   0  0  0  0  0  0
  -26.2615  -15.6229   20.0363 H   0  0  0  0  0  0
  -26.7161  -32.5465   23.1116 H   0  0  0  0  0  0
  -25.0063  -33.9736   25.0439 H   0  0  0  0  0  0
  -22.7086  -31.3066   21.4074 H   0  0  0  0  0  0
  -23.3738  -35.9639   23.3305 H   0  0  0  0  0  0
  -24.3582  -36.8901   22.2047 H   0  0  0  0  0  0
  -23.7239  -37.6503   23.6649 H   0  0  0  0  0  0
  -26.0856  -31.5626   20.6097 H   0  0  0  0  0  0
  -26.8369  -30.8453   22.0043 H   0  0  0  0  0  0
  -28.1006  -28.9862   21.2131 H   0  0  0  0  0  0
  -25.9684  -25.9697   18.9527 H   0  0  0  0  0  0
  -23.9748  -27.3292   18.9884 H   0  0  0  0  0  0
  -23.7472  -30.6054   19.4065 H   0  0  0  0  0  0
  -22.7503  -29.2555   19.8564 H   0  0  0  0  0  0
  -25.1278  -36.1941   25.0827 H   0  0  0  0  0  0
  -20.9982  -28.3262   24.1406 H   0  0  0  0  0  0
  -20.5664  -26.2286   23.3611 H   0  0  0  0  0  0
  -21.6644  -26.7428   22.1214 H   0  0  0  0  0  0
  -19.6907  -25.6293   21.1229 H   0  0  0  0  0  0
  -19.6686  -27.3198   20.6747 H   0  0  0  0  0  0
  -17.4198  -26.6672   21.4027 H   0  0  0  0  0  0
  -18.0331  -26.0071   22.9018 H   0  0  0  0  0  0
  -19.7944  -30.7261   24.2275 H   0  0  0  0  0  0
  -17.5021  -31.6261   24.5164 H   0  0  0  0  0  0
  -15.5356  -30.2982   23.7649 H   0  0  0  0  0  0
  -15.8676  -28.0817   22.7058 H   0  0  0  0  0  0
  -24.5906  -30.7081   25.7818 H   0  0  0  0  0  0
  -24.8941  -32.2907   26.4893 H   0  0  0  0  0  0
  -25.8079  -30.8921   27.0242 H   0  0  0  0  0  0
  -26.2890  -29.6767   24.1201 H   0  0  0  0  0  0
  -27.4027  -29.7259   25.4665 H   0  0  0  0  0  0
  -27.8759  -30.4290   23.9383 H   0  0  0  0  0  0
  -27.2670  -33.3614   26.2077 H   0  0  0  0  0  0
  -28.3860  -32.6884   25.0312 H   0  0  0  0  0  0
  -28.0734  -31.8437   26.5397 H   0  0  0  0  0  0
  -28.2586  -38.0108   24.7530 H   0  0  0  0  0  0
  -28.1087  -36.2643   24.6239 H   0  0  0  0  0  0
  -27.2313  -37.1392   25.8861 H   0  0  0  0  0  0
  -20.9338  -29.8761   21.6904 H   0  0  0  0  0  0
  -26.0164  -38.2851   24.1440 H   0  0  0  0  0  0
  -31.7801  -20.0350   20.6636 H   0  0  0  0  0  0
  -27.8348  -17.1885   21.4608 H   0  0  0  0  0  0
  -28.8202  -23.1626   17.0699 H   0  0  0  0  0  0
  -27.4579  -22.9887   18.1418 H   0  0  0  0  0  0
  -27.9641  -25.3831   17.8104 H   0  0  0  0  0  0
  -29.6225  -25.1464   18.2943 H   0  0  0  0  0  0
  -30.4110  -22.6258   18.9014 H   0  0  0  0  0  0
  -29.2133  -21.3607   18.7401 H   0  0  0  0  0  0
  -28.7545  -24.1747   21.8831 H   0  0  0  0  0  0
  -30.1228  -24.3606   20.8170 H   0  0  0  0  0  0
  -27.2004  -24.7289   20.1108 H   0  0  0  0  0  0
  -33.2027  -18.2898   20.6269 H   0  0  0  0  0  0
  -32.5742  -17.0595   19.5473 H   0  0  0  0  0  0
  -32.7282  -16.7478   21.2986 H   0  0  0  0  0  0
  -26.4344  -19.0331   21.6884 H   0  0  0  0  0  0
  -26.9314  -20.6105   21.0987 H   0  0  0  0  0  0
  -27.2566  -20.1490   22.7746 H   0  0  0  0  0  0
  -30.7011  -21.9533   21.4835 H   0  0  0  0  0  0
  -29.2418  -21.7715   22.3845 H   0  0  0  0  0  0
  -29.0055  -15.3046   21.3491 H   0  0  0  0  0  0
  -27.9932  -22.3465   20.5102 H   0  0  0  0  0  0
  1 25  1  0  0  0
  1 30  2  0  0  0
  1 85  1  0  0  0
  2  3  1  0  0  0
  2 25  1  0  0  0
  2 87  1  0  0  0
  2 88  1  0  0  0
  3  4  1  0  0  0
  3 89  1  0  0  0
  3 90  1  0  0  0
  4  5  1  0  0  0
  4 91  1  0  0  0
  4 92  1  0  0  0
  5  6  1  0  0  0
  5 26  1  0  0  0
  5 93  1  0  0  0
  6 25  1  0  0  0
  6 94  1  0  0  0
  6 95  1  0  0  0
  7  8  2  0  0  0
  7 26  1  0  0  0
  7 29  1  0  0  0
  8  9  1  0  0  0
  8 22  1  0  0  0
  9 10  1  0  0  0
  9 27  2  0  0  0
 10 11  2  0  0  0
 10 15  1  0  0  0
 11 12  1  0  0  0
 11 96  1  0  0  0
 12 13  2  0  0  0
 12 97  1  0  0  0
 13 14  1  0  0  0
 13 31  1  0  0  0
 14 15  2  0  0  0
 14 98  1  0  0  0
 15 99  1  0  0  0
 16 17  2  0  0  0
 16 21  1  0  0  0
 16 31  1  0  0  0
 17 18  1  0  0  0
 17100  1  0  0  0
 18 19  2  0  0  0
 18101  1  0  0  0
 19 20  1  0  0  0
 19 24  1  0  0  0
 20 21  2  0  0  0
 20102  1  0  0  0
 21 23  1  0  0  0
 22 28  1  0  0  0
 22 32  2  0  0  0
 26 27  1  0  0  0
 28103  1  0  0  0
 28104  1  0  0  0
 29105  1  0  0  0
 29106  1  0  0  0
 33 34  1  0  0  0
 33 66  1  0  0  0
 33 70  2  0  0  0
 34 36  1  0  0  0
 34 59  1  0  0  0
 34107  1  0  0  0
 35 44  2  0  0  0
 35 45  1  0  0  0
 35 68  1  0  0  0
 36 56  1  0  0  0
 36108  1  0  0  0
 37 39  1  0  0  0
 37 47  1  0  0  0
 37 66  1  0  0  0
 37109  1  0  0  0
 38 43  2  0  0  0
 38 46  1  0  0  0
 38 47  1  0  0  0
 39 64  1  0  0  0
 39 67  2  0  0  0
 40 52  1  0  0  0
 40 53  2  0  0  0
 40 58  1  0  0  0
 41110  1  0  0  0
 41111  1  0  0  0
 41112  1  0  0  0
 41 48  1  0  0  0
 42 43  1  0  0  0
 42 66  1  0  0  0
 42113  1  0  0  0
 42114  1  0  0  0
 43 44  1  0  0  0
 44115  1  0  0  0
 45 46  2  0  0  0
 45116  1  0  0  0
 46117  1  0  0  0
 47118  1  0  0  0
 47119  1  0  0  0
 48 56  1  0  0  0
 48 65  1  0  0  0
 48120  1  0  0  0
 49 50  1  0  0  0
 49 53  1  0  0  0
 49 64  1  0  0  0
 49121  1  0  0  0
 50 51  1  0  0  0
 50122  1  0  0  0
 50123  1  0  0  0
 51 52  1  0  0  0
 51124  1  0  0  0
 51125  1  0  0  0
 52126  1  0  0  0
 52127  1  0  0  0
 53 54  1  0  0  0
 54 55  2  0  0  0
 54128  1  0  0  0
 55 57  1  0  0  0
 55129  1  0  0  0
 56 69  2  0  0  0
 57 58  2  0  0  0
 57130  1  0  0  0
 58131  1  0  0  0
 59 60  1  0  0  0
 59 61  1  0  0  0
 59 62  1  0  0  0
 60132  1  0  0  0
 60133  1  0  0  0
 60134  1  0  0  0
 61135  1  0  0  0
 61136  1  0  0  0
 61137  1  0  0  0
 62138  1  0  0  0
 62139  1  0  0  0
 62140  1  0  0  0
 63 65  1  0  0  0
 63141  1  0  0  0
 63142  1  0  0  0
 63143  1  0  0  0
 64144  1  0  0  0
 65145  1  0  0  0
 68 81  1  0  0  0
 71 73  2  0  0  0
 71 74  1  0  0  0
 71146  1  0  0  0
 72 75  2  0  0  0
 72 76  1  0  0  0
 72147  1  0  0  0
 73 75  1  0  0  0
 73 84  1  0  0  0
 74 76  2  0  0  0
 74 82  1  0  0  0
 75 83  1  0  0  0
 76 85  1  0  0  0
 77 78  1  0  0  0
 77 79  1  0  0  0
 77148  1  0  0  0
 77149  1  0  0  0
 78 81  1  0  0  0
 78150  1  0  0  0
 78151  1  0  0  0
 79 86  1  0  0  0
 79152  1  0  0  0
 79153  1  0  0  0
 80 81  1  0  0  0
 80 86  1  0  0  0
 80154  1  0  0  0
 80155  1  0  0  0
 81156  1  0  0  0
 82157  1  0  0  0
 82158  1  0  0  0
 82159  1  0  0  0
 83160  1  0  0  0
 83161  1  0  0  0
 83162  1  0  0  0
 84163  1  0  0  0
 84164  1  0  0  0
 84 86  1  0  0  0
 85165  1  0  0  0
 86166  1  0  0  0
M  CHG  1  86   1
M  ISO  4   1 100  68 101  81 101  85 100
M  END
> <chiral flag>
0

> <version>
0

> <s_m_source_file>
/data/baiqing/PycharmProjects/Reinvent-master-3.2/result/LINK_invent/BTK/process_docking_weight1_custom_product_contain_oxygen_bond_distance_aromatic_linkinvent_7_9_3/rearranged_h_0035.sdf

> <i_m_source_file_index>
90

> <r_mmod_Potential_Energy-OPLS-2005>
-15.5739030838013

> <r_mmod_Stretch_Energy-OPLS-2005>
80.5451278686523

> <r_mmod_Bend_Energy-OPLS-2005>
161.626876831055

> <r_mmod_Torsional_Energy-OPLS-2005>
229.670989990234

> <r_mmod_Improper_Torsional_Energy-OPLS-2005>
4.7335786819458

> <r_mmod_Van_der_Waal_Energy-OPLS-2005>
151.807739257812

> <r_mmod_Electrostatic_Energy-OPLS-2005>
-266.767669677734

> <r_mmod_Solvation_Energy-OPLS-2005>
-419.566162109375

> <b_mmod_Minimization_Converged-OPLS-2005>
0

> <r_mmod_RMS_Derivative-OPLS-2005>
1.29384958744049

$$$$
91
                    3D
 Structure written by MMmdl.
167176  0  0  1  0            999 V2000
  -30.7331  -14.5082   20.5627 C   0  0  0  0  0  0
  -30.4236  -12.3400   19.4240 C   0  0  0  0  0  0
  -29.4952  -12.5044   18.2039 C   0  0  0  0  0  0
  -28.0168  -12.3717   18.6164 C   0  0  0  0  0  0
  -27.6556  -13.2235   19.8624 C   0  0  2  0  0  0
  -28.7033  -13.0584   20.9854 C   0  0  0  0  0  0
  -25.2578  -13.8185   20.5693 C   0  0  0  0  0  0
  -24.1848  -13.0446   20.9185 C   0  0  0  0  0  0
  -24.6433  -11.6923   20.8731 C   0  0  0  0  0  0
  -23.9103  -10.4310   21.0396 C   0  0  0  0  0  0
  -24.3645   -9.4221   21.9174 C   0  0  0  0  0  0
  -23.6319   -8.2247   22.0739 C   0  0  0  0  0  0
  -22.4290   -8.0288   21.3541 C   0  0  0  0  0  0
  -21.9946   -9.0260   20.4635 C   0  0  0  0  0  0
  -22.7281  -10.2144   20.3051 C   0  0  0  0  0  0
  -21.6871   -6.0746   22.5277 C   0  0  0  0  0  0
  -21.4006   -6.5656   23.8206 C   0  0  0  0  0  0
  -21.3650   -5.6805   24.9175 C   0  0  0  0  0  0
  -21.6058   -4.3064   24.7223 C   0  0  0  0  0  0
  -21.8819   -3.8159   23.4337 C   0  0  0  0  0  0
  -21.9189   -4.6972   22.3399 C   0  0  0  0  0  0
  -22.7874  -13.5231   21.1870 C   0  0  0  0  0  0
  -22.1671   -4.2173   21.0968 F   0  0  0  0  0  0
  -21.5625   -3.4533   25.7730 F   0  0  0  0  0  0
  -30.0289  -13.3501   20.4184 N   0  0  0  0  0  0
  -26.3014  -12.9394   20.3330 N   0  0  0  0  0  0
  -25.9356  -11.6541   20.5749 N   0  0  0  0  0  0
  -22.0504  -12.8196   22.0406 N   0  0  0  0  0  0
  -25.4301  -15.1908   20.4092 N   0  0  0  0  0  0
  -31.9105  -14.6071   20.2159 O   0  0  0  0  0  0
  -21.6644   -6.8893   21.4239 O   0  0  0  0  0  0
  -22.3562  -14.5545   20.6739 O   0  0  0  0  0  0
  -24.6210  -31.8654   23.2018 C   0  0  0  0  0  0
  -25.9099  -32.4839   23.8313 C   0  0  1  0  0  0
  -27.2484  -27.4013   20.1174 C   0  0  0  0  0  0
  -25.5986  -33.8643   24.2282 N   0  0  0  0  0  0
  -23.4086  -30.4858   21.5458 C   0  0  2  0  0  0
  -24.8575  -28.9498   20.1084 C   0  0  0  0  0  0
  -22.7448  -29.4670   22.5005 C   0  0  0  0  0  0
  -18.0292  -28.1398   22.8504 C   0  0  0  0  0  0
  -24.1475  -36.7322   23.2622 C   0  0  0  0  0  0
  -25.9379  -30.8262   21.3511 C   0  0  0  0  0  0
  -26.0167  -29.4553   20.7051 C   0  0  0  0  0  0
  -27.2098  -28.6914   20.7091 C   0  0  0  0  0  0
  -26.0635  -26.9341   19.4906 C   0  0  0  0  0  0
  -24.8770  -27.6890   19.4913 C   0  0  0  0  0  0
  -23.6135  -29.8063   20.1637 C   0  0  0  0  0  0
  -25.4114  -36.3152   24.0319 C   0  0  1  0  0  0
  -20.5882  -28.3678   23.1328 C   0  0  2  0  0  0
  -20.6815  -26.9408   22.5428 C   0  0  0  0  0  0
  -19.5776  -26.6352   21.5274 C   0  0  0  0  0  0
  -18.1935  -26.7950   22.1610 C   0  0  0  0  0  0
  -19.1552  -28.8867   23.2887 C   0  0  0  0  0  0
  -18.9452  -30.1502   23.8848 C   0  0  0  0  0  0
  -17.6456  -30.6578   24.0600 C   0  0  0  0  0  0
  -25.9014  -34.9518   23.5065 C   0  0  0  0  0  0
  -16.5354  -29.9051   23.6376 C   0  0  0  0  0  0
  -16.7284  -28.6493   23.0336 C   0  0  0  0  0  0
  -26.4466  -31.6661   25.0687 C   0  0  0  0  0  0
  -25.3703  -31.3822   26.1424 C   0  0  0  0  0  0
  -27.0324  -30.3126   24.6094 C   0  0  0  0  0  0
  -27.6015  -32.4408   25.7473 C   0  0  0  0  0  0
  -27.5585  -37.1787   24.8460 C   0  0  0  0  0  0
  -21.4173  -29.3064   22.3779 N   0  0  0  0  0  0
  -26.4306  -37.3844   23.9395 N   0  0  0  0  0  0
  -24.6748  -31.0726   22.0921 N   0  0  0  0  0  0
  -23.4246  -28.8232   23.3053 O   0  0  0  0  0  0
  -28.4136  -26.6382   20.1924 O   0  0  0  0  0  0
  -26.5536  -34.9014   22.4604 O   0  0  0  0  0  0
  -23.5399  -32.1430   23.7394 O   0  0  0  0  0  0
  -30.3172  -20.3250   18.3088 C   0  0  0  0  0  0
  -30.2835  -19.0059   17.8467 C   0  0  0  0  0  0
  -30.3605  -20.6144   19.6876 C   0  0  0  0  0  0
  -30.3825  -19.5146   20.6154 C   0  0  0  0  0  0
  -30.3927  -18.1440   20.1493 C   0  0  0  0  0  0
  -30.3343  -17.9222   18.7366 C   0  0  0  0  0  0
  -29.2342  -24.2949   20.7996 C   0  0  0  0  0  0
  -29.9836  -24.6965   21.8450 C   0  0  0  0  0  0
  -28.2625  -23.4373   18.1153 C   0  0  0  0  0  0
  -28.5228  -24.9172   18.4585 C   0  0  0  0  0  0
  -28.0948  -22.5507   19.3669 C   0  0  0  0  0  0
  -28.3091  -25.2084   19.9545 C   0  0  2  0  0  0
  -30.4281  -19.8106   22.1172 C   0  0  0  0  0  0
  -30.5851  -16.9687   21.1712 C   0  0  0  0  0  0
  -30.4510  -22.1229   20.0725 C   0  0  0  0  0  0
  -30.0336  -15.6083   20.9272 N   0  0  0  0  0  0
  -29.1521  -22.8151   20.3816 N   0  3  2  0  0  0
  -30.3482  -16.3705   17.9804 Cl  0  0  0  0  0  0
  -31.4655  -12.4467   19.1162 H   0  0  0  0  0  0
  -30.3367  -11.3383   19.8463 H   0  0  0  0  0  0
  -29.7389  -11.7605   17.4451 H   0  0  0  0  0  0
  -29.6629  -13.4775   17.7396 H   0  0  0  0  0  0
  -27.8246  -11.3167   18.8149 H   0  0  0  0  0  0
  -27.3732  -12.6448   17.7812 H   0  0  0  0  0  0
  -27.6834  -14.2653   19.5408 H   0  0  0  0  0  0
  -28.6849  -12.0423   21.3856 H   0  0  0  0  0  0
  -28.4675  -13.7088   21.8269 H   0  0  0  0  0  0
  -25.2786   -9.5678   22.4751 H   0  0  0  0  0  0
  -24.0031   -7.4628   22.7446 H   0  0  0  0  0  0
  -21.0887   -8.8793   19.8923 H   0  0  0  0  0  0
  -22.3761  -10.9677   19.6153 H   0  0  0  0  0  0
  -21.1999   -7.6159   23.9729 H   0  0  0  0  0  0
  -21.1472   -6.0519   25.9077 H   0  0  0  0  0  0
  -22.0602   -2.7621   23.2825 H   0  0  0  0  0  0
  -22.4130  -11.9857   22.4770 H   0  0  0  0  0  0
  -21.1102  -13.1180   22.2576 H   0  0  0  0  0  0
  -24.6629  -15.8461   20.5145 H   0  0  0  0  0  0
  -26.2821  -15.6269   20.0787 H   0  0  0  0  0  0
  -26.7178  -32.5477   23.1070 H   0  0  0  0  0  0
  -25.0423  -33.9805   25.0632 H   0  0  0  0  0  0
  -22.7019  -31.3044   21.3949 H   0  0  0  0  0  0
  -23.3769  -35.9615   23.3300 H   0  0  0  0  0  0
  -24.3585  -36.8958   22.2041 H   0  0  0  0  0  0
  -23.7173  -37.6515   23.6613 H   0  0  0  0  0  0
  -26.0460  -31.5867   20.5761 H   0  0  0  0  0  0
  -26.8316  -30.8894   21.9575 H   0  0  0  0  0  0
  -28.0975  -29.0819   21.1841 H   0  0  0  0  0  0
  -26.0122  -25.9750   18.9993 H   0  0  0  0  0  0
  -23.9920  -27.2855   19.0187 H   0  0  0  0  0  0
  -23.7064  -30.5707   19.3935 H   0  0  0  0  0  0
  -22.7424  -29.2149   19.8810 H   0  0  0  0  0  0
  -25.1295  -36.2014   25.0822 H   0  0  0  0  0  0
  -20.9964  -28.3198   24.1453 H   0  0  0  0  0  0
  -20.5822  -26.2259   23.3604 H   0  0  0  0  0  0
  -21.6656  -26.7493   22.1142 H   0  0  0  0  0  0
  -19.6934  -25.6254   21.1307 H   0  0  0  0  0  0
  -19.6737  -27.3185   20.6836 H   0  0  0  0  0  0
  -17.4251  -26.6824   21.3959 H   0  0  0  0  0  0
  -18.0193  -26.0075   22.8957 H   0  0  0  0  0  0
  -19.7936  -30.7388   24.2101 H   0  0  0  0  0  0
  -17.4986  -31.6254   24.5221 H   0  0  0  0  0  0
  -15.5352  -30.2923   23.7722 H   0  0  0  0  0  0
  -15.8687  -28.0823   22.6978 H   0  0  0  0  0  0
  -24.5901  -30.7137   25.7780 H   0  0  0  0  0  0
  -24.8839  -32.3003   26.4740 H   0  0  0  0  0  0
  -25.8030  -30.9085   27.0246 H   0  0  0  0  0  0
  -26.2874  -29.6854   24.1180 H   0  0  0  0  0  0
  -27.4192  -29.7436   25.4552 H   0  0  0  0  0  0
  -27.8660  -30.4534   23.9211 H   0  0  0  0  0  0
  -27.2638  -33.3771   26.1961 H   0  0  0  0  0  0
  -28.3875  -32.6899   25.0323 H   0  0  0  0  0  0
  -28.0616  -31.8577   26.5477 H   0  0  0  0  0  0
  -28.2592  -38.0095   24.7592 H   0  0  0  0  0  0
  -28.1079  -36.2633   24.6164 H   0  0  0  0  0  0
  -27.2304  -37.1359   25.8868 H   0  0  0  0  0  0
  -20.9320  -29.8775   21.6999 H   0  0  0  0  0  0
  -26.0194  -38.2924   24.1447 H   0  0  0  0  0  0
  -30.3107  -21.1199   17.5781 H   0  0  0  0  0  0
  -30.2447  -18.8136   16.7843 H   0  0  0  0  0  0
  -29.9806  -25.7314   22.1489 H   0  0  0  0  0  0
  -30.5843  -24.0164   22.4335 H   0  0  0  0  0  0
  -29.0772  -23.0746   17.4867 H   0  0  0  0  0  0
  -27.3606  -23.3492   17.5081 H   0  0  0  0  0  0
  -27.9113  -25.5607   17.8288 H   0  0  0  0  0  0
  -29.5545  -25.1676   18.2112 H   0  0  0  0  0  0
  -28.0096  -21.5017   19.0911 H   0  0  0  0  0  0
  -27.1316  -22.7662   19.8311 H   0  0  0  0  0  0
  -27.3173  -24.9002   20.2789 H   0  0  0  0  0  0
  -30.2856  -20.8595   22.3721 H   0  0  0  0  0  0
  -31.3872  -19.5046   22.5397 H   0  0  0  0  0  0
  -29.6326  -19.2841   22.6476 H   0  0  0  0  0  0
  -30.1556  -17.2464   22.1325 H   0  0  0  0  0  0
  -31.6558  -16.8851   21.3640 H   0  0  0  0  0  0
  -30.9145  -22.6594   19.2429 H   0  0  0  0  0  0
  -31.1618  -22.2440   20.8918 H   0  0  0  0  0  0
  -29.0524  -15.4760   21.1172 H   0  0  0  0  0  0
  -28.8246  -22.3055   21.1879 H   0  0  0  0  0  0
  1 25  1  0  0  0
  1 30  2  0  0  0
  1 86  1  0  0  0
  2  3  1  0  0  0
  2 25  1  0  0  0
  2 89  1  0  0  0
  2 90  1  0  0  0
  3  4  1  0  0  0
  3 91  1  0  0  0
  3 92  1  0  0  0
  4  5  1  0  0  0
  4 93  1  0  0  0
  4 94  1  0  0  0
  5  6  1  0  0  0
  5 26  1  0  0  0
  5 95  1  0  0  0
  6 25  1  0  0  0
  6 96  1  0  0  0
  6 97  1  0  0  0
  7  8  2  0  0  0
  7 26  1  0  0  0
  7 29  1  0  0  0
  8  9  1  0  0  0
  8 22  1  0  0  0
  9 10  1  0  0  0
  9 27  2  0  0  0
 10 11  2  0  0  0
 10 15  1  0  0  0
 11 12  1  0  0  0
 11 98  1  0  0  0
 12 13  2  0  0  0
 12 99  1  0  0  0
 13 14  1  0  0  0
 13 31  1  0  0  0
 14 15  2  0  0  0
 14100  1  0  0  0
 15101  1  0  0  0
 16 17  2  0  0  0
 16 21  1  0  0  0
 16 31  1  0  0  0
 17 18  1  0  0  0
 17102  1  0  0  0
 18 19  2  0  0  0
 18103  1  0  0  0
 19 20  1  0  0  0
 19 24  1  0  0  0
 20 21  2  0  0  0
 20104  1  0  0  0
 21 23  1  0  0  0
 22 28  1  0  0  0
 22 32  2  0  0  0
 26 27  1  0  0  0
 28105  1  0  0  0
 28106  1  0  0  0
 29107  1  0  0  0
 29108  1  0  0  0
 33 34  1  0  0  0
 33 66  1  0  0  0
 33 70  2  0  0  0
 34 36  1  0  0  0
 34 59  1  0  0  0
 34109  1  0  0  0
 35 44  2  0  0  0
 35 45  1  0  0  0
 35 68  1  0  0  0
 36 56  1  0  0  0
 36110  1  0  0  0
 37 39  1  0  0  0
 37 47  1  0  0  0
 37 66  1  0  0  0
 37111  1  0  0  0
 38 43  2  0  0  0
 38 46  1  0  0  0
 38 47  1  0  0  0
 39 64  1  0  0  0
 39 67  2  0  0  0
 40 52  1  0  0  0
 40 53  2  0  0  0
 40 58  1  0  0  0
 41112  1  0  0  0
 41113  1  0  0  0
 41114  1  0  0  0
 41 48  1  0  0  0
 42 43  1  0  0  0
 42 66  1  0  0  0
 42115  1  0  0  0
 42116  1  0  0  0
 43 44  1  0  0  0
 44117  1  0  0  0
 45 46  2  0  0  0
 45118  1  0  0  0
 46119  1  0  0  0
 47120  1  0  0  0
 47121  1  0  0  0
 48 56  1  0  0  0
 48 65  1  0  0  0
 48122  1  0  0  0
 49 50  1  0  0  0
 49 53  1  0  0  0
 49 64  1  0  0  0
 49123  1  0  0  0
 50 51  1  0  0  0
 50124  1  0  0  0
 50125  1  0  0  0
 51 52  1  0  0  0
 51126  1  0  0  0
 51127  1  0  0  0
 52128  1  0  0  0
 52129  1  0  0  0
 53 54  1  0  0  0
 54 55  2  0  0  0
 54130  1  0  0  0
 55 57  1  0  0  0
 55131  1  0  0  0
 56 69  2  0  0  0
 57 58  2  0  0  0
 57132  1  0  0  0
 58133  1  0  0  0
 59 60  1  0  0  0
 59 61  1  0  0  0
 59 62  1  0  0  0
 60134  1  0  0  0
 60135  1  0  0  0
 60136  1  0  0  0
 61137  1  0  0  0
 61138  1  0  0  0
 61139  1  0  0  0
 62140  1  0  0  0
 62141  1  0  0  0
 62142  1  0  0  0
 63 65  1  0  0  0
 63143  1  0  0  0
 63144  1  0  0  0
 63145  1  0  0  0
 64146  1  0  0  0
 65147  1  0  0  0
 68 82  1  0  0  0
 71 72  2  0  0  0
 71 73  1  0  0  0
 71148  1  0  0  0
 72 76  1  0  0  0
 72149  1  0  0  0
 73 74  2  0  0  0
 73 85  1  0  0  0
 74 75  1  0  0  0
 74 83  1  0  0  0
 75 76  2  0  0  0
 75 84  1  0  0  0
 76 88  1  0  0  0
 77 78  2  0  0  0
 77 82  1  0  0  0
 77 87  1  0  0  0
 78150  1  0  0  0
 78151  1  0  0  0
 79 80  1  0  0  0
 79 81  1  0  0  0
 79152  1  0  0  0
 79153  1  0  0  0
 80 82  1  0  0  0
 80154  1  0  0  0
 80155  1  0  0  0
 81 87  1  0  0  0
 81156  1  0  0  0
 81157  1  0  0  0
 82158  1  0  0  0
 83159  1  0  0  0
 83160  1  0  0  0
 83161  1  0  0  0
 84 86  1  0  0  0
 84162  1  0  0  0
 84163  1  0  0  0
 85164  1  0  0  0
 85165  1  0  0  0
 85 87  1  0  0  0
 86166  1  0  0  0
 87167  1  0  0  0
M  CHG  1  87   1
M  ISO  4   1 100  68 101  82 101  86 100
M  END
> <chiral flag>
0

> <version>
0

> <s_m_source_file>
/data/baiqing/PycharmProjects/Reinvent-master-3.2/result/LINK_invent/BTK/process_docking_weight1_custom_product_contain_oxygen_bond_distance_aromatic_linkinvent_7_9_3/rearranged_h_0035.sdf

> <i_m_source_file_index>
91

> <r_mmod_Potential_Energy-OPLS-2005>
-94.6860656738281

> <r_mmod_Stretch_Energy-OPLS-2005>
66.3943405151367

> <r_mmod_Bend_Energy-OPLS-2005>
134.906402587891

> <r_mmod_Torsional_Energy-OPLS-2005>
215.208389282227

> <r_mmod_Improper_Torsional_Energy-OPLS-2005>
4.33661556243896

> <r_mmod_Van_der_Waal_Energy-OPLS-2005>
174.587432861328

> <r_mmod_Electrostatic_Energy-OPLS-2005>
-267.39453125

> <r_mmod_Solvation_Energy-OPLS-2005>
-447.979095458984

> <b_mmod_Minimization_Converged-OPLS-2005>
0

> <r_mmod_RMS_Derivative-OPLS-2005>
5.43655109405518

$$$$
92
                    3D
 Structure written by MMmdl.
165174  0  0  1  0            999 V2000
  -30.6759  -14.7259   20.4483 C   0  0  0  0  0  0
  -30.4201  -12.4476   19.4705 C   0  0  0  0  0  0
  -29.5136  -12.5204   18.2263 C   0  0  0  0  0  0
  -28.0394  -12.3414   18.6354 C   0  0  0  0  0  0
  -27.6399  -13.2437   19.8349 C   0  0  2  0  0  0
  -28.6860  -13.2110   20.9701 C   0  0  0  0  0  0
  -25.2507  -13.8207   20.5647 C   0  0  0  0  0  0
  -24.1811  -13.0451   20.9167 C   0  0  0  0  0  0
  -24.6411  -11.6931   20.8703 C   0  0  0  0  0  0
  -23.9096  -10.4302   21.0369 C   0  0  0  0  0  0
  -24.3643   -9.4244   21.9162 C   0  0  0  0  0  0
  -23.6331   -8.2267   22.0754 C   0  0  0  0  0  0
  -22.4322   -8.0280   21.3526 C   0  0  0  0  0  0
  -21.9951   -9.0246   20.4639 C   0  0  0  0  0  0
  -22.7262  -10.2129   20.3032 C   0  0  0  0  0  0
  -21.6870   -6.0744   22.5268 C   0  0  0  0  0  0
  -21.4016   -6.5643   23.8195 C   0  0  0  0  0  0
  -21.3674   -5.6794   24.9153 C   0  0  0  0  0  0
  -21.6055   -4.3055   24.7200 C   0  0  0  0  0  0
  -21.8809   -3.8144   23.4326 C   0  0  0  0  0  0
  -21.9189   -4.6969   22.3387 C   0  0  0  0  0  0
  -22.7830  -13.5233   21.1811 C   0  0  0  0  0  0
  -22.1653   -4.2158   21.0966 F   0  0  0  0  0  0
  -21.5659   -3.4534   25.7712 F   0  0  0  0  0  0
  -29.9843  -13.5385   20.3727 N   0  0  0  0  0  0
  -26.2936  -12.9445   20.3175 N   0  0  0  0  0  0
  -25.9339  -11.6586   20.5679 N   0  0  0  0  0  0
  -22.0466  -12.8260   22.0377 N   0  0  0  0  0  0
  -25.4175  -15.1924   20.4088 N   0  0  0  0  0  0
  -31.8897  -14.6962   20.2756 O   0  0  0  0  0  0
  -21.6672   -6.8884   21.4236 O   0  0  0  0  0  0
  -22.3507  -14.5514   20.6614 O   0  0  0  0  0  0
  -24.6326  -31.8572   23.2002 C   0  0  0  0  0  0
  -25.9154  -32.4763   23.8363 C   0  0  1  0  0  0
  -27.2135  -27.2678   20.1199 C   0  0  0  0  0  0
  -25.5958  -33.8561   24.2275 N   0  0  0  0  0  0
  -23.4274  -30.4837   21.5445 C   0  0  2  0  0  0
  -24.8734  -28.9360   20.1118 C   0  0  0  0  0  0
  -22.7506  -29.4627   22.4912 C   0  0  0  0  0  0
  -18.0289  -28.1371   22.8496 C   0  0  0  0  0  0
  -24.1493  -36.7283   23.2640 C   0  0  0  0  0  0
  -25.9760  -30.7730   21.3821 C   0  0  0  0  0  0
  -26.0475  -29.3960   20.7195 C   0  0  0  0  0  0
  -27.2230  -28.5768   20.7121 C   0  0  0  0  0  0
  -26.0145  -26.8844   19.4729 C   0  0  0  0  0  0
  -24.8622  -27.6884   19.4766 C   0  0  0  0  0  0
  -23.6459  -29.8225   20.1604 C   0  0  0  0  0  0
  -25.4116  -36.3077   24.0339 C   0  0  1  0  0  0
  -20.5898  -28.3692   23.1254 C   0  0  2  0  0  0
  -20.6771  -26.9407   22.5398 C   0  0  0  0  0  0
  -19.5745  -26.6374   21.5203 C   0  0  0  0  0  0
  -18.1928  -26.7920   22.1617 C   0  0  0  0  0  0
  -19.1544  -28.8847   23.2873 C   0  0  0  0  0  0
  -18.9461  -30.1445   23.8897 C   0  0  0  0  0  0
  -17.6459  -30.6573   24.0551 C   0  0  0  0  0  0
  -25.9061  -34.9440   23.5098 C   0  0  0  0  0  0
  -16.5348  -29.9073   23.6315 C   0  0  0  0  0  0
  -16.7275  -28.6476   23.0367 C   0  0  0  0  0  0
  -26.4513  -31.6578   25.0746 C   0  0  0  0  0  0
  -25.3726  -31.3729   26.1461 C   0  0  0  0  0  0
  -27.0356  -30.2990   24.6241 C   0  0  0  0  0  0
  -27.6078  -32.4320   25.7527 C   0  0  0  0  0  0
  -27.5590  -37.1795   24.8460 C   0  0  0  0  0  0
  -21.4213  -29.3052   22.3652 N   0  0  0  0  0  0
  -26.4286  -37.3780   23.9421 N   0  0  0  0  0  0
  -24.6974  -31.0565   22.0974 N   0  0  0  0  0  0
  -23.4210  -28.8150   23.2993 O   0  0  0  0  0  0
  -28.3018  -26.3630   20.1665 O   0  0  0  0  0  0
  -26.5612  -34.8918   22.4663 O   0  0  0  0  0  0
  -23.5474  -32.1389   23.7299 O   0  0  0  0  0  0
  -28.6502  -19.7606   17.9979 C   0  0  0  0  0  0
  -29.4197  -19.8857   20.6537 C   0  0  0  0  0  0
  -29.2606  -18.6336   18.5837 C   0  0  0  0  0  0
  -29.6207  -18.6240   19.9521 C   0  0  0  0  0  0
  -28.4549  -20.9689   18.6961 C   0  0  0  0  0  0
  -28.8857  -21.0949   20.0419 C   0  0  0  0  0  0
  -29.7330  -17.5424   17.6444 C   0  0  0  0  0  0
  -31.2308  -17.7434   17.3651 C   0  0  0  0  0  0
  -32.1599  -17.1819   18.4545 C   0  0  0  0  0  0
  -31.9089  -17.6120   19.9301 C   0  0  0  0  0  0
  -30.4812  -17.4048   20.5245 C   0  0  2  0  0  0
  -27.7663  -22.0954   17.9401 C   0  0  0  0  0  0
  -29.1231  -23.7365   20.2739 C   0  0  0  0  0  0
  -27.9964  -24.8929   20.2548 C   0  0  0  0  0  0
  -28.7333  -22.3470   20.7523 N   0  0  0  0  0  0
  -29.9850  -15.9384   20.4944 N   0  0  0  0  0  0
  -31.4695  -12.5322   19.1846 H   0  0  0  0  0  0
  -30.3237  -11.4802   19.9652 H   0  0  0  0  0  0
  -29.8084  -11.7639   17.4968 H   0  0  0  0  0  0
  -29.6411  -13.4890   17.7395 H   0  0  0  0  0  0
  -27.8914  -11.2925   18.8966 H   0  0  0  0  0  0
  -27.3895  -12.5374   17.7825 H   0  0  0  0  0  0
  -27.6278  -14.2608   19.4433 H   0  0  0  0  0  0
  -28.7146  -12.2334   21.4510 H   0  0  0  0  0  0
  -28.4288  -13.9325   21.7473 H   0  0  0  0  0  0
  -25.2782   -9.5736   22.4741 H   0  0  0  0  0  0
  -24.0027   -7.4686   22.7499 H   0  0  0  0  0  0
  -21.0871   -8.8776   19.8976 H   0  0  0  0  0  0
  -22.3713  -10.9662   19.6150 H   0  0  0  0  0  0
  -21.2008   -7.6149   23.9699 H   0  0  0  0  0  0
  -21.1518   -6.0521   25.9056 H   0  0  0  0  0  0
  -22.0585   -2.7618   23.2809 H   0  0  0  0  0  0
  -22.4087  -11.9967   22.4839 H   0  0  0  0  0  0
  -21.1056  -13.1254   22.2489 H   0  0  0  0  0  0
  -24.6492  -15.8441   20.5266 H   0  0  0  0  0  0
  -26.2651  -15.6346   20.0761 H   0  0  0  0  0  0
  -26.7217  -32.5428   23.1103 H   0  0  0  0  0  0
  -25.0141  -33.9712   25.0451 H   0  0  0  0  0  0
  -22.7245  -31.3064   21.3990 H   0  0  0  0  0  0
  -23.3775  -35.9594   23.3264 H   0  0  0  0  0  0
  -24.3585  -36.8944   22.2060 H   0  0  0  0  0  0
  -23.7212  -37.6463   23.6680 H   0  0  0  0  0  0
  -26.1180  -31.5362   20.6166 H   0  0  0  0  0  0
  -26.8519  -30.8155   22.0167 H   0  0  0  0  0  0
  -28.1211  -28.9264   21.2023 H   0  0  0  0  0  0
  -25.9269  -25.9471   18.9500 H   0  0  0  0  0  0
  -23.9654  -27.3340   18.9854 H   0  0  0  0  0  0
  -23.7700  -30.5971   19.4040 H   0  0  0  0  0  0
  -22.7650  -29.2557   19.8539 H   0  0  0  0  0  0
  -25.1287  -36.1927   25.0831 H   0  0  0  0  0  0
  -20.9992  -28.3262   24.1374 H   0  0  0  0  0  0
  -20.5639  -26.2311   23.3611 H   0  0  0  0  0  0
  -21.6643  -26.7418   22.1198 H   0  0  0  0  0  0
  -19.6902  -25.6278   21.1244 H   0  0  0  0  0  0
  -19.6674  -27.3170   20.6718 H   0  0  0  0  0  0
  -17.4203  -26.6675   21.4017 H   0  0  0  0  0  0
  -18.0319  -26.0048   22.8991 H   0  0  0  0  0  0
  -19.7942  -30.7250   24.2281 H   0  0  0  0  0  0
  -17.5016  -31.6257   24.5149 H   0  0  0  0  0  0
  -15.5346  -30.2970   23.7644 H   0  0  0  0  0  0
  -15.8674  -28.0782   22.7101 H   0  0  0  0  0  0
  -24.5913  -30.7065   25.7773 H   0  0  0  0  0  0
  -24.8904  -32.2890   26.4878 H   0  0  0  0  0  0
  -25.8042  -30.8904   27.0238 H   0  0  0  0  0  0
  -26.2921  -29.6738   24.1271 H   0  0  0  0  0  0
  -27.4015  -29.7269   25.4777 H   0  0  0  0  0  0
  -27.8824  -30.4251   23.9493 H   0  0  0  0  0  0
  -27.2695  -33.3643   26.2067 H   0  0  0  0  0  0
  -28.3915  -32.6833   25.0364 H   0  0  0  0  0  0
  -28.0704  -31.8452   26.5475 H   0  0  0  0  0  0
  -28.2573  -38.0125   24.7552 H   0  0  0  0  0  0
  -28.1120  -36.2659   24.6220 H   0  0  0  0  0  0
  -27.2318  -37.1365   25.8863 H   0  0  0  0  0  0
  -20.9389  -29.8804   21.6884 H   0  0  0  0  0  0
  -26.0171  -38.2860   24.1421 H   0  0  0  0  0  0
  -28.3894  -19.7249   16.9493 H   0  0  0  0  0  0
  -29.7514  -19.9458   21.6804 H   0  0  0  0  0  0
  -29.1812  -17.6148   16.7066 H   0  0  0  0  0  0
  -29.5168  -16.5460   18.0238 H   0  0  0  0  0  0
  -31.4420  -18.7996   17.1844 H   0  0  0  0  0  0
  -31.4773  -17.2387   16.4311 H   0  0  0  0  0  0
  -33.1793  -17.4731   18.1923 H   0  0  0  0  0  0
  -32.1457  -16.1003   18.3570 H   0  0  0  0  0  0
  -32.1779  -18.6656   20.0386 H   0  0  0  0  0  0
  -32.6294  -17.0868   20.5583 H   0  0  0  0  0  0
  -30.5668  -17.6140   21.5920 H   0  0  0  0  0  0
  -27.2650  -21.7229   17.0475 H   0  0  0  0  0  0
  -28.4851  -22.8466   17.6141 H   0  0  0  0  0  0
  -27.0002  -22.5657   18.5543 H   0  0  0  0  0  0
  -29.9250  -24.0652   20.9382 H   0  0  0  0  0  0
  -29.5942  -23.6706   19.2930 H   0  0  0  0  0  0
  -27.3798  -24.7681   21.1453 H   0  0  0  0  0  0
  -27.3668  -24.6148   19.4155 H   0  0  0  0  0  0
  -28.8025  -22.2547   21.7629 H   0  0  0  0  0  0
  -28.9859  -15.8420   20.5829 H   0  0  0  0  0  0
  1 25  1  0  0  0
  1 30  2  0  0  0
  1 86  1  0  0  0
  2  3  1  0  0  0
  2 25  1  0  0  0
  2 87  1  0  0  0
  2 88  1  0  0  0
  3  4  1  0  0  0
  3 89  1  0  0  0
  3 90  1  0  0  0
  4  5  1  0  0  0
  4 91  1  0  0  0
  4 92  1  0  0  0
  5  6  1  0  0  0
  5 26  1  0  0  0
  5 93  1  0  0  0
  6 25  1  0  0  0
  6 94  1  0  0  0
  6 95  1  0  0  0
  7  8  2  0  0  0
  7 26  1  0  0  0
  7 29  1  0  0  0
  8  9  1  0  0  0
  8 22  1  0  0  0
  9 10  1  0  0  0
  9 27  2  0  0  0
 10 11  2  0  0  0
 10 15  1  0  0  0
 11 12  1  0  0  0
 11 96  1  0  0  0
 12 13  2  0  0  0
 12 97  1  0  0  0
 13 14  1  0  0  0
 13 31  1  0  0  0
 14 15  2  0  0  0
 14 98  1  0  0  0
 15 99  1  0  0  0
 16 17  2  0  0  0
 16 21  1  0  0  0
 16 31  1  0  0  0
 17 18  1  0  0  0
 17100  1  0  0  0
 18 19  2  0  0  0
 18101  1  0  0  0
 19 20  1  0  0  0
 19 24  1  0  0  0
 20 21  2  0  0  0
 20102  1  0  0  0
 21 23  1  0  0  0
 22 28  1  0  0  0
 22 32  2  0  0  0
 26 27  1  0  0  0
 28103  1  0  0  0
 28104  1  0  0  0
 29105  1  0  0  0
 29106  1  0  0  0
 33 34  1  0  0  0
 33 66  1  0  0  0
 33 70  2  0  0  0
 34 36  1  0  0  0
 34 59  1  0  0  0
 34107  1  0  0  0
 35 44  2  0  0  0
 35 45  1  0  0  0
 35 68  1  0  0  0
 36 56  1  0  0  0
 36108  1  0  0  0
 37 39  1  0  0  0
 37 47  1  0  0  0
 37 66  1  0  0  0
 37109  1  0  0  0
 38 43  2  0  0  0
 38 46  1  0  0  0
 38 47  1  0  0  0
 39 64  1  0  0  0
 39 67  2  0  0  0
 40 52  1  0  0  0
 40 53  2  0  0  0
 40 58  1  0  0  0
 41110  1  0  0  0
 41111  1  0  0  0
 41112  1  0  0  0
 41 48  1  0  0  0
 42 43  1  0  0  0
 42 66  1  0  0  0
 42113  1  0  0  0
 42114  1  0  0  0
 43 44  1  0  0  0
 44115  1  0  0  0
 45 46  2  0  0  0
 45116  1  0  0  0
 46117  1  0  0  0
 47118  1  0  0  0
 47119  1  0  0  0
 48 56  1  0  0  0
 48 65  1  0  0  0
 48120  1  0  0  0
 49 50  1  0  0  0
 49 53  1  0  0  0
 49 64  1  0  0  0
 49121  1  0  0  0
 50 51  1  0  0  0
 50122  1  0  0  0
 50123  1  0  0  0
 51 52  1  0  0  0
 51124  1  0  0  0
 51125  1  0  0  0
 52126  1  0  0  0
 52127  1  0  0  0
 53 54  1  0  0  0
 54 55  2  0  0  0
 54128  1  0  0  0
 55 57  1  0  0  0
 55129  1  0  0  0
 56 69  2  0  0  0
 57 58  2  0  0  0
 57130  1  0  0  0
 58131  1  0  0  0
 59 60  1  0  0  0
 59 61  1  0  0  0
 59 62  1  0  0  0
 60132  1  0  0  0
 60133  1  0  0  0
 60134  1  0  0  0
 61135  1  0  0  0
 61136  1  0  0  0
 61137  1  0  0  0
 62138  1  0  0  0
 62139  1  0  0  0
 62140  1  0  0  0
 63 65  1  0  0  0
 63141  1  0  0  0
 63142  1  0  0  0
 63143  1  0  0  0
 64144  1  0  0  0
 65145  1  0  0  0
 68 84  1  0  0  0
 71 73  2  0  0  0
 71 75  1  0  0  0
 71146  1  0  0  0
 72 74  2  0  0  0
 72 76  1  0  0  0
 72147  1  0  0  0
 73 74  1  0  0  0
 73 77  1  0  0  0
 74 81  1  0  0  0
 75 76  2  0  0  0
 75 82  1  0  0  0
 76 85  1  0  0  0
 77 78  1  0  0  0
 77148  1  0  0  0
 77149  1  0  0  0
 78 79  1  0  0  0
 78150  1  0  0  0
 78151  1  0  0  0
 79 80  1  0  0  0
 79152  1  0  0  0
 79153  1  0  0  0
 80 81  1  0  0  0
 80154  1  0  0  0
 80155  1  0  0  0
 81 86  1  0  0  0
 81156  1  0  0  0
 82157  1  0  0  0
 82158  1  0  0  0
 82159  1  0  0  0
 83 84  1  0  0  0
 83 85  1  0  0  0
 83160  1  0  0  0
 83161  1  0  0  0
 84162  1  0  0  0
 84163  1  0  0  0
 85164  1  0  0  0
 86165  1  0  0  0
M  ISO  4   1 100  68 101  84 101  86 100
M  END
> <chiral flag>
0

> <version>
0

> <s_m_source_file>
/data/baiqing/PycharmProjects/Reinvent-master-3.2/result/LINK_invent/BTK/process_docking_weight1_custom_product_contain_oxygen_bond_distance_aromatic_linkinvent_7_9_3/rearranged_h_0035.sdf

> <i_m_source_file_index>
92

> <r_mmod_Potential_Energy-OPLS-2005>
166.80744934082

> <r_mmod_Stretch_Energy-OPLS-2005>
125.866882324219

> <r_mmod_Bend_Energy-OPLS-2005>
195.393310546875

> <r_mmod_Torsional_Energy-OPLS-2005>
248.983428955078

> <r_mmod_Improper_Torsional_Energy-OPLS-2005>
10.1609964370728

> <r_mmod_Van_der_Waal_Energy-OPLS-2005>
153.784378051758

> <r_mmod_Electrostatic_Energy-OPLS-2005>
-441.254089355469

> <r_mmod_Solvation_Energy-OPLS-2005>
-214.218612670898

> <b_mmod_Minimization_Converged-OPLS-2005>
0

> <r_mmod_RMS_Derivative-OPLS-2005>
3.37830781936646

$$$$
93
                    3D
 Structure written by MMmdl.
164173  0  0  1  0            999 V2000
  -30.6242  -14.7716   20.4404 C   0  0  0  0  0  0
  -30.4467  -12.4756   19.4623 C   0  0  0  0  0  0
  -29.5201  -12.4969   18.2282 C   0  0  0  0  0  0
  -28.0443  -12.3212   18.6424 C   0  0  0  0  0  0
  -27.6430  -13.2337   19.8326 C   0  0  2  0  0  0
  -28.6945  -13.2075   20.9642 C   0  0  0  0  0  0
  -25.2544  -13.8177   20.5617 C   0  0  0  0  0  0
  -24.1862  -13.0427   20.9183 C   0  0  0  0  0  0
  -24.6463  -11.6922   20.8771 C   0  0  0  0  0  0
  -23.9117  -10.4311   21.0442 C   0  0  0  0  0  0
  -24.3660   -9.4229   21.9217 C   0  0  0  0  0  0
  -23.6314   -8.2279   22.0784 C   0  0  0  0  0  0
  -22.4298   -8.0320   21.3565 C   0  0  0  0  0  0
  -21.9944   -9.0297   20.4678 C   0  0  0  0  0  0
  -22.7287  -10.2169   20.3109 C   0  0  0  0  0  0
  -21.6868   -6.0779   22.5293 C   0  0  0  0  0  0
  -21.3996   -6.5671   23.8223 C   0  0  0  0  0  0
  -21.3658   -5.6820   24.9187 C   0  0  0  0  0  0
  -21.6049   -4.3080   24.7233 C   0  0  0  0  0  0
  -21.8789   -3.8179   23.4346 C   0  0  0  0  0  0
  -21.9173   -4.7002   22.3409 C   0  0  0  0  0  0
  -22.7886  -13.5240   21.1814 C   0  0  0  0  0  0
  -22.1645   -4.2183   21.0989 F   0  0  0  0  0  0
  -21.5634   -3.4565   25.7741 F   0  0  0  0  0  0
  -29.9885  -13.5516   20.3658 N   0  0  0  0  0  0
  -26.2986  -12.9405   20.3209 N   0  0  0  0  0  0
  -25.9405  -11.6547   20.5767 N   0  0  0  0  0  0
  -22.0480  -12.8293   22.0355 N   0  0  0  0  0  0
  -25.4166  -15.1912   20.3990 N   0  0  0  0  0  0
  -31.8339  -14.8422   20.2167 O   0  0  0  0  0  0
  -21.6653   -6.8937   21.4258 O   0  0  0  0  0  0
  -22.3605  -14.5536   20.6629 O   0  0  0  0  0  0
  -24.6344  -31.8542   23.1963 C   0  0  0  0  0  0
  -25.9168  -32.4746   23.8293 C   0  0  1  0  0  0
  -27.2185  -27.2582   20.1124 C   0  0  0  0  0  0
  -25.5947  -33.8545   24.2216 N   0  0  0  0  0  0
  -23.4298  -30.4758   21.5422 C   0  0  2  0  0  0
  -24.8722  -28.9241   20.1092 C   0  0  0  0  0  0
  -22.7513  -29.4587   22.4920 C   0  0  0  0  0  0
  -18.0302  -28.1393   22.8440 C   0  0  0  0  0  0
  -24.1494  -36.7282   23.2635 C   0  0  0  0  0  0
  -25.9754  -30.7621   21.3772 C   0  0  0  0  0  0
  -26.0460  -29.3831   20.7216 C   0  0  0  0  0  0
  -27.2190  -28.5621   20.7140 C   0  0  0  0  0  0
  -26.0206  -26.8764   19.4638 C   0  0  0  0  0  0
  -24.8651  -27.6777   19.4700 C   0  0  0  0  0  0
  -23.6458  -29.8138   20.1575 C   0  0  0  0  0  0
  -25.4117  -36.3047   24.0313 C   0  0  1  0  0  0
  -20.5907  -28.3668   23.1249 C   0  0  2  0  0  0
  -20.6829  -26.9438   22.5252 C   0  0  0  0  0  0
  -19.5781  -26.6515   21.5055 C   0  0  0  0  0  0
  -18.1963  -26.7995   22.1471 C   0  0  0  0  0  0
  -19.1559  -28.8855   23.2866 C   0  0  0  0  0  0
  -18.9462  -30.1426   23.8922 C   0  0  0  0  0  0
  -17.6470  -30.6544   24.0605 C   0  0  0  0  0  0
  -25.9068  -34.9429   23.5061 C   0  0  0  0  0  0
  -16.5354  -29.9055   23.6342 C   0  0  0  0  0  0
  -16.7284  -28.6497   23.0331 C   0  0  0  0  0  0
  -26.4528  -31.6581   25.0698 C   0  0  0  0  0  0
  -25.3734  -31.3761   26.1408 C   0  0  0  0  0  0
  -27.0374  -30.2986   24.6215 C   0  0  0  0  0  0
  -27.6079  -32.4311   25.7486 C   0  0  0  0  0  0
  -27.5574  -37.1801   24.8462 C   0  0  0  0  0  0
  -21.4212  -29.3075   22.3701 N   0  0  0  0  0  0
  -26.4290  -37.3749   23.9402 N   0  0  0  0  0  0
  -24.6986  -31.0485   22.0958 N   0  0  0  0  0  0
  -23.4224  -28.8076   23.2978 O   0  0  0  0  0  0
  -28.3147  -26.3629   20.1692 O   0  0  0  0  0  0
  -26.5643  -34.8906   22.4625 O   0  0  0  0  0  0
  -23.5495  -32.1384   23.7238 O   0  0  0  0  0  0
  -30.7660  -20.0780   21.4172 C   0  0  0  0  0  0
  -31.1228  -17.6556   21.6740 C   0  0  0  0  0  0
  -29.7705  -19.8905   20.4358 C   0  0  0  0  0  0
  -29.4937  -18.4986   20.0644 C   0  0  0  0  0  0
  -30.1555  -17.3512   20.6924 C   0  0  0  0  0  0
  -31.4237  -18.9885   22.0230 C   0  0  0  0  0  0
  -27.4335  -22.7289   21.0840 C   0  0  0  0  0  0
  -26.5302  -21.8263   21.5286 C   0  0  0  0  0  0
  -27.1631  -24.2358   21.0099 C   0  0  0  0  0  0
  -29.3060  -23.8357   20.0471 C   0  0  0  0  0  0
  -28.1066  -24.8757   19.9830 C   0  0  2  0  0  0
  -28.5283  -18.2454   18.9147 C   0  0  0  0  0  0
  -26.6597  -20.3228   21.6772 C   0  0  0  0  0  0
  -29.1354  -21.2059   19.7660 C   0  0  0  0  0  0
  -29.8321  -15.9163   20.4529 N   0  0  0  0  0  0
  -28.8411  -22.4815   20.5910 N   0  3  1  0  0  0
  -32.6096  -19.2945   23.2364 Cl  0  0  0  0  0  0
  -31.4856  -12.6125   19.1551 H   0  0  0  0  0  0
  -30.4066  -11.5099   19.9677 H   0  0  0  0  0  0
  -29.8118  -11.7168   17.5235 H   0  0  0  0  0  0
  -29.6399  -13.4443   17.7040 H   0  0  0  0  0  0
  -27.8984  -11.2761   18.9092 H   0  0  0  0  0  0
  -27.3945  -12.5038   17.7850 H   0  0  0  0  0  0
  -27.6207  -14.2452   19.4271 H   0  0  0  0  0  0
  -28.7399  -12.2262   21.4388 H   0  0  0  0  0  0
  -28.4320  -13.9212   21.7472 H   0  0  0  0  0  0
  -25.2824   -9.5701   22.4773 H   0  0  0  0  0  0
  -24.0004   -7.4698   22.7543 H   0  0  0  0  0  0
  -21.0851   -8.8862   19.9014 H   0  0  0  0  0  0
  -22.3765  -10.9716   19.6234 H   0  0  0  0  0  0
  -21.1972   -7.6182   23.9731 H   0  0  0  0  0  0
  -21.1514   -6.0571   25.9095 H   0  0  0  0  0  0
  -22.0558   -2.7640   23.2849 H   0  0  0  0  0  0
  -22.4009  -11.9962   22.4810 H   0  0  0  0  0  0
  -21.1134  -13.1454   22.2527 H   0  0  0  0  0  0
  -24.6335  -15.8303   20.4903 H   0  0  0  0  0  0
  -26.2500  -15.6360   20.0372 H   0  0  0  0  0  0
  -26.7228  -32.5417   23.1029 H   0  0  0  0  0  0
  -25.0122  -33.9701   25.0376 H   0  0  0  0  0  0
  -22.7299  -31.2990   21.3958 H   0  0  0  0  0  0
  -23.3753  -35.9625   23.3293 H   0  0  0  0  0  0
  -24.3595  -36.8920   22.2058 H   0  0  0  0  0  0
  -23.7280  -37.6493   23.6663 H   0  0  0  0  0  0
  -26.1213  -31.5242   20.6084 H   0  0  0  0  0  0
  -26.8539  -30.8034   22.0075 H   0  0  0  0  0  0
  -28.1175  -28.9046   21.2093 H   0  0  0  0  0  0
  -25.9339  -25.9365   18.9441 H   0  0  0  0  0  0
  -23.9690  -27.3204   18.9794 H   0  0  0  0  0  0
  -23.7724  -30.5869   19.3991 H   0  0  0  0  0  0
  -22.7620  -29.2510   19.8534 H   0  0  0  0  0  0
  -25.1304  -36.1873   25.0810 H   0  0  0  0  0  0
  -20.9992  -28.3171   24.1369 H   0  0  0  0  0  0
  -20.5872  -26.2186   23.3361 H   0  0  0  0  0  0
  -21.6680  -26.7578   22.0956 H   0  0  0  0  0  0
  -19.6907  -25.6534   21.0868 H   0  0  0  0  0  0
  -19.6701  -27.3504   20.6733 H   0  0  0  0  0  0
  -17.4247  -26.6873   21.3834 H   0  0  0  0  0  0
  -18.0283  -26.0063   22.8755 H   0  0  0  0  0  0
  -19.7924  -30.7222   24.2328 H   0  0  0  0  0  0
  -17.5071  -31.6225   24.5186 H   0  0  0  0  0  0
  -15.5372  -30.2984   23.7676 H   0  0  0  0  0  0
  -15.8676  -28.0864   22.6998 H   0  0  0  0  0  0
  -24.5873  -30.7155   25.7725 H   0  0  0  0  0  0
  -24.8978  -32.2949   26.4825 H   0  0  0  0  0  0
  -25.8030  -30.8920   27.0178 H   0  0  0  0  0  0
  -26.2954  -29.6730   24.1241 H   0  0  0  0  0  0
  -27.4033  -29.7264   25.4754 H   0  0  0  0  0  0
  -27.8836  -30.4244   23.9466 H   0  0  0  0  0  0
  -27.2676  -33.3582   26.2091 H   0  0  0  0  0  0
  -28.3891  -32.6918   25.0334 H   0  0  0  0  0  0
  -28.0738  -31.8415   26.5387 H   0  0  0  0  0  0
  -28.2594  -38.0095   24.7488 H   0  0  0  0  0  0
  -28.1065  -36.2626   24.6289 H   0  0  0  0  0  0
  -27.2299  -37.1464   25.8870 H   0  0  0  0  0  0
  -20.9403  -29.8910   21.7001 H   0  0  0  0  0  0
  -26.0160  -38.2825   24.1372 H   0  0  0  0  0  0
  -31.0628  -21.0744   21.7111 H   0  0  0  0  0  0
  -31.6398  -16.8645   22.1957 H   0  0  0  0  0  0
  -25.5545  -22.2096   21.7935 H   0  0  0  0  0  0
  -26.1170  -24.4253   20.7718 H   0  0  0  0  0  0
  -27.3454  -24.6584   21.9973 H   0  0  0  0  0  0
  -30.0531  -24.2155   20.7430 H   0  0  0  0  0  0
  -29.8061  -23.7566   19.0812 H   0  0  0  0  0  0
  -27.6710  -24.7323   18.9929 H   0  0  0  0  0  0
  -27.5357  -18.6310   19.1372 H   0  0  0  0  0  0
  -28.4338  -17.1862   18.6698 H   0  0  0  0  0  0
  -28.8875  -18.7476   18.0132 H   0  0  0  0  0  0
  -27.6624  -20.0263   21.9659 H   0  0  0  0  0  0
  -26.3698  -19.8154   20.7552 H   0  0  0  0  0  0
  -25.9949  -19.9752   22.4694 H   0  0  0  0  0  0
  -28.2226  -20.9417   19.2342 H   0  0  0  0  0  0
  -29.8346  -21.4794   18.9764 H   0  0  0  0  0  0
  -28.8512  -15.7270   20.3285 H   0  0  0  0  0  0
  -29.4168  -22.3552   21.4078 H   0  0  0  0  0  0
  1 25  1  0  0  0
  1 30  2  0  0  0
  1 85  1  0  0  0
  2  3  1  0  0  0
  2 25  1  0  0  0
  2 88  1  0  0  0
  2 89  1  0  0  0
  3  4  1  0  0  0
  3 90  1  0  0  0
  3 91  1  0  0  0
  4  5  1  0  0  0
  4 92  1  0  0  0
  4 93  1  0  0  0
  5  6  1  0  0  0
  5 26  1  0  0  0
  5 94  1  0  0  0
  6 25  1  0  0  0
  6 95  1  0  0  0
  6 96  1  0  0  0
  7  8  2  0  0  0
  7 26  1  0  0  0
  7 29  1  0  0  0
  8  9  1  0  0  0
  8 22  1  0  0  0
  9 10  1  0  0  0
  9 27  2  0  0  0
 10 11  2  0  0  0
 10 15  1  0  0  0
 11 12  1  0  0  0
 11 97  1  0  0  0
 12 13  2  0  0  0
 12 98  1  0  0  0
 13 14  1  0  0  0
 13 31  1  0  0  0
 14 15  2  0  0  0
 14 99  1  0  0  0
 15100  1  0  0  0
 16 17  2  0  0  0
 16 21  1  0  0  0
 16 31  1  0  0  0
 17 18  1  0  0  0
 17101  1  0  0  0
 18 19  2  0  0  0
 18102  1  0  0  0
 19 20  1  0  0  0
 19 24  1  0  0  0
 20 21  2  0  0  0
 20103  1  0  0  0
 21 23  1  0  0  0
 22 28  1  0  0  0
 22 32  2  0  0  0
 26 27  1  0  0  0
 28104  1  0  0  0
 28105  1  0  0  0
 29106  1  0  0  0
 29107  1  0  0  0
 33 34  1  0  0  0
 33 66  1  0  0  0
 33 70  2  0  0  0
 34 36  1  0  0  0
 34 59  1  0  0  0
 34108  1  0  0  0
 35 44  2  0  0  0
 35 45  1  0  0  0
 35 68  1  0  0  0
 36 56  1  0  0  0
 36109  1  0  0  0
 37 39  1  0  0  0
 37 47  1  0  0  0
 37 66  1  0  0  0
 37110  1  0  0  0
 38 43  2  0  0  0
 38 46  1  0  0  0
 38 47  1  0  0  0
 39 64  1  0  0  0
 39 67  2  0  0  0
 40 52  1  0  0  0
 40 53  2  0  0  0
 40 58  1  0  0  0
 41111  1  0  0  0
 41112  1  0  0  0
 41113  1  0  0  0
 41 48  1  0  0  0
 42 43  1  0  0  0
 42 66  1  0  0  0
 42114  1  0  0  0
 42115  1  0  0  0
 43 44  1  0  0  0
 44116  1  0  0  0
 45 46  2  0  0  0
 45117  1  0  0  0
 46118  1  0  0  0
 47119  1  0  0  0
 47120  1  0  0  0
 48 56  1  0  0  0
 48 65  1  0  0  0
 48121  1  0  0  0
 49 50  1  0  0  0
 49 53  1  0  0  0
 49 64  1  0  0  0
 49122  1  0  0  0
 50 51  1  0  0  0
 50123  1  0  0  0
 50124  1  0  0  0
 51 52  1  0  0  0
 51125  1  0  0  0
 51126  1  0  0  0
 52127  1  0  0  0
 52128  1  0  0  0
 53 54  1  0  0  0
 54 55  2  0  0  0
 54129  1  0  0  0
 55 57  1  0  0  0
 55130  1  0  0  0
 56 69  2  0  0  0
 57 58  2  0  0  0
 57131  1  0  0  0
 58132  1  0  0  0
 59 60  1  0  0  0
 59 61  1  0  0  0
 59 62  1  0  0  0
 60133  1  0  0  0
 60134  1  0  0  0
 60135  1  0  0  0
 61136  1  0  0  0
 61137  1  0  0  0
 61138  1  0  0  0
 62139  1  0  0  0
 62140  1  0  0  0
 62141  1  0  0  0
 63 65  1  0  0  0
 63142  1  0  0  0
 63143  1  0  0  0
 63144  1  0  0  0
 64145  1  0  0  0
 65146  1  0  0  0
 68 81  1  0  0  0
 71 73  2  0  0  0
 71 76  1  0  0  0
 71147  1  0  0  0
 72 75  1  0  0  0
 72 76  2  0  0  0
 72148  1  0  0  0
 73 74  1  0  0  0
 73 84  1  0  0  0
 74 75  2  0  0  0
 74 82  1  0  0  0
 75 85  1  0  0  0
 76 87  1  0  0  0
 77 78  2  0  0  0
 77 79  1  0  0  0
 77 86  1  0  0  0
 78 83  1  0  0  0
 78149  1  0  0  0
 79 81  1  0  0  0
 79150  1  0  0  0
 79151  1  0  0  0
 80 81  1  0  0  0
 80 86  1  0  0  0
 80152  1  0  0  0
 80153  1  0  0  0
 81154  1  0  0  0
 82155  1  0  0  0
 82156  1  0  0  0
 82157  1  0  0  0
 83158  1  0  0  0
 83159  1  0  0  0
 83160  1  0  0  0
 84161  1  0  0  0
 84162  1  0  0  0
 84 86  1  0  0  0
 85163  1  0  0  0
 86164  1  0  0  0
M  CHG  1  86   1
M  ISO  4   1 100  68 101  81 101  85 100
M  END
> <chiral flag>
0

> <version>
0

> <s_m_source_file>
/data/baiqing/PycharmProjects/Reinvent-master-3.2/result/LINK_invent/BTK/process_docking_weight1_custom_product_contain_oxygen_bond_distance_aromatic_linkinvent_7_9_3/rearranged_h_0035.sdf

> <i_m_source_file_index>
93

> <r_mmod_Potential_Energy-OPLS-2005>
102.802116394043

> <r_mmod_Stretch_Energy-OPLS-2005>
127.235237121582

> <r_mmod_Bend_Energy-OPLS-2005>
195.935424804688

> <r_mmod_Torsional_Energy-OPLS-2005>
265.008392333984

> <r_mmod_Improper_Torsional_Energy-OPLS-2005>
8.35363101959229

> <r_mmod_Van_der_Waal_Energy-OPLS-2005>
128.58625793457

> <r_mmod_Electrostatic_Energy-OPLS-2005>
-276.570953369141

> <r_mmod_Solvation_Energy-OPLS-2005>
-442.897674560547

> <b_mmod_Minimization_Converged-OPLS-2005>
0

> <r_mmod_RMS_Derivative-OPLS-2005>
4.83846569061279

$$$$
94
                    3D
 Structure written by MMmdl.
167176  0  0  1  0            999 V2000
  -30.6498  -14.7673   20.5399 C   0  0  0  0  0  0
  -30.4298  -12.4922   19.4696 C   0  0  0  0  0  0
  -29.5042  -12.5358   18.2328 C   0  0  0  0  0  0
  -28.0342  -12.3533   18.6488 C   0  0  0  0  0  0
  -27.6490  -13.2394   19.8611 C   0  0  2  0  0  0
  -28.7009  -13.1426   20.9883 C   0  0  0  0  0  0
  -25.2527  -13.8216   20.5673 C   0  0  0  0  0  0
  -24.1813  -13.0450   20.9167 C   0  0  0  0  0  0
  -24.6426  -11.6923   20.8722 C   0  0  0  0  0  0
  -23.9095  -10.4282   21.0384 C   0  0  0  0  0  0
  -24.3629   -9.4202   21.9175 C   0  0  0  0  0  0
  -23.6295   -8.2241   22.0767 C   0  0  0  0  0  0
  -22.4280   -8.0276   21.3540 C   0  0  0  0  0  0
  -21.9908   -9.0258   20.4645 C   0  0  0  0  0  0
  -22.7259  -10.2129   20.3047 C   0  0  0  0  0  0
  -21.6867   -6.0718   22.5275 C   0  0  0  0  0  0
  -21.4018   -6.5626   23.8203 C   0  0  0  0  0  0
  -21.3659   -5.6784   24.9169 C   0  0  0  0  0  0
  -21.6053   -4.3045   24.7226 C   0  0  0  0  0  0
  -21.8826   -3.8132   23.4348 C   0  0  0  0  0  0
  -21.9194   -4.6942   22.3402 C   0  0  0  0  0  0
  -22.7835  -13.5204   21.1827 C   0  0  0  0  0  0
  -22.1664   -4.2123   21.0979 F   0  0  0  0  0  0
  -21.5628   -3.4536   25.7741 F   0  0  0  0  0  0
  -29.9938  -13.5461   20.4321 N   0  0  0  0  0  0
  -26.2995  -12.9451   20.3340 N   0  0  0  0  0  0
  -25.9373  -11.6582   20.5775 N   0  0  0  0  0  0
  -22.0487  -12.8191   22.0401 N   0  0  0  0  0  0
  -25.4165  -15.1934   20.4035 N   0  0  0  0  0  0
  -31.7396  -14.8752   19.9679 O   0  0  0  0  0  0
  -21.6654   -6.8870   21.4238 O   0  0  0  0  0  0
  -22.3492  -14.5501   20.6680 O   0  0  0  0  0  0
  -24.6319  -31.8559   23.1983 C   0  0  0  0  0  0
  -25.9146  -32.4755   23.8339 C   0  0  1  0  0  0
  -27.2178  -27.2297   20.1309 C   0  0  0  0  0  0
  -25.5963  -33.8553   24.2261 N   0  0  0  0  0  0
  -23.4303  -30.4775   21.5418 C   0  0  2  0  0  0
  -24.8784  -28.9238   20.1116 C   0  0  0  0  0  0
  -22.7511  -29.4608   22.4888 C   0  0  0  0  0  0
  -18.0318  -28.1374   22.8451 C   0  0  0  0  0  0
  -24.1498  -36.7240   23.2643 C   0  0  0  0  0  0
  -25.9809  -30.7537   21.3929 C   0  0  0  0  0  0
  -26.0508  -29.3764   20.7286 C   0  0  0  0  0  0
  -27.2205  -28.5421   20.7293 C   0  0  0  0  0  0
  -26.0168  -26.8612   19.4800 C   0  0  0  0  0  0
  -24.8691  -27.6765   19.4747 C   0  0  0  0  0  0
  -23.6501  -29.8123   20.1582 C   0  0  0  0  0  0
  -25.4136  -36.3050   24.0321 C   0  0  1  0  0  0
  -20.5919  -28.3721   23.1251 C   0  0  2  0  0  0
  -20.6831  -26.9416   22.5426 C   0  0  0  0  0  0
  -19.5819  -26.6366   21.5194 C   0  0  0  0  0  0
  -18.1984  -26.7929   22.1555 C   0  0  0  0  0  0
  -19.1562  -28.8855   23.2858 C   0  0  0  0  0  0
  -18.9491  -30.1444   23.8894 C   0  0  0  0  0  0
  -17.6493  -30.6579   24.0570 C   0  0  0  0  0  0
  -25.9065  -34.9431   23.5091 C   0  0  0  0  0  0
  -16.5378  -29.9057   23.6337 C   0  0  0  0  0  0
  -16.7304  -28.6478   23.0349 C   0  0  0  0  0  0
  -26.4511  -31.6583   25.0738 C   0  0  0  0  0  0
  -25.3716  -31.3735   26.1440 C   0  0  0  0  0  0
  -27.0402  -30.3001   24.6270 C   0  0  0  0  0  0
  -27.6057  -32.4341   25.7529 C   0  0  0  0  0  0
  -27.5589  -37.1777   24.8471 C   0  0  0  0  0  0
  -21.4220  -29.3063   22.3622 N   0  0  0  0  0  0
  -26.4311  -37.3746   23.9392 N   0  0  0  0  0  0
  -24.6994  -31.0483   22.0985 N   0  0  0  0  0  0
  -23.4201  -28.8169   23.3024 O   0  0  0  0  0  0
  -28.3091  -26.3141   20.1960 O   0  0  0  0  0  0
  -26.5612  -34.8900   22.4647 O   0  0  0  0  0  0
  -23.5460  -32.1403   23.7251 O   0  0  0  0  0  0
  -28.0506  -19.5603   21.8079 C   0  0  0  0  0  0
  -27.6285  -18.3467   22.3616 C   0  0  0  0  0  0
  -29.1401  -19.6426   20.9226 C   0  0  0  0  0  0
  -29.8514  -18.3627   20.6786 C   0  0  0  0  0  0
  -29.4488  -17.0672   21.2750 C   0  0  0  0  0  0
  -28.3126  -17.1430   22.1329 C   0  0  0  0  0  0
  -27.2777  -22.5872   20.5260 C   0  0  0  0  0  0
  -26.1884  -21.8230   20.2976 C   0  0  0  0  0  0
  -27.2062  -24.0711   20.9328 C   0  0  0  0  0  0
  -29.2723  -23.7236   19.9113 C   0  0  0  0  0  0
  -28.1112  -24.8244   19.9426 C   0  0  2  0  0  0
  -31.1375  -18.4029   19.8691 C   0  0  0  0  0  0
  -26.1210  -20.4898   19.5752 C   0  0  0  0  0  0
  -31.1534  -15.8386   22.5761 C   0  0  0  0  0  0
  -29.5823  -21.1528   20.5084 C   0  0  0  0  0  0
  -30.2491  -15.7896   21.4155 N   0  0  0  0  0  0
  -28.6633  -22.3138   19.9884 N   0  3  2  0  0  0
  -27.7884  -15.8142   23.1033 Cl  0  0  0  0  0  0
  -31.4678  -12.6115   19.1560 H   0  0  0  0  0  0
  -30.3885  -11.5081   19.9404 H   0  0  0  0  0  0
  -29.7852  -11.7573   17.5233 H   0  0  0  0  0  0
  -29.6311  -13.4855   17.7097 H   0  0  0  0  0  0
  -27.8889  -11.3026   18.9002 H   0  0  0  0  0  0
  -27.3727  -12.5554   17.8054 H   0  0  0  0  0  0
  -27.6501  -14.2670   19.4976 H   0  0  0  0  0  0
  -28.7549  -12.1233   21.3741 H   0  0  0  0  0  0
  -28.4401  -13.7555   21.8385 H   0  0  0  0  0  0
  -25.2778   -9.5675   22.4743 H   0  0  0  0  0  0
  -24.0002   -7.4637   22.7496 H   0  0  0  0  0  0
  -21.0837   -8.8767   19.8959 H   0  0  0  0  0  0
  -22.3710  -10.9654   19.6140 H   0  0  0  0  0  0
  -21.2022   -7.6134   23.9699 H   0  0  0  0  0  0
  -21.1475   -6.0513   25.9065 H   0  0  0  0  0  0
  -22.0609   -2.7592   23.2861 H   0  0  0  0  0  0
  -22.4119  -11.9863   22.4782 H   0  0  0  0  0  0
  -21.1105  -13.1201   22.2608 H   0  0  0  0  0  0
  -24.6545  -15.8480   20.5368 H   0  0  0  0  0  0
  -26.2865  -15.6390   20.1430 H   0  0  0  0  0  0
  -26.7199  -32.5394   23.1066 H   0  0  0  0  0  0
  -25.0171  -33.9704   25.0446 H   0  0  0  0  0  0
  -22.7277  -31.3019   21.3934 H   0  0  0  0  0  0
  -23.3792  -35.9540   23.3301 H   0  0  0  0  0  0
  -24.3569  -36.8871   22.2056 H   0  0  0  0  0  0
  -23.7252  -37.6427   23.6679 H   0  0  0  0  0  0
  -26.1372  -31.5192   20.6332 H   0  0  0  0  0  0
  -26.8520  -30.7903   22.0359 H   0  0  0  0  0  0
  -28.1112  -28.8806   21.2394 H   0  0  0  0  0  0
  -25.9176  -25.9147   18.9744 H   0  0  0  0  0  0
  -23.9729  -27.3292   18.9786 H   0  0  0  0  0  0
  -23.7777  -30.5887   19.4039 H   0  0  0  0  0  0
  -22.7672  -29.2487   19.8511 H   0  0  0  0  0  0
  -25.1342  -36.1867   25.0814 H   0  0  0  0  0  0
  -21.0019  -28.3345   24.1377 H   0  0  0  0  0  0
  -20.5696  -26.2336   23.3640 H   0  0  0  0  0  0
  -21.6702  -26.7417   22.1258 H   0  0  0  0  0  0
  -19.6966  -25.6265   21.1227 H   0  0  0  0  0  0
  -19.6798  -27.3177   20.6727 H   0  0  0  0  0  0
  -17.4292  -26.6694   21.3926 H   0  0  0  0  0  0
  -18.0364  -26.0063   22.8944 H   0  0  0  0  0  0
  -19.7989  -30.7224   24.2275 H   0  0  0  0  0  0
  -17.5046  -31.6238   24.5215 H   0  0  0  0  0  0
  -15.5376  -30.2949   23.7651 H   0  0  0  0  0  0
  -15.8713  -28.0782   22.7071 H   0  0  0  0  0  0
  -24.5873  -30.7117   25.7744 H   0  0  0  0  0  0
  -24.8922  -32.2910   26.4842 H   0  0  0  0  0  0
  -25.7992  -30.8900   27.0230 H   0  0  0  0  0  0
  -26.2992  -29.6680   24.1359 H   0  0  0  0  0  0
  -27.4152  -29.7329   25.4794 H   0  0  0  0  0  0
  -27.8838  -30.4273   23.9493 H   0  0  0  0  0  0
  -27.2640  -33.3635   26.2087 H   0  0  0  0  0  0
  -28.3874  -32.6906   25.0374 H   0  0  0  0  0  0
  -28.0715  -31.8492   26.5464 H   0  0  0  0  0  0
  -28.2613  -38.0067   24.7530 H   0  0  0  0  0  0
  -28.1094  -36.2606   24.6315 H   0  0  0  0  0  0
  -27.2281  -37.1435   25.8864 H   0  0  0  0  0  0
  -20.9413  -29.8767   21.6795 H   0  0  0  0  0  0
  -26.0186  -38.2817   24.1370 H   0  0  0  0  0  0
  -27.5248  -20.4488   22.1182 H   0  0  0  0  0  0
  -26.7972  -18.3573   23.0512 H   0  0  0  0  0  0
  -25.2267  -22.2093   20.6081 H   0  0  0  0  0  0
  -27.5647  -24.1864   21.9565 H   0  0  0  0  0  0
  -26.1828  -24.4443   20.9028 H   0  0  0  0  0  0
  -29.9255  -23.8730   20.7711 H   0  0  0  0  0  0
  -29.8923  -23.8300   19.0209 H   0  0  0  0  0  0
  -27.6638  -24.7538   18.9511 H   0  0  0  0  0  0
  -31.4162  -17.4166   19.5066 H   0  0  0  0  0  0
  -31.9557  -18.7794   20.4857 H   0  0  0  0  0  0
  -31.0460  -19.0386   18.9888 H   0  0  0  0  0  0
  -25.7587  -19.7165   20.2526 H   0  0  0  0  0  0
  -27.0833  -20.1773   19.1713 H   0  0  0  0  0  0
  -25.4193  -20.5504   18.7443 H   0  0  0  0  0  0
  -32.1976  -15.9615   22.2783 H   0  0  0  0  0  0
  -30.9205  -16.6648   23.2503 H   0  0  0  0  0  0
  -31.0757  -14.9172   23.1583 H   0  0  0  0  0  0
  -30.3595  -21.0640   19.7505 H   0  0  0  0  0  0
  -30.0928  -21.5442   21.3877 H   0  0  0  0  0  0
  -28.5278  -22.0506   19.0230 H   0  0  0  0  0  0
  1 25  1  0  0  0
  1 30  2  0  0  0
  1 86  1  0  0  0
  2  3  1  0  0  0
  2 25  1  0  0  0
  2 89  1  0  0  0
  2 90  1  0  0  0
  3  4  1  0  0  0
  3 91  1  0  0  0
  3 92  1  0  0  0
  4  5  1  0  0  0
  4 93  1  0  0  0
  4 94  1  0  0  0
  5  6  1  0  0  0
  5 26  1  0  0  0
  5 95  1  0  0  0
  6 25  1  0  0  0
  6 96  1  0  0  0
  6 97  1  0  0  0
  7  8  2  0  0  0
  7 26  1  0  0  0
  7 29  1  0  0  0
  8  9  1  0  0  0
  8 22  1  0  0  0
  9 10  1  0  0  0
  9 27  2  0  0  0
 10 11  2  0  0  0
 10 15  1  0  0  0
 11 12  1  0  0  0
 11 98  1  0  0  0
 12 13  2  0  0  0
 12 99  1  0  0  0
 13 14  1  0  0  0
 13 31  1  0  0  0
 14 15  2  0  0  0
 14100  1  0  0  0
 15101  1  0  0  0
 16 17  2  0  0  0
 16 21  1  0  0  0
 16 31  1  0  0  0
 17 18  1  0  0  0
 17102  1  0  0  0
 18 19  2  0  0  0
 18103  1  0  0  0
 19 20  1  0  0  0
 19 24  1  0  0  0
 20 21  2  0  0  0
 20104  1  0  0  0
 21 23  1  0  0  0
 22 28  1  0  0  0
 22 32  2  0  0  0
 26 27  1  0  0  0
 28105  1  0  0  0
 28106  1  0  0  0
 29107  1  0  0  0
 29108  1  0  0  0
 33 34  1  0  0  0
 33 66  1  0  0  0
 33 70  2  0  0  0
 34 36  1  0  0  0
 34 59  1  0  0  0
 34109  1  0  0  0
 35 44  2  0  0  0
 35 45  1  0  0  0
 35 68  1  0  0  0
 36 56  1  0  0  0
 36110  1  0  0  0
 37 39  1  0  0  0
 37 47  1  0  0  0
 37 66  1  0  0  0
 37111  1  0  0  0
 38 43  2  0  0  0
 38 46  1  0  0  0
 38 47  1  0  0  0
 39 64  1  0  0  0
 39 67  2  0  0  0
 40 52  1  0  0  0
 40 53  2  0  0  0
 40 58  1  0  0  0
 41112  1  0  0  0
 41113  1  0  0  0
 41114  1  0  0  0
 41 48  1  0  0  0
 42 43  1  0  0  0
 42 66  1  0  0  0
 42115  1  0  0  0
 42116  1  0  0  0
 43 44  1  0  0  0
 44117  1  0  0  0
 45 46  2  0  0  0
 45118  1  0  0  0
 46119  1  0  0  0
 47120  1  0  0  0
 47121  1  0  0  0
 48 56  1  0  0  0
 48 65  1  0  0  0
 48122  1  0  0  0
 49 50  1  0  0  0
 49 53  1  0  0  0
 49 64  1  0  0  0
 49123  1  0  0  0
 50 51  1  0  0  0
 50124  1  0  0  0
 50125  1  0  0  0
 51 52  1  0  0  0
 51126  1  0  0  0
 51127  1  0  0  0
 52128  1  0  0  0
 52129  1  0  0  0
 53 54  1  0  0  0
 54 55  2  0  0  0
 54130  1  0  0  0
 55 57  1  0  0  0
 55131  1  0  0  0
 56 69  2  0  0  0
 57 58  2  0  0  0
 57132  1  0  0  0
 58133  1  0  0  0
 59 60  1  0  0  0
 59 61  1  0  0  0
 59 62  1  0  0  0
 60134  1  0  0  0
 60135  1  0  0  0
 60136  1  0  0  0
 61137  1  0  0  0
 61138  1  0  0  0
 61139  1  0  0  0
 62140  1  0  0  0
 62141  1  0  0  0
 62142  1  0  0  0
 63 65  1  0  0  0
 63143  1  0  0  0
 63144  1  0  0  0
 63145  1  0  0  0
 64146  1  0  0  0
 65147  1  0  0  0
 68 81  1  0  0  0
 71 72  2  0  0  0
 71 73  1  0  0  0
 71148  1  0  0  0
 72 76  1  0  0  0
 72149  1  0  0  0
 73 74  2  0  0  0
 73 85  1  0  0  0
 74 75  1  0  0  0
 74 82  1  0  0  0
 75 76  2  0  0  0
 75 86  1  0  0  0
 76 88  1  0  0  0
 77 78  2  0  0  0
 77 79  1  0  0  0
 77 87  1  0  0  0
 78 83  1  0  0  0
 78150  1  0  0  0
 79 81  1  0  0  0
 79151  1  0  0  0
 79152  1  0  0  0
 80 81  1  0  0  0
 80 87  1  0  0  0
 80153  1  0  0  0
 80154  1  0  0  0
 81155  1  0  0  0
 82156  1  0  0  0
 82157  1  0  0  0
 82158  1  0  0  0
 83159  1  0  0  0
 83160  1  0  0  0
 83161  1  0  0  0
 84 86  1  0  0  0
 84162  1  0  0  0
 84163  1  0  0  0
 84164  1  0  0  0
 85165  1  0  0  0
 85166  1  0  0  0
 85 87  1  0  0  0
 87167  1  0  0  0
M  CHG  1  87   1
M  ISO  4   1 100  68 101  81 101  86 100
M  END
> <chiral flag>
0

> <version>
0

> <s_m_source_file>
/data/baiqing/PycharmProjects/Reinvent-master-3.2/result/LINK_invent/BTK/process_docking_weight1_custom_product_contain_oxygen_bond_distance_aromatic_linkinvent_7_9_3/rearranged_h_0035.sdf

> <i_m_source_file_index>
94

> <r_mmod_Potential_Energy-OPLS-2005>
412.937377929688

> <r_mmod_Stretch_Energy-OPLS-2005>
174.729248046875

> <r_mmod_Bend_Energy-OPLS-2005>
294.709655761719

> <r_mmod_Torsional_Energy-OPLS-2005>
331.715301513672

> <r_mmod_Improper_Torsional_Energy-OPLS-2005>
12.0048418045044

> <r_mmod_Van_der_Waal_Energy-OPLS-2005>
135.143371582031

> <r_mmod_Electrostatic_Energy-OPLS-2005>
-211.924468994141

> <r_mmod_Solvation_Energy-OPLS-2005>
-419.462554931641

> <b_mmod_Minimization_Converged-OPLS-2005>
0

> <r_mmod_RMS_Derivative-OPLS-2005>
3.3877911567688

$$$$
95
                    3D
 Structure written by MMmdl.
159167  0  0  1  0            999 V2000
  -30.6560  -14.5394   20.5065 C   0  0  0  0  0  0
  -30.4389  -12.3347   19.4381 C   0  0  0  0  0  0
  -29.5035  -12.4893   18.2215 C   0  0  0  0  0  0
  -28.0243  -12.3479   18.6361 C   0  0  0  0  0  0
  -27.6588  -13.2020   19.8796 C   0  0  2  0  0  0
  -28.7055  -13.0247   21.0012 C   0  0  0  0  0  0
  -25.2568  -13.8143   20.5671 C   0  0  0  0  0  0
  -24.1819  -13.0418   20.9174 C   0  0  0  0  0  0
  -24.6392  -11.6904   20.8807 C   0  0  0  0  0  0
  -23.9073  -10.4287   21.0429 C   0  0  0  0  0  0
  -24.3612   -9.4188   21.9183 C   0  0  0  0  0  0
  -23.6290   -8.2230   22.0752 C   0  0  0  0  0  0
  -22.4267   -8.0273   21.3532 C   0  0  0  0  0  0
  -21.9912   -9.0258   20.4642 C   0  0  0  0  0  0
  -22.7253  -10.2138   20.3056 C   0  0  0  0  0  0
  -21.6849   -6.0739   22.5285 C   0  0  0  0  0  0
  -21.4018   -6.5637   23.8220 C   0  0  0  0  0  0
  -21.3658   -5.6787   24.9177 C   0  0  0  0  0  0
  -21.6035   -4.3050   24.7218 C   0  0  0  0  0  0
  -21.8834   -3.8156   23.4341 C   0  0  0  0  0  0
  -21.9200   -4.6964   22.3398 C   0  0  0  0  0  0
  -22.7839  -13.5231   21.1838 C   0  0  0  0  0  0
  -22.1657   -4.2152   21.0972 F   0  0  0  0  0  0
  -21.5630   -3.4533   25.7732 F   0  0  0  0  0  0
  -30.0241  -13.3380   20.4276 N   0  0  0  0  0  0
  -26.3023  -12.9316   20.3448 N   0  0  0  0  0  0
  -25.9331  -11.6481   20.5879 N   0  0  0  0  0  0
  -22.0487  -12.8236   22.0432 N   0  0  0  0  0  0
  -25.4247  -15.1858   20.4011 N   0  0  0  0  0  0
  -31.8275  -14.7025   20.1567 O   0  0  0  0  0  0
  -21.6636   -6.8871   21.4245 O   0  0  0  0  0  0
  -22.3514  -14.5510   20.6667 O   0  0  0  0  0  0
  -24.6164  -31.8675   23.2101 C   0  0  0  0  0  0
  -25.9066  -32.4817   23.8396 C   0  0  1  0  0  0
  -27.2457  -27.4215   20.1160 C   0  0  0  0  0  0
  -25.5912  -33.8618   24.2329 N   0  0  0  0  0  0
  -23.4034  -30.4867   21.5527 C   0  0  2  0  0  0
  -24.8540  -28.9366   20.1314 C   0  0  0  0  0  0
  -22.7448  -29.4655   22.5074 C   0  0  0  0  0  0
  -18.0319  -28.1394   22.8524 C   0  0  0  0  0  0
  -24.1496  -36.7313   23.2640 C   0  0  0  0  0  0
  -25.9324  -30.8261   21.3648 C   0  0  0  0  0  0
  -26.0118  -29.4533   20.7276 C   0  0  0  0  0  0
  -27.2109  -28.7017   20.7170 C   0  0  0  0  0  0
  -26.0710  -26.9147   19.5250 C   0  0  0  0  0  0
  -24.8775  -27.6649   19.5299 C   0  0  0  0  0  0
  -23.6137  -29.8049   20.1732 C   0  0  0  0  0  0
  -25.4117  -36.3112   24.0347 C   0  0  1  0  0  0
  -20.5884  -28.3743   23.1434 C   0  0  2  0  0  0
  -20.6847  -26.9535   22.5443 C   0  0  0  0  0  0
  -19.5852  -26.6588   21.5206 C   0  0  0  0  0  0
  -18.2040  -26.7935   22.1683 C   0  0  0  0  0  0
  -19.1525  -28.8879   23.2969 C   0  0  0  0  0  0
  -18.9407  -30.1499   23.8958 C   0  0  0  0  0  0
  -17.6394  -30.6610   24.0547 C   0  0  0  0  0  0
  -25.9033  -34.9475   23.5127 C   0  0  0  0  0  0
  -16.5313  -29.9081   23.6269 C   0  0  0  0  0  0
  -16.7289  -28.6490   23.0331 C   0  0  0  0  0  0
  -26.4479  -31.6588   25.0720 C   0  0  0  0  0  0
  -25.3733  -31.3696   26.1452 C   0  0  0  0  0  0
  -27.0302  -30.3038   24.6087 C   0  0  0  0  0  0
  -27.6047  -32.4305   25.7483 C   0  0  0  0  0  0
  -27.5590  -37.1807   24.8471 C   0  0  0  0  0  0
  -21.4149  -29.3183   22.3947 N   0  0  0  0  0  0
  -26.4312  -37.3795   23.9395 N   0  0  0  0  0  0
  -24.6694  -31.0752   22.1007 N   0  0  0  0  0  0
  -23.4243  -28.8100   23.3006 O   0  0  0  0  0  0
  -28.4334  -26.7346   19.9897 O   0  0  0  0  0  0
  -26.5594  -34.8927   22.4691 O   0  0  0  0  0  0
  -23.5364  -32.1442   23.7457 O   0  0  0  0  0  0
  -28.1654  -20.5541   19.1528 C   0  0  0  0  0  0
  -28.2075  -19.3570   18.4144 C   0  0  0  0  0  0
  -29.4218  -19.4624   20.9282 C   0  0  0  0  0  0
  -28.7570  -20.6155   20.4294 C   0  0  0  0  0  0
  -28.8285  -18.1969   18.9287 C   0  0  0  0  0  0
  -29.4608  -18.2344   20.2083 C   0  0  0  0  0  0
  -28.8014  -16.9396   18.0756 C   0  0  0  0  0  0
  -30.1898  -17.0319   20.8748 C   0  0  0  0  0  0
  -28.5814  -21.8751   21.2980 C   0  0  0  0  0  0
  -28.2572  -24.2367   20.3570 C   0  0  0  0  0  0
  -28.7050  -25.6375   20.8783 C   0  0  0  0  0  0
  -29.8519  -15.5906   20.7977 N   0  0  0  0  0  0
  -29.1858  -23.1260   20.7600 N   0  3  0  0  0  0
  -31.4809  -12.4578   19.1351 H   0  0  0  0  0  0
  -30.3682  -11.3327   19.8600 H   0  0  0  0  0  0
  -29.7453  -11.7401   17.4675 H   0  0  0  0  0  0
  -29.6641  -13.4637   17.7538 H   0  0  0  0  0  0
  -27.8390  -11.2958   18.8465 H   0  0  0  0  0  0
  -27.3770  -12.6059   17.7965 H   0  0  0  0  0  0
  -27.6839  -14.2406   19.5590 H   0  0  0  0  0  0
  -28.7014  -12.0025   21.3823 H   0  0  0  0  0  0
  -28.4748  -13.6613   21.8574 H   0  0  0  0  0  0
  -25.2759   -9.5677   22.4744 H   0  0  0  0  0  0
  -24.0004   -7.4631   22.7470 H   0  0  0  0  0  0
  -21.0837   -8.8787   19.8941 H   0  0  0  0  0  0
  -22.3710  -10.9674   19.6158 H   0  0  0  0  0  0
  -21.2004   -7.6147   23.9725 H   0  0  0  0  0  0
  -21.1457   -6.0508   25.9074 H   0  0  0  0  0  0
  -22.0616   -2.7616   23.2841 H   0  0  0  0  0  0
  -22.4123  -11.9906   22.4822 H   0  0  0  0  0  0
  -21.1116  -13.1293   22.2702 H   0  0  0  0  0  0
  -24.6372  -15.8216   20.4423 H   0  0  0  0  0  0
  -26.2824  -15.6474   20.1273 H   0  0  0  0  0  0
  -26.7144  -32.5538   23.1165 H   0  0  0  0  0  0
  -25.0109  -33.9786   25.0506 H   0  0  0  0  0  0
  -22.6940  -31.3053   21.4067 H   0  0  0  0  0  0
  -23.3757  -35.9643   23.3320 H   0  0  0  0  0  0
  -24.3600  -36.8903   22.2047 H   0  0  0  0  0  0
  -23.7245  -37.6532   23.6637 H   0  0  0  0  0  0
  -26.0393  -31.5788   20.5822 H   0  0  0  0  0  0
  -26.8237  -30.8925   21.9778 H   0  0  0  0  0  0
  -28.1113  -29.1059   21.1569 H   0  0  0  0  0  0
  -26.0910  -25.9502   19.0384 H   0  0  0  0  0  0
  -23.9891  -27.2577   19.0627 H   0  0  0  0  0  0
  -23.7114  -30.5688   19.4018 H   0  0  0  0  0  0
  -22.7400  -29.2167   19.8889 H   0  0  0  0  0  0
  -25.1286  -36.1995   25.0847 H   0  0  0  0  0  0
  -20.9970  -28.3310   24.1556 H   0  0  0  0  0  0
  -20.5757  -26.2302   23.3530 H   0  0  0  0  0  0
  -21.6735  -26.7641   22.1247 H   0  0  0  0  0  0
  -19.7135  -25.6607   21.1030 H   0  0  0  0  0  0
  -19.6716  -27.3594   20.6880 H   0  0  0  0  0  0
  -17.4262  -26.6536   21.4176 H   0  0  0  0  0  0
  -18.0613  -26.0089   22.9126 H   0  0  0  0  0  0
  -19.7844  -30.7335   24.2371 H   0  0  0  0  0  0
  -17.4869  -31.6303   24.5095 H   0  0  0  0  0  0
  -15.5311  -30.2983   23.7539 H   0  0  0  0  0  0
  -15.8706  -28.0813   22.6997 H   0  0  0  0  0  0
  -24.5896  -30.7059   25.7791 H   0  0  0  0  0  0
  -24.8915  -32.2837   26.4923 H   0  0  0  0  0  0
  -25.8068  -30.8845   27.0198 H   0  0  0  0  0  0
  -26.2833  -29.6788   24.1175 H   0  0  0  0  0  0
  -27.4120  -29.7299   25.4535 H   0  0  0  0  0  0
  -27.8655  -30.4371   23.9211 H   0  0  0  0  0  0
  -27.2674  -33.3590   26.2108 H   0  0  0  0  0  0
  -28.3841  -32.6889   25.0301 H   0  0  0  0  0  0
  -28.0742  -31.8394   26.5351 H   0  0  0  0  0  0
  -28.2617  -38.0098   24.7508 H   0  0  0  0  0  0
  -28.1078  -36.2620   24.6315 H   0  0  0  0  0  0
  -27.2298  -37.1488   25.8878 H   0  0  0  0  0  0
  -20.9272  -29.9245   21.7505 H   0  0  0  0  0  0
  -26.0210  -38.2887   24.1372 H   0  0  0  0  0  0
  -27.6494  -21.4102   18.7400 H   0  0  0  0  0  0
  -27.7387  -19.3358   17.4401 H   0  0  0  0  0  0
  -29.8775  -19.4984   21.9071 H   0  0  0  0  0  0
  -28.2265  -17.0851   17.1597 H   0  0  0  0  0  0
  -28.3301  -16.1232   18.6139 H   0  0  0  0  0  0
  -29.8106  -16.6404   17.7944 H   0  0  0  0  0  0
  -30.6845  -16.9447   19.9069 H   0  0  0  0  0  0
  -29.1578  -16.9632   21.2214 H   0  0  0  0  0  0
  -29.0595  -21.6948   22.2624 H   0  0  0  0  0  0
  -27.5209  -22.0051   21.5209 H   0  0  0  0  0  0
  -28.2074  -24.2491   19.2687 H   0  0  0  0  0  0
  -27.2357  -24.0531   20.6938 H   0  0  0  0  0  0
  -29.7893  -25.6413   21.0045 H   0  0  0  0  0  0
  -28.2982  -25.8331   21.8710 H   0  0  0  0  0  0
  -28.8977  -15.3541   21.0214 H   0  0  0  0  0  0
  -29.8042  -22.8857   20.0022 H   0  0  0  0  0  0
  -29.7766  -23.4738   21.5003 H   0  0  0  0  0  0
  1 25  1  0  0  0
  1 30  2  0  0  0
  1 82  1  0  0  0
  2  3  1  0  0  0
  2 25  1  0  0  0
  2 84  1  0  0  0
  2 85  1  0  0  0
  3  4  1  0  0  0
  3 86  1  0  0  0
  3 87  1  0  0  0
  4  5  1  0  0  0
  4 88  1  0  0  0
  4 89  1  0  0  0
  5  6  1  0  0  0
  5 26  1  0  0  0
  5 90  1  0  0  0
  6 25  1  0  0  0
  6 91  1  0  0  0
  6 92  1  0  0  0
  7  8  2  0  0  0
  7 26  1  0  0  0
  7 29  1  0  0  0
  8  9  1  0  0  0
  8 22  1  0  0  0
  9 10  1  0  0  0
  9 27  2  0  0  0
 10 11  2  0  0  0
 10 15  1  0  0  0
 11 12  1  0  0  0
 11 93  1  0  0  0
 12 13  2  0  0  0
 12 94  1  0  0  0
 13 14  1  0  0  0
 13 31  1  0  0  0
 14 15  2  0  0  0
 14 95  1  0  0  0
 15 96  1  0  0  0
 16 17  2  0  0  0
 16 21  1  0  0  0
 16 31  1  0  0  0
 17 18  1  0  0  0
 17 97  1  0  0  0
 18 19  2  0  0  0
 18 98  1  0  0  0
 19 20  1  0  0  0
 19 24  1  0  0  0
 20 21  2  0  0  0
 20 99  1  0  0  0
 21 23  1  0  0  0
 22 28  1  0  0  0
 22 32  2  0  0  0
 26 27  1  0  0  0
 28100  1  0  0  0
 28101  1  0  0  0
 29102  1  0  0  0
 29103  1  0  0  0
 33 34  1  0  0  0
 33 66  1  0  0  0
 33 70  2  0  0  0
 34 36  1  0  0  0
 34 59  1  0  0  0
 34104  1  0  0  0
 35 44  2  0  0  0
 35 45  1  0  0  0
 35 68  1  0  0  0
 36 56  1  0  0  0
 36105  1  0  0  0
 37 39  1  0  0  0
 37 47  1  0  0  0
 37 66  1  0  0  0
 37106  1  0  0  0
 38 43  2  0  0  0
 38 46  1  0  0  0
 38 47  1  0  0  0
 39 64  1  0  0  0
 39 67  2  0  0  0
 40 52  1  0  0  0
 40 53  2  0  0  0
 40 58  1  0  0  0
 41107  1  0  0  0
 41108  1  0  0  0
 41109  1  0  0  0
 41 48  1  0  0  0
 42 43  1  0  0  0
 42 66  1  0  0  0
 42110  1  0  0  0
 42111  1  0  0  0
 43 44  1  0  0  0
 44112  1  0  0  0
 45 46  2  0  0  0
 45113  1  0  0  0
 46114  1  0  0  0
 47115  1  0  0  0
 47116  1  0  0  0
 48 56  1  0  0  0
 48 65  1  0  0  0
 48117  1  0  0  0
 49 50  1  0  0  0
 49 53  1  0  0  0
 49 64  1  0  0  0
 49118  1  0  0  0
 50 51  1  0  0  0
 50119  1  0  0  0
 50120  1  0  0  0
 51 52  1  0  0  0
 51121  1  0  0  0
 51122  1  0  0  0
 52123  1  0  0  0
 52124  1  0  0  0
 53 54  1  0  0  0
 54 55  2  0  0  0
 54125  1  0  0  0
 55 57  1  0  0  0
 55126  1  0  0  0
 56 69  2  0  0  0
 57 58  2  0  0  0
 57127  1  0  0  0
 58128  1  0  0  0
 59 60  1  0  0  0
 59 61  1  0  0  0
 59 62  1  0  0  0
 60129  1  0  0  0
 60130  1  0  0  0
 60131  1  0  0  0
 61132  1  0  0  0
 61133  1  0  0  0
 61134  1  0  0  0
 62135  1  0  0  0
 62136  1  0  0  0
 62137  1  0  0  0
 63 65  1  0  0  0
 63138  1  0  0  0
 63139  1  0  0  0
 63140  1  0  0  0
 64141  1  0  0  0
 65142  1  0  0  0
 68 81  1  0  0  0
 71 72  2  0  0  0
 71 74  1  0  0  0
 71143  1  0  0  0
 72 75  1  0  0  0
 72144  1  0  0  0
 73 74  2  0  0  0
 73 76  1  0  0  0
 73145  1  0  0  0
 74 79  1  0  0  0
 75 76  2  0  0  0
 75 77  1  0  0  0
 76 78  1  0  0  0
 77146  1  0  0  0
 77147  1  0  0  0
 77148  1  0  0  0
 78 82  1  0  0  0
 78149  1  0  0  0
 78150  1  0  0  0
 79 83  1  0  0  0
 79151  1  0  0  0
 79152  1  0  0  0
 80 81  1  0  0  0
 80 83  1  0  0  0
 80153  1  0  0  0
 80154  1  0  0  0
 81155  1  0  0  0
 81156  1  0  0  0
 82157  1  0  0  0
 83158  1  0  0  0
 83159  1  0  0  0
M  CHG  1  83   1
M  ISO  4   1 100  68 101  81 101  82 100
M  END
> <chiral flag>
0

> <version>
0

> <s_m_source_file>
/data/baiqing/PycharmProjects/Reinvent-master-3.2/result/LINK_invent/BTK/process_docking_weight1_custom_product_contain_oxygen_bond_distance_aromatic_linkinvent_7_9_3/rearranged_h_0035.sdf

> <i_m_source_file_index>
95

> <r_mmod_Potential_Energy-OPLS-2005>
-13.3452339172363

> <r_mmod_Stretch_Energy-OPLS-2005>
44.0704498291016

> <r_mmod_Bend_Energy-OPLS-2005>
315.723052978516

> <r_mmod_Torsional_Energy-OPLS-2005>
240.103225708008

> <r_mmod_Improper_Torsional_Energy-OPLS-2005>
5.17586708068848

> <r_mmod_Van_der_Waal_Energy-OPLS-2005>
146.175445556641

> <r_mmod_Electrostatic_Energy-OPLS-2005>
-327.688659667969

> <r_mmod_Solvation_Energy-OPLS-2005>
-457.024536132812

> <b_mmod_Minimization_Converged-OPLS-2005>
0

> <r_mmod_RMS_Derivative-OPLS-2005>
4.64644241333008

$$$$
