0
     RDKit          3D

153162  0  0  0  0  0  0  0  0999 V2000
  -30.7652  -14.3608   20.6636 C   0  0  0  0  0  0  0  0  0100  0  0
  -30.4392  -12.2669   19.3775 C   0  0  0  0  0  0  0  0  0101  0  0
  -29.4791  -12.5281   18.1977 C   0  0  0  0  0  0  0  0  0102  0  0
  -27.9985  -12.3963   18.6038 C   0  0  0  0  0  0  0  0  0103  0  0
  -27.6639  -13.2170   19.8820 C   0  0  2  0  0  0  0  0  0104  0  0
  -28.6795  -12.9602   21.0279 C   0  0  0  0  0  0  0  0  0105  0  0
  -25.2633  -13.8245   20.5754 C   0  0  0  0  0  0  0  0  0106  0  0
  -24.1645  -13.0409   20.9408 C   0  0  0  0  0  0  0  0  0107  0  0
  -24.6400  -11.7009   20.8697 C   0  0  0  0  0  0  0  0  0108  0  0
  -23.9005  -10.4085   21.0420 C   0  0  0  0  0  0  0  0  0109  0  0
  -24.3588   -9.4123   21.9123 C   0  0  0  0  0  0  0  0  0110  0  0
  -23.6296   -8.2350   22.0803 C   0  0  0  0  0  0  0  0  0111  0  0
  -22.4385   -8.0419   21.3657 C   0  0  0  0  0  0  0  0  0112  0  0
  -22.0103   -9.0167   20.4678 C   0  0  0  0  0  0  0  0  0113  0  0
  -22.7317  -10.1925   20.3102 C   0  0  0  0  0  0  0  0  0114  0  0
  -21.6857   -6.0709   22.5391 C   0  0  0  0  0  0  0  0  0115  0  0
  -21.4064   -6.5490   23.8264 C   0  0  0  0  0  0  0  0  0116  0  0
  -21.3635   -5.6677   24.9085 C   0  0  0  0  0  0  0  0  0117  0  0
  -21.5973   -4.3067   24.7088 C   0  0  0  0  0  0  0  0  0118  0  0
  -21.8700   -3.8284   23.4282 C   0  0  0  0  0  0  0  0  0119  0  0
  -21.9144   -4.7056   22.3460 C   0  0  0  0  0  0  0  0  0120  0  0
  -22.8194  -13.5263   21.1763 C   0  0  0  0  0  0  0  0  0121  0  0
  -22.1559   -4.2206   21.1063 F   0  0  0  0  0  0  0  0  0122  0  0
  -21.5628   -3.4510   25.7555 F   0  0  0  0  0  0  0  0  0123  0  0
  -30.0261  -13.1803   20.4553 N   0  0  0  0  0  0  0  0  0124  0  0
  -26.2911  -12.9356   20.3443 N   0  0  0  0  0  0  0  0  0125  0  0
  -25.9236  -11.6675   20.5847 N   0  0  0  0  0  0  0  0  0126  0  0
  -22.0708  -12.7905   22.0005 N   0  0  0  0  0  0  0  0  0127  0  0
  -25.4117  -15.1773   20.4097 N   0  0  0  0  0  0  0  0  0128  0  0
  -31.7916  -14.6724   20.0536 O   0  0  0  0  0  0  0  0  0129  0  0
  -21.6670   -6.9022   21.4423 O   0  0  0  0  0  0  0  0  0130  0  0
  -22.3946  -14.5564   20.6568 O   0  0  0  0  0  0  0  0  0131  0  0
  -24.6048  -31.8614   23.2223 C   0  0  0  0  0  0  0  0  0100  0  0
  -25.8822  -32.4841   23.8616 C   0  0  1  0  0  0  0  0  0101  0  0
  -27.2536  -27.5042   20.1156 C   0  0  0  0  0  0  0  0  0102  0  0
  -25.5726  -33.8762   24.2210 N   0  0  0  0  0  0  0  0  0103  0  0
  -23.4066  -30.4859   21.5461 C   0  0  2  0  0  0  0  0  0104  0  0
  -24.8467  -28.9636   20.1247 C   0  0  0  0  0  0  0  0  0105  0  0
  -22.7412  -29.4652   22.5052 C   0  0  0  0  0  0  0  0  0106  0  0
  -18.0167  -28.1302   22.8626 C   0  0  0  0  0  0  0  0  0107  0  0
  -24.1342  -36.7390   23.2568 C   0  0  0  0  0  0  0  0  0108  0  0
  -25.9141  -30.8882   21.3456 C   0  0  0  0  0  0  0  0  0109  0  0
  -25.9930  -29.5029   20.7208 C   0  0  0  0  0  0  0  0  0110  0  0
  -27.1758  -28.7612   20.7331 C   0  0  0  0  0  0  0  0  0111  0  0
  -26.1032  -26.9836   19.5230 C   0  0  0  0  0  0  0  0  0112  0  0
  -24.9097  -27.7011   19.5331 C   0  0  0  0  0  0  0  0  0113  0  0
  -23.5715  -29.7899   20.1582 C   0  0  0  0  0  0  0  0  0114  0  0
  -25.3990  -36.3212   24.0232 C   0  0  1  0  0  0  0  0  0115  0  0
  -20.5793  -28.3813   23.1004 C   0  0  2  0  0  0  0  0  0116  0  0
  -20.6548  -26.9392   22.5411 C   0  0  0  0  0  0  0  0  0117  0  0
  -19.5615  -26.6407   21.5143 C   0  0  0  0  0  0  0  0  0118  0  0
  -18.1797  -26.7818   22.1673 C   0  0  0  0  0  0  0  0  0119  0  0
  -19.1385  -28.8769   23.2988 C   0  0  0  0  0  0  0  0  0120  0  0
  -18.9183  -30.1286   23.8878 C   0  0  0  0  0  0  0  0  0121  0  0
  -17.6396  -30.6493   24.0352 C   0  0  0  0  0  0  0  0  0122  0  0
  -25.9153  -34.9582   23.4993 C   0  0  0  0  0  0  0  0  0123  0  0
  -16.5415  -29.9068   23.6254 C   0  0  0  0  0  0  0  0  0124  0  0
  -16.7331  -28.6521   23.0586 C   0  0  0  0  0  0  0  0  0125  0  0
  -26.4583  -31.6439   25.0683 C   0  0  0  0  0  0  0  0  0126  0  0
  -25.3807  -31.3179   26.1374 C   0  0  0  0  0  0  0  0  0127  0  0
  -27.0530  -30.3024   24.5680 C   0  0  0  0  0  0  0  0  0128  0  0
  -27.6014  -32.4281   25.7651 C   0  0  0  0  0  0  0  0  0129  0  0
  -27.5629  -37.2220   24.8621 C   0  0  0  0  0  0  0  0  0130  0  0
  -21.4133  -29.3375   22.3735 N   0  0  0  0  0  0  0  0  0131  0  0
  -26.4706  -37.3372   23.9061 N   0  0  0  0  0  0  0  0  0132  0  0
  -24.6674  -31.0544   22.1178 N   0  0  0  0  0  0  0  0  0133  0  0
  -23.4259  -28.8150   23.2971 O   0  0  0  0  0  0  0  0  0134  0  0
  -28.3948  -26.7345   20.0089 O   0  0  0  0  0  0  0  0  0135  0  0
  -26.5870  -34.9065   22.4671 O   0  0  0  0  0  0  0  0  0136  0  0
  -23.5365  -32.1254   23.7833 O   0  0  0  0  0  0  0  0  0137  0  0
  -30.8213  -21.1149   20.3824 C   0  0  0  0  0  0  0  0  0  0  0  0
  -28.2439  -21.1497   19.3382 C   0  0  0  0  0  0  0  0  0  0  0  0
  -30.6057  -20.6979   19.0582 C   0  0  0  0  0  0  0  0  0  0  0  0
  -28.4718  -21.5531   20.6556 C   0  0  0  0  0  0  0  0  0  0  0  0
  -29.2978  -20.6958   18.5280 C   0  0  0  0  0  0  0  0  0  0  0  0
  -29.7584  -21.5297   21.1800 C   0  0  0  0  0  0  0  0  0  0  0  0
  -31.8061  -20.3200   18.2272 C   0  0  0  0  0  0  0  0  0  0  0  0
  -31.4232  -19.5747   16.9576 C   0  0  0  0  0  0  0  0  0  0  0  0
  -30.2436  -20.2571   16.2872 C   0  0  0  0  0  0  0  0  0  0  0  0
  -27.3115  -22.0133   21.4776 C   0  0  0  0  0  0  0  0  0  1  0  0
  -29.0775  -20.2735   17.1710 N   0  0  0  0  0  0  0  0  0  0  0  0
  -30.0082  -21.9359   22.5084 N   0  0  0  0  0  0  0  0  0  0  0  0
  -31.4485  -12.4701   19.0860 H   0  0  0  0  0  0  0  0  0  0  0  0
  -30.3970  -11.2460   19.6950 H   0  0  0  0  0  0  0  0  0  0  0  0
  -29.6870  -11.8204   17.4226 H   0  0  0  0  0  0  0  0  0  0  0  0
  -29.6375  -13.5326   17.8649 H   0  0  0  0  0  0  0  0  0  0  0  0
  -27.7830  -11.3650   18.7904 H   0  0  0  0  0  0  0  0  0  0  0  0
  -27.4028  -12.7801   17.8021 H   0  0  0  0  0  0  0  0  0  0  0  0
  -27.7353  -14.2503   19.6136 H   0  0  0  0  0  0  0  0  0  0  0  0
  -28.5890  -11.9550   21.3832 H   0  0  0  0  0  0  0  0  0  0  0  0
  -28.5005  -13.6134   21.8562 H   0  0  0  0  0  0  0  0  0  0  0  0
  -25.2399   -9.5495   22.4318 H   0  0  0  0  0  0  0  0  0  0  0  0
  -23.9663   -7.5070   22.7297 H   0  0  0  0  0  0  0  0  0  0  0  0
  -21.1515   -8.8641   19.9162 H   0  0  0  0  0  0  0  0  0  0  0  0
  -22.4016  -10.9115   19.6476 H   0  0  0  0  0  0  0  0  0  0  0  0
  -21.2319   -7.5552   23.9750 H   0  0  0  0  0  0  0  0  0  0  0  0
  -21.1589   -6.0228   25.8556 H   0  0  0  0  0  0  0  0  0  0  0  0
  -22.0396   -2.8212   23.2809 H   0  0  0  0  0  0  0  0  0  0  0  0
  -22.4401  -11.9703   22.4008 H   0  0  0  0  0  0  0  0  0  0  0  0
  -21.1493  -13.0679   22.2082 H   0  0  0  0  0  0  0  0  0  0  0  0
  -24.6538  -15.7807   20.5848 H   0  0  0  0  0  0  0  0  0  0  0  0
  -26.2762  -15.5453   20.1156 H   0  0  0  0  0  0  0  0  0  0  0  0
  -26.6778  -32.4663   23.1464 H   0  0  0  0  0  0  0  0  0  0  0  0
  -25.0747  -34.0282   25.0566 H   0  0  0  0  0  0  0  0  0  0  0  0
  -22.7881  -31.3489   21.4131 H   0  0  0  0  0  0  0  0  0  0  0  0
  -23.3854  -35.9823   23.3648 H   0  0  0  0  0  0  0  0  0  0  0  0
  -24.3696  -36.8624   22.2204 H   0  0  0  0  0  0  0  0  0  0  0  0
  -23.7669  -37.6632   23.6516 H   0  0  0  0  0  0  0  0  0  0  0  0
  -25.9445  -31.6237   20.5691 H   0  0  0  0  0  0  0  0  0  0  0  0
  -26.7436  -31.0079   22.0108 H   0  0  0  0  0  0  0  0  0  0  0  0
  -28.0090  -29.1452   21.2057 H   0  0  0  0  0  0  0  0  0  0  0  0
  -26.1369  -26.0560   19.0719 H   0  0  0  0  0  0  0  0  0  0  0  0
  -24.0652  -27.2961   19.0997 H   0  0  0  0  0  0  0  0  0  0  0  0
  -23.6156  -30.5365   19.3930 H   0  0  0  0  0  0  0  0  0  0  0  0
  -22.7355  -29.1425   19.9945 H   0  0  0  0  0  0  0  0  0  0  0  0
  -25.1353  -36.2335   25.0565 H   0  0  0  0  0  0  0  0  0  0  0  0
  -21.0070  -28.3206   24.0793 H   0  0  0  0  0  0  0  0  0  0  0  0
  -20.5555  -26.2518   23.3550 H   0  0  0  0  0  0  0  0  0  0  0  0
  -21.5974  -26.8362   22.0454 H   0  0  0  0  0  0  0  0  0  0  0  0
  -19.6810  -25.6422   21.1488 H   0  0  0  0  0  0  0  0  0  0  0  0
  -19.6406  -27.3343   20.7034 H   0  0  0  0  0  0  0  0  0  0  0  0
  -17.4282  -26.6888   21.4113 H   0  0  0  0  0  0  0  0  0  0  0  0
  -18.0803  -26.0130   22.9049 H   0  0  0  0  0  0  0  0  0  0  0  0
  -19.7265  -30.6774   24.2204 H   0  0  0  0  0  0  0  0  0  0  0  0
  -17.5064  -31.5856   24.4483 H   0  0  0  0  0  0  0  0  0  0  0  0
  -15.5878  -30.2839   23.7407 H   0  0  0  0  0  0  0  0  0  0  0  0
  -15.9120  -28.0941   22.7766 H   0  0  0  0  0  0  0  0  0  0  0  0
  -24.5787  -30.7757   25.6817 H   0  0  0  0  0  0  0  0  0  0  0  0
  -25.0041  -32.2289   26.5536 H   0  0  0  0  0  0  0  0  0  0  0  0
  -25.8166  -30.7245   26.9138 H   0  0  0  0  0  0  0  0  0  0  0  0
  -26.2892  -29.7335   24.0803 H   0  0  0  0  0  0  0  0  0  0  0  0
  -27.4336  -29.7484   25.4006 H   0  0  0  0  0  0  0  0  0  0  0  0
  -27.8466  -30.4994   23.8779 H   0  0  0  0  0  0  0  0  0  0  0  0
  -27.2251  -33.3632   26.1242 H   0  0  0  0  0  0  0  0  0  0  0  0
  -28.3902  -32.6065   25.0645 H   0  0  0  0  0  0  0  0  0  0  0  0
  -27.9772  -31.8555   26.5872 H   0  0  0  0  0  0  0  0  0  0  0  0
  -28.2744  -38.0016   24.6863 H   0  0  0  0  0  0  0  0  0  0  0  0
  -28.0396  -36.2711   24.7461 H   0  0  0  0  0  0  0  0  0  0  0  0
  -27.1773  -37.3087   25.8564 H   0  0  0  0  0  0  0  0  0  0  0  0
  -20.9627  -29.9365   21.7352 H   0  0  0  0  0  0  0  0  0  0  0  0
  -26.0447  -38.2561   24.0273 H   0  0  0  0  0  0  0  0  0  0  0  0
  -31.7785  -21.1137   20.7682 H   0  0  0  0  0  0  0  0  0  0  0  0
  -27.2867  -21.1856   18.9541 H   0  0  0  0  0  0  0  0  0  0  0  0
  -32.4459  -19.6938   18.8132 H   0  0  0  0  0  0  0  0  0  0  0  0
  -32.2993  -21.2243   17.9376 H   0  0  0  0  0  0  0  0  0  0  0  0
  -31.1562  -18.5685   17.2048 H   0  0  0  0  0  0  0  0  0  0  0  0
  -32.2563  -19.5759   16.2861 H   0  0  0  0  0  0  0  0  0  0  0  0
  -29.9961  -19.7280   15.3907 H   0  0  0  0  0  0  0  0  0  0  0  0
  -30.5160  -21.2671   16.0624 H   0  0  0  0  0  0  0  0  0  0  0  0
  -27.4136  -21.8395   22.5284 H   0  0  0  0  0  0  0  0  0  0  0  0
  -26.3341  -21.5971   21.3498 H   0  0  0  0  0  0  0  0  0  0  0  0
  -30.9253  -21.9137   22.8657 H   0  0  0  0  0  0  0  0  0  0  0  0
  -29.2654  -22.2414   23.0777 H   0  0  0  0  0  0  0  0  0  0  0  0
  1 25  1  0
  1 30  2  0
  1 81  1  0
  2  3  1  0
  2 25  1  0
  2 83  1  0
  2 84  1  0
  3  4  1  0
  3 85  1  0
  3 86  1  0
  4  5  1  0
  4 87  1  0
  4 88  1  0
  5  6  1  0
  5 26  1  0
  5 89  1  6
  6 25  1  0
  6 90  1  0
  6 91  1  0
  7  8  2  0
  7 26  1  0
  7 29  1  0
  8  9  1  0
  8 22  1  0
  9 10  1  0
  9 27  2  0
 10 11  2  0
 10 15  1  0
 11 12  1  0
 11 92  1  0
 12 13  2  0
 12 93  1  0
 13 14  1  0
 13 31  1  0
 14 15  2  0
 14 94  1  0
 15 95  1  0
 16 17  2  0
 16 21  1  0
 16 31  1  0
 17 18  1  0
 17 96  1  0
 18 19  2  0
 18 97  1  0
 19 20  1  0
 19 24  1  0
 20 21  2  0
 20 98  1  0
 21 23  1  0
 22 28  1  0
 22 32  2  0
 26 27  1  0
 28 99  1  0
 28100  1  0
 29101  1  0
 29102  1  0
 33 34  1  0
 33 66  1  0
 33 70  2  0
 34 36  1  0
 34 59  1  0
 34103  1  6
 35 44  2  0
 35 45  1  0
 35 68  1  0
 36 56  1  0
 36104  1  0
 37 39  1  0
 37 47  1  0
 37 66  1  0
 37105  1  6
 38 43  2  0
 38 46  1  0
 38 47  1  0
 39 64  1  0
 39 67  2  0
 40 52  1  0
 40 53  2  0
 40 58  1  0
 41106  1  0
 41107  1  0
 41108  1  0
 42 43  1  0
 42 66  1  0
 42109  1  0
 42110  1  0
 43 44  1  0
 44111  1  0
 45 46  2  0
 45112  1  0
 46113  1  0
 47114  1  0
 47115  1  0
 48 41  1  0
 48 56  1  0
 48 65  1  0
 48116  1  1
 49 50  1  0
 49 53  1  0
 49 64  1  0
 49117  1  1
 50 51  1  0
 50118  1  0
 50119  1  0
 51 52  1  0
 51120  1  0
 51121  1  0
 52122  1  0
 52123  1  0
 53 54  1  0
 54 55  2  0
 54124  1  0
 55 57  1  0
 55125  1  0
 56 69  2  0
 57 58  2  0
 57126  1  0
 58127  1  0
 59 60  1  0
 59 61  1  0
 59 62  1  0
 60128  1  0
 60129  1  0
 60130  1  0
 61131  1  0
 61132  1  0
 61133  1  0
 62134  1  0
 62135  1  0
 62136  1  0
 63 65  1  0
 63137  1  0
 63138  1  0
 63139  1  0
 64140  1  0
 65141  1  0
 68 80  1  0
 71 73  2  0
 71 76  1  0
 71142  1  0
 72 74  1  0
 72 75  2  0
 72143  1  0
 73 75  1  0
 73 77  1  0
 74 76  2  0
 74 80  1  0
 75 81  1  0
 76 82  1  0
 77 78  1  0
 77144  1  0
 77145  1  0
 78 79  1  0
 78146  1  0
 78147  1  0
 79 81  1  0
 79148  1  0
 79149  1  0
 80150  1  0
 80151  1  0
 82152  1  0
 82153  1  0
M  ISO  4   1 100  68 101  80 101  81 100
M  END
$$$$
1
     RDKit          3D

159168  0  0  0  0  0  0  0  0999 V2000
  -30.7652  -14.3608   20.6636 C   0  0  0  0  0  0  0  0  0100  0  0
  -30.4392  -12.2669   19.3775 C   0  0  0  0  0  0  0  0  0101  0  0
  -29.4791  -12.5281   18.1977 C   0  0  0  0  0  0  0  0  0102  0  0
  -27.9985  -12.3963   18.6038 C   0  0  0  0  0  0  0  0  0103  0  0
  -27.6639  -13.2170   19.8820 C   0  0  2  0  0  0  0  0  0104  0  0
  -28.6795  -12.9602   21.0279 C   0  0  0  0  0  0  0  0  0105  0  0
  -25.2633  -13.8245   20.5754 C   0  0  0  0  0  0  0  0  0106  0  0
  -24.1645  -13.0409   20.9408 C   0  0  0  0  0  0  0  0  0107  0  0
  -24.6400  -11.7009   20.8697 C   0  0  0  0  0  0  0  0  0108  0  0
  -23.9005  -10.4085   21.0420 C   0  0  0  0  0  0  0  0  0109  0  0
  -24.3588   -9.4123   21.9123 C   0  0  0  0  0  0  0  0  0110  0  0
  -23.6296   -8.2350   22.0803 C   0  0  0  0  0  0  0  0  0111  0  0
  -22.4385   -8.0419   21.3657 C   0  0  0  0  0  0  0  0  0112  0  0
  -22.0103   -9.0167   20.4678 C   0  0  0  0  0  0  0  0  0113  0  0
  -22.7317  -10.1925   20.3102 C   0  0  0  0  0  0  0  0  0114  0  0
  -21.6857   -6.0709   22.5391 C   0  0  0  0  0  0  0  0  0115  0  0
  -21.4064   -6.5490   23.8264 C   0  0  0  0  0  0  0  0  0116  0  0
  -21.3635   -5.6677   24.9085 C   0  0  0  0  0  0  0  0  0117  0  0
  -21.5973   -4.3067   24.7088 C   0  0  0  0  0  0  0  0  0118  0  0
  -21.8700   -3.8284   23.4282 C   0  0  0  0  0  0  0  0  0119  0  0
  -21.9144   -4.7056   22.3460 C   0  0  0  0  0  0  0  0  0120  0  0
  -22.8194  -13.5263   21.1763 C   0  0  0  0  0  0  0  0  0121  0  0
  -22.1559   -4.2206   21.1063 F   0  0  0  0  0  0  0  0  0122  0  0
  -21.5628   -3.4510   25.7555 F   0  0  0  0  0  0  0  0  0123  0  0
  -30.0261  -13.1803   20.4553 N   0  0  0  0  0  0  0  0  0124  0  0
  -26.2911  -12.9356   20.3443 N   0  0  0  0  0  0  0  0  0125  0  0
  -25.9236  -11.6675   20.5847 N   0  0  0  0  0  0  0  0  0126  0  0
  -22.0708  -12.7905   22.0005 N   0  0  0  0  0  0  0  0  0127  0  0
  -25.4117  -15.1773   20.4097 N   0  0  0  0  0  0  0  0  0128  0  0
  -31.7916  -14.6724   20.0536 O   0  0  0  0  0  0  0  0  0129  0  0
  -21.6670   -6.9022   21.4423 O   0  0  0  0  0  0  0  0  0130  0  0
  -22.3946  -14.5564   20.6568 O   0  0  0  0  0  0  0  0  0131  0  0
  -24.6048  -31.8614   23.2223 C   0  0  0  0  0  0  0  0  0100  0  0
  -25.8822  -32.4841   23.8616 C   0  0  1  0  0  0  0  0  0101  0  0
  -27.2536  -27.5042   20.1156 C   0  0  0  0  0  0  0  0  0102  0  0
  -25.5726  -33.8762   24.2210 N   0  0  0  0  0  0  0  0  0103  0  0
  -23.4066  -30.4859   21.5461 C   0  0  2  0  0  0  0  0  0104  0  0
  -24.8467  -28.9636   20.1247 C   0  0  0  0  0  0  0  0  0105  0  0
  -22.7412  -29.4652   22.5052 C   0  0  0  0  0  0  0  0  0106  0  0
  -18.0167  -28.1302   22.8626 C   0  0  0  0  0  0  0  0  0107  0  0
  -24.1342  -36.7390   23.2568 C   0  0  0  0  0  0  0  0  0108  0  0
  -25.9141  -30.8882   21.3456 C   0  0  0  0  0  0  0  0  0109  0  0
  -25.9930  -29.5029   20.7208 C   0  0  0  0  0  0  0  0  0110  0  0
  -27.1758  -28.7612   20.7331 C   0  0  0  0  0  0  0  0  0111  0  0
  -26.1032  -26.9836   19.5230 C   0  0  0  0  0  0  0  0  0112  0  0
  -24.9097  -27.7011   19.5331 C   0  0  0  0  0  0  0  0  0113  0  0
  -23.5715  -29.7899   20.1582 C   0  0  0  0  0  0  0  0  0114  0  0
  -25.3990  -36.3212   24.0232 C   0  0  1  0  0  0  0  0  0115  0  0
  -20.5793  -28.3813   23.1004 C   0  0  2  0  0  0  0  0  0116  0  0
  -20.6548  -26.9392   22.5411 C   0  0  0  0  0  0  0  0  0117  0  0
  -19.5615  -26.6407   21.5143 C   0  0  0  0  0  0  0  0  0118  0  0
  -18.1797  -26.7818   22.1673 C   0  0  0  0  0  0  0  0  0119  0  0
  -19.1385  -28.8769   23.2988 C   0  0  0  0  0  0  0  0  0120  0  0
  -18.9183  -30.1286   23.8878 C   0  0  0  0  0  0  0  0  0121  0  0
  -17.6396  -30.6493   24.0352 C   0  0  0  0  0  0  0  0  0122  0  0
  -25.9153  -34.9582   23.4993 C   0  0  0  0  0  0  0  0  0123  0  0
  -16.5415  -29.9068   23.6254 C   0  0  0  0  0  0  0  0  0124  0  0
  -16.7331  -28.6521   23.0586 C   0  0  0  0  0  0  0  0  0125  0  0
  -26.4583  -31.6439   25.0683 C   0  0  0  0  0  0  0  0  0126  0  0
  -25.3807  -31.3179   26.1374 C   0  0  0  0  0  0  0  0  0127  0  0
  -27.0530  -30.3024   24.5680 C   0  0  0  0  0  0  0  0  0128  0  0
  -27.6014  -32.4281   25.7651 C   0  0  0  0  0  0  0  0  0129  0  0
  -27.5629  -37.2220   24.8621 C   0  0  0  0  0  0  0  0  0130  0  0
  -21.4133  -29.3375   22.3735 N   0  0  0  0  0  0  0  0  0131  0  0
  -26.4706  -37.3372   23.9061 N   0  0  0  0  0  0  0  0  0132  0  0
  -24.6674  -31.0544   22.1178 N   0  0  0  0  0  0  0  0  0133  0  0
  -23.4259  -28.8150   23.2971 O   0  0  0  0  0  0  0  0  0134  0  0
  -28.3948  -26.7345   20.0089 O   0  0  0  0  0  0  0  0  0135  0  0
  -26.5870  -34.9065   22.4671 O   0  0  0  0  0  0  0  0  0136  0  0
  -23.5365  -32.1254   23.7833 O   0  0  0  0  0  0  0  0  0137  0  0
  -29.2936  -17.0063   20.1085 C   0  0  0  0  0  0  0  0  0  0  0  0
  -28.9861  -17.4316   22.4668 C   0  0  0  0  0  0  0  0  0  0  0  0
  -28.5690  -18.1591   19.8061 C   0  0  0  0  0  0  0  0  0  0  0  0
  -28.2616  -18.5845   22.1644 C   0  0  0  0  0  0  0  0  0  0  0  0
  -29.5021  -16.6425   21.4388 C   0  0  0  0  0  0  0  0  0  0  0  0
  -28.0530  -18.9483   20.8340 C   0  0  0  0  0  0  0  0  0  0  0  0
  -27.5724  -20.8762   19.3500 C   0  0  0  0  0  0  0  0  0  0  0  0
  -30.2574  -15.4404   21.7542 C   0  0  0  0  0  0  0  0  0  0  0  0
  -26.5423  -21.9161   18.9513 C   0  0  0  0  0  0  0  0  0  0  0  0
  -25.8783  -22.6161   20.1166 C   0  0  0  0  0  0  0  0  0  0  0  0
  -26.4032  -20.6725   21.5622 C   0  0  0  0  0  0  0  0  0  0  0  0
  -25.2808  -21.5694   21.0424 C   0  0  1  0  0  0  0  0  0  0  0  0
  -24.5302  -22.2252   22.1996 C   0  0  0  0  0  0  0  0  0  1  0  0
  -30.4924  -15.0412   22.9750 N   0  0  0  0  0  0  0  0  0  0  0  0
  -27.3014  -20.1445   20.5191 N   0  0  0  0  0  0  0  0  0  0  0  0
  -28.5380  -20.7003   18.6021 O   0  0  0  0  0  0  0  0  0  0  0  0
  -31.4485  -12.4701   19.0860 H   0  0  0  0  0  0  0  0  0  0  0  0
  -30.3970  -11.2460   19.6950 H   0  0  0  0  0  0  0  0  0  0  0  0
  -29.6870  -11.8204   17.4226 H   0  0  0  0  0  0  0  0  0  0  0  0
  -29.6375  -13.5326   17.8649 H   0  0  0  0  0  0  0  0  0  0  0  0
  -27.7830  -11.3650   18.7904 H   0  0  0  0  0  0  0  0  0  0  0  0
  -27.4028  -12.7801   17.8021 H   0  0  0  0  0  0  0  0  0  0  0  0
  -27.7353  -14.2503   19.6136 H   0  0  0  0  0  0  0  0  0  0  0  0
  -28.5890  -11.9550   21.3832 H   0  0  0  0  0  0  0  0  0  0  0  0
  -28.5005  -13.6134   21.8562 H   0  0  0  0  0  0  0  0  0  0  0  0
  -25.2399   -9.5495   22.4318 H   0  0  0  0  0  0  0  0  0  0  0  0
  -23.9663   -7.5070   22.7297 H   0  0  0  0  0  0  0  0  0  0  0  0
  -21.1515   -8.8641   19.9162 H   0  0  0  0  0  0  0  0  0  0  0  0
  -22.4016  -10.9115   19.6476 H   0  0  0  0  0  0  0  0  0  0  0  0
  -21.2319   -7.5552   23.9750 H   0  0  0  0  0  0  0  0  0  0  0  0
  -21.1589   -6.0228   25.8556 H   0  0  0  0  0  0  0  0  0  0  0  0
  -22.0396   -2.8212   23.2809 H   0  0  0  0  0  0  0  0  0  0  0  0
  -22.4401  -11.9703   22.4008 H   0  0  0  0  0  0  0  0  0  0  0  0
  -21.1493  -13.0679   22.2082 H   0  0  0  0  0  0  0  0  0  0  0  0
  -24.6538  -15.7807   20.5848 H   0  0  0  0  0  0  0  0  0  0  0  0
  -26.2762  -15.5453   20.1156 H   0  0  0  0  0  0  0  0  0  0  0  0
  -26.6778  -32.4663   23.1464 H   0  0  0  0  0  0  0  0  0  0  0  0
  -25.0747  -34.0282   25.0566 H   0  0  0  0  0  0  0  0  0  0  0  0
  -22.7881  -31.3489   21.4131 H   0  0  0  0  0  0  0  0  0  0  0  0
  -23.3854  -35.9823   23.3648 H   0  0  0  0  0  0  0  0  0  0  0  0
  -24.3696  -36.8624   22.2204 H   0  0  0  0  0  0  0  0  0  0  0  0
  -23.7669  -37.6632   23.6516 H   0  0  0  0  0  0  0  0  0  0  0  0
  -25.9445  -31.6237   20.5691 H   0  0  0  0  0  0  0  0  0  0  0  0
  -26.7436  -31.0079   22.0108 H   0  0  0  0  0  0  0  0  0  0  0  0
  -28.0090  -29.1452   21.2057 H   0  0  0  0  0  0  0  0  0  0  0  0
  -26.1369  -26.0560   19.0719 H   0  0  0  0  0  0  0  0  0  0  0  0
  -24.0652  -27.2961   19.0997 H   0  0  0  0  0  0  0  0  0  0  0  0
  -23.6156  -30.5365   19.3930 H   0  0  0  0  0  0  0  0  0  0  0  0
  -22.7355  -29.1425   19.9945 H   0  0  0  0  0  0  0  0  0  0  0  0
  -25.1353  -36.2335   25.0565 H   0  0  0  0  0  0  0  0  0  0  0  0
  -21.0070  -28.3206   24.0793 H   0  0  0  0  0  0  0  0  0  0  0  0
  -20.5555  -26.2518   23.3550 H   0  0  0  0  0  0  0  0  0  0  0  0
  -21.5974  -26.8362   22.0454 H   0  0  0  0  0  0  0  0  0  0  0  0
  -19.6810  -25.6422   21.1488 H   0  0  0  0  0  0  0  0  0  0  0  0
  -19.6406  -27.3343   20.7034 H   0  0  0  0  0  0  0  0  0  0  0  0
  -17.4282  -26.6888   21.4113 H   0  0  0  0  0  0  0  0  0  0  0  0
  -18.0803  -26.0130   22.9049 H   0  0  0  0  0  0  0  0  0  0  0  0
  -19.7265  -30.6774   24.2204 H   0  0  0  0  0  0  0  0  0  0  0  0
  -17.5064  -31.5856   24.4483 H   0  0  0  0  0  0  0  0  0  0  0  0
  -15.5878  -30.2839   23.7407 H   0  0  0  0  0  0  0  0  0  0  0  0
  -15.9120  -28.0941   22.7766 H   0  0  0  0  0  0  0  0  0  0  0  0
  -24.5787  -30.7757   25.6817 H   0  0  0  0  0  0  0  0  0  0  0  0
  -25.0041  -32.2289   26.5536 H   0  0  0  0  0  0  0  0  0  0  0  0
  -25.8166  -30.7245   26.9138 H   0  0  0  0  0  0  0  0  0  0  0  0
  -26.2892  -29.7335   24.0803 H   0  0  0  0  0  0  0  0  0  0  0  0
  -27.4336  -29.7484   25.4006 H   0  0  0  0  0  0  0  0  0  0  0  0
  -27.8466  -30.4994   23.8779 H   0  0  0  0  0  0  0  0  0  0  0  0
  -27.2251  -33.3632   26.1242 H   0  0  0  0  0  0  0  0  0  0  0  0
  -28.3902  -32.6065   25.0645 H   0  0  0  0  0  0  0  0  0  0  0  0
  -27.9772  -31.8555   26.5872 H   0  0  0  0  0  0  0  0  0  0  0  0
  -28.2744  -38.0016   24.6863 H   0  0  0  0  0  0  0  0  0  0  0  0
  -28.0396  -36.2711   24.7461 H   0  0  0  0  0  0  0  0  0  0  0  0
  -27.1773  -37.3087   25.8564 H   0  0  0  0  0  0  0  0  0  0  0  0
  -20.9627  -29.9365   21.7352 H   0  0  0  0  0  0  0  0  0  0  0  0
  -26.0447  -38.2561   24.0273 H   0  0  0  0  0  0  0  0  0  0  0  0
  -29.6755  -16.4225   19.3480 H   0  0  0  0  0  0  0  0  0  0  0  0
  -29.1404  -17.1624   23.4511 H   0  0  0  0  0  0  0  0  0  0  0  0
  -28.4146  -18.4282   18.8218 H   0  0  0  0  0  0  0  0  0  0  0  0
  -27.8799  -19.1684   22.9249 H   0  0  0  0  0  0  0  0  0  0  0  0
  -25.7824  -21.4308   18.3752 H   0  0  0  0  0  0  0  0  0  0  0  0
  -27.0658  -22.6693   18.4004 H   0  0  0  0  0  0  0  0  0  0  0  0
  -25.1041  -23.2602   19.7551 H   0  0  0  0  0  0  0  0  0  0  0  0
  -26.5999  -23.2010   20.6477 H   0  0  0  0  0  0  0  0  0  0  0  0
  -25.9586  -19.8427   22.0708 H   0  0  0  0  0  0  0  0  0  0  0  0
  -27.0069  -21.2826   22.2011 H   0  0  0  0  0  0  0  0  0  0  0  0
  -24.5732  -20.9788   20.4989 H   0  0  0  0  0  0  0  0  0  0  0  0
  -24.7229  -21.8505   23.1832 H   0  0  0  0  0  0  0  0  0  0  0  0
  -23.4725  -22.2806   22.3519 H   0  0  0  0  0  0  0  0  0  0  0  0
  -30.2315  -15.6075   23.7369 H   0  0  0  0  0  0  0  0  0  0  0  0
  1 25  1  0
  1 30  2  0
  1 78  1  0
  2  3  1  0
  2 25  1  0
  2 87  1  0
  2 88  1  0
  3  4  1  0
  3 89  1  0
  3 90  1  0
  4  5  1  0
  4 91  1  0
  4 92  1  0
  5  6  1  0
  5 26  1  0
  5 93  1  6
  6 25  1  0
  6 94  1  0
  6 95  1  0
  7  8  2  0
  7 26  1  0
  7 29  1  0
  8  9  1  0
  8 22  1  0
  9 10  1  0
  9 27  2  0
 10 11  2  0
 10 15  1  0
 11 12  1  0
 11 96  1  0
 12 13  2  0
 12 97  1  0
 13 14  1  0
 13 31  1  0
 14 15  2  0
 14 98  1  0
 15 99  1  0
 16 17  2  0
 16 21  1  0
 16 31  1  0
 17 18  1  0
 17100  1  0
 18 19  2  0
 18101  1  0
 19 20  1  0
 19 24  1  0
 20 21  2  0
 20102  1  0
 21 23  1  0
 22 28  1  0
 22 32  2  0
 26 27  1  0
 28103  1  0
 28104  1  0
 29105  1  0
 29106  1  0
 33 34  1  0
 33 66  1  0
 33 70  2  0
 34 36  1  0
 34 59  1  0
 34107  1  6
 35 44  2  0
 35 45  1  0
 35 68  1  0
 36 56  1  0
 36108  1  0
 37 39  1  0
 37 47  1  0
 37 66  1  0
 37109  1  6
 38 43  2  0
 38 46  1  0
 38 47  1  0
 39 64  1  0
 39 67  2  0
 40 52  1  0
 40 53  2  0
 40 58  1  0
 41110  1  0
 41111  1  0
 41112  1  0
 42 43  1  0
 42 66  1  0
 42113  1  0
 42114  1  0
 43 44  1  0
 44115  1  0
 45 46  2  0
 45116  1  0
 46117  1  0
 47118  1  0
 47119  1  0
 48 41  1  0
 48 56  1  0
 48 65  1  0
 48120  1  1
 49 50  1  0
 49 53  1  0
 49 64  1  0
 49121  1  1
 50 51  1  0
 50122  1  0
 50123  1  0
 51 52  1  0
 51124  1  0
 51125  1  0
 52126  1  0
 52127  1  0
 53 54  1  0
 54 55  2  0
 54128  1  0
 55 57  1  0
 55129  1  0
 56 69  2  0
 57 58  2  0
 57130  1  0
 58131  1  0
 59 60  1  0
 59 61  1  0
 59 62  1  0
 60132  1  0
 60133  1  0
 60134  1  0
 61135  1  0
 61136  1  0
 61137  1  0
 62138  1  0
 62139  1  0
 62140  1  0
 63 65  1  0
 63141  1  0
 63142  1  0
 63143  1  0
 64144  1  0
 65145  1  0
 68 83  1  0
 71 73  2  0
 71 75  1  0
 71146  1  0
 72 74  1  0
 72 75  2  0
 72147  1  0
 73 76  1  0
 73148  1  0
 74 76  2  0
 74149  1  0
 75 78  1  0
 76 85  1  0
 77 79  1  0
 77 85  1  0
 77 86  2  0
 78 84  2  0
 79 80  1  0
 79150  1  0
 79151  1  0
 80 82  1  0
 80152  1  0
 80153  1  0
 81 82  1  0
 81 85  1  0
 81154  1  0
 81155  1  0
 82 83  1  0
 82156  1  6
 83157  1  0
 83158  1  0
 84159  1  0
M  ISO  4   1 100  68 101  78 100  83 101
M  END
$$$$
2
     RDKit          3D

160169  0  0  0  0  0  0  0  0999 V2000
  -30.7652  -14.3608   20.6636 C   0  0  0  0  0  0  0  0  0100  0  0
  -30.4392  -12.2669   19.3775 C   0  0  0  0  0  0  0  0  0101  0  0
  -29.4791  -12.5281   18.1977 C   0  0  0  0  0  0  0  0  0102  0  0
  -27.9985  -12.3963   18.6038 C   0  0  0  0  0  0  0  0  0103  0  0
  -27.6639  -13.2170   19.8820 C   0  0  2  0  0  0  0  0  0104  0  0
  -28.6795  -12.9602   21.0279 C   0  0  0  0  0  0  0  0  0105  0  0
  -25.2633  -13.8245   20.5754 C   0  0  0  0  0  0  0  0  0106  0  0
  -24.1645  -13.0409   20.9408 C   0  0  0  0  0  0  0  0  0107  0  0
  -24.6400  -11.7009   20.8697 C   0  0  0  0  0  0  0  0  0108  0  0
  -23.9005  -10.4085   21.0420 C   0  0  0  0  0  0  0  0  0109  0  0
  -24.3588   -9.4123   21.9123 C   0  0  0  0  0  0  0  0  0110  0  0
  -23.6296   -8.2350   22.0803 C   0  0  0  0  0  0  0  0  0111  0  0
  -22.4385   -8.0419   21.3657 C   0  0  0  0  0  0  0  0  0112  0  0
  -22.0103   -9.0167   20.4678 C   0  0  0  0  0  0  0  0  0113  0  0
  -22.7317  -10.1925   20.3102 C   0  0  0  0  0  0  0  0  0114  0  0
  -21.6857   -6.0709   22.5391 C   0  0  0  0  0  0  0  0  0115  0  0
  -21.4064   -6.5490   23.8264 C   0  0  0  0  0  0  0  0  0116  0  0
  -21.3635   -5.6677   24.9085 C   0  0  0  0  0  0  0  0  0117  0  0
  -21.5973   -4.3067   24.7088 C   0  0  0  0  0  0  0  0  0118  0  0
  -21.8700   -3.8284   23.4282 C   0  0  0  0  0  0  0  0  0119  0  0
  -21.9144   -4.7056   22.3460 C   0  0  0  0  0  0  0  0  0120  0  0
  -22.8194  -13.5263   21.1763 C   0  0  0  0  0  0  0  0  0121  0  0
  -22.1559   -4.2206   21.1063 F   0  0  0  0  0  0  0  0  0122  0  0
  -21.5628   -3.4510   25.7555 F   0  0  0  0  0  0  0  0  0123  0  0
  -30.0261  -13.1803   20.4553 N   0  0  0  0  0  0  0  0  0124  0  0
  -26.2911  -12.9356   20.3443 N   0  0  0  0  0  0  0  0  0125  0  0
  -25.9236  -11.6675   20.5847 N   0  0  0  0  0  0  0  0  0126  0  0
  -22.0708  -12.7905   22.0005 N   0  0  0  0  0  0  0  0  0127  0  0
  -25.4117  -15.1773   20.4097 N   0  0  0  0  0  0  0  0  0128  0  0
  -31.7916  -14.6724   20.0536 O   0  0  0  0  0  0  0  0  0129  0  0
  -21.6670   -6.9022   21.4423 O   0  0  0  0  0  0  0  0  0130  0  0
  -22.3946  -14.5564   20.6568 O   0  0  0  0  0  0  0  0  0131  0  0
  -24.6048  -31.8614   23.2223 C   0  0  0  0  0  0  0  0  0100  0  0
  -25.8822  -32.4841   23.8616 C   0  0  1  0  0  0  0  0  0101  0  0
  -27.2536  -27.5042   20.1156 C   0  0  0  0  0  0  0  0  0102  0  0
  -25.5726  -33.8762   24.2210 N   0  0  0  0  0  0  0  0  0103  0  0
  -23.4066  -30.4859   21.5461 C   0  0  2  0  0  0  0  0  0104  0  0
  -24.8467  -28.9636   20.1247 C   0  0  0  0  0  0  0  0  0105  0  0
  -22.7412  -29.4652   22.5052 C   0  0  0  0  0  0  0  0  0106  0  0
  -18.0167  -28.1302   22.8626 C   0  0  0  0  0  0  0  0  0107  0  0
  -24.1342  -36.7390   23.2568 C   0  0  0  0  0  0  0  0  0108  0  0
  -25.9141  -30.8882   21.3456 C   0  0  0  0  0  0  0  0  0109  0  0
  -25.9930  -29.5029   20.7208 C   0  0  0  0  0  0  0  0  0110  0  0
  -27.1758  -28.7612   20.7331 C   0  0  0  0  0  0  0  0  0111  0  0
  -26.1032  -26.9836   19.5230 C   0  0  0  0  0  0  0  0  0112  0  0
  -24.9097  -27.7011   19.5331 C   0  0  0  0  0  0  0  0  0113  0  0
  -23.5715  -29.7899   20.1582 C   0  0  0  0  0  0  0  0  0114  0  0
  -25.3990  -36.3212   24.0232 C   0  0  1  0  0  0  0  0  0115  0  0
  -20.5793  -28.3813   23.1004 C   0  0  2  0  0  0  0  0  0116  0  0
  -20.6548  -26.9392   22.5411 C   0  0  0  0  0  0  0  0  0117  0  0
  -19.5615  -26.6407   21.5143 C   0  0  0  0  0  0  0  0  0118  0  0
  -18.1797  -26.7818   22.1673 C   0  0  0  0  0  0  0  0  0119  0  0
  -19.1385  -28.8769   23.2988 C   0  0  0  0  0  0  0  0  0120  0  0
  -18.9183  -30.1286   23.8878 C   0  0  0  0  0  0  0  0  0121  0  0
  -17.6396  -30.6493   24.0352 C   0  0  0  0  0  0  0  0  0122  0  0
  -25.9153  -34.9582   23.4993 C   0  0  0  0  0  0  0  0  0123  0  0
  -16.5415  -29.9068   23.6254 C   0  0  0  0  0  0  0  0  0124  0  0
  -16.7331  -28.6521   23.0586 C   0  0  0  0  0  0  0  0  0125  0  0
  -26.4583  -31.6439   25.0683 C   0  0  0  0  0  0  0  0  0126  0  0
  -25.3807  -31.3179   26.1374 C   0  0  0  0  0  0  0  0  0127  0  0
  -27.0530  -30.3024   24.5680 C   0  0  0  0  0  0  0  0  0128  0  0
  -27.6014  -32.4281   25.7651 C   0  0  0  0  0  0  0  0  0129  0  0
  -27.5629  -37.2220   24.8621 C   0  0  0  0  0  0  0  0  0130  0  0
  -21.4133  -29.3375   22.3735 N   0  0  0  0  0  0  0  0  0131  0  0
  -26.4706  -37.3372   23.9061 N   0  0  0  0  0  0  0  0  0132  0  0
  -24.6674  -31.0544   22.1178 N   0  0  0  0  0  0  0  0  0133  0  0
  -23.4259  -28.8150   23.2971 O   0  0  0  0  0  0  0  0  0134  0  0
  -28.3948  -26.7345   20.0089 O   0  0  0  0  0  0  0  0  0135  0  0
  -26.5870  -34.9065   22.4671 O   0  0  0  0  0  0  0  0  0136  0  0
  -23.5365  -32.1254   23.7833 O   0  0  0  0  0  0  0  0  0137  0  0
  -30.0218  -18.8107   19.8664 C   0  0  0  0  0  0  0  0  0  0  0  0
  -28.1206  -20.4299   21.1100 C   0  0  0  0  0  0  0  0  0  0  0  0
  -29.9349  -20.1633   19.5370 C   0  0  0  0  0  0  0  0  0  0  0  0
  -28.9844  -20.9729   20.1588 C   0  0  0  0  0  0  0  0  0  0  0  0
  -29.1579  -18.2676   20.8175 C   0  0  0  0  0  0  0  0  0  0  0  0
  -28.2074  -19.0772   21.4393 C   0  0  0  0  0  0  0  0  0  0  0  0
  -28.6007  -22.9079   18.5714 C   0  0  0  0  0  0  0  0  0  0  0  0
  -28.4953  -24.4062   18.7423 C   0  0  0  0  0  0  0  0  0  0  0  0
  -28.9874  -23.3961   20.8459 C   0  0  0  0  0  0  0  0  0  0  0  0
  -29.2296  -24.6690   20.0493 C   0  0  2  0  0  0  0  0  0  0  0  0
  -30.8721  -20.7181   18.5138 C   0  0  0  0  0  0  0  0  0  0  0  0
  -28.7513  -25.9213   20.7634 C   0  0  0  0  0  0  0  0  0  1  0  0
  -28.8817  -22.3592   19.8366 N   0  0  0  0  0  0  0  0  0  0  0  0
  -27.3206  -18.5470   22.4034 N   0  0  0  0  0  0  0  0  0  0  0  0
  -29.2641  -16.8906   21.1343 N   0  0  0  0  0  0  0  0  0  0  0  0
  -28.4018  -22.3545   17.4995 O   0  0  0  0  0  0  0  0  0  0  0  0
  -31.4485  -12.4701   19.0860 H   0  0  0  0  0  0  0  0  0  0  0  0
  -30.3970  -11.2460   19.6950 H   0  0  0  0  0  0  0  0  0  0  0  0
  -29.6870  -11.8204   17.4226 H   0  0  0  0  0  0  0  0  0  0  0  0
  -29.6375  -13.5326   17.8649 H   0  0  0  0  0  0  0  0  0  0  0  0
  -27.7830  -11.3650   18.7904 H   0  0  0  0  0  0  0  0  0  0  0  0
  -27.4028  -12.7801   17.8021 H   0  0  0  0  0  0  0  0  0  0  0  0
  -27.7353  -14.2503   19.6136 H   0  0  0  0  0  0  0  0  0  0  0  0
  -28.5890  -11.9550   21.3832 H   0  0  0  0  0  0  0  0  0  0  0  0
  -28.5005  -13.6134   21.8562 H   0  0  0  0  0  0  0  0  0  0  0  0
  -25.2399   -9.5495   22.4318 H   0  0  0  0  0  0  0  0  0  0  0  0
  -23.9663   -7.5070   22.7297 H   0  0  0  0  0  0  0  0  0  0  0  0
  -21.1515   -8.8641   19.9162 H   0  0  0  0  0  0  0  0  0  0  0  0
  -22.4016  -10.9115   19.6476 H   0  0  0  0  0  0  0  0  0  0  0  0
  -21.2319   -7.5552   23.9750 H   0  0  0  0  0  0  0  0  0  0  0  0
  -21.1589   -6.0228   25.8556 H   0  0  0  0  0  0  0  0  0  0  0  0
  -22.0396   -2.8212   23.2809 H   0  0  0  0  0  0  0  0  0  0  0  0
  -22.4401  -11.9703   22.4008 H   0  0  0  0  0  0  0  0  0  0  0  0
  -21.1493  -13.0679   22.2082 H   0  0  0  0  0  0  0  0  0  0  0  0
  -24.6538  -15.7807   20.5848 H   0  0  0  0  0  0  0  0  0  0  0  0
  -26.2762  -15.5453   20.1156 H   0  0  0  0  0  0  0  0  0  0  0  0
  -26.6778  -32.4663   23.1464 H   0  0  0  0  0  0  0  0  0  0  0  0
  -25.0747  -34.0282   25.0566 H   0  0  0  0  0  0  0  0  0  0  0  0
  -22.7881  -31.3489   21.4131 H   0  0  0  0  0  0  0  0  0  0  0  0
  -23.3854  -35.9823   23.3648 H   0  0  0  0  0  0  0  0  0  0  0  0
  -24.3696  -36.8624   22.2204 H   0  0  0  0  0  0  0  0  0  0  0  0
  -23.7669  -37.6632   23.6516 H   0  0  0  0  0  0  0  0  0  0  0  0
  -25.9445  -31.6237   20.5691 H   0  0  0  0  0  0  0  0  0  0  0  0
  -26.7436  -31.0079   22.0108 H   0  0  0  0  0  0  0  0  0  0  0  0
  -28.0090  -29.1452   21.2057 H   0  0  0  0  0  0  0  0  0  0  0  0
  -26.1369  -26.0560   19.0719 H   0  0  0  0  0  0  0  0  0  0  0  0
  -24.0652  -27.2961   19.0997 H   0  0  0  0  0  0  0  0  0  0  0  0
  -23.6156  -30.5365   19.3930 H   0  0  0  0  0  0  0  0  0  0  0  0
  -22.7355  -29.1425   19.9945 H   0  0  0  0  0  0  0  0  0  0  0  0
  -25.1353  -36.2335   25.0565 H   0  0  0  0  0  0  0  0  0  0  0  0
  -21.0070  -28.3206   24.0793 H   0  0  0  0  0  0  0  0  0  0  0  0
  -20.5555  -26.2518   23.3550 H   0  0  0  0  0  0  0  0  0  0  0  0
  -21.5974  -26.8362   22.0454 H   0  0  0  0  0  0  0  0  0  0  0  0
  -19.6810  -25.6422   21.1488 H   0  0  0  0  0  0  0  0  0  0  0  0
  -19.6406  -27.3343   20.7034 H   0  0  0  0  0  0  0  0  0  0  0  0
  -17.4282  -26.6888   21.4113 H   0  0  0  0  0  0  0  0  0  0  0  0
  -18.0803  -26.0130   22.9049 H   0  0  0  0  0  0  0  0  0  0  0  0
  -19.7265  -30.6774   24.2204 H   0  0  0  0  0  0  0  0  0  0  0  0
  -17.5064  -31.5856   24.4483 H   0  0  0  0  0  0  0  0  0  0  0  0
  -15.5878  -30.2839   23.7407 H   0  0  0  0  0  0  0  0  0  0  0  0
  -15.9120  -28.0941   22.7766 H   0  0  0  0  0  0  0  0  0  0  0  0
  -24.5787  -30.7757   25.6817 H   0  0  0  0  0  0  0  0  0  0  0  0
  -25.0041  -32.2289   26.5536 H   0  0  0  0  0  0  0  0  0  0  0  0
  -25.8166  -30.7245   26.9138 H   0  0  0  0  0  0  0  0  0  0  0  0
  -26.2892  -29.7335   24.0803 H   0  0  0  0  0  0  0  0  0  0  0  0
  -27.4336  -29.7484   25.4006 H   0  0  0  0  0  0  0  0  0  0  0  0
  -27.8466  -30.4994   23.8779 H   0  0  0  0  0  0  0  0  0  0  0  0
  -27.2251  -33.3632   26.1242 H   0  0  0  0  0  0  0  0  0  0  0  0
  -28.3902  -32.6065   25.0645 H   0  0  0  0  0  0  0  0  0  0  0  0
  -27.9772  -31.8555   26.5872 H   0  0  0  0  0  0  0  0  0  0  0  0
  -28.2744  -38.0016   24.6863 H   0  0  0  0  0  0  0  0  0  0  0  0
  -28.0396  -36.2711   24.7461 H   0  0  0  0  0  0  0  0  0  0  0  0
  -27.1773  -37.3087   25.8564 H   0  0  0  0  0  0  0  0  0  0  0  0
  -20.9627  -29.9365   21.7352 H   0  0  0  0  0  0  0  0  0  0  0  0
  -26.0447  -38.2561   24.0273 H   0  0  0  0  0  0  0  0  0  0  0  0
  -30.7252  -18.2118   19.4065 H   0  0  0  0  0  0  0  0  0  0  0  0
  -27.4174  -21.0289   21.5701 H   0  0  0  0  0  0  0  0  0  0  0  0
  -27.4722  -24.7120   18.8106 H   0  0  0  0  0  0  0  0  0  0  0  0
  -28.9070  -24.9491   17.9173 H   0  0  0  0  0  0  0  0  0  0  0  0
  -28.0820  -23.4689   21.4115 H   0  0  0  0  0  0  0  0  0  0  0  0
  -29.7658  -23.2012   21.5537 H   0  0  0  0  0  0  0  0  0  0  0  0
  -30.2702  -24.8703   19.9023 H   0  0  0  0  0  0  0  0  0  0  0  0
  -31.5167  -19.9401   18.1615 H   0  0  0  0  0  0  0  0  0  0  0  0
  -31.4599  -21.4966   18.9534 H   0  0  0  0  0  0  0  0  0  0  0  0
  -30.3107  -21.1148   17.6938 H   0  0  0  0  0  0  0  0  0  0  0  0
  -29.5561  -26.3175   21.3467 H   0  0  0  0  0  0  0  0  0  0  0  0
  -27.9229  -25.6561   21.3866 H   0  0  0  0  0  0  0  0  0  0  0  0
  -26.6550  -19.1309   22.8338 H   0  0  0  0  0  0  0  0  0  0  0  0
  -27.3684  -17.5937   22.6447 H   0  0  0  0  0  0  0  0  0  0  0  0
  -28.5448  -16.6850   21.7742 H   0  0  0  0  0  0  0  0  0  0  0  0
  1 25  1  0
  1 30  2  0
  1 85  1  0
  2  3  1  0
  2 25  1  0
  2 87  1  0
  2 88  1  0
  3  4  1  0
  3 89  1  0
  3 90  1  0
  4  5  1  0
  4 91  1  0
  4 92  1  0
  5  6  1  0
  5 26  1  0
  5 93  1  6
  6 25  1  0
  6 94  1  0
  6 95  1  0
  7  8  2  0
  7 26  1  0
  7 29  1  0
  8  9  1  0
  8 22  1  0
  9 10  1  0
  9 27  2  0
 10 11  2  0
 10 15  1  0
 11 12  1  0
 11 96  1  0
 12 13  2  0
 12 97  1  0
 13 14  1  0
 13 31  1  0
 14 15  2  0
 14 98  1  0
 15 99  1  0
 16 17  2  0
 16 21  1  0
 16 31  1  0
 17 18  1  0
 17100  1  0
 18 19  2  0
 18101  1  0
 19 20  1  0
 19 24  1  0
 20 21  2  0
 20102  1  0
 21 23  1  0
 22 28  1  0
 22 32  2  0
 26 27  1  0
 28103  1  0
 28104  1  0
 29105  1  0
 29106  1  0
 33 34  1  0
 33 66  1  0
 33 70  2  0
 34 36  1  0
 34 59  1  0
 34107  1  6
 35 44  2  0
 35 45  1  0
 35 68  1  0
 36 56  1  0
 36108  1  0
 37 39  1  0
 37 47  1  0
 37 66  1  0
 37109  1  6
 38 43  2  0
 38 46  1  0
 38 47  1  0
 39 64  1  0
 39 67  2  0
 40 52  1  0
 40 53  2  0
 40 58  1  0
 41110  1  0
 41111  1  0
 41112  1  0
 42 43  1  0
 42 66  1  0
 42113  1  0
 42114  1  0
 43 44  1  0
 44115  1  0
 45 46  2  0
 45116  1  0
 46117  1  0
 47118  1  0
 47119  1  0
 48 41  1  0
 48 56  1  0
 48 65  1  0
 48120  1  1
 49 50  1  0
 49 53  1  0
 49 64  1  0
 49121  1  1
 50 51  1  0
 50122  1  0
 50123  1  0
 51 52  1  0
 51124  1  0
 51125  1  0
 52126  1  0
 52127  1  0
 53 54  1  0
 54 55  2  0
 54128  1  0
 55 57  1  0
 55129  1  0
 56 69  2  0
 57 58  2  0
 57130  1  0
 58131  1  0
 59 60  1  0
 59 61  1  0
 59 62  1  0
 60132  1  0
 60133  1  0
 60134  1  0
 61135  1  0
 61136  1  0
 61137  1  0
 62138  1  0
 62139  1  0
 62140  1  0
 63 65  1  0
 63141  1  0
 63142  1  0
 63143  1  0
 64144  1  0
 65145  1  0
 68 82  1  0
 71 73  2  0
 71 75  1  0
 71146  1  0
 72 74  2  0
 72 76  1  0
 72147  1  0
 73 74  1  0
 73 81  1  0
 74 83  1  0
 75 76  2  0
 75 85  1  0
 76 84  1  0
 77 78  1  0
 77 83  1  0
 77 86  2  0
 78 80  1  0
 78148  1  0
 78149  1  0
 79 80  1  0
 79 83  1  0
 79150  1  0
 79151  1  0
 80 82  1  0
 80152  1  6
 81153  1  0
 81154  1  0
 81155  1  0
 82156  1  0
 82157  1  0
 84158  1  0
 84159  1  0
 85160  1  0
M  ISO  4   1 100  68 101  82 101  85 100
M  END
$$$$
3
     RDKit          3D

158167  0  0  0  0  0  0  0  0999 V2000
  -30.7652  -14.3608   20.6636 C   0  0  0  0  0  0  0  0  0100  0  0
  -30.4392  -12.2669   19.3775 C   0  0  0  0  0  0  0  0  0101  0  0
  -29.4791  -12.5281   18.1977 C   0  0  0  0  0  0  0  0  0102  0  0
  -27.9985  -12.3963   18.6038 C   0  0  0  0  0  0  0  0  0103  0  0
  -27.6639  -13.2170   19.8820 C   0  0  2  0  0  0  0  0  0104  0  0
  -28.6795  -12.9602   21.0279 C   0  0  0  0  0  0  0  0  0105  0  0
  -25.2633  -13.8245   20.5754 C   0  0  0  0  0  0  0  0  0106  0  0
  -24.1645  -13.0409   20.9408 C   0  0  0  0  0  0  0  0  0107  0  0
  -24.6400  -11.7009   20.8697 C   0  0  0  0  0  0  0  0  0108  0  0
  -23.9005  -10.4085   21.0420 C   0  0  0  0  0  0  0  0  0109  0  0
  -24.3588   -9.4123   21.9123 C   0  0  0  0  0  0  0  0  0110  0  0
  -23.6296   -8.2350   22.0803 C   0  0  0  0  0  0  0  0  0111  0  0
  -22.4385   -8.0419   21.3657 C   0  0  0  0  0  0  0  0  0112  0  0
  -22.0103   -9.0167   20.4678 C   0  0  0  0  0  0  0  0  0113  0  0
  -22.7317  -10.1925   20.3102 C   0  0  0  0  0  0  0  0  0114  0  0
  -21.6857   -6.0709   22.5391 C   0  0  0  0  0  0  0  0  0115  0  0
  -21.4064   -6.5490   23.8264 C   0  0  0  0  0  0  0  0  0116  0  0
  -21.3635   -5.6677   24.9085 C   0  0  0  0  0  0  0  0  0117  0  0
  -21.5973   -4.3067   24.7088 C   0  0  0  0  0  0  0  0  0118  0  0
  -21.8700   -3.8284   23.4282 C   0  0  0  0  0  0  0  0  0119  0  0
  -21.9144   -4.7056   22.3460 C   0  0  0  0  0  0  0  0  0120  0  0
  -22.8194  -13.5263   21.1763 C   0  0  0  0  0  0  0  0  0121  0  0
  -22.1559   -4.2206   21.1063 F   0  0  0  0  0  0  0  0  0122  0  0
  -21.5628   -3.4510   25.7555 F   0  0  0  0  0  0  0  0  0123  0  0
  -30.0261  -13.1803   20.4553 N   0  0  0  0  0  0  0  0  0124  0  0
  -26.2911  -12.9356   20.3443 N   0  0  0  0  0  0  0  0  0125  0  0
  -25.9236  -11.6675   20.5847 N   0  0  0  0  0  0  0  0  0126  0  0
  -22.0708  -12.7905   22.0005 N   0  0  0  0  0  0  0  0  0127  0  0
  -25.4117  -15.1773   20.4097 N   0  0  0  0  0  0  0  0  0128  0  0
  -31.7916  -14.6724   20.0536 O   0  0  0  0  0  0  0  0  0129  0  0
  -21.6670   -6.9022   21.4423 O   0  0  0  0  0  0  0  0  0130  0  0
  -22.3946  -14.5564   20.6568 O   0  0  0  0  0  0  0  0  0131  0  0
  -24.6048  -31.8614   23.2223 C   0  0  0  0  0  0  0  0  0100  0  0
  -25.8822  -32.4841   23.8616 C   0  0  1  0  0  0  0  0  0101  0  0
  -27.2536  -27.5042   20.1156 C   0  0  0  0  0  0  0  0  0102  0  0
  -25.5726  -33.8762   24.2210 N   0  0  0  0  0  0  0  0  0103  0  0
  -23.4066  -30.4859   21.5461 C   0  0  2  0  0  0  0  0  0104  0  0
  -24.8467  -28.9636   20.1247 C   0  0  0  0  0  0  0  0  0105  0  0
  -22.7412  -29.4652   22.5052 C   0  0  0  0  0  0  0  0  0106  0  0
  -18.0167  -28.1302   22.8626 C   0  0  0  0  0  0  0  0  0107  0  0
  -24.1342  -36.7390   23.2568 C   0  0  0  0  0  0  0  0  0108  0  0
  -25.9141  -30.8882   21.3456 C   0  0  0  0  0  0  0  0  0109  0  0
  -25.9930  -29.5029   20.7208 C   0  0  0  0  0  0  0  0  0110  0  0
  -27.1758  -28.7612   20.7331 C   0  0  0  0  0  0  0  0  0111  0  0
  -26.1032  -26.9836   19.5230 C   0  0  0  0  0  0  0  0  0112  0  0
  -24.9097  -27.7011   19.5331 C   0  0  0  0  0  0  0  0  0113  0  0
  -23.5715  -29.7899   20.1582 C   0  0  0  0  0  0  0  0  0114  0  0
  -25.3990  -36.3212   24.0232 C   0  0  1  0  0  0  0  0  0115  0  0
  -20.5793  -28.3813   23.1004 C   0  0  2  0  0  0  0  0  0116  0  0
  -20.6548  -26.9392   22.5411 C   0  0  0  0  0  0  0  0  0117  0  0
  -19.5615  -26.6407   21.5143 C   0  0  0  0  0  0  0  0  0118  0  0
  -18.1797  -26.7818   22.1673 C   0  0  0  0  0  0  0  0  0119  0  0
  -19.1385  -28.8769   23.2988 C   0  0  0  0  0  0  0  0  0120  0  0
  -18.9183  -30.1286   23.8878 C   0  0  0  0  0  0  0  0  0121  0  0
  -17.6396  -30.6493   24.0352 C   0  0  0  0  0  0  0  0  0122  0  0
  -25.9153  -34.9582   23.4993 C   0  0  0  0  0  0  0  0  0123  0  0
  -16.5415  -29.9068   23.6254 C   0  0  0  0  0  0  0  0  0124  0  0
  -16.7331  -28.6521   23.0586 C   0  0  0  0  0  0  0  0  0125  0  0
  -26.4583  -31.6439   25.0683 C   0  0  0  0  0  0  0  0  0126  0  0
  -25.3807  -31.3179   26.1374 C   0  0  0  0  0  0  0  0  0127  0  0
  -27.0530  -30.3024   24.5680 C   0  0  0  0  0  0  0  0  0128  0  0
  -27.6014  -32.4281   25.7651 C   0  0  0  0  0  0  0  0  0129  0  0
  -27.5629  -37.2220   24.8621 C   0  0  0  0  0  0  0  0  0130  0  0
  -21.4133  -29.3375   22.3735 N   0  0  0  0  0  0  0  0  0131  0  0
  -26.4706  -37.3372   23.9061 N   0  0  0  0  0  0  0  0  0132  0  0
  -24.6674  -31.0544   22.1178 N   0  0  0  0  0  0  0  0  0133  0  0
  -23.4259  -28.8150   23.2971 O   0  0  0  0  0  0  0  0  0134  0  0
  -28.3948  -26.7345   20.0089 O   0  0  0  0  0  0  0  0  0135  0  0
  -26.5870  -34.9065   22.4671 O   0  0  0  0  0  0  0  0  0136  0  0
  -23.5365  -32.1254   23.7833 O   0  0  0  0  0  0  0  0  0137  0  0
  -29.1036  -18.8443   21.5507 C   0  0  0  0  0  0  0  0  0  0  0  0
  -28.4162  -17.6032   19.6418 C   0  0  0  0  0  0  0  0  0  0  0  0
  -29.7888  -17.7198   21.9972 C   0  0  0  0  0  0  0  0  0  0  0  0
  -28.4017  -18.7931   20.3515 C   0  0  0  0  0  0  0  0  0  0  0  0
  -29.7410  -16.5779   21.2140 C   0  0  0  0  0  0  0  0  0  0  0  0
  -26.9428  -20.0080   18.6761 C   0  0  0  0  0  0  0  0  0  0  0  0
  -30.4320  -15.3608   21.6128 C   0  0  0  0  0  0  0  0  0  0  0  0
  -26.2899  -21.3709   18.6403 C   0  0  0  0  0  0  0  0  0  0  0  0
  -27.5900  -21.1613   20.6285 C   0  0  0  0  0  0  0  0  0  0  0  0
  -27.1251  -22.1926   19.6117 C   0  0  2  0  0  0  0  0  0  0  0  0
  -30.5438  -17.7693   23.2808 C   0  0  0  0  0  0  0  0  0  0  0  0
  -26.3566  -23.3440   20.2366 C   0  0  0  0  0  0  0  0  0  1  0  0
  -29.0701  -16.4903   20.0436 N   0  0  0  0  0  0  0  0  0  0  0  0
  -30.6378  -15.0300   22.8585 N   0  0  0  0  0  0  0  0  0  0  0  0
  -27.6880  -19.9300   19.8675 N   0  0  0  0  0  0  0  0  0  0  0  0
  -26.7516  -19.1663   17.8102 O   0  0  0  0  0  0  0  0  0  0  0  0
  -31.4485  -12.4701   19.0860 H   0  0  0  0  0  0  0  0  0  0  0  0
  -30.3970  -11.2460   19.6950 H   0  0  0  0  0  0  0  0  0  0  0  0
  -29.6870  -11.8204   17.4226 H   0  0  0  0  0  0  0  0  0  0  0  0
  -29.6375  -13.5326   17.8649 H   0  0  0  0  0  0  0  0  0  0  0  0
  -27.7830  -11.3650   18.7904 H   0  0  0  0  0  0  0  0  0  0  0  0
  -27.4028  -12.7801   17.8021 H   0  0  0  0  0  0  0  0  0  0  0  0
  -27.7353  -14.2503   19.6136 H   0  0  0  0  0  0  0  0  0  0  0  0
  -28.5890  -11.9550   21.3832 H   0  0  0  0  0  0  0  0  0  0  0  0
  -28.5005  -13.6134   21.8562 H   0  0  0  0  0  0  0  0  0  0  0  0
  -25.2399   -9.5495   22.4318 H   0  0  0  0  0  0  0  0  0  0  0  0
  -23.9663   -7.5070   22.7297 H   0  0  0  0  0  0  0  0  0  0  0  0
  -21.1515   -8.8641   19.9162 H   0  0  0  0  0  0  0  0  0  0  0  0
  -22.4016  -10.9115   19.6476 H   0  0  0  0  0  0  0  0  0  0  0  0
  -21.2319   -7.5552   23.9750 H   0  0  0  0  0  0  0  0  0  0  0  0
  -21.1589   -6.0228   25.8556 H   0  0  0  0  0  0  0  0  0  0  0  0
  -22.0396   -2.8212   23.2809 H   0  0  0  0  0  0  0  0  0  0  0  0
  -22.4401  -11.9703   22.4008 H   0  0  0  0  0  0  0  0  0  0  0  0
  -21.1493  -13.0679   22.2082 H   0  0  0  0  0  0  0  0  0  0  0  0
  -24.6538  -15.7807   20.5848 H   0  0  0  0  0  0  0  0  0  0  0  0
  -26.2762  -15.5453   20.1156 H   0  0  0  0  0  0  0  0  0  0  0  0
  -26.6778  -32.4663   23.1464 H   0  0  0  0  0  0  0  0  0  0  0  0
  -25.0747  -34.0282   25.0566 H   0  0  0  0  0  0  0  0  0  0  0  0
  -22.7881  -31.3489   21.4131 H   0  0  0  0  0  0  0  0  0  0  0  0
  -23.3854  -35.9823   23.3648 H   0  0  0  0  0  0  0  0  0  0  0  0
  -24.3696  -36.8624   22.2204 H   0  0  0  0  0  0  0  0  0  0  0  0
  -23.7669  -37.6632   23.6516 H   0  0  0  0  0  0  0  0  0  0  0  0
  -25.9445  -31.6237   20.5691 H   0  0  0  0  0  0  0  0  0  0  0  0
  -26.7436  -31.0079   22.0108 H   0  0  0  0  0  0  0  0  0  0  0  0
  -28.0090  -29.1452   21.2057 H   0  0  0  0  0  0  0  0  0  0  0  0
  -26.1369  -26.0560   19.0719 H   0  0  0  0  0  0  0  0  0  0  0  0
  -24.0652  -27.2961   19.0997 H   0  0  0  0  0  0  0  0  0  0  0  0
  -23.6156  -30.5365   19.3930 H   0  0  0  0  0  0  0  0  0  0  0  0
  -22.7355  -29.1425   19.9945 H   0  0  0  0  0  0  0  0  0  0  0  0
  -25.1353  -36.2335   25.0565 H   0  0  0  0  0  0  0  0  0  0  0  0
  -21.0070  -28.3206   24.0793 H   0  0  0  0  0  0  0  0  0  0  0  0
  -20.5555  -26.2518   23.3550 H   0  0  0  0  0  0  0  0  0  0  0  0
  -21.5974  -26.8362   22.0454 H   0  0  0  0  0  0  0  0  0  0  0  0
  -19.6810  -25.6422   21.1488 H   0  0  0  0  0  0  0  0  0  0  0  0
  -19.6406  -27.3343   20.7034 H   0  0  0  0  0  0  0  0  0  0  0  0
  -17.4282  -26.6888   21.4113 H   0  0  0  0  0  0  0  0  0  0  0  0
  -18.0803  -26.0130   22.9049 H   0  0  0  0  0  0  0  0  0  0  0  0
  -19.7265  -30.6774   24.2204 H   0  0  0  0  0  0  0  0  0  0  0  0
  -17.5064  -31.5856   24.4483 H   0  0  0  0  0  0  0  0  0  0  0  0
  -15.5878  -30.2839   23.7407 H   0  0  0  0  0  0  0  0  0  0  0  0
  -15.9120  -28.0941   22.7766 H   0  0  0  0  0  0  0  0  0  0  0  0
  -24.5787  -30.7757   25.6817 H   0  0  0  0  0  0  0  0  0  0  0  0
  -25.0041  -32.2289   26.5536 H   0  0  0  0  0  0  0  0  0  0  0  0
  -25.8166  -30.7245   26.9138 H   0  0  0  0  0  0  0  0  0  0  0  0
  -26.2892  -29.7335   24.0803 H   0  0  0  0  0  0  0  0  0  0  0  0
  -27.4336  -29.7484   25.4006 H   0  0  0  0  0  0  0  0  0  0  0  0
  -27.8466  -30.4994   23.8779 H   0  0  0  0  0  0  0  0  0  0  0  0
  -27.2251  -33.3632   26.1242 H   0  0  0  0  0  0  0  0  0  0  0  0
  -28.3902  -32.6065   25.0645 H   0  0  0  0  0  0  0  0  0  0  0  0
  -27.9772  -31.8555   26.5872 H   0  0  0  0  0  0  0  0  0  0  0  0
  -28.2744  -38.0016   24.6863 H   0  0  0  0  0  0  0  0  0  0  0  0
  -28.0396  -36.2711   24.7461 H   0  0  0  0  0  0  0  0  0  0  0  0
  -27.1773  -37.3087   25.8564 H   0  0  0  0  0  0  0  0  0  0  0  0
  -20.9627  -29.9365   21.7352 H   0  0  0  0  0  0  0  0  0  0  0  0
  -26.0447  -38.2561   24.0273 H   0  0  0  0  0  0  0  0  0  0  0  0
  -29.1159  -19.7134   22.1071 H   0  0  0  0  0  0  0  0  0  0  0  0
  -27.8957  -17.5641   18.7515 H   0  0  0  0  0  0  0  0  0  0  0  0
  -25.2716  -21.3154   18.9640 H   0  0  0  0  0  0  0  0  0  0  0  0
  -26.2604  -21.7924   17.6573 H   0  0  0  0  0  0  0  0  0  0  0  0
  -26.8779  -21.0620   21.4209 H   0  0  0  0  0  0  0  0  0  0  0  0
  -28.5158  -21.4313   21.0920 H   0  0  0  0  0  0  0  0  0  0  0  0
  -27.9399  -22.6928   19.1313 H   0  0  0  0  0  0  0  0  0  0  0  0
  -30.4446  -18.7419   23.7157 H   0  0  0  0  0  0  0  0  0  0  0  0
  -31.5776  -17.5656   23.0946 H   0  0  0  0  0  0  0  0  0  0  0  0
  -30.1514  -17.0359   23.9539 H   0  0  0  0  0  0  0  0  0  0  0  0
  -26.1686  -23.1192   21.2657 H   0  0  0  0  0  0  0  0  0  0  0  0
  -25.4385  -23.4663   19.7009 H   0  0  0  0  0  0  0  0  0  0  0  0
  -30.4316  -15.6694   23.5781 H   0  0  0  0  0  0  0  0  0  0  0  0
  1 25  1  0
  1 30  2  0
  1 77  1  0
  2  3  1  0
  2 25  1  0
  2 87  1  0
  2 88  1  0
  3  4  1  0
  3 89  1  0
  3 90  1  0
  4  5  1  0
  4 91  1  0
  4 92  1  0
  5  6  1  0
  5 26  1  0
  5 93  1  6
  6 25  1  0
  6 94  1  0
  6 95  1  0
  7  8  2  0
  7 26  1  0
  7 29  1  0
  8  9  1  0
  8 22  1  0
  9 10  1  0
  9 27  2  0
 10 11  2  0
 10 15  1  0
 11 12  1  0
 11 96  1  0
 12 13  2  0
 12 97  1  0
 13 14  1  0
 13 31  1  0
 14 15  2  0
 14 98  1  0
 15 99  1  0
 16 17  2  0
 16 21  1  0
 16 31  1  0
 17 18  1  0
 17100  1  0
 18 19  2  0
 18101  1  0
 19 20  1  0
 19 24  1  0
 20 21  2  0
 20102  1  0
 21 23  1  0
 22 28  1  0
 22 32  2  0
 26 27  1  0
 28103  1  0
 28104  1  0
 29105  1  0
 29106  1  0
 33 34  1  0
 33 66  1  0
 33 70  2  0
 34 36  1  0
 34 59  1  0
 34107  1  6
 35 44  2  0
 35 45  1  0
 35 68  1  0
 36 56  1  0
 36108  1  0
 37 39  1  0
 37 47  1  0
 37 66  1  0
 37109  1  6
 38 43  2  0
 38 46  1  0
 38 47  1  0
 39 64  1  0
 39 67  2  0
 40 52  1  0
 40 53  2  0
 40 58  1  0
 41110  1  0
 41111  1  0
 41112  1  0
 42 43  1  0
 42 66  1  0
 42113  1  0
 42114  1  0
 43 44  1  0
 44115  1  0
 45 46  2  0
 45116  1  0
 46117  1  0
 47118  1  0
 47119  1  0
 48 41  1  0
 48 56  1  0
 48 65  1  0
 48120  1  1
 49 50  1  0
 49 53  1  0
 49 64  1  0
 49121  1  1
 50 51  1  0
 50122  1  0
 50123  1  0
 51 52  1  0
 51124  1  0
 51125  1  0
 52126  1  0
 52127  1  0
 53 54  1  0
 54 55  2  0
 54128  1  0
 55 57  1  0
 55129  1  0
 56 69  2  0
 57 58  2  0
 57130  1  0
 58131  1  0
 59 60  1  0
 59 61  1  0
 59 62  1  0
 60132  1  0
 60133  1  0
 60134  1  0
 61135  1  0
 61136  1  0
 61137  1  0
 62138  1  0
 62139  1  0
 62140  1  0
 63 65  1  0
 63141  1  0
 63142  1  0
 63143  1  0
 64144  1  0
 65145  1  0
 68 82  1  0
 71 73  2  0
 71 74  1  0
 71146  1  0
 72 74  2  0
 72 83  1  0
 72147  1  0
 73 75  1  0
 73 81  1  0
 74 85  1  0
 75 77  1  0
 75 83  2  0
 76 78  1  0
 76 85  1  0
 76 86  2  0
 77 84  2  0
 78 80  1  0
 78148  1  0
 78149  1  0
 79 80  1  0
 79 85  1  0
 79150  1  0
 79151  1  0
 80 82  1  0
 80152  1  6
 81153  1  0
 81154  1  0
 81155  1  0
 82156  1  0
 82157  1  0
 84158  1  0
M  ISO  4   1 100  68 101  77 100  82 101
M  END
$$$$
4
     RDKit          3D

162171  0  0  0  0  0  0  0  0999 V2000
  -30.7652  -14.3608   20.6636 C   0  0  0  0  0  0  0  0  0100  0  0
  -30.4392  -12.2669   19.3775 C   0  0  0  0  0  0  0  0  0101  0  0
  -29.4791  -12.5281   18.1977 C   0  0  0  0  0  0  0  0  0102  0  0
  -27.9985  -12.3963   18.6038 C   0  0  0  0  0  0  0  0  0103  0  0
  -27.6639  -13.2170   19.8820 C   0  0  2  0  0  0  0  0  0104  0  0
  -28.6795  -12.9602   21.0279 C   0  0  0  0  0  0  0  0  0105  0  0
  -25.2633  -13.8245   20.5754 C   0  0  0  0  0  0  0  0  0106  0  0
  -24.1645  -13.0409   20.9408 C   0  0  0  0  0  0  0  0  0107  0  0
  -24.6400  -11.7009   20.8697 C   0  0  0  0  0  0  0  0  0108  0  0
  -23.9005  -10.4085   21.0420 C   0  0  0  0  0  0  0  0  0109  0  0
  -24.3588   -9.4123   21.9123 C   0  0  0  0  0  0  0  0  0110  0  0
  -23.6296   -8.2350   22.0803 C   0  0  0  0  0  0  0  0  0111  0  0
  -22.4385   -8.0419   21.3657 C   0  0  0  0  0  0  0  0  0112  0  0
  -22.0103   -9.0167   20.4678 C   0  0  0  0  0  0  0  0  0113  0  0
  -22.7317  -10.1925   20.3102 C   0  0  0  0  0  0  0  0  0114  0  0
  -21.6857   -6.0709   22.5391 C   0  0  0  0  0  0  0  0  0115  0  0
  -21.4064   -6.5490   23.8264 C   0  0  0  0  0  0  0  0  0116  0  0
  -21.3635   -5.6677   24.9085 C   0  0  0  0  0  0  0  0  0117  0  0
  -21.5973   -4.3067   24.7088 C   0  0  0  0  0  0  0  0  0118  0  0
  -21.8700   -3.8284   23.4282 C   0  0  0  0  0  0  0  0  0119  0  0
  -21.9144   -4.7056   22.3460 C   0  0  0  0  0  0  0  0  0120  0  0
  -22.8194  -13.5263   21.1763 C   0  0  0  0  0  0  0  0  0121  0  0
  -22.1559   -4.2206   21.1063 F   0  0  0  0  0  0  0  0  0122  0  0
  -21.5628   -3.4510   25.7555 F   0  0  0  0  0  0  0  0  0123  0  0
  -30.0261  -13.1803   20.4553 N   0  0  0  0  0  0  0  0  0124  0  0
  -26.2911  -12.9356   20.3443 N   0  0  0  0  0  0  0  0  0125  0  0
  -25.9236  -11.6675   20.5847 N   0  0  0  0  0  0  0  0  0126  0  0
  -22.0708  -12.7905   22.0005 N   0  0  0  0  0  0  0  0  0127  0  0
  -25.4117  -15.1773   20.4097 N   0  0  0  0  0  0  0  0  0128  0  0
  -31.7916  -14.6724   20.0536 O   0  0  0  0  0  0  0  0  0129  0  0
  -21.6670   -6.9022   21.4423 O   0  0  0  0  0  0  0  0  0130  0  0
  -22.3946  -14.5564   20.6568 O   0  0  0  0  0  0  0  0  0131  0  0
  -24.6048  -31.8614   23.2223 C   0  0  0  0  0  0  0  0  0100  0  0
  -25.8822  -32.4841   23.8616 C   0  0  1  0  0  0  0  0  0101  0  0
  -27.2536  -27.5042   20.1156 C   0  0  0  0  0  0  0  0  0102  0  0
  -25.5726  -33.8762   24.2210 N   0  0  0  0  0  0  0  0  0103  0  0
  -23.4066  -30.4859   21.5461 C   0  0  2  0  0  0  0  0  0104  0  0
  -24.8467  -28.9636   20.1247 C   0  0  0  0  0  0  0  0  0105  0  0
  -22.7412  -29.4652   22.5052 C   0  0  0  0  0  0  0  0  0106  0  0
  -18.0167  -28.1302   22.8626 C   0  0  0  0  0  0  0  0  0107  0  0
  -24.1342  -36.7390   23.2568 C   0  0  0  0  0  0  0  0  0108  0  0
  -25.9141  -30.8882   21.3456 C   0  0  0  0  0  0  0  0  0109  0  0
  -25.9930  -29.5029   20.7208 C   0  0  0  0  0  0  0  0  0110  0  0
  -27.1758  -28.7612   20.7331 C   0  0  0  0  0  0  0  0  0111  0  0
  -26.1032  -26.9836   19.5230 C   0  0  0  0  0  0  0  0  0112  0  0
  -24.9097  -27.7011   19.5331 C   0  0  0  0  0  0  0  0  0113  0  0
  -23.5715  -29.7899   20.1582 C   0  0  0  0  0  0  0  0  0114  0  0
  -25.3990  -36.3212   24.0232 C   0  0  1  0  0  0  0  0  0115  0  0
  -20.5793  -28.3813   23.1004 C   0  0  2  0  0  0  0  0  0116  0  0
  -20.6548  -26.9392   22.5411 C   0  0  0  0  0  0  0  0  0117  0  0
  -19.5615  -26.6407   21.5143 C   0  0  0  0  0  0  0  0  0118  0  0
  -18.1797  -26.7818   22.1673 C   0  0  0  0  0  0  0  0  0119  0  0
  -19.1385  -28.8769   23.2988 C   0  0  0  0  0  0  0  0  0120  0  0
  -18.9183  -30.1286   23.8878 C   0  0  0  0  0  0  0  0  0121  0  0
  -17.6396  -30.6493   24.0352 C   0  0  0  0  0  0  0  0  0122  0  0
  -25.9153  -34.9582   23.4993 C   0  0  0  0  0  0  0  0  0123  0  0
  -16.5415  -29.9068   23.6254 C   0  0  0  0  0  0  0  0  0124  0  0
  -16.7331  -28.6521   23.0586 C   0  0  0  0  0  0  0  0  0125  0  0
  -26.4583  -31.6439   25.0683 C   0  0  0  0  0  0  0  0  0126  0  0
  -25.3807  -31.3179   26.1374 C   0  0  0  0  0  0  0  0  0127  0  0
  -27.0530  -30.3024   24.5680 C   0  0  0  0  0  0  0  0  0128  0  0
  -27.6014  -32.4281   25.7651 C   0  0  0  0  0  0  0  0  0129  0  0
  -27.5629  -37.2220   24.8621 C   0  0  0  0  0  0  0  0  0130  0  0
  -21.4133  -29.3375   22.3735 N   0  0  0  0  0  0  0  0  0131  0  0
  -26.4706  -37.3372   23.9061 N   0  0  0  0  0  0  0  0  0132  0  0
  -24.6674  -31.0544   22.1178 N   0  0  0  0  0  0  0  0  0133  0  0
  -23.4259  -28.8150   23.2971 O   0  0  0  0  0  0  0  0  0134  0  0
  -28.3948  -26.7345   20.0089 O   0  0  0  0  0  0  0  0  0135  0  0
  -26.5870  -34.9065   22.4671 O   0  0  0  0  0  0  0  0  0136  0  0
  -23.5365  -32.1254   23.7833 O   0  0  0  0  0  0  0  0  0137  0  0
  -29.7543  -24.4527   17.2287 C   0  0  0  0  0  0  0  0  0  0  0  0
  -30.5717  -25.0364   16.2609 C   0  0  0  0  0  0  0  0  0  0  0  0
  -30.3389  -26.2087   18.7817 C   0  0  0  0  0  0  0  0  0  0  0  0
  -29.6378  -25.0388   18.4891 C   0  0  0  0  0  0  0  0  0  0  0  0
  -31.2727  -26.2063   16.5534 C   0  0  0  0  0  0  0  0  0  0  0  0
  -31.1563  -26.7924   17.8138 C   0  0  0  0  0  0  0  0  0  0  0  0
  -28.1807  -25.2872   20.4449 C   0  0  0  0  0  0  0  0  0  0  0  0
  -28.6352  -23.0197   19.4613 C   0  0  0  0  0  0  0  0  0  0  0  0
  -27.4345  -24.6261   21.5853 C   0  0  0  0  0  0  0  0  0  0  0  0
  -27.7334  -23.1539   21.7463 C   0  0  0  0  0  0  0  0  0  0  0  0
  -27.5616  -22.4811   20.3962 C   0  0  2  0  0  0  0  0  0  0  0  0
  -33.5597  -26.6900   15.7012 C   0  0  0  0  0  0  0  0  0  0  0  0
  -27.6416  -20.9626   20.5351 C   0  0  0  0  0  0  0  0  0  1  0  0
  -28.7881  -24.4320   19.4945 N   0  0  0  0  0  0  0  0  0  0  0  0
  -31.8573  -27.9776   18.1313 N   0  0  0  0  0  0  0  0  0  0  0  0
  -32.1114  -26.7912   15.5359 N   0  0  0  0  0  0  0  0  0  0  0  0
  -28.1423  -26.5196   20.3682 O   0  0  0  0  0  0  0  0  0  0  0  0
  -29.3016  -22.2504   18.7659 O   0  0  0  0  0  0  0  0  0  0  0  0
  -31.4485  -12.4701   19.0860 H   0  0  0  0  0  0  0  0  0  0  0  0
  -30.3970  -11.2460   19.6950 H   0  0  0  0  0  0  0  0  0  0  0  0
  -29.6870  -11.8204   17.4226 H   0  0  0  0  0  0  0  0  0  0  0  0
  -29.6375  -13.5326   17.8649 H   0  0  0  0  0  0  0  0  0  0  0  0
  -27.7830  -11.3650   18.7904 H   0  0  0  0  0  0  0  0  0  0  0  0
  -27.4028  -12.7801   17.8021 H   0  0  0  0  0  0  0  0  0  0  0  0
  -27.7353  -14.2503   19.6136 H   0  0  0  0  0  0  0  0  0  0  0  0
  -28.5890  -11.9550   21.3832 H   0  0  0  0  0  0  0  0  0  0  0  0
  -28.5005  -13.6134   21.8562 H   0  0  0  0  0  0  0  0  0  0  0  0
  -25.2399   -9.5495   22.4318 H   0  0  0  0  0  0  0  0  0  0  0  0
  -23.9663   -7.5070   22.7297 H   0  0  0  0  0  0  0  0  0  0  0  0
  -21.1515   -8.8641   19.9162 H   0  0  0  0  0  0  0  0  0  0  0  0
  -22.4016  -10.9115   19.6476 H   0  0  0  0  0  0  0  0  0  0  0  0
  -21.2319   -7.5552   23.9750 H   0  0  0  0  0  0  0  0  0  0  0  0
  -21.1589   -6.0228   25.8556 H   0  0  0  0  0  0  0  0  0  0  0  0
  -22.0396   -2.8212   23.2809 H   0  0  0  0  0  0  0  0  0  0  0  0
  -22.4401  -11.9703   22.4008 H   0  0  0  0  0  0  0  0  0  0  0  0
  -21.1493  -13.0679   22.2082 H   0  0  0  0  0  0  0  0  0  0  0  0
  -24.6538  -15.7807   20.5848 H   0  0  0  0  0  0  0  0  0  0  0  0
  -26.2762  -15.5453   20.1156 H   0  0  0  0  0  0  0  0  0  0  0  0
  -26.6778  -32.4663   23.1464 H   0  0  0  0  0  0  0  0  0  0  0  0
  -25.0747  -34.0282   25.0566 H   0  0  0  0  0  0  0  0  0  0  0  0
  -22.7881  -31.3489   21.4131 H   0  0  0  0  0  0  0  0  0  0  0  0
  -23.3854  -35.9823   23.3648 H   0  0  0  0  0  0  0  0  0  0  0  0
  -24.3696  -36.8624   22.2204 H   0  0  0  0  0  0  0  0  0  0  0  0
  -23.7669  -37.6632   23.6516 H   0  0  0  0  0  0  0  0  0  0  0  0
  -25.9445  -31.6237   20.5691 H   0  0  0  0  0  0  0  0  0  0  0  0
  -26.7436  -31.0079   22.0108 H   0  0  0  0  0  0  0  0  0  0  0  0
  -28.0090  -29.1452   21.2057 H   0  0  0  0  0  0  0  0  0  0  0  0
  -26.1369  -26.0560   19.0719 H   0  0  0  0  0  0  0  0  0  0  0  0
  -24.0652  -27.2961   19.0997 H   0  0  0  0  0  0  0  0  0  0  0  0
  -23.6156  -30.5365   19.3930 H   0  0  0  0  0  0  0  0  0  0  0  0
  -22.7355  -29.1425   19.9945 H   0  0  0  0  0  0  0  0  0  0  0  0
  -25.1353  -36.2335   25.0565 H   0  0  0  0  0  0  0  0  0  0  0  0
  -21.0070  -28.3206   24.0793 H   0  0  0  0  0  0  0  0  0  0  0  0
  -20.5555  -26.2518   23.3550 H   0  0  0  0  0  0  0  0  0  0  0  0
  -21.5974  -26.8362   22.0454 H   0  0  0  0  0  0  0  0  0  0  0  0
  -19.6810  -25.6422   21.1488 H   0  0  0  0  0  0  0  0  0  0  0  0
  -19.6406  -27.3343   20.7034 H   0  0  0  0  0  0  0  0  0  0  0  0
  -17.4282  -26.6888   21.4113 H   0  0  0  0  0  0  0  0  0  0  0  0
  -18.0803  -26.0130   22.9049 H   0  0  0  0  0  0  0  0  0  0  0  0
  -19.7265  -30.6774   24.2204 H   0  0  0  0  0  0  0  0  0  0  0  0
  -17.5064  -31.5856   24.4483 H   0  0  0  0  0  0  0  0  0  0  0  0
  -15.5878  -30.2839   23.7407 H   0  0  0  0  0  0  0  0  0  0  0  0
  -15.9120  -28.0941   22.7766 H   0  0  0  0  0  0  0  0  0  0  0  0
  -24.5787  -30.7757   25.6817 H   0  0  0  0  0  0  0  0  0  0  0  0
  -25.0041  -32.2289   26.5536 H   0  0  0  0  0  0  0  0  0  0  0  0
  -25.8166  -30.7245   26.9138 H   0  0  0  0  0  0  0  0  0  0  0  0
  -26.2892  -29.7335   24.0803 H   0  0  0  0  0  0  0  0  0  0  0  0
  -27.4336  -29.7484   25.4006 H   0  0  0  0  0  0  0  0  0  0  0  0
  -27.8466  -30.4994   23.8779 H   0  0  0  0  0  0  0  0  0  0  0  0
  -27.2251  -33.3632   26.1242 H   0  0  0  0  0  0  0  0  0  0  0  0
  -28.3902  -32.6065   25.0645 H   0  0  0  0  0  0  0  0  0  0  0  0
  -27.9772  -31.8555   26.5872 H   0  0  0  0  0  0  0  0  0  0  0  0
  -28.2744  -38.0016   24.6863 H   0  0  0  0  0  0  0  0  0  0  0  0
  -28.0396  -36.2711   24.7461 H   0  0  0  0  0  0  0  0  0  0  0  0
  -27.1773  -37.3087   25.8564 H   0  0  0  0  0  0  0  0  0  0  0  0
  -20.9627  -29.9365   21.7352 H   0  0  0  0  0  0  0  0  0  0  0  0
  -26.0447  -38.2561   24.0273 H   0  0  0  0  0  0  0  0  0  0  0  0
  -29.2357  -23.5871   17.0122 H   0  0  0  0  0  0  0  0  0  0  0  0
  -30.6578  -24.6027   15.3284 H   0  0  0  0  0  0  0  0  0  0  0  0
  -30.2528  -26.6423   19.7142 H   0  0  0  0  0  0  0  0  0  0  0  0
  -26.3849  -24.7388   21.4103 H   0  0  0  0  0  0  0  0  0  0  0  0
  -27.7572  -25.1068   22.4851 H   0  0  0  0  0  0  0  0  0  0  0  0
  -27.0565  -22.7227   22.4540 H   0  0  0  0  0  0  0  0  0  0  0  0
  -28.7337  -23.0179   22.1009 H   0  0  0  0  0  0  0  0  0  0  0  0
  -26.5960  -22.7000   19.9904 H   0  0  0  0  0  0  0  0  0  0  0  0
  -34.0216  -27.5927   15.3597 H   0  0  0  0  0  0  0  0  0  0  0  0
  -33.9270  -25.8632   15.1299 H   0  0  0  0  0  0  0  0  0  0  0  0
  -33.7911  -26.5400   16.7351 H   0  0  0  0  0  0  0  0  0  0  0  0
  -27.6193  -20.2683   19.7212 H   0  0  0  0  0  0  0  0  0  0  0  0
  -27.6051  -20.0891   21.1520 H   0  0  0  0  0  0  0  0  0  0  0  0
  -31.7651  -28.3796   19.0253 H   0  0  0  0  0  0  0  0  0  0  0  0
  -32.4379  -28.4013   17.4585 H   0  0  0  0  0  0  0  0  0  0  0  0
  1 25  1  0
  1 30  2  0
  1 86  1  0
  2  3  1  0
  2 25  1  0
  2 89  1  0
  2 90  1  0
  3  4  1  0
  3 91  1  0
  3 92  1  0
  4  5  1  0
  4 93  1  0
  4 94  1  0
  5  6  1  0
  5 26  1  0
  5 95  1  6
  6 25  1  0
  6 96  1  0
  6 97  1  0
  7  8  2  0
  7 26  1  0
  7 29  1  0
  8  9  1  0
  8 22  1  0
  9 10  1  0
  9 27  2  0
 10 11  2  0
 10 15  1  0
 11 12  1  0
 11 98  1  0
 12 13  2  0
 12 99  1  0
 13 14  1  0
 13 31  1  0
 14 15  2  0
 14100  1  0
 15101  1  0
 16 17  2  0
 16 21  1  0
 16 31  1  0
 17 18  1  0
 17102  1  0
 18 19  2  0
 18103  1  0
 19 20  1  0
 19 24  1  0
 20 21  2  0
 20104  1  0
 21 23  1  0
 22 28  1  0
 22 32  2  0
 26 27  1  0
 28105  1  0
 28106  1  0
 29107  1  0
 29108  1  0
 33 34  1  0
 33 66  1  0
 33 70  2  0
 34 36  1  0
 34 59  1  0
 34109  1  6
 35 44  2  0
 35 45  1  0
 35 68  1  0
 36 56  1  0
 36110  1  0
 37 39  1  0
 37 47  1  0
 37 66  1  0
 37111  1  6
 38 43  2  0
 38 46  1  0
 38 47  1  0
 39 64  1  0
 39 67  2  0
 40 52  1  0
 40 53  2  0
 40 58  1  0
 41112  1  0
 41113  1  0
 41114  1  0
 42 43  1  0
 42 66  1  0
 42115  1  0
 42116  1  0
 43 44  1  0
 44117  1  0
 45 46  2  0
 45118  1  0
 46119  1  0
 47120  1  0
 47121  1  0
 48 41  1  0
 48 56  1  0
 48 65  1  0
 48122  1  1
 49 50  1  0
 49 53  1  0
 49 64  1  0
 49123  1  1
 50 51  1  0
 50124  1  0
 50125  1  0
 51 52  1  0
 51126  1  0
 51127  1  0
 52128  1  0
 52129  1  0
 53 54  1  0
 54 55  2  0
 54130  1  0
 55 57  1  0
 55131  1  0
 56 69  2  0
 57 58  2  0
 57132  1  0
 58133  1  0
 59 60  1  0
 59 61  1  0
 59 62  1  0
 60134  1  0
 60135  1  0
 60136  1  0
 61137  1  0
 61138  1  0
 61139  1  0
 62140  1  0
 62141  1  0
 62142  1  0
 63 65  1  0
 63143  1  0
 63144  1  0
 63145  1  0
 64146  1  0
 65147  1  0
 68 83  1  0
 71 72  2  0
 71 74  1  0
 71148  1  0
 72 75  1  0
 72149  1  0
 73 74  2  0
 73 76  1  0
 73150  1  0
 74 84  1  0
 75 76  2  0
 75 86  1  0
 76 85  1  0
 77 79  1  0
 77 84  1  0
 77 87  2  0
 78 81  1  0
 78 84  1  0
 78 88  2  0
 79 80  1  0
 79151  1  0
 79152  1  0
 80 81  1  0
 80153  1  0
 80154  1  0
 81 83  1  0
 81155  1  6
 82 86  1  0
 82156  1  0
 82157  1  0
 82158  1  0
 83159  1  0
 83160  1  0
 85161  1  0
 85162  1  0
M  ISO  4   1 100  68 101  83 101  86 100
M  END
$$$$
5
     RDKit          3D

170179  0  0  0  0  0  0  0  0999 V2000
  -30.7652  -14.3608   20.6636 C   0  0  0  0  0  0  0  0  0100  0  0
  -30.4392  -12.2669   19.3775 C   0  0  0  0  0  0  0  0  0101  0  0
  -29.4791  -12.5281   18.1977 C   0  0  0  0  0  0  0  0  0102  0  0
  -27.9985  -12.3963   18.6038 C   0  0  0  0  0  0  0  0  0103  0  0
  -27.6639  -13.2170   19.8820 C   0  0  2  0  0  0  0  0  0104  0  0
  -28.6795  -12.9602   21.0279 C   0  0  0  0  0  0  0  0  0105  0  0
  -25.2633  -13.8245   20.5754 C   0  0  0  0  0  0  0  0  0106  0  0
  -24.1645  -13.0409   20.9408 C   0  0  0  0  0  0  0  0  0107  0  0
  -24.6400  -11.7009   20.8697 C   0  0  0  0  0  0  0  0  0108  0  0
  -23.9005  -10.4085   21.0420 C   0  0  0  0  0  0  0  0  0109  0  0
  -24.3588   -9.4123   21.9123 C   0  0  0  0  0  0  0  0  0110  0  0
  -23.6296   -8.2350   22.0803 C   0  0  0  0  0  0  0  0  0111  0  0
  -22.4385   -8.0419   21.3657 C   0  0  0  0  0  0  0  0  0112  0  0
  -22.0103   -9.0167   20.4678 C   0  0  0  0  0  0  0  0  0113  0  0
  -22.7317  -10.1925   20.3102 C   0  0  0  0  0  0  0  0  0114  0  0
  -21.6857   -6.0709   22.5391 C   0  0  0  0  0  0  0  0  0115  0  0
  -21.4064   -6.5490   23.8264 C   0  0  0  0  0  0  0  0  0116  0  0
  -21.3635   -5.6677   24.9085 C   0  0  0  0  0  0  0  0  0117  0  0
  -21.5973   -4.3067   24.7088 C   0  0  0  0  0  0  0  0  0118  0  0
  -21.8700   -3.8284   23.4282 C   0  0  0  0  0  0  0  0  0119  0  0
  -21.9144   -4.7056   22.3460 C   0  0  0  0  0  0  0  0  0120  0  0
  -22.8194  -13.5263   21.1763 C   0  0  0  0  0  0  0  0  0121  0  0
  -22.1559   -4.2206   21.1063 F   0  0  0  0  0  0  0  0  0122  0  0
  -21.5628   -3.4510   25.7555 F   0  0  0  0  0  0  0  0  0123  0  0
  -30.0261  -13.1803   20.4553 N   0  0  0  0  0  0  0  0  0124  0  0
  -26.2911  -12.9356   20.3443 N   0  0  0  0  0  0  0  0  0125  0  0
  -25.9236  -11.6675   20.5847 N   0  0  0  0  0  0  0  0  0126  0  0
  -22.0708  -12.7905   22.0005 N   0  0  0  0  0  0  0  0  0127  0  0
  -25.4117  -15.1773   20.4097 N   0  0  0  0  0  0  0  0  0128  0  0
  -31.7916  -14.6724   20.0536 O   0  0  0  0  0  0  0  0  0129  0  0
  -21.6670   -6.9022   21.4423 O   0  0  0  0  0  0  0  0  0130  0  0
  -22.3946  -14.5564   20.6568 O   0  0  0  0  0  0  0  0  0131  0  0
  -24.6048  -31.8614   23.2223 C   0  0  0  0  0  0  0  0  0100  0  0
  -25.8822  -32.4841   23.8616 C   0  0  1  0  0  0  0  0  0101  0  0
  -27.2536  -27.5042   20.1156 C   0  0  0  0  0  0  0  0  0102  0  0
  -25.5726  -33.8762   24.2210 N   0  0  0  0  0  0  0  0  0103  0  0
  -23.4066  -30.4859   21.5461 C   0  0  2  0  0  0  0  0  0104  0  0
  -24.8467  -28.9636   20.1247 C   0  0  0  0  0  0  0  0  0105  0  0
  -22.7412  -29.4652   22.5052 C   0  0  0  0  0  0  0  0  0106  0  0
  -18.0167  -28.1302   22.8626 C   0  0  0  0  0  0  0  0  0107  0  0
  -24.1342  -36.7390   23.2568 C   0  0  0  0  0  0  0  0  0108  0  0
  -25.9141  -30.8882   21.3456 C   0  0  0  0  0  0  0  0  0109  0  0
  -25.9930  -29.5029   20.7208 C   0  0  0  0  0  0  0  0  0110  0  0
  -27.1758  -28.7612   20.7331 C   0  0  0  0  0  0  0  0  0111  0  0
  -26.1032  -26.9836   19.5230 C   0  0  0  0  0  0  0  0  0112  0  0
  -24.9097  -27.7011   19.5331 C   0  0  0  0  0  0  0  0  0113  0  0
  -23.5715  -29.7899   20.1582 C   0  0  0  0  0  0  0  0  0114  0  0
  -25.3990  -36.3212   24.0232 C   0  0  1  0  0  0  0  0  0115  0  0
  -20.5793  -28.3813   23.1004 C   0  0  2  0  0  0  0  0  0116  0  0
  -20.6548  -26.9392   22.5411 C   0  0  0  0  0  0  0  0  0117  0  0
  -19.5615  -26.6407   21.5143 C   0  0  0  0  0  0  0  0  0118  0  0
  -18.1797  -26.7818   22.1673 C   0  0  0  0  0  0  0  0  0119  0  0
  -19.1385  -28.8769   23.2988 C   0  0  0  0  0  0  0  0  0120  0  0
  -18.9183  -30.1286   23.8878 C   0  0  0  0  0  0  0  0  0121  0  0
  -17.6396  -30.6493   24.0352 C   0  0  0  0  0  0  0  0  0122  0  0
  -25.9153  -34.9582   23.4993 C   0  0  0  0  0  0  0  0  0123  0  0
  -16.5415  -29.9068   23.6254 C   0  0  0  0  0  0  0  0  0124  0  0
  -16.7331  -28.6521   23.0586 C   0  0  0  0  0  0  0  0  0125  0  0
  -26.4583  -31.6439   25.0683 C   0  0  0  0  0  0  0  0  0126  0  0
  -25.3807  -31.3179   26.1374 C   0  0  0  0  0  0  0  0  0127  0  0
  -27.0530  -30.3024   24.5680 C   0  0  0  0  0  0  0  0  0128  0  0
  -27.6014  -32.4281   25.7651 C   0  0  0  0  0  0  0  0  0129  0  0
  -27.5629  -37.2220   24.8621 C   0  0  0  0  0  0  0  0  0130  0  0
  -21.4133  -29.3375   22.3735 N   0  0  0  0  0  0  0  0  0131  0  0
  -26.4706  -37.3372   23.9061 N   0  0  0  0  0  0  0  0  0132  0  0
  -24.6674  -31.0544   22.1178 N   0  0  0  0  0  0  0  0  0133  0  0
  -23.4259  -28.8150   23.2971 O   0  0  0  0  0  0  0  0  0134  0  0
  -28.3948  -26.7345   20.0089 O   0  0  0  0  0  0  0  0  0135  0  0
  -26.5870  -34.9065   22.4671 O   0  0  0  0  0  0  0  0  0136  0  0
  -23.5365  -32.1254   23.7833 O   0  0  0  0  0  0  0  0  0137  0  0
  -29.8592  -20.5767   19.8536 C   0  0  0  0  0  0  0  0  0  0  0  0
  -28.2279  -22.1756   18.2521 C   0  0  0  0  0  0  0  0  0  0  0  0
  -28.4741  -20.5407   20.0138 C   0  0  0  0  0  0  0  0  0  0  0  0
  -27.6584  -21.3401   19.2130 C   0  0  0  0  0  0  0  0  0  0  0  0
  -29.6130  -22.2116   18.0919 C   0  0  0  0  0  0  0  0  0  0  0  0
  -30.4287  -21.4122   18.8927 C   0  0  0  0  0  0  0  0  0  0  0  0
  -32.1462  -24.5855   17.4072 C   0  0  0  0  0  0  0  0  0  0  0  0
  -27.8910  -19.6494   21.0383 C   0  0  0  0  0  0  0  0  0  0  0  0
  -32.7254  -25.7960   18.1130 C   0  0  0  0  0  0  0  0  0  0  0  0
  -31.7221  -26.8931   18.4097 C   0  0  0  0  0  0  0  0  0  0  0  0
  -29.8683  -25.2583   18.2482 C   0  0  0  0  0  0  0  0  0  0  0  0
  -30.5293  -26.2989   19.1466 C   0  0  2  0  0  0  0  0  0  0  0  0
  -26.1728  -21.3194   19.3666 C   0  0  0  0  0  0  0  0  0  0  0  0
  -30.1989  -23.1197   17.0496 C   0  0  0  0  0  0  0  0  0  0  0  0
  -29.5319  -27.3841   19.5447 C   0  0  0  0  0  0  0  0  0  1  0  0
  -30.8004  -24.3088   17.6384 N   0  0  0  0  0  0  0  0  0  0  0  0
  -31.8330  -21.4360   18.7444 N   0  0  0  0  0  0  0  0  0  0  0  0
  -27.0388  -18.6956   20.6319 N   0  0  0  0  0  0  0  0  0  0  0  0
  -28.2453  -19.8532   22.3069 N   0  0  0  0  0  0  0  0  0  0  0  0
  -32.8956  -23.8682   16.7386 O   0  0  0  0  0  0  0  0  0  0  0  0
  -31.4485  -12.4701   19.0860 H   0  0  0  0  0  0  0  0  0  0  0  0
  -30.3970  -11.2460   19.6950 H   0  0  0  0  0  0  0  0  0  0  0  0
  -29.6870  -11.8204   17.4226 H   0  0  0  0  0  0  0  0  0  0  0  0
  -29.6375  -13.5326   17.8649 H   0  0  0  0  0  0  0  0  0  0  0  0
  -27.7830  -11.3650   18.7904 H   0  0  0  0  0  0  0  0  0  0  0  0
  -27.4028  -12.7801   17.8021 H   0  0  0  0  0  0  0  0  0  0  0  0
  -27.7353  -14.2503   19.6136 H   0  0  0  0  0  0  0  0  0  0  0  0
  -28.5890  -11.9550   21.3832 H   0  0  0  0  0  0  0  0  0  0  0  0
  -28.5005  -13.6134   21.8562 H   0  0  0  0  0  0  0  0  0  0  0  0
  -25.2399   -9.5495   22.4318 H   0  0  0  0  0  0  0  0  0  0  0  0
  -23.9663   -7.5070   22.7297 H   0  0  0  0  0  0  0  0  0  0  0  0
  -21.1515   -8.8641   19.9162 H   0  0  0  0  0  0  0  0  0  0  0  0
  -22.4016  -10.9115   19.6476 H   0  0  0  0  0  0  0  0  0  0  0  0
  -21.2319   -7.5552   23.9750 H   0  0  0  0  0  0  0  0  0  0  0  0
  -21.1589   -6.0228   25.8556 H   0  0  0  0  0  0  0  0  0  0  0  0
  -22.0396   -2.8212   23.2809 H   0  0  0  0  0  0  0  0  0  0  0  0
  -22.4401  -11.9703   22.4008 H   0  0  0  0  0  0  0  0  0  0  0  0
  -21.1493  -13.0679   22.2082 H   0  0  0  0  0  0  0  0  0  0  0  0
  -24.6538  -15.7807   20.5848 H   0  0  0  0  0  0  0  0  0  0  0  0
  -26.2762  -15.5453   20.1156 H   0  0  0  0  0  0  0  0  0  0  0  0
  -26.6778  -32.4663   23.1464 H   0  0  0  0  0  0  0  0  0  0  0  0
  -25.0747  -34.0282   25.0566 H   0  0  0  0  0  0  0  0  0  0  0  0
  -22.7881  -31.3489   21.4131 H   0  0  0  0  0  0  0  0  0  0  0  0
  -23.3854  -35.9823   23.3648 H   0  0  0  0  0  0  0  0  0  0  0  0
  -24.3696  -36.8624   22.2204 H   0  0  0  0  0  0  0  0  0  0  0  0
  -23.7669  -37.6632   23.6516 H   0  0  0  0  0  0  0  0  0  0  0  0
  -25.9445  -31.6237   20.5691 H   0  0  0  0  0  0  0  0  0  0  0  0
  -26.7436  -31.0079   22.0108 H   0  0  0  0  0  0  0  0  0  0  0  0
  -28.0090  -29.1452   21.2057 H   0  0  0  0  0  0  0  0  0  0  0  0
  -26.1369  -26.0560   19.0719 H   0  0  0  0  0  0  0  0  0  0  0  0
  -24.0652  -27.2961   19.0997 H   0  0  0  0  0  0  0  0  0  0  0  0
  -23.6156  -30.5365   19.3930 H   0  0  0  0  0  0  0  0  0  0  0  0
  -22.7355  -29.1425   19.9945 H   0  0  0  0  0  0  0  0  0  0  0  0
  -25.1353  -36.2335   25.0565 H   0  0  0  0  0  0  0  0  0  0  0  0
  -21.0070  -28.3206   24.0793 H   0  0  0  0  0  0  0  0  0  0  0  0
  -20.5555  -26.2518   23.3550 H   0  0  0  0  0  0  0  0  0  0  0  0
  -21.5974  -26.8362   22.0454 H   0  0  0  0  0  0  0  0  0  0  0  0
  -19.6810  -25.6422   21.1488 H   0  0  0  0  0  0  0  0  0  0  0  0
  -19.6406  -27.3343   20.7034 H   0  0  0  0  0  0  0  0  0  0  0  0
  -17.4282  -26.6888   21.4113 H   0  0  0  0  0  0  0  0  0  0  0  0
  -18.0803  -26.0130   22.9049 H   0  0  0  0  0  0  0  0  0  0  0  0
  -19.7265  -30.6774   24.2204 H   0  0  0  0  0  0  0  0  0  0  0  0
  -17.5064  -31.5856   24.4483 H   0  0  0  0  0  0  0  0  0  0  0  0
  -15.5878  -30.2839   23.7407 H   0  0  0  0  0  0  0  0  0  0  0  0
  -15.9120  -28.0941   22.7766 H   0  0  0  0  0  0  0  0  0  0  0  0
  -24.5787  -30.7757   25.6817 H   0  0  0  0  0  0  0  0  0  0  0  0
  -25.0041  -32.2289   26.5536 H   0  0  0  0  0  0  0  0  0  0  0  0
  -25.8166  -30.7245   26.9138 H   0  0  0  0  0  0  0  0  0  0  0  0
  -26.2892  -29.7335   24.0803 H   0  0  0  0  0  0  0  0  0  0  0  0
  -27.4336  -29.7484   25.4006 H   0  0  0  0  0  0  0  0  0  0  0  0
  -27.8466  -30.4994   23.8779 H   0  0  0  0  0  0  0  0  0  0  0  0
  -27.2251  -33.3632   26.1242 H   0  0  0  0  0  0  0  0  0  0  0  0
  -28.3902  -32.6065   25.0645 H   0  0  0  0  0  0  0  0  0  0  0  0
  -27.9772  -31.8555   26.5872 H   0  0  0  0  0  0  0  0  0  0  0  0
  -28.2744  -38.0016   24.6863 H   0  0  0  0  0  0  0  0  0  0  0  0
  -28.0396  -36.2711   24.7461 H   0  0  0  0  0  0  0  0  0  0  0  0
  -27.1773  -37.3087   25.8564 H   0  0  0  0  0  0  0  0  0  0  0  0
  -20.9627  -29.9365   21.7352 H   0  0  0  0  0  0  0  0  0  0  0  0
  -26.0447  -38.2561   24.0273 H   0  0  0  0  0  0  0  0  0  0  0  0
  -30.4627  -19.9852   20.4460 H   0  0  0  0  0  0  0  0  0  0  0  0
  -27.6244  -22.7671   17.6597 H   0  0  0  0  0  0  0  0  0  0  0  0
  -33.4956  -26.2065   17.4940 H   0  0  0  0  0  0  0  0  0  0  0  0
  -33.0868  -25.4513   19.0593 H   0  0  0  0  0  0  0  0  0  0  0  0
  -31.3921  -27.3333   17.4920 H   0  0  0  0  0  0  0  0  0  0  0  0
  -32.1815  -27.6438   19.0182 H   0  0  0  0  0  0  0  0  0  0  0  0
  -29.3525  -25.7720   17.4640 H   0  0  0  0  0  0  0  0  0  0  0  0
  -29.2136  -24.6867   18.8723 H   0  0  0  0  0  0  0  0  0  0  0  0
  -30.8664  -25.8334   20.0492 H   0  0  0  0  0  0  0  0  0  0  0  0
  -25.7323  -21.9971   18.6655 H   0  0  0  0  0  0  0  0  0  0  0  0
  -25.9129  -21.6162   20.3612 H   0  0  0  0  0  0  0  0  0  0  0  0
  -25.8090  -20.3300   19.1831 H   0  0  0  0  0  0  0  0  0  0  0  0
  -29.4223  -23.4216   16.3783 H   0  0  0  0  0  0  0  0  0  0  0  0
  -30.9669  -22.5807   16.5352 H   0  0  0  0  0  0  0  0  0  0  0  0
  -29.2894  -27.9903   18.6970 H   0  0  0  0  0  0  0  0  0  0  0  0
  -29.9420  -28.0246   20.2974 H   0  0  0  0  0  0  0  0  0  0  0  0
  -32.3980  -20.8671   19.3157 H   0  0  0  0  0  0  0  0  0  0  0  0
  -32.2469  -22.0215   18.0698 H   0  0  0  0  0  0  0  0  0  0  0  0
  -26.0820  -18.7310   20.4026 H   0  0  0  0  0  0  0  0  0  0  0  0
  -28.8772  -20.5739   22.5318 H   0  0  0  0  0  0  0  0  0  0  0  0
  -27.8751  -19.2831   23.0191 H   0  0  0  0  0  0  0  0  0  0  0  0
  1 25  1  0
  1 30  2  0
  1 88  1  0
  2  3  1  0
  2 25  1  0
  2 91  1  0
  2 92  1  0
  3  4  1  0
  3 93  1  0
  3 94  1  0
  4  5  1  0
  4 95  1  0
  4 96  1  0
  5  6  1  0
  5 26  1  0
  5 97  1  6
  6 25  1  0
  6 98  1  0
  6 99  1  0
  7  8  2  0
  7 26  1  0
  7 29  1  0
  8  9  1  0
  8 22  1  0
  9 10  1  0
  9 27  2  0
 10 11  2  0
 10 15  1  0
 11 12  1  0
 11100  1  0
 12 13  2  0
 12101  1  0
 13 14  1  0
 13 31  1  0
 14 15  2  0
 14102  1  0
 15103  1  0
 16 17  2  0
 16 21  1  0
 16 31  1  0
 17 18  1  0
 17104  1  0
 18 19  2  0
 18105  1  0
 19 20  1  0
 19 24  1  0
 20 21  2  0
 20106  1  0
 21 23  1  0
 22 28  1  0
 22 32  2  0
 26 27  1  0
 28107  1  0
 28108  1  0
 29109  1  0
 29110  1  0
 33 34  1  0
 33 66  1  0
 33 70  2  0
 34 36  1  0
 34 59  1  0
 34111  1  6
 35 44  2  0
 35 45  1  0
 35 68  1  0
 36 56  1  0
 36112  1  0
 37 39  1  0
 37 47  1  0
 37 66  1  0
 37113  1  6
 38 43  2  0
 38 46  1  0
 38 47  1  0
 39 64  1  0
 39 67  2  0
 40 52  1  0
 40 53  2  0
 40 58  1  0
 41114  1  0
 41115  1  0
 41116  1  0
 42 43  1  0
 42 66  1  0
 42117  1  0
 42118  1  0
 43 44  1  0
 44119  1  0
 45 46  2  0
 45120  1  0
 46121  1  0
 47122  1  0
 47123  1  0
 48 41  1  0
 48 56  1  0
 48 65  1  0
 48124  1  1
 49 50  1  0
 49 53  1  0
 49 64  1  0
 49125  1  1
 50 51  1  0
 50126  1  0
 50127  1  0
 51 52  1  0
 51128  1  0
 51129  1  0
 52130  1  0
 52131  1  0
 53 54  1  0
 54 55  2  0
 54132  1  0
 55 57  1  0
 55133  1  0
 56 69  2  0
 57 58  2  0
 57134  1  0
 58135  1  0
 59 60  1  0
 59 61  1  0
 59 62  1  0
 60136  1  0
 60137  1  0
 60138  1  0
 61139  1  0
 61140  1  0
 61141  1  0
 62142  1  0
 62143  1  0
 62144  1  0
 63 65  1  0
 63145  1  0
 63146  1  0
 63147  1  0
 64148  1  0
 65149  1  0
 68 85  1  0
 71 73  2  0
 71 76  1  0
 71150  1  0
 72 74  2  0
 72 75  1  0
 72151  1  0
 73 74  1  0
 73 78  1  0
 74 83  1  0
 75 76  2  0
 75 84  1  0
 76 87  1  0
 77 79  1  0
 77 86  1  0
 77 90  2  0
 78 88  1  0
 78 89  2  0
 79 80  1  0
 79152  1  0
 79153  1  0
 80 82  1  0
 80154  1  0
 80155  1  0
 81 82  1  0
 81 86  1  0
 81156  1  0
 81157  1  0
 82 85  1  0
 82158  1  1
 83159  1  0
 83160  1  0
 83161  1  0
 84 86  1  0
 84162  1  0
 84163  1  0
 85164  1  0
 85165  1  0
 87166  1  0
 87167  1  0
 88168  1  0
 89169  1  0
 89170  1  0
M  CHG  1  89   1
M  ISO  4   1 100  68 101  85 101  88 100
M  END
$$$$
6
     RDKit          3D

164173  0  0  0  0  0  0  0  0999 V2000
  -30.7652  -14.3608   20.6636 C   0  0  0  0  0  0  0  0  0100  0  0
  -30.4392  -12.2669   19.3775 C   0  0  0  0  0  0  0  0  0101  0  0
  -29.4791  -12.5281   18.1977 C   0  0  0  0  0  0  0  0  0102  0  0
  -27.9985  -12.3963   18.6038 C   0  0  0  0  0  0  0  0  0103  0  0
  -27.6639  -13.2170   19.8820 C   0  0  2  0  0  0  0  0  0104  0  0
  -28.6795  -12.9602   21.0279 C   0  0  0  0  0  0  0  0  0105  0  0
  -25.2633  -13.8245   20.5754 C   0  0  0  0  0  0  0  0  0106  0  0
  -24.1645  -13.0409   20.9408 C   0  0  0  0  0  0  0  0  0107  0  0
  -24.6400  -11.7009   20.8697 C   0  0  0  0  0  0  0  0  0108  0  0
  -23.9005  -10.4085   21.0420 C   0  0  0  0  0  0  0  0  0109  0  0
  -24.3588   -9.4123   21.9123 C   0  0  0  0  0  0  0  0  0110  0  0
  -23.6296   -8.2350   22.0803 C   0  0  0  0  0  0  0  0  0111  0  0
  -22.4385   -8.0419   21.3657 C   0  0  0  0  0  0  0  0  0112  0  0
  -22.0103   -9.0167   20.4678 C   0  0  0  0  0  0  0  0  0113  0  0
  -22.7317  -10.1925   20.3102 C   0  0  0  0  0  0  0  0  0114  0  0
  -21.6857   -6.0709   22.5391 C   0  0  0  0  0  0  0  0  0115  0  0
  -21.4064   -6.5490   23.8264 C   0  0  0  0  0  0  0  0  0116  0  0
  -21.3635   -5.6677   24.9085 C   0  0  0  0  0  0  0  0  0117  0  0
  -21.5973   -4.3067   24.7088 C   0  0  0  0  0  0  0  0  0118  0  0
  -21.8700   -3.8284   23.4282 C   0  0  0  0  0  0  0  0  0119  0  0
  -21.9144   -4.7056   22.3460 C   0  0  0  0  0  0  0  0  0120  0  0
  -22.8194  -13.5263   21.1763 C   0  0  0  0  0  0  0  0  0121  0  0
  -22.1559   -4.2206   21.1063 F   0  0  0  0  0  0  0  0  0122  0  0
  -21.5628   -3.4510   25.7555 F   0  0  0  0  0  0  0  0  0123  0  0
  -30.0261  -13.1803   20.4553 N   0  0  0  0  0  0  0  0  0124  0  0
  -26.2911  -12.9356   20.3443 N   0  0  0  0  0  0  0  0  0125  0  0
  -25.9236  -11.6675   20.5847 N   0  0  0  0  0  0  0  0  0126  0  0
  -22.0708  -12.7905   22.0005 N   0  0  0  0  0  0  0  0  0127  0  0
  -25.4117  -15.1773   20.4097 N   0  0  0  0  0  0  0  0  0128  0  0
  -31.7916  -14.6724   20.0536 O   0  0  0  0  0  0  0  0  0129  0  0
  -21.6670   -6.9022   21.4423 O   0  0  0  0  0  0  0  0  0130  0  0
  -22.3946  -14.5564   20.6568 O   0  0  0  0  0  0  0  0  0131  0  0
  -24.6048  -31.8614   23.2223 C   0  0  0  0  0  0  0  0  0100  0  0
  -25.8822  -32.4841   23.8616 C   0  0  1  0  0  0  0  0  0101  0  0
  -27.2536  -27.5042   20.1156 C   0  0  0  0  0  0  0  0  0102  0  0
  -25.5726  -33.8762   24.2210 N   0  0  0  0  0  0  0  0  0103  0  0
  -23.4066  -30.4859   21.5461 C   0  0  2  0  0  0  0  0  0104  0  0
  -24.8467  -28.9636   20.1247 C   0  0  0  0  0  0  0  0  0105  0  0
  -22.7412  -29.4652   22.5052 C   0  0  0  0  0  0  0  0  0106  0  0
  -18.0167  -28.1302   22.8626 C   0  0  0  0  0  0  0  0  0107  0  0
  -24.1342  -36.7390   23.2568 C   0  0  0  0  0  0  0  0  0108  0  0
  -25.9141  -30.8882   21.3456 C   0  0  0  0  0  0  0  0  0109  0  0
  -25.9930  -29.5029   20.7208 C   0  0  0  0  0  0  0  0  0110  0  0
  -27.1758  -28.7612   20.7331 C   0  0  0  0  0  0  0  0  0111  0  0
  -26.1032  -26.9836   19.5230 C   0  0  0  0  0  0  0  0  0112  0  0
  -24.9097  -27.7011   19.5331 C   0  0  0  0  0  0  0  0  0113  0  0
  -23.5715  -29.7899   20.1582 C   0  0  0  0  0  0  0  0  0114  0  0
  -25.3990  -36.3212   24.0232 C   0  0  1  0  0  0  0  0  0115  0  0
  -20.5793  -28.3813   23.1004 C   0  0  2  0  0  0  0  0  0116  0  0
  -20.6548  -26.9392   22.5411 C   0  0  0  0  0  0  0  0  0117  0  0
  -19.5615  -26.6407   21.5143 C   0  0  0  0  0  0  0  0  0118  0  0
  -18.1797  -26.7818   22.1673 C   0  0  0  0  0  0  0  0  0119  0  0
  -19.1385  -28.8769   23.2988 C   0  0  0  0  0  0  0  0  0120  0  0
  -18.9183  -30.1286   23.8878 C   0  0  0  0  0  0  0  0  0121  0  0
  -17.6396  -30.6493   24.0352 C   0  0  0  0  0  0  0  0  0122  0  0
  -25.9153  -34.9582   23.4993 C   0  0  0  0  0  0  0  0  0123  0  0
  -16.5415  -29.9068   23.6254 C   0  0  0  0  0  0  0  0  0124  0  0
  -16.7331  -28.6521   23.0586 C   0  0  0  0  0  0  0  0  0125  0  0
  -26.4583  -31.6439   25.0683 C   0  0  0  0  0  0  0  0  0126  0  0
  -25.3807  -31.3179   26.1374 C   0  0  0  0  0  0  0  0  0127  0  0
  -27.0530  -30.3024   24.5680 C   0  0  0  0  0  0  0  0  0128  0  0
  -27.6014  -32.4281   25.7651 C   0  0  0  0  0  0  0  0  0129  0  0
  -27.5629  -37.2220   24.8621 C   0  0  0  0  0  0  0  0  0130  0  0
  -21.4133  -29.3375   22.3735 N   0  0  0  0  0  0  0  0  0131  0  0
  -26.4706  -37.3372   23.9061 N   0  0  0  0  0  0  0  0  0132  0  0
  -24.6674  -31.0544   22.1178 N   0  0  0  0  0  0  0  0  0133  0  0
  -23.4259  -28.8150   23.2971 O   0  0  0  0  0  0  0  0  0134  0  0
  -28.3948  -26.7345   20.0089 O   0  0  0  0  0  0  0  0  0135  0  0
  -26.5870  -34.9065   22.4671 O   0  0  0  0  0  0  0  0  0136  0  0
  -23.5365  -32.1254   23.7833 O   0  0  0  0  0  0  0  0  0137  0  0
  -30.8462  -20.8032   18.4453 C   0  0  0  0  0  0  0  0  0  0  0  0
  -28.8920  -21.2133   19.8054 C   0  0  0  0  0  0  0  0  0  0  0  0
  -30.3969  -19.5076   18.1902 C   0  0  0  0  0  0  0  0  0  0  0  0
  -28.4426  -19.9176   19.5502 C   0  0  0  0  0  0  0  0  0  0  0  0
  -30.0938  -21.6560   19.2529 C   0  0  0  0  0  0  0  0  0  0  0  0
  -29.1950  -19.0648   18.7426 C   0  0  0  0  0  0  0  0  0  0  0  0
  -31.9350  -23.2911   19.5477 C   0  0  0  0  0  0  0  0  0  0  0  0
  -32.3145  -24.7596   19.5193 C   0  0  0  0  0  0  0  0  0  0  0  0
  -31.3576  -25.6663   20.2618 C   0  0  0  0  0  0  0  0  0  0  0  0
  -29.5587  -23.9883   19.9593 C   0  0  0  0  0  0  0  0  0  0  0  0
  -29.9538  -25.4452   19.7230 C   0  0  1  0  0  0  0  0  0  0  0  0
  -27.7947  -17.7051   16.1945 C   0  0  0  0  0  0  0  0  0  0  0  0
  -28.9564  -26.3925   20.3866 C   0  0  0  0  0  0  0  0  0  1  0  0
  -28.8755  -17.1866   17.1215 C   0  0  0  0  0  0  0  0  0  0  0  0
  -30.5601  -23.0004   19.5181 N   0  0  0  0  0  0  0  0  0  0  0  0
  -28.7295  -17.7236   18.4787 N   0  0  0  0  0  0  0  0  0  0  0  0
  -32.8443  -22.4570   19.5348 O   0  0  0  0  0  0  0  0  0  0  0  0
  -31.4485  -12.4701   19.0860 H   0  0  0  0  0  0  0  0  0  0  0  0
  -30.3970  -11.2460   19.6950 H   0  0  0  0  0  0  0  0  0  0  0  0
  -29.6870  -11.8204   17.4226 H   0  0  0  0  0  0  0  0  0  0  0  0
  -29.6375  -13.5326   17.8649 H   0  0  0  0  0  0  0  0  0  0  0  0
  -27.7830  -11.3650   18.7904 H   0  0  0  0  0  0  0  0  0  0  0  0
  -27.4028  -12.7801   17.8021 H   0  0  0  0  0  0  0  0  0  0  0  0
  -27.7353  -14.2503   19.6136 H   0  0  0  0  0  0  0  0  0  0  0  0
  -28.5890  -11.9550   21.3832 H   0  0  0  0  0  0  0  0  0  0  0  0
  -28.5005  -13.6134   21.8562 H   0  0  0  0  0  0  0  0  0  0  0  0
  -25.2399   -9.5495   22.4318 H   0  0  0  0  0  0  0  0  0  0  0  0
  -23.9663   -7.5070   22.7297 H   0  0  0  0  0  0  0  0  0  0  0  0
  -21.1515   -8.8641   19.9162 H   0  0  0  0  0  0  0  0  0  0  0  0
  -22.4016  -10.9115   19.6476 H   0  0  0  0  0  0  0  0  0  0  0  0
  -21.2319   -7.5552   23.9750 H   0  0  0  0  0  0  0  0  0  0  0  0
  -21.1589   -6.0228   25.8556 H   0  0  0  0  0  0  0  0  0  0  0  0
  -22.0396   -2.8212   23.2809 H   0  0  0  0  0  0  0  0  0  0  0  0
  -22.4401  -11.9703   22.4008 H   0  0  0  0  0  0  0  0  0  0  0  0
  -21.1493  -13.0679   22.2082 H   0  0  0  0  0  0  0  0  0  0  0  0
  -24.6538  -15.7807   20.5848 H   0  0  0  0  0  0  0  0  0  0  0  0
  -26.2762  -15.5453   20.1156 H   0  0  0  0  0  0  0  0  0  0  0  0
  -26.6778  -32.4663   23.1464 H   0  0  0  0  0  0  0  0  0  0  0  0
  -25.0747  -34.0282   25.0566 H   0  0  0  0  0  0  0  0  0  0  0  0
  -22.7881  -31.3489   21.4131 H   0  0  0  0  0  0  0  0  0  0  0  0
  -23.3854  -35.9823   23.3648 H   0  0  0  0  0  0  0  0  0  0  0  0
  -24.3696  -36.8624   22.2204 H   0  0  0  0  0  0  0  0  0  0  0  0
  -23.7669  -37.6632   23.6516 H   0  0  0  0  0  0  0  0  0  0  0  0
  -25.9445  -31.6237   20.5691 H   0  0  0  0  0  0  0  0  0  0  0  0
  -26.7436  -31.0079   22.0108 H   0  0  0  0  0  0  0  0  0  0  0  0
  -28.0090  -29.1452   21.2057 H   0  0  0  0  0  0  0  0  0  0  0  0
  -26.1369  -26.0560   19.0719 H   0  0  0  0  0  0  0  0  0  0  0  0
  -24.0652  -27.2961   19.0997 H   0  0  0  0  0  0  0  0  0  0  0  0
  -23.6156  -30.5365   19.3930 H   0  0  0  0  0  0  0  0  0  0  0  0
  -22.7355  -29.1425   19.9945 H   0  0  0  0  0  0  0  0  0  0  0  0
  -25.1353  -36.2335   25.0565 H   0  0  0  0  0  0  0  0  0  0  0  0
  -21.0070  -28.3206   24.0793 H   0  0  0  0  0  0  0  0  0  0  0  0
  -20.5555  -26.2518   23.3550 H   0  0  0  0  0  0  0  0  0  0  0  0
  -21.5974  -26.8362   22.0454 H   0  0  0  0  0  0  0  0  0  0  0  0
  -19.6810  -25.6422   21.1488 H   0  0  0  0  0  0  0  0  0  0  0  0
  -19.6406  -27.3343   20.7034 H   0  0  0  0  0  0  0  0  0  0  0  0
  -17.4282  -26.6888   21.4113 H   0  0  0  0  0  0  0  0  0  0  0  0
  -18.0803  -26.0130   22.9049 H   0  0  0  0  0  0  0  0  0  0  0  0
  -19.7265  -30.6774   24.2204 H   0  0  0  0  0  0  0  0  0  0  0  0
  -17.5064  -31.5856   24.4483 H   0  0  0  0  0  0  0  0  0  0  0  0
  -15.5878  -30.2839   23.7407 H   0  0  0  0  0  0  0  0  0  0  0  0
  -15.9120  -28.0941   22.7766 H   0  0  0  0  0  0  0  0  0  0  0  0
  -24.5787  -30.7757   25.6817 H   0  0  0  0  0  0  0  0  0  0  0  0
  -25.0041  -32.2289   26.5536 H   0  0  0  0  0  0  0  0  0  0  0  0
  -25.8166  -30.7245   26.9138 H   0  0  0  0  0  0  0  0  0  0  0  0
  -26.2892  -29.7335   24.0803 H   0  0  0  0  0  0  0  0  0  0  0  0
  -27.4336  -29.7484   25.4006 H   0  0  0  0  0  0  0  0  0  0  0  0
  -27.8466  -30.4994   23.8779 H   0  0  0  0  0  0  0  0  0  0  0  0
  -27.2251  -33.3632   26.1242 H   0  0  0  0  0  0  0  0  0  0  0  0
  -28.3902  -32.6065   25.0645 H   0  0  0  0  0  0  0  0  0  0  0  0
  -27.9772  -31.8555   26.5872 H   0  0  0  0  0  0  0  0  0  0  0  0
  -28.2744  -38.0016   24.6863 H   0  0  0  0  0  0  0  0  0  0  0  0
  -28.0396  -36.2711   24.7461 H   0  0  0  0  0  0  0  0  0  0  0  0
  -27.1773  -37.3087   25.8564 H   0  0  0  0  0  0  0  0  0  0  0  0
  -20.9627  -29.9365   21.7352 H   0  0  0  0  0  0  0  0  0  0  0  0
  -26.0447  -38.2561   24.0273 H   0  0  0  0  0  0  0  0  0  0  0  0
  -31.7353  -21.1308   18.0365 H   0  0  0  0  0  0  0  0  0  0  0  0
  -28.3353  -21.8443   20.4029 H   0  0  0  0  0  0  0  0  0  0  0  0
  -30.9537  -18.8766   17.5928 H   0  0  0  0  0  0  0  0  0  0  0  0
  -27.5534  -19.5900   19.9589 H   0  0  0  0  0  0  0  0  0  0  0  0
  -32.3512  -25.0762   18.4979 H   0  0  0  0  0  0  0  0  0  0  0  0
  -33.2593  -24.8407   20.0150 H   0  0  0  0  0  0  0  0  0  0  0  0
  -31.6424  -26.6871   20.1146 H   0  0  0  0  0  0  0  0  0  0  0  0
  -31.3842  -25.4435   21.3080 H   0  0  0  0  0  0  0  0  0  0  0  0
  -28.6482  -23.7996   19.4299 H   0  0  0  0  0  0  0  0  0  0  0  0
  -29.4617  -23.8688   21.0182 H   0  0  0  0  0  0  0  0  0  0  0  0
  -29.9404  -25.6540   18.6737 H   0  0  0  0  0  0  0  0  0  0  0  0
  -27.9347  -17.2923   15.2173 H   0  0  0  0  0  0  0  0  0  0  0  0
  -27.8514  -18.7723   16.1423 H   0  0  0  0  0  0  0  0  0  0  0  0
  -26.8349  -17.4168   16.5693 H   0  0  0  0  0  0  0  0  0  0  0  0
  -29.5401  -27.1776   20.8198 H   0  0  0  0  0  0  0  0  0  0  0  0
  -28.4108  -25.7201   21.0152 H   0  0  0  0  0  0  0  0  0  0  0  0
  -29.8310  -17.4747   16.7355 H   0  0  0  0  0  0  0  0  0  0  0  0
  -28.7881  -16.1214   17.1730 H   0  0  0  0  0  0  0  0  0  0  0  0
  1 25  1  0
  1 30  2  0
  1 86  1  0
  2  3  1  0
  2 25  1  0
  2 88  1  0
  2 89  1  0
  3  4  1  0
  3 90  1  0
  3 91  1  0
  4  5  1  0
  4 92  1  0
  4 93  1  0
  5  6  1  0
  5 26  1  0
  5 94  1  6
  6 25  1  0
  6 95  1  0
  6 96  1  0
  7  8  2  0
  7 26  1  0
  7 29  1  0
  8  9  1  0
  8 22  1  0
  9 10  1  0
  9 27  2  0
 10 11  2  0
 10 15  1  0
 11 12  1  0
 11 97  1  0
 12 13  2  0
 12 98  1  0
 13 14  1  0
 13 31  1  0
 14 15  2  0
 14 99  1  0
 15100  1  0
 16 17  2  0
 16 21  1  0
 16 31  1  0
 17 18  1  0
 17101  1  0
 18 19  2  0
 18102  1  0
 19 20  1  0
 19 24  1  0
 20 21  2  0
 20103  1  0
 21 23  1  0
 22 28  1  0
 22 32  2  0
 26 27  1  0
 28104  1  0
 28105  1  0
 29106  1  0
 29107  1  0
 33 34  1  0
 33 66  1  0
 33 70  2  0
 34 36  1  0
 34 59  1  0
 34108  1  6
 35 44  2  0
 35 45  1  0
 35 68  1  0
 36 56  1  0
 36109  1  0
 37 39  1  0
 37 47  1  0
 37 66  1  0
 37110  1  6
 38 43  2  0
 38 46  1  0
 38 47  1  0
 39 64  1  0
 39 67  2  0
 40 52  1  0
 40 53  2  0
 40 58  1  0
 41111  1  0
 41112  1  0
 41113  1  0
 42 43  1  0
 42 66  1  0
 42114  1  0
 42115  1  0
 43 44  1  0
 44116  1  0
 45 46  2  0
 45117  1  0
 46118  1  0
 47119  1  0
 47120  1  0
 48 41  1  0
 48 56  1  0
 48 65  1  0
 48121  1  1
 49 50  1  0
 49 53  1  0
 49 64  1  0
 49122  1  1
 50 51  1  0
 50123  1  0
 50124  1  0
 51 52  1  0
 51125  1  0
 51126  1  0
 52127  1  0
 52128  1  0
 53 54  1  0
 54 55  2  0
 54129  1  0
 55 57  1  0
 55130  1  0
 56 69  2  0
 57 58  2  0
 57131  1  0
 58132  1  0
 59 60  1  0
 59 61  1  0
 59 62  1  0
 60133  1  0
 60134  1  0
 60135  1  0
 61136  1  0
 61137  1  0
 61138  1  0
 62139  1  0
 62140  1  0
 62141  1  0
 63 65  1  0
 63142  1  0
 63143  1  0
 63144  1  0
 64145  1  0
 65146  1  0
 68 83  1  0
 71 73  2  0
 71 75  1  0
 71147  1  0
 72 74  1  0
 72 75  2  0
 72148  1  0
 73 76  1  0
 73149  1  0
 74 76  2  0
 74150  1  0
 75 85  1  0
 76 86  1  0
 77 78  1  0
 77 85  1  0
 77 87  2  0
 78 79  1  0
 78151  1  0
 78152  1  0
 79 81  1  0
 79153  1  0
 79154  1  0
 80 81  1  0
 80 85  1  0
 80155  1  0
 80156  1  0
 81 83  1  0
 81157  1  6
 82 84  1  0
 82158  1  0
 82159  1  0
 82160  1  0
 83161  1  0
 83162  1  0
 84 86  1  0
 84163  1  0
 84164  1  0
M  ISO  4   1 100  68 101  83 101  86 100
M  END
$$$$
7
     RDKit          3D

153161  0  0  0  0  0  0  0  0999 V2000
  -30.7652  -14.3608   20.6636 C   0  0  0  0  0  0  0  0  0100  0  0
  -30.4392  -12.2669   19.3775 C   0  0  0  0  0  0  0  0  0101  0  0
  -29.4791  -12.5281   18.1977 C   0  0  0  0  0  0  0  0  0102  0  0
  -27.9985  -12.3963   18.6038 C   0  0  0  0  0  0  0  0  0103  0  0
  -27.6639  -13.2170   19.8820 C   0  0  2  0  0  0  0  0  0104  0  0
  -28.6795  -12.9602   21.0279 C   0  0  0  0  0  0  0  0  0105  0  0
  -25.2633  -13.8245   20.5754 C   0  0  0  0  0  0  0  0  0106  0  0
  -24.1645  -13.0409   20.9408 C   0  0  0  0  0  0  0  0  0107  0  0
  -24.6400  -11.7009   20.8697 C   0  0  0  0  0  0  0  0  0108  0  0
  -23.9005  -10.4085   21.0420 C   0  0  0  0  0  0  0  0  0109  0  0
  -24.3588   -9.4123   21.9123 C   0  0  0  0  0  0  0  0  0110  0  0
  -23.6296   -8.2350   22.0803 C   0  0  0  0  0  0  0  0  0111  0  0
  -22.4385   -8.0419   21.3657 C   0  0  0  0  0  0  0  0  0112  0  0
  -22.0103   -9.0167   20.4678 C   0  0  0  0  0  0  0  0  0113  0  0
  -22.7317  -10.1925   20.3102 C   0  0  0  0  0  0  0  0  0114  0  0
  -21.6857   -6.0709   22.5391 C   0  0  0  0  0  0  0  0  0115  0  0
  -21.4064   -6.5490   23.8264 C   0  0  0  0  0  0  0  0  0116  0  0
  -21.3635   -5.6677   24.9085 C   0  0  0  0  0  0  0  0  0117  0  0
  -21.5973   -4.3067   24.7088 C   0  0  0  0  0  0  0  0  0118  0  0
  -21.8700   -3.8284   23.4282 C   0  0  0  0  0  0  0  0  0119  0  0
  -21.9144   -4.7056   22.3460 C   0  0  0  0  0  0  0  0  0120  0  0
  -22.8194  -13.5263   21.1763 C   0  0  0  0  0  0  0  0  0121  0  0
  -22.1559   -4.2206   21.1063 F   0  0  0  0  0  0  0  0  0122  0  0
  -21.5628   -3.4510   25.7555 F   0  0  0  0  0  0  0  0  0123  0  0
  -30.0261  -13.1803   20.4553 N   0  0  0  0  0  0  0  0  0124  0  0
  -26.2911  -12.9356   20.3443 N   0  0  0  0  0  0  0  0  0125  0  0
  -25.9236  -11.6675   20.5847 N   0  0  0  0  0  0  0  0  0126  0  0
  -22.0708  -12.7905   22.0005 N   0  0  0  0  0  0  0  0  0127  0  0
  -25.4117  -15.1773   20.4097 N   0  0  0  0  0  0  0  0  0128  0  0
  -31.7916  -14.6724   20.0536 O   0  0  0  0  0  0  0  0  0129  0  0
  -21.6670   -6.9022   21.4423 O   0  0  0  0  0  0  0  0  0130  0  0
  -22.3946  -14.5564   20.6568 O   0  0  0  0  0  0  0  0  0131  0  0
  -24.6048  -31.8614   23.2223 C   0  0  0  0  0  0  0  0  0100  0  0
  -25.8822  -32.4841   23.8616 C   0  0  1  0  0  0  0  0  0101  0  0
  -27.2536  -27.5042   20.1156 C   0  0  0  0  0  0  0  0  0102  0  0
  -25.5726  -33.8762   24.2210 N   0  0  0  0  0  0  0  0  0103  0  0
  -23.4066  -30.4859   21.5461 C   0  0  2  0  0  0  0  0  0104  0  0
  -24.8467  -28.9636   20.1247 C   0  0  0  0  0  0  0  0  0105  0  0
  -22.7412  -29.4652   22.5052 C   0  0  0  0  0  0  0  0  0106  0  0
  -18.0167  -28.1302   22.8626 C   0  0  0  0  0  0  0  0  0107  0  0
  -24.1342  -36.7390   23.2568 C   0  0  0  0  0  0  0  0  0108  0  0
  -25.9141  -30.8882   21.3456 C   0  0  0  0  0  0  0  0  0109  0  0
  -25.9930  -29.5029   20.7208 C   0  0  0  0  0  0  0  0  0110  0  0
  -27.1758  -28.7612   20.7331 C   0  0  0  0  0  0  0  0  0111  0  0
  -26.1032  -26.9836   19.5230 C   0  0  0  0  0  0  0  0  0112  0  0
  -24.9097  -27.7011   19.5331 C   0  0  0  0  0  0  0  0  0113  0  0
  -23.5715  -29.7899   20.1582 C   0  0  0  0  0  0  0  0  0114  0  0
  -25.3990  -36.3212   24.0232 C   0  0  1  0  0  0  0  0  0115  0  0
  -20.5793  -28.3813   23.1004 C   0  0  2  0  0  0  0  0  0116  0  0
  -20.6548  -26.9392   22.5411 C   0  0  0  0  0  0  0  0  0117  0  0
  -19.5615  -26.6407   21.5143 C   0  0  0  0  0  0  0  0  0118  0  0
  -18.1797  -26.7818   22.1673 C   0  0  0  0  0  0  0  0  0119  0  0
  -19.1385  -28.8769   23.2988 C   0  0  0  0  0  0  0  0  0120  0  0
  -18.9183  -30.1286   23.8878 C   0  0  0  0  0  0  0  0  0121  0  0
  -17.6396  -30.6493   24.0352 C   0  0  0  0  0  0  0  0  0122  0  0
  -25.9153  -34.9582   23.4993 C   0  0  0  0  0  0  0  0  0123  0  0
  -16.5415  -29.9068   23.6254 C   0  0  0  0  0  0  0  0  0124  0  0
  -16.7331  -28.6521   23.0586 C   0  0  0  0  0  0  0  0  0125  0  0
  -26.4583  -31.6439   25.0683 C   0  0  0  0  0  0  0  0  0126  0  0
  -25.3807  -31.3179   26.1374 C   0  0  0  0  0  0  0  0  0127  0  0
  -27.0530  -30.3024   24.5680 C   0  0  0  0  0  0  0  0  0128  0  0
  -27.6014  -32.4281   25.7651 C   0  0  0  0  0  0  0  0  0129  0  0
  -27.5629  -37.2220   24.8621 C   0  0  0  0  0  0  0  0  0130  0  0
  -21.4133  -29.3375   22.3735 N   0  0  0  0  0  0  0  0  0131  0  0
  -26.4706  -37.3372   23.9061 N   0  0  0  0  0  0  0  0  0132  0  0
  -24.6674  -31.0544   22.1178 N   0  0  0  0  0  0  0  0  0133  0  0
  -23.4259  -28.8150   23.2971 O   0  0  0  0  0  0  0  0  0134  0  0
  -28.3948  -26.7345   20.0089 O   0  0  0  0  0  0  0  0  0135  0  0
  -26.5870  -34.9065   22.4671 O   0  0  0  0  0  0  0  0  0136  0  0
  -23.5365  -32.1254   23.7833 O   0  0  0  0  0  0  0  0  0137  0  0
  -30.0603  -19.4273   20.0400 C   0  0  0  0  0  0  0  0  0  0  0  0
  -29.4262  -20.6674   19.9646 C   0  0  0  0  0  0  0  0  0  0  0  0
  -28.6933  -18.8441   21.9448 C   0  0  0  0  0  0  0  0  0  0  0  0
  -29.6938  -18.5156   21.0301 C   0  0  0  0  0  0  0  0  0  0  0  0
  -28.4257  -20.9959   20.8794 C   0  0  0  0  0  0  0  0  0  0  0  0
  -28.0592  -20.0842   21.8695 C   0  0  0  0  0  0  0  0  0  0  0  0
  -28.0533  -23.2651   19.8566 C   0  0  0  0  0  0  0  0  0  0  0  0
  -30.3720  -17.1898   21.1102 C   0  0  0  0  0  0  0  0  0  0  0  0
  -27.1558  -24.4633   20.1043 C   0  0  0  0  0  0  0  0  0  1  0  0
  -27.0485  -20.3964   22.8063 N   0  0  0  0  0  0  0  0  0  0  0  0
  -27.7971  -22.2600   20.7830 N   0  0  0  0  0  0  0  0  0  0  0  0
  -29.5423  -16.1166   20.6095 N   0  0  0  0  0  0  0  0  0  0  0  0
  -28.8724  -23.2536   18.9436 O   0  0  0  0  0  0  0  0  0  0  0  0
  -31.4485  -12.4701   19.0860 H   0  0  0  0  0  0  0  0  0  0  0  0
  -30.3970  -11.2460   19.6950 H   0  0  0  0  0  0  0  0  0  0  0  0
  -29.6870  -11.8204   17.4226 H   0  0  0  0  0  0  0  0  0  0  0  0
  -29.6375  -13.5326   17.8649 H   0  0  0  0  0  0  0  0  0  0  0  0
  -27.7830  -11.3650   18.7904 H   0  0  0  0  0  0  0  0  0  0  0  0
  -27.4028  -12.7801   17.8021 H   0  0  0  0  0  0  0  0  0  0  0  0
  -27.7353  -14.2503   19.6136 H   0  0  0  0  0  0  0  0  0  0  0  0
  -28.5890  -11.9550   21.3832 H   0  0  0  0  0  0  0  0  0  0  0  0
  -28.5005  -13.6134   21.8562 H   0  0  0  0  0  0  0  0  0  0  0  0
  -25.2399   -9.5495   22.4318 H   0  0  0  0  0  0  0  0  0  0  0  0
  -23.9663   -7.5070   22.7297 H   0  0  0  0  0  0  0  0  0  0  0  0
  -21.1515   -8.8641   19.9162 H   0  0  0  0  0  0  0  0  0  0  0  0
  -22.4016  -10.9115   19.6476 H   0  0  0  0  0  0  0  0  0  0  0  0
  -21.2319   -7.5552   23.9750 H   0  0  0  0  0  0  0  0  0  0  0  0
  -21.1589   -6.0228   25.8556 H   0  0  0  0  0  0  0  0  0  0  0  0
  -22.0396   -2.8212   23.2809 H   0  0  0  0  0  0  0  0  0  0  0  0
  -22.4401  -11.9703   22.4008 H   0  0  0  0  0  0  0  0  0  0  0  0
  -21.1493  -13.0679   22.2082 H   0  0  0  0  0  0  0  0  0  0  0  0
  -24.6538  -15.7807   20.5848 H   0  0  0  0  0  0  0  0  0  0  0  0
  -26.2762  -15.5453   20.1156 H   0  0  0  0  0  0  0  0  0  0  0  0
  -26.6778  -32.4663   23.1464 H   0  0  0  0  0  0  0  0  0  0  0  0
  -25.0747  -34.0282   25.0566 H   0  0  0  0  0  0  0  0  0  0  0  0
  -22.7881  -31.3489   21.4131 H   0  0  0  0  0  0  0  0  0  0  0  0
  -23.3854  -35.9823   23.3648 H   0  0  0  0  0  0  0  0  0  0  0  0
  -24.3696  -36.8624   22.2204 H   0  0  0  0  0  0  0  0  0  0  0  0
  -23.7669  -37.6632   23.6516 H   0  0  0  0  0  0  0  0  0  0  0  0
  -25.9445  -31.6237   20.5691 H   0  0  0  0  0  0  0  0  0  0  0  0
  -26.7436  -31.0079   22.0108 H   0  0  0  0  0  0  0  0  0  0  0  0
  -28.0090  -29.1452   21.2057 H   0  0  0  0  0  0  0  0  0  0  0  0
  -26.1369  -26.0560   19.0719 H   0  0  0  0  0  0  0  0  0  0  0  0
  -24.0652  -27.2961   19.0997 H   0  0  0  0  0  0  0  0  0  0  0  0
  -23.6156  -30.5365   19.3930 H   0  0  0  0  0  0  0  0  0  0  0  0
  -22.7355  -29.1425   19.9945 H   0  0  0  0  0  0  0  0  0  0  0  0
  -25.1353  -36.2335   25.0565 H   0  0  0  0  0  0  0  0  0  0  0  0
  -21.0070  -28.3206   24.0793 H   0  0  0  0  0  0  0  0  0  0  0  0
  -20.5555  -26.2518   23.3550 H   0  0  0  0  0  0  0  0  0  0  0  0
  -21.5974  -26.8362   22.0454 H   0  0  0  0  0  0  0  0  0  0  0  0
  -19.6810  -25.6422   21.1488 H   0  0  0  0  0  0  0  0  0  0  0  0
  -19.6406  -27.3343   20.7034 H   0  0  0  0  0  0  0  0  0  0  0  0
  -17.4282  -26.6888   21.4113 H   0  0  0  0  0  0  0  0  0  0  0  0
  -18.0803  -26.0130   22.9049 H   0  0  0  0  0  0  0  0  0  0  0  0
  -19.7265  -30.6774   24.2204 H   0  0  0  0  0  0  0  0  0  0  0  0
  -17.5064  -31.5856   24.4483 H   0  0  0  0  0  0  0  0  0  0  0  0
  -15.5878  -30.2839   23.7407 H   0  0  0  0  0  0  0  0  0  0  0  0
  -15.9120  -28.0941   22.7766 H   0  0  0  0  0  0  0  0  0  0  0  0
  -24.5787  -30.7757   25.6817 H   0  0  0  0  0  0  0  0  0  0  0  0
  -25.0041  -32.2289   26.5536 H   0  0  0  0  0  0  0  0  0  0  0  0
  -25.8166  -30.7245   26.9138 H   0  0  0  0  0  0  0  0  0  0  0  0
  -26.2892  -29.7335   24.0803 H   0  0  0  0  0  0  0  0  0  0  0  0
  -27.4336  -29.7484   25.4006 H   0  0  0  0  0  0  0  0  0  0  0  0
  -27.8466  -30.4994   23.8779 H   0  0  0  0  0  0  0  0  0  0  0  0
  -27.2251  -33.3632   26.1242 H   0  0  0  0  0  0  0  0  0  0  0  0
  -28.3902  -32.6065   25.0645 H   0  0  0  0  0  0  0  0  0  0  0  0
  -27.9772  -31.8555   26.5872 H   0  0  0  0  0  0  0  0  0  0  0  0
  -28.2744  -38.0016   24.6863 H   0  0  0  0  0  0  0  0  0  0  0  0
  -28.0396  -36.2711   24.7461 H   0  0  0  0  0  0  0  0  0  0  0  0
  -27.1773  -37.3087   25.8564 H   0  0  0  0  0  0  0  0  0  0  0  0
  -20.9627  -29.9365   21.7352 H   0  0  0  0  0  0  0  0  0  0  0  0
  -26.0447  -38.2561   24.0273 H   0  0  0  0  0  0  0  0  0  0  0  0
  -30.8006  -19.1843   19.3633 H   0  0  0  0  0  0  0  0  0  0  0  0
  -29.6973  -21.3419   19.2320 H   0  0  0  0  0  0  0  0  0  0  0  0
  -28.4222  -18.1696   22.6773 H   0  0  0  0  0  0  0  0  0  0  0  0
  -30.6143  -16.9887   22.1328 H   0  0  0  0  0  0  0  0  0  0  0  0
  -31.2507  -17.2349   20.5014 H   0  0  0  0  0  0  0  0  0  0  0  0
  -26.7150  -24.3599   21.0738 H   0  0  0  0  0  0  0  0  0  0  0  0
  -26.4262  -24.4732   19.3217 H   0  0  0  0  0  0  0  0  0  0  0  0
  -26.8008  -19.7426   23.4994 H   0  0  0  0  0  0  0  0  0  0  0  0
  -26.5920  -21.2677   22.7659 H   0  0  0  0  0  0  0  0  0  0  0  0
  -27.0973  -22.4500   21.4489 H   0  0  0  0  0  0  0  0  0  0  0  0
  -28.6078  -16.1804   20.3063 H   0  0  0  0  0  0  0  0  0  0  0  0
  1 25  1  0
  1 30  2  0
  1 82  1  0
  2  3  1  0
  2 25  1  0
  2 84  1  0
  2 85  1  0
  3  4  1  0
  3 86  1  0
  3 87  1  0
  4  5  1  0
  4 88  1  0
  4 89  1  0
  5  6  1  0
  5 26  1  0
  5 90  1  6
  6 25  1  0
  6 91  1  0
  6 92  1  0
  7  8  2  0
  7 26  1  0
  7 29  1  0
  8  9  1  0
  8 22  1  0
  9 10  1  0
  9 27  2  0
 10 11  2  0
 10 15  1  0
 11 12  1  0
 11 93  1  0
 12 13  2  0
 12 94  1  0
 13 14  1  0
 13 31  1  0
 14 15  2  0
 14 95  1  0
 15 96  1  0
 16 17  2  0
 16 21  1  0
 16 31  1  0
 17 18  1  0
 17 97  1  0
 18 19  2  0
 18 98  1  0
 19 20  1  0
 19 24  1  0
 20 21  2  0
 20 99  1  0
 21 23  1  0
 22 28  1  0
 22 32  2  0
 26 27  1  0
 28100  1  0
 28101  1  0
 29102  1  0
 29103  1  0
 33 34  1  0
 33 66  1  0
 33 70  2  0
 34 36  1  0
 34 59  1  0
 34104  1  6
 35 44  2  0
 35 45  1  0
 35 68  1  0
 36 56  1  0
 36105  1  0
 37 39  1  0
 37 47  1  0
 37 66  1  0
 37106  1  6
 38 43  2  0
 38 46  1  0
 38 47  1  0
 39 64  1  0
 39 67  2  0
 40 52  1  0
 40 53  2  0
 40 58  1  0
 41107  1  0
 41108  1  0
 41109  1  0
 42 43  1  0
 42 66  1  0
 42110  1  0
 42111  1  0
 43 44  1  0
 44112  1  0
 45 46  2  0
 45113  1  0
 46114  1  0
 47115  1  0
 47116  1  0
 48 41  1  0
 48 56  1  0
 48 65  1  0
 48117  1  1
 49 50  1  0
 49 53  1  0
 49 64  1  0
 49118  1  1
 50 51  1  0
 50119  1  0
 50120  1  0
 51 52  1  0
 51121  1  0
 51122  1  0
 52123  1  0
 52124  1  0
 53 54  1  0
 54 55  2  0
 54125  1  0
 55 57  1  0
 55126  1  0
 56 69  2  0
 57 58  2  0
 57127  1  0
 58128  1  0
 59 60  1  0
 59 61  1  0
 59 62  1  0
 60129  1  0
 60130  1  0
 60131  1  0
 61132  1  0
 61133  1  0
 61134  1  0
 62135  1  0
 62136  1  0
 62137  1  0
 63 65  1  0
 63138  1  0
 63139  1  0
 63140  1  0
 64141  1  0
 65142  1  0
 68 79  1  0
 71 72  2  0
 71 74  1  0
 71143  1  0
 72 75  1  0
 72144  1  0
 73 74  2  0
 73 76  1  0
 73145  1  0
 74 78  1  0
 75 76  2  0
 75 81  1  0
 76 80  1  0
 77 79  1  0
 77 81  1  0
 77 83  2  0
 78 82  1  0
 78146  1  0
 78147  1  0
 79148  1  0
 79149  1  0
 80150  1  0
 80151  1  0
 81152  1  0
 82153  1  0
M  ISO  4   1 100  68 101  79 101  82 100
M  END
$$$$
8
     RDKit          3D

161170  0  0  0  0  0  0  0  0999 V2000
  -30.7652  -14.3608   20.6636 C   0  0  0  0  0  0  0  0  0100  0  0
  -30.4392  -12.2669   19.3775 C   0  0  0  0  0  0  0  0  0101  0  0
  -29.4791  -12.5281   18.1977 C   0  0  0  0  0  0  0  0  0102  0  0
  -27.9985  -12.3963   18.6038 C   0  0  0  0  0  0  0  0  0103  0  0
  -27.6639  -13.2170   19.8820 C   0  0  2  0  0  0  0  0  0104  0  0
  -28.6795  -12.9602   21.0279 C   0  0  0  0  0  0  0  0  0105  0  0
  -25.2633  -13.8245   20.5754 C   0  0  0  0  0  0  0  0  0106  0  0
  -24.1645  -13.0409   20.9408 C   0  0  0  0  0  0  0  0  0107  0  0
  -24.6400  -11.7009   20.8697 C   0  0  0  0  0  0  0  0  0108  0  0
  -23.9005  -10.4085   21.0420 C   0  0  0  0  0  0  0  0  0109  0  0
  -24.3588   -9.4123   21.9123 C   0  0  0  0  0  0  0  0  0110  0  0
  -23.6296   -8.2350   22.0803 C   0  0  0  0  0  0  0  0  0111  0  0
  -22.4385   -8.0419   21.3657 C   0  0  0  0  0  0  0  0  0112  0  0
  -22.0103   -9.0167   20.4678 C   0  0  0  0  0  0  0  0  0113  0  0
  -22.7317  -10.1925   20.3102 C   0  0  0  0  0  0  0  0  0114  0  0
  -21.6857   -6.0709   22.5391 C   0  0  0  0  0  0  0  0  0115  0  0
  -21.4064   -6.5490   23.8264 C   0  0  0  0  0  0  0  0  0116  0  0
  -21.3635   -5.6677   24.9085 C   0  0  0  0  0  0  0  0  0117  0  0
  -21.5973   -4.3067   24.7088 C   0  0  0  0  0  0  0  0  0118  0  0
  -21.8700   -3.8284   23.4282 C   0  0  0  0  0  0  0  0  0119  0  0
  -21.9144   -4.7056   22.3460 C   0  0  0  0  0  0  0  0  0120  0  0
  -22.8194  -13.5263   21.1763 C   0  0  0  0  0  0  0  0  0121  0  0
  -22.1559   -4.2206   21.1063 F   0  0  0  0  0  0  0  0  0122  0  0
  -21.5628   -3.4510   25.7555 F   0  0  0  0  0  0  0  0  0123  0  0
  -30.0261  -13.1803   20.4553 N   0  0  0  0  0  0  0  0  0124  0  0
  -26.2911  -12.9356   20.3443 N   0  0  0  0  0  0  0  0  0125  0  0
  -25.9236  -11.6675   20.5847 N   0  0  0  0  0  0  0  0  0126  0  0
  -22.0708  -12.7905   22.0005 N   0  0  0  0  0  0  0  0  0127  0  0
  -25.4117  -15.1773   20.4097 N   0  0  0  0  0  0  0  0  0128  0  0
  -31.7916  -14.6724   20.0536 O   0  0  0  0  0  0  0  0  0129  0  0
  -21.6670   -6.9022   21.4423 O   0  0  0  0  0  0  0  0  0130  0  0
  -22.3946  -14.5564   20.6568 O   0  0  0  0  0  0  0  0  0131  0  0
  -24.6048  -31.8614   23.2223 C   0  0  0  0  0  0  0  0  0100  0  0
  -25.8822  -32.4841   23.8616 C   0  0  1  0  0  0  0  0  0101  0  0
  -27.2536  -27.5042   20.1156 C   0  0  0  0  0  0  0  0  0102  0  0
  -25.5726  -33.8762   24.2210 N   0  0  0  0  0  0  0  0  0103  0  0
  -23.4066  -30.4859   21.5461 C   0  0  2  0  0  0  0  0  0104  0  0
  -24.8467  -28.9636   20.1247 C   0  0  0  0  0  0  0  0  0105  0  0
  -22.7412  -29.4652   22.5052 C   0  0  0  0  0  0  0  0  0106  0  0
  -18.0167  -28.1302   22.8626 C   0  0  0  0  0  0  0  0  0107  0  0
  -24.1342  -36.7390   23.2568 C   0  0  0  0  0  0  0  0  0108  0  0
  -25.9141  -30.8882   21.3456 C   0  0  0  0  0  0  0  0  0109  0  0
  -25.9930  -29.5029   20.7208 C   0  0  0  0  0  0  0  0  0110  0  0
  -27.1758  -28.7612   20.7331 C   0  0  0  0  0  0  0  0  0111  0  0
  -26.1032  -26.9836   19.5230 C   0  0  0  0  0  0  0  0  0112  0  0
  -24.9097  -27.7011   19.5331 C   0  0  0  0  0  0  0  0  0113  0  0
  -23.5715  -29.7899   20.1582 C   0  0  0  0  0  0  0  0  0114  0  0
  -25.3990  -36.3212   24.0232 C   0  0  1  0  0  0  0  0  0115  0  0
  -20.5793  -28.3813   23.1004 C   0  0  2  0  0  0  0  0  0116  0  0
  -20.6548  -26.9392   22.5411 C   0  0  0  0  0  0  0  0  0117  0  0
  -19.5615  -26.6407   21.5143 C   0  0  0  0  0  0  0  0  0118  0  0
  -18.1797  -26.7818   22.1673 C   0  0  0  0  0  0  0  0  0119  0  0
  -19.1385  -28.8769   23.2988 C   0  0  0  0  0  0  0  0  0120  0  0
  -18.9183  -30.1286   23.8878 C   0  0  0  0  0  0  0  0  0121  0  0
  -17.6396  -30.6493   24.0352 C   0  0  0  0  0  0  0  0  0122  0  0
  -25.9153  -34.9582   23.4993 C   0  0  0  0  0  0  0  0  0123  0  0
  -16.5415  -29.9068   23.6254 C   0  0  0  0  0  0  0  0  0124  0  0
  -16.7331  -28.6521   23.0586 C   0  0  0  0  0  0  0  0  0125  0  0
  -26.4583  -31.6439   25.0683 C   0  0  0  0  0  0  0  0  0126  0  0
  -25.3807  -31.3179   26.1374 C   0  0  0  0  0  0  0  0  0127  0  0
  -27.0530  -30.3024   24.5680 C   0  0  0  0  0  0  0  0  0128  0  0
  -27.6014  -32.4281   25.7651 C   0  0  0  0  0  0  0  0  0129  0  0
  -27.5629  -37.2220   24.8621 C   0  0  0  0  0  0  0  0  0130  0  0
  -21.4133  -29.3375   22.3735 N   0  0  0  0  0  0  0  0  0131  0  0
  -26.4706  -37.3372   23.9061 N   0  0  0  0  0  0  0  0  0132  0  0
  -24.6674  -31.0544   22.1178 N   0  0  0  0  0  0  0  0  0133  0  0
  -23.4259  -28.8150   23.2971 O   0  0  0  0  0  0  0  0  0134  0  0
  -28.3948  -26.7345   20.0089 O   0  0  0  0  0  0  0  0  0135  0  0
  -26.5870  -34.9065   22.4671 O   0  0  0  0  0  0  0  0  0136  0  0
  -23.5365  -32.1254   23.7833 O   0  0  0  0  0  0  0  0  0137  0  0
  -29.5240  -19.7056   18.8303 C   0  0  0  0  0  0  0  0  0  0  0  0
  -29.2753  -19.9658   21.5968 C   0  0  0  0  0  0  0  0  0  0  0  0
  -29.3437  -18.5728   19.6239 C   0  0  0  0  0  0  0  0  0  0  0  0
  -29.5801  -20.9686   19.4199 C   0  0  0  0  0  0  0  0  0  0  0  0
  -29.2193  -18.7029   21.0071 C   0  0  0  0  0  0  0  0  0  0  0  0
  -29.4557  -21.0987   20.8031 C   0  0  0  0  0  0  0  0  0  0  0  0
  -30.4888  -22.0670   17.3907 C   0  0  0  0  0  0  0  0  0  0  0  0
  -30.3654  -23.2546   16.4548 C   0  0  0  0  0  0  0  0  0  0  0  0
  -30.2449  -24.5908   17.1540 C   0  0  0  0  0  0  0  0  0  0  0  0
  -29.3623  -23.4408   19.1644 C   0  0  0  0  0  0  0  0  0  0  0  0
  -29.0822  -24.5308   18.1308 C   0  0  1  0  0  0  0  0  0  0  0  0
  -29.2877  -17.2324   18.9656 C   0  0  0  0  0  0  0  0  0  0  0  0
  -28.8672  -25.8812   18.8109 C   0  0  0  0  0  0  0  0  0  1  0  0
  -29.7676  -22.1428   18.5947 N   0  0  0  0  0  0  0  0  0  0  0  0
  -29.0364  -17.5646   21.8309 N   0  0  0  0  0  0  0  0  0  0  0  0
  -31.1563  -21.0996   17.0148 O   0  0  0  0  0  0  0  0  0  0  0  0
  -29.5074  -22.3079   21.3796 F   0  0  0  0  0  0  0  0  0  0  0  0
  -31.4485  -12.4701   19.0860 H   0  0  0  0  0  0  0  0  0  0  0  0
  -30.3970  -11.2460   19.6950 H   0  0  0  0  0  0  0  0  0  0  0  0
  -29.6870  -11.8204   17.4226 H   0  0  0  0  0  0  0  0  0  0  0  0
  -29.6375  -13.5326   17.8649 H   0  0  0  0  0  0  0  0  0  0  0  0
  -27.7830  -11.3650   18.7904 H   0  0  0  0  0  0  0  0  0  0  0  0
  -27.4028  -12.7801   17.8021 H   0  0  0  0  0  0  0  0  0  0  0  0
  -27.7353  -14.2503   19.6136 H   0  0  0  0  0  0  0  0  0  0  0  0
  -28.5890  -11.9550   21.3832 H   0  0  0  0  0  0  0  0  0  0  0  0
  -28.5005  -13.6134   21.8562 H   0  0  0  0  0  0  0  0  0  0  0  0
  -25.2399   -9.5495   22.4318 H   0  0  0  0  0  0  0  0  0  0  0  0
  -23.9663   -7.5070   22.7297 H   0  0  0  0  0  0  0  0  0  0  0  0
  -21.1515   -8.8641   19.9162 H   0  0  0  0  0  0  0  0  0  0  0  0
  -22.4016  -10.9115   19.6476 H   0  0  0  0  0  0  0  0  0  0  0  0
  -21.2319   -7.5552   23.9750 H   0  0  0  0  0  0  0  0  0  0  0  0
  -21.1589   -6.0228   25.8556 H   0  0  0  0  0  0  0  0  0  0  0  0
  -22.0396   -2.8212   23.2809 H   0  0  0  0  0  0  0  0  0  0  0  0
  -22.4401  -11.9703   22.4008 H   0  0  0  0  0  0  0  0  0  0  0  0
  -21.1493  -13.0679   22.2082 H   0  0  0  0  0  0  0  0  0  0  0  0
  -24.6538  -15.7807   20.5848 H   0  0  0  0  0  0  0  0  0  0  0  0
  -26.2762  -15.5453   20.1156 H   0  0  0  0  0  0  0  0  0  0  0  0
  -26.6778  -32.4663   23.1464 H   0  0  0  0  0  0  0  0  0  0  0  0
  -25.0747  -34.0282   25.0566 H   0  0  0  0  0  0  0  0  0  0  0  0
  -22.7881  -31.3489   21.4131 H   0  0  0  0  0  0  0  0  0  0  0  0
  -23.3854  -35.9823   23.3648 H   0  0  0  0  0  0  0  0  0  0  0  0
  -24.3696  -36.8624   22.2204 H   0  0  0  0  0  0  0  0  0  0  0  0
  -23.7669  -37.6632   23.6516 H   0  0  0  0  0  0  0  0  0  0  0  0
  -25.9445  -31.6237   20.5691 H   0  0  0  0  0  0  0  0  0  0  0  0
  -26.7436  -31.0079   22.0108 H   0  0  0  0  0  0  0  0  0  0  0  0
  -28.0090  -29.1452   21.2057 H   0  0  0  0  0  0  0  0  0  0  0  0
  -26.1369  -26.0560   19.0719 H   0  0  0  0  0  0  0  0  0  0  0  0
  -24.0652  -27.2961   19.0997 H   0  0  0  0  0  0  0  0  0  0  0  0
  -23.6156  -30.5365   19.3930 H   0  0  0  0  0  0  0  0  0  0  0  0
  -22.7355  -29.1425   19.9945 H   0  0  0  0  0  0  0  0  0  0  0  0
  -25.1353  -36.2335   25.0565 H   0  0  0  0  0  0  0  0  0  0  0  0
  -21.0070  -28.3206   24.0793 H   0  0  0  0  0  0  0  0  0  0  0  0
  -20.5555  -26.2518   23.3550 H   0  0  0  0  0  0  0  0  0  0  0  0
  -21.5974  -26.8362   22.0454 H   0  0  0  0  0  0  0  0  0  0  0  0
  -19.6810  -25.6422   21.1488 H   0  0  0  0  0  0  0  0  0  0  0  0
  -19.6406  -27.3343   20.7034 H   0  0  0  0  0  0  0  0  0  0  0  0
  -17.4282  -26.6888   21.4113 H   0  0  0  0  0  0  0  0  0  0  0  0
  -18.0803  -26.0130   22.9049 H   0  0  0  0  0  0  0  0  0  0  0  0
  -19.7265  -30.6774   24.2204 H   0  0  0  0  0  0  0  0  0  0  0  0
  -17.5064  -31.5856   24.4483 H   0  0  0  0  0  0  0  0  0  0  0  0
  -15.5878  -30.2839   23.7407 H   0  0  0  0  0  0  0  0  0  0  0  0
  -15.9120  -28.0941   22.7766 H   0  0  0  0  0  0  0  0  0  0  0  0
  -24.5787  -30.7757   25.6817 H   0  0  0  0  0  0  0  0  0  0  0  0
  -25.0041  -32.2289   26.5536 H   0  0  0  0  0  0  0  0  0  0  0  0
  -25.8166  -30.7245   26.9138 H   0  0  0  0  0  0  0  0  0  0  0  0
  -26.2892  -29.7335   24.0803 H   0  0  0  0  0  0  0  0  0  0  0  0
  -27.4336  -29.7484   25.4006 H   0  0  0  0  0  0  0  0  0  0  0  0
  -27.8466  -30.4994   23.8779 H   0  0  0  0  0  0  0  0  0  0  0  0
  -27.2251  -33.3632   26.1242 H   0  0  0  0  0  0  0  0  0  0  0  0
  -28.3902  -32.6065   25.0645 H   0  0  0  0  0  0  0  0  0  0  0  0
  -27.9772  -31.8555   26.5872 H   0  0  0  0  0  0  0  0  0  0  0  0
  -28.2744  -38.0016   24.6863 H   0  0  0  0  0  0  0  0  0  0  0  0
  -28.0396  -36.2711   24.7461 H   0  0  0  0  0  0  0  0  0  0  0  0
  -27.1773  -37.3087   25.8564 H   0  0  0  0  0  0  0  0  0  0  0  0
  -20.9627  -29.9365   21.7352 H   0  0  0  0  0  0  0  0  0  0  0  0
  -26.0447  -38.2561   24.0273 H   0  0  0  0  0  0  0  0  0  0  0  0
  -29.6159  -19.6094   17.8069 H   0  0  0  0  0  0  0  0  0  0  0  0
  -29.1833  -20.0620   22.6202 H   0  0  0  0  0  0  0  0  0  0  0  0
  -29.4948  -23.1142   15.8488 H   0  0  0  0  0  0  0  0  0  0  0  0
  -31.2697  -23.2889   15.8838 H   0  0  0  0  0  0  0  0  0  0  0  0
  -30.0679  -25.3599   16.4314 H   0  0  0  0  0  0  0  0  0  0  0  0
  -31.1507  -24.8079   17.6807 H   0  0  0  0  0  0  0  0  0  0  0  0
  -28.4725  -23.2896   19.7391 H   0  0  0  0  0  0  0  0  0  0  0  0
  -30.1882  -23.7850   19.7512 H   0  0  0  0  0  0  0  0  0  0  0  0
  -28.1842  -24.2969   17.5982 H   0  0  0  0  0  0  0  0  0  0  0  0
  -29.4023  -17.3493   17.9082 H   0  0  0  0  0  0  0  0  0  0  0  0
  -28.3444  -16.7721   19.1734 H   0  0  0  0  0  0  0  0  0  0  0  0
  -30.0763  -16.6160   19.3438 H   0  0  0  0  0  0  0  0  0  0  0  0
  -28.2736  -26.3433   18.0500 H   0  0  0  0  0  0  0  0  0  0  0  0
  -29.8059  -25.7508   19.3077 H   0  0  0  0  0  0  0  0  0  0  0  0
  -28.4969  -17.5968   22.6538 H   0  0  0  0  0  0  0  0  0  0  0  0
  1 25  1  0
  1 30  2  0
  1 85  1  0
  2  3  1  0
  2 25  1  0
  2 88  1  0
  2 89  1  0
  3  4  1  0
  3 90  1  0
  3 91  1  0
  4  5  1  0
  4 92  1  0
  4 93  1  0
  5  6  1  0
  5 26  1  0
  5 94  1  6
  6 25  1  0
  6 95  1  0
  6 96  1  0
  7  8  2  0
  7 26  1  0
  7 29  1  0
  8  9  1  0
  8 22  1  0
  9 10  1  0
  9 27  2  0
 10 11  2  0
 10 15  1  0
 11 12  1  0
 11 97  1  0
 12 13  2  0
 12 98  1  0
 13 14  1  0
 13 31  1  0
 14 15  2  0
 14 99  1  0
 15100  1  0
 16 17  2  0
 16 21  1  0
 16 31  1  0
 17 18  1  0
 17101  1  0
 18 19  2  0
 18102  1  0
 19 20  1  0
 19 24  1  0
 20 21  2  0
 20103  1  0
 21 23  1  0
 22 28  1  0
 22 32  2  0
 26 27  1  0
 28104  1  0
 28105  1  0
 29106  1  0
 29107  1  0
 33 34  1  0
 33 66  1  0
 33 70  2  0
 34 36  1  0
 34 59  1  0
 34108  1  6
 35 44  2  0
 35 45  1  0
 35 68  1  0
 36 56  1  0
 36109  1  0
 37 39  1  0
 37 47  1  0
 37 66  1  0
 37110  1  6
 38 43  2  0
 38 46  1  0
 38 47  1  0
 39 64  1  0
 39 67  2  0
 40 52  1  0
 40 53  2  0
 40 58  1  0
 41111  1  0
 41112  1  0
 41113  1  0
 42 43  1  0
 42 66  1  0
 42114  1  0
 42115  1  0
 43 44  1  0
 44116  1  0
 45 46  2  0
 45117  1  0
 46118  1  0
 47119  1  0
 47120  1  0
 48 41  1  0
 48 56  1  0
 48 65  1  0
 48121  1  1
 49 50  1  0
 49 53  1  0
 49 64  1  0
 49122  1  1
 50 51  1  0
 50123  1  0
 50124  1  0
 51 52  1  0
 51125  1  0
 51126  1  0
 52127  1  0
 52128  1  0
 53 54  1  0
 54 55  2  0
 54129  1  0
 55 57  1  0
 55130  1  0
 56 69  2  0
 57 58  2  0
 57131  1  0
 58132  1  0
 59 60  1  0
 59 61  1  0
 59 62  1  0
 60133  1  0
 60134  1  0
 60135  1  0
 61136  1  0
 61137  1  0
 61138  1  0
 62139  1  0
 62140  1  0
 62141  1  0
 63 65  1  0
 63142  1  0
 63143  1  0
 63144  1  0
 64145  1  0
 65146  1  0
 68 83  1  0
 71 73  2  0
 71 74  1  0
 71147  1  0
 72 75  2  0
 72 76  1  0
 72148  1  0
 73 75  1  0
 73 82  1  0
 74 76  2  0
 74 84  1  0
 75 85  1  0
 76 87  1  0
 77 78  1  0
 77 84  1  0
 77 86  2  0
 78 79  1  0
 78149  1  0
 78150  1  0
 79 81  1  0
 79151  1  0
 79152  1  0
 80 81  1  0
 80 84  1  0
 80153  1  0
 80154  1  0
 81 83  1  0
 81155  1  6
 82156  1  0
 82157  1  0
 82158  1  0
 83159  1  0
 83160  1  0
 85161  1  0
M  ISO  4   1 100  68 101  83 101  85 100
M  END
$$$$
9
     RDKit          3D

167175  0  0  0  0  0  0  0  0999 V2000
  -30.7652  -14.3608   20.6636 C   0  0  0  0  0  0  0  0  0100  0  0
  -30.4392  -12.2669   19.3775 C   0  0  0  0  0  0  0  0  0101  0  0
  -29.4791  -12.5281   18.1977 C   0  0  0  0  0  0  0  0  0102  0  0
  -27.9985  -12.3963   18.6038 C   0  0  0  0  0  0  0  0  0103  0  0
  -27.6639  -13.2170   19.8820 C   0  0  2  0  0  0  0  0  0104  0  0
  -28.6795  -12.9602   21.0279 C   0  0  0  0  0  0  0  0  0105  0  0
  -25.2633  -13.8245   20.5754 C   0  0  0  0  0  0  0  0  0106  0  0
  -24.1645  -13.0409   20.9408 C   0  0  0  0  0  0  0  0  0107  0  0
  -24.6400  -11.7009   20.8697 C   0  0  0  0  0  0  0  0  0108  0  0
  -23.9005  -10.4085   21.0420 C   0  0  0  0  0  0  0  0  0109  0  0
  -24.3588   -9.4123   21.9123 C   0  0  0  0  0  0  0  0  0110  0  0
  -23.6296   -8.2350   22.0803 C   0  0  0  0  0  0  0  0  0111  0  0
  -22.4385   -8.0419   21.3657 C   0  0  0  0  0  0  0  0  0112  0  0
  -22.0103   -9.0167   20.4678 C   0  0  0  0  0  0  0  0  0113  0  0
  -22.7317  -10.1925   20.3102 C   0  0  0  0  0  0  0  0  0114  0  0
  -21.6857   -6.0709   22.5391 C   0  0  0  0  0  0  0  0  0115  0  0
  -21.4064   -6.5490   23.8264 C   0  0  0  0  0  0  0  0  0116  0  0
  -21.3635   -5.6677   24.9085 C   0  0  0  0  0  0  0  0  0117  0  0
  -21.5973   -4.3067   24.7088 C   0  0  0  0  0  0  0  0  0118  0  0
  -21.8700   -3.8284   23.4282 C   0  0  0  0  0  0  0  0  0119  0  0
  -21.9144   -4.7056   22.3460 C   0  0  0  0  0  0  0  0  0120  0  0
  -22.8194  -13.5263   21.1763 C   0  0  0  0  0  0  0  0  0121  0  0
  -22.1559   -4.2206   21.1063 F   0  0  0  0  0  0  0  0  0122  0  0
  -21.5628   -3.4510   25.7555 F   0  0  0  0  0  0  0  0  0123  0  0
  -30.0261  -13.1803   20.4553 N   0  0  0  0  0  0  0  0  0124  0  0
  -26.2911  -12.9356   20.3443 N   0  0  0  0  0  0  0  0  0125  0  0
  -25.9236  -11.6675   20.5847 N   0  0  0  0  0  0  0  0  0126  0  0
  -22.0708  -12.7905   22.0005 N   0  0  0  0  0  0  0  0  0127  0  0
  -25.4117  -15.1773   20.4097 N   0  0  0  0  0  0  0  0  0128  0  0
  -31.7916  -14.6724   20.0536 O   0  0  0  0  0  0  0  0  0129  0  0
  -21.6670   -6.9022   21.4423 O   0  0  0  0  0  0  0  0  0130  0  0
  -22.3946  -14.5564   20.6568 O   0  0  0  0  0  0  0  0  0131  0  0
  -24.6048  -31.8614   23.2223 C   0  0  0  0  0  0  0  0  0100  0  0
  -25.8822  -32.4841   23.8616 C   0  0  1  0  0  0  0  0  0101  0  0
  -27.2536  -27.5042   20.1156 C   0  0  0  0  0  0  0  0  0102  0  0
  -25.5726  -33.8762   24.2210 N   0  0  0  0  0  0  0  0  0103  0  0
  -23.4066  -30.4859   21.5461 C   0  0  2  0  0  0  0  0  0104  0  0
  -24.8467  -28.9636   20.1247 C   0  0  0  0  0  0  0  0  0105  0  0
  -22.7412  -29.4652   22.5052 C   0  0  0  0  0  0  0  0  0106  0  0
  -18.0167  -28.1302   22.8626 C   0  0  0  0  0  0  0  0  0107  0  0
  -24.1342  -36.7390   23.2568 C   0  0  0  0  0  0  0  0  0108  0  0
  -25.9141  -30.8882   21.3456 C   0  0  0  0  0  0  0  0  0109  0  0
  -25.9930  -29.5029   20.7208 C   0  0  0  0  0  0  0  0  0110  0  0
  -27.1758  -28.7612   20.7331 C   0  0  0  0  0  0  0  0  0111  0  0
  -26.1032  -26.9836   19.5230 C   0  0  0  0  0  0  0  0  0112  0  0
  -24.9097  -27.7011   19.5331 C   0  0  0  0  0  0  0  0  0113  0  0
  -23.5715  -29.7899   20.1582 C   0  0  0  0  0  0  0  0  0114  0  0
  -25.3990  -36.3212   24.0232 C   0  0  1  0  0  0  0  0  0115  0  0
  -20.5793  -28.3813   23.1004 C   0  0  2  0  0  0  0  0  0116  0  0
  -20.6548  -26.9392   22.5411 C   0  0  0  0  0  0  0  0  0117  0  0
  -19.5615  -26.6407   21.5143 C   0  0  0  0  0  0  0  0  0118  0  0
  -18.1797  -26.7818   22.1673 C   0  0  0  0  0  0  0  0  0119  0  0
  -19.1385  -28.8769   23.2988 C   0  0  0  0  0  0  0  0  0120  0  0
  -18.9183  -30.1286   23.8878 C   0  0  0  0  0  0  0  0  0121  0  0
  -17.6396  -30.6493   24.0352 C   0  0  0  0  0  0  0  0  0122  0  0
  -25.9153  -34.9582   23.4993 C   0  0  0  0  0  0  0  0  0123  0  0
  -16.5415  -29.9068   23.6254 C   0  0  0  0  0  0  0  0  0124  0  0
  -16.7331  -28.6521   23.0586 C   0  0  0  0  0  0  0  0  0125  0  0
  -26.4583  -31.6439   25.0683 C   0  0  0  0  0  0  0  0  0126  0  0
  -25.3807  -31.3179   26.1374 C   0  0  0  0  0  0  0  0  0127  0  0
  -27.0530  -30.3024   24.5680 C   0  0  0  0  0  0  0  0  0128  0  0
  -27.6014  -32.4281   25.7651 C   0  0  0  0  0  0  0  0  0129  0  0
  -27.5629  -37.2220   24.8621 C   0  0  0  0  0  0  0  0  0130  0  0
  -21.4133  -29.3375   22.3735 N   0  0  0  0  0  0  0  0  0131  0  0
  -26.4706  -37.3372   23.9061 N   0  0  0  0  0  0  0  0  0132  0  0
  -24.6674  -31.0544   22.1178 N   0  0  0  0  0  0  0  0  0133  0  0
  -23.4259  -28.8150   23.2971 O   0  0  0  0  0  0  0  0  0134  0  0
  -28.3948  -26.7345   20.0089 O   0  0  0  0  0  0  0  0  0135  0  0
  -26.5870  -34.9065   22.4671 O   0  0  0  0  0  0  0  0  0136  0  0
  -23.5365  -32.1254   23.7833 O   0  0  0  0  0  0  0  0  0137  0  0
  -31.7163  -22.9570   20.0855 C   0  0  0  0  0  0  0  0  0  0  0  0
  -31.4365  -24.2590   20.5003 C   0  0  0  0  0  0  0  0  0  0  0  0
  -29.1152  -23.6629   20.8060 C   0  0  0  0  0  0  0  0  0  0  0  0
  -30.6955  -22.0079   20.0309 C   0  0  0  0  0  0  0  0  0  0  0  0
  -29.3950  -22.3609   20.3911 C   0  0  0  0  0  0  0  0  0  0  0  0
  -30.1360  -24.6120   20.8605 C   0  0  0  0  0  0  0  0  0  0  0  0
  -30.9880  -17.3233   21.3406 C   0  0  0  0  0  0  0  0  0  0  0  0
  -32.8821  -19.8852   21.1140 C   0  0  0  0  0  0  0  0  0  0  0  0
  -28.2857  -21.3621   20.3392 C   0  0  0  0  0  0  0  0  0  0  0  0
  -31.0191  -20.6207   19.5825 C   0  0  0  0  0  0  0  0  0  0  0  0
  -30.8624  -15.9501   20.7224 C   0  0  0  0  0  0  0  0  0  0  0  0
  -30.8542  -26.9487   21.3602 C   0  0  0  0  0  0  0  0  0  0  0  0
  -30.2177  -28.2469   21.8277 C   0  0  0  0  0  0  0  0  0  1  0  0
  -31.4214  -19.6858   20.7372 C   0  0  1  0  0  0  0  0  0  0  0  0
  -33.0559  -20.8461   22.0879 N   0  0  0  0  0  0  0  0  0  0  0  0
  -29.8589  -25.9047   21.2733 N   0  0  0  0  0  0  0  0  0  0  0  0
  -31.2589  -18.2968   20.3894 N   0  0  0  0  0  0  0  0  0  0  0  0
  -30.8607  -17.5293   22.5448 O   0  0  0  0  0  0  0  0  0  0  0  0
  -33.8136  -19.2890   20.5786 O   0  0  0  0  0  0  0  0  0  0  0  0
  -31.4485  -12.4701   19.0860 H   0  0  0  0  0  0  0  0  0  0  0  0
  -30.3970  -11.2460   19.6950 H   0  0  0  0  0  0  0  0  0  0  0  0
  -29.6870  -11.8204   17.4226 H   0  0  0  0  0  0  0  0  0  0  0  0
  -29.6375  -13.5326   17.8649 H   0  0  0  0  0  0  0  0  0  0  0  0
  -27.7830  -11.3650   18.7904 H   0  0  0  0  0  0  0  0  0  0  0  0
  -27.4028  -12.7801   17.8021 H   0  0  0  0  0  0  0  0  0  0  0  0
  -27.7353  -14.2503   19.6136 H   0  0  0  0  0  0  0  0  0  0  0  0
  -28.5890  -11.9550   21.3832 H   0  0  0  0  0  0  0  0  0  0  0  0
  -28.5005  -13.6134   21.8562 H   0  0  0  0  0  0  0  0  0  0  0  0
  -25.2399   -9.5495   22.4318 H   0  0  0  0  0  0  0  0  0  0  0  0
  -23.9663   -7.5070   22.7297 H   0  0  0  0  0  0  0  0  0  0  0  0
  -21.1515   -8.8641   19.9162 H   0  0  0  0  0  0  0  0  0  0  0  0
  -22.4016  -10.9115   19.6476 H   0  0  0  0  0  0  0  0  0  0  0  0
  -21.2319   -7.5552   23.9750 H   0  0  0  0  0  0  0  0  0  0  0  0
  -21.1589   -6.0228   25.8556 H   0  0  0  0  0  0  0  0  0  0  0  0
  -22.0396   -2.8212   23.2809 H   0  0  0  0  0  0  0  0  0  0  0  0
  -22.4401  -11.9703   22.4008 H   0  0  0  0  0  0  0  0  0  0  0  0
  -21.1493  -13.0679   22.2082 H   0  0  0  0  0  0  0  0  0  0  0  0
  -24.6538  -15.7807   20.5848 H   0  0  0  0  0  0  0  0  0  0  0  0
  -26.2762  -15.5453   20.1156 H   0  0  0  0  0  0  0  0  0  0  0  0
  -26.6778  -32.4663   23.1464 H   0  0  0  0  0  0  0  0  0  0  0  0
  -25.0747  -34.0282   25.0566 H   0  0  0  0  0  0  0  0  0  0  0  0
  -22.7881  -31.3489   21.4131 H   0  0  0  0  0  0  0  0  0  0  0  0
  -23.3854  -35.9823   23.3648 H   0  0  0  0  0  0  0  0  0  0  0  0
  -24.3696  -36.8624   22.2204 H   0  0  0  0  0  0  0  0  0  0  0  0
  -23.7669  -37.6632   23.6516 H   0  0  0  0  0  0  0  0  0  0  0  0
  -25.9445  -31.6237   20.5691 H   0  0  0  0  0  0  0  0  0  0  0  0
  -26.7436  -31.0079   22.0108 H   0  0  0  0  0  0  0  0  0  0  0  0
  -28.0090  -29.1452   21.2057 H   0  0  0  0  0  0  0  0  0  0  0  0
  -26.1369  -26.0560   19.0719 H   0  0  0  0  0  0  0  0  0  0  0  0
  -24.0652  -27.2961   19.0997 H   0  0  0  0  0  0  0  0  0  0  0  0
  -23.6156  -30.5365   19.3930 H   0  0  0  0  0  0  0  0  0  0  0  0
  -22.7355  -29.1425   19.9945 H   0  0  0  0  0  0  0  0  0  0  0  0
  -25.1353  -36.2335   25.0565 H   0  0  0  0  0  0  0  0  0  0  0  0
  -21.0070  -28.3206   24.0793 H   0  0  0  0  0  0  0  0  0  0  0  0
  -20.5555  -26.2518   23.3550 H   0  0  0  0  0  0  0  0  0  0  0  0
  -21.5974  -26.8362   22.0454 H   0  0  0  0  0  0  0  0  0  0  0  0
  -19.6810  -25.6422   21.1488 H   0  0  0  0  0  0  0  0  0  0  0  0
  -19.6406  -27.3343   20.7034 H   0  0  0  0  0  0  0  0  0  0  0  0
  -17.4282  -26.6888   21.4113 H   0  0  0  0  0  0  0  0  0  0  0  0
  -18.0803  -26.0130   22.9049 H   0  0  0  0  0  0  0  0  0  0  0  0
  -19.7265  -30.6774   24.2204 H   0  0  0  0  0  0  0  0  0  0  0  0
  -17.5064  -31.5856   24.4483 H   0  0  0  0  0  0  0  0  0  0  0  0
  -15.5878  -30.2839   23.7407 H   0  0  0  0  0  0  0  0  0  0  0  0
  -15.9120  -28.0941   22.7766 H   0  0  0  0  0  0  0  0  0  0  0  0
  -24.5787  -30.7757   25.6817 H   0  0  0  0  0  0  0  0  0  0  0  0
  -25.0041  -32.2289   26.5536 H   0  0  0  0  0  0  0  0  0  0  0  0
  -25.8166  -30.7245   26.9138 H   0  0  0  0  0  0  0  0  0  0  0  0
  -26.2892  -29.7335   24.0803 H   0  0  0  0  0  0  0  0  0  0  0  0
  -27.4336  -29.7484   25.4006 H   0  0  0  0  0  0  0  0  0  0  0  0
  -27.8466  -30.4994   23.8779 H   0  0  0  0  0  0  0  0  0  0  0  0
  -27.2251  -33.3632   26.1242 H   0  0  0  0  0  0  0  0  0  0  0  0
  -28.3902  -32.6065   25.0645 H   0  0  0  0  0  0  0  0  0  0  0  0
  -27.9772  -31.8555   26.5872 H   0  0  0  0  0  0  0  0  0  0  0  0
  -28.2744  -38.0016   24.6863 H   0  0  0  0  0  0  0  0  0  0  0  0
  -28.0396  -36.2711   24.7461 H   0  0  0  0  0  0  0  0  0  0  0  0
  -27.1773  -37.3087   25.8564 H   0  0  0  0  0  0  0  0  0  0  0  0
  -20.9627  -29.9365   21.7352 H   0  0  0  0  0  0  0  0  0  0  0  0
  -26.0447  -38.2561   24.0273 H   0  0  0  0  0  0  0  0  0  0  0  0
  -32.6785  -22.6959   19.8190 H   0  0  0  0  0  0  0  0  0  0  0  0
  -32.1917  -24.9612   20.5407 H   0  0  0  0  0  0  0  0  0  0  0  0
  -28.1530  -23.9240   21.0726 H   0  0  0  0  0  0  0  0  0  0  0  0
  -27.3734  -21.8258   20.6516 H   0  0  0  0  0  0  0  0  0  0  0  0
  -28.5115  -20.5441   20.9910 H   0  0  0  0  0  0  0  0  0  0  0  0
  -28.1776  -21.0009   19.3378 H   0  0  0  0  0  0  0  0  0  0  0  0
  -31.8304  -20.6693   18.8865 H   0  0  0  0  0  0  0  0  0  0  0  0
  -30.1327  -20.2155   19.1409 H   0  0  0  0  0  0  0  0  0  0  0  0
  -31.6966  -16.0423   20.0587 H   0  0  0  0  0  0  0  0  0  0  0  0
  -29.8402  -15.9534   21.0387 H   0  0  0  0  0  0  0  0  0  0  0  0
  -31.6123  -26.6565   22.0565 H   0  0  0  0  0  0  0  0  0  0  0  0
  -31.2843  -27.1008   20.3923 H   0  0  0  0  0  0  0  0  0  0  0  0
  -30.6313  -29.1713   21.4823 H   0  0  0  0  0  0  0  0  0  0  0  0
  -30.0631  -28.6408   22.8105 H   0  0  0  0  0  0  0  0  0  0  0  0
  -30.7774  -19.9336   21.5550 H   0  0  0  0  0  0  0  0  0  0  0  0
  -32.2731  -21.2931   22.4837 H   0  0  0  0  0  0  0  0  0  0  0  0
  -33.9628  -21.0851   22.3873 H   0  0  0  0  0  0  0  0  0  0  0  0
  -28.9319  -26.1246   21.5214 H   0  0  0  0  0  0  0  0  0  0  0  0
  -31.3429  -18.0296   19.4456 H   0  0  0  0  0  0  0  0  0  0  0  0
  1 25  1  0
  1 30  2  0
  1 81  1  0
  2  3  1  0
  2 25  1  0
  2 90  1  0
  2 91  1  0
  3  4  1  0
  3 92  1  0
  3 93  1  0
  4  5  1  0
  4 94  1  0
  4 95  1  0
  5  6  1  0
  5 26  1  0
  5 96  1  6
  6 25  1  0
  6 97  1  0
  6 98  1  0
  7  8  2  0
  7 26  1  0
  7 29  1  0
  8  9  1  0
  8 22  1  0
  9 10  1  0
  9 27  2  0
 10 11  2  0
 10 15  1  0
 11 12  1  0
 11 99  1  0
 12 13  2  0
 12100  1  0
 13 14  1  0
 13 31  1  0
 14 15  2  0
 14101  1  0
 15102  1  0
 16 17  2  0
 16 21  1  0
 16 31  1  0
 17 18  1  0
 17103  1  0
 18 19  2  0
 18104  1  0
 19 20  1  0
 19 24  1  0
 20 21  2  0
 20105  1  0
 21 23  1  0
 22 28  1  0
 22 32  2  0
 26 27  1  0
 28106  1  0
 28107  1  0
 29108  1  0
 29109  1  0
 33 34  1  0
 33 66  1  0
 33 70  2  0
 34 36  1  0
 34 59  1  0
 34110  1  6
 35 44  2  0
 35 45  1  0
 35 68  1  0
 36 56  1  0
 36111  1  0
 37 39  1  0
 37 47  1  0
 37 66  1  0
 37112  1  6
 38 43  2  0
 38 46  1  0
 38 47  1  0
 39 64  1  0
 39 67  2  0
 40 52  1  0
 40 53  2  0
 40 58  1  0
 41113  1  0
 41114  1  0
 41115  1  0
 42 43  1  0
 42 66  1  0
 42116  1  0
 42117  1  0
 43 44  1  0
 44118  1  0
 45 46  2  0
 45119  1  0
 46120  1  0
 47121  1  0
 47122  1  0
 48 41  1  0
 48 56  1  0
 48 65  1  0
 48123  1  1
 49 50  1  0
 49 53  1  0
 49 64  1  0
 49124  1  1
 50 51  1  0
 50125  1  0
 50126  1  0
 51 52  1  0
 51127  1  0
 51128  1  0
 52129  1  0
 52130  1  0
 53 54  1  0
 54 55  2  0
 54131  1  0
 55 57  1  0
 55132  1  0
 56 69  2  0
 57 58  2  0
 57133  1  0
 58134  1  0
 59 60  1  0
 59 61  1  0
 59 62  1  0
 60135  1  0
 60136  1  0
 60137  1  0
 61138  1  0
 61139  1  0
 61140  1  0
 62141  1  0
 62142  1  0
 62143  1  0
 63 65  1  0
 63144  1  0
 63145  1  0
 63146  1  0
 64147  1  0
 65148  1  0
 68 83  1  0
 71 72  2  0
 71 74  1  0
 71149  1  0
 72 76  1  0
 72150  1  0
 73 75  1  0
 73 76  2  0
 73151  1  0
 74 75  2  0
 74 80  1  0
 75 79  1  0
 76 86  1  0
 77 81  1  0
 77 87  1  0
 77 88  2  0
 78 84  1  0
 78 85  1  0
 78 89  2  0
 79152  1  0
 79153  1  0
 79154  1  0
 80155  1  0
 80156  1  0
 81157  1  0
 81158  1  0
 82 83  1  0
 82 86  1  0
 82159  1  0
 82160  1  0
 83161  1  0
 83162  1  0
 84 80  1  0
 84 87  1  0
 84163  1  1
 85164  1  0
 85165  1  0
 86166  1  0
 87167  1  0
M  ISO  4   1 100  68 101  81 100  83 101
M  END
$$$$
10
     RDKit          3D

158167  0  0  0  0  0  0  0  0999 V2000
  -30.7652  -14.3608   20.6636 C   0  0  0  0  0  0  0  0  0100  0  0
  -30.4392  -12.2669   19.3775 C   0  0  0  0  0  0  0  0  0101  0  0
  -29.4791  -12.5281   18.1977 C   0  0  0  0  0  0  0  0  0102  0  0
  -27.9985  -12.3963   18.6038 C   0  0  0  0  0  0  0  0  0103  0  0
  -27.6639  -13.2170   19.8820 C   0  0  2  0  0  0  0  0  0104  0  0
  -28.6795  -12.9602   21.0279 C   0  0  0  0  0  0  0  0  0105  0  0
  -25.2633  -13.8245   20.5754 C   0  0  0  0  0  0  0  0  0106  0  0
  -24.1645  -13.0409   20.9408 C   0  0  0  0  0  0  0  0  0107  0  0
  -24.6400  -11.7009   20.8697 C   0  0  0  0  0  0  0  0  0108  0  0
  -23.9005  -10.4085   21.0420 C   0  0  0  0  0  0  0  0  0109  0  0
  -24.3588   -9.4123   21.9123 C   0  0  0  0  0  0  0  0  0110  0  0
  -23.6296   -8.2350   22.0803 C   0  0  0  0  0  0  0  0  0111  0  0
  -22.4385   -8.0419   21.3657 C   0  0  0  0  0  0  0  0  0112  0  0
  -22.0103   -9.0167   20.4678 C   0  0  0  0  0  0  0  0  0113  0  0
  -22.7317  -10.1925   20.3102 C   0  0  0  0  0  0  0  0  0114  0  0
  -21.6857   -6.0709   22.5391 C   0  0  0  0  0  0  0  0  0115  0  0
  -21.4064   -6.5490   23.8264 C   0  0  0  0  0  0  0  0  0116  0  0
  -21.3635   -5.6677   24.9085 C   0  0  0  0  0  0  0  0  0117  0  0
  -21.5973   -4.3067   24.7088 C   0  0  0  0  0  0  0  0  0118  0  0
  -21.8700   -3.8284   23.4282 C   0  0  0  0  0  0  0  0  0119  0  0
  -21.9144   -4.7056   22.3460 C   0  0  0  0  0  0  0  0  0120  0  0
  -22.8194  -13.5263   21.1763 C   0  0  0  0  0  0  0  0  0121  0  0
  -22.1559   -4.2206   21.1063 F   0  0  0  0  0  0  0  0  0122  0  0
  -21.5628   -3.4510   25.7555 F   0  0  0  0  0  0  0  0  0123  0  0
  -30.0261  -13.1803   20.4553 N   0  0  0  0  0  0  0  0  0124  0  0
  -26.2911  -12.9356   20.3443 N   0  0  0  0  0  0  0  0  0125  0  0
  -25.9236  -11.6675   20.5847 N   0  0  0  0  0  0  0  0  0126  0  0
  -22.0708  -12.7905   22.0005 N   0  0  0  0  0  0  0  0  0127  0  0
  -25.4117  -15.1773   20.4097 N   0  0  0  0  0  0  0  0  0128  0  0
  -31.7916  -14.6724   20.0536 O   0  0  0  0  0  0  0  0  0129  0  0
  -21.6670   -6.9022   21.4423 O   0  0  0  0  0  0  0  0  0130  0  0
  -22.3946  -14.5564   20.6568 O   0  0  0  0  0  0  0  0  0131  0  0
  -24.6048  -31.8614   23.2223 C   0  0  0  0  0  0  0  0  0100  0  0
  -25.8822  -32.4841   23.8616 C   0  0  1  0  0  0  0  0  0101  0  0
  -27.2536  -27.5042   20.1156 C   0  0  0  0  0  0  0  0  0102  0  0
  -25.5726  -33.8762   24.2210 N   0  0  0  0  0  0  0  0  0103  0  0
  -23.4066  -30.4859   21.5461 C   0  0  2  0  0  0  0  0  0104  0  0
  -24.8467  -28.9636   20.1247 C   0  0  0  0  0  0  0  0  0105  0  0
  -22.7412  -29.4652   22.5052 C   0  0  0  0  0  0  0  0  0106  0  0
  -18.0167  -28.1302   22.8626 C   0  0  0  0  0  0  0  0  0107  0  0
  -24.1342  -36.7390   23.2568 C   0  0  0  0  0  0  0  0  0108  0  0
  -25.9141  -30.8882   21.3456 C   0  0  0  0  0  0  0  0  0109  0  0
  -25.9930  -29.5029   20.7208 C   0  0  0  0  0  0  0  0  0110  0  0
  -27.1758  -28.7612   20.7331 C   0  0  0  0  0  0  0  0  0111  0  0
  -26.1032  -26.9836   19.5230 C   0  0  0  0  0  0  0  0  0112  0  0
  -24.9097  -27.7011   19.5331 C   0  0  0  0  0  0  0  0  0113  0  0
  -23.5715  -29.7899   20.1582 C   0  0  0  0  0  0  0  0  0114  0  0
  -25.3990  -36.3212   24.0232 C   0  0  1  0  0  0  0  0  0115  0  0
  -20.5793  -28.3813   23.1004 C   0  0  2  0  0  0  0  0  0116  0  0
  -20.6548  -26.9392   22.5411 C   0  0  0  0  0  0  0  0  0117  0  0
  -19.5615  -26.6407   21.5143 C   0  0  0  0  0  0  0  0  0118  0  0
  -18.1797  -26.7818   22.1673 C   0  0  0  0  0  0  0  0  0119  0  0
  -19.1385  -28.8769   23.2988 C   0  0  0  0  0  0  0  0  0120  0  0
  -18.9183  -30.1286   23.8878 C   0  0  0  0  0  0  0  0  0121  0  0
  -17.6396  -30.6493   24.0352 C   0  0  0  0  0  0  0  0  0122  0  0
  -25.9153  -34.9582   23.4993 C   0  0  0  0  0  0  0  0  0123  0  0
  -16.5415  -29.9068   23.6254 C   0  0  0  0  0  0  0  0  0124  0  0
  -16.7331  -28.6521   23.0586 C   0  0  0  0  0  0  0  0  0125  0  0
  -26.4583  -31.6439   25.0683 C   0  0  0  0  0  0  0  0  0126  0  0
  -25.3807  -31.3179   26.1374 C   0  0  0  0  0  0  0  0  0127  0  0
  -27.0530  -30.3024   24.5680 C   0  0  0  0  0  0  0  0  0128  0  0
  -27.6014  -32.4281   25.7651 C   0  0  0  0  0  0  0  0  0129  0  0
  -27.5629  -37.2220   24.8621 C   0  0  0  0  0  0  0  0  0130  0  0
  -21.4133  -29.3375   22.3735 N   0  0  0  0  0  0  0  0  0131  0  0
  -26.4706  -37.3372   23.9061 N   0  0  0  0  0  0  0  0  0132  0  0
  -24.6674  -31.0544   22.1178 N   0  0  0  0  0  0  0  0  0133  0  0
  -23.4259  -28.8150   23.2971 O   0  0  0  0  0  0  0  0  0134  0  0
  -28.3948  -26.7345   20.0089 O   0  0  0  0  0  0  0  0  0135  0  0
  -26.5870  -34.9065   22.4671 O   0  0  0  0  0  0  0  0  0136  0  0
  -23.5365  -32.1254   23.7833 O   0  0  0  0  0  0  0  0  0137  0  0
  -24.8786  -18.7416   17.9581 C   0  0  0  0  0  0  0  0  0  0  0  0
  -25.5570  -17.5286   18.0761 C   0  0  0  0  0  0  0  0  0  0  0  0
  -27.1703  -18.5733   19.5401 C   0  0  0  0  0  0  0  0  0  0  0  0
  -25.3461  -19.8705   18.6310 C   0  0  0  0  0  0  0  0  0  0  0  0
  -26.7029  -17.4444   18.8671 C   0  0  0  0  0  0  0  0  0  0  0  0
  -26.4919  -19.7863   19.4220 C   0  0  0  0  0  0  0  0  0  0  0  0
  -23.2481  -23.6081   18.2971 C   0  0  0  0  0  0  0  0  0  0  0  0
  -22.5899  -22.3685   18.8531 C   0  0  0  0  0  0  0  0  0  0  0  0
  -23.2197  -21.1039   18.2815 C   0  0  0  0  0  0  0  0  0  0  0  0
  -25.3923  -22.3541   18.6022 C   0  0  0  0  0  0  0  0  0  0  0  0
  -24.6824  -23.4619   17.8128 C   0  0  2  0  0  0  0  0  0  0  0  0
  -25.4404  -24.7804   17.9418 C   0  0  0  0  0  0  0  0  0  1  0  0
  -24.6666  -21.0823   18.5098 N   0  0  0  0  0  0  0  0  0  0  0  0
  -27.3918  -16.2120   18.9869 N   0  0  0  0  0  0  0  0  0  0  0  0
  -22.6381  -24.6757   18.2464 O   0  0  0  0  0  0  0  0  0  0  0  0
  -26.9504  -20.8656   20.0717 F   0  0  0  0  0  0  0  0  0  0  0  0
  -31.4485  -12.4701   19.0860 H   0  0  0  0  0  0  0  0  0  0  0  0
  -30.3970  -11.2460   19.6950 H   0  0  0  0  0  0  0  0  0  0  0  0
  -29.6870  -11.8204   17.4226 H   0  0  0  0  0  0  0  0  0  0  0  0
  -29.6375  -13.5326   17.8649 H   0  0  0  0  0  0  0  0  0  0  0  0
  -27.7830  -11.3650   18.7904 H   0  0  0  0  0  0  0  0  0  0  0  0
  -27.4028  -12.7801   17.8021 H   0  0  0  0  0  0  0  0  0  0  0  0
  -27.7353  -14.2503   19.6136 H   0  0  0  0  0  0  0  0  0  0  0  0
  -28.5890  -11.9550   21.3832 H   0  0  0  0  0  0  0  0  0  0  0  0
  -28.5005  -13.6134   21.8562 H   0  0  0  0  0  0  0  0  0  0  0  0
  -25.2399   -9.5495   22.4318 H   0  0  0  0  0  0  0  0  0  0  0  0
  -23.9663   -7.5070   22.7297 H   0  0  0  0  0  0  0  0  0  0  0  0
  -21.1515   -8.8641   19.9162 H   0  0  0  0  0  0  0  0  0  0  0  0
  -22.4016  -10.9115   19.6476 H   0  0  0  0  0  0  0  0  0  0  0  0
  -21.2319   -7.5552   23.9750 H   0  0  0  0  0  0  0  0  0  0  0  0
  -21.1589   -6.0228   25.8556 H   0  0  0  0  0  0  0  0  0  0  0  0
  -22.0396   -2.8212   23.2809 H   0  0  0  0  0  0  0  0  0  0  0  0
  -22.4401  -11.9703   22.4008 H   0  0  0  0  0  0  0  0  0  0  0  0
  -21.1493  -13.0679   22.2082 H   0  0  0  0  0  0  0  0  0  0  0  0
  -24.6538  -15.7807   20.5848 H   0  0  0  0  0  0  0  0  0  0  0  0
  -26.2762  -15.5453   20.1156 H   0  0  0  0  0  0  0  0  0  0  0  0
  -26.6778  -32.4663   23.1464 H   0  0  0  0  0  0  0  0  0  0  0  0
  -25.0747  -34.0282   25.0566 H   0  0  0  0  0  0  0  0  0  0  0  0
  -22.7881  -31.3489   21.4131 H   0  0  0  0  0  0  0  0  0  0  0  0
  -23.3854  -35.9823   23.3648 H   0  0  0  0  0  0  0  0  0  0  0  0
  -24.3696  -36.8624   22.2204 H   0  0  0  0  0  0  0  0  0  0  0  0
  -23.7669  -37.6632   23.6516 H   0  0  0  0  0  0  0  0  0  0  0  0
  -25.9445  -31.6237   20.5691 H   0  0  0  0  0  0  0  0  0  0  0  0
  -26.7436  -31.0079   22.0108 H   0  0  0  0  0  0  0  0  0  0  0  0
  -28.0090  -29.1452   21.2057 H   0  0  0  0  0  0  0  0  0  0  0  0
  -26.1369  -26.0560   19.0719 H   0  0  0  0  0  0  0  0  0  0  0  0
  -24.0652  -27.2961   19.0997 H   0  0  0  0  0  0  0  0  0  0  0  0
  -23.6156  -30.5365   19.3930 H   0  0  0  0  0  0  0  0  0  0  0  0
  -22.7355  -29.1425   19.9945 H   0  0  0  0  0  0  0  0  0  0  0  0
  -25.1353  -36.2335   25.0565 H   0  0  0  0  0  0  0  0  0  0  0  0
  -21.0070  -28.3206   24.0793 H   0  0  0  0  0  0  0  0  0  0  0  0
  -20.5555  -26.2518   23.3550 H   0  0  0  0  0  0  0  0  0  0  0  0
  -21.5974  -26.8362   22.0454 H   0  0  0  0  0  0  0  0  0  0  0  0
  -19.6810  -25.6422   21.1488 H   0  0  0  0  0  0  0  0  0  0  0  0
  -19.6406  -27.3343   20.7034 H   0  0  0  0  0  0  0  0  0  0  0  0
  -17.4282  -26.6888   21.4113 H   0  0  0  0  0  0  0  0  0  0  0  0
  -18.0803  -26.0130   22.9049 H   0  0  0  0  0  0  0  0  0  0  0  0
  -19.7265  -30.6774   24.2204 H   0  0  0  0  0  0  0  0  0  0  0  0
  -17.5064  -31.5856   24.4483 H   0  0  0  0  0  0  0  0  0  0  0  0
  -15.5878  -30.2839   23.7407 H   0  0  0  0  0  0  0  0  0  0  0  0
  -15.9120  -28.0941   22.7766 H   0  0  0  0  0  0  0  0  0  0  0  0
  -24.5787  -30.7757   25.6817 H   0  0  0  0  0  0  0  0  0  0  0  0
  -25.0041  -32.2289   26.5536 H   0  0  0  0  0  0  0  0  0  0  0  0
  -25.8166  -30.7245   26.9138 H   0  0  0  0  0  0  0  0  0  0  0  0
  -26.2892  -29.7335   24.0803 H   0  0  0  0  0  0  0  0  0  0  0  0
  -27.4336  -29.7484   25.4006 H   0  0  0  0  0  0  0  0  0  0  0  0
  -27.8466  -30.4994   23.8779 H   0  0  0  0  0  0  0  0  0  0  0  0
  -27.2251  -33.3632   26.1242 H   0  0  0  0  0  0  0  0  0  0  0  0
  -28.3902  -32.6065   25.0645 H   0  0  0  0  0  0  0  0  0  0  0  0
  -27.9772  -31.8555   26.5872 H   0  0  0  0  0  0  0  0  0  0  0  0
  -28.2744  -38.0016   24.6863 H   0  0  0  0  0  0  0  0  0  0  0  0
  -28.0396  -36.2711   24.7461 H   0  0  0  0  0  0  0  0  0  0  0  0
  -27.1773  -37.3087   25.8564 H   0  0  0  0  0  0  0  0  0  0  0  0
  -20.9627  -29.9365   21.7352 H   0  0  0  0  0  0  0  0  0  0  0  0
  -26.0447  -38.2561   24.0273 H   0  0  0  0  0  0  0  0  0  0  0  0
  -24.0308  -18.8039   17.3730 H   0  0  0  0  0  0  0  0  0  0  0  0
  -25.2112  -16.6934   17.5782 H   0  0  0  0  0  0  0  0  0  0  0  0
  -28.0180  -18.5110   20.1254 H   0  0  0  0  0  0  0  0  0  0  0  0
  -21.5498  -22.3839   18.6026 H   0  0  0  0  0  0  0  0  0  0  0  0
  -22.7233  -22.3623   19.9147 H   0  0  0  0  0  0  0  0  0  0  0  0
  -23.0319  -21.0657   17.2288 H   0  0  0  0  0  0  0  0  0  0  0  0
  -22.7867  -20.2579   18.7731 H   0  0  0  0  0  0  0  0  0  0  0  0
  -25.4558  -22.6449   19.6300 H   0  0  0  0  0  0  0  0  0  0  0  0
  -26.3683  -22.2161   18.1858 H   0  0  0  0  0  0  0  0  0  0  0  0
  -24.6641  -23.1933   16.7772 H   0  0  0  0  0  0  0  0  0  0  0  0
  -24.6236  -25.4541   18.0964 H   0  0  0  0  0  0  0  0  0  0  0  0
  -26.1468  -24.4632   17.2034 H   0  0  0  0  0  0  0  0  0  0  0  0
  -26.8872  -15.5307   18.4864 H   0  0  0  0  0  0  0  0  0  0  0  0
  1 25  1  0
  1 30  2  0
  1 84  1  0
  2  3  1  0
  2 25  1  0
  2 87  1  0
  2 88  1  0
  3  4  1  0
  3 89  1  0
  3 90  1  0
  4  5  1  0
  4 91  1  0
  4 92  1  0
  5  6  1  0
  5 26  1  0
  5 93  1  6
  6 25  1  0
  6 94  1  0
  6 95  1  0
  7  8  2  0
  7 26  1  0
  7 29  1  0
  8  9  1  0
  8 22  1  0
  9 10  1  0
  9 27  2  0
 10 11  2  0
 10 15  1  0
 11 12  1  0
 11 96  1  0
 12 13  2  0
 12 97  1  0
 13 14  1  0
 13 31  1  0
 14 15  2  0
 14 98  1  0
 15 99  1  0
 16 17  2  0
 16 21  1  0
 16 31  1  0
 17 18  1  0
 17100  1  0
 18 19  2  0
 18101  1  0
 19 20  1  0
 19 24  1  0
 20 21  2  0
 20102  1  0
 21 23  1  0
 22 28  1  0
 22 32  2  0
 26 27  1  0
 28103  1  0
 28104  1  0
 29105  1  0
 29106  1  0
 33 34  1  0
 33 66  1  0
 33 70  2  0
 34 36  1  0
 34 59  1  0
 34107  1  6
 35 44  2  0
 35 45  1  0
 35 68  1  0
 36 56  1  0
 36108  1  0
 37 39  1  0
 37 47  1  0
 37 66  1  0
 37109  1  6
 38 43  2  0
 38 46  1  0
 38 47  1  0
 39 64  1  0
 39 67  2  0
 40 52  1  0
 40 53  2  0
 40 58  1  0
 41110  1  0
 41111  1  0
 41112  1  0
 42 43  1  0
 42 66  1  0
 42113  1  0
 42114  1  0
 43 44  1  0
 44115  1  0
 45 46  2  0
 45116  1  0
 46117  1  0
 47118  1  0
 47119  1  0
 48 41  1  0
 48 56  1  0
 48 65  1  0
 48120  1  1
 49 50  1  0
 49 53  1  0
 49 64  1  0
 49121  1  1
 50 51  1  0
 50122  1  0
 50123  1  0
 51 52  1  0
 51124  1  0
 51125  1  0
 52126  1  0
 52127  1  0
 53 54  1  0
 54 55  2  0
 54128  1  0
 55 57  1  0
 55129  1  0
 56 69  2  0
 57 58  2  0
 57130  1  0
 58131  1  0
 59 60  1  0
 59 61  1  0
 59 62  1  0
 60132  1  0
 60133  1  0
 60134  1  0
 61135  1  0
 61136  1  0
 61137  1  0
 62138  1  0
 62139  1  0
 62140  1  0
 63 65  1  0
 63141  1  0
 63142  1  0
 63143  1  0
 64144  1  0
 65145  1  0
 68 82  1  0
 71 72  2  0
 71 74  1  0
 71146  1  0
 72 75  1  0
 72147  1  0
 73 75  2  0
 73 76  1  0
 73148  1  0
 74 76  2  0
 74 83  1  0
 75 84  1  0
 76 86  1  0
 77 78  1  0
 77 81  1  0
 77 85  2  0
 78 79  1  0
 78149  1  0
 78150  1  0
 79 83  1  0
 79151  1  0
 79152  1  0
 80 81  1  0
 80 83  1  0
 80153  1  0
 80154  1  0
 81 82  1  0
 81155  1  6
 82156  1  0
 82157  1  0
 84158  1  0
M  ISO  4   1 100  68 101  82 101  84 100
M  END
$$$$
11
     RDKit          3D

154162  0  0  0  0  0  0  0  0999 V2000
  -30.7652  -14.3608   20.6636 C   0  0  0  0  0  0  0  0  0100  0  0
  -30.4392  -12.2669   19.3775 C   0  0  0  0  0  0  0  0  0101  0  0
  -29.4791  -12.5281   18.1977 C   0  0  0  0  0  0  0  0  0102  0  0
  -27.9985  -12.3963   18.6038 C   0  0  0  0  0  0  0  0  0103  0  0
  -27.6639  -13.2170   19.8820 C   0  0  2  0  0  0  0  0  0104  0  0
  -28.6795  -12.9602   21.0279 C   0  0  0  0  0  0  0  0  0105  0  0
  -25.2633  -13.8245   20.5754 C   0  0  0  0  0  0  0  0  0106  0  0
  -24.1645  -13.0409   20.9408 C   0  0  0  0  0  0  0  0  0107  0  0
  -24.6400  -11.7009   20.8697 C   0  0  0  0  0  0  0  0  0108  0  0
  -23.9005  -10.4085   21.0420 C   0  0  0  0  0  0  0  0  0109  0  0
  -24.3588   -9.4123   21.9123 C   0  0  0  0  0  0  0  0  0110  0  0
  -23.6296   -8.2350   22.0803 C   0  0  0  0  0  0  0  0  0111  0  0
  -22.4385   -8.0419   21.3657 C   0  0  0  0  0  0  0  0  0112  0  0
  -22.0103   -9.0167   20.4678 C   0  0  0  0  0  0  0  0  0113  0  0
  -22.7317  -10.1925   20.3102 C   0  0  0  0  0  0  0  0  0114  0  0
  -21.6857   -6.0709   22.5391 C   0  0  0  0  0  0  0  0  0115  0  0
  -21.4064   -6.5490   23.8264 C   0  0  0  0  0  0  0  0  0116  0  0
  -21.3635   -5.6677   24.9085 C   0  0  0  0  0  0  0  0  0117  0  0
  -21.5973   -4.3067   24.7088 C   0  0  0  0  0  0  0  0  0118  0  0
  -21.8700   -3.8284   23.4282 C   0  0  0  0  0  0  0  0  0119  0  0
  -21.9144   -4.7056   22.3460 C   0  0  0  0  0  0  0  0  0120  0  0
  -22.8194  -13.5263   21.1763 C   0  0  0  0  0  0  0  0  0121  0  0
  -22.1559   -4.2206   21.1063 F   0  0  0  0  0  0  0  0  0122  0  0
  -21.5628   -3.4510   25.7555 F   0  0  0  0  0  0  0  0  0123  0  0
  -30.0261  -13.1803   20.4553 N   0  0  0  0  0  0  0  0  0124  0  0
  -26.2911  -12.9356   20.3443 N   0  0  0  0  0  0  0  0  0125  0  0
  -25.9236  -11.6675   20.5847 N   0  0  0  0  0  0  0  0  0126  0  0
  -22.0708  -12.7905   22.0005 N   0  0  0  0  0  0  0  0  0127  0  0
  -25.4117  -15.1773   20.4097 N   0  0  0  0  0  0  0  0  0128  0  0
  -31.7916  -14.6724   20.0536 O   0  0  0  0  0  0  0  0  0129  0  0
  -21.6670   -6.9022   21.4423 O   0  0  0  0  0  0  0  0  0130  0  0
  -22.3946  -14.5564   20.6568 O   0  0  0  0  0  0  0  0  0131  0  0
  -24.6048  -31.8614   23.2223 C   0  0  0  0  0  0  0  0  0100  0  0
  -25.8822  -32.4841   23.8616 C   0  0  1  0  0  0  0  0  0101  0  0
  -27.2536  -27.5042   20.1156 C   0  0  0  0  0  0  0  0  0102  0  0
  -25.5726  -33.8762   24.2210 N   0  0  0  0  0  0  0  0  0103  0  0
  -23.4066  -30.4859   21.5461 C   0  0  2  0  0  0  0  0  0104  0  0
  -24.8467  -28.9636   20.1247 C   0  0  0  0  0  0  0  0  0105  0  0
  -22.7412  -29.4652   22.5052 C   0  0  0  0  0  0  0  0  0106  0  0
  -18.0167  -28.1302   22.8626 C   0  0  0  0  0  0  0  0  0107  0  0
  -24.1342  -36.7390   23.2568 C   0  0  0  0  0  0  0  0  0108  0  0
  -25.9141  -30.8882   21.3456 C   0  0  0  0  0  0  0  0  0109  0  0
  -25.9930  -29.5029   20.7208 C   0  0  0  0  0  0  0  0  0110  0  0
  -27.1758  -28.7612   20.7331 C   0  0  0  0  0  0  0  0  0111  0  0
  -26.1032  -26.9836   19.5230 C   0  0  0  0  0  0  0  0  0112  0  0
  -24.9097  -27.7011   19.5331 C   0  0  0  0  0  0  0  0  0113  0  0
  -23.5715  -29.7899   20.1582 C   0  0  0  0  0  0  0  0  0114  0  0
  -25.3990  -36.3212   24.0232 C   0  0  1  0  0  0  0  0  0115  0  0
  -20.5793  -28.3813   23.1004 C   0  0  2  0  0  0  0  0  0116  0  0
  -20.6548  -26.9392   22.5411 C   0  0  0  0  0  0  0  0  0117  0  0
  -19.5615  -26.6407   21.5143 C   0  0  0  0  0  0  0  0  0118  0  0
  -18.1797  -26.7818   22.1673 C   0  0  0  0  0  0  0  0  0119  0  0
  -19.1385  -28.8769   23.2988 C   0  0  0  0  0  0  0  0  0120  0  0
  -18.9183  -30.1286   23.8878 C   0  0  0  0  0  0  0  0  0121  0  0
  -17.6396  -30.6493   24.0352 C   0  0  0  0  0  0  0  0  0122  0  0
  -25.9153  -34.9582   23.4993 C   0  0  0  0  0  0  0  0  0123  0  0
  -16.5415  -29.9068   23.6254 C   0  0  0  0  0  0  0  0  0124  0  0
  -16.7331  -28.6521   23.0586 C   0  0  0  0  0  0  0  0  0125  0  0
  -26.4583  -31.6439   25.0683 C   0  0  0  0  0  0  0  0  0126  0  0
  -25.3807  -31.3179   26.1374 C   0  0  0  0  0  0  0  0  0127  0  0
  -27.0530  -30.3024   24.5680 C   0  0  0  0  0  0  0  0  0128  0  0
  -27.6014  -32.4281   25.7651 C   0  0  0  0  0  0  0  0  0129  0  0
  -27.5629  -37.2220   24.8621 C   0  0  0  0  0  0  0  0  0130  0  0
  -21.4133  -29.3375   22.3735 N   0  0  0  0  0  0  0  0  0131  0  0
  -26.4706  -37.3372   23.9061 N   0  0  0  0  0  0  0  0  0132  0  0
  -24.6674  -31.0544   22.1178 N   0  0  0  0  0  0  0  0  0133  0  0
  -23.4259  -28.8150   23.2971 O   0  0  0  0  0  0  0  0  0134  0  0
  -28.3948  -26.7345   20.0089 O   0  0  0  0  0  0  0  0  0135  0  0
  -26.5870  -34.9065   22.4671 O   0  0  0  0  0  0  0  0  0136  0  0
  -23.5365  -32.1254   23.7833 O   0  0  0  0  0  0  0  0  0137  0  0
  -30.1687  -21.1116   18.6527 C   0  0  0  0  0  0  0  0  0  0  0  0
  -30.2552  -22.4542   19.0209 C   0  0  0  0  0  0  0  0  0  0  0  0
  -27.7587  -21.2343   18.7714 C   0  0  0  0  0  0  0  0  0  0  0  0
  -28.9204  -20.5016   18.5279 C   0  0  0  0  0  0  0  0  0  0  0  0
  -27.8452  -22.5769   19.1396 C   0  0  0  0  0  0  0  0  0  0  0  0
  -29.0935  -23.1868   19.2643 C   0  0  0  0  0  0  0  0  0  0  0  0
  -28.8297  -19.0791   18.1377 C   0  0  0  0  0  0  0  0  0  0  0  0
  -29.2663  -26.7662   18.8424 C   0  0  0  0  0  0  0  0  0  1  0  0
  -29.8444  -25.3716   18.6996 C   0  0  0  0  0  0  0  0  0  0  0  0
  -26.6612  -23.3072   19.3822 N   0  0  0  0  0  0  0  0  0  0  0  0
  -28.2346  -18.2293   18.9890 N   0  0  0  0  0  0  0  0  0  0  0  0
  -29.3514  -18.7274   16.9627 N   0  0  0  0  0  0  0  0  0  0  0  0
  -29.1995  -24.5044   19.6246 O   0  0  0  0  0  0  0  0  0  0  0  0
  -31.4485  -12.4701   19.0860 H   0  0  0  0  0  0  0  0  0  0  0  0
  -30.3970  -11.2460   19.6950 H   0  0  0  0  0  0  0  0  0  0  0  0
  -29.6870  -11.8204   17.4226 H   0  0  0  0  0  0  0  0  0  0  0  0
  -29.6375  -13.5326   17.8649 H   0  0  0  0  0  0  0  0  0  0  0  0
  -27.7830  -11.3650   18.7904 H   0  0  0  0  0  0  0  0  0  0  0  0
  -27.4028  -12.7801   17.8021 H   0  0  0  0  0  0  0  0  0  0  0  0
  -27.7353  -14.2503   19.6136 H   0  0  0  0  0  0  0  0  0  0  0  0
  -28.5890  -11.9550   21.3832 H   0  0  0  0  0  0  0  0  0  0  0  0
  -28.5005  -13.6134   21.8562 H   0  0  0  0  0  0  0  0  0  0  0  0
  -25.2399   -9.5495   22.4318 H   0  0  0  0  0  0  0  0  0  0  0  0
  -23.9663   -7.5070   22.7297 H   0  0  0  0  0  0  0  0  0  0  0  0
  -21.1515   -8.8641   19.9162 H   0  0  0  0  0  0  0  0  0  0  0  0
  -22.4016  -10.9115   19.6476 H   0  0  0  0  0  0  0  0  0  0  0  0
  -21.2319   -7.5552   23.9750 H   0  0  0  0  0  0  0  0  0  0  0  0
  -21.1589   -6.0228   25.8556 H   0  0  0  0  0  0  0  0  0  0  0  0
  -22.0396   -2.8212   23.2809 H   0  0  0  0  0  0  0  0  0  0  0  0
  -22.4401  -11.9703   22.4008 H   0  0  0  0  0  0  0  0  0  0  0  0
  -21.1493  -13.0679   22.2082 H   0  0  0  0  0  0  0  0  0  0  0  0
  -24.6538  -15.7807   20.5848 H   0  0  0  0  0  0  0  0  0  0  0  0
  -26.2762  -15.5453   20.1156 H   0  0  0  0  0  0  0  0  0  0  0  0
  -26.6778  -32.4663   23.1464 H   0  0  0  0  0  0  0  0  0  0  0  0
  -25.0747  -34.0282   25.0566 H   0  0  0  0  0  0  0  0  0  0  0  0
  -22.7881  -31.3489   21.4131 H   0  0  0  0  0  0  0  0  0  0  0  0
  -23.3854  -35.9823   23.3648 H   0  0  0  0  0  0  0  0  0  0  0  0
  -24.3696  -36.8624   22.2204 H   0  0  0  0  0  0  0  0  0  0  0  0
  -23.7669  -37.6632   23.6516 H   0  0  0  0  0  0  0  0  0  0  0  0
  -25.9445  -31.6237   20.5691 H   0  0  0  0  0  0  0  0  0  0  0  0
  -26.7436  -31.0079   22.0108 H   0  0  0  0  0  0  0  0  0  0  0  0
  -28.0090  -29.1452   21.2057 H   0  0  0  0  0  0  0  0  0  0  0  0
  -26.1369  -26.0560   19.0719 H   0  0  0  0  0  0  0  0  0  0  0  0
  -24.0652  -27.2961   19.0997 H   0  0  0  0  0  0  0  0  0  0  0  0
  -23.6156  -30.5365   19.3930 H   0  0  0  0  0  0  0  0  0  0  0  0
  -22.7355  -29.1425   19.9945 H   0  0  0  0  0  0  0  0  0  0  0  0
  -25.1353  -36.2335   25.0565 H   0  0  0  0  0  0  0  0  0  0  0  0
  -21.0070  -28.3206   24.0793 H   0  0  0  0  0  0  0  0  0  0  0  0
  -20.5555  -26.2518   23.3550 H   0  0  0  0  0  0  0  0  0  0  0  0
  -21.5974  -26.8362   22.0454 H   0  0  0  0  0  0  0  0  0  0  0  0
  -19.6810  -25.6422   21.1488 H   0  0  0  0  0  0  0  0  0  0  0  0
  -19.6406  -27.3343   20.7034 H   0  0  0  0  0  0  0  0  0  0  0  0
  -17.4282  -26.6888   21.4113 H   0  0  0  0  0  0  0  0  0  0  0  0
  -18.0803  -26.0130   22.9049 H   0  0  0  0  0  0  0  0  0  0  0  0
  -19.7265  -30.6774   24.2204 H   0  0  0  0  0  0  0  0  0  0  0  0
  -17.5064  -31.5856   24.4483 H   0  0  0  0  0  0  0  0  0  0  0  0
  -15.5878  -30.2839   23.7407 H   0  0  0  0  0  0  0  0  0  0  0  0
  -15.9120  -28.0941   22.7766 H   0  0  0  0  0  0  0  0  0  0  0  0
  -24.5787  -30.7757   25.6817 H   0  0  0  0  0  0  0  0  0  0  0  0
  -25.0041  -32.2289   26.5536 H   0  0  0  0  0  0  0  0  0  0  0  0
  -25.8166  -30.7245   26.9138 H   0  0  0  0  0  0  0  0  0  0  0  0
  -26.2892  -29.7335   24.0803 H   0  0  0  0  0  0  0  0  0  0  0  0
  -27.4336  -29.7484   25.4006 H   0  0  0  0  0  0  0  0  0  0  0  0
  -27.8466  -30.4994   23.8779 H   0  0  0  0  0  0  0  0  0  0  0  0
  -27.2251  -33.3632   26.1242 H   0  0  0  0  0  0  0  0  0  0  0  0
  -28.3902  -32.6065   25.0645 H   0  0  0  0  0  0  0  0  0  0  0  0
  -27.9772  -31.8555   26.5872 H   0  0  0  0  0  0  0  0  0  0  0  0
  -28.2744  -38.0016   24.6863 H   0  0  0  0  0  0  0  0  0  0  0  0
  -28.0396  -36.2711   24.7461 H   0  0  0  0  0  0  0  0  0  0  0  0
  -27.1773  -37.3087   25.8564 H   0  0  0  0  0  0  0  0  0  0  0  0
  -20.9627  -29.9365   21.7352 H   0  0  0  0  0  0  0  0  0  0  0  0
  -26.0447  -38.2561   24.0273 H   0  0  0  0  0  0  0  0  0  0  0  0
  -31.0282  -20.5695   18.4726 H   0  0  0  0  0  0  0  0  0  0  0  0
  -31.1787  -22.9055   19.1132 H   0  0  0  0  0  0  0  0  0  0  0  0
  -26.8352  -20.7830   18.6791 H   0  0  0  0  0  0  0  0  0  0  0  0
  -28.7054  -27.0252   17.9688 H   0  0  0  0  0  0  0  0  0  0  0  0
  -30.0401  -27.4962   18.9569 H   0  0  0  0  0  0  0  0  0  0  0  0
  -30.8945  -25.3962   18.9035 H   0  0  0  0  0  0  0  0  0  0  0  0
  -29.6878  -25.0164   17.7025 H   0  0  0  0  0  0  0  0  0  0  0  0
  -25.7847  -22.8681   19.2916 H   0  0  0  0  0  0  0  0  0  0  0  0
  -26.7122  -24.2555   19.6419 H   0  0  0  0  0  0  0  0  0  0  0  0
  -27.3042  -18.3784   19.2742 H   0  0  0  0  0  0  0  0  0  0  0  0
  -29.7736  -19.4066   16.3885 H   0  0  0  0  0  0  0  0  0  0  0  0
  -29.3145  -17.7885   16.6690 H   0  0  0  0  0  0  0  0  0  0  0  0
  1 25  1  0
  1 30  2  0
  1 81  1  0
  2  3  1  0
  2 25  1  0
  2 84  1  0
  2 85  1  0
  3  4  1  0
  3 86  1  0
  3 87  1  0
  4  5  1  0
  4 88  1  0
  4 89  1  0
  5  6  1  0
  5 26  1  0
  5 90  1  6
  6 25  1  0
  6 91  1  0
  6 92  1  0
  7  8  2  0
  7 26  1  0
  7 29  1  0
  8  9  1  0
  8 22  1  0
  9 10  1  0
  9 27  2  0
 10 11  2  0
 10 15  1  0
 11 12  1  0
 11 93  1  0
 12 13  2  0
 12 94  1  0
 13 14  1  0
 13 31  1  0
 14 15  2  0
 14 95  1  0
 15 96  1  0
 16 17  2  0
 16 21  1  0
 16 31  1  0
 17 18  1  0
 17 97  1  0
 18 19  2  0
 18 98  1  0
 19 20  1  0
 19 24  1  0
 20 21  2  0
 20 99  1  0
 21 23  1  0
 22 28  1  0
 22 32  2  0
 26 27  1  0
 28100  1  0
 28101  1  0
 29102  1  0
 29103  1  0
 33 34  1  0
 33 66  1  0
 33 70  2  0
 34 36  1  0
 34 59  1  0
 34104  1  6
 35 44  2  0
 35 45  1  0
 35 68  1  0
 36 56  1  0
 36105  1  0
 37 39  1  0
 37 47  1  0
 37 66  1  0
 37106  1  6
 38 43  2  0
 38 46  1  0
 38 47  1  0
 39 64  1  0
 39 67  2  0
 40 52  1  0
 40 53  2  0
 40 58  1  0
 41107  1  0
 41108  1  0
 41109  1  0
 42 43  1  0
 42 66  1  0
 42110  1  0
 42111  1  0
 43 44  1  0
 44112  1  0
 45 46  2  0
 45113  1  0
 46114  1  0
 47115  1  0
 47116  1  0
 48 41  1  0
 48 56  1  0
 48 65  1  0
 48117  1  1
 49 50  1  0
 49 53  1  0
 49 64  1  0
 49118  1  1
 50 51  1  0
 50119  1  0
 50120  1  0
 51 52  1  0
 51121  1  0
 51122  1  0
 52123  1  0
 52124  1  0
 53 54  1  0
 54 55  2  0
 54125  1  0
 55 57  1  0
 55126  1  0
 56 69  2  0
 57 58  2  0
 57127  1  0
 58128  1  0
 59 60  1  0
 59 61  1  0
 59 62  1  0
 60129  1  0
 60130  1  0
 60131  1  0
 61132  1  0
 61133  1  0
 61134  1  0
 62135  1  0
 62136  1  0
 62137  1  0
 63 65  1  0
 63138  1  0
 63139  1  0
 63140  1  0
 64141  1  0
 65142  1  0
 68 78  1  0
 71 72  2  0
 71 74  1  0
 71143  1  0
 72 76  1  0
 72144  1  0
 73 74  2  0
 73 75  1  0
 73145  1  0
 74 77  1  0
 75 76  2  0
 75 80  1  0
 76 83  1  0
 77 81  1  0
 77 82  2  0
 78 79  1  0
 78146  1  0
 78147  1  0
 79 83  1  0
 79148  1  0
 79149  1  0
 80150  1  0
 80151  1  0
 81152  1  0
 82153  1  0
 82154  1  0
M  CHG  1  82   1
M  ISO  4   1 100  68 101  78 101  81 100
M  END
$$$$
12
     RDKit          3D

156164  0  0  0  0  0  0  0  0999 V2000
  -30.7652  -14.3608   20.6636 C   0  0  0  0  0  0  0  0  0100  0  0
  -30.4392  -12.2669   19.3775 C   0  0  0  0  0  0  0  0  0101  0  0
  -29.4791  -12.5281   18.1977 C   0  0  0  0  0  0  0  0  0102  0  0
  -27.9985  -12.3963   18.6038 C   0  0  0  0  0  0  0  0  0103  0  0
  -27.6639  -13.2170   19.8820 C   0  0  2  0  0  0  0  0  0104  0  0
  -28.6795  -12.9602   21.0279 C   0  0  0  0  0  0  0  0  0105  0  0
  -25.2633  -13.8245   20.5754 C   0  0  0  0  0  0  0  0  0106  0  0
  -24.1645  -13.0409   20.9408 C   0  0  0  0  0  0  0  0  0107  0  0
  -24.6400  -11.7009   20.8697 C   0  0  0  0  0  0  0  0  0108  0  0
  -23.9005  -10.4085   21.0420 C   0  0  0  0  0  0  0  0  0109  0  0
  -24.3588   -9.4123   21.9123 C   0  0  0  0  0  0  0  0  0110  0  0
  -23.6296   -8.2350   22.0803 C   0  0  0  0  0  0  0  0  0111  0  0
  -22.4385   -8.0419   21.3657 C   0  0  0  0  0  0  0  0  0112  0  0
  -22.0103   -9.0167   20.4678 C   0  0  0  0  0  0  0  0  0113  0  0
  -22.7317  -10.1925   20.3102 C   0  0  0  0  0  0  0  0  0114  0  0
  -21.6857   -6.0709   22.5391 C   0  0  0  0  0  0  0  0  0115  0  0
  -21.4064   -6.5490   23.8264 C   0  0  0  0  0  0  0  0  0116  0  0
  -21.3635   -5.6677   24.9085 C   0  0  0  0  0  0  0  0  0117  0  0
  -21.5973   -4.3067   24.7088 C   0  0  0  0  0  0  0  0  0118  0  0
  -21.8700   -3.8284   23.4282 C   0  0  0  0  0  0  0  0  0119  0  0
  -21.9144   -4.7056   22.3460 C   0  0  0  0  0  0  0  0  0120  0  0
  -22.8194  -13.5263   21.1763 C   0  0  0  0  0  0  0  0  0121  0  0
  -22.1559   -4.2206   21.1063 F   0  0  0  0  0  0  0  0  0122  0  0
  -21.5628   -3.4510   25.7555 F   0  0  0  0  0  0  0  0  0123  0  0
  -30.0261  -13.1803   20.4553 N   0  0  0  0  0  0  0  0  0124  0  0
  -26.2911  -12.9356   20.3443 N   0  0  0  0  0  0  0  0  0125  0  0
  -25.9236  -11.6675   20.5847 N   0  0  0  0  0  0  0  0  0126  0  0
  -22.0708  -12.7905   22.0005 N   0  0  0  0  0  0  0  0  0127  0  0
  -25.4117  -15.1773   20.4097 N   0  0  0  0  0  0  0  0  0128  0  0
  -31.7916  -14.6724   20.0536 O   0  0  0  0  0  0  0  0  0129  0  0
  -21.6670   -6.9022   21.4423 O   0  0  0  0  0  0  0  0  0130  0  0
  -22.3946  -14.5564   20.6568 O   0  0  0  0  0  0  0  0  0131  0  0
  -24.6048  -31.8614   23.2223 C   0  0  0  0  0  0  0  0  0100  0  0
  -25.8822  -32.4841   23.8616 C   0  0  1  0  0  0  0  0  0101  0  0
  -27.2536  -27.5042   20.1156 C   0  0  0  0  0  0  0  0  0102  0  0
  -25.5726  -33.8762   24.2210 N   0  0  0  0  0  0  0  0  0103  0  0
  -23.4066  -30.4859   21.5461 C   0  0  2  0  0  0  0  0  0104  0  0
  -24.8467  -28.9636   20.1247 C   0  0  0  0  0  0  0  0  0105  0  0
  -22.7412  -29.4652   22.5052 C   0  0  0  0  0  0  0  0  0106  0  0
  -18.0167  -28.1302   22.8626 C   0  0  0  0  0  0  0  0  0107  0  0
  -24.1342  -36.7390   23.2568 C   0  0  0  0  0  0  0  0  0108  0  0
  -25.9141  -30.8882   21.3456 C   0  0  0  0  0  0  0  0  0109  0  0
  -25.9930  -29.5029   20.7208 C   0  0  0  0  0  0  0  0  0110  0  0
  -27.1758  -28.7612   20.7331 C   0  0  0  0  0  0  0  0  0111  0  0
  -26.1032  -26.9836   19.5230 C   0  0  0  0  0  0  0  0  0112  0  0
  -24.9097  -27.7011   19.5331 C   0  0  0  0  0  0  0  0  0113  0  0
  -23.5715  -29.7899   20.1582 C   0  0  0  0  0  0  0  0  0114  0  0
  -25.3990  -36.3212   24.0232 C   0  0  1  0  0  0  0  0  0115  0  0
  -20.5793  -28.3813   23.1004 C   0  0  2  0  0  0  0  0  0116  0  0
  -20.6548  -26.9392   22.5411 C   0  0  0  0  0  0  0  0  0117  0  0
  -19.5615  -26.6407   21.5143 C   0  0  0  0  0  0  0  0  0118  0  0
  -18.1797  -26.7818   22.1673 C   0  0  0  0  0  0  0  0  0119  0  0
  -19.1385  -28.8769   23.2988 C   0  0  0  0  0  0  0  0  0120  0  0
  -18.9183  -30.1286   23.8878 C   0  0  0  0  0  0  0  0  0121  0  0
  -17.6396  -30.6493   24.0352 C   0  0  0  0  0  0  0  0  0122  0  0
  -25.9153  -34.9582   23.4993 C   0  0  0  0  0  0  0  0  0123  0  0
  -16.5415  -29.9068   23.6254 C   0  0  0  0  0  0  0  0  0124  0  0
  -16.7331  -28.6521   23.0586 C   0  0  0  0  0  0  0  0  0125  0  0
  -26.4583  -31.6439   25.0683 C   0  0  0  0  0  0  0  0  0126  0  0
  -25.3807  -31.3179   26.1374 C   0  0  0  0  0  0  0  0  0127  0  0
  -27.0530  -30.3024   24.5680 C   0  0  0  0  0  0  0  0  0128  0  0
  -27.6014  -32.4281   25.7651 C   0  0  0  0  0  0  0  0  0129  0  0
  -27.5629  -37.2220   24.8621 C   0  0  0  0  0  0  0  0  0130  0  0
  -21.4133  -29.3375   22.3735 N   0  0  0  0  0  0  0  0  0131  0  0
  -26.4706  -37.3372   23.9061 N   0  0  0  0  0  0  0  0  0132  0  0
  -24.6674  -31.0544   22.1178 N   0  0  0  0  0  0  0  0  0133  0  0
  -23.4259  -28.8150   23.2971 O   0  0  0  0  0  0  0  0  0134  0  0
  -28.3948  -26.7345   20.0089 O   0  0  0  0  0  0  0  0  0135  0  0
  -26.5870  -34.9065   22.4671 O   0  0  0  0  0  0  0  0  0136  0  0
  -23.5365  -32.1254   23.7833 O   0  0  0  0  0  0  0  0  0137  0  0
  -23.1818  -12.6589   25.3965 C   0  0  0  0  0  0  0  0  0  0  0  0
  -23.0091  -14.0046   25.0726 C   0  0  0  0  0  0  0  0  0  0  0  0
  -21.3925  -12.0655   23.8855 C   0  0  0  0  0  0  0  0  0  0  0  0
  -22.3735  -11.6893   24.8029 C   0  0  0  0  0  0  0  0  0  0  0  0
  -22.0281  -14.3807   24.1551 C   0  0  0  0  0  0  0  0  0  0  0  0
  -21.2197  -13.4112   23.5615 C   0  0  0  0  0  0  0  0  0  0  0  0
  -22.9541  -19.1346   23.5857 C   0  0  0  0  0  0  0  0  0  1  0  0
  -22.0867  -18.1257   23.7319 C   0  0  0  0  0  0  0  0  0  0  0  0
  -22.5670  -16.8328   24.3201 C   0  0  0  0  0  0  0  0  0  0  0  0
  -21.4787   -9.9636   27.3307 C   0  0  0  0  0  0  0  0  0  0  0  0
  -22.7723   -9.9546   26.5414 C   0  0  0  0  0  0  0  0  0  0  0  0
  -21.8548  -15.7474   23.8287 N   0  0  0  0  0  0  0  0  0  0  0  0
  -22.5515  -10.2977   25.1383 N   0  0  0  0  0  0  0  0  0  0  0  0
  -23.4848  -16.8131   25.1332 O   0  0  0  0  0  0  0  0  0  0  0  0
  -20.7608  -18.2274   23.3626 O   0  0  0  0  0  0  0  0  0  0  0  0
  -20.2726  -13.7612   22.6794 F   0  0  0  0  0  0  0  0  0  0  0  0
  -31.4485  -12.4701   19.0860 H   0  0  0  0  0  0  0  0  0  0  0  0
  -30.3970  -11.2460   19.6950 H   0  0  0  0  0  0  0  0  0  0  0  0
  -29.6870  -11.8204   17.4226 H   0  0  0  0  0  0  0  0  0  0  0  0
  -29.6375  -13.5326   17.8649 H   0  0  0  0  0  0  0  0  0  0  0  0
  -27.7830  -11.3650   18.7904 H   0  0  0  0  0  0  0  0  0  0  0  0
  -27.4028  -12.7801   17.8021 H   0  0  0  0  0  0  0  0  0  0  0  0
  -27.7353  -14.2503   19.6136 H   0  0  0  0  0  0  0  0  0  0  0  0
  -28.5890  -11.9550   21.3832 H   0  0  0  0  0  0  0  0  0  0  0  0
  -28.5005  -13.6134   21.8562 H   0  0  0  0  0  0  0  0  0  0  0  0
  -25.2399   -9.5495   22.4318 H   0  0  0  0  0  0  0  0  0  0  0  0
  -23.9663   -7.5070   22.7297 H   0  0  0  0  0  0  0  0  0  0  0  0
  -21.1515   -8.8641   19.9162 H   0  0  0  0  0  0  0  0  0  0  0  0
  -22.4016  -10.9115   19.6476 H   0  0  0  0  0  0  0  0  0  0  0  0
  -21.2319   -7.5552   23.9750 H   0  0  0  0  0  0  0  0  0  0  0  0
  -21.1589   -6.0228   25.8556 H   0  0  0  0  0  0  0  0  0  0  0  0
  -22.0396   -2.8212   23.2809 H   0  0  0  0  0  0  0  0  0  0  0  0
  -22.4401  -11.9703   22.4008 H   0  0  0  0  0  0  0  0  0  0  0  0
  -21.1493  -13.0679   22.2082 H   0  0  0  0  0  0  0  0  0  0  0  0
  -24.6538  -15.7807   20.5848 H   0  0  0  0  0  0  0  0  0  0  0  0
  -26.2762  -15.5453   20.1156 H   0  0  0  0  0  0  0  0  0  0  0  0
  -26.6778  -32.4663   23.1464 H   0  0  0  0  0  0  0  0  0  0  0  0
  -25.0747  -34.0282   25.0566 H   0  0  0  0  0  0  0  0  0  0  0  0
  -22.7881  -31.3489   21.4131 H   0  0  0  0  0  0  0  0  0  0  0  0
  -23.3854  -35.9823   23.3648 H   0  0  0  0  0  0  0  0  0  0  0  0
  -24.3696  -36.8624   22.2204 H   0  0  0  0  0  0  0  0  0  0  0  0
  -23.7669  -37.6632   23.6516 H   0  0  0  0  0  0  0  0  0  0  0  0
  -25.9445  -31.6237   20.5691 H   0  0  0  0  0  0  0  0  0  0  0  0
  -26.7436  -31.0079   22.0108 H   0  0  0  0  0  0  0  0  0  0  0  0
  -28.0090  -29.1452   21.2057 H   0  0  0  0  0  0  0  0  0  0  0  0
  -26.1369  -26.0560   19.0719 H   0  0  0  0  0  0  0  0  0  0  0  0
  -24.0652  -27.2961   19.0997 H   0  0  0  0  0  0  0  0  0  0  0  0
  -23.6156  -30.5365   19.3930 H   0  0  0  0  0  0  0  0  0  0  0  0
  -22.7355  -29.1425   19.9945 H   0  0  0  0  0  0  0  0  0  0  0  0
  -25.1353  -36.2335   25.0565 H   0  0  0  0  0  0  0  0  0  0  0  0
  -21.0070  -28.3206   24.0793 H   0  0  0  0  0  0  0  0  0  0  0  0
  -20.5555  -26.2518   23.3550 H   0  0  0  0  0  0  0  0  0  0  0  0
  -21.5974  -26.8362   22.0454 H   0  0  0  0  0  0  0  0  0  0  0  0
  -19.6810  -25.6422   21.1488 H   0  0  0  0  0  0  0  0  0  0  0  0
  -19.6406  -27.3343   20.7034 H   0  0  0  0  0  0  0  0  0  0  0  0
  -17.4282  -26.6888   21.4113 H   0  0  0  0  0  0  0  0  0  0  0  0
  -18.0803  -26.0130   22.9049 H   0  0  0  0  0  0  0  0  0  0  0  0
  -19.7265  -30.6774   24.2204 H   0  0  0  0  0  0  0  0  0  0  0  0
  -17.5064  -31.5856   24.4483 H   0  0  0  0  0  0  0  0  0  0  0  0
  -15.5878  -30.2839   23.7407 H   0  0  0  0  0  0  0  0  0  0  0  0
  -15.9120  -28.0941   22.7766 H   0  0  0  0  0  0  0  0  0  0  0  0
  -24.5787  -30.7757   25.6817 H   0  0  0  0  0  0  0  0  0  0  0  0
  -25.0041  -32.2289   26.5536 H   0  0  0  0  0  0  0  0  0  0  0  0
  -25.8166  -30.7245   26.9138 H   0  0  0  0  0  0  0  0  0  0  0  0
  -26.2892  -29.7335   24.0803 H   0  0  0  0  0  0  0  0  0  0  0  0
  -27.4336  -29.7484   25.4006 H   0  0  0  0  0  0  0  0  0  0  0  0
  -27.8466  -30.4994   23.8779 H   0  0  0  0  0  0  0  0  0  0  0  0
  -27.2251  -33.3632   26.1242 H   0  0  0  0  0  0  0  0  0  0  0  0
  -28.3902  -32.6065   25.0645 H   0  0  0  0  0  0  0  0  0  0  0  0
  -27.9772  -31.8555   26.5872 H   0  0  0  0  0  0  0  0  0  0  0  0
  -28.2744  -38.0016   24.6863 H   0  0  0  0  0  0  0  0  0  0  0  0
  -28.0396  -36.2711   24.7461 H   0  0  0  0  0  0  0  0  0  0  0  0
  -27.1773  -37.3087   25.8564 H   0  0  0  0  0  0  0  0  0  0  0  0
  -20.9627  -29.9365   21.7352 H   0  0  0  0  0  0  0  0  0  0  0  0
  -26.0447  -38.2561   24.0273 H   0  0  0  0  0  0  0  0  0  0  0  0
  -23.9076  -12.3806   26.0753 H   0  0  0  0  0  0  0  0  0  0  0  0
  -23.6071  -14.7219   25.5118 H   0  0  0  0  0  0  0  0  0  0  0  0
  -20.7945  -11.3482   23.4464 H   0  0  0  0  0  0  0  0  0  0  0  0
  -23.3541  -19.1129   24.5368 H   0  0  0  0  0  0  0  0  0  0  0  0
  -21.6810   -9.7084   28.3499 H   0  0  0  0  0  0  0  0  0  0  0  0
  -20.8005   -9.2496   26.9121 H   0  0  0  0  0  0  0  0  0  0  0  0
  -21.0412  -10.9391   27.2874 H   0  0  0  0  0  0  0  0  0  0  0  0
  -23.2048   -8.9774   26.5955 H   0  0  0  0  0  0  0  0  0  0  0  0
  -23.4267  -10.6875   26.9651 H   0  0  0  0  0  0  0  0  0  0  0  0
  -21.1460  -15.9519   23.1767 H   0  0  0  0  0  0  0  0  0  0  0  0
  -20.4373  -19.0253   22.9928 H   0  0  0  0  0  0  0  0  0  0  0  0
  1 25  1  0
  1 30  2  0
  1 83  1  0
  2  3  1  0
  2 25  1  0
  2 87  1  0
  2 88  1  0
  3  4  1  0
  3 89  1  0
  3 90  1  0
  4  5  1  0
  4 91  1  0
  4 92  1  0
  5  6  1  0
  5 26  1  0
  5 93  1  6
  6 25  1  0
  6 94  1  0
  6 95  1  0
  7  8  2  0
  7 26  1  0
  7 29  1  0
  8  9  1  0
  8 22  1  0
  9 10  1  0
  9 27  2  0
 10 11  2  0
 10 15  1  0
 11 12  1  0
 11 96  1  0
 12 13  2  0
 12 97  1  0
 13 14  1  0
 13 31  1  0
 14 15  2  0
 14 98  1  0
 15 99  1  0
 16 17  2  0
 16 21  1  0
 16 31  1  0
 17 18  1  0
 17100  1  0
 18 19  2  0
 18101  1  0
 19 20  1  0
 19 24  1  0
 20 21  2  0
 20102  1  0
 21 23  1  0
 22 28  1  0
 22 32  2  0
 26 27  1  0
 28103  1  0
 28104  1  0
 29105  1  0
 29106  1  0
 33 34  1  0
 33 66  1  0
 33 70  2  0
 34 36  1  0
 34 59  1  0
 34107  1  6
 35 44  2  0
 35 45  1  0
 35 68  1  0
 36 56  1  0
 36108  1  0
 37 39  1  0
 37 47  1  0
 37 66  1  0
 37109  1  6
 38 43  2  0
 38 46  1  0
 38 47  1  0
 39 64  1  0
 39 67  2  0
 40 52  1  0
 40 53  2  0
 40 58  1  0
 41110  1  0
 41111  1  0
 41112  1  0
 42 43  1  0
 42 66  1  0
 42113  1  0
 42114  1  0
 43 44  1  0
 44115  1  0
 45 46  2  0
 45116  1  0
 46117  1  0
 47118  1  0
 47119  1  0
 48 41  1  0
 48 56  1  0
 48 65  1  0
 48120  1  1
 49 50  1  0
 49 53  1  0
 49 64  1  0
 49121  1  1
 50 51  1  0
 50122  1  0
 50123  1  0
 51 52  1  0
 51124  1  0
 51125  1  0
 52126  1  0
 52127  1  0
 53 54  1  0
 54 55  2  0
 54128  1  0
 55 57  1  0
 55129  1  0
 56 69  2  0
 57 58  2  0
 57130  1  0
 58131  1  0
 59 60  1  0
 59 61  1  0
 59 62  1  0
 60132  1  0
 60133  1  0
 60134  1  0
 61135  1  0
 61136  1  0
 61137  1  0
 62138  1  0
 62139  1  0
 62140  1  0
 63 65  1  0
 63141  1  0
 63142  1  0
 63143  1  0
 64144  1  0
 65145  1  0
 68 77  1  0
 71 72  2  0
 71 74  1  0
 71146  1  0
 72 75  1  0
 72147  1  0
 73 74  2  0
 73 76  1  0
 73148  1  0
 74 83  1  0
 75 76  2  0
 75 82  1  0
 76 86  1  0
 77 78  2  0
 77149  1  0
 78 79  1  0
 78 85  1  0
 79 82  1  0
 79 84  2  0
 80 81  1  0
 80150  1  0
 80151  1  0
 80152  1  0
 81 83  1  0
 81153  1  0
 81154  1  0
 82155  1  0
 85156  1  0
M  ISO  4   1 100  68 101  77 101  83 100
M  END
$$$$
13
     RDKit          3D

162171  0  0  0  0  0  0  0  0999 V2000
  -30.7652  -14.3608   20.6636 C   0  0  0  0  0  0  0  0  0100  0  0
  -30.4392  -12.2669   19.3775 C   0  0  0  0  0  0  0  0  0101  0  0
  -29.4791  -12.5281   18.1977 C   0  0  0  0  0  0  0  0  0102  0  0
  -27.9985  -12.3963   18.6038 C   0  0  0  0  0  0  0  0  0103  0  0
  -27.6639  -13.2170   19.8820 C   0  0  2  0  0  0  0  0  0104  0  0
  -28.6795  -12.9602   21.0279 C   0  0  0  0  0  0  0  0  0105  0  0
  -25.2633  -13.8245   20.5754 C   0  0  0  0  0  0  0  0  0106  0  0
  -24.1645  -13.0409   20.9408 C   0  0  0  0  0  0  0  0  0107  0  0
  -24.6400  -11.7009   20.8697 C   0  0  0  0  0  0  0  0  0108  0  0
  -23.9005  -10.4085   21.0420 C   0  0  0  0  0  0  0  0  0109  0  0
  -24.3588   -9.4123   21.9123 C   0  0  0  0  0  0  0  0  0110  0  0
  -23.6296   -8.2350   22.0803 C   0  0  0  0  0  0  0  0  0111  0  0
  -22.4385   -8.0419   21.3657 C   0  0  0  0  0  0  0  0  0112  0  0
  -22.0103   -9.0167   20.4678 C   0  0  0  0  0  0  0  0  0113  0  0
  -22.7317  -10.1925   20.3102 C   0  0  0  0  0  0  0  0  0114  0  0
  -21.6857   -6.0709   22.5391 C   0  0  0  0  0  0  0  0  0115  0  0
  -21.4064   -6.5490   23.8264 C   0  0  0  0  0  0  0  0  0116  0  0
  -21.3635   -5.6677   24.9085 C   0  0  0  0  0  0  0  0  0117  0  0
  -21.5973   -4.3067   24.7088 C   0  0  0  0  0  0  0  0  0118  0  0
  -21.8700   -3.8284   23.4282 C   0  0  0  0  0  0  0  0  0119  0  0
  -21.9144   -4.7056   22.3460 C   0  0  0  0  0  0  0  0  0120  0  0
  -22.8194  -13.5263   21.1763 C   0  0  0  0  0  0  0  0  0121  0  0
  -22.1559   -4.2206   21.1063 F   0  0  0  0  0  0  0  0  0122  0  0
  -21.5628   -3.4510   25.7555 F   0  0  0  0  0  0  0  0  0123  0  0
  -30.0261  -13.1803   20.4553 N   0  0  0  0  0  0  0  0  0124  0  0
  -26.2911  -12.9356   20.3443 N   0  0  0  0  0  0  0  0  0125  0  0
  -25.9236  -11.6675   20.5847 N   0  0  0  0  0  0  0  0  0126  0  0
  -22.0708  -12.7905   22.0005 N   0  0  0  0  0  0  0  0  0127  0  0
  -25.4117  -15.1773   20.4097 N   0  0  0  0  0  0  0  0  0128  0  0
  -31.7916  -14.6724   20.0536 O   0  0  0  0  0  0  0  0  0129  0  0
  -21.6670   -6.9022   21.4423 O   0  0  0  0  0  0  0  0  0130  0  0
  -22.3946  -14.5564   20.6568 O   0  0  0  0  0  0  0  0  0131  0  0
  -24.6048  -31.8614   23.2223 C   0  0  0  0  0  0  0  0  0100  0  0
  -25.8822  -32.4841   23.8616 C   0  0  1  0  0  0  0  0  0101  0  0
  -27.2536  -27.5042   20.1156 C   0  0  0  0  0  0  0  0  0102  0  0
  -25.5726  -33.8762   24.2210 N   0  0  0  0  0  0  0  0  0103  0  0
  -23.4066  -30.4859   21.5461 C   0  0  2  0  0  0  0  0  0104  0  0
  -24.8467  -28.9636   20.1247 C   0  0  0  0  0  0  0  0  0105  0  0
  -22.7412  -29.4652   22.5052 C   0  0  0  0  0  0  0  0  0106  0  0
  -18.0167  -28.1302   22.8626 C   0  0  0  0  0  0  0  0  0107  0  0
  -24.1342  -36.7390   23.2568 C   0  0  0  0  0  0  0  0  0108  0  0
  -25.9141  -30.8882   21.3456 C   0  0  0  0  0  0  0  0  0109  0  0
  -25.9930  -29.5029   20.7208 C   0  0  0  0  0  0  0  0  0110  0  0
  -27.1758  -28.7612   20.7331 C   0  0  0  0  0  0  0  0  0111  0  0
  -26.1032  -26.9836   19.5230 C   0  0  0  0  0  0  0  0  0112  0  0
  -24.9097  -27.7011   19.5331 C   0  0  0  0  0  0  0  0  0113  0  0
  -23.5715  -29.7899   20.1582 C   0  0  0  0  0  0  0  0  0114  0  0
  -25.3990  -36.3212   24.0232 C   0  0  1  0  0  0  0  0  0115  0  0
  -20.5793  -28.3813   23.1004 C   0  0  2  0  0  0  0  0  0116  0  0
  -20.6548  -26.9392   22.5411 C   0  0  0  0  0  0  0  0  0117  0  0
  -19.5615  -26.6407   21.5143 C   0  0  0  0  0  0  0  0  0118  0  0
  -18.1797  -26.7818   22.1673 C   0  0  0  0  0  0  0  0  0119  0  0
  -19.1385  -28.8769   23.2988 C   0  0  0  0  0  0  0  0  0120  0  0
  -18.9183  -30.1286   23.8878 C   0  0  0  0  0  0  0  0  0121  0  0
  -17.6396  -30.6493   24.0352 C   0  0  0  0  0  0  0  0  0122  0  0
  -25.9153  -34.9582   23.4993 C   0  0  0  0  0  0  0  0  0123  0  0
  -16.5415  -29.9068   23.6254 C   0  0  0  0  0  0  0  0  0124  0  0
  -16.7331  -28.6521   23.0586 C   0  0  0  0  0  0  0  0  0125  0  0
  -26.4583  -31.6439   25.0683 C   0  0  0  0  0  0  0  0  0126  0  0
  -25.3807  -31.3179   26.1374 C   0  0  0  0  0  0  0  0  0127  0  0
  -27.0530  -30.3024   24.5680 C   0  0  0  0  0  0  0  0  0128  0  0
  -27.6014  -32.4281   25.7651 C   0  0  0  0  0  0  0  0  0129  0  0
  -27.5629  -37.2220   24.8621 C   0  0  0  0  0  0  0  0  0130  0  0
  -21.4133  -29.3375   22.3735 N   0  0  0  0  0  0  0  0  0131  0  0
  -26.4706  -37.3372   23.9061 N   0  0  0  0  0  0  0  0  0132  0  0
  -24.6674  -31.0544   22.1178 N   0  0  0  0  0  0  0  0  0133  0  0
  -23.4259  -28.8150   23.2971 O   0  0  0  0  0  0  0  0  0134  0  0
  -28.3948  -26.7345   20.0089 O   0  0  0  0  0  0  0  0  0135  0  0
  -26.5870  -34.9065   22.4671 O   0  0  0  0  0  0  0  0  0136  0  0
  -23.5365  -32.1254   23.7833 O   0  0  0  0  0  0  0  0  0137  0  0
  -26.9567  -18.4922   18.7801 C   0  0  0  0  0  0  0  0  0  0  0  0
  -28.0581  -17.6932   19.0868 C   0  0  0  0  0  0  0  0  0  0  0  0
  -26.6648  -17.2927   16.7033 C   0  0  0  0  0  0  0  0  0  0  0  0
  -26.2600  -18.2920   17.5883 C   0  0  0  0  0  0  0  0  0  0  0  0
  -28.4629  -16.6939   18.2018 C   0  0  0  0  0  0  0  0  0  0  0  0
  -27.7662  -16.4937   17.0100 C   0  0  0  0  0  0  0  0  0  0  0  0
  -23.0395  -19.1228   15.9762 C   0  0  0  0  0  0  0  0  0  0  0  0
  -24.6959  -20.1345   18.1545 C   0  0  0  0  0  0  0  0  0  0  0  0
  -22.4290  -19.7417   17.2060 C   0  0  0  0  0  0  0  0  0  0  0  0
  -24.5502  -19.0397   15.9223 C   0  0  0  0  0  0  0  0  0  0  0  0
  -23.3919  -20.8074   17.7214 C   0  0  1  0  0  0  0  0  0  0  0  0
  -29.8794  -14.6837   17.7397 C   0  0  0  0  0  0  0  0  0  0  0  0
  -22.7593  -21.5901   18.8689 C   0  0  0  0  0  0  0  0  0  1  0  0
  -25.1219  -19.1176   17.2719 N   0  0  0  0  0  0  0  0  0  0  0  0
  -28.1588  -15.4870   16.0994 N   0  0  0  0  0  0  0  0  0  0  0  0
  -29.6054  -15.8799   18.5416 N   0  0  0  0  0  0  0  0  0  0  0  0
  -22.3443  -18.7667   15.0252 O   0  0  0  0  0  0  0  0  0  0  0  0
  -25.2954  -20.5109   19.1616 O   0  0  0  0  0  0  0  0  0  0  0  0
  -31.4485  -12.4701   19.0860 H   0  0  0  0  0  0  0  0  0  0  0  0
  -30.3970  -11.2460   19.6950 H   0  0  0  0  0  0  0  0  0  0  0  0
  -29.6870  -11.8204   17.4226 H   0  0  0  0  0  0  0  0  0  0  0  0
  -29.6375  -13.5326   17.8649 H   0  0  0  0  0  0  0  0  0  0  0  0
  -27.7830  -11.3650   18.7904 H   0  0  0  0  0  0  0  0  0  0  0  0
  -27.4028  -12.7801   17.8021 H   0  0  0  0  0  0  0  0  0  0  0  0
  -27.7353  -14.2503   19.6136 H   0  0  0  0  0  0  0  0  0  0  0  0
  -28.5890  -11.9550   21.3832 H   0  0  0  0  0  0  0  0  0  0  0  0
  -28.5005  -13.6134   21.8562 H   0  0  0  0  0  0  0  0  0  0  0  0
  -25.2399   -9.5495   22.4318 H   0  0  0  0  0  0  0  0  0  0  0  0
  -23.9663   -7.5070   22.7297 H   0  0  0  0  0  0  0  0  0  0  0  0
  -21.1515   -8.8641   19.9162 H   0  0  0  0  0  0  0  0  0  0  0  0
  -22.4016  -10.9115   19.6476 H   0  0  0  0  0  0  0  0  0  0  0  0
  -21.2319   -7.5552   23.9750 H   0  0  0  0  0  0  0  0  0  0  0  0
  -21.1589   -6.0228   25.8556 H   0  0  0  0  0  0  0  0  0  0  0  0
  -22.0396   -2.8212   23.2809 H   0  0  0  0  0  0  0  0  0  0  0  0
  -22.4401  -11.9703   22.4008 H   0  0  0  0  0  0  0  0  0  0  0  0
  -21.1493  -13.0679   22.2082 H   0  0  0  0  0  0  0  0  0  0  0  0
  -24.6538  -15.7807   20.5848 H   0  0  0  0  0  0  0  0  0  0  0  0
  -26.2762  -15.5453   20.1156 H   0  0  0  0  0  0  0  0  0  0  0  0
  -26.6778  -32.4663   23.1464 H   0  0  0  0  0  0  0  0  0  0  0  0
  -25.0747  -34.0282   25.0566 H   0  0  0  0  0  0  0  0  0  0  0  0
  -22.7881  -31.3489   21.4131 H   0  0  0  0  0  0  0  0  0  0  0  0
  -23.3854  -35.9823   23.3648 H   0  0  0  0  0  0  0  0  0  0  0  0
  -24.3696  -36.8624   22.2204 H   0  0  0  0  0  0  0  0  0  0  0  0
  -23.7669  -37.6632   23.6516 H   0  0  0  0  0  0  0  0  0  0  0  0
  -25.9445  -31.6237   20.5691 H   0  0  0  0  0  0  0  0  0  0  0  0
  -26.7436  -31.0079   22.0108 H   0  0  0  0  0  0  0  0  0  0  0  0
  -28.0090  -29.1452   21.2057 H   0  0  0  0  0  0  0  0  0  0  0  0
  -26.1369  -26.0560   19.0719 H   0  0  0  0  0  0  0  0  0  0  0  0
  -24.0652  -27.2961   19.0997 H   0  0  0  0  0  0  0  0  0  0  0  0
  -23.6156  -30.5365   19.3930 H   0  0  0  0  0  0  0  0  0  0  0  0
  -22.7355  -29.1425   19.9945 H   0  0  0  0  0  0  0  0  0  0  0  0
  -25.1353  -36.2335   25.0565 H   0  0  0  0  0  0  0  0  0  0  0  0
  -21.0070  -28.3206   24.0793 H   0  0  0  0  0  0  0  0  0  0  0  0
  -20.5555  -26.2518   23.3550 H   0  0  0  0  0  0  0  0  0  0  0  0
  -21.5974  -26.8362   22.0454 H   0  0  0  0  0  0  0  0  0  0  0  0
  -19.6810  -25.6422   21.1488 H   0  0  0  0  0  0  0  0  0  0  0  0
  -19.6406  -27.3343   20.7034 H   0  0  0  0  0  0  0  0  0  0  0  0
  -17.4282  -26.6888   21.4113 H   0  0  0  0  0  0  0  0  0  0  0  0
  -18.0803  -26.0130   22.9049 H   0  0  0  0  0  0  0  0  0  0  0  0
  -19.7265  -30.6774   24.2204 H   0  0  0  0  0  0  0  0  0  0  0  0
  -17.5064  -31.5856   24.4483 H   0  0  0  0  0  0  0  0  0  0  0  0
  -15.5878  -30.2839   23.7407 H   0  0  0  0  0  0  0  0  0  0  0  0
  -15.9120  -28.0941   22.7766 H   0  0  0  0  0  0  0  0  0  0  0  0
  -24.5787  -30.7757   25.6817 H   0  0  0  0  0  0  0  0  0  0  0  0
  -25.0041  -32.2289   26.5536 H   0  0  0  0  0  0  0  0  0  0  0  0
  -25.8166  -30.7245   26.9138 H   0  0  0  0  0  0  0  0  0  0  0  0
  -26.2892  -29.7335   24.0803 H   0  0  0  0  0  0  0  0  0  0  0  0
  -27.4336  -29.7484   25.4006 H   0  0  0  0  0  0  0  0  0  0  0  0
  -27.8466  -30.4994   23.8779 H   0  0  0  0  0  0  0  0  0  0  0  0
  -27.2251  -33.3632   26.1242 H   0  0  0  0  0  0  0  0  0  0  0  0
  -28.3902  -32.6065   25.0645 H   0  0  0  0  0  0  0  0  0  0  0  0
  -27.9772  -31.8555   26.5872 H   0  0  0  0  0  0  0  0  0  0  0  0
  -28.2744  -38.0016   24.6863 H   0  0  0  0  0  0  0  0  0  0  0  0
  -28.0396  -36.2711   24.7461 H   0  0  0  0  0  0  0  0  0  0  0  0
  -27.1773  -37.3087   25.8564 H   0  0  0  0  0  0  0  0  0  0  0  0
  -20.9627  -29.9365   21.7352 H   0  0  0  0  0  0  0  0  0  0  0  0
  -26.0447  -38.2561   24.0273 H   0  0  0  0  0  0  0  0  0  0  0  0
  -26.6572  -19.2315   19.4349 H   0  0  0  0  0  0  0  0  0  0  0  0
  -28.5735  -17.8414   19.9685 H   0  0  0  0  0  0  0  0  0  0  0  0
  -26.1494  -17.1445   15.8216 H   0  0  0  0  0  0  0  0  0  0  0  0
  -22.2813  -18.9922   17.9552 H   0  0  0  0  0  0  0  0  0  0  0  0
  -21.4803  -20.1779   16.9722 H   0  0  0  0  0  0  0  0  0  0  0  0
  -24.9259  -19.8508   15.3342 H   0  0  0  0  0  0  0  0  0  0  0  0
  -24.8281  -18.1039   15.4842 H   0  0  0  0  0  0  0  0  0  0  0  0
  -23.6081  -21.5072   16.9413 H   0  0  0  0  0  0  0  0  0  0  0  0
  -29.5538  -14.8465   16.7335 H   0  0  0  0  0  0  0  0  0  0  0  0
  -29.3541  -13.8486   18.1539 H   0  0  0  0  0  0  0  0  0  0  0  0
  -30.9304  -14.4829   17.7464 H   0  0  0  0  0  0  0  0  0  0  0  0
  -22.5928  -20.9777   19.7304 H   0  0  0  0  0  0  0  0  0  0  0  0
  -21.7906  -21.9997   18.6720 H   0  0  0  0  0  0  0  0  0  0  0  0
  -27.6572  -15.3577   15.2622 H   0  0  0  0  0  0  0  0  0  0  0  0
  -28.9340  -14.9150   16.3022 H   0  0  0  0  0  0  0  0  0  0  0  0
  1 25  1  0
  1 30  2  0
  1 86  1  0
  2  3  1  0
  2 25  1  0
  2 89  1  0
  2 90  1  0
  3  4  1  0
  3 91  1  0
  3 92  1  0
  4  5  1  0
  4 93  1  0
  4 94  1  0
  5  6  1  0
  5 26  1  0
  5 95  1  6
  6 25  1  0
  6 96  1  0
  6 97  1  0
  7  8  2  0
  7 26  1  0
  7 29  1  0
  8  9  1  0
  8 22  1  0
  9 10  1  0
  9 27  2  0
 10 11  2  0
 10 15  1  0
 11 12  1  0
 11 98  1  0
 12 13  2  0
 12 99  1  0
 13 14  1  0
 13 31  1  0
 14 15  2  0
 14100  1  0
 15101  1  0
 16 17  2  0
 16 21  1  0
 16 31  1  0
 17 18  1  0
 17102  1  0
 18 19  2  0
 18103  1  0
 19 20  1  0
 19 24  1  0
 20 21  2  0
 20104  1  0
 21 23  1  0
 22 28  1  0
 22 32  2  0
 26 27  1  0
 28105  1  0
 28106  1  0
 29107  1  0
 29108  1  0
 33 34  1  0
 33 66  1  0
 33 70  2  0
 34 36  1  0
 34 59  1  0
 34109  1  6
 35 44  2  0
 35 45  1  0
 35 68  1  0
 36 56  1  0
 36110  1  0
 37 39  1  0
 37 47  1  0
 37 66  1  0
 37111  1  6
 38 43  2  0
 38 46  1  0
 38 47  1  0
 39 64  1  0
 39 67  2  0
 40 52  1  0
 40 53  2  0
 40 58  1  0
 41112  1  0
 41113  1  0
 41114  1  0
 42 43  1  0
 42 66  1  0
 42115  1  0
 42116  1  0
 43 44  1  0
 44117  1  0
 45 46  2  0
 45118  1  0
 46119  1  0
 47120  1  0
 47121  1  0
 48 41  1  0
 48 56  1  0
 48 65  1  0
 48122  1  1
 49 50  1  0
 49 53  1  0
 49 64  1  0
 49123  1  1
 50 51  1  0
 50124  1  0
 50125  1  0
 51 52  1  0
 51126  1  0
 51127  1  0
 52128  1  0
 52129  1  0
 53 54  1  0
 54 55  2  0
 54130  1  0
 55 57  1  0
 55131  1  0
 56 69  2  0
 57 58  2  0
 57132  1  0
 58133  1  0
 59 60  1  0
 59 61  1  0
 59 62  1  0
 60134  1  0
 60135  1  0
 60136  1  0
 61137  1  0
 61138  1  0
 61139  1  0
 62140  1  0
 62141  1  0
 62142  1  0
 63 65  1  0
 63143  1  0
 63144  1  0
 63145  1  0
 64146  1  0
 65147  1  0
 68 83  1  0
 71 72  2  0
 71 74  1  0
 71148  1  0
 72 75  1  0
 72149  1  0
 73 74  2  0
 73 76  1  0
 73150  1  0
 74 84  1  0
 75 76  2  0
 75 86  1  0
 76 85  1  0
 77 79  1  0
 77 80  1  0
 77 87  2  0
 78 81  1  0
 78 84  1  0
 78 88  2  0
 79 81  1  0
 79151  1  0
 79152  1  0
 80 84  1  0
 80153  1  0
 80154  1  0
 81 83  1  0
 81155  1  6
 82 86  1  0
 82156  1  0
 82157  1  0
 82158  1  0
 83159  1  0
 83160  1  0
 85161  1  0
 85162  1  0
M  ISO  4   1 100  68 101  83 101  86 100
M  END
$$$$
14
     RDKit          3D

158167  0  0  0  0  0  0  0  0999 V2000
  -30.7652  -14.3608   20.6636 C   0  0  0  0  0  0  0  0  0100  0  0
  -30.4392  -12.2669   19.3775 C   0  0  0  0  0  0  0  0  0101  0  0
  -29.4791  -12.5281   18.1977 C   0  0  0  0  0  0  0  0  0102  0  0
  -27.9985  -12.3963   18.6038 C   0  0  0  0  0  0  0  0  0103  0  0
  -27.6639  -13.2170   19.8820 C   0  0  2  0  0  0  0  0  0104  0  0
  -28.6795  -12.9602   21.0279 C   0  0  0  0  0  0  0  0  0105  0  0
  -25.2633  -13.8245   20.5754 C   0  0  0  0  0  0  0  0  0106  0  0
  -24.1645  -13.0409   20.9408 C   0  0  0  0  0  0  0  0  0107  0  0
  -24.6400  -11.7009   20.8697 C   0  0  0  0  0  0  0  0  0108  0  0
  -23.9005  -10.4085   21.0420 C   0  0  0  0  0  0  0  0  0109  0  0
  -24.3588   -9.4123   21.9123 C   0  0  0  0  0  0  0  0  0110  0  0
  -23.6296   -8.2350   22.0803 C   0  0  0  0  0  0  0  0  0111  0  0
  -22.4385   -8.0419   21.3657 C   0  0  0  0  0  0  0  0  0112  0  0
  -22.0103   -9.0167   20.4678 C   0  0  0  0  0  0  0  0  0113  0  0
  -22.7317  -10.1925   20.3102 C   0  0  0  0  0  0  0  0  0114  0  0
  -21.6857   -6.0709   22.5391 C   0  0  0  0  0  0  0  0  0115  0  0
  -21.4064   -6.5490   23.8264 C   0  0  0  0  0  0  0  0  0116  0  0
  -21.3635   -5.6677   24.9085 C   0  0  0  0  0  0  0  0  0117  0  0
  -21.5973   -4.3067   24.7088 C   0  0  0  0  0  0  0  0  0118  0  0
  -21.8700   -3.8284   23.4282 C   0  0  0  0  0  0  0  0  0119  0  0
  -21.9144   -4.7056   22.3460 C   0  0  0  0  0  0  0  0  0120  0  0
  -22.8194  -13.5263   21.1763 C   0  0  0  0  0  0  0  0  0121  0  0
  -22.1559   -4.2206   21.1063 F   0  0  0  0  0  0  0  0  0122  0  0
  -21.5628   -3.4510   25.7555 F   0  0  0  0  0  0  0  0  0123  0  0
  -30.0261  -13.1803   20.4553 N   0  0  0  0  0  0  0  0  0124  0  0
  -26.2911  -12.9356   20.3443 N   0  0  0  0  0  0  0  0  0125  0  0
  -25.9236  -11.6675   20.5847 N   0  0  0  0  0  0  0  0  0126  0  0
  -22.0708  -12.7905   22.0005 N   0  0  0  0  0  0  0  0  0127  0  0
  -25.4117  -15.1773   20.4097 N   0  0  0  0  0  0  0  0  0128  0  0
  -31.7916  -14.6724   20.0536 O   0  0  0  0  0  0  0  0  0129  0  0
  -21.6670   -6.9022   21.4423 O   0  0  0  0  0  0  0  0  0130  0  0
  -22.3946  -14.5564   20.6568 O   0  0  0  0  0  0  0  0  0131  0  0
  -24.6048  -31.8614   23.2223 C   0  0  0  0  0  0  0  0  0100  0  0
  -25.8822  -32.4841   23.8616 C   0  0  1  0  0  0  0  0  0101  0  0
  -27.2536  -27.5042   20.1156 C   0  0  0  0  0  0  0  0  0102  0  0
  -25.5726  -33.8762   24.2210 N   0  0  0  0  0  0  0  0  0103  0  0
  -23.4066  -30.4859   21.5461 C   0  0  2  0  0  0  0  0  0104  0  0
  -24.8467  -28.9636   20.1247 C   0  0  0  0  0  0  0  0  0105  0  0
  -22.7412  -29.4652   22.5052 C   0  0  0  0  0  0  0  0  0106  0  0
  -18.0167  -28.1302   22.8626 C   0  0  0  0  0  0  0  0  0107  0  0
  -24.1342  -36.7390   23.2568 C   0  0  0  0  0  0  0  0  0108  0  0
  -25.9141  -30.8882   21.3456 C   0  0  0  0  0  0  0  0  0109  0  0
  -25.9930  -29.5029   20.7208 C   0  0  0  0  0  0  0  0  0110  0  0
  -27.1758  -28.7612   20.7331 C   0  0  0  0  0  0  0  0  0111  0  0
  -26.1032  -26.9836   19.5230 C   0  0  0  0  0  0  0  0  0112  0  0
  -24.9097  -27.7011   19.5331 C   0  0  0  0  0  0  0  0  0113  0  0
  -23.5715  -29.7899   20.1582 C   0  0  0  0  0  0  0  0  0114  0  0
  -25.3990  -36.3212   24.0232 C   0  0  1  0  0  0  0  0  0115  0  0
  -20.5793  -28.3813   23.1004 C   0  0  2  0  0  0  0  0  0116  0  0
  -20.6548  -26.9392   22.5411 C   0  0  0  0  0  0  0  0  0117  0  0
  -19.5615  -26.6407   21.5143 C   0  0  0  0  0  0  0  0  0118  0  0
  -18.1797  -26.7818   22.1673 C   0  0  0  0  0  0  0  0  0119  0  0
  -19.1385  -28.8769   23.2988 C   0  0  0  0  0  0  0  0  0120  0  0
  -18.9183  -30.1286   23.8878 C   0  0  0  0  0  0  0  0  0121  0  0
  -17.6396  -30.6493   24.0352 C   0  0  0  0  0  0  0  0  0122  0  0
  -25.9153  -34.9582   23.4993 C   0  0  0  0  0  0  0  0  0123  0  0
  -16.5415  -29.9068   23.6254 C   0  0  0  0  0  0  0  0  0124  0  0
  -16.7331  -28.6521   23.0586 C   0  0  0  0  0  0  0  0  0125  0  0
  -26.4583  -31.6439   25.0683 C   0  0  0  0  0  0  0  0  0126  0  0
  -25.3807  -31.3179   26.1374 C   0  0  0  0  0  0  0  0  0127  0  0
  -27.0530  -30.3024   24.5680 C   0  0  0  0  0  0  0  0  0128  0  0
  -27.6014  -32.4281   25.7651 C   0  0  0  0  0  0  0  0  0129  0  0
  -27.5629  -37.2220   24.8621 C   0  0  0  0  0  0  0  0  0130  0  0
  -21.4133  -29.3375   22.3735 N   0  0  0  0  0  0  0  0  0131  0  0
  -26.4706  -37.3372   23.9061 N   0  0  0  0  0  0  0  0  0132  0  0
  -24.6674  -31.0544   22.1178 N   0  0  0  0  0  0  0  0  0133  0  0
  -23.4259  -28.8150   23.2971 O   0  0  0  0  0  0  0  0  0134  0  0
  -28.3948  -26.7345   20.0089 O   0  0  0  0  0  0  0  0  0135  0  0
  -26.5870  -34.9065   22.4671 O   0  0  0  0  0  0  0  0  0136  0  0
  -23.5365  -32.1254   23.7833 O   0  0  0  0  0  0  0  0  0137  0  0
  -32.3538  -18.8526   21.1988 C   0  0  0  0  0  0  0  0  0  0  0  0
  -31.8752  -17.5966   20.8261 C   0  0  0  0  0  0  0  0  0  0  0  0
  -30.1480  -19.7867   20.8836 C   0  0  0  0  0  0  0  0  0  0  0  0
  -31.4902  -19.9477   21.2276 C   0  0  0  0  0  0  0  0  0  0  0  0
  -30.5331  -17.4356   20.4820 C   0  0  0  0  0  0  0  0  0  0  0  0
  -29.6695  -18.5306   20.5107 C   0  0  0  0  0  0  0  0  0  0  0  0
  -33.0553  -21.3739   22.5186 C   0  0  0  0  0  0  0  0  0  0  0  0
  -33.7014  -22.7429   22.6176 C   0  0  0  0  0  0  0  0  0  0  0  0
  -32.7400  -23.9001   22.4579 C   0  0  0  0  0  0  0  0  0  0  0  0
  -31.2009  -22.4256   21.1929 C   0  0  0  0  0  0  0  0  0  0  0  0
  -31.9865  -23.7353   21.1483 C   0  0  1  0  0  0  0  0  0  0  0  0
  -31.0542  -24.9191   20.8994 C   0  0  0  0  0  0  0  0  0  1  0  0
  -31.9867  -21.2513   21.6138 N   0  0  0  0  0  0  0  0  0  0  0  0
  -30.0500  -16.1585   20.1032 N   0  0  0  0  0  0  0  0  0  0  0  0
  -33.5399  -20.4547   23.1841 O   0  0  0  0  0  0  0  0  0  0  0  0
  -28.3778  -18.3880   20.1806 F   0  0  0  0  0  0  0  0  0  0  0  0
  -31.4485  -12.4701   19.0860 H   0  0  0  0  0  0  0  0  0  0  0  0
  -30.3970  -11.2460   19.6950 H   0  0  0  0  0  0  0  0  0  0  0  0
  -29.6870  -11.8204   17.4226 H   0  0  0  0  0  0  0  0  0  0  0  0
  -29.6375  -13.5326   17.8649 H   0  0  0  0  0  0  0  0  0  0  0  0
  -27.7830  -11.3650   18.7904 H   0  0  0  0  0  0  0  0  0  0  0  0
  -27.4028  -12.7801   17.8021 H   0  0  0  0  0  0  0  0  0  0  0  0
  -27.7353  -14.2503   19.6136 H   0  0  0  0  0  0  0  0  0  0  0  0
  -28.5890  -11.9550   21.3832 H   0  0  0  0  0  0  0  0  0  0  0  0
  -28.5005  -13.6134   21.8562 H   0  0  0  0  0  0  0  0  0  0  0  0
  -25.2399   -9.5495   22.4318 H   0  0  0  0  0  0  0  0  0  0  0  0
  -23.9663   -7.5070   22.7297 H   0  0  0  0  0  0  0  0  0  0  0  0
  -21.1515   -8.8641   19.9162 H   0  0  0  0  0  0  0  0  0  0  0  0
  -22.4016  -10.9115   19.6476 H   0  0  0  0  0  0  0  0  0  0  0  0
  -21.2319   -7.5552   23.9750 H   0  0  0  0  0  0  0  0  0  0  0  0
  -21.1589   -6.0228   25.8556 H   0  0  0  0  0  0  0  0  0  0  0  0
  -22.0396   -2.8212   23.2809 H   0  0  0  0  0  0  0  0  0  0  0  0
  -22.4401  -11.9703   22.4008 H   0  0  0  0  0  0  0  0  0  0  0  0
  -21.1493  -13.0679   22.2082 H   0  0  0  0  0  0  0  0  0  0  0  0
  -24.6538  -15.7807   20.5848 H   0  0  0  0  0  0  0  0  0  0  0  0
  -26.2762  -15.5453   20.1156 H   0  0  0  0  0  0  0  0  0  0  0  0
  -26.6778  -32.4663   23.1464 H   0  0  0  0  0  0  0  0  0  0  0  0
  -25.0747  -34.0282   25.0566 H   0  0  0  0  0  0  0  0  0  0  0  0
  -22.7881  -31.3489   21.4131 H   0  0  0  0  0  0  0  0  0  0  0  0
  -23.3854  -35.9823   23.3648 H   0  0  0  0  0  0  0  0  0  0  0  0
  -24.3696  -36.8624   22.2204 H   0  0  0  0  0  0  0  0  0  0  0  0
  -23.7669  -37.6632   23.6516 H   0  0  0  0  0  0  0  0  0  0  0  0
  -25.9445  -31.6237   20.5691 H   0  0  0  0  0  0  0  0  0  0  0  0
  -26.7436  -31.0079   22.0108 H   0  0  0  0  0  0  0  0  0  0  0  0
  -28.0090  -29.1452   21.2057 H   0  0  0  0  0  0  0  0  0  0  0  0
  -26.1369  -26.0560   19.0719 H   0  0  0  0  0  0  0  0  0  0  0  0
  -24.0652  -27.2961   19.0997 H   0  0  0  0  0  0  0  0  0  0  0  0
  -23.6156  -30.5365   19.3930 H   0  0  0  0  0  0  0  0  0  0  0  0
  -22.7355  -29.1425   19.9945 H   0  0  0  0  0  0  0  0  0  0  0  0
  -25.1353  -36.2335   25.0565 H   0  0  0  0  0  0  0  0  0  0  0  0
  -21.0070  -28.3206   24.0793 H   0  0  0  0  0  0  0  0  0  0  0  0
  -20.5555  -26.2518   23.3550 H   0  0  0  0  0  0  0  0  0  0  0  0
  -21.5974  -26.8362   22.0454 H   0  0  0  0  0  0  0  0  0  0  0  0
  -19.6810  -25.6422   21.1488 H   0  0  0  0  0  0  0  0  0  0  0  0
  -19.6406  -27.3343   20.7034 H   0  0  0  0  0  0  0  0  0  0  0  0
  -17.4282  -26.6888   21.4113 H   0  0  0  0  0  0  0  0  0  0  0  0
  -18.0803  -26.0130   22.9049 H   0  0  0  0  0  0  0  0  0  0  0  0
  -19.7265  -30.6774   24.2204 H   0  0  0  0  0  0  0  0  0  0  0  0
  -17.5064  -31.5856   24.4483 H   0  0  0  0  0  0  0  0  0  0  0  0
  -15.5878  -30.2839   23.7407 H   0  0  0  0  0  0  0  0  0  0  0  0
  -15.9120  -28.0941   22.7766 H   0  0  0  0  0  0  0  0  0  0  0  0
  -24.5787  -30.7757   25.6817 H   0  0  0  0  0  0  0  0  0  0  0  0
  -25.0041  -32.2289   26.5536 H   0  0  0  0  0  0  0  0  0  0  0  0
  -25.8166  -30.7245   26.9138 H   0  0  0  0  0  0  0  0  0  0  0  0
  -26.2892  -29.7335   24.0803 H   0  0  0  0  0  0  0  0  0  0  0  0
  -27.4336  -29.7484   25.4006 H   0  0  0  0  0  0  0  0  0  0  0  0
  -27.8466  -30.4994   23.8779 H   0  0  0  0  0  0  0  0  0  0  0  0
  -27.2251  -33.3632   26.1242 H   0  0  0  0  0  0  0  0  0  0  0  0
  -28.3902  -32.6065   25.0645 H   0  0  0  0  0  0  0  0  0  0  0  0
  -27.9772  -31.8555   26.5872 H   0  0  0  0  0  0  0  0  0  0  0  0
  -28.2744  -38.0016   24.6863 H   0  0  0  0  0  0  0  0  0  0  0  0
  -28.0396  -36.2711   24.7461 H   0  0  0  0  0  0  0  0  0  0  0  0
  -27.1773  -37.3087   25.8564 H   0  0  0  0  0  0  0  0  0  0  0  0
  -20.9627  -29.9365   21.7352 H   0  0  0  0  0  0  0  0  0  0  0  0
  -26.0447  -38.2561   24.0273 H   0  0  0  0  0  0  0  0  0  0  0  0
  -33.3468  -18.9717   21.4533 H   0  0  0  0  0  0  0  0  0  0  0  0
  -32.5141  -16.7864   20.8049 H   0  0  0  0  0  0  0  0  0  0  0  0
  -29.5090  -20.5968   20.9050 H   0  0  0  0  0  0  0  0  0  0  0  0
  -34.4456  -22.8180   21.8525 H   0  0  0  0  0  0  0  0  0  0  0  0
  -34.1088  -22.8180   23.6042 H   0  0  0  0  0  0  0  0  0  0  0  0
  -33.2848  -24.8209   22.4457 H   0  0  0  0  0  0  0  0  0  0  0  0
  -32.0493  -23.9136   23.2750 H   0  0  0  0  0  0  0  0  0  0  0  0
  -30.8147  -22.2348   20.2134 H   0  0  0  0  0  0  0  0  0  0  0  0
  -30.4350  -22.5569   21.9285 H   0  0  0  0  0  0  0  0  0  0  0  0
  -32.6858  -23.7060   20.3389 H   0  0  0  0  0  0  0  0  0  0  0  0
  -31.7510  -25.4672   20.3002 H   0  0  0  0  0  0  0  0  0  0  0  0
  -30.4734  -24.5692   21.7272 H   0  0  0  0  0  0  0  0  0  0  0  0
  -29.2752  -16.1487   19.4959 H   0  0  0  0  0  0  0  0  0  0  0  0
  1 25  1  0
  1 30  2  0
  1 84  1  0
  2  3  1  0
  2 25  1  0
  2 87  1  0
  2 88  1  0
  3  4  1  0
  3 89  1  0
  3 90  1  0
  4  5  1  0
  4 91  1  0
  4 92  1  0
  5  6  1  0
  5 26  1  0
  5 93  1  6
  6 25  1  0
  6 94  1  0
  6 95  1  0
  7  8  2  0
  7 26  1  0
  7 29  1  0
  8  9  1  0
  8 22  1  0
  9 10  1  0
  9 27  2  0
 10 11  2  0
 10 15  1  0
 11 12  1  0
 11 96  1  0
 12 13  2  0
 12 97  1  0
 13 14  1  0
 13 31  1  0
 14 15  2  0
 14 98  1  0
 15 99  1  0
 16 17  2  0
 16 21  1  0
 16 31  1  0
 17 18  1  0
 17100  1  0
 18 19  2  0
 18101  1  0
 19 20  1  0
 19 24  1  0
 20 21  2  0
 20102  1  0
 21 23  1  0
 22 28  1  0
 22 32  2  0
 26 27  1  0
 28103  1  0
 28104  1  0
 29105  1  0
 29106  1  0
 33 34  1  0
 33 66  1  0
 33 70  2  0
 34 36  1  0
 34 59  1  0
 34107  1  6
 35 44  2  0
 35 45  1  0
 35 68  1  0
 36 56  1  0
 36108  1  0
 37 39  1  0
 37 47  1  0
 37 66  1  0
 37109  1  6
 38 43  2  0
 38 46  1  0
 38 47  1  0
 39 64  1  0
 39 67  2  0
 40 52  1  0
 40 53  2  0
 40 58  1  0
 41110  1  0
 41111  1  0
 41112  1  0
 42 43  1  0
 42 66  1  0
 42113  1  0
 42114  1  0
 43 44  1  0
 44115  1  0
 45 46  2  0
 45116  1  0
 46117  1  0
 47118  1  0
 47119  1  0
 48 41  1  0
 48 56  1  0
 48 65  1  0
 48120  1  1
 49 50  1  0
 49 53  1  0
 49 64  1  0
 49121  1  1
 50 51  1  0
 50122  1  0
 50123  1  0
 51 52  1  0
 51124  1  0
 51125  1  0
 52126  1  0
 52127  1  0
 53 54  1  0
 54 55  2  0
 54128  1  0
 55 57  1  0
 55129  1  0
 56 69  2  0
 57 58  2  0
 57130  1  0
 58131  1  0
 59 60  1  0
 59 61  1  0
 59 62  1  0
 60132  1  0
 60133  1  0
 60134  1  0
 61135  1  0
 61136  1  0
 61137  1  0
 62138  1  0
 62139  1  0
 62140  1  0
 63 65  1  0
 63141  1  0
 63142  1  0
 63143  1  0
 64144  1  0
 65145  1  0
 68 82  1  0
 71 72  2  0
 71 74  1  0
 71146  1  0
 72 75  1  0
 72147  1  0
 73 74  2  0
 73 76  1  0
 73148  1  0
 74 83  1  0
 75 76  2  0
 75 84  1  0
 76 86  1  0
 77 78  1  0
 77 83  1  0
 77 85  2  0
 78 79  1  0
 78149  1  0
 78150  1  0
 79 81  1  0
 79151  1  0
 79152  1  0
 80 81  1  0
 80 83  1  0
 80153  1  0
 80154  1  0
 81 82  1  0
 81155  1  6
 82156  1  0
 82157  1  0
 84158  1  0
M  ISO  4   1 100  68 101  82 101  84 100
M  END
$$$$
15
     RDKit          3D

161170  0  0  0  0  0  0  0  0999 V2000
  -30.7652  -14.3608   20.6636 C   0  0  0  0  0  0  0  0  0100  0  0
  -30.4392  -12.2669   19.3775 C   0  0  0  0  0  0  0  0  0101  0  0
  -29.4791  -12.5281   18.1977 C   0  0  0  0  0  0  0  0  0102  0  0
  -27.9985  -12.3963   18.6038 C   0  0  0  0  0  0  0  0  0103  0  0
  -27.6639  -13.2170   19.8820 C   0  0  2  0  0  0  0  0  0104  0  0
  -28.6795  -12.9602   21.0279 C   0  0  0  0  0  0  0  0  0105  0  0
  -25.2633  -13.8245   20.5754 C   0  0  0  0  0  0  0  0  0106  0  0
  -24.1645  -13.0409   20.9408 C   0  0  0  0  0  0  0  0  0107  0  0
  -24.6400  -11.7009   20.8697 C   0  0  0  0  0  0  0  0  0108  0  0
  -23.9005  -10.4085   21.0420 C   0  0  0  0  0  0  0  0  0109  0  0
  -24.3588   -9.4123   21.9123 C   0  0  0  0  0  0  0  0  0110  0  0
  -23.6296   -8.2350   22.0803 C   0  0  0  0  0  0  0  0  0111  0  0
  -22.4385   -8.0419   21.3657 C   0  0  0  0  0  0  0  0  0112  0  0
  -22.0103   -9.0167   20.4678 C   0  0  0  0  0  0  0  0  0113  0  0
  -22.7317  -10.1925   20.3102 C   0  0  0  0  0  0  0  0  0114  0  0
  -21.6857   -6.0709   22.5391 C   0  0  0  0  0  0  0  0  0115  0  0
  -21.4064   -6.5490   23.8264 C   0  0  0  0  0  0  0  0  0116  0  0
  -21.3635   -5.6677   24.9085 C   0  0  0  0  0  0  0  0  0117  0  0
  -21.5973   -4.3067   24.7088 C   0  0  0  0  0  0  0  0  0118  0  0
  -21.8700   -3.8284   23.4282 C   0  0  0  0  0  0  0  0  0119  0  0
  -21.9144   -4.7056   22.3460 C   0  0  0  0  0  0  0  0  0120  0  0
  -22.8194  -13.5263   21.1763 C   0  0  0  0  0  0  0  0  0121  0  0
  -22.1559   -4.2206   21.1063 F   0  0  0  0  0  0  0  0  0122  0  0
  -21.5628   -3.4510   25.7555 F   0  0  0  0  0  0  0  0  0123  0  0
  -30.0261  -13.1803   20.4553 N   0  0  0  0  0  0  0  0  0124  0  0
  -26.2911  -12.9356   20.3443 N   0  0  0  0  0  0  0  0  0125  0  0
  -25.9236  -11.6675   20.5847 N   0  0  0  0  0  0  0  0  0126  0  0
  -22.0708  -12.7905   22.0005 N   0  0  0  0  0  0  0  0  0127  0  0
  -25.4117  -15.1773   20.4097 N   0  0  0  0  0  0  0  0  0128  0  0
  -31.7916  -14.6724   20.0536 O   0  0  0  0  0  0  0  0  0129  0  0
  -21.6670   -6.9022   21.4423 O   0  0  0  0  0  0  0  0  0130  0  0
  -22.3946  -14.5564   20.6568 O   0  0  0  0  0  0  0  0  0131  0  0
  -24.6048  -31.8614   23.2223 C   0  0  0  0  0  0  0  0  0100  0  0
  -25.8822  -32.4841   23.8616 C   0  0  1  0  0  0  0  0  0101  0  0
  -27.2536  -27.5042   20.1156 C   0  0  0  0  0  0  0  0  0102  0  0
  -25.5726  -33.8762   24.2210 N   0  0  0  0  0  0  0  0  0103  0  0
  -23.4066  -30.4859   21.5461 C   0  0  2  0  0  0  0  0  0104  0  0
  -24.8467  -28.9636   20.1247 C   0  0  0  0  0  0  0  0  0105  0  0
  -22.7412  -29.4652   22.5052 C   0  0  0  0  0  0  0  0  0106  0  0
  -18.0167  -28.1302   22.8626 C   0  0  0  0  0  0  0  0  0107  0  0
  -24.1342  -36.7390   23.2568 C   0  0  0  0  0  0  0  0  0108  0  0
  -25.9141  -30.8882   21.3456 C   0  0  0  0  0  0  0  0  0109  0  0
  -25.9930  -29.5029   20.7208 C   0  0  0  0  0  0  0  0  0110  0  0
  -27.1758  -28.7612   20.7331 C   0  0  0  0  0  0  0  0  0111  0  0
  -26.1032  -26.9836   19.5230 C   0  0  0  0  0  0  0  0  0112  0  0
  -24.9097  -27.7011   19.5331 C   0  0  0  0  0  0  0  0  0113  0  0
  -23.5715  -29.7899   20.1582 C   0  0  0  0  0  0  0  0  0114  0  0
  -25.3990  -36.3212   24.0232 C   0  0  1  0  0  0  0  0  0115  0  0
  -20.5793  -28.3813   23.1004 C   0  0  2  0  0  0  0  0  0116  0  0
  -20.6548  -26.9392   22.5411 C   0  0  0  0  0  0  0  0  0117  0  0
  -19.5615  -26.6407   21.5143 C   0  0  0  0  0  0  0  0  0118  0  0
  -18.1797  -26.7818   22.1673 C   0  0  0  0  0  0  0  0  0119  0  0
  -19.1385  -28.8769   23.2988 C   0  0  0  0  0  0  0  0  0120  0  0
  -18.9183  -30.1286   23.8878 C   0  0  0  0  0  0  0  0  0121  0  0
  -17.6396  -30.6493   24.0352 C   0  0  0  0  0  0  0  0  0122  0  0
  -25.9153  -34.9582   23.4993 C   0  0  0  0  0  0  0  0  0123  0  0
  -16.5415  -29.9068   23.6254 C   0  0  0  0  0  0  0  0  0124  0  0
  -16.7331  -28.6521   23.0586 C   0  0  0  0  0  0  0  0  0125  0  0
  -26.4583  -31.6439   25.0683 C   0  0  0  0  0  0  0  0  0126  0  0
  -25.3807  -31.3179   26.1374 C   0  0  0  0  0  0  0  0  0127  0  0
  -27.0530  -30.3024   24.5680 C   0  0  0  0  0  0  0  0  0128  0  0
  -27.6014  -32.4281   25.7651 C   0  0  0  0  0  0  0  0  0129  0  0
  -27.5629  -37.2220   24.8621 C   0  0  0  0  0  0  0  0  0130  0  0
  -21.4133  -29.3375   22.3735 N   0  0  0  0  0  0  0  0  0131  0  0
  -26.4706  -37.3372   23.9061 N   0  0  0  0  0  0  0  0  0132  0  0
  -24.6674  -31.0544   22.1178 N   0  0  0  0  0  0  0  0  0133  0  0
  -23.4259  -28.8150   23.2971 O   0  0  0  0  0  0  0  0  0134  0  0
  -28.3948  -26.7345   20.0089 O   0  0  0  0  0  0  0  0  0135  0  0
  -26.5870  -34.9065   22.4671 O   0  0  0  0  0  0  0  0  0136  0  0
  -23.5365  -32.1254   23.7833 O   0  0  0  0  0  0  0  0  0137  0  0
  -27.5406  -19.0750   21.7055 C   0  0  0  0  0  0  0  0  0  0  0  0
  -27.4184  -18.1071   22.7025 C   0  0  0  0  0  0  0  0  0  0  0  0
  -26.6342  -20.7364   23.2073 C   0  0  0  0  0  0  0  0  0  0  0  0
  -27.1485  -20.3896   21.9580 C   0  0  0  0  0  0  0  0  0  0  0  0
  -26.9041  -18.4538   23.9519 C   0  0  0  0  0  0  0  0  0  0  0  0
  -26.5120  -19.7685   24.2043 C   0  0  0  0  0  0  0  0  0  0  0  0
  -28.2869  -21.3022   19.9526 C   0  0  0  0  0  0  0  0  0  0  0  0
  -28.1481  -22.2106   18.7456 C   0  0  0  0  0  0  0  0  0  0  0  0
  -27.5442  -23.5642   19.0490 C   0  0  0  0  0  0  0  0  0  0  0  0
  -26.4471  -22.6070   21.0548 C   0  0  0  0  0  0  0  0  0  0  0  0
  -26.2097  -23.3612   19.7473 C   0  0  1  0  0  0  0  0  0  0  0  0
  -27.1323  -17.8110   26.3587 C   0  0  0  0  0  0  0  0  0  0  0  0
  -25.5191  -24.6979   20.0095 C   0  0  0  0  0  0  0  0  0  1  0  0
  -27.2746  -21.3940   20.9234 N   0  0  0  0  0  0  0  0  0  0  0  0
  -26.7784  -17.4495   24.9818 N   0  0  0  0  0  0  0  0  0  0  0  0
  -29.2331  -20.5104   19.9764 O   0  0  0  0  0  0  0  0  0  0  0  0
  -26.0148  -20.1129   25.4009 F   0  0  0  0  0  0  0  0  0  0  0  0
  -31.4485  -12.4701   19.0860 H   0  0  0  0  0  0  0  0  0  0  0  0
  -30.3970  -11.2460   19.6950 H   0  0  0  0  0  0  0  0  0  0  0  0
  -29.6870  -11.8204   17.4226 H   0  0  0  0  0  0  0  0  0  0  0  0
  -29.6375  -13.5326   17.8649 H   0  0  0  0  0  0  0  0  0  0  0  0
  -27.7830  -11.3650   18.7904 H   0  0  0  0  0  0  0  0  0  0  0  0
  -27.4028  -12.7801   17.8021 H   0  0  0  0  0  0  0  0  0  0  0  0
  -27.7353  -14.2503   19.6136 H   0  0  0  0  0  0  0  0  0  0  0  0
  -28.5890  -11.9550   21.3832 H   0  0  0  0  0  0  0  0  0  0  0  0
  -28.5005  -13.6134   21.8562 H   0  0  0  0  0  0  0  0  0  0  0  0
  -25.2399   -9.5495   22.4318 H   0  0  0  0  0  0  0  0  0  0  0  0
  -23.9663   -7.5070   22.7297 H   0  0  0  0  0  0  0  0  0  0  0  0
  -21.1515   -8.8641   19.9162 H   0  0  0  0  0  0  0  0  0  0  0  0
  -22.4016  -10.9115   19.6476 H   0  0  0  0  0  0  0  0  0  0  0  0
  -21.2319   -7.5552   23.9750 H   0  0  0  0  0  0  0  0  0  0  0  0
  -21.1589   -6.0228   25.8556 H   0  0  0  0  0  0  0  0  0  0  0  0
  -22.0396   -2.8212   23.2809 H   0  0  0  0  0  0  0  0  0  0  0  0
  -22.4401  -11.9703   22.4008 H   0  0  0  0  0  0  0  0  0  0  0  0
  -21.1493  -13.0679   22.2082 H   0  0  0  0  0  0  0  0  0  0  0  0
  -24.6538  -15.7807   20.5848 H   0  0  0  0  0  0  0  0  0  0  0  0
  -26.2762  -15.5453   20.1156 H   0  0  0  0  0  0  0  0  0  0  0  0
  -26.6778  -32.4663   23.1464 H   0  0  0  0  0  0  0  0  0  0  0  0
  -25.0747  -34.0282   25.0566 H   0  0  0  0  0  0  0  0  0  0  0  0
  -22.7881  -31.3489   21.4131 H   0  0  0  0  0  0  0  0  0  0  0  0
  -23.3854  -35.9823   23.3648 H   0  0  0  0  0  0  0  0  0  0  0  0
  -24.3696  -36.8624   22.2204 H   0  0  0  0  0  0  0  0  0  0  0  0
  -23.7669  -37.6632   23.6516 H   0  0  0  0  0  0  0  0  0  0  0  0
  -25.9445  -31.6237   20.5691 H   0  0  0  0  0  0  0  0  0  0  0  0
  -26.7436  -31.0079   22.0108 H   0  0  0  0  0  0  0  0  0  0  0  0
  -28.0090  -29.1452   21.2057 H   0  0  0  0  0  0  0  0  0  0  0  0
  -26.1369  -26.0560   19.0719 H   0  0  0  0  0  0  0  0  0  0  0  0
  -24.0652  -27.2961   19.0997 H   0  0  0  0  0  0  0  0  0  0  0  0
  -23.6156  -30.5365   19.3930 H   0  0  0  0  0  0  0  0  0  0  0  0
  -22.7355  -29.1425   19.9945 H   0  0  0  0  0  0  0  0  0  0  0  0
  -25.1353  -36.2335   25.0565 H   0  0  0  0  0  0  0  0  0  0  0  0
  -21.0070  -28.3206   24.0793 H   0  0  0  0  0  0  0  0  0  0  0  0
  -20.5555  -26.2518   23.3550 H   0  0  0  0  0  0  0  0  0  0  0  0
  -21.5974  -26.8362   22.0454 H   0  0  0  0  0  0  0  0  0  0  0  0
  -19.6810  -25.6422   21.1488 H   0  0  0  0  0  0  0  0  0  0  0  0
  -19.6406  -27.3343   20.7034 H   0  0  0  0  0  0  0  0  0  0  0  0
  -17.4282  -26.6888   21.4113 H   0  0  0  0  0  0  0  0  0  0  0  0
  -18.0803  -26.0130   22.9049 H   0  0  0  0  0  0  0  0  0  0  0  0
  -19.7265  -30.6774   24.2204 H   0  0  0  0  0  0  0  0  0  0  0  0
  -17.5064  -31.5856   24.4483 H   0  0  0  0  0  0  0  0  0  0  0  0
  -15.5878  -30.2839   23.7407 H   0  0  0  0  0  0  0  0  0  0  0  0
  -15.9120  -28.0941   22.7766 H   0  0  0  0  0  0  0  0  0  0  0  0
  -24.5787  -30.7757   25.6817 H   0  0  0  0  0  0  0  0  0  0  0  0
  -25.0041  -32.2289   26.5536 H   0  0  0  0  0  0  0  0  0  0  0  0
  -25.8166  -30.7245   26.9138 H   0  0  0  0  0  0  0  0  0  0  0  0
  -26.2892  -29.7335   24.0803 H   0  0  0  0  0  0  0  0  0  0  0  0
  -27.4336  -29.7484   25.4006 H   0  0  0  0  0  0  0  0  0  0  0  0
  -27.8466  -30.4994   23.8779 H   0  0  0  0  0  0  0  0  0  0  0  0
  -27.2251  -33.3632   26.1242 H   0  0  0  0  0  0  0  0  0  0  0  0
  -28.3902  -32.6065   25.0645 H   0  0  0  0  0  0  0  0  0  0  0  0
  -27.9772  -31.8555   26.5872 H   0  0  0  0  0  0  0  0  0  0  0  0
  -28.2744  -38.0016   24.6863 H   0  0  0  0  0  0  0  0  0  0  0  0
  -28.0396  -36.2711   24.7461 H   0  0  0  0  0  0  0  0  0  0  0  0
  -27.1773  -37.3087   25.8564 H   0  0  0  0  0  0  0  0  0  0  0  0
  -20.9627  -29.9365   21.7352 H   0  0  0  0  0  0  0  0  0  0  0  0
  -26.0447  -38.2561   24.0273 H   0  0  0  0  0  0  0  0  0  0  0  0
  -27.9211  -18.8185   20.7811 H   0  0  0  0  0  0  0  0  0  0  0  0
  -27.7085  -17.1345   22.5157 H   0  0  0  0  0  0  0  0  0  0  0  0
  -26.3441  -21.7090   23.3940 H   0  0  0  0  0  0  0  0  0  0  0  0
  -27.5255  -21.7197   18.0270 H   0  0  0  0  0  0  0  0  0  0  0  0
  -29.1387  -22.3920   18.3841 H   0  0  0  0  0  0  0  0  0  0  0  0
  -27.3943  -24.1034   18.1370 H   0  0  0  0  0  0  0  0  0  0  0  0
  -28.2032  -24.1224   19.6807 H   0  0  0  0  0  0  0  0  0  0  0  0
  -25.4958  -22.3203   21.4519 H   0  0  0  0  0  0  0  0  0  0  0  0
  -26.9863  -23.2734   21.6951 H   0  0  0  0  0  0  0  0  0  0  0  0
  -25.5633  -22.7883   19.1158 H   0  0  0  0  0  0  0  0  0  0  0  0
  -26.3011  -18.2980   26.8244 H   0  0  0  0  0  0  0  0  0  0  0  0
  -27.9734  -18.4723   26.3489 H   0  0  0  0  0  0  0  0  0  0  0  0
  -27.3805  -16.9264   26.9071 H   0  0  0  0  0  0  0  0  0  0  0  0
  -25.0104  -24.7142   20.9507 H   0  0  0  0  0  0  0  0  0  0  0  0
  -24.7476  -24.9724   19.3208 H   0  0  0  0  0  0  0  0  0  0  0  0
  1 25  1  0
  1 30  2  0
  1 85  1  0
  2  3  1  0
  2 25  1  0
  2 88  1  0
  2 89  1  0
  3  4  1  0
  3 90  1  0
  3 91  1  0
  4  5  1  0
  4 92  1  0
  4 93  1  0
  5  6  1  0
  5 26  1  0
  5 94  1  6
  6 25  1  0
  6 95  1  0
  6 96  1  0
  7  8  2  0
  7 26  1  0
  7 29  1  0
  8  9  1  0
  8 22  1  0
  9 10  1  0
  9 27  2  0
 10 11  2  0
 10 15  1  0
 11 12  1  0
 11 97  1  0
 12 13  2  0
 12 98  1  0
 13 14  1  0
 13 31  1  0
 14 15  2  0
 14 99  1  0
 15100  1  0
 16 17  2  0
 16 21  1  0
 16 31  1  0
 17 18  1  0
 17101  1  0
 18 19  2  0
 18102  1  0
 19 20  1  0
 19 24  1  0
 20 21  2  0
 20103  1  0
 21 23  1  0
 22 28  1  0
 22 32  2  0
 26 27  1  0
 28104  1  0
 28105  1  0
 29106  1  0
 29107  1  0
 33 34  1  0
 33 66  1  0
 33 70  2  0
 34 36  1  0
 34 59  1  0
 34108  1  6
 35 44  2  0
 35 45  1  0
 35 68  1  0
 36 56  1  0
 36109  1  0
 37 39  1  0
 37 47  1  0
 37 66  1  0
 37110  1  6
 38 43  2  0
 38 46  1  0
 38 47  1  0
 39 64  1  0
 39 67  2  0
 40 52  1  0
 40 53  2  0
 40 58  1  0
 41111  1  0
 41112  1  0
 41113  1  0
 42 43  1  0
 42 66  1  0
 42114  1  0
 42115  1  0
 43 44  1  0
 44116  1  0
 45 46  2  0
 45117  1  0
 46118  1  0
 47119  1  0
 47120  1  0
 48 41  1  0
 48 56  1  0
 48 65  1  0
 48121  1  1
 49 50  1  0
 49 53  1  0
 49 64  1  0
 49122  1  1
 50 51  1  0
 50123  1  0
 50124  1  0
 51 52  1  0
 51125  1  0
 51126  1  0
 52127  1  0
 52128  1  0
 53 54  1  0
 54 55  2  0
 54129  1  0
 55 57  1  0
 55130  1  0
 56 69  2  0
 57 58  2  0
 57131  1  0
 58132  1  0
 59 60  1  0
 59 61  1  0
 59 62  1  0
 60133  1  0
 60134  1  0
 60135  1  0
 61136  1  0
 61137  1  0
 61138  1  0
 62139  1  0
 62140  1  0
 62141  1  0
 63 65  1  0
 63142  1  0
 63143  1  0
 63144  1  0
 64145  1  0
 65146  1  0
 68 83  1  0
 71 72  2  0
 71 74  1  0
 71147  1  0
 72 75  1  0
 72148  1  0
 73 74  2  0
 73 76  1  0
 73149  1  0
 74 84  1  0
 75 76  2  0
 75 85  1  0
 76 87  1  0
 77 78  1  0
 77 84  1  0
 77 86  2  0
 78 79  1  0
 78150  1  0
 78151  1  0
 79 81  1  0
 79152  1  0
 79153  1  0
 80 81  1  0
 80 84  1  0
 80154  1  0
 80155  1  0
 81 83  1  0
 81156  1  6
 82 85  1  0
 82157  1  0
 82158  1  0
 82159  1  0
 83160  1  0
 83161  1  0
M  ISO  4   1 100  68 101  83 101  85 100
M  END
$$$$
16
     RDKit          3D

154162  0  0  0  0  0  0  0  0999 V2000
  -30.7652  -14.3608   20.6636 C   0  0  0  0  0  0  0  0  0100  0  0
  -30.4392  -12.2669   19.3775 C   0  0  0  0  0  0  0  0  0101  0  0
  -29.4791  -12.5281   18.1977 C   0  0  0  0  0  0  0  0  0102  0  0
  -27.9985  -12.3963   18.6038 C   0  0  0  0  0  0  0  0  0103  0  0
  -27.6639  -13.2170   19.8820 C   0  0  2  0  0  0  0  0  0104  0  0
  -28.6795  -12.9602   21.0279 C   0  0  0  0  0  0  0  0  0105  0  0
  -25.2633  -13.8245   20.5754 C   0  0  0  0  0  0  0  0  0106  0  0
  -24.1645  -13.0409   20.9408 C   0  0  0  0  0  0  0  0  0107  0  0
  -24.6400  -11.7009   20.8697 C   0  0  0  0  0  0  0  0  0108  0  0
  -23.9005  -10.4085   21.0420 C   0  0  0  0  0  0  0  0  0109  0  0
  -24.3588   -9.4123   21.9123 C   0  0  0  0  0  0  0  0  0110  0  0
  -23.6296   -8.2350   22.0803 C   0  0  0  0  0  0  0  0  0111  0  0
  -22.4385   -8.0419   21.3657 C   0  0  0  0  0  0  0  0  0112  0  0
  -22.0103   -9.0167   20.4678 C   0  0  0  0  0  0  0  0  0113  0  0
  -22.7317  -10.1925   20.3102 C   0  0  0  0  0  0  0  0  0114  0  0
  -21.6857   -6.0709   22.5391 C   0  0  0  0  0  0  0  0  0115  0  0
  -21.4064   -6.5490   23.8264 C   0  0  0  0  0  0  0  0  0116  0  0
  -21.3635   -5.6677   24.9085 C   0  0  0  0  0  0  0  0  0117  0  0
  -21.5973   -4.3067   24.7088 C   0  0  0  0  0  0  0  0  0118  0  0
  -21.8700   -3.8284   23.4282 C   0  0  0  0  0  0  0  0  0119  0  0
  -21.9144   -4.7056   22.3460 C   0  0  0  0  0  0  0  0  0120  0  0
  -22.8194  -13.5263   21.1763 C   0  0  0  0  0  0  0  0  0121  0  0
  -22.1559   -4.2206   21.1063 F   0  0  0  0  0  0  0  0  0122  0  0
  -21.5628   -3.4510   25.7555 F   0  0  0  0  0  0  0  0  0123  0  0
  -30.0261  -13.1803   20.4553 N   0  0  0  0  0  0  0  0  0124  0  0
  -26.2911  -12.9356   20.3443 N   0  0  0  0  0  0  0  0  0125  0  0
  -25.9236  -11.6675   20.5847 N   0  0  0  0  0  0  0  0  0126  0  0
  -22.0708  -12.7905   22.0005 N   0  0  0  0  0  0  0  0  0127  0  0
  -25.4117  -15.1773   20.4097 N   0  0  0  0  0  0  0  0  0128  0  0
  -31.7916  -14.6724   20.0536 O   0  0  0  0  0  0  0  0  0129  0  0
  -21.6670   -6.9022   21.4423 O   0  0  0  0  0  0  0  0  0130  0  0
  -22.3946  -14.5564   20.6568 O   0  0  0  0  0  0  0  0  0131  0  0
  -24.6048  -31.8614   23.2223 C   0  0  0  0  0  0  0  0  0100  0  0
  -25.8822  -32.4841   23.8616 C   0  0  1  0  0  0  0  0  0101  0  0
  -27.2536  -27.5042   20.1156 C   0  0  0  0  0  0  0  0  0102  0  0
  -25.5726  -33.8762   24.2210 N   0  0  0  0  0  0  0  0  0103  0  0
  -23.4066  -30.4859   21.5461 C   0  0  2  0  0  0  0  0  0104  0  0
  -24.8467  -28.9636   20.1247 C   0  0  0  0  0  0  0  0  0105  0  0
  -22.7412  -29.4652   22.5052 C   0  0  0  0  0  0  0  0  0106  0  0
  -18.0167  -28.1302   22.8626 C   0  0  0  0  0  0  0  0  0107  0  0
  -24.1342  -36.7390   23.2568 C   0  0  0  0  0  0  0  0  0108  0  0
  -25.9141  -30.8882   21.3456 C   0  0  0  0  0  0  0  0  0109  0  0
  -25.9930  -29.5029   20.7208 C   0  0  0  0  0  0  0  0  0110  0  0
  -27.1758  -28.7612   20.7331 C   0  0  0  0  0  0  0  0  0111  0  0
  -26.1032  -26.9836   19.5230 C   0  0  0  0  0  0  0  0  0112  0  0
  -24.9097  -27.7011   19.5331 C   0  0  0  0  0  0  0  0  0113  0  0
  -23.5715  -29.7899   20.1582 C   0  0  0  0  0  0  0  0  0114  0  0
  -25.3990  -36.3212   24.0232 C   0  0  1  0  0  0  0  0  0115  0  0
  -20.5793  -28.3813   23.1004 C   0  0  2  0  0  0  0  0  0116  0  0
  -20.6548  -26.9392   22.5411 C   0  0  0  0  0  0  0  0  0117  0  0
  -19.5615  -26.6407   21.5143 C   0  0  0  0  0  0  0  0  0118  0  0
  -18.1797  -26.7818   22.1673 C   0  0  0  0  0  0  0  0  0119  0  0
  -19.1385  -28.8769   23.2988 C   0  0  0  0  0  0  0  0  0120  0  0
  -18.9183  -30.1286   23.8878 C   0  0  0  0  0  0  0  0  0121  0  0
  -17.6396  -30.6493   24.0352 C   0  0  0  0  0  0  0  0  0122  0  0
  -25.9153  -34.9582   23.4993 C   0  0  0  0  0  0  0  0  0123  0  0
  -16.5415  -29.9068   23.6254 C   0  0  0  0  0  0  0  0  0124  0  0
  -16.7331  -28.6521   23.0586 C   0  0  0  0  0  0  0  0  0125  0  0
  -26.4583  -31.6439   25.0683 C   0  0  0  0  0  0  0  0  0126  0  0
  -25.3807  -31.3179   26.1374 C   0  0  0  0  0  0  0  0  0127  0  0
  -27.0530  -30.3024   24.5680 C   0  0  0  0  0  0  0  0  0128  0  0
  -27.6014  -32.4281   25.7651 C   0  0  0  0  0  0  0  0  0129  0  0
  -27.5629  -37.2220   24.8621 C   0  0  0  0  0  0  0  0  0130  0  0
  -21.4133  -29.3375   22.3735 N   0  0  0  0  0  0  0  0  0131  0  0
  -26.4706  -37.3372   23.9061 N   0  0  0  0  0  0  0  0  0132  0  0
  -24.6674  -31.0544   22.1178 N   0  0  0  0  0  0  0  0  0133  0  0
  -23.4259  -28.8150   23.2971 O   0  0  0  0  0  0  0  0  0134  0  0
  -28.3948  -26.7345   20.0089 O   0  0  0  0  0  0  0  0  0135  0  0
  -26.5870  -34.9065   22.4671 O   0  0  0  0  0  0  0  0  0136  0  0
  -23.5365  -32.1254   23.7833 O   0  0  0  0  0  0  0  0  0137  0  0
  -29.3136  -26.3804   19.5131 C   0  0  0  0  0  0  0  0  0  0  0  0
  -30.6509  -26.0040   19.7837 C   0  0  0  0  0  0  0  0  0  0  0  0
  -31.1675  -26.9869   20.5955 C   0  0  0  0  0  0  0  0  0  0  0  0
  -29.1083  -27.5663   20.1791 C   0  0  0  0  0  0  0  0  0  0  0  0
  -29.9036  -22.7781   19.5423 C   0  0  0  0  0  0  0  0  0  0  0  0
  -32.4813  -27.1896   21.2245 C   0  0  0  0  0  0  0  0  0  0  0  0
  -26.8159  -28.1691   19.3803 C   0  0  0  0  0  0  0  0  0  0  0  0
  -31.3587  -24.7783   19.2828 C   0  0  0  0  0  0  0  0  0  0  0  0
  -29.6779  -21.6024   20.4689 C   0  0  0  0  0  0  0  0  0  1  0  0
  -30.9388  -23.5871   19.9840 N   0  0  0  0  0  0  0  0  0  0  0  0
  -27.9495  -28.4223   20.2757 N   0  0  0  0  0  0  0  0  0  0  0  0
  -29.2330  -22.9651   18.5308 O   0  0  0  0  0  0  0  0  0  0  0  0
  -30.2335  -27.9428   20.8414 O   0  0  0  0  0  0  0  0  0  0  0  0
  -31.4485  -12.4701   19.0860 H   0  0  0  0  0  0  0  0  0  0  0  0
  -30.3970  -11.2460   19.6950 H   0  0  0  0  0  0  0  0  0  0  0  0
  -29.6870  -11.8204   17.4226 H   0  0  0  0  0  0  0  0  0  0  0  0
  -29.6375  -13.5326   17.8649 H   0  0  0  0  0  0  0  0  0  0  0  0
  -27.7830  -11.3650   18.7904 H   0  0  0  0  0  0  0  0  0  0  0  0
  -27.4028  -12.7801   17.8021 H   0  0  0  0  0  0  0  0  0  0  0  0
  -27.7353  -14.2503   19.6136 H   0  0  0  0  0  0  0  0  0  0  0  0
  -28.5890  -11.9550   21.3832 H   0  0  0  0  0  0  0  0  0  0  0  0
  -28.5005  -13.6134   21.8562 H   0  0  0  0  0  0  0  0  0  0  0  0
  -25.2399   -9.5495   22.4318 H   0  0  0  0  0  0  0  0  0  0  0  0
  -23.9663   -7.5070   22.7297 H   0  0  0  0  0  0  0  0  0  0  0  0
  -21.1515   -8.8641   19.9162 H   0  0  0  0  0  0  0  0  0  0  0  0
  -22.4016  -10.9115   19.6476 H   0  0  0  0  0  0  0  0  0  0  0  0
  -21.2319   -7.5552   23.9750 H   0  0  0  0  0  0  0  0  0  0  0  0
  -21.1589   -6.0228   25.8556 H   0  0  0  0  0  0  0  0  0  0  0  0
  -22.0396   -2.8212   23.2809 H   0  0  0  0  0  0  0  0  0  0  0  0
  -22.4401  -11.9703   22.4008 H   0  0  0  0  0  0  0  0  0  0  0  0
  -21.1493  -13.0679   22.2082 H   0  0  0  0  0  0  0  0  0  0  0  0
  -24.6538  -15.7807   20.5848 H   0  0  0  0  0  0  0  0  0  0  0  0
  -26.2762  -15.5453   20.1156 H   0  0  0  0  0  0  0  0  0  0  0  0
  -26.6778  -32.4663   23.1464 H   0  0  0  0  0  0  0  0  0  0  0  0
  -25.0747  -34.0282   25.0566 H   0  0  0  0  0  0  0  0  0  0  0  0
  -22.7881  -31.3489   21.4131 H   0  0  0  0  0  0  0  0  0  0  0  0
  -23.3854  -35.9823   23.3648 H   0  0  0  0  0  0  0  0  0  0  0  0
  -24.3696  -36.8624   22.2204 H   0  0  0  0  0  0  0  0  0  0  0  0
  -23.7669  -37.6632   23.6516 H   0  0  0  0  0  0  0  0  0  0  0  0
  -25.9445  -31.6237   20.5691 H   0  0  0  0  0  0  0  0  0  0  0  0
  -26.7436  -31.0079   22.0108 H   0  0  0  0  0  0  0  0  0  0  0  0
  -28.0090  -29.1452   21.2057 H   0  0  0  0  0  0  0  0  0  0  0  0
  -26.1369  -26.0560   19.0719 H   0  0  0  0  0  0  0  0  0  0  0  0
  -24.0652  -27.2961   19.0997 H   0  0  0  0  0  0  0  0  0  0  0  0
  -23.6156  -30.5365   19.3930 H   0  0  0  0  0  0  0  0  0  0  0  0
  -22.7355  -29.1425   19.9945 H   0  0  0  0  0  0  0  0  0  0  0  0
  -25.1353  -36.2335   25.0565 H   0  0  0  0  0  0  0  0  0  0  0  0
  -21.0070  -28.3206   24.0793 H   0  0  0  0  0  0  0  0  0  0  0  0
  -20.5555  -26.2518   23.3550 H   0  0  0  0  0  0  0  0  0  0  0  0
  -21.5974  -26.8362   22.0454 H   0  0  0  0  0  0  0  0  0  0  0  0
  -19.6810  -25.6422   21.1488 H   0  0  0  0  0  0  0  0  0  0  0  0
  -19.6406  -27.3343   20.7034 H   0  0  0  0  0  0  0  0  0  0  0  0
  -17.4282  -26.6888   21.4113 H   0  0  0  0  0  0  0  0  0  0  0  0
  -18.0803  -26.0130   22.9049 H   0  0  0  0  0  0  0  0  0  0  0  0
  -19.7265  -30.6774   24.2204 H   0  0  0  0  0  0  0  0  0  0  0  0
  -17.5064  -31.5856   24.4483 H   0  0  0  0  0  0  0  0  0  0  0  0
  -15.5878  -30.2839   23.7407 H   0  0  0  0  0  0  0  0  0  0  0  0
  -15.9120  -28.0941   22.7766 H   0  0  0  0  0  0  0  0  0  0  0  0
  -24.5787  -30.7757   25.6817 H   0  0  0  0  0  0  0  0  0  0  0  0
  -25.0041  -32.2289   26.5536 H   0  0  0  0  0  0  0  0  0  0  0  0
  -25.8166  -30.7245   26.9138 H   0  0  0  0  0  0  0  0  0  0  0  0
  -26.2892  -29.7335   24.0803 H   0  0  0  0  0  0  0  0  0  0  0  0
  -27.4336  -29.7484   25.4006 H   0  0  0  0  0  0  0  0  0  0  0  0
  -27.8466  -30.4994   23.8779 H   0  0  0  0  0  0  0  0  0  0  0  0
  -27.2251  -33.3632   26.1242 H   0  0  0  0  0  0  0  0  0  0  0  0
  -28.3902  -32.6065   25.0645 H   0  0  0  0  0  0  0  0  0  0  0  0
  -27.9772  -31.8555   26.5872 H   0  0  0  0  0  0  0  0  0  0  0  0
  -28.2744  -38.0016   24.6863 H   0  0  0  0  0  0  0  0  0  0  0  0
  -28.0396  -36.2711   24.7461 H   0  0  0  0  0  0  0  0  0  0  0  0
  -27.1773  -37.3087   25.8564 H   0  0  0  0  0  0  0  0  0  0  0  0
  -20.9627  -29.9365   21.7352 H   0  0  0  0  0  0  0  0  0  0  0  0
  -26.0447  -38.2561   24.0273 H   0  0  0  0  0  0  0  0  0  0  0  0
  -28.6305  -25.8685   18.9332 H   0  0  0  0  0  0  0  0  0  0  0  0
  -33.1308  -26.3806   20.9626 H   0  0  0  0  0  0  0  0  0  0  0  0
  -32.3661  -27.2246   22.2877 H   0  0  0  0  0  0  0  0  0  0  0  0
  -32.9029  -28.1110   20.8809 H   0  0  0  0  0  0  0  0  0  0  0  0
  -26.3414  -29.0962   19.1346 H   0  0  0  0  0  0  0  0  0  0  0  0
  -26.1127  -27.5268   19.8680 H   0  0  0  0  0  0  0  0  0  0  0  0
  -27.1665  -27.6996   18.4850 H   0  0  0  0  0  0  0  0  0  0  0  0
  -32.4120  -24.9070   19.4203 H   0  0  0  0  0  0  0  0  0  0  0  0
  -31.1159  -24.6558   18.2479 H   0  0  0  0  0  0  0  0  0  0  0  0
  -30.4230  -21.2489   21.1507 H   0  0  0  0  0  0  0  0  0  0  0  0
  -29.2577  -20.6193   20.5117 H   0  0  0  0  0  0  0  0  0  0  0  0
  -31.4089  -23.3388   20.8126 H   0  0  0  0  0  0  0  0  0  0  0  0
  1 25  1  0
  1 30  2  0
  1 81  1  0
  2  3  1  0
  2 25  1  0
  2 84  1  0
  2 85  1  0
  3  4  1  0
  3 86  1  0
  3 87  1  0
  4  5  1  0
  4 88  1  0
  4 89  1  0
  5  6  1  0
  5 26  1  0
  5 90  1  6
  6 25  1  0
  6 91  1  0
  6 92  1  0
  7  8  2  0
  7 26  1  0
  7 29  1  0
  8  9  1  0
  8 22  1  0
  9 10  1  0
  9 27  2  0
 10 11  2  0
 10 15  1  0
 11 12  1  0
 11 93  1  0
 12 13  2  0
 12 94  1  0
 13 14  1  0
 13 31  1  0
 14 15  2  0
 14 95  1  0
 15 96  1  0
 16 17  2  0
 16 21  1  0
 16 31  1  0
 17 18  1  0
 17 97  1  0
 18 19  2  0
 18 98  1  0
 19 20  1  0
 19 24  1  0
 20 21  2  0
 20 99  1  0
 21 23  1  0
 22 28  1  0
 22 32  2  0
 26 27  1  0
 28100  1  0
 28101  1  0
 29102  1  0
 29103  1  0
 33 34  1  0
 33 66  1  0
 33 70  2  0
 34 36  1  0
 34 59  1  0
 34104  1  6
 35 44  2  0
 35 45  1  0
 35 68  1  0
 36 56  1  0
 36105  1  0
 37 39  1  0
 37 47  1  0
 37 66  1  0
 37106  1  6
 38 43  2  0
 38 46  1  0
 38 47  1  0
 39 64  1  0
 39 67  2  0
 40 52  1  0
 40 53  2  0
 40 58  1  0
 41107  1  0
 41108  1  0
 41109  1  0
 42 43  1  0
 42 66  1  0
 42110  1  0
 42111  1  0
 43 44  1  0
 44112  1  0
 45 46  2  0
 45113  1  0
 46114  1  0
 47115  1  0
 47116  1  0
 48 41  1  0
 48 56  1  0
 48 65  1  0
 48117  1  1
 49 50  1  0
 49 53  1  0
 49 64  1  0
 49118  1  1
 50 51  1  0
 50119  1  0
 50120  1  0
 51 52  1  0
 51121  1  0
 51122  1  0
 52123  1  0
 52124  1  0
 53 54  1  0
 54 55  2  0
 54125  1  0
 55 57  1  0
 55126  1  0
 56 69  2  0
 57 58  2  0
 57127  1  0
 58128  1  0
 59 60  1  0
 59 61  1  0
 59 62  1  0
 60129  1  0
 60130  1  0
 60131  1  0
 61132  1  0
 61133  1  0
 61134  1  0
 62135  1  0
 62136  1  0
 62137  1  0
 63 65  1  0
 63138  1  0
 63139  1  0
 63140  1  0
 64141  1  0
 65142  1  0
 68 79  1  0
 71 72  1  0
 71 74  2  0
 71143  1  0
 72 73  2  0
 72 78  1  0
 73 76  1  0
 73 83  1  0
 74 81  1  0
 74 83  1  0
 75 79  1  0
 75 80  1  0
 75 82  2  0
 76144  1  0
 76145  1  0
 76146  1  0
 77 81  1  0
 77147  1  0
 77148  1  0
 77149  1  0
 78 80  1  0
 78150  1  0
 78151  1  0
 79152  1  0
 79153  1  0
 80154  1  0
M  ISO  4   1 100  68 101  79 101  81 100
M  END
$$$$
17
     RDKit          3D

154162  0  0  0  0  0  0  0  0999 V2000
  -30.7652  -14.3608   20.6636 C   0  0  0  0  0  0  0  0  0100  0  0
  -30.4392  -12.2669   19.3775 C   0  0  0  0  0  0  0  0  0101  0  0
  -29.4791  -12.5281   18.1977 C   0  0  0  0  0  0  0  0  0102  0  0
  -27.9985  -12.3963   18.6038 C   0  0  0  0  0  0  0  0  0103  0  0
  -27.6639  -13.2170   19.8820 C   0  0  2  0  0  0  0  0  0104  0  0
  -28.6795  -12.9602   21.0279 C   0  0  0  0  0  0  0  0  0105  0  0
  -25.2633  -13.8245   20.5754 C   0  0  0  0  0  0  0  0  0106  0  0
  -24.1645  -13.0409   20.9408 C   0  0  0  0  0  0  0  0  0107  0  0
  -24.6400  -11.7009   20.8697 C   0  0  0  0  0  0  0  0  0108  0  0
  -23.9005  -10.4085   21.0420 C   0  0  0  0  0  0  0  0  0109  0  0
  -24.3588   -9.4123   21.9123 C   0  0  0  0  0  0  0  0  0110  0  0
  -23.6296   -8.2350   22.0803 C   0  0  0  0  0  0  0  0  0111  0  0
  -22.4385   -8.0419   21.3657 C   0  0  0  0  0  0  0  0  0112  0  0
  -22.0103   -9.0167   20.4678 C   0  0  0  0  0  0  0  0  0113  0  0
  -22.7317  -10.1925   20.3102 C   0  0  0  0  0  0  0  0  0114  0  0
  -21.6857   -6.0709   22.5391 C   0  0  0  0  0  0  0  0  0115  0  0
  -21.4064   -6.5490   23.8264 C   0  0  0  0  0  0  0  0  0116  0  0
  -21.3635   -5.6677   24.9085 C   0  0  0  0  0  0  0  0  0117  0  0
  -21.5973   -4.3067   24.7088 C   0  0  0  0  0  0  0  0  0118  0  0
  -21.8700   -3.8284   23.4282 C   0  0  0  0  0  0  0  0  0119  0  0
  -21.9144   -4.7056   22.3460 C   0  0  0  0  0  0  0  0  0120  0  0
  -22.8194  -13.5263   21.1763 C   0  0  0  0  0  0  0  0  0121  0  0
  -22.1559   -4.2206   21.1063 F   0  0  0  0  0  0  0  0  0122  0  0
  -21.5628   -3.4510   25.7555 F   0  0  0  0  0  0  0  0  0123  0  0
  -30.0261  -13.1803   20.4553 N   0  0  0  0  0  0  0  0  0124  0  0
  -26.2911  -12.9356   20.3443 N   0  0  0  0  0  0  0  0  0125  0  0
  -25.9236  -11.6675   20.5847 N   0  0  0  0  0  0  0  0  0126  0  0
  -22.0708  -12.7905   22.0005 N   0  0  0  0  0  0  0  0  0127  0  0
  -25.4117  -15.1773   20.4097 N   0  0  0  0  0  0  0  0  0128  0  0
  -31.7916  -14.6724   20.0536 O   0  0  0  0  0  0  0  0  0129  0  0
  -21.6670   -6.9022   21.4423 O   0  0  0  0  0  0  0  0  0130  0  0
  -22.3946  -14.5564   20.6568 O   0  0  0  0  0  0  0  0  0131  0  0
  -24.6048  -31.8614   23.2223 C   0  0  0  0  0  0  0  0  0100  0  0
  -25.8822  -32.4841   23.8616 C   0  0  1  0  0  0  0  0  0101  0  0
  -27.2536  -27.5042   20.1156 C   0  0  0  0  0  0  0  0  0102  0  0
  -25.5726  -33.8762   24.2210 N   0  0  0  0  0  0  0  0  0103  0  0
  -23.4066  -30.4859   21.5461 C   0  0  2  0  0  0  0  0  0104  0  0
  -24.8467  -28.9636   20.1247 C   0  0  0  0  0  0  0  0  0105  0  0
  -22.7412  -29.4652   22.5052 C   0  0  0  0  0  0  0  0  0106  0  0
  -18.0167  -28.1302   22.8626 C   0  0  0  0  0  0  0  0  0107  0  0
  -24.1342  -36.7390   23.2568 C   0  0  0  0  0  0  0  0  0108  0  0
  -25.9141  -30.8882   21.3456 C   0  0  0  0  0  0  0  0  0109  0  0
  -25.9930  -29.5029   20.7208 C   0  0  0  0  0  0  0  0  0110  0  0
  -27.1758  -28.7612   20.7331 C   0  0  0  0  0  0  0  0  0111  0  0
  -26.1032  -26.9836   19.5230 C   0  0  0  0  0  0  0  0  0112  0  0
  -24.9097  -27.7011   19.5331 C   0  0  0  0  0  0  0  0  0113  0  0
  -23.5715  -29.7899   20.1582 C   0  0  0  0  0  0  0  0  0114  0  0
  -25.3990  -36.3212   24.0232 C   0  0  1  0  0  0  0  0  0115  0  0
  -20.5793  -28.3813   23.1004 C   0  0  2  0  0  0  0  0  0116  0  0
  -20.6548  -26.9392   22.5411 C   0  0  0  0  0  0  0  0  0117  0  0
  -19.5615  -26.6407   21.5143 C   0  0  0  0  0  0  0  0  0118  0  0
  -18.1797  -26.7818   22.1673 C   0  0  0  0  0  0  0  0  0119  0  0
  -19.1385  -28.8769   23.2988 C   0  0  0  0  0  0  0  0  0120  0  0
  -18.9183  -30.1286   23.8878 C   0  0  0  0  0  0  0  0  0121  0  0
  -17.6396  -30.6493   24.0352 C   0  0  0  0  0  0  0  0  0122  0  0
  -25.9153  -34.9582   23.4993 C   0  0  0  0  0  0  0  0  0123  0  0
  -16.5415  -29.9068   23.6254 C   0  0  0  0  0  0  0  0  0124  0  0
  -16.7331  -28.6521   23.0586 C   0  0  0  0  0  0  0  0  0125  0  0
  -26.4583  -31.6439   25.0683 C   0  0  0  0  0  0  0  0  0126  0  0
  -25.3807  -31.3179   26.1374 C   0  0  0  0  0  0  0  0  0127  0  0
  -27.0530  -30.3024   24.5680 C   0  0  0  0  0  0  0  0  0128  0  0
  -27.6014  -32.4281   25.7651 C   0  0  0  0  0  0  0  0  0129  0  0
  -27.5629  -37.2220   24.8621 C   0  0  0  0  0  0  0  0  0130  0  0
  -21.4133  -29.3375   22.3735 N   0  0  0  0  0  0  0  0  0131  0  0
  -26.4706  -37.3372   23.9061 N   0  0  0  0  0  0  0  0  0132  0  0
  -24.6674  -31.0544   22.1178 N   0  0  0  0  0  0  0  0  0133  0  0
  -23.4259  -28.8150   23.2971 O   0  0  0  0  0  0  0  0  0134  0  0
  -28.3948  -26.7345   20.0089 O   0  0  0  0  0  0  0  0  0135  0  0
  -26.5870  -34.9065   22.4671 O   0  0  0  0  0  0  0  0  0136  0  0
  -23.5365  -32.1254   23.7833 O   0  0  0  0  0  0  0  0  0137  0  0
  -27.7471  -17.9696   22.3606 C   0  0  0  0  0  0  0  0  0  0  0  0
  -29.0643  -19.5092   23.6764 C   0  0  0  0  0  0  0  0  0  0  0  0
  -30.1541  -17.7670   22.4059 C   0  0  0  0  0  0  0  0  0  0  0  0
  -27.8229  -19.0635   23.2227 C   0  0  0  0  0  0  0  0  0  0  0  0
  -28.9127  -17.3213   21.9523 C   0  0  0  0  0  0  0  0  0  0  0  0
  -30.2300  -18.8610   23.2680 C   0  0  0  0  0  0  0  0  0  0  0  0
  -23.9058  -23.2166   22.6551 C   0  0  0  0  0  0  0  0  0  0  0  0
  -23.9961  -24.4199   22.0842 C   0  0  0  0  0  0  0  0  0  1  0  0
  -26.5757  -19.7560   23.6622 C   0  0  0  0  0  0  0  0  0  0  0  0
  -24.8399  -22.1325   22.2515 C   0  0  0  0  0  0  0  0  0  0  0  0
  -25.3839  -19.7664   22.7256 C   0  0  0  0  0  0  0  0  0  0  0  0
  -28.8360  -16.2101   21.0764 N   0  0  0  0  0  0  0  0  0  0  0  0
  -24.6000  -20.9590   22.9455 N   0  0  0  0  0  0  0  0  0  0  0  0
  -26.5471  -20.2955   24.7663 O   0  0  0  0  0  0  0  0  0  0  0  0
  -25.7110  -22.2921   21.4024 O   0  0  0  0  0  0  0  0  0  0  0  0
  -31.4219  -19.2871   23.7059 F   0  0  0  0  0  0  0  0  0  0  0  0
  -31.4485  -12.4701   19.0860 H   0  0  0  0  0  0  0  0  0  0  0  0
  -30.3970  -11.2460   19.6950 H   0  0  0  0  0  0  0  0  0  0  0  0
  -29.6870  -11.8204   17.4226 H   0  0  0  0  0  0  0  0  0  0  0  0
  -29.6375  -13.5326   17.8649 H   0  0  0  0  0  0  0  0  0  0  0  0
  -27.7830  -11.3650   18.7904 H   0  0  0  0  0  0  0  0  0  0  0  0
  -27.4028  -12.7801   17.8021 H   0  0  0  0  0  0  0  0  0  0  0  0
  -27.7353  -14.2503   19.6136 H   0  0  0  0  0  0  0  0  0  0  0  0
  -28.5890  -11.9550   21.3832 H   0  0  0  0  0  0  0  0  0  0  0  0
  -28.5005  -13.6134   21.8562 H   0  0  0  0  0  0  0  0  0  0  0  0
  -25.2399   -9.5495   22.4318 H   0  0  0  0  0  0  0  0  0  0  0  0
  -23.9663   -7.5070   22.7297 H   0  0  0  0  0  0  0  0  0  0  0  0
  -21.1515   -8.8641   19.9162 H   0  0  0  0  0  0  0  0  0  0  0  0
  -22.4016  -10.9115   19.6476 H   0  0  0  0  0  0  0  0  0  0  0  0
  -21.2319   -7.5552   23.9750 H   0  0  0  0  0  0  0  0  0  0  0  0
  -21.1589   -6.0228   25.8556 H   0  0  0  0  0  0  0  0  0  0  0  0
  -22.0396   -2.8212   23.2809 H   0  0  0  0  0  0  0  0  0  0  0  0
  -22.4401  -11.9703   22.4008 H   0  0  0  0  0  0  0  0  0  0  0  0
  -21.1493  -13.0679   22.2082 H   0  0  0  0  0  0  0  0  0  0  0  0
  -24.6538  -15.7807   20.5848 H   0  0  0  0  0  0  0  0  0  0  0  0
  -26.2762  -15.5453   20.1156 H   0  0  0  0  0  0  0  0  0  0  0  0
  -26.6778  -32.4663   23.1464 H   0  0  0  0  0  0  0  0  0  0  0  0
  -25.0747  -34.0282   25.0566 H   0  0  0  0  0  0  0  0  0  0  0  0
  -22.7881  -31.3489   21.4131 H   0  0  0  0  0  0  0  0  0  0  0  0
  -23.3854  -35.9823   23.3648 H   0  0  0  0  0  0  0  0  0  0  0  0
  -24.3696  -36.8624   22.2204 H   0  0  0  0  0  0  0  0  0  0  0  0
  -23.7669  -37.6632   23.6516 H   0  0  0  0  0  0  0  0  0  0  0  0
  -25.9445  -31.6237   20.5691 H   0  0  0  0  0  0  0  0  0  0  0  0
  -26.7436  -31.0079   22.0108 H   0  0  0  0  0  0  0  0  0  0  0  0
  -28.0090  -29.1452   21.2057 H   0  0  0  0  0  0  0  0  0  0  0  0
  -26.1369  -26.0560   19.0719 H   0  0  0  0  0  0  0  0  0  0  0  0
  -24.0652  -27.2961   19.0997 H   0  0  0  0  0  0  0  0  0  0  0  0
  -23.6156  -30.5365   19.3930 H   0  0  0  0  0  0  0  0  0  0  0  0
  -22.7355  -29.1425   19.9945 H   0  0  0  0  0  0  0  0  0  0  0  0
  -25.1353  -36.2335   25.0565 H   0  0  0  0  0  0  0  0  0  0  0  0
  -21.0070  -28.3206   24.0793 H   0  0  0  0  0  0  0  0  0  0  0  0
  -20.5555  -26.2518   23.3550 H   0  0  0  0  0  0  0  0  0  0  0  0
  -21.5974  -26.8362   22.0454 H   0  0  0  0  0  0  0  0  0  0  0  0
  -19.6810  -25.6422   21.1488 H   0  0  0  0  0  0  0  0  0  0  0  0
  -19.6406  -27.3343   20.7034 H   0  0  0  0  0  0  0  0  0  0  0  0
  -17.4282  -26.6888   21.4113 H   0  0  0  0  0  0  0  0  0  0  0  0
  -18.0803  -26.0130   22.9049 H   0  0  0  0  0  0  0  0  0  0  0  0
  -19.7265  -30.6774   24.2204 H   0  0  0  0  0  0  0  0  0  0  0  0
  -17.5064  -31.5856   24.4483 H   0  0  0  0  0  0  0  0  0  0  0  0
  -15.5878  -30.2839   23.7407 H   0  0  0  0  0  0  0  0  0  0  0  0
  -15.9120  -28.0941   22.7766 H   0  0  0  0  0  0  0  0  0  0  0  0
  -24.5787  -30.7757   25.6817 H   0  0  0  0  0  0  0  0  0  0  0  0
  -25.0041  -32.2289   26.5536 H   0  0  0  0  0  0  0  0  0  0  0  0
  -25.8166  -30.7245   26.9138 H   0  0  0  0  0  0  0  0  0  0  0  0
  -26.2892  -29.7335   24.0803 H   0  0  0  0  0  0  0  0  0  0  0  0
  -27.4336  -29.7484   25.4006 H   0  0  0  0  0  0  0  0  0  0  0  0
  -27.8466  -30.4994   23.8779 H   0  0  0  0  0  0  0  0  0  0  0  0
  -27.2251  -33.3632   26.1242 H   0  0  0  0  0  0  0  0  0  0  0  0
  -28.3902  -32.6065   25.0645 H   0  0  0  0  0  0  0  0  0  0  0  0
  -27.9772  -31.8555   26.5872 H   0  0  0  0  0  0  0  0  0  0  0  0
  -28.2744  -38.0016   24.6863 H   0  0  0  0  0  0  0  0  0  0  0  0
  -28.0396  -36.2711   24.7461 H   0  0  0  0  0  0  0  0  0  0  0  0
  -27.1773  -37.3087   25.8564 H   0  0  0  0  0  0  0  0  0  0  0  0
  -20.9627  -29.9365   21.7352 H   0  0  0  0  0  0  0  0  0  0  0  0
  -26.0447  -38.2561   24.0273 H   0  0  0  0  0  0  0  0  0  0  0  0
  -26.8286  -17.6399   22.0248 H   0  0  0  0  0  0  0  0  0  0  0  0
  -29.1204  -20.3185   24.3142 H   0  0  0  0  0  0  0  0  0  0  0  0
  -31.0165  -17.2874   22.1037 H   0  0  0  0  0  0  0  0  0  0  0  0
  -23.1886  -23.0391   23.3756 H   0  0  0  0  0  0  0  0  0  0  0  0
  -23.1238  -24.9692   22.0348 H   0  0  0  0  0  0  0  0  0  0  0  0
  -24.7784  -18.9040   22.9114 H   0  0  0  0  0  0  0  0  0  0  0  0
  -25.7298  -19.7524   21.7132 H   0  0  0  0  0  0  0  0  0  0  0  0
  -27.9994  -16.1008   20.5691 H   0  0  0  0  0  0  0  0  0  0  0  0
  -23.8730  -20.9368   23.6090 H   0  0  0  0  0  0  0  0  0  0  0  0
  1 25  1  0
  1 30  2  0
  1 82  1  0
  2  3  1  0
  2 25  1  0
  2 87  1  0
  2 88  1  0
  3  4  1  0
  3 89  1  0
  3 90  1  0
  4  5  1  0
  4 91  1  0
  4 92  1  0
  5  6  1  0
  5 26  1  0
  5 93  1  6
  6 25  1  0
  6 94  1  0
  6 95  1  0
  7  8  2  0
  7 26  1  0
  7 29  1  0
  8  9  1  0
  8 22  1  0
  9 10  1  0
  9 27  2  0
 10 11  2  0
 10 15  1  0
 11 12  1  0
 11 96  1  0
 12 13  2  0
 12 97  1  0
 13 14  1  0
 13 31  1  0
 14 15  2  0
 14 98  1  0
 15 99  1  0
 16 17  2  0
 16 21  1  0
 16 31  1  0
 17 18  1  0
 17100  1  0
 18 19  2  0
 18101  1  0
 19 20  1  0
 19 24  1  0
 20 21  2  0
 20102  1  0
 21 23  1  0
 22 28  1  0
 22 32  2  0
 26 27  1  0
 28103  1  0
 28104  1  0
 29105  1  0
 29106  1  0
 33 34  1  0
 33 66  1  0
 33 70  2  0
 34 36  1  0
 34 59  1  0
 34107  1  6
 35 44  2  0
 35 45  1  0
 35 68  1  0
 36 56  1  0
 36108  1  0
 37 39  1  0
 37 47  1  0
 37 66  1  0
 37109  1  6
 38 43  2  0
 38 46  1  0
 38 47  1  0
 39 64  1  0
 39 67  2  0
 40 52  1  0
 40 53  2  0
 40 58  1  0
 41110  1  0
 41111  1  0
 41112  1  0
 42 43  1  0
 42 66  1  0
 42113  1  0
 42114  1  0
 43 44  1  0
 44115  1  0
 45 46  2  0
 45116  1  0
 46117  1  0
 47118  1  0
 47119  1  0
 48 41  1  0
 48 56  1  0
 48 65  1  0
 48120  1  1
 49 50  1  0
 49 53  1  0
 49 64  1  0
 49121  1  1
 50 51  1  0
 50122  1  0
 50123  1  0
 51 52  1  0
 51124  1  0
 51125  1  0
 52126  1  0
 52127  1  0
 53 54  1  0
 54 55  2  0
 54128  1  0
 55 57  1  0
 55129  1  0
 56 69  2  0
 57 58  2  0
 57130  1  0
 58131  1  0
 59 60  1  0
 59 61  1  0
 59 62  1  0
 60132  1  0
 60133  1  0
 60134  1  0
 61135  1  0
 61136  1  0
 61137  1  0
 62138  1  0
 62139  1  0
 62140  1  0
 63 65  1  0
 63141  1  0
 63142  1  0
 63143  1  0
 64144  1  0
 65145  1  0
 68 78  1  0
 71 74  2  0
 71 75  1  0
 71146  1  0
 72 74  1  0
 72 76  2  0
 72147  1  0
 73 75  2  0
 73 76  1  0
 73148  1  0
 74 79  1  0
 75 82  1  0
 76 86  1  0
 77 78  2  0
 77 80  1  0
 77149  1  0
 78150  1  0
 79 81  1  0
 79 84  2  0
 80 83  1  0
 80 85  2  0
 81 83  1  0
 81151  1  0
 81152  1  0
 82153  1  0
 83154  1  0
M  ISO  4   1 100  68 101  78 101  82 100
M  END
$$$$
18
     RDKit          3D

160169  0  0  0  0  0  0  0  0999 V2000
  -30.7652  -14.3608   20.6636 C   0  0  0  0  0  0  0  0  0100  0  0
  -30.4392  -12.2669   19.3775 C   0  0  0  0  0  0  0  0  0101  0  0
  -29.4791  -12.5281   18.1977 C   0  0  0  0  0  0  0  0  0102  0  0
  -27.9985  -12.3963   18.6038 C   0  0  0  0  0  0  0  0  0103  0  0
  -27.6639  -13.2170   19.8820 C   0  0  2  0  0  0  0  0  0104  0  0
  -28.6795  -12.9602   21.0279 C   0  0  0  0  0  0  0  0  0105  0  0
  -25.2633  -13.8245   20.5754 C   0  0  0  0  0  0  0  0  0106  0  0
  -24.1645  -13.0409   20.9408 C   0  0  0  0  0  0  0  0  0107  0  0
  -24.6400  -11.7009   20.8697 C   0  0  0  0  0  0  0  0  0108  0  0
  -23.9005  -10.4085   21.0420 C   0  0  0  0  0  0  0  0  0109  0  0
  -24.3588   -9.4123   21.9123 C   0  0  0  0  0  0  0  0  0110  0  0
  -23.6296   -8.2350   22.0803 C   0  0  0  0  0  0  0  0  0111  0  0
  -22.4385   -8.0419   21.3657 C   0  0  0  0  0  0  0  0  0112  0  0
  -22.0103   -9.0167   20.4678 C   0  0  0  0  0  0  0  0  0113  0  0
  -22.7317  -10.1925   20.3102 C   0  0  0  0  0  0  0  0  0114  0  0
  -21.6857   -6.0709   22.5391 C   0  0  0  0  0  0  0  0  0115  0  0
  -21.4064   -6.5490   23.8264 C   0  0  0  0  0  0  0  0  0116  0  0
  -21.3635   -5.6677   24.9085 C   0  0  0  0  0  0  0  0  0117  0  0
  -21.5973   -4.3067   24.7088 C   0  0  0  0  0  0  0  0  0118  0  0
  -21.8700   -3.8284   23.4282 C   0  0  0  0  0  0  0  0  0119  0  0
  -21.9144   -4.7056   22.3460 C   0  0  0  0  0  0  0  0  0120  0  0
  -22.8194  -13.5263   21.1763 C   0  0  0  0  0  0  0  0  0121  0  0
  -22.1559   -4.2206   21.1063 F   0  0  0  0  0  0  0  0  0122  0  0
  -21.5628   -3.4510   25.7555 F   0  0  0  0  0  0  0  0  0123  0  0
  -30.0261  -13.1803   20.4553 N   0  0  0  0  0  0  0  0  0124  0  0
  -26.2911  -12.9356   20.3443 N   0  0  0  0  0  0  0  0  0125  0  0
  -25.9236  -11.6675   20.5847 N   0  0  0  0  0  0  0  0  0126  0  0
  -22.0708  -12.7905   22.0005 N   0  0  0  0  0  0  0  0  0127  0  0
  -25.4117  -15.1773   20.4097 N   0  0  0  0  0  0  0  0  0128  0  0
  -31.7916  -14.6724   20.0536 O   0  0  0  0  0  0  0  0  0129  0  0
  -21.6670   -6.9022   21.4423 O   0  0  0  0  0  0  0  0  0130  0  0
  -22.3946  -14.5564   20.6568 O   0  0  0  0  0  0  0  0  0131  0  0
  -24.6048  -31.8614   23.2223 C   0  0  0  0  0  0  0  0  0100  0  0
  -25.8822  -32.4841   23.8616 C   0  0  1  0  0  0  0  0  0101  0  0
  -27.2536  -27.5042   20.1156 C   0  0  0  0  0  0  0  0  0102  0  0
  -25.5726  -33.8762   24.2210 N   0  0  0  0  0  0  0  0  0103  0  0
  -23.4066  -30.4859   21.5461 C   0  0  2  0  0  0  0  0  0104  0  0
  -24.8467  -28.9636   20.1247 C   0  0  0  0  0  0  0  0  0105  0  0
  -22.7412  -29.4652   22.5052 C   0  0  0  0  0  0  0  0  0106  0  0
  -18.0167  -28.1302   22.8626 C   0  0  0  0  0  0  0  0  0107  0  0
  -24.1342  -36.7390   23.2568 C   0  0  0  0  0  0  0  0  0108  0  0
  -25.9141  -30.8882   21.3456 C   0  0  0  0  0  0  0  0  0109  0  0
  -25.9930  -29.5029   20.7208 C   0  0  0  0  0  0  0  0  0110  0  0
  -27.1758  -28.7612   20.7331 C   0  0  0  0  0  0  0  0  0111  0  0
  -26.1032  -26.9836   19.5230 C   0  0  0  0  0  0  0  0  0112  0  0
  -24.9097  -27.7011   19.5331 C   0  0  0  0  0  0  0  0  0113  0  0
  -23.5715  -29.7899   20.1582 C   0  0  0  0  0  0  0  0  0114  0  0
  -25.3990  -36.3212   24.0232 C   0  0  1  0  0  0  0  0  0115  0  0
  -20.5793  -28.3813   23.1004 C   0  0  2  0  0  0  0  0  0116  0  0
  -20.6548  -26.9392   22.5411 C   0  0  0  0  0  0  0  0  0117  0  0
  -19.5615  -26.6407   21.5143 C   0  0  0  0  0  0  0  0  0118  0  0
  -18.1797  -26.7818   22.1673 C   0  0  0  0  0  0  0  0  0119  0  0
  -19.1385  -28.8769   23.2988 C   0  0  0  0  0  0  0  0  0120  0  0
  -18.9183  -30.1286   23.8878 C   0  0  0  0  0  0  0  0  0121  0  0
  -17.6396  -30.6493   24.0352 C   0  0  0  0  0  0  0  0  0122  0  0
  -25.9153  -34.9582   23.4993 C   0  0  0  0  0  0  0  0  0123  0  0
  -16.5415  -29.9068   23.6254 C   0  0  0  0  0  0  0  0  0124  0  0
  -16.7331  -28.6521   23.0586 C   0  0  0  0  0  0  0  0  0125  0  0
  -26.4583  -31.6439   25.0683 C   0  0  0  0  0  0  0  0  0126  0  0
  -25.3807  -31.3179   26.1374 C   0  0  0  0  0  0  0  0  0127  0  0
  -27.0530  -30.3024   24.5680 C   0  0  0  0  0  0  0  0  0128  0  0
  -27.6014  -32.4281   25.7651 C   0  0  0  0  0  0  0  0  0129  0  0
  -27.5629  -37.2220   24.8621 C   0  0  0  0  0  0  0  0  0130  0  0
  -21.4133  -29.3375   22.3735 N   0  0  0  0  0  0  0  0  0131  0  0
  -26.4706  -37.3372   23.9061 N   0  0  0  0  0  0  0  0  0132  0  0
  -24.6674  -31.0544   22.1178 N   0  0  0  0  0  0  0  0  0133  0  0
  -23.4259  -28.8150   23.2971 O   0  0  0  0  0  0  0  0  0134  0  0
  -28.3948  -26.7345   20.0089 O   0  0  0  0  0  0  0  0  0135  0  0
  -26.5870  -34.9065   22.4671 O   0  0  0  0  0  0  0  0  0136  0  0
  -23.5365  -32.1254   23.7833 O   0  0  0  0  0  0  0  0  0137  0  0
  -30.3661  -20.0248   19.0384 C   0  0  0  0  0  0  0  0  0  0  0  0
  -28.1295  -20.5657   19.7745 C   0  0  0  0  0  0  0  0  0  0  0  0
  -30.0343  -18.6701   19.0256 C   0  0  0  0  0  0  0  0  0  0  0  0
  -27.7976  -19.2110   19.7616 C   0  0  0  0  0  0  0  0  0  0  0  0
  -30.9210  -24.2088   19.5921 C   0  0  0  0  0  0  0  0  0  0  0  0
  -29.5774  -24.5414   19.2902 C   0  0  0  0  0  0  0  0  0  0  0  0
  -29.4137  -20.9726   19.4129 C   0  0  0  0  0  0  0  0  0  0  0  0
  -28.7500  -18.2631   19.3871 C   0  0  0  0  0  0  0  0  0  0  0  0
  -30.9974  -22.8356   19.6694 C   0  0  0  0  0  0  0  0  0  0  0  0
  -28.8735  -23.3614   19.1924 C   0  0  0  0  0  0  0  0  0  0  0  0
  -26.1387  -16.1740   20.0611 C   0  0  0  0  0  0  0  0  0  0  0  0
  -29.0275  -25.9260   19.1122 C   0  0  0  0  0  0  0  0  0  1  0  0
  -27.5895  -16.3299   20.4699 C   0  0  0  0  0  0  0  0  0  0  0  0
  -29.7468  -22.3311   19.4251 N   0  0  0  0  0  0  0  0  0  0  0  0
  -28.4076  -16.8605   19.3745 N   0  0  0  0  0  0  0  0  0  0  0  0
  -32.0321  -22.0442   19.9258 O   0  0  0  0  0  0  0  0  0  0  0  0
  -27.5905  -23.1388   18.9304 O   0  0  0  0  0  0  0  0  0  0  0  0
  -31.4485  -12.4701   19.0860 H   0  0  0  0  0  0  0  0  0  0  0  0
  -30.3970  -11.2460   19.6950 H   0  0  0  0  0  0  0  0  0  0  0  0
  -29.6870  -11.8204   17.4226 H   0  0  0  0  0  0  0  0  0  0  0  0
  -29.6375  -13.5326   17.8649 H   0  0  0  0  0  0  0  0  0  0  0  0
  -27.7830  -11.3650   18.7904 H   0  0  0  0  0  0  0  0  0  0  0  0
  -27.4028  -12.7801   17.8021 H   0  0  0  0  0  0  0  0  0  0  0  0
  -27.7353  -14.2503   19.6136 H   0  0  0  0  0  0  0  0  0  0  0  0
  -28.5890  -11.9550   21.3832 H   0  0  0  0  0  0  0  0  0  0  0  0
  -28.5005  -13.6134   21.8562 H   0  0  0  0  0  0  0  0  0  0  0  0
  -25.2399   -9.5495   22.4318 H   0  0  0  0  0  0  0  0  0  0  0  0
  -23.9663   -7.5070   22.7297 H   0  0  0  0  0  0  0  0  0  0  0  0
  -21.1515   -8.8641   19.9162 H   0  0  0  0  0  0  0  0  0  0  0  0
  -22.4016  -10.9115   19.6476 H   0  0  0  0  0  0  0  0  0  0  0  0
  -21.2319   -7.5552   23.9750 H   0  0  0  0  0  0  0  0  0  0  0  0
  -21.1589   -6.0228   25.8556 H   0  0  0  0  0  0  0  0  0  0  0  0
  -22.0396   -2.8212   23.2809 H   0  0  0  0  0  0  0  0  0  0  0  0
  -22.4401  -11.9703   22.4008 H   0  0  0  0  0  0  0  0  0  0  0  0
  -21.1493  -13.0679   22.2082 H   0  0  0  0  0  0  0  0  0  0  0  0
  -24.6538  -15.7807   20.5848 H   0  0  0  0  0  0  0  0  0  0  0  0
  -26.2762  -15.5453   20.1156 H   0  0  0  0  0  0  0  0  0  0  0  0
  -26.6778  -32.4663   23.1464 H   0  0  0  0  0  0  0  0  0  0  0  0
  -25.0747  -34.0282   25.0566 H   0  0  0  0  0  0  0  0  0  0  0  0
  -22.7881  -31.3489   21.4131 H   0  0  0  0  0  0  0  0  0  0  0  0
  -23.3854  -35.9823   23.3648 H   0  0  0  0  0  0  0  0  0  0  0  0
  -24.3696  -36.8624   22.2204 H   0  0  0  0  0  0  0  0  0  0  0  0
  -23.7669  -37.6632   23.6516 H   0  0  0  0  0  0  0  0  0  0  0  0
  -25.9445  -31.6237   20.5691 H   0  0  0  0  0  0  0  0  0  0  0  0
  -26.7436  -31.0079   22.0108 H   0  0  0  0  0  0  0  0  0  0  0  0
  -28.0090  -29.1452   21.2057 H   0  0  0  0  0  0  0  0  0  0  0  0
  -26.1369  -26.0560   19.0719 H   0  0  0  0  0  0  0  0  0  0  0  0
  -24.0652  -27.2961   19.0997 H   0  0  0  0  0  0  0  0  0  0  0  0
  -23.6156  -30.5365   19.3930 H   0  0  0  0  0  0  0  0  0  0  0  0
  -22.7355  -29.1425   19.9945 H   0  0  0  0  0  0  0  0  0  0  0  0
  -25.1353  -36.2335   25.0565 H   0  0  0  0  0  0  0  0  0  0  0  0
  -21.0070  -28.3206   24.0793 H   0  0  0  0  0  0  0  0  0  0  0  0
  -20.5555  -26.2518   23.3550 H   0  0  0  0  0  0  0  0  0  0  0  0
  -21.5974  -26.8362   22.0454 H   0  0  0  0  0  0  0  0  0  0  0  0
  -19.6810  -25.6422   21.1488 H   0  0  0  0  0  0  0  0  0  0  0  0
  -19.6406  -27.3343   20.7034 H   0  0  0  0  0  0  0  0  0  0  0  0
  -17.4282  -26.6888   21.4113 H   0  0  0  0  0  0  0  0  0  0  0  0
  -18.0803  -26.0130   22.9049 H   0  0  0  0  0  0  0  0  0  0  0  0
  -19.7265  -30.6774   24.2204 H   0  0  0  0  0  0  0  0  0  0  0  0
  -17.5064  -31.5856   24.4483 H   0  0  0  0  0  0  0  0  0  0  0  0
  -15.5878  -30.2839   23.7407 H   0  0  0  0  0  0  0  0  0  0  0  0
  -15.9120  -28.0941   22.7766 H   0  0  0  0  0  0  0  0  0  0  0  0
  -24.5787  -30.7757   25.6817 H   0  0  0  0  0  0  0  0  0  0  0  0
  -25.0041  -32.2289   26.5536 H   0  0  0  0  0  0  0  0  0  0  0  0
  -25.8166  -30.7245   26.9138 H   0  0  0  0  0  0  0  0  0  0  0  0
  -26.2892  -29.7335   24.0803 H   0  0  0  0  0  0  0  0  0  0  0  0
  -27.4336  -29.7484   25.4006 H   0  0  0  0  0  0  0  0  0  0  0  0
  -27.8466  -30.4994   23.8779 H   0  0  0  0  0  0  0  0  0  0  0  0
  -27.2251  -33.3632   26.1242 H   0  0  0  0  0  0  0  0  0  0  0  0
  -28.3902  -32.6065   25.0645 H   0  0  0  0  0  0  0  0  0  0  0  0
  -27.9772  -31.8555   26.5872 H   0  0  0  0  0  0  0  0  0  0  0  0
  -28.2744  -38.0016   24.6863 H   0  0  0  0  0  0  0  0  0  0  0  0
  -28.0396  -36.2711   24.7461 H   0  0  0  0  0  0  0  0  0  0  0  0
  -27.1773  -37.3087   25.8564 H   0  0  0  0  0  0  0  0  0  0  0  0
  -20.9627  -29.9365   21.7352 H   0  0  0  0  0  0  0  0  0  0  0  0
  -26.0447  -38.2561   24.0273 H   0  0  0  0  0  0  0  0  0  0  0  0
  -31.3162  -20.3259   18.7708 H   0  0  0  0  0  0  0  0  0  0  0  0
  -27.4249  -21.2670   20.0516 H   0  0  0  0  0  0  0  0  0  0  0  0
  -30.7390  -17.9689   18.7487 H   0  0  0  0  0  0  0  0  0  0  0  0
  -26.8474  -18.9100   20.0291 H   0  0  0  0  0  0  0  0  0  0  0  0
  -31.6990  -24.8728   19.7289 H   0  0  0  0  0  0  0  0  0  0  0  0
  -25.5760  -15.7858   20.8842 H   0  0  0  0  0  0  0  0  0  0  0  0
  -26.0719  -15.4991   19.2335 H   0  0  0  0  0  0  0  0  0  0  0  0
  -25.7438  -17.1270   19.7770 H   0  0  0  0  0  0  0  0  0  0  0  0
  -28.3288  -25.8293   18.3076 H   0  0  0  0  0  0  0  0  0  0  0  0
  -29.9609  -26.4483   19.0817 H   0  0  0  0  0  0  0  0  0  0  0  0
  -27.9734  -15.3735   20.7576 H   0  0  0  0  0  0  0  0  0  0  0  0
  -27.6339  -17.0218   21.2849 H   0  0  0  0  0  0  0  0  0  0  0  0
  -32.8767  -22.4155   20.0894 H   0  0  0  0  0  0  0  0  0  0  0  0
  -27.0123  -23.8594   18.7746 H   0  0  0  0  0  0  0  0  0  0  0  0
  1 25  1  0
  1 30  2  0
  1 85  1  0
  2  3  1  0
  2 25  1  0
  2 88  1  0
  2 89  1  0
  3  4  1  0
  3 90  1  0
  3 91  1  0
  4  5  1  0
  4 92  1  0
  4 93  1  0
  5  6  1  0
  5 26  1  0
  5 94  1  6
  6 25  1  0
  6 95  1  0
  6 96  1  0
  7  8  2  0
  7 26  1  0
  7 29  1  0
  8  9  1  0
  8 22  1  0
  9 10  1  0
  9 27  2  0
 10 11  2  0
 10 15  1  0
 11 12  1  0
 11 97  1  0
 12 13  2  0
 12 98  1  0
 13 14  1  0
 13 31  1  0
 14 15  2  0
 14 99  1  0
 15100  1  0
 16 17  2  0
 16 21  1  0
 16 31  1  0
 17 18  1  0
 17101  1  0
 18 19  2  0
 18102  1  0
 19 20  1  0
 19 24  1  0
 20 21  2  0
 20103  1  0
 21 23  1  0
 22 28  1  0
 22 32  2  0
 26 27  1  0
 28104  1  0
 28105  1  0
 29106  1  0
 29107  1  0
 33 34  1  0
 33 66  1  0
 33 70  2  0
 34 36  1  0
 34 59  1  0
 34108  1  6
 35 44  2  0
 35 45  1  0
 35 68  1  0
 36 56  1  0
 36109  1  0
 37 39  1  0
 37 47  1  0
 37 66  1  0
 37110  1  6
 38 43  2  0
 38 46  1  0
 38 47  1  0
 39 64  1  0
 39 67  2  0
 40 52  1  0
 40 53  2  0
 40 58  1  0
 41111  1  0
 41112  1  0
 41113  1  0
 42 43  1  0
 42 66  1  0
 42114  1  0
 42115  1  0
 43 44  1  0
 44116  1  0
 45 46  2  0
 45117  1  0
 46118  1  0
 47119  1  0
 47120  1  0
 48 41  1  0
 48 56  1  0
 48 65  1  0
 48121  1  1
 49 50  1  0
 49 53  1  0
 49 64  1  0
 49122  1  1
 50 51  1  0
 50123  1  0
 50124  1  0
 51 52  1  0
 51125  1  0
 51126  1  0
 52127  1  0
 52128  1  0
 53 54  1  0
 54 55  2  0
 54129  1  0
 55 57  1  0
 55130  1  0
 56 69  2  0
 57 58  2  0
 57131  1  0
 58132  1  0
 59 60  1  0
 59 61  1  0
 59 62  1  0
 60133  1  0
 60134  1  0
 60135  1  0
 61136  1  0
 61137  1  0
 61138  1  0
 62139  1  0
 62140  1  0
 62141  1  0
 63 65  1  0
 63142  1  0
 63143  1  0
 63144  1  0
 64145  1  0
 65146  1  0
 68 82  1  0
 71 73  2  0
 71 77  1  0
 71147  1  0
 72 74  1  0
 72 77  2  0
 72148  1  0
 73 78  1  0
 73149  1  0
 74 78  2  0
 74150  1  0
 75 76  1  0
 75 79  2  0
 75151  1  0
 76 80  2  0
 76 82  1  0
 77 84  1  0
 78 85  1  0
 79 84  1  0
 79 86  1  0
 80 84  1  0
 80 87  1  0
 81 83  1  0
 81152  1  0
 81153  1  0
 81154  1  0
 82155  1  0
 82156  1  0
 83 85  1  0
 83157  1  0
 83158  1  0
 86159  1  0
 87160  1  0
M  ISO  4   1 100  68 101  82 101  85 100
M  END
$$$$
19
     RDKit          3D

153161  0  0  0  0  0  0  0  0999 V2000
  -30.7652  -14.3608   20.6636 C   0  0  0  0  0  0  0  0  0100  0  0
  -30.4392  -12.2669   19.3775 C   0  0  0  0  0  0  0  0  0101  0  0
  -29.4791  -12.5281   18.1977 C   0  0  0  0  0  0  0  0  0102  0  0
  -27.9985  -12.3963   18.6038 C   0  0  0  0  0  0  0  0  0103  0  0
  -27.6639  -13.2170   19.8820 C   0  0  2  0  0  0  0  0  0104  0  0
  -28.6795  -12.9602   21.0279 C   0  0  0  0  0  0  0  0  0105  0  0
  -25.2633  -13.8245   20.5754 C   0  0  0  0  0  0  0  0  0106  0  0
  -24.1645  -13.0409   20.9408 C   0  0  0  0  0  0  0  0  0107  0  0
  -24.6400  -11.7009   20.8697 C   0  0  0  0  0  0  0  0  0108  0  0
  -23.9005  -10.4085   21.0420 C   0  0  0  0  0  0  0  0  0109  0  0
  -24.3588   -9.4123   21.9123 C   0  0  0  0  0  0  0  0  0110  0  0
  -23.6296   -8.2350   22.0803 C   0  0  0  0  0  0  0  0  0111  0  0
  -22.4385   -8.0419   21.3657 C   0  0  0  0  0  0  0  0  0112  0  0
  -22.0103   -9.0167   20.4678 C   0  0  0  0  0  0  0  0  0113  0  0
  -22.7317  -10.1925   20.3102 C   0  0  0  0  0  0  0  0  0114  0  0
  -21.6857   -6.0709   22.5391 C   0  0  0  0  0  0  0  0  0115  0  0
  -21.4064   -6.5490   23.8264 C   0  0  0  0  0  0  0  0  0116  0  0
  -21.3635   -5.6677   24.9085 C   0  0  0  0  0  0  0  0  0117  0  0
  -21.5973   -4.3067   24.7088 C   0  0  0  0  0  0  0  0  0118  0  0
  -21.8700   -3.8284   23.4282 C   0  0  0  0  0  0  0  0  0119  0  0
  -21.9144   -4.7056   22.3460 C   0  0  0  0  0  0  0  0  0120  0  0
  -22.8194  -13.5263   21.1763 C   0  0  0  0  0  0  0  0  0121  0  0
  -22.1559   -4.2206   21.1063 F   0  0  0  0  0  0  0  0  0122  0  0
  -21.5628   -3.4510   25.7555 F   0  0  0  0  0  0  0  0  0123  0  0
  -30.0261  -13.1803   20.4553 N   0  0  0  0  0  0  0  0  0124  0  0
  -26.2911  -12.9356   20.3443 N   0  0  0  0  0  0  0  0  0125  0  0
  -25.9236  -11.6675   20.5847 N   0  0  0  0  0  0  0  0  0126  0  0
  -22.0708  -12.7905   22.0005 N   0  0  0  0  0  0  0  0  0127  0  0
  -25.4117  -15.1773   20.4097 N   0  0  0  0  0  0  0  0  0128  0  0
  -31.7916  -14.6724   20.0536 O   0  0  0  0  0  0  0  0  0129  0  0
  -21.6670   -6.9022   21.4423 O   0  0  0  0  0  0  0  0  0130  0  0
  -22.3946  -14.5564   20.6568 O   0  0  0  0  0  0  0  0  0131  0  0
  -24.6048  -31.8614   23.2223 C   0  0  0  0  0  0  0  0  0100  0  0
  -25.8822  -32.4841   23.8616 C   0  0  1  0  0  0  0  0  0101  0  0
  -27.2536  -27.5042   20.1156 C   0  0  0  0  0  0  0  0  0102  0  0
  -25.5726  -33.8762   24.2210 N   0  0  0  0  0  0  0  0  0103  0  0
  -23.4066  -30.4859   21.5461 C   0  0  2  0  0  0  0  0  0104  0  0
  -24.8467  -28.9636   20.1247 C   0  0  0  0  0  0  0  0  0105  0  0
  -22.7412  -29.4652   22.5052 C   0  0  0  0  0  0  0  0  0106  0  0
  -18.0167  -28.1302   22.8626 C   0  0  0  0  0  0  0  0  0107  0  0
  -24.1342  -36.7390   23.2568 C   0  0  0  0  0  0  0  0  0108  0  0
  -25.9141  -30.8882   21.3456 C   0  0  0  0  0  0  0  0  0109  0  0
  -25.9930  -29.5029   20.7208 C   0  0  0  0  0  0  0  0  0110  0  0
  -27.1758  -28.7612   20.7331 C   0  0  0  0  0  0  0  0  0111  0  0
  -26.1032  -26.9836   19.5230 C   0  0  0  0  0  0  0  0  0112  0  0
  -24.9097  -27.7011   19.5331 C   0  0  0  0  0  0  0  0  0113  0  0
  -23.5715  -29.7899   20.1582 C   0  0  0  0  0  0  0  0  0114  0  0
  -25.3990  -36.3212   24.0232 C   0  0  1  0  0  0  0  0  0115  0  0
  -20.5793  -28.3813   23.1004 C   0  0  2  0  0  0  0  0  0116  0  0
  -20.6548  -26.9392   22.5411 C   0  0  0  0  0  0  0  0  0117  0  0
  -19.5615  -26.6407   21.5143 C   0  0  0  0  0  0  0  0  0118  0  0
  -18.1797  -26.7818   22.1673 C   0  0  0  0  0  0  0  0  0119  0  0
  -19.1385  -28.8769   23.2988 C   0  0  0  0  0  0  0  0  0120  0  0
  -18.9183  -30.1286   23.8878 C   0  0  0  0  0  0  0  0  0121  0  0
  -17.6396  -30.6493   24.0352 C   0  0  0  0  0  0  0  0  0122  0  0
  -25.9153  -34.9582   23.4993 C   0  0  0  0  0  0  0  0  0123  0  0
  -16.5415  -29.9068   23.6254 C   0  0  0  0  0  0  0  0  0124  0  0
  -16.7331  -28.6521   23.0586 C   0  0  0  0  0  0  0  0  0125  0  0
  -26.4583  -31.6439   25.0683 C   0  0  0  0  0  0  0  0  0126  0  0
  -25.3807  -31.3179   26.1374 C   0  0  0  0  0  0  0  0  0127  0  0
  -27.0530  -30.3024   24.5680 C   0  0  0  0  0  0  0  0  0128  0  0
  -27.6014  -32.4281   25.7651 C   0  0  0  0  0  0  0  0  0129  0  0
  -27.5629  -37.2220   24.8621 C   0  0  0  0  0  0  0  0  0130  0  0
  -21.4133  -29.3375   22.3735 N   0  0  0  0  0  0  0  0  0131  0  0
  -26.4706  -37.3372   23.9061 N   0  0  0  0  0  0  0  0  0132  0  0
  -24.6674  -31.0544   22.1178 N   0  0  0  0  0  0  0  0  0133  0  0
  -23.4259  -28.8150   23.2971 O   0  0  0  0  0  0  0  0  0134  0  0
  -28.3948  -26.7345   20.0089 O   0  0  0  0  0  0  0  0  0135  0  0
  -26.5870  -34.9065   22.4671 O   0  0  0  0  0  0  0  0  0136  0  0
  -23.5365  -32.1254   23.7833 O   0  0  0  0  0  0  0  0  0137  0  0
  -29.4338  -22.4639   15.5909 C   0  0  0  0  0  0  0  0  0  0  0  0
  -29.5706  -23.7969   15.9781 C   0  0  0  0  0  0  0  0  0  0  0  0
  -27.2437  -22.3931   16.6085 C   0  0  0  0  0  0  0  0  0  0  0  0
  -28.2703  -21.7620   15.9060 C   0  0  0  0  0  0  0  0  0  0  0  0
  -28.5440  -24.4280   16.6806 C   0  0  0  0  0  0  0  0  0  0  0  0
  -27.3805  -23.7261   16.9958 C   0  0  0  0  0  0  0  0  0  0  0  0
  -25.9879  -21.6620   16.9568 C   0  0  0  0  0  0  0  0  0  0  0  0
  -29.3921  -27.2182   18.8020 C   0  0  0  0  0  0  0  0  0  1  0  0
  -29.7715  -26.0442   17.9203 C   0  0  0  0  0  0  0  0  0  0  0  0
  -28.1493  -20.4134   15.5049 N   0  0  0  0  0  0  0  0  0  0  0  0
  -26.1781  -20.7393   18.0538 N   0  0  0  0  0  0  0  0  0  0  0  0
  -28.6807  -25.7372   17.0606 O   0  0  0  0  0  0  0  0  0  0  0  0
  -26.3959  -24.3372   17.6709 F   0  0  0  0  0  0  0  0  0  0  0  0
  -31.4485  -12.4701   19.0860 H   0  0  0  0  0  0  0  0  0  0  0  0
  -30.3970  -11.2460   19.6950 H   0  0  0  0  0  0  0  0  0  0  0  0
  -29.6870  -11.8204   17.4226 H   0  0  0  0  0  0  0  0  0  0  0  0
  -29.6375  -13.5326   17.8649 H   0  0  0  0  0  0  0  0  0  0  0  0
  -27.7830  -11.3650   18.7904 H   0  0  0  0  0  0  0  0  0  0  0  0
  -27.4028  -12.7801   17.8021 H   0  0  0  0  0  0  0  0  0  0  0  0
  -27.7353  -14.2503   19.6136 H   0  0  0  0  0  0  0  0  0  0  0  0
  -28.5890  -11.9550   21.3832 H   0  0  0  0  0  0  0  0  0  0  0  0
  -28.5005  -13.6134   21.8562 H   0  0  0  0  0  0  0  0  0  0  0  0
  -25.2399   -9.5495   22.4318 H   0  0  0  0  0  0  0  0  0  0  0  0
  -23.9663   -7.5070   22.7297 H   0  0  0  0  0  0  0  0  0  0  0  0
  -21.1515   -8.8641   19.9162 H   0  0  0  0  0  0  0  0  0  0  0  0
  -22.4016  -10.9115   19.6476 H   0  0  0  0  0  0  0  0  0  0  0  0
  -21.2319   -7.5552   23.9750 H   0  0  0  0  0  0  0  0  0  0  0  0
  -21.1589   -6.0228   25.8556 H   0  0  0  0  0  0  0  0  0  0  0  0
  -22.0396   -2.8212   23.2809 H   0  0  0  0  0  0  0  0  0  0  0  0
  -22.4401  -11.9703   22.4008 H   0  0  0  0  0  0  0  0  0  0  0  0
  -21.1493  -13.0679   22.2082 H   0  0  0  0  0  0  0  0  0  0  0  0
  -24.6538  -15.7807   20.5848 H   0  0  0  0  0  0  0  0  0  0  0  0
  -26.2762  -15.5453   20.1156 H   0  0  0  0  0  0  0  0  0  0  0  0
  -26.6778  -32.4663   23.1464 H   0  0  0  0  0  0  0  0  0  0  0  0
  -25.0747  -34.0282   25.0566 H   0  0  0  0  0  0  0  0  0  0  0  0
  -22.7881  -31.3489   21.4131 H   0  0  0  0  0  0  0  0  0  0  0  0
  -23.3854  -35.9823   23.3648 H   0  0  0  0  0  0  0  0  0  0  0  0
  -24.3696  -36.8624   22.2204 H   0  0  0  0  0  0  0  0  0  0  0  0
  -23.7669  -37.6632   23.6516 H   0  0  0  0  0  0  0  0  0  0  0  0
  -25.9445  -31.6237   20.5691 H   0  0  0  0  0  0  0  0  0  0  0  0
  -26.7436  -31.0079   22.0108 H   0  0  0  0  0  0  0  0  0  0  0  0
  -28.0090  -29.1452   21.2057 H   0  0  0  0  0  0  0  0  0  0  0  0
  -26.1369  -26.0560   19.0719 H   0  0  0  0  0  0  0  0  0  0  0  0
  -24.0652  -27.2961   19.0997 H   0  0  0  0  0  0  0  0  0  0  0  0
  -23.6156  -30.5365   19.3930 H   0  0  0  0  0  0  0  0  0  0  0  0
  -22.7355  -29.1425   19.9945 H   0  0  0  0  0  0  0  0  0  0  0  0
  -25.1353  -36.2335   25.0565 H   0  0  0  0  0  0  0  0  0  0  0  0
  -21.0070  -28.3206   24.0793 H   0  0  0  0  0  0  0  0  0  0  0  0
  -20.5555  -26.2518   23.3550 H   0  0  0  0  0  0  0  0  0  0  0  0
  -21.5974  -26.8362   22.0454 H   0  0  0  0  0  0  0  0  0  0  0  0
  -19.6810  -25.6422   21.1488 H   0  0  0  0  0  0  0  0  0  0  0  0
  -19.6406  -27.3343   20.7034 H   0  0  0  0  0  0  0  0  0  0  0  0
  -17.4282  -26.6888   21.4113 H   0  0  0  0  0  0  0  0  0  0  0  0
  -18.0803  -26.0130   22.9049 H   0  0  0  0  0  0  0  0  0  0  0  0
  -19.7265  -30.6774   24.2204 H   0  0  0  0  0  0  0  0  0  0  0  0
  -17.5064  -31.5856   24.4483 H   0  0  0  0  0  0  0  0  0  0  0  0
  -15.5878  -30.2839   23.7407 H   0  0  0  0  0  0  0  0  0  0  0  0
  -15.9120  -28.0941   22.7766 H   0  0  0  0  0  0  0  0  0  0  0  0
  -24.5787  -30.7757   25.6817 H   0  0  0  0  0  0  0  0  0  0  0  0
  -25.0041  -32.2289   26.5536 H   0  0  0  0  0  0  0  0  0  0  0  0
  -25.8166  -30.7245   26.9138 H   0  0  0  0  0  0  0  0  0  0  0  0
  -26.2892  -29.7335   24.0803 H   0  0  0  0  0  0  0  0  0  0  0  0
  -27.4336  -29.7484   25.4006 H   0  0  0  0  0  0  0  0  0  0  0  0
  -27.8466  -30.4994   23.8779 H   0  0  0  0  0  0  0  0  0  0  0  0
  -27.2251  -33.3632   26.1242 H   0  0  0  0  0  0  0  0  0  0  0  0
  -28.3902  -32.6065   25.0645 H   0  0  0  0  0  0  0  0  0  0  0  0
  -27.9772  -31.8555   26.5872 H   0  0  0  0  0  0  0  0  0  0  0  0
  -28.2744  -38.0016   24.6863 H   0  0  0  0  0  0  0  0  0  0  0  0
  -28.0396  -36.2711   24.7461 H   0  0  0  0  0  0  0  0  0  0  0  0
  -27.1773  -37.3087   25.8564 H   0  0  0  0  0  0  0  0  0  0  0  0
  -20.9627  -29.9365   21.7352 H   0  0  0  0  0  0  0  0  0  0  0  0
  -26.0447  -38.2561   24.0273 H   0  0  0  0  0  0  0  0  0  0  0  0
  -30.1934  -21.9969   15.0713 H   0  0  0  0  0  0  0  0  0  0  0  0
  -30.4314  -24.3162   15.7448 H   0  0  0  0  0  0  0  0  0  0  0  0
  -25.6593  -21.1138   16.0987 H   0  0  0  0  0  0  0  0  0  0  0  0
  -25.2602  -22.3857   17.2594 H   0  0  0  0  0  0  0  0  0  0  0  0
  -28.8942  -27.9568   18.2091 H   0  0  0  0  0  0  0  0  0  0  0  0
  -30.2818  -27.6277   19.2329 H   0  0  0  0  0  0  0  0  0  0  0  0
  -29.9964  -25.1950   18.5312 H   0  0  0  0  0  0  0  0  0  0  0  0
  -30.6320  -26.2951   17.3359 H   0  0  0  0  0  0  0  0  0  0  0  0
  -28.8812  -19.9796   15.0095 H   0  0  0  0  0  0  0  0  0  0  0  0
  -27.3330  -19.9070   15.7206 H   0  0  0  0  0  0  0  0  0  0  0  0
  -25.5142  -20.9473   18.7504 H   0  0  0  0  0  0  0  0  0  0  0  0
  1 25  1  0
  1 30  2  0
  1 81  1  0
  2  3  1  0
  2 25  1  0
  2 84  1  0
  2 85  1  0
  3  4  1  0
  3 86  1  0
  3 87  1  0
  4  5  1  0
  4 88  1  0
  4 89  1  0
  5  6  1  0
  5 26  1  0
  5 90  1  6
  6 25  1  0
  6 91  1  0
  6 92  1  0
  7  8  2  0
  7 26  1  0
  7 29  1  0
  8  9  1  0
  8 22  1  0
  9 10  1  0
  9 27  2  0
 10 11  2  0
 10 15  1  0
 11 12  1  0
 11 93  1  0
 12 13  2  0
 12 94  1  0
 13 14  1  0
 13 31  1  0
 14 15  2  0
 14 95  1  0
 15 96  1  0
 16 17  2  0
 16 21  1  0
 16 31  1  0
 17 18  1  0
 17 97  1  0
 18 19  2  0
 18 98  1  0
 19 20  1  0
 19 24  1  0
 20 21  2  0
 20 99  1  0
 21 23  1  0
 22 28  1  0
 22 32  2  0
 26 27  1  0
 28100  1  0
 28101  1  0
 29102  1  0
 29103  1  0
 33 34  1  0
 33 66  1  0
 33 70  2  0
 34 36  1  0
 34 59  1  0
 34104  1  6
 35 44  2  0
 35 45  1  0
 35 68  1  0
 36 56  1  0
 36105  1  0
 37 39  1  0
 37 47  1  0
 37 66  1  0
 37106  1  6
 38 43  2  0
 38 46  1  0
 38 47  1  0
 39 64  1  0
 39 67  2  0
 40 52  1  0
 40 53  2  0
 40 58  1  0
 41107  1  0
 41108  1  0
 41109  1  0
 42 43  1  0
 42 66  1  0
 42110  1  0
 42111  1  0
 43 44  1  0
 44112  1  0
 45 46  2  0
 45113  1  0
 46114  1  0
 47115  1  0
 47116  1  0
 48 41  1  0
 48 56  1  0
 48 65  1  0
 48117  1  1
 49 50  1  0
 49 53  1  0
 49 64  1  0
 49118  1  1
 50 51  1  0
 50119  1  0
 50120  1  0
 51 52  1  0
 51121  1  0
 51122  1  0
 52123  1  0
 52124  1  0
 53 54  1  0
 54 55  2  0
 54125  1  0
 55 57  1  0
 55126  1  0
 56 69  2  0
 57 58  2  0
 57127  1  0
 58128  1  0
 59 60  1  0
 59 61  1  0
 59 62  1  0
 60129  1  0
 60130  1  0
 60131  1  0
 61132  1  0
 61133  1  0
 61134  1  0
 62135  1  0
 62136  1  0
 62137  1  0
 63 65  1  0
 63138  1  0
 63139  1  0
 63140  1  0
 64141  1  0
 65142  1  0
 68 78  1  0
 71 72  2  0
 71 74  1  0
 71143  1  0
 72 75  1  0
 72144  1  0
 73 74  2  0
 73 76  1  0
 73 77  1  0
 74 80  1  0
 75 76  2  0
 75 82  1  0
 76 83  1  0
 77 81  1  0
 77145  1  0
 77146  1  0
 78 79  1  0
 78147  1  0
 78148  1  0
 79 82  1  0
 79149  1  0
 79150  1  0
 80151  1  0
 80152  1  0
 81153  1  0
M  ISO  4   1 100  68 101  78 101  81 100
M  END
$$$$
20
     RDKit          3D

162170  0  0  0  0  0  0  0  0999 V2000
  -30.7652  -14.3608   20.6636 C   0  0  0  0  0  0  0  0  0100  0  0
  -30.4392  -12.2669   19.3775 C   0  0  0  0  0  0  0  0  0101  0  0
  -29.4791  -12.5281   18.1977 C   0  0  0  0  0  0  0  0  0102  0  0
  -27.9985  -12.3963   18.6038 C   0  0  0  0  0  0  0  0  0103  0  0
  -27.6639  -13.2170   19.8820 C   0  0  2  0  0  0  0  0  0104  0  0
  -28.6795  -12.9602   21.0279 C   0  0  0  0  0  0  0  0  0105  0  0
  -25.2633  -13.8245   20.5754 C   0  0  0  0  0  0  0  0  0106  0  0
  -24.1645  -13.0409   20.9408 C   0  0  0  0  0  0  0  0  0107  0  0
  -24.6400  -11.7009   20.8697 C   0  0  0  0  0  0  0  0  0108  0  0
  -23.9005  -10.4085   21.0420 C   0  0  0  0  0  0  0  0  0109  0  0
  -24.3588   -9.4123   21.9123 C   0  0  0  0  0  0  0  0  0110  0  0
  -23.6296   -8.2350   22.0803 C   0  0  0  0  0  0  0  0  0111  0  0
  -22.4385   -8.0419   21.3657 C   0  0  0  0  0  0  0  0  0112  0  0
  -22.0103   -9.0167   20.4678 C   0  0  0  0  0  0  0  0  0113  0  0
  -22.7317  -10.1925   20.3102 C   0  0  0  0  0  0  0  0  0114  0  0
  -21.6857   -6.0709   22.5391 C   0  0  0  0  0  0  0  0  0115  0  0
  -21.4064   -6.5490   23.8264 C   0  0  0  0  0  0  0  0  0116  0  0
  -21.3635   -5.6677   24.9085 C   0  0  0  0  0  0  0  0  0117  0  0
  -21.5973   -4.3067   24.7088 C   0  0  0  0  0  0  0  0  0118  0  0
  -21.8700   -3.8284   23.4282 C   0  0  0  0  0  0  0  0  0119  0  0
  -21.9144   -4.7056   22.3460 C   0  0  0  0  0  0  0  0  0120  0  0
  -22.8194  -13.5263   21.1763 C   0  0  0  0  0  0  0  0  0121  0  0
  -22.1559   -4.2206   21.1063 F   0  0  0  0  0  0  0  0  0122  0  0
  -21.5628   -3.4510   25.7555 F   0  0  0  0  0  0  0  0  0123  0  0
  -30.0261  -13.1803   20.4553 N   0  0  0  0  0  0  0  0  0124  0  0
  -26.2911  -12.9356   20.3443 N   0  0  0  0  0  0  0  0  0125  0  0
  -25.9236  -11.6675   20.5847 N   0  0  0  0  0  0  0  0  0126  0  0
  -22.0708  -12.7905   22.0005 N   0  0  0  0  0  0  0  0  0127  0  0
  -25.4117  -15.1773   20.4097 N   0  0  0  0  0  0  0  0  0128  0  0
  -31.7916  -14.6724   20.0536 O   0  0  0  0  0  0  0  0  0129  0  0
  -21.6670   -6.9022   21.4423 O   0  0  0  0  0  0  0  0  0130  0  0
  -22.3946  -14.5564   20.6568 O   0  0  0  0  0  0  0  0  0131  0  0
  -24.6048  -31.8614   23.2223 C   0  0  0  0  0  0  0  0  0100  0  0
  -25.8822  -32.4841   23.8616 C   0  0  1  0  0  0  0  0  0101  0  0
  -27.2536  -27.5042   20.1156 C   0  0  0  0  0  0  0  0  0102  0  0
  -25.5726  -33.8762   24.2210 N   0  0  0  0  0  0  0  0  0103  0  0
  -23.4066  -30.4859   21.5461 C   0  0  2  0  0  0  0  0  0104  0  0
  -24.8467  -28.9636   20.1247 C   0  0  0  0  0  0  0  0  0105  0  0
  -22.7412  -29.4652   22.5052 C   0  0  0  0  0  0  0  0  0106  0  0
  -18.0167  -28.1302   22.8626 C   0  0  0  0  0  0  0  0  0107  0  0
  -24.1342  -36.7390   23.2568 C   0  0  0  0  0  0  0  0  0108  0  0
  -25.9141  -30.8882   21.3456 C   0  0  0  0  0  0  0  0  0109  0  0
  -25.9930  -29.5029   20.7208 C   0  0  0  0  0  0  0  0  0110  0  0
  -27.1758  -28.7612   20.7331 C   0  0  0  0  0  0  0  0  0111  0  0
  -26.1032  -26.9836   19.5230 C   0  0  0  0  0  0  0  0  0112  0  0
  -24.9097  -27.7011   19.5331 C   0  0  0  0  0  0  0  0  0113  0  0
  -23.5715  -29.7899   20.1582 C   0  0  0  0  0  0  0  0  0114  0  0
  -25.3990  -36.3212   24.0232 C   0  0  1  0  0  0  0  0  0115  0  0
  -20.5793  -28.3813   23.1004 C   0  0  2  0  0  0  0  0  0116  0  0
  -20.6548  -26.9392   22.5411 C   0  0  0  0  0  0  0  0  0117  0  0
  -19.5615  -26.6407   21.5143 C   0  0  0  0  0  0  0  0  0118  0  0
  -18.1797  -26.7818   22.1673 C   0  0  0  0  0  0  0  0  0119  0  0
  -19.1385  -28.8769   23.2988 C   0  0  0  0  0  0  0  0  0120  0  0
  -18.9183  -30.1286   23.8878 C   0  0  0  0  0  0  0  0  0121  0  0
  -17.6396  -30.6493   24.0352 C   0  0  0  0  0  0  0  0  0122  0  0
  -25.9153  -34.9582   23.4993 C   0  0  0  0  0  0  0  0  0123  0  0
  -16.5415  -29.9068   23.6254 C   0  0  0  0  0  0  0  0  0124  0  0
  -16.7331  -28.6521   23.0586 C   0  0  0  0  0  0  0  0  0125  0  0
  -26.4583  -31.6439   25.0683 C   0  0  0  0  0  0  0  0  0126  0  0
  -25.3807  -31.3179   26.1374 C   0  0  0  0  0  0  0  0  0127  0  0
  -27.0530  -30.3024   24.5680 C   0  0  0  0  0  0  0  0  0128  0  0
  -27.6014  -32.4281   25.7651 C   0  0  0  0  0  0  0  0  0129  0  0
  -27.5629  -37.2220   24.8621 C   0  0  0  0  0  0  0  0  0130  0  0
  -21.4133  -29.3375   22.3735 N   0  0  0  0  0  0  0  0  0131  0  0
  -26.4706  -37.3372   23.9061 N   0  0  0  0  0  0  0  0  0132  0  0
  -24.6674  -31.0544   22.1178 N   0  0  0  0  0  0  0  0  0133  0  0
  -23.4259  -28.8150   23.2971 O   0  0  0  0  0  0  0  0  0134  0  0
  -28.3948  -26.7345   20.0089 O   0  0  0  0  0  0  0  0  0135  0  0
  -26.5870  -34.9065   22.4671 O   0  0  0  0  0  0  0  0  0136  0  0
  -23.5365  -32.1254   23.7833 O   0  0  0  0  0  0  0  0  0137  0  0
  -28.5219  -16.6884   19.3783 C   0  0  0  0  0  0  0  0  0  0  0  0
  -30.8744  -17.0882   20.8234 C   0  0  0  0  0  0  0  0  0  0  0  0
  -29.5770  -15.7842   19.2571 C   0  0  0  0  0  0  0  0  0  0  0  0
  -28.6430  -17.7926   20.2220 C   0  0  0  0  0  0  0  0  0  0  0  0
  -30.7533  -15.9841   19.9797 C   0  0  0  0  0  0  0  0  0  0  0  0
  -29.8193  -17.9924   20.9446 C   0  0  0  0  0  0  0  0  0  0  0  0
  -27.5805  -13.2094   19.2563 C   0  0  0  0  0  0  0  0  0  0  0  0
  -29.8968  -14.8898   16.9141 C   0  0  0  0  0  0  0  0  0  0  0  0
  -26.1180  -12.8772   19.0200 C   0  0  0  0  0  0  0  0  0  0  0  0
  -25.3841  -12.5266   20.3093 C   0  0  0  0  0  0  0  0  0  0  0  0
  -25.3758  -13.6929   21.2869 C   0  0  0  0  0  0  0  0  0  1  0  0
  -29.4184  -14.5951   18.3343 C   0  0  2  0  0  0  0  0  0  0  0  0
  -31.8319  -15.0792   19.8693 N   0  0  0  0  0  0  0  0  0  0  0  0
  -27.5698  -18.7097   20.3434 N   0  0  0  0  0  0  0  0  0  0  0  0
  -28.0556  -14.1189   18.3227 N   0  0  0  0  0  0  0  0  0  0  0  0
  -28.2442  -12.7228   20.1679 O   0  0  0  0  0  0  0  0  0  0  0  0
  -29.9468  -19.0502   21.7585 F   0  0  0  0  0  0  0  0  0  0  0  0
  -31.4485  -12.4701   19.0860 H   0  0  0  0  0  0  0  0  0  0  0  0
  -30.3970  -11.2460   19.6950 H   0  0  0  0  0  0  0  0  0  0  0  0
  -29.6870  -11.8204   17.4226 H   0  0  0  0  0  0  0  0  0  0  0  0
  -29.6375  -13.5326   17.8649 H   0  0  0  0  0  0  0  0  0  0  0  0
  -27.7830  -11.3650   18.7904 H   0  0  0  0  0  0  0  0  0  0  0  0
  -27.4028  -12.7801   17.8021 H   0  0  0  0  0  0  0  0  0  0  0  0
  -27.7353  -14.2503   19.6136 H   0  0  0  0  0  0  0  0  0  0  0  0
  -28.5890  -11.9550   21.3832 H   0  0  0  0  0  0  0  0  0  0  0  0
  -28.5005  -13.6134   21.8562 H   0  0  0  0  0  0  0  0  0  0  0  0
  -25.2399   -9.5495   22.4318 H   0  0  0  0  0  0  0  0  0  0  0  0
  -23.9663   -7.5070   22.7297 H   0  0  0  0  0  0  0  0  0  0  0  0
  -21.1515   -8.8641   19.9162 H   0  0  0  0  0  0  0  0  0  0  0  0
  -22.4016  -10.9115   19.6476 H   0  0  0  0  0  0  0  0  0  0  0  0
  -21.2319   -7.5552   23.9750 H   0  0  0  0  0  0  0  0  0  0  0  0
  -21.1589   -6.0228   25.8556 H   0  0  0  0  0  0  0  0  0  0  0  0
  -22.0396   -2.8212   23.2809 H   0  0  0  0  0  0  0  0  0  0  0  0
  -22.4401  -11.9703   22.4008 H   0  0  0  0  0  0  0  0  0  0  0  0
  -21.1493  -13.0679   22.2082 H   0  0  0  0  0  0  0  0  0  0  0  0
  -24.6538  -15.7807   20.5848 H   0  0  0  0  0  0  0  0  0  0  0  0
  -26.2762  -15.5453   20.1156 H   0  0  0  0  0  0  0  0  0  0  0  0
  -26.6778  -32.4663   23.1464 H   0  0  0  0  0  0  0  0  0  0  0  0
  -25.0747  -34.0282   25.0566 H   0  0  0  0  0  0  0  0  0  0  0  0
  -22.7881  -31.3489   21.4131 H   0  0  0  0  0  0  0  0  0  0  0  0
  -23.3854  -35.9823   23.3648 H   0  0  0  0  0  0  0  0  0  0  0  0
  -24.3696  -36.8624   22.2204 H   0  0  0  0  0  0  0  0  0  0  0  0
  -23.7669  -37.6632   23.6516 H   0  0  0  0  0  0  0  0  0  0  0  0
  -25.9445  -31.6237   20.5691 H   0  0  0  0  0  0  0  0  0  0  0  0
  -26.7436  -31.0079   22.0108 H   0  0  0  0  0  0  0  0  0  0  0  0
  -28.0090  -29.1452   21.2057 H   0  0  0  0  0  0  0  0  0  0  0  0
  -26.1369  -26.0560   19.0719 H   0  0  0  0  0  0  0  0  0  0  0  0
  -24.0652  -27.2961   19.0997 H   0  0  0  0  0  0  0  0  0  0  0  0
  -23.6156  -30.5365   19.3930 H   0  0  0  0  0  0  0  0  0  0  0  0
  -22.7355  -29.1425   19.9945 H   0  0  0  0  0  0  0  0  0  0  0  0
  -25.1353  -36.2335   25.0565 H   0  0  0  0  0  0  0  0  0  0  0  0
  -21.0070  -28.3206   24.0793 H   0  0  0  0  0  0  0  0  0  0  0  0
  -20.5555  -26.2518   23.3550 H   0  0  0  0  0  0  0  0  0  0  0  0
  -21.5974  -26.8362   22.0454 H   0  0  0  0  0  0  0  0  0  0  0  0
  -19.6810  -25.6422   21.1488 H   0  0  0  0  0  0  0  0  0  0  0  0
  -19.6406  -27.3343   20.7034 H   0  0  0  0  0  0  0  0  0  0  0  0
  -17.4282  -26.6888   21.4113 H   0  0  0  0  0  0  0  0  0  0  0  0
  -18.0803  -26.0130   22.9049 H   0  0  0  0  0  0  0  0  0  0  0  0
  -19.7265  -30.6774   24.2204 H   0  0  0  0  0  0  0  0  0  0  0  0
  -17.5064  -31.5856   24.4483 H   0  0  0  0  0  0  0  0  0  0  0  0
  -15.5878  -30.2839   23.7407 H   0  0  0  0  0  0  0  0  0  0  0  0
  -15.9120  -28.0941   22.7766 H   0  0  0  0  0  0  0  0  0  0  0  0
  -24.5787  -30.7757   25.6817 H   0  0  0  0  0  0  0  0  0  0  0  0
  -25.0041  -32.2289   26.5536 H   0  0  0  0  0  0  0  0  0  0  0  0
  -25.8166  -30.7245   26.9138 H   0  0  0  0  0  0  0  0  0  0  0  0
  -26.2892  -29.7335   24.0803 H   0  0  0  0  0  0  0  0  0  0  0  0
  -27.4336  -29.7484   25.4006 H   0  0  0  0  0  0  0  0  0  0  0  0
  -27.8466  -30.4994   23.8779 H   0  0  0  0  0  0  0  0  0  0  0  0
  -27.2251  -33.3632   26.1242 H   0  0  0  0  0  0  0  0  0  0  0  0
  -28.3902  -32.6065   25.0645 H   0  0  0  0  0  0  0  0  0  0  0  0
  -27.9772  -31.8555   26.5872 H   0  0  0  0  0  0  0  0  0  0  0  0
  -28.2744  -38.0016   24.6863 H   0  0  0  0  0  0  0  0  0  0  0  0
  -28.0396  -36.2711   24.7461 H   0  0  0  0  0  0  0  0  0  0  0  0
  -27.1773  -37.3087   25.8564 H   0  0  0  0  0  0  0  0  0  0  0  0
  -20.9627  -29.9365   21.7352 H   0  0  0  0  0  0  0  0  0  0  0  0
  -26.0447  -38.2561   24.0273 H   0  0  0  0  0  0  0  0  0  0  0  0
  -27.6516  -16.5405   18.8437 H   0  0  0  0  0  0  0  0  0  0  0  0
  -31.7447  -17.2361   21.3580 H   0  0  0  0  0  0  0  0  0  0  0  0
  -30.9071  -15.2409   16.9437 H   0  0  0  0  0  0  0  0  0  0  0  0
  -29.2715  -15.6391   16.4754 H   0  0  0  0  0  0  0  0  0  0  0  0
  -29.8469  -13.9958   16.3282 H   0  0  0  0  0  0  0  0  0  0  0  0
  -26.0590  -12.0422   18.3535 H   0  0  0  0  0  0  0  0  0  0  0  0
  -25.6500  -13.7453   18.6049 H   0  0  0  0  0  0  0  0  0  0  0  0
  -25.8706  -11.6920   20.7693 H   0  0  0  0  0  0  0  0  0  0  0  0
  -24.3700  -12.2909   20.0625 H   0  0  0  0  0  0  0  0  0  0  0  0
  -26.0281  -13.3641   22.0688 H   0  0  0  0  0  0  0  0  0  0  0  0
  -24.3139  -13.8242   21.2954 H   0  0  0  0  0  0  0  0  0  0  0  0
  -30.0456  -13.8215   18.7256 H   0  0  0  0  0  0  0  0  0  0  0  0
  -32.6568  -15.2314   20.3846 H   0  0  0  0  0  0  0  0  0  0  0  0
  -31.7589  -14.2962   19.2770 H   0  0  0  0  0  0  0  0  0  0  0  0
  -26.8998  -19.4309   20.3565 H   0  0  0  0  0  0  0  0  0  0  0  0
  -27.4421  -14.4511   17.6281 H   0  0  0  0  0  0  0  0  0  0  0  0
  1 25  1  0
  1 30  2  0
  1 84  1  0
  2  3  1  0
  2 25  1  0
  2 88  1  0
  2 89  1  0
  3  4  1  0
  3 90  1  0
  3 91  1  0
  4  5  1  0
  4 92  1  0
  4 93  1  0
  5  6  1  0
  5 26  1  0
  5 94  1  6
  6 25  1  0
  6 95  1  0
  6 96  1  0
  7  8  2  0
  7 26  1  0
  7 29  1  0
  8  9  1  0
  8 22  1  0
  9 10  1  0
  9 27  2  0
 10 11  2  0
 10 15  1  0
 11 12  1  0
 11 97  1  0
 12 13  2  0
 12 98  1  0
 13 14  1  0
 13 31  1  0
 14 15  2  0
 14 99  1  0
 15100  1  0
 16 17  2  0
 16 21  1  0
 16 31  1  0
 17 18  1  0
 17101  1  0
 18 19  2  0
 18102  1  0
 19 20  1  0
 19 24  1  0
 20 21  2  0
 20103  1  0
 21 23  1  0
 22 28  1  0
 22 32  2  0
 26 27  1  0
 28104  1  0
 28105  1  0
 29106  1  0
 29107  1  0
 33 34  1  0
 33 66  1  0
 33 70  2  0
 34 36  1  0
 34 59  1  0
 34108  1  6
 35 44  2  0
 35 45  1  0
 35 68  1  0
 36 56  1  0
 36109  1  0
 37 39  1  0
 37 47  1  0
 37 66  1  0
 37110  1  6
 38 43  2  0
 38 46  1  0
 38 47  1  0
 39 64  1  0
 39 67  2  0
 40 52  1  0
 40 53  2  0
 40 58  1  0
 41111  1  0
 41112  1  0
 41113  1  0
 42 43  1  0
 42 66  1  0
 42114  1  0
 42115  1  0
 43 44  1  0
 44116  1  0
 45 46  2  0
 45117  1  0
 46118  1  0
 47119  1  0
 47120  1  0
 48 41  1  0
 48 56  1  0
 48 65  1  0
 48121  1  1
 49 50  1  0
 49 53  1  0
 49 64  1  0
 49122  1  1
 50 51  1  0
 50123  1  0
 50124  1  0
 51 52  1  0
 51125  1  0
 51126  1  0
 52127  1  0
 52128  1  0
 53 54  1  0
 54 55  2  0
 54129  1  0
 55 57  1  0
 55130  1  0
 56 69  2  0
 57 58  2  0
 57131  1  0
 58132  1  0
 59 60  1  0
 59 61  1  0
 59 62  1  0
 60133  1  0
 60134  1  0
 60135  1  0
 61136  1  0
 61137  1  0
 61138  1  0
 62139  1  0
 62140  1  0
 62141  1  0
 63 65  1  0
 63142  1  0
 63143  1  0
 63144  1  0
 64145  1  0
 65146  1  0
 68 81  1  0
 71 73  2  0
 71 74  1  0
 71147  1  0
 72 75  2  0
 72 76  1  0
 72148  1  0
 73 75  1  0
 73 82  1  0
 74 76  2  0
 74 84  1  0
 75 83  1  0
 76 87  1  0
 77 79  1  0
 77 85  1  0
 77 86  2  0
 78149  1  0
 78150  1  0
 78151  1  0
 79 80  1  0
 79152  1  0
 79153  1  0
 80 81  1  0
 80154  1  0
 80155  1  0
 81156  1  0
 81157  1  0
 82 78  1  0
 82 85  1  0
 82158  1  1
 83159  1  0
 83160  1  0
 84161  1  0
 85162  1  0
M  ISO  4   1 100  68 101  81 101  84 100
M  END
$$$$
21
     RDKit          3D

163172  0  0  0  0  0  0  0  0999 V2000
  -30.7652  -14.3608   20.6636 C   0  0  0  0  0  0  0  0  0100  0  0
  -30.4392  -12.2669   19.3775 C   0  0  0  0  0  0  0  0  0101  0  0
  -29.4791  -12.5281   18.1977 C   0  0  0  0  0  0  0  0  0102  0  0
  -27.9985  -12.3963   18.6038 C   0  0  0  0  0  0  0  0  0103  0  0
  -27.6639  -13.2170   19.8820 C   0  0  2  0  0  0  0  0  0104  0  0
  -28.6795  -12.9602   21.0279 C   0  0  0  0  0  0  0  0  0105  0  0
  -25.2633  -13.8245   20.5754 C   0  0  0  0  0  0  0  0  0106  0  0
  -24.1645  -13.0409   20.9408 C   0  0  0  0  0  0  0  0  0107  0  0
  -24.6400  -11.7009   20.8697 C   0  0  0  0  0  0  0  0  0108  0  0
  -23.9005  -10.4085   21.0420 C   0  0  0  0  0  0  0  0  0109  0  0
  -24.3588   -9.4123   21.9123 C   0  0  0  0  0  0  0  0  0110  0  0
  -23.6296   -8.2350   22.0803 C   0  0  0  0  0  0  0  0  0111  0  0
  -22.4385   -8.0419   21.3657 C   0  0  0  0  0  0  0  0  0112  0  0
  -22.0103   -9.0167   20.4678 C   0  0  0  0  0  0  0  0  0113  0  0
  -22.7317  -10.1925   20.3102 C   0  0  0  0  0  0  0  0  0114  0  0
  -21.6857   -6.0709   22.5391 C   0  0  0  0  0  0  0  0  0115  0  0
  -21.4064   -6.5490   23.8264 C   0  0  0  0  0  0  0  0  0116  0  0
  -21.3635   -5.6677   24.9085 C   0  0  0  0  0  0  0  0  0117  0  0
  -21.5973   -4.3067   24.7088 C   0  0  0  0  0  0  0  0  0118  0  0
  -21.8700   -3.8284   23.4282 C   0  0  0  0  0  0  0  0  0119  0  0
  -21.9144   -4.7056   22.3460 C   0  0  0  0  0  0  0  0  0120  0  0
  -22.8194  -13.5263   21.1763 C   0  0  0  0  0  0  0  0  0121  0  0
  -22.1559   -4.2206   21.1063 F   0  0  0  0  0  0  0  0  0122  0  0
  -21.5628   -3.4510   25.7555 F   0  0  0  0  0  0  0  0  0123  0  0
  -30.0261  -13.1803   20.4553 N   0  0  0  0  0  0  0  0  0124  0  0
  -26.2911  -12.9356   20.3443 N   0  0  0  0  0  0  0  0  0125  0  0
  -25.9236  -11.6675   20.5847 N   0  0  0  0  0  0  0  0  0126  0  0
  -22.0708  -12.7905   22.0005 N   0  0  0  0  0  0  0  0  0127  0  0
  -25.4117  -15.1773   20.4097 N   0  0  0  0  0  0  0  0  0128  0  0
  -31.7916  -14.6724   20.0536 O   0  0  0  0  0  0  0  0  0129  0  0
  -21.6670   -6.9022   21.4423 O   0  0  0  0  0  0  0  0  0130  0  0
  -22.3946  -14.5564   20.6568 O   0  0  0  0  0  0  0  0  0131  0  0
  -24.6048  -31.8614   23.2223 C   0  0  0  0  0  0  0  0  0100  0  0
  -25.8822  -32.4841   23.8616 C   0  0  1  0  0  0  0  0  0101  0  0
  -27.2536  -27.5042   20.1156 C   0  0  0  0  0  0  0  0  0102  0  0
  -25.5726  -33.8762   24.2210 N   0  0  0  0  0  0  0  0  0103  0  0
  -23.4066  -30.4859   21.5461 C   0  0  2  0  0  0  0  0  0104  0  0
  -24.8467  -28.9636   20.1247 C   0  0  0  0  0  0  0  0  0105  0  0
  -22.7412  -29.4652   22.5052 C   0  0  0  0  0  0  0  0  0106  0  0
  -18.0167  -28.1302   22.8626 C   0  0  0  0  0  0  0  0  0107  0  0
  -24.1342  -36.7390   23.2568 C   0  0  0  0  0  0  0  0  0108  0  0
  -25.9141  -30.8882   21.3456 C   0  0  0  0  0  0  0  0  0109  0  0
  -25.9930  -29.5029   20.7208 C   0  0  0  0  0  0  0  0  0110  0  0
  -27.1758  -28.7612   20.7331 C   0  0  0  0  0  0  0  0  0111  0  0
  -26.1032  -26.9836   19.5230 C   0  0  0  0  0  0  0  0  0112  0  0
  -24.9097  -27.7011   19.5331 C   0  0  0  0  0  0  0  0  0113  0  0
  -23.5715  -29.7899   20.1582 C   0  0  0  0  0  0  0  0  0114  0  0
  -25.3990  -36.3212   24.0232 C   0  0  1  0  0  0  0  0  0115  0  0
  -20.5793  -28.3813   23.1004 C   0  0  2  0  0  0  0  0  0116  0  0
  -20.6548  -26.9392   22.5411 C   0  0  0  0  0  0  0  0  0117  0  0
  -19.5615  -26.6407   21.5143 C   0  0  0  0  0  0  0  0  0118  0  0
  -18.1797  -26.7818   22.1673 C   0  0  0  0  0  0  0  0  0119  0  0
  -19.1385  -28.8769   23.2988 C   0  0  0  0  0  0  0  0  0120  0  0
  -18.9183  -30.1286   23.8878 C   0  0  0  0  0  0  0  0  0121  0  0
  -17.6396  -30.6493   24.0352 C   0  0  0  0  0  0  0  0  0122  0  0
  -25.9153  -34.9582   23.4993 C   0  0  0  0  0  0  0  0  0123  0  0
  -16.5415  -29.9068   23.6254 C   0  0  0  0  0  0  0  0  0124  0  0
  -16.7331  -28.6521   23.0586 C   0  0  0  0  0  0  0  0  0125  0  0
  -26.4583  -31.6439   25.0683 C   0  0  0  0  0  0  0  0  0126  0  0
  -25.3807  -31.3179   26.1374 C   0  0  0  0  0  0  0  0  0127  0  0
  -27.0530  -30.3024   24.5680 C   0  0  0  0  0  0  0  0  0128  0  0
  -27.6014  -32.4281   25.7651 C   0  0  0  0  0  0  0  0  0129  0  0
  -27.5629  -37.2220   24.8621 C   0  0  0  0  0  0  0  0  0130  0  0
  -21.4133  -29.3375   22.3735 N   0  0  0  0  0  0  0  0  0131  0  0
  -26.4706  -37.3372   23.9061 N   0  0  0  0  0  0  0  0  0132  0  0
  -24.6674  -31.0544   22.1178 N   0  0  0  0  0  0  0  0  0133  0  0
  -23.4259  -28.8150   23.2971 O   0  0  0  0  0  0  0  0  0134  0  0
  -28.3948  -26.7345   20.0089 O   0  0  0  0  0  0  0  0  0135  0  0
  -26.5870  -34.9065   22.4671 O   0  0  0  0  0  0  0  0  0136  0  0
  -23.5365  -32.1254   23.7833 O   0  0  0  0  0  0  0  0  0137  0  0
  -29.8464  -17.2328   24.2511 C   0  0  0  0  0  0  0  0  0  0  0  0
  -29.0693  -17.9746   25.1407 C   0  0  0  0  0  0  0  0  0  0  0  0
  -29.3353  -18.8075   22.4915 C   0  0  0  0  0  0  0  0  0  0  0  0
  -29.9794  -17.6493   22.9264 C   0  0  0  0  0  0  0  0  0  0  0  0
  -28.4251  -19.1329   24.7057 C   0  0  0  0  0  0  0  0  0  0  0  0
  -28.5581  -19.5493   23.3811 C   0  0  0  0  0  0  0  0  0  0  0  0
  -26.2501  -20.1141   25.4550 C   0  0  0  0  0  0  0  0  0  0  0  0
  -25.6363  -20.9694   26.5508 C   0  0  0  0  0  0  0  0  0  0  0  0
  -26.4932  -22.2111   26.7621 C   0  0  0  0  0  0  0  0  0  0  0  0
  -28.2396  -20.3693   26.8854 C   0  0  0  0  0  0  0  0  0  0  0  0
  -27.9403  -21.8525   27.1407 C   0  0  1  0  0  0  0  0  0  0  0  0
  -30.8105  -16.8557   21.9758 C   0  0  0  0  0  0  0  0  0  0  0  0
  -28.9340  -22.7576   26.4127 C   0  0  0  0  0  0  0  0  0  1  0  0
  -27.6291  -19.8809   25.6418 N   0  0  0  0  0  0  0  0  0  0  0  0
  -27.9143  -20.7193   22.9192 N   0  0  0  0  0  0  0  0  0  0  0  0
  -30.1475  -15.6454   21.5441 N   0  0  0  0  0  0  0  0  0  0  0  0
  -25.5511  -19.7384   24.5158 O   0  0  0  0  0  0  0  0  0  0  0  0
  -31.4485  -12.4701   19.0860 H   0  0  0  0  0  0  0  0  0  0  0  0
  -30.3970  -11.2460   19.6950 H   0  0  0  0  0  0  0  0  0  0  0  0
  -29.6870  -11.8204   17.4226 H   0  0  0  0  0  0  0  0  0  0  0  0
  -29.6375  -13.5326   17.8649 H   0  0  0  0  0  0  0  0  0  0  0  0
  -27.7830  -11.3650   18.7904 H   0  0  0  0  0  0  0  0  0  0  0  0
  -27.4028  -12.7801   17.8021 H   0  0  0  0  0  0  0  0  0  0  0  0
  -27.7353  -14.2503   19.6136 H   0  0  0  0  0  0  0  0  0  0  0  0
  -28.5890  -11.9550   21.3832 H   0  0  0  0  0  0  0  0  0  0  0  0
  -28.5005  -13.6134   21.8562 H   0  0  0  0  0  0  0  0  0  0  0  0
  -25.2399   -9.5495   22.4318 H   0  0  0  0  0  0  0  0  0  0  0  0
  -23.9663   -7.5070   22.7297 H   0  0  0  0  0  0  0  0  0  0  0  0
  -21.1515   -8.8641   19.9162 H   0  0  0  0  0  0  0  0  0  0  0  0
  -22.4016  -10.9115   19.6476 H   0  0  0  0  0  0  0  0  0  0  0  0
  -21.2319   -7.5552   23.9750 H   0  0  0  0  0  0  0  0  0  0  0  0
  -21.1589   -6.0228   25.8556 H   0  0  0  0  0  0  0  0  0  0  0  0
  -22.0396   -2.8212   23.2809 H   0  0  0  0  0  0  0  0  0  0  0  0
  -22.4401  -11.9703   22.4008 H   0  0  0  0  0  0  0  0  0  0  0  0
  -21.1493  -13.0679   22.2082 H   0  0  0  0  0  0  0  0  0  0  0  0
  -24.6538  -15.7807   20.5848 H   0  0  0  0  0  0  0  0  0  0  0  0
  -26.2762  -15.5453   20.1156 H   0  0  0  0  0  0  0  0  0  0  0  0
  -26.6778  -32.4663   23.1464 H   0  0  0  0  0  0  0  0  0  0  0  0
  -25.0747  -34.0282   25.0566 H   0  0  0  0  0  0  0  0  0  0  0  0
  -22.7881  -31.3489   21.4131 H   0  0  0  0  0  0  0  0  0  0  0  0
  -23.3854  -35.9823   23.3648 H   0  0  0  0  0  0  0  0  0  0  0  0
  -24.3696  -36.8624   22.2204 H   0  0  0  0  0  0  0  0  0  0  0  0
  -23.7669  -37.6632   23.6516 H   0  0  0  0  0  0  0  0  0  0  0  0
  -25.9445  -31.6237   20.5691 H   0  0  0  0  0  0  0  0  0  0  0  0
  -26.7436  -31.0079   22.0108 H   0  0  0  0  0  0  0  0  0  0  0  0
  -28.0090  -29.1452   21.2057 H   0  0  0  0  0  0  0  0  0  0  0  0
  -26.1369  -26.0560   19.0719 H   0  0  0  0  0  0  0  0  0  0  0  0
  -24.0652  -27.2961   19.0997 H   0  0  0  0  0  0  0  0  0  0  0  0
  -23.6156  -30.5365   19.3930 H   0  0  0  0  0  0  0  0  0  0  0  0
  -22.7355  -29.1425   19.9945 H   0  0  0  0  0  0  0  0  0  0  0  0
  -25.1353  -36.2335   25.0565 H   0  0  0  0  0  0  0  0  0  0  0  0
  -21.0070  -28.3206   24.0793 H   0  0  0  0  0  0  0  0  0  0  0  0
  -20.5555  -26.2518   23.3550 H   0  0  0  0  0  0  0  0  0  0  0  0
  -21.5974  -26.8362   22.0454 H   0  0  0  0  0  0  0  0  0  0  0  0
  -19.6810  -25.6422   21.1488 H   0  0  0  0  0  0  0  0  0  0  0  0
  -19.6406  -27.3343   20.7034 H   0  0  0  0  0  0  0  0  0  0  0  0
  -17.4282  -26.6888   21.4113 H   0  0  0  0  0  0  0  0  0  0  0  0
  -18.0803  -26.0130   22.9049 H   0  0  0  0  0  0  0  0  0  0  0  0
  -19.7265  -30.6774   24.2204 H   0  0  0  0  0  0  0  0  0  0  0  0
  -17.5064  -31.5856   24.4483 H   0  0  0  0  0  0  0  0  0  0  0  0
  -15.5878  -30.2839   23.7407 H   0  0  0  0  0  0  0  0  0  0  0  0
  -15.9120  -28.0941   22.7766 H   0  0  0  0  0  0  0  0  0  0  0  0
  -24.5787  -30.7757   25.6817 H   0  0  0  0  0  0  0  0  0  0  0  0
  -25.0041  -32.2289   26.5536 H   0  0  0  0  0  0  0  0  0  0  0  0
  -25.8166  -30.7245   26.9138 H   0  0  0  0  0  0  0  0  0  0  0  0
  -26.2892  -29.7335   24.0803 H   0  0  0  0  0  0  0  0  0  0  0  0
  -27.4336  -29.7484   25.4006 H   0  0  0  0  0  0  0  0  0  0  0  0
  -27.8466  -30.4994   23.8779 H   0  0  0  0  0  0  0  0  0  0  0  0
  -27.2251  -33.3632   26.1242 H   0  0  0  0  0  0  0  0  0  0  0  0
  -28.3902  -32.6065   25.0645 H   0  0  0  0  0  0  0  0  0  0  0  0
  -27.9772  -31.8555   26.5872 H   0  0  0  0  0  0  0  0  0  0  0  0
  -28.2744  -38.0016   24.6863 H   0  0  0  0  0  0  0  0  0  0  0  0
  -28.0396  -36.2711   24.7461 H   0  0  0  0  0  0  0  0  0  0  0  0
  -27.1773  -37.3087   25.8564 H   0  0  0  0  0  0  0  0  0  0  0  0
  -20.9627  -29.9365   21.7352 H   0  0  0  0  0  0  0  0  0  0  0  0
  -26.0447  -38.2561   24.0273 H   0  0  0  0  0  0  0  0  0  0  0  0
  -30.3230  -16.3759   24.5729 H   0  0  0  0  0  0  0  0  0  0  0  0
  -28.9709  -17.6665   26.1207 H   0  0  0  0  0  0  0  0  0  0  0  0
  -29.4337  -19.1156   21.5115 H   0  0  0  0  0  0  0  0  0  0  0  0
  -25.5920  -20.4071   27.4601 H   0  0  0  0  0  0  0  0  0  0  0  0
  -24.6474  -21.2615   26.2650 H   0  0  0  0  0  0  0  0  0  0  0  0
  -26.0651  -22.7970   27.5484 H   0  0  0  0  0  0  0  0  0  0  0  0
  -26.5170  -22.7577   25.8425 H   0  0  0  0  0  0  0  0  0  0  0  0
  -27.8577  -19.7958   27.7040 H   0  0  0  0  0  0  0  0  0  0  0  0
  -29.3001  -20.2618   26.7924 H   0  0  0  0  0  0  0  0  0  0  0  0
  -28.0534  -22.0196   28.1915 H   0  0  0  0  0  0  0  0  0  0  0  0
  -31.7280  -16.5916   22.4589 H   0  0  0  0  0  0  0  0  0  0  0  0
  -30.9839  -17.4601   21.1100 H   0  0  0  0  0  0  0  0  0  0  0  0
  -29.7766  -22.1204   26.2427 H   0  0  0  0  0  0  0  0  0  0  0  0
  -28.8508  -23.5901   27.0797 H   0  0  0  0  0  0  0  0  0  0  0  0
  -28.0177  -21.0004   21.9814 H   0  0  0  0  0  0  0  0  0  0  0  0
  -27.3624  -21.2533   23.5352 H   0  0  0  0  0  0  0  0  0  0  0  0
  -29.2013  -15.5650   21.8037 H   0  0  0  0  0  0  0  0  0  0  0  0
  1 25  1  0
  1 30  2  0
  1 86  1  0
  2  3  1  0
  2 25  1  0
  2 88  1  0
  2 89  1  0
  3  4  1  0
  3 90  1  0
  3 91  1  0
  4  5  1  0
  4 92  1  0
  4 93  1  0
  5  6  1  0
  5 26  1  0
  5 94  1  6
  6 25  1  0
  6 95  1  0
  6 96  1  0
  7  8  2  0
  7 26  1  0
  7 29  1  0
  8  9  1  0
  8 22  1  0
  9 10  1  0
  9 27  2  0
 10 11  2  0
 10 15  1  0
 11 12  1  0
 11 97  1  0
 12 13  2  0
 12 98  1  0
 13 14  1  0
 13 31  1  0
 14 15  2  0
 14 99  1  0
 15100  1  0
 16 17  2  0
 16 21  1  0
 16 31  1  0
 17 18  1  0
 17101  1  0
 18 19  2  0
 18102  1  0
 19 20  1  0
 19 24  1  0
 20 21  2  0
 20103  1  0
 21 23  1  0
 22 28  1  0
 22 32  2  0
 26 27  1  0
 28104  1  0
 28105  1  0
 29106  1  0
 29107  1  0
 33 34  1  0
 33 66  1  0
 33 70  2  0
 34 36  1  0
 34 59  1  0
 34108  1  6
 35 44  2  0
 35 45  1  0
 35 68  1  0
 36 56  1  0
 36109  1  0
 37 39  1  0
 37 47  1  0
 37 66  1  0
 37110  1  6
 38 43  2  0
 38 46  1  0
 38 47  1  0
 39 64  1  0
 39 67  2  0
 40 52  1  0
 40 53  2  0
 40 58  1  0
 41111  1  0
 41112  1  0
 41113  1  0
 42 43  1  0
 42 66  1  0
 42114  1  0
 42115  1  0
 43 44  1  0
 44116  1  0
 45 46  2  0
 45117  1  0
 46118  1  0
 47119  1  0
 47120  1  0
 48 41  1  0
 48 56  1  0
 48 65  1  0
 48121  1  1
 49 50  1  0
 49 53  1  0
 49 64  1  0
 49122  1  1
 50 51  1  0
 50123  1  0
 50124  1  0
 51 52  1  0
 51125  1  0
 51126  1  0
 52127  1  0
 52128  1  0
 53 54  1  0
 54 55  2  0
 54129  1  0
 55 57  1  0
 55130  1  0
 56 69  2  0
 57 58  2  0
 57131  1  0
 58132  1  0
 59 60  1  0
 59 61  1  0
 59 62  1  0
 60133  1  0
 60134  1  0
 60135  1  0
 61136  1  0
 61137  1  0
 61138  1  0
 62139  1  0
 62140  1  0
 62141  1  0
 63 65  1  0
 63142  1  0
 63143  1  0
 63144  1  0
 64145  1  0
 65146  1  0
 68 83  1  0
 71 72  2  0
 71 74  1  0
 71147  1  0
 72 75  1  0
 72148  1  0
 73 74  2  0
 73 76  1  0
 73149  1  0
 74 82  1  0
 75 76  2  0
 75 84  1  0
 76 85  1  0
 77 78  1  0
 77 84  1  0
 77 87  2  0
 78 79  1  0
 78150  1  0
 78151  1  0
 79 81  1  0
 79152  1  0
 79153  1  0
 80 81  1  0
 80 84  1  0
 80154  1  0
 80155  1  0
 81 83  1  0
 81156  1  1
 82 86  1  0
 82157  1  0
 82158  1  0
 83159  1  0
 83160  1  0
 85161  1  0
 85162  1  0
 86163  1  0
M  ISO  4   1 100  68 101  83 101  86 100
M  END
$$$$
22
     RDKit          3D

161170  0  0  0  0  0  0  0  0999 V2000
  -30.7652  -14.3608   20.6636 C   0  0  0  0  0  0  0  0  0100  0  0
  -30.4392  -12.2669   19.3775 C   0  0  0  0  0  0  0  0  0101  0  0
  -29.4791  -12.5281   18.1977 C   0  0  0  0  0  0  0  0  0102  0  0
  -27.9985  -12.3963   18.6038 C   0  0  0  0  0  0  0  0  0103  0  0
  -27.6639  -13.2170   19.8820 C   0  0  2  0  0  0  0  0  0104  0  0
  -28.6795  -12.9602   21.0279 C   0  0  0  0  0  0  0  0  0105  0  0
  -25.2633  -13.8245   20.5754 C   0  0  0  0  0  0  0  0  0106  0  0
  -24.1645  -13.0409   20.9408 C   0  0  0  0  0  0  0  0  0107  0  0
  -24.6400  -11.7009   20.8697 C   0  0  0  0  0  0  0  0  0108  0  0
  -23.9005  -10.4085   21.0420 C   0  0  0  0  0  0  0  0  0109  0  0
  -24.3588   -9.4123   21.9123 C   0  0  0  0  0  0  0  0  0110  0  0
  -23.6296   -8.2350   22.0803 C   0  0  0  0  0  0  0  0  0111  0  0
  -22.4385   -8.0419   21.3657 C   0  0  0  0  0  0  0  0  0112  0  0
  -22.0103   -9.0167   20.4678 C   0  0  0  0  0  0  0  0  0113  0  0
  -22.7317  -10.1925   20.3102 C   0  0  0  0  0  0  0  0  0114  0  0
  -21.6857   -6.0709   22.5391 C   0  0  0  0  0  0  0  0  0115  0  0
  -21.4064   -6.5490   23.8264 C   0  0  0  0  0  0  0  0  0116  0  0
  -21.3635   -5.6677   24.9085 C   0  0  0  0  0  0  0  0  0117  0  0
  -21.5973   -4.3067   24.7088 C   0  0  0  0  0  0  0  0  0118  0  0
  -21.8700   -3.8284   23.4282 C   0  0  0  0  0  0  0  0  0119  0  0
  -21.9144   -4.7056   22.3460 C   0  0  0  0  0  0  0  0  0120  0  0
  -22.8194  -13.5263   21.1763 C   0  0  0  0  0  0  0  0  0121  0  0
  -22.1559   -4.2206   21.1063 F   0  0  0  0  0  0  0  0  0122  0  0
  -21.5628   -3.4510   25.7555 F   0  0  0  0  0  0  0  0  0123  0  0
  -30.0261  -13.1803   20.4553 N   0  0  0  0  0  0  0  0  0124  0  0
  -26.2911  -12.9356   20.3443 N   0  0  0  0  0  0  0  0  0125  0  0
  -25.9236  -11.6675   20.5847 N   0  0  0  0  0  0  0  0  0126  0  0
  -22.0708  -12.7905   22.0005 N   0  0  0  0  0  0  0  0  0127  0  0
  -25.4117  -15.1773   20.4097 N   0  0  0  0  0  0  0  0  0128  0  0
  -31.7916  -14.6724   20.0536 O   0  0  0  0  0  0  0  0  0129  0  0
  -21.6670   -6.9022   21.4423 O   0  0  0  0  0  0  0  0  0130  0  0
  -22.3946  -14.5564   20.6568 O   0  0  0  0  0  0  0  0  0131  0  0
  -24.6048  -31.8614   23.2223 C   0  0  0  0  0  0  0  0  0100  0  0
  -25.8822  -32.4841   23.8616 C   0  0  1  0  0  0  0  0  0101  0  0
  -27.2536  -27.5042   20.1156 C   0  0  0  0  0  0  0  0  0102  0  0
  -25.5726  -33.8762   24.2210 N   0  0  0  0  0  0  0  0  0103  0  0
  -23.4066  -30.4859   21.5461 C   0  0  2  0  0  0  0  0  0104  0  0
  -24.8467  -28.9636   20.1247 C   0  0  0  0  0  0  0  0  0105  0  0
  -22.7412  -29.4652   22.5052 C   0  0  0  0  0  0  0  0  0106  0  0
  -18.0167  -28.1302   22.8626 C   0  0  0  0  0  0  0  0  0107  0  0
  -24.1342  -36.7390   23.2568 C   0  0  0  0  0  0  0  0  0108  0  0
  -25.9141  -30.8882   21.3456 C   0  0  0  0  0  0  0  0  0109  0  0
  -25.9930  -29.5029   20.7208 C   0  0  0  0  0  0  0  0  0110  0  0
  -27.1758  -28.7612   20.7331 C   0  0  0  0  0  0  0  0  0111  0  0
  -26.1032  -26.9836   19.5230 C   0  0  0  0  0  0  0  0  0112  0  0
  -24.9097  -27.7011   19.5331 C   0  0  0  0  0  0  0  0  0113  0  0
  -23.5715  -29.7899   20.1582 C   0  0  0  0  0  0  0  0  0114  0  0
  -25.3990  -36.3212   24.0232 C   0  0  1  0  0  0  0  0  0115  0  0
  -20.5793  -28.3813   23.1004 C   0  0  2  0  0  0  0  0  0116  0  0
  -20.6548  -26.9392   22.5411 C   0  0  0  0  0  0  0  0  0117  0  0
  -19.5615  -26.6407   21.5143 C   0  0  0  0  0  0  0  0  0118  0  0
  -18.1797  -26.7818   22.1673 C   0  0  0  0  0  0  0  0  0119  0  0
  -19.1385  -28.8769   23.2988 C   0  0  0  0  0  0  0  0  0120  0  0
  -18.9183  -30.1286   23.8878 C   0  0  0  0  0  0  0  0  0121  0  0
  -17.6396  -30.6493   24.0352 C   0  0  0  0  0  0  0  0  0122  0  0
  -25.9153  -34.9582   23.4993 C   0  0  0  0  0  0  0  0  0123  0  0
  -16.5415  -29.9068   23.6254 C   0  0  0  0  0  0  0  0  0124  0  0
  -16.7331  -28.6521   23.0586 C   0  0  0  0  0  0  0  0  0125  0  0
  -26.4583  -31.6439   25.0683 C   0  0  0  0  0  0  0  0  0126  0  0
  -25.3807  -31.3179   26.1374 C   0  0  0  0  0  0  0  0  0127  0  0
  -27.0530  -30.3024   24.5680 C   0  0  0  0  0  0  0  0  0128  0  0
  -27.6014  -32.4281   25.7651 C   0  0  0  0  0  0  0  0  0129  0  0
  -27.5629  -37.2220   24.8621 C   0  0  0  0  0  0  0  0  0130  0  0
  -21.4133  -29.3375   22.3735 N   0  0  0  0  0  0  0  0  0131  0  0
  -26.4706  -37.3372   23.9061 N   0  0  0  0  0  0  0  0  0132  0  0
  -24.6674  -31.0544   22.1178 N   0  0  0  0  0  0  0  0  0133  0  0
  -23.4259  -28.8150   23.2971 O   0  0  0  0  0  0  0  0  0134  0  0
  -28.3948  -26.7345   20.0089 O   0  0  0  0  0  0  0  0  0135  0  0
  -26.5870  -34.9065   22.4671 O   0  0  0  0  0  0  0  0  0136  0  0
  -23.5365  -32.1254   23.7833 O   0  0  0  0  0  0  0  0  0137  0  0
  -30.6109  -14.9777   24.9980 C   0  0  0  0  0  0  0  0  0  0  0  0
  -32.7214  -15.2867   23.8633 C   0  0  0  0  0  0  0  0  0  0  0  0
  -30.6216  -16.3184   25.3829 C   0  0  0  0  0  0  0  0  0  0  0  0
  -32.7321  -16.6274   24.2482 C   0  0  0  0  0  0  0  0  0  0  0  0
  -31.6609  -14.4618   24.2383 C   0  0  0  0  0  0  0  0  0  0  0  0
  -31.6821  -17.1432   25.0080 C   0  0  0  0  0  0  0  0  0  0  0  0
  -32.9068  -19.2109   25.6202 C   0  0  0  0  0  0  0  0  0  0  0  0
  -32.8270  -20.7222   25.7253 C   0  0  0  0  0  0  0  0  0  0  0  0
  -31.5734  -21.2360   26.3987 C   0  0  0  0  0  0  0  0  0  0  0  0
  -30.4025  -19.1405   25.7813 C   0  0  0  0  0  0  0  0  0  0  0  0
  -30.3614  -20.6647   25.6815 C   0  0  1  0  0  0  0  0  0  0  0  0
  -31.6494  -13.0284   23.8268 C   0  0  0  0  0  0  0  0  0  0  0  0
  -29.0649  -21.2125   26.2742 C   0  0  0  0  0  0  0  0  0  1  0  0
  -31.6933  -18.5345   25.4070 N   0  0  0  0  0  0  0  0  0  0  0  0
  -30.7232  -12.7740   22.7460 N   0  0  0  0  0  0  0  0  0  0  0  0
  -34.0219  -18.6846   25.6683 O   0  0  0  0  0  0  0  0  0  0  0  0
  -31.4485  -12.4701   19.0860 H   0  0  0  0  0  0  0  0  0  0  0  0
  -30.3970  -11.2460   19.6950 H   0  0  0  0  0  0  0  0  0  0  0  0
  -29.6870  -11.8204   17.4226 H   0  0  0  0  0  0  0  0  0  0  0  0
  -29.6375  -13.5326   17.8649 H   0  0  0  0  0  0  0  0  0  0  0  0
  -27.7830  -11.3650   18.7904 H   0  0  0  0  0  0  0  0  0  0  0  0
  -27.4028  -12.7801   17.8021 H   0  0  0  0  0  0  0  0  0  0  0  0
  -27.7353  -14.2503   19.6136 H   0  0  0  0  0  0  0  0  0  0  0  0
  -28.5890  -11.9550   21.3832 H   0  0  0  0  0  0  0  0  0  0  0  0
  -28.5005  -13.6134   21.8562 H   0  0  0  0  0  0  0  0  0  0  0  0
  -25.2399   -9.5495   22.4318 H   0  0  0  0  0  0  0  0  0  0  0  0
  -23.9663   -7.5070   22.7297 H   0  0  0  0  0  0  0  0  0  0  0  0
  -21.1515   -8.8641   19.9162 H   0  0  0  0  0  0  0  0  0  0  0  0
  -22.4016  -10.9115   19.6476 H   0  0  0  0  0  0  0  0  0  0  0  0
  -21.2319   -7.5552   23.9750 H   0  0  0  0  0  0  0  0  0  0  0  0
  -21.1589   -6.0228   25.8556 H   0  0  0  0  0  0  0  0  0  0  0  0
  -22.0396   -2.8212   23.2809 H   0  0  0  0  0  0  0  0  0  0  0  0
  -22.4401  -11.9703   22.4008 H   0  0  0  0  0  0  0  0  0  0  0  0
  -21.1493  -13.0679   22.2082 H   0  0  0  0  0  0  0  0  0  0  0  0
  -24.6538  -15.7807   20.5848 H   0  0  0  0  0  0  0  0  0  0  0  0
  -26.2762  -15.5453   20.1156 H   0  0  0  0  0  0  0  0  0  0  0  0
  -26.6778  -32.4663   23.1464 H   0  0  0  0  0  0  0  0  0  0  0  0
  -25.0747  -34.0282   25.0566 H   0  0  0  0  0  0  0  0  0  0  0  0
  -22.7881  -31.3489   21.4131 H   0  0  0  0  0  0  0  0  0  0  0  0
  -23.3854  -35.9823   23.3648 H   0  0  0  0  0  0  0  0  0  0  0  0
  -24.3696  -36.8624   22.2204 H   0  0  0  0  0  0  0  0  0  0  0  0
  -23.7669  -37.6632   23.6516 H   0  0  0  0  0  0  0  0  0  0  0  0
  -25.9445  -31.6237   20.5691 H   0  0  0  0  0  0  0  0  0  0  0  0
  -26.7436  -31.0079   22.0108 H   0  0  0  0  0  0  0  0  0  0  0  0
  -28.0090  -29.1452   21.2057 H   0  0  0  0  0  0  0  0  0  0  0  0
  -26.1369  -26.0560   19.0719 H   0  0  0  0  0  0  0  0  0  0  0  0
  -24.0652  -27.2961   19.0997 H   0  0  0  0  0  0  0  0  0  0  0  0
  -23.6156  -30.5365   19.3930 H   0  0  0  0  0  0  0  0  0  0  0  0
  -22.7355  -29.1425   19.9945 H   0  0  0  0  0  0  0  0  0  0  0  0
  -25.1353  -36.2335   25.0565 H   0  0  0  0  0  0  0  0  0  0  0  0
  -21.0070  -28.3206   24.0793 H   0  0  0  0  0  0  0  0  0  0  0  0
  -20.5555  -26.2518   23.3550 H   0  0  0  0  0  0  0  0  0  0  0  0
  -21.5974  -26.8362   22.0454 H   0  0  0  0  0  0  0  0  0  0  0  0
  -19.6810  -25.6422   21.1488 H   0  0  0  0  0  0  0  0  0  0  0  0
  -19.6406  -27.3343   20.7034 H   0  0  0  0  0  0  0  0  0  0  0  0
  -17.4282  -26.6888   21.4113 H   0  0  0  0  0  0  0  0  0  0  0  0
  -18.0803  -26.0130   22.9049 H   0  0  0  0  0  0  0  0  0  0  0  0
  -19.7265  -30.6774   24.2204 H   0  0  0  0  0  0  0  0  0  0  0  0
  -17.5064  -31.5856   24.4483 H   0  0  0  0  0  0  0  0  0  0  0  0
  -15.5878  -30.2839   23.7407 H   0  0  0  0  0  0  0  0  0  0  0  0
  -15.9120  -28.0941   22.7766 H   0  0  0  0  0  0  0  0  0  0  0  0
  -24.5787  -30.7757   25.6817 H   0  0  0  0  0  0  0  0  0  0  0  0
  -25.0041  -32.2289   26.5536 H   0  0  0  0  0  0  0  0  0  0  0  0
  -25.8166  -30.7245   26.9138 H   0  0  0  0  0  0  0  0  0  0  0  0
  -26.2892  -29.7335   24.0803 H   0  0  0  0  0  0  0  0  0  0  0  0
  -27.4336  -29.7484   25.4006 H   0  0  0  0  0  0  0  0  0  0  0  0
  -27.8466  -30.4994   23.8779 H   0  0  0  0  0  0  0  0  0  0  0  0
  -27.2251  -33.3632   26.1242 H   0  0  0  0  0  0  0  0  0  0  0  0
  -28.3902  -32.6065   25.0645 H   0  0  0  0  0  0  0  0  0  0  0  0
  -27.9772  -31.8555   26.5872 H   0  0  0  0  0  0  0  0  0  0  0  0
  -28.2744  -38.0016   24.6863 H   0  0  0  0  0  0  0  0  0  0  0  0
  -28.0396  -36.2711   24.7461 H   0  0  0  0  0  0  0  0  0  0  0  0
  -27.1773  -37.3087   25.8564 H   0  0  0  0  0  0  0  0  0  0  0  0
  -20.9627  -29.9365   21.7352 H   0  0  0  0  0  0  0  0  0  0  0  0
  -26.0447  -38.2561   24.0273 H   0  0  0  0  0  0  0  0  0  0  0  0
  -29.8262  -14.3675   25.2753 H   0  0  0  0  0  0  0  0  0  0  0  0
  -33.4981  -14.9051   23.3011 H   0  0  0  0  0  0  0  0  0  0  0  0
  -29.8449  -16.7001   25.9451 H   0  0  0  0  0  0  0  0  0  0  0  0
  -33.5168  -17.2377   23.9709 H   0  0  0  0  0  0  0  0  0  0  0  0
  -32.8666  -21.1291   24.7365 H   0  0  0  0  0  0  0  0  0  0  0  0
  -33.6500  -21.0300   26.3359 H   0  0  0  0  0  0  0  0  0  0  0  0
  -31.5504  -22.3046   26.3480 H   0  0  0  0  0  0  0  0  0  0  0  0
  -31.5632  -20.9346   27.4253 H   0  0  0  0  0  0  0  0  0  0  0  0
  -29.6478  -18.7435   25.1351 H   0  0  0  0  0  0  0  0  0  0  0  0
  -30.2426  -18.9001   26.8116 H   0  0  0  0  0  0  0  0  0  0  0  0
  -30.3887  -20.9570   24.6526 H   0  0  0  0  0  0  0  0  0  0  0  0
  -31.3678  -12.4312   24.6688 H   0  0  0  0  0  0  0  0  0  0  0  0
  -32.6311  -12.7797   23.4813 H   0  0  0  0  0  0  0  0  0  0  0  0
  -29.1845  -21.6622   27.2377 H   0  0  0  0  0  0  0  0  0  0  0  0
  -28.2540  -20.5490   26.4910 H   0  0  0  0  0  0  0  0  0  0  0  0
  -30.0908  -12.0209   22.7920 H   0  0  0  0  0  0  0  0  0  0  0  0
  1 25  1  0
  1 30  2  0
  1 85  1  0
  2  3  1  0
  2 25  1  0
  2 87  1  0
  2 88  1  0
  3  4  1  0
  3 89  1  0
  3 90  1  0
  4  5  1  0
  4 91  1  0
  4 92  1  0
  5  6  1  0
  5 26  1  0
  5 93  1  6
  6 25  1  0
  6 94  1  0
  6 95  1  0
  7  8  2  0
  7 26  1  0
  7 29  1  0
  8  9  1  0
  8 22  1  0
  9 10  1  0
  9 27  2  0
 10 11  2  0
 10 15  1  0
 11 12  1  0
 11 96  1  0
 12 13  2  0
 12 97  1  0
 13 14  1  0
 13 31  1  0
 14 15  2  0
 14 98  1  0
 15 99  1  0
 16 17  2  0
 16 21  1  0
 16 31  1  0
 17 18  1  0
 17100  1  0
 18 19  2  0
 18101  1  0
 19 20  1  0
 19 24  1  0
 20 21  2  0
 20102  1  0
 21 23  1  0
 22 28  1  0
 22 32  2  0
 26 27  1  0
 28103  1  0
 28104  1  0
 29105  1  0
 29106  1  0
 33 34  1  0
 33 66  1  0
 33 70  2  0
 34 36  1  0
 34 59  1  0
 34107  1  6
 35 44  2  0
 35 45  1  0
 35 68  1  0
 36 56  1  0
 36108  1  0
 37 39  1  0
 37 47  1  0
 37 66  1  0
 37109  1  6
 38 43  2  0
 38 46  1  0
 38 47  1  0
 39 64  1  0
 39 67  2  0
 40 52  1  0
 40 53  2  0
 40 58  1  0
 41110  1  0
 41111  1  0
 41112  1  0
 42 43  1  0
 42 66  1  0
 42113  1  0
 42114  1  0
 43 44  1  0
 44115  1  0
 45 46  2  0
 45116  1  0
 46117  1  0
 47118  1  0
 47119  1  0
 48 41  1  0
 48 56  1  0
 48 65  1  0
 48120  1  1
 49 50  1  0
 49 53  1  0
 49 64  1  0
 49121  1  1
 50 51  1  0
 50122  1  0
 50123  1  0
 51 52  1  0
 51124  1  0
 51125  1  0
 52126  1  0
 52127  1  0
 53 54  1  0
 54 55  2  0
 54128  1  0
 55 57  1  0
 55129  1  0
 56 69  2  0
 57 58  2  0
 57130  1  0
 58131  1  0
 59 60  1  0
 59 61  1  0
 59 62  1  0
 60132  1  0
 60133  1  0
 60134  1  0
 61135  1  0
 61136  1  0
 61137  1  0
 62138  1  0
 62139  1  0
 62140  1  0
 63 65  1  0
 63141  1  0
 63142  1  0
 63143  1  0
 64144  1  0
 65145  1  0
 68 83  1  0
 71 73  2  0
 71 75  1  0
 71146  1  0
 72 74  1  0
 72 75  2  0
 72147  1  0
 73 76  1  0
 73148  1  0
 74 76  2  0
 74149  1  0
 75 82  1  0
 76 84  1  0
 77 78  1  0
 77 84  1  0
 77 86  2  0
 78 79  1  0
 78150  1  0
 78151  1  0
 79 81  1  0
 79152  1  0
 79153  1  0
 80 81  1  0
 80 84  1  0
 80154  1  0
 80155  1  0
 81 83  1  0
 81156  1  6
 82 85  1  0
 82157  1  0
 82158  1  0
 83159  1  0
 83160  1  0
 85161  1  0
M  ISO  4   1 100  68 101  83 101  85 100
M  END
$$$$
23
     RDKit          3D

159167  0  0  0  0  0  0  0  0999 V2000
  -30.7652  -14.3608   20.6636 C   0  0  0  0  0  0  0  0  0100  0  0
  -30.4392  -12.2669   19.3775 C   0  0  0  0  0  0  0  0  0101  0  0
  -29.4791  -12.5281   18.1977 C   0  0  0  0  0  0  0  0  0102  0  0
  -27.9985  -12.3963   18.6038 C   0  0  0  0  0  0  0  0  0103  0  0
  -27.6639  -13.2170   19.8820 C   0  0  2  0  0  0  0  0  0104  0  0
  -28.6795  -12.9602   21.0279 C   0  0  0  0  0  0  0  0  0105  0  0
  -25.2633  -13.8245   20.5754 C   0  0  0  0  0  0  0  0  0106  0  0
  -24.1645  -13.0409   20.9408 C   0  0  0  0  0  0  0  0  0107  0  0
  -24.6400  -11.7009   20.8697 C   0  0  0  0  0  0  0  0  0108  0  0
  -23.9005  -10.4085   21.0420 C   0  0  0  0  0  0  0  0  0109  0  0
  -24.3588   -9.4123   21.9123 C   0  0  0  0  0  0  0  0  0110  0  0
  -23.6296   -8.2350   22.0803 C   0  0  0  0  0  0  0  0  0111  0  0
  -22.4385   -8.0419   21.3657 C   0  0  0  0  0  0  0  0  0112  0  0
  -22.0103   -9.0167   20.4678 C   0  0  0  0  0  0  0  0  0113  0  0
  -22.7317  -10.1925   20.3102 C   0  0  0  0  0  0  0  0  0114  0  0
  -21.6857   -6.0709   22.5391 C   0  0  0  0  0  0  0  0  0115  0  0
  -21.4064   -6.5490   23.8264 C   0  0  0  0  0  0  0  0  0116  0  0
  -21.3635   -5.6677   24.9085 C   0  0  0  0  0  0  0  0  0117  0  0
  -21.5973   -4.3067   24.7088 C   0  0  0  0  0  0  0  0  0118  0  0
  -21.8700   -3.8284   23.4282 C   0  0  0  0  0  0  0  0  0119  0  0
  -21.9144   -4.7056   22.3460 C   0  0  0  0  0  0  0  0  0120  0  0
  -22.8194  -13.5263   21.1763 C   0  0  0  0  0  0  0  0  0121  0  0
  -22.1559   -4.2206   21.1063 F   0  0  0  0  0  0  0  0  0122  0  0
  -21.5628   -3.4510   25.7555 F   0  0  0  0  0  0  0  0  0123  0  0
  -30.0261  -13.1803   20.4553 N   0  0  0  0  0  0  0  0  0124  0  0
  -26.2911  -12.9356   20.3443 N   0  0  0  0  0  0  0  0  0125  0  0
  -25.9236  -11.6675   20.5847 N   0  0  0  0  0  0  0  0  0126  0  0
  -22.0708  -12.7905   22.0005 N   0  0  0  0  0  0  0  0  0127  0  0
  -25.4117  -15.1773   20.4097 N   0  0  0  0  0  0  0  0  0128  0  0
  -31.7916  -14.6724   20.0536 O   0  0  0  0  0  0  0  0  0129  0  0
  -21.6670   -6.9022   21.4423 O   0  0  0  0  0  0  0  0  0130  0  0
  -22.3946  -14.5564   20.6568 O   0  0  0  0  0  0  0  0  0131  0  0
  -24.6048  -31.8614   23.2223 C   0  0  0  0  0  0  0  0  0100  0  0
  -25.8822  -32.4841   23.8616 C   0  0  1  0  0  0  0  0  0101  0  0
  -27.2536  -27.5042   20.1156 C   0  0  0  0  0  0  0  0  0102  0  0
  -25.5726  -33.8762   24.2210 N   0  0  0  0  0  0  0  0  0103  0  0
  -23.4066  -30.4859   21.5461 C   0  0  2  0  0  0  0  0  0104  0  0
  -24.8467  -28.9636   20.1247 C   0  0  0  0  0  0  0  0  0105  0  0
  -22.7412  -29.4652   22.5052 C   0  0  0  0  0  0  0  0  0106  0  0
  -18.0167  -28.1302   22.8626 C   0  0  0  0  0  0  0  0  0107  0  0
  -24.1342  -36.7390   23.2568 C   0  0  0  0  0  0  0  0  0108  0  0
  -25.9141  -30.8882   21.3456 C   0  0  0  0  0  0  0  0  0109  0  0
  -25.9930  -29.5029   20.7208 C   0  0  0  0  0  0  0  0  0110  0  0
  -27.1758  -28.7612   20.7331 C   0  0  0  0  0  0  0  0  0111  0  0
  -26.1032  -26.9836   19.5230 C   0  0  0  0  0  0  0  0  0112  0  0
  -24.9097  -27.7011   19.5331 C   0  0  0  0  0  0  0  0  0113  0  0
  -23.5715  -29.7899   20.1582 C   0  0  0  0  0  0  0  0  0114  0  0
  -25.3990  -36.3212   24.0232 C   0  0  1  0  0  0  0  0  0115  0  0
  -20.5793  -28.3813   23.1004 C   0  0  2  0  0  0  0  0  0116  0  0
  -20.6548  -26.9392   22.5411 C   0  0  0  0  0  0  0  0  0117  0  0
  -19.5615  -26.6407   21.5143 C   0  0  0  0  0  0  0  0  0118  0  0
  -18.1797  -26.7818   22.1673 C   0  0  0  0  0  0  0  0  0119  0  0
  -19.1385  -28.8769   23.2988 C   0  0  0  0  0  0  0  0  0120  0  0
  -18.9183  -30.1286   23.8878 C   0  0  0  0  0  0  0  0  0121  0  0
  -17.6396  -30.6493   24.0352 C   0  0  0  0  0  0  0  0  0122  0  0
  -25.9153  -34.9582   23.4993 C   0  0  0  0  0  0  0  0  0123  0  0
  -16.5415  -29.9068   23.6254 C   0  0  0  0  0  0  0  0  0124  0  0
  -16.7331  -28.6521   23.0586 C   0  0  0  0  0  0  0  0  0125  0  0
  -26.4583  -31.6439   25.0683 C   0  0  0  0  0  0  0  0  0126  0  0
  -25.3807  -31.3179   26.1374 C   0  0  0  0  0  0  0  0  0127  0  0
  -27.0530  -30.3024   24.5680 C   0  0  0  0  0  0  0  0  0128  0  0
  -27.6014  -32.4281   25.7651 C   0  0  0  0  0  0  0  0  0129  0  0
  -27.5629  -37.2220   24.8621 C   0  0  0  0  0  0  0  0  0130  0  0
  -21.4133  -29.3375   22.3735 N   0  0  0  0  0  0  0  0  0131  0  0
  -26.4706  -37.3372   23.9061 N   0  0  0  0  0  0  0  0  0132  0  0
  -24.6674  -31.0544   22.1178 N   0  0  0  0  0  0  0  0  0133  0  0
  -23.4259  -28.8150   23.2971 O   0  0  0  0  0  0  0  0  0134  0  0
  -28.3948  -26.7345   20.0089 O   0  0  0  0  0  0  0  0  0135  0  0
  -26.5870  -34.9065   22.4671 O   0  0  0  0  0  0  0  0  0136  0  0
  -23.5365  -32.1254   23.7833 O   0  0  0  0  0  0  0  0  0137  0  0
  -30.1517  -22.5779   16.4530 C   0  0  0  0  0  0  0  0  0  0  0  0
  -30.6257  -23.8177   16.8815 C   0  0  0  0  0  0  0  0  0  0  0  0
  -29.7679  -21.6167   17.3883 C   0  0  0  0  0  0  0  0  0  0  0  0
  -30.3324  -23.1353   19.1805 C   0  0  0  0  0  0  0  0  0  0  0  0
  -30.7161  -24.0964   18.2453 C   0  0  0  0  0  0  0  0  0  0  0  0
  -29.8583  -21.8954   18.7520 C   0  0  0  0  0  0  0  0  0  0  0  0
  -31.2212  -25.4174   18.7002 C   0  0  0  0  0  0  0  0  0  0  0  0
  -31.2180  -27.6924   20.7079 C   0  0  0  0  0  0  0  0  0  0  0  0
  -32.9036  -26.3379   21.9297 C   0  0  0  0  0  0  0  0  0  0  0  0
  -33.4301  -27.2228   19.6344 C   0  0  0  0  0  0  0  0  0  0  0  0
  -29.7933  -27.2142   20.9294 C   0  0  0  0  0  0  0  0  0  1  0  0
  -32.3384  -26.6503   20.5409 C   0  0  0  0  0  0  0  0  0  0  0  0
  -29.4681  -20.9191   19.7018 N   0  0  0  0  0  0  0  0  0  0  0  0
  -31.8194  -25.4361   19.9491 N   0  0  0  0  0  0  0  0  0  0  0  0
  -31.0691  -26.3991   17.9779 O   0  0  0  0  0  0  0  0  0  0  0  0
  -31.4818  -28.8987   20.7120 O   0  0  0  0  0  0  0  0  0  0  0  0
  -31.4485  -12.4701   19.0860 H   0  0  0  0  0  0  0  0  0  0  0  0
  -30.3970  -11.2460   19.6950 H   0  0  0  0  0  0  0  0  0  0  0  0
  -29.6870  -11.8204   17.4226 H   0  0  0  0  0  0  0  0  0  0  0  0
  -29.6375  -13.5326   17.8649 H   0  0  0  0  0  0  0  0  0  0  0  0
  -27.7830  -11.3650   18.7904 H   0  0  0  0  0  0  0  0  0  0  0  0
  -27.4028  -12.7801   17.8021 H   0  0  0  0  0  0  0  0  0  0  0  0
  -27.7353  -14.2503   19.6136 H   0  0  0  0  0  0  0  0  0  0  0  0
  -28.5890  -11.9550   21.3832 H   0  0  0  0  0  0  0  0  0  0  0  0
  -28.5005  -13.6134   21.8562 H   0  0  0  0  0  0  0  0  0  0  0  0
  -25.2399   -9.5495   22.4318 H   0  0  0  0  0  0  0  0  0  0  0  0
  -23.9663   -7.5070   22.7297 H   0  0  0  0  0  0  0  0  0  0  0  0
  -21.1515   -8.8641   19.9162 H   0  0  0  0  0  0  0  0  0  0  0  0
  -22.4016  -10.9115   19.6476 H   0  0  0  0  0  0  0  0  0  0  0  0
  -21.2319   -7.5552   23.9750 H   0  0  0  0  0  0  0  0  0  0  0  0
  -21.1589   -6.0228   25.8556 H   0  0  0  0  0  0  0  0  0  0  0  0
  -22.0396   -2.8212   23.2809 H   0  0  0  0  0  0  0  0  0  0  0  0
  -22.4401  -11.9703   22.4008 H   0  0  0  0  0  0  0  0  0  0  0  0
  -21.1493  -13.0679   22.2082 H   0  0  0  0  0  0  0  0  0  0  0  0
  -24.6538  -15.7807   20.5848 H   0  0  0  0  0  0  0  0  0  0  0  0
  -26.2762  -15.5453   20.1156 H   0  0  0  0  0  0  0  0  0  0  0  0
  -26.6778  -32.4663   23.1464 H   0  0  0  0  0  0  0  0  0  0  0  0
  -25.0747  -34.0282   25.0566 H   0  0  0  0  0  0  0  0  0  0  0  0
  -22.7881  -31.3489   21.4131 H   0  0  0  0  0  0  0  0  0  0  0  0
  -23.3854  -35.9823   23.3648 H   0  0  0  0  0  0  0  0  0  0  0  0
  -24.3696  -36.8624   22.2204 H   0  0  0  0  0  0  0  0  0  0  0  0
  -23.7669  -37.6632   23.6516 H   0  0  0  0  0  0  0  0  0  0  0  0
  -25.9445  -31.6237   20.5691 H   0  0  0  0  0  0  0  0  0  0  0  0
  -26.7436  -31.0079   22.0108 H   0  0  0  0  0  0  0  0  0  0  0  0
  -28.0090  -29.1452   21.2057 H   0  0  0  0  0  0  0  0  0  0  0  0
  -26.1369  -26.0560   19.0719 H   0  0  0  0  0  0  0  0  0  0  0  0
  -24.0652  -27.2961   19.0997 H   0  0  0  0  0  0  0  0  0  0  0  0
  -23.6156  -30.5365   19.3930 H   0  0  0  0  0  0  0  0  0  0  0  0
  -22.7355  -29.1425   19.9945 H   0  0  0  0  0  0  0  0  0  0  0  0
  -25.1353  -36.2335   25.0565 H   0  0  0  0  0  0  0  0  0  0  0  0
  -21.0070  -28.3206   24.0793 H   0  0  0  0  0  0  0  0  0  0  0  0
  -20.5555  -26.2518   23.3550 H   0  0  0  0  0  0  0  0  0  0  0  0
  -21.5974  -26.8362   22.0454 H   0  0  0  0  0  0  0  0  0  0  0  0
  -19.6810  -25.6422   21.1488 H   0  0  0  0  0  0  0  0  0  0  0  0
  -19.6406  -27.3343   20.7034 H   0  0  0  0  0  0  0  0  0  0  0  0
  -17.4282  -26.6888   21.4113 H   0  0  0  0  0  0  0  0  0  0  0  0
  -18.0803  -26.0130   22.9049 H   0  0  0  0  0  0  0  0  0  0  0  0
  -19.7265  -30.6774   24.2204 H   0  0  0  0  0  0  0  0  0  0  0  0
  -17.5064  -31.5856   24.4483 H   0  0  0  0  0  0  0  0  0  0  0  0
  -15.5878  -30.2839   23.7407 H   0  0  0  0  0  0  0  0  0  0  0  0
  -15.9120  -28.0941   22.7766 H   0  0  0  0  0  0  0  0  0  0  0  0
  -24.5787  -30.7757   25.6817 H   0  0  0  0  0  0  0  0  0  0  0  0
  -25.0041  -32.2289   26.5536 H   0  0  0  0  0  0  0  0  0  0  0  0
  -25.8166  -30.7245   26.9138 H   0  0  0  0  0  0  0  0  0  0  0  0
  -26.2892  -29.7335   24.0803 H   0  0  0  0  0  0  0  0  0  0  0  0
  -27.4336  -29.7484   25.4006 H   0  0  0  0  0  0  0  0  0  0  0  0
  -27.8466  -30.4994   23.8779 H   0  0  0  0  0  0  0  0  0  0  0  0
  -27.2251  -33.3632   26.1242 H   0  0  0  0  0  0  0  0  0  0  0  0
  -28.3902  -32.6065   25.0645 H   0  0  0  0  0  0  0  0  0  0  0  0
  -27.9772  -31.8555   26.5872 H   0  0  0  0  0  0  0  0  0  0  0  0
  -28.2744  -38.0016   24.6863 H   0  0  0  0  0  0  0  0  0  0  0  0
  -28.0396  -36.2711   24.7461 H   0  0  0  0  0  0  0  0  0  0  0  0
  -27.1773  -37.3087   25.8564 H   0  0  0  0  0  0  0  0  0  0  0  0
  -20.9627  -29.9365   21.7352 H   0  0  0  0  0  0  0  0  0  0  0  0
  -26.0447  -38.2561   24.0273 H   0  0  0  0  0  0  0  0  0  0  0  0
  -30.0849  -22.3717   15.4440 H   0  0  0  0  0  0  0  0  0  0  0  0
  -30.9095  -24.5288   16.1896 H   0  0  0  0  0  0  0  0  0  0  0  0
  -29.4171  -20.6994   17.0713 H   0  0  0  0  0  0  0  0  0  0  0  0
  -30.3993  -23.3415   20.1895 H   0  0  0  0  0  0  0  0  0  0  0  0
  -33.2878  -27.2350   22.3685 H   0  0  0  0  0  0  0  0  0  0  0  0
  -33.6909  -25.6188   21.8409 H   0  0  0  0  0  0  0  0  0  0  0  0
  -32.1270  -25.9417   22.5500 H   0  0  0  0  0  0  0  0  0  0  0  0
  -33.8180  -28.1213   20.0670 H   0  0  0  0  0  0  0  0  0  0  0  0
  -33.0167  -27.4400   18.6717 H   0  0  0  0  0  0  0  0  0  0  0  0
  -34.2190  -26.5074   19.5306 H   0  0  0  0  0  0  0  0  0  0  0  0
  -29.3933  -28.0068   21.5267 H   0  0  0  0  0  0  0  0  0  0  0  0
  -30.1036  -26.2013   21.0802 H   0  0  0  0  0  0  0  0  0  0  0  0
  -28.8621  -21.2846   20.3862 H   0  0  0  0  0  0  0  0  0  0  0  0
  -31.8942  -24.5932   20.4522 H   0  0  0  0  0  0  0  0  0  0  0  0
  1 25  1  0
  1 30  2  0
  1 83  1  0
  2  3  1  0
  2 25  1  0
  2 87  1  0
  2 88  1  0
  3  4  1  0
  3 89  1  0
  3 90  1  0
  4  5  1  0
  4 91  1  0
  4 92  1  0
  5  6  1  0
  5 26  1  0
  5 93  1  6
  6 25  1  0
  6 94  1  0
  6 95  1  0
  7  8  2  0
  7 26  1  0
  7 29  1  0
  8  9  1  0
  8 22  1  0
  9 10  1  0
  9 27  2  0
 10 11  2  0
 10 15  1  0
 11 12  1  0
 11 96  1  0
 12 13  2  0
 12 97  1  0
 13 14  1  0
 13 31  1  0
 14 15  2  0
 14 98  1  0
 15 99  1  0
 16 17  2  0
 16 21  1  0
 16 31  1  0
 17 18  1  0
 17100  1  0
 18 19  2  0
 18101  1  0
 19 20  1  0
 19 24  1  0
 20 21  2  0
 20102  1  0
 21 23  1  0
 22 28  1  0
 22 32  2  0
 26 27  1  0
 28103  1  0
 28104  1  0
 29105  1  0
 29106  1  0
 33 34  1  0
 33 66  1  0
 33 70  2  0
 34 36  1  0
 34 59  1  0
 34107  1  6
 35 44  2  0
 35 45  1  0
 35 68  1  0
 36 56  1  0
 36108  1  0
 37 39  1  0
 37 47  1  0
 37 66  1  0
 37109  1  6
 38 43  2  0
 38 46  1  0
 38 47  1  0
 39 64  1  0
 39 67  2  0
 40 52  1  0
 40 53  2  0
 40 58  1  0
 41110  1  0
 41111  1  0
 41112  1  0
 42 43  1  0
 42 66  1  0
 42113  1  0
 42114  1  0
 43 44  1  0
 44115  1  0
 45 46  2  0
 45116  1  0
 46117  1  0
 47118  1  0
 47119  1  0
 48 41  1  0
 48 56  1  0
 48 65  1  0
 48120  1  1
 49 50  1  0
 49 53  1  0
 49 64  1  0
 49121  1  1
 50 51  1  0
 50122  1  0
 50123  1  0
 51 52  1  0
 51124  1  0
 51125  1  0
 52126  1  0
 52127  1  0
 53 54  1  0
 54 55  2  0
 54128  1  0
 55 57  1  0
 55129  1  0
 56 69  2  0
 57 58  2  0
 57130  1  0
 58131  1  0
 59 60  1  0
 59 61  1  0
 59 62  1  0
 60132  1  0
 60133  1  0
 60134  1  0
 61135  1  0
 61136  1  0
 61137  1  0
 62138  1  0
 62139  1  0
 62140  1  0
 63 65  1  0
 63141  1  0
 63142  1  0
 63143  1  0
 64144  1  0
 65145  1  0
 68 81  1  0
 71 72  2  0
 71 73  1  0
 71146  1  0
 72 75  1  0
 72147  1  0
 73 76  2  0
 73148  1  0
 74 75  2  0
 74 76  1  0
 74149  1  0
 75 77  1  0
 76 83  1  0
 77 84  1  0
 77 85  2  0
 78 81  1  0
 78 82  1  0
 78 86  2  0
 79150  1  0
 79151  1  0
 79152  1  0
 80 82  1  0
 80153  1  0
 80154  1  0
 80155  1  0
 81156  1  0
 81157  1  0
 82 79  1  0
 82 84  1  0
 83158  1  0
 84159  1  0
M  ISO  4   1 100  68 101  81 101  83 100
M  END
$$$$
24
     RDKit          3D

157165  0  0  0  0  0  0  0  0999 V2000
  -30.7652  -14.3608   20.6636 C   0  0  0  0  0  0  0  0  0100  0  0
  -30.4392  -12.2669   19.3775 C   0  0  0  0  0  0  0  0  0101  0  0
  -29.4791  -12.5281   18.1977 C   0  0  0  0  0  0  0  0  0102  0  0
  -27.9985  -12.3963   18.6038 C   0  0  0  0  0  0  0  0  0103  0  0
  -27.6639  -13.2170   19.8820 C   0  0  2  0  0  0  0  0  0104  0  0
  -28.6795  -12.9602   21.0279 C   0  0  0  0  0  0  0  0  0105  0  0
  -25.2633  -13.8245   20.5754 C   0  0  0  0  0  0  0  0  0106  0  0
  -24.1645  -13.0409   20.9408 C   0  0  0  0  0  0  0  0  0107  0  0
  -24.6400  -11.7009   20.8697 C   0  0  0  0  0  0  0  0  0108  0  0
  -23.9005  -10.4085   21.0420 C   0  0  0  0  0  0  0  0  0109  0  0
  -24.3588   -9.4123   21.9123 C   0  0  0  0  0  0  0  0  0110  0  0
  -23.6296   -8.2350   22.0803 C   0  0  0  0  0  0  0  0  0111  0  0
  -22.4385   -8.0419   21.3657 C   0  0  0  0  0  0  0  0  0112  0  0
  -22.0103   -9.0167   20.4678 C   0  0  0  0  0  0  0  0  0113  0  0
  -22.7317  -10.1925   20.3102 C   0  0  0  0  0  0  0  0  0114  0  0
  -21.6857   -6.0709   22.5391 C   0  0  0  0  0  0  0  0  0115  0  0
  -21.4064   -6.5490   23.8264 C   0  0  0  0  0  0  0  0  0116  0  0
  -21.3635   -5.6677   24.9085 C   0  0  0  0  0  0  0  0  0117  0  0
  -21.5973   -4.3067   24.7088 C   0  0  0  0  0  0  0  0  0118  0  0
  -21.8700   -3.8284   23.4282 C   0  0  0  0  0  0  0  0  0119  0  0
  -21.9144   -4.7056   22.3460 C   0  0  0  0  0  0  0  0  0120  0  0
  -22.8194  -13.5263   21.1763 C   0  0  0  0  0  0  0  0  0121  0  0
  -22.1559   -4.2206   21.1063 F   0  0  0  0  0  0  0  0  0122  0  0
  -21.5628   -3.4510   25.7555 F   0  0  0  0  0  0  0  0  0123  0  0
  -30.0261  -13.1803   20.4553 N   0  0  0  0  0  0  0  0  0124  0  0
  -26.2911  -12.9356   20.3443 N   0  0  0  0  0  0  0  0  0125  0  0
  -25.9236  -11.6675   20.5847 N   0  0  0  0  0  0  0  0  0126  0  0
  -22.0708  -12.7905   22.0005 N   0  0  0  0  0  0  0  0  0127  0  0
  -25.4117  -15.1773   20.4097 N   0  0  0  0  0  0  0  0  0128  0  0
  -31.7916  -14.6724   20.0536 O   0  0  0  0  0  0  0  0  0129  0  0
  -21.6670   -6.9022   21.4423 O   0  0  0  0  0  0  0  0  0130  0  0
  -22.3946  -14.5564   20.6568 O   0  0  0  0  0  0  0  0  0131  0  0
  -24.6048  -31.8614   23.2223 C   0  0  0  0  0  0  0  0  0100  0  0
  -25.8822  -32.4841   23.8616 C   0  0  1  0  0  0  0  0  0101  0  0
  -27.2536  -27.5042   20.1156 C   0  0  0  0  0  0  0  0  0102  0  0
  -25.5726  -33.8762   24.2210 N   0  0  0  0  0  0  0  0  0103  0  0
  -23.4066  -30.4859   21.5461 C   0  0  2  0  0  0  0  0  0104  0  0
  -24.8467  -28.9636   20.1247 C   0  0  0  0  0  0  0  0  0105  0  0
  -22.7412  -29.4652   22.5052 C   0  0  0  0  0  0  0  0  0106  0  0
  -18.0167  -28.1302   22.8626 C   0  0  0  0  0  0  0  0  0107  0  0
  -24.1342  -36.7390   23.2568 C   0  0  0  0  0  0  0  0  0108  0  0
  -25.9141  -30.8882   21.3456 C   0  0  0  0  0  0  0  0  0109  0  0
  -25.9930  -29.5029   20.7208 C   0  0  0  0  0  0  0  0  0110  0  0
  -27.1758  -28.7612   20.7331 C   0  0  0  0  0  0  0  0  0111  0  0
  -26.1032  -26.9836   19.5230 C   0  0  0  0  0  0  0  0  0112  0  0
  -24.9097  -27.7011   19.5331 C   0  0  0  0  0  0  0  0  0113  0  0
  -23.5715  -29.7899   20.1582 C   0  0  0  0  0  0  0  0  0114  0  0
  -25.3990  -36.3212   24.0232 C   0  0  1  0  0  0  0  0  0115  0  0
  -20.5793  -28.3813   23.1004 C   0  0  2  0  0  0  0  0  0116  0  0
  -20.6548  -26.9392   22.5411 C   0  0  0  0  0  0  0  0  0117  0  0
  -19.5615  -26.6407   21.5143 C   0  0  0  0  0  0  0  0  0118  0  0
  -18.1797  -26.7818   22.1673 C   0  0  0  0  0  0  0  0  0119  0  0
  -19.1385  -28.8769   23.2988 C   0  0  0  0  0  0  0  0  0120  0  0
  -18.9183  -30.1286   23.8878 C   0  0  0  0  0  0  0  0  0121  0  0
  -17.6396  -30.6493   24.0352 C   0  0  0  0  0  0  0  0  0122  0  0
  -25.9153  -34.9582   23.4993 C   0  0  0  0  0  0  0  0  0123  0  0
  -16.5415  -29.9068   23.6254 C   0  0  0  0  0  0  0  0  0124  0  0
  -16.7331  -28.6521   23.0586 C   0  0  0  0  0  0  0  0  0125  0  0
  -26.4583  -31.6439   25.0683 C   0  0  0  0  0  0  0  0  0126  0  0
  -25.3807  -31.3179   26.1374 C   0  0  0  0  0  0  0  0  0127  0  0
  -27.0530  -30.3024   24.5680 C   0  0  0  0  0  0  0  0  0128  0  0
  -27.6014  -32.4281   25.7651 C   0  0  0  0  0  0  0  0  0129  0  0
  -27.5629  -37.2220   24.8621 C   0  0  0  0  0  0  0  0  0130  0  0
  -21.4133  -29.3375   22.3735 N   0  0  0  0  0  0  0  0  0131  0  0
  -26.4706  -37.3372   23.9061 N   0  0  0  0  0  0  0  0  0132  0  0
  -24.6674  -31.0544   22.1178 N   0  0  0  0  0  0  0  0  0133  0  0
  -23.4259  -28.8150   23.2971 O   0  0  0  0  0  0  0  0  0134  0  0
  -28.3948  -26.7345   20.0089 O   0  0  0  0  0  0  0  0  0135  0  0
  -26.5870  -34.9065   22.4671 O   0  0  0  0  0  0  0  0  0136  0  0
  -23.5365  -32.1254   23.7833 O   0  0  0  0  0  0  0  0  0137  0  0
  -21.5564  -14.5528   25.8145 C   0  0  0  0  0  0  0  0  0  0  0  0
  -21.5374  -15.9475   25.8094 C   0  0  0  0  0  0  0  0  0  0  0  0
  -21.5347  -15.9386   23.3934 C   0  0  0  0  0  0  0  0  0  0  0  0
  -21.5538  -14.5438   23.3985 C   0  0  0  0  0  0  0  0  0  0  0  0
  -21.5647  -13.8509   24.6090 C   0  0  0  0  0  0  0  0  0  0  0  0
  -21.5265  -16.6404   24.5988 C   0  0  0  0  0  0  0  0  0  0  0  0
  -21.5638  -13.8254   22.0962 C   0  0  0  0  0  0  0  0  0  0  0  0
  -20.8856  -14.4868   20.9122 C   0  0  0  0  0  0  0  0  0  0  0  0
  -22.6618  -20.0152   23.9244 C   0  0  0  0  0  0  0  0  0  0  0  0
  -22.1312  -18.6570   23.4929 C   0  0  0  0  0  0  0  0  0  0  0  0
  -23.3587  -20.7420   22.7849 C   0  0  0  0  0  0  0  0  0  1  0  0
  -22.1308  -12.6556   22.0413 N   0  0  0  0  0  0  0  0  0  0  0  0
  -21.5864  -12.4387   24.6358 N   0  0  0  0  0  0  0  0  0  0  0  0
  -21.5071  -18.0109   24.5941 O   0  0  0  0  0  0  0  0  0  0  0  0
  -31.4485  -12.4701   19.0860 H   0  0  0  0  0  0  0  0  0  0  0  0
  -30.3970  -11.2460   19.6950 H   0  0  0  0  0  0  0  0  0  0  0  0
  -29.6870  -11.8204   17.4226 H   0  0  0  0  0  0  0  0  0  0  0  0
  -29.6375  -13.5326   17.8649 H   0  0  0  0  0  0  0  0  0  0  0  0
  -27.7830  -11.3650   18.7904 H   0  0  0  0  0  0  0  0  0  0  0  0
  -27.4028  -12.7801   17.8021 H   0  0  0  0  0  0  0  0  0  0  0  0
  -27.7353  -14.2503   19.6136 H   0  0  0  0  0  0  0  0  0  0  0  0
  -28.5890  -11.9550   21.3832 H   0  0  0  0  0  0  0  0  0  0  0  0
  -28.5005  -13.6134   21.8562 H   0  0  0  0  0  0  0  0  0  0  0  0
  -25.2399   -9.5495   22.4318 H   0  0  0  0  0  0  0  0  0  0  0  0
  -23.9663   -7.5070   22.7297 H   0  0  0  0  0  0  0  0  0  0  0  0
  -21.1515   -8.8641   19.9162 H   0  0  0  0  0  0  0  0  0  0  0  0
  -22.4016  -10.9115   19.6476 H   0  0  0  0  0  0  0  0  0  0  0  0
  -21.2319   -7.5552   23.9750 H   0  0  0  0  0  0  0  0  0  0  0  0
  -21.1589   -6.0228   25.8556 H   0  0  0  0  0  0  0  0  0  0  0  0
  -22.0396   -2.8212   23.2809 H   0  0  0  0  0  0  0  0  0  0  0  0
  -22.4401  -11.9703   22.4008 H   0  0  0  0  0  0  0  0  0  0  0  0
  -21.1493  -13.0679   22.2082 H   0  0  0  0  0  0  0  0  0  0  0  0
  -24.6538  -15.7807   20.5848 H   0  0  0  0  0  0  0  0  0  0  0  0
  -26.2762  -15.5453   20.1156 H   0  0  0  0  0  0  0  0  0  0  0  0
  -26.6778  -32.4663   23.1464 H   0  0  0  0  0  0  0  0  0  0  0  0
  -25.0747  -34.0282   25.0566 H   0  0  0  0  0  0  0  0  0  0  0  0
  -22.7881  -31.3489   21.4131 H   0  0  0  0  0  0  0  0  0  0  0  0
  -23.3854  -35.9823   23.3648 H   0  0  0  0  0  0  0  0  0  0  0  0
  -24.3696  -36.8624   22.2204 H   0  0  0  0  0  0  0  0  0  0  0  0
  -23.7669  -37.6632   23.6516 H   0  0  0  0  0  0  0  0  0  0  0  0
  -25.9445  -31.6237   20.5691 H   0  0  0  0  0  0  0  0  0  0  0  0
  -26.7436  -31.0079   22.0108 H   0  0  0  0  0  0  0  0  0  0  0  0
  -28.0090  -29.1452   21.2057 H   0  0  0  0  0  0  0  0  0  0  0  0
  -26.1369  -26.0560   19.0719 H   0  0  0  0  0  0  0  0  0  0  0  0
  -24.0652  -27.2961   19.0997 H   0  0  0  0  0  0  0  0  0  0  0  0
  -23.6156  -30.5365   19.3930 H   0  0  0  0  0  0  0  0  0  0  0  0
  -22.7355  -29.1425   19.9945 H   0  0  0  0  0  0  0  0  0  0  0  0
  -25.1353  -36.2335   25.0565 H   0  0  0  0  0  0  0  0  0  0  0  0
  -21.0070  -28.3206   24.0793 H   0  0  0  0  0  0  0  0  0  0  0  0
  -20.5555  -26.2518   23.3550 H   0  0  0  0  0  0  0  0  0  0  0  0
  -21.5974  -26.8362   22.0454 H   0  0  0  0  0  0  0  0  0  0  0  0
  -19.6810  -25.6422   21.1488 H   0  0  0  0  0  0  0  0  0  0  0  0
  -19.6406  -27.3343   20.7034 H   0  0  0  0  0  0  0  0  0  0  0  0
  -17.4282  -26.6888   21.4113 H   0  0  0  0  0  0  0  0  0  0  0  0
  -18.0803  -26.0130   22.9049 H   0  0  0  0  0  0  0  0  0  0  0  0
  -19.7265  -30.6774   24.2204 H   0  0  0  0  0  0  0  0  0  0  0  0
  -17.5064  -31.5856   24.4483 H   0  0  0  0  0  0  0  0  0  0  0  0
  -15.5878  -30.2839   23.7407 H   0  0  0  0  0  0  0  0  0  0  0  0
  -15.9120  -28.0941   22.7766 H   0  0  0  0  0  0  0  0  0  0  0  0
  -24.5787  -30.7757   25.6817 H   0  0  0  0  0  0  0  0  0  0  0  0
  -25.0041  -32.2289   26.5536 H   0  0  0  0  0  0  0  0  0  0  0  0
  -25.8166  -30.7245   26.9138 H   0  0  0  0  0  0  0  0  0  0  0  0
  -26.2892  -29.7335   24.0803 H   0  0  0  0  0  0  0  0  0  0  0  0
  -27.4336  -29.7484   25.4006 H   0  0  0  0  0  0  0  0  0  0  0  0
  -27.8466  -30.4994   23.8779 H   0  0  0  0  0  0  0  0  0  0  0  0
  -27.2251  -33.3632   26.1242 H   0  0  0  0  0  0  0  0  0  0  0  0
  -28.3902  -32.6065   25.0645 H   0  0  0  0  0  0  0  0  0  0  0  0
  -27.9772  -31.8555   26.5872 H   0  0  0  0  0  0  0  0  0  0  0  0
  -28.2744  -38.0016   24.6863 H   0  0  0  0  0  0  0  0  0  0  0  0
  -28.0396  -36.2711   24.7461 H   0  0  0  0  0  0  0  0  0  0  0  0
  -27.1773  -37.3087   25.8564 H   0  0  0  0  0  0  0  0  0  0  0  0
  -20.9627  -29.9365   21.7352 H   0  0  0  0  0  0  0  0  0  0  0  0
  -26.0447  -38.2561   24.0273 H   0  0  0  0  0  0  0  0  0  0  0  0
  -21.5643  -14.0401   26.7101 H   0  0  0  0  0  0  0  0  0  0  0  0
  -21.5314  -16.4667   26.7012 H   0  0  0  0  0  0  0  0  0  0  0  0
  -21.5266  -16.4513   22.4978 H   0  0  0  0  0  0  0  0  0  0  0  0
  -20.4983  -15.4390   21.2092 H   0  0  0  0  0  0  0  0  0  0  0  0
  -20.0839  -13.8671   20.5685 H   0  0  0  0  0  0  0  0  0  0  0  0
  -21.5960  -14.6210   20.1234 H   0  0  0  0  0  0  0  0  0  0  0  0
  -23.3597  -19.8756   24.7234 H   0  0  0  0  0  0  0  0  0  0  0  0
  -21.8300  -20.6111   24.2372 H   0  0  0  0  0  0  0  0  0  0  0  0
  -22.9423  -18.0545   23.1409 H   0  0  0  0  0  0  0  0  0  0  0  0
  -21.4144  -18.7907   22.7098 H   0  0  0  0  0  0  0  0  0  0  0  0
  -22.4942  -20.9832   22.2024 H   0  0  0  0  0  0  0  0  0  0  0  0
  -24.2200  -20.1299   22.9536 H   0  0  0  0  0  0  0  0  0  0  0  0
  -21.5939  -11.9628   25.4976 H   0  0  0  0  0  0  0  0  0  0  0  0
  -21.5940  -11.9304   23.7927 H   0  0  0  0  0  0  0  0  0  0  0  0
  1 25  1  0
  1 30  2  0
  1 82  1  0
  2  3  1  0
  2 25  1  0
  2 85  1  0
  2 86  1  0
  3  4  1  0
  3 87  1  0
  3 88  1  0
  4  5  1  0
  4 89  1  0
  4 90  1  0
  5  6  1  0
  5 26  1  0
  5 91  1  6
  6 25  1  0
  6 92  1  0
  6 93  1  0
  7  8  2  0
  7 26  1  0
  7 29  1  0
  8  9  1  0
  8 22  1  0
  9 10  1  0
  9 27  2  0
 10 11  2  0
 10 15  1  0
 11 12  1  0
 11 94  1  0
 12 13  2  0
 12 95  1  0
 13 14  1  0
 13 31  1  0
 14 15  2  0
 14 96  1  0
 15 97  1  0
 16 17  2  0
 16 21  1  0
 16 31  1  0
 17 18  1  0
 17 98  1  0
 18 19  2  0
 18 99  1  0
 19 20  1  0
 19 24  1  0
 20 21  2  0
 20100  1  0
 21 23  1  0
 22 28  1  0
 22 32  2  0
 26 27  1  0
 28101  1  0
 28102  1  0
 29103  1  0
 29104  1  0
 33 34  1  0
 33 66  1  0
 33 70  2  0
 34 36  1  0
 34 59  1  0
 34105  1  6
 35 44  2  0
 35 45  1  0
 35 68  1  0
 36 56  1  0
 36106  1  0
 37 39  1  0
 37 47  1  0
 37 66  1  0
 37107  1  6
 38 43  2  0
 38 46  1  0
 38 47  1  0
 39 64  1  0
 39 67  2  0
 40 52  1  0
 40 53  2  0
 40 58  1  0
 41108  1  0
 41109  1  0
 41110  1  0
 42 43  1  0
 42 66  1  0
 42111  1  0
 42112  1  0
 43 44  1  0
 44113  1  0
 45 46  2  0
 45114  1  0
 46115  1  0
 47116  1  0
 47117  1  0
 48 41  1  0
 48 56  1  0
 48 65  1  0
 48118  1  1
 49 50  1  0
 49 53  1  0
 49 64  1  0
 49119  1  1
 50 51  1  0
 50120  1  0
 50121  1  0
 51 52  1  0
 51122  1  0
 51123  1  0
 52124  1  0
 52125  1  0
 53 54  1  0
 54 55  2  0
 54126  1  0
 55 57  1  0
 55127  1  0
 56 69  2  0
 57 58  2  0
 57128  1  0
 58129  1  0
 59 60  1  0
 59 61  1  0
 59 62  1  0
 60130  1  0
 60131  1  0
 60132  1  0
 61133  1  0
 61134  1  0
 61135  1  0
 62136  1  0
 62137  1  0
 62138  1  0
 63 65  1  0
 63139  1  0
 63140  1  0
 63141  1  0
 64142  1  0
 65143  1  0
 68 81  1  0
 71 72  2  0
 71 75  1  0
 71144  1  0
 72 76  1  0
 72145  1  0
 73 74  1  0
 73 76  2  0
 73146  1  0
 74 75  2  0
 74 77  1  0
 75 83  1  0
 76 84  1  0
 77 78  1  0
 77 82  2  0
 78147  1  0
 78148  1  0
 78149  1  0
 79 80  1  0
 79 81  1  0
 79150  1  0
 79151  1  0
 80 84  1  0
 80152  1  0
 80153  1  0
 81154  1  0
 81155  1  0
 83156  1  0
 83157  1  0
M  ISO  4   1 100  68 101  81 101  82 100
M  END
$$$$
25
     RDKit          3D

153161  0  0  0  0  0  0  0  0999 V2000
  -30.7652  -14.3608   20.6636 C   0  0  0  0  0  0  0  0  0100  0  0
  -30.4392  -12.2669   19.3775 C   0  0  0  0  0  0  0  0  0101  0  0
  -29.4791  -12.5281   18.1977 C   0  0  0  0  0  0  0  0  0102  0  0
  -27.9985  -12.3963   18.6038 C   0  0  0  0  0  0  0  0  0103  0  0
  -27.6639  -13.2170   19.8820 C   0  0  2  0  0  0  0  0  0104  0  0
  -28.6795  -12.9602   21.0279 C   0  0  0  0  0  0  0  0  0105  0  0
  -25.2633  -13.8245   20.5754 C   0  0  0  0  0  0  0  0  0106  0  0
  -24.1645  -13.0409   20.9408 C   0  0  0  0  0  0  0  0  0107  0  0
  -24.6400  -11.7009   20.8697 C   0  0  0  0  0  0  0  0  0108  0  0
  -23.9005  -10.4085   21.0420 C   0  0  0  0  0  0  0  0  0109  0  0
  -24.3588   -9.4123   21.9123 C   0  0  0  0  0  0  0  0  0110  0  0
  -23.6296   -8.2350   22.0803 C   0  0  0  0  0  0  0  0  0111  0  0
  -22.4385   -8.0419   21.3657 C   0  0  0  0  0  0  0  0  0112  0  0
  -22.0103   -9.0167   20.4678 C   0  0  0  0  0  0  0  0  0113  0  0
  -22.7317  -10.1925   20.3102 C   0  0  0  0  0  0  0  0  0114  0  0
  -21.6857   -6.0709   22.5391 C   0  0  0  0  0  0  0  0  0115  0  0
  -21.4064   -6.5490   23.8264 C   0  0  0  0  0  0  0  0  0116  0  0
  -21.3635   -5.6677   24.9085 C   0  0  0  0  0  0  0  0  0117  0  0
  -21.5973   -4.3067   24.7088 C   0  0  0  0  0  0  0  0  0118  0  0
  -21.8700   -3.8284   23.4282 C   0  0  0  0  0  0  0  0  0119  0  0
  -21.9144   -4.7056   22.3460 C   0  0  0  0  0  0  0  0  0120  0  0
  -22.8194  -13.5263   21.1763 C   0  0  0  0  0  0  0  0  0121  0  0
  -22.1559   -4.2206   21.1063 F   0  0  0  0  0  0  0  0  0122  0  0
  -21.5628   -3.4510   25.7555 F   0  0  0  0  0  0  0  0  0123  0  0
  -30.0261  -13.1803   20.4553 N   0  0  0  0  0  0  0  0  0124  0  0
  -26.2911  -12.9356   20.3443 N   0  0  0  0  0  0  0  0  0125  0  0
  -25.9236  -11.6675   20.5847 N   0  0  0  0  0  0  0  0  0126  0  0
  -22.0708  -12.7905   22.0005 N   0  0  0  0  0  0  0  0  0127  0  0
  -25.4117  -15.1773   20.4097 N   0  0  0  0  0  0  0  0  0128  0  0
  -31.7916  -14.6724   20.0536 O   0  0  0  0  0  0  0  0  0129  0  0
  -21.6670   -6.9022   21.4423 O   0  0  0  0  0  0  0  0  0130  0  0
  -22.3946  -14.5564   20.6568 O   0  0  0  0  0  0  0  0  0131  0  0
  -24.6048  -31.8614   23.2223 C   0  0  0  0  0  0  0  0  0100  0  0
  -25.8822  -32.4841   23.8616 C   0  0  1  0  0  0  0  0  0101  0  0
  -27.2536  -27.5042   20.1156 C   0  0  0  0  0  0  0  0  0102  0  0
  -25.5726  -33.8762   24.2210 N   0  0  0  0  0  0  0  0  0103  0  0
  -23.4066  -30.4859   21.5461 C   0  0  2  0  0  0  0  0  0104  0  0
  -24.8467  -28.9636   20.1247 C   0  0  0  0  0  0  0  0  0105  0  0
  -22.7412  -29.4652   22.5052 C   0  0  0  0  0  0  0  0  0106  0  0
  -18.0167  -28.1302   22.8626 C   0  0  0  0  0  0  0  0  0107  0  0
  -24.1342  -36.7390   23.2568 C   0  0  0  0  0  0  0  0  0108  0  0
  -25.9141  -30.8882   21.3456 C   0  0  0  0  0  0  0  0  0109  0  0
  -25.9930  -29.5029   20.7208 C   0  0  0  0  0  0  0  0  0110  0  0
  -27.1758  -28.7612   20.7331 C   0  0  0  0  0  0  0  0  0111  0  0
  -26.1032  -26.9836   19.5230 C   0  0  0  0  0  0  0  0  0112  0  0
  -24.9097  -27.7011   19.5331 C   0  0  0  0  0  0  0  0  0113  0  0
  -23.5715  -29.7899   20.1582 C   0  0  0  0  0  0  0  0  0114  0  0
  -25.3990  -36.3212   24.0232 C   0  0  1  0  0  0  0  0  0115  0  0
  -20.5793  -28.3813   23.1004 C   0  0  2  0  0  0  0  0  0116  0  0
  -20.6548  -26.9392   22.5411 C   0  0  0  0  0  0  0  0  0117  0  0
  -19.5615  -26.6407   21.5143 C   0  0  0  0  0  0  0  0  0118  0  0
  -18.1797  -26.7818   22.1673 C   0  0  0  0  0  0  0  0  0119  0  0
  -19.1385  -28.8769   23.2988 C   0  0  0  0  0  0  0  0  0120  0  0
  -18.9183  -30.1286   23.8878 C   0  0  0  0  0  0  0  0  0121  0  0
  -17.6396  -30.6493   24.0352 C   0  0  0  0  0  0  0  0  0122  0  0
  -25.9153  -34.9582   23.4993 C   0  0  0  0  0  0  0  0  0123  0  0
  -16.5415  -29.9068   23.6254 C   0  0  0  0  0  0  0  0  0124  0  0
  -16.7331  -28.6521   23.0586 C   0  0  0  0  0  0  0  0  0125  0  0
  -26.4583  -31.6439   25.0683 C   0  0  0  0  0  0  0  0  0126  0  0
  -25.3807  -31.3179   26.1374 C   0  0  0  0  0  0  0  0  0127  0  0
  -27.0530  -30.3024   24.5680 C   0  0  0  0  0  0  0  0  0128  0  0
  -27.6014  -32.4281   25.7651 C   0  0  0  0  0  0  0  0  0129  0  0
  -27.5629  -37.2220   24.8621 C   0  0  0  0  0  0  0  0  0130  0  0
  -21.4133  -29.3375   22.3735 N   0  0  0  0  0  0  0  0  0131  0  0
  -26.4706  -37.3372   23.9061 N   0  0  0  0  0  0  0  0  0132  0  0
  -24.6674  -31.0544   22.1178 N   0  0  0  0  0  0  0  0  0133  0  0
  -23.4259  -28.8150   23.2971 O   0  0  0  0  0  0  0  0  0134  0  0
  -28.3948  -26.7345   20.0089 O   0  0  0  0  0  0  0  0  0135  0  0
  -26.5870  -34.9065   22.4671 O   0  0  0  0  0  0  0  0  0136  0  0
  -23.5365  -32.1254   23.7833 O   0  0  0  0  0  0  0  0  0137  0  0
  -29.5441  -20.8452   19.5365 C   0  0  0  0  0  0  0  0  0  0  0  0
  -27.7791  -19.8050   20.8171 C   0  0  0  0  0  0  0  0  0  0  0  0
  -29.8090  -18.5834   20.3434 C   0  0  0  0  0  0  0  0  0  0  0  0
  -30.3090  -19.6841   19.6476 C   0  0  0  0  0  0  0  0  0  0  0  0
  -28.2791  -20.9056   20.1213 C   0  0  0  0  0  0  0  0  0  0  0  0
  -28.5441  -18.6438   20.9281 C   0  0  0  0  0  0  0  0  0  0  0  0
  -30.6059  -17.3367   20.4754 C   0  0  0  0  0  0  0  0  0  0  0  0
  -27.8431  -23.2635   19.3568 C   0  0  0  0  0  0  0  0  0  0  0  0
  -31.6603  -19.6465   19.0113 C   0  0  0  0  0  0  0  0  0  0  0  0
  -26.7251  -24.2826   19.4751 C   0  0  0  0  0  0  0  0  0  1  0  0
  -27.5027  -22.0834   20.0092 N   0  0  0  0  0  0  0  0  0  0  0  0
  -30.0206  -16.1884   19.9411 N   0  0  0  0  0  0  0  0  0  0  0  0
  -31.7174  -17.3895   20.9946 O   0  0  0  0  0  0  0  0  0  0  0  0
  -28.8804  -23.5149   18.7524 O   0  0  0  0  0  0  0  0  0  0  0  0
  -28.0525  -17.5927   21.5998 F   0  0  0  0  0  0  0  0  0  0  0  0
  -31.4485  -12.4701   19.0860 H   0  0  0  0  0  0  0  0  0  0  0  0
  -30.3970  -11.2460   19.6950 H   0  0  0  0  0  0  0  0  0  0  0  0
  -29.6870  -11.8204   17.4226 H   0  0  0  0  0  0  0  0  0  0  0  0
  -29.6375  -13.5326   17.8649 H   0  0  0  0  0  0  0  0  0  0  0  0
  -27.7830  -11.3650   18.7904 H   0  0  0  0  0  0  0  0  0  0  0  0
  -27.4028  -12.7801   17.8021 H   0  0  0  0  0  0  0  0  0  0  0  0
  -27.7353  -14.2503   19.6136 H   0  0  0  0  0  0  0  0  0  0  0  0
  -28.5890  -11.9550   21.3832 H   0  0  0  0  0  0  0  0  0  0  0  0
  -28.5005  -13.6134   21.8562 H   0  0  0  0  0  0  0  0  0  0  0  0
  -25.2399   -9.5495   22.4318 H   0  0  0  0  0  0  0  0  0  0  0  0
  -23.9663   -7.5070   22.7297 H   0  0  0  0  0  0  0  0  0  0  0  0
  -21.1515   -8.8641   19.9162 H   0  0  0  0  0  0  0  0  0  0  0  0
  -22.4016  -10.9115   19.6476 H   0  0  0  0  0  0  0  0  0  0  0  0
  -21.2319   -7.5552   23.9750 H   0  0  0  0  0  0  0  0  0  0  0  0
  -21.1589   -6.0228   25.8556 H   0  0  0  0  0  0  0  0  0  0  0  0
  -22.0396   -2.8212   23.2809 H   0  0  0  0  0  0  0  0  0  0  0  0
  -22.4401  -11.9703   22.4008 H   0  0  0  0  0  0  0  0  0  0  0  0
  -21.1493  -13.0679   22.2082 H   0  0  0  0  0  0  0  0  0  0  0  0
  -24.6538  -15.7807   20.5848 H   0  0  0  0  0  0  0  0  0  0  0  0
  -26.2762  -15.5453   20.1156 H   0  0  0  0  0  0  0  0  0  0  0  0
  -26.6778  -32.4663   23.1464 H   0  0  0  0  0  0  0  0  0  0  0  0
  -25.0747  -34.0282   25.0566 H   0  0  0  0  0  0  0  0  0  0  0  0
  -22.7881  -31.3489   21.4131 H   0  0  0  0  0  0  0  0  0  0  0  0
  -23.3854  -35.9823   23.3648 H   0  0  0  0  0  0  0  0  0  0  0  0
  -24.3696  -36.8624   22.2204 H   0  0  0  0  0  0  0  0  0  0  0  0
  -23.7669  -37.6632   23.6516 H   0  0  0  0  0  0  0  0  0  0  0  0
  -25.9445  -31.6237   20.5691 H   0  0  0  0  0  0  0  0  0  0  0  0
  -26.7436  -31.0079   22.0108 H   0  0  0  0  0  0  0  0  0  0  0  0
  -28.0090  -29.1452   21.2057 H   0  0  0  0  0  0  0  0  0  0  0  0
  -26.1369  -26.0560   19.0719 H   0  0  0  0  0  0  0  0  0  0  0  0
  -24.0652  -27.2961   19.0997 H   0  0  0  0  0  0  0  0  0  0  0  0
  -23.6156  -30.5365   19.3930 H   0  0  0  0  0  0  0  0  0  0  0  0
  -22.7355  -29.1425   19.9945 H   0  0  0  0  0  0  0  0  0  0  0  0
  -25.1353  -36.2335   25.0565 H   0  0  0  0  0  0  0  0  0  0  0  0
  -21.0070  -28.3206   24.0793 H   0  0  0  0  0  0  0  0  0  0  0  0
  -20.5555  -26.2518   23.3550 H   0  0  0  0  0  0  0  0  0  0  0  0
  -21.5974  -26.8362   22.0454 H   0  0  0  0  0  0  0  0  0  0  0  0
  -19.6810  -25.6422   21.1488 H   0  0  0  0  0  0  0  0  0  0  0  0
  -19.6406  -27.3343   20.7034 H   0  0  0  0  0  0  0  0  0  0  0  0
  -17.4282  -26.6888   21.4113 H   0  0  0  0  0  0  0  0  0  0  0  0
  -18.0803  -26.0130   22.9049 H   0  0  0  0  0  0  0  0  0  0  0  0
  -19.7265  -30.6774   24.2204 H   0  0  0  0  0  0  0  0  0  0  0  0
  -17.5064  -31.5856   24.4483 H   0  0  0  0  0  0  0  0  0  0  0  0
  -15.5878  -30.2839   23.7407 H   0  0  0  0  0  0  0  0  0  0  0  0
  -15.9120  -28.0941   22.7766 H   0  0  0  0  0  0  0  0  0  0  0  0
  -24.5787  -30.7757   25.6817 H   0  0  0  0  0  0  0  0  0  0  0  0
  -25.0041  -32.2289   26.5536 H   0  0  0  0  0  0  0  0  0  0  0  0
  -25.8166  -30.7245   26.9138 H   0  0  0  0  0  0  0  0  0  0  0  0
  -26.2892  -29.7335   24.0803 H   0  0  0  0  0  0  0  0  0  0  0  0
  -27.4336  -29.7484   25.4006 H   0  0  0  0  0  0  0  0  0  0  0  0
  -27.8466  -30.4994   23.8779 H   0  0  0  0  0  0  0  0  0  0  0  0
  -27.2251  -33.3632   26.1242 H   0  0  0  0  0  0  0  0  0  0  0  0
  -28.3902  -32.6065   25.0645 H   0  0  0  0  0  0  0  0  0  0  0  0
  -27.9772  -31.8555   26.5872 H   0  0  0  0  0  0  0  0  0  0  0  0
  -28.2744  -38.0016   24.6863 H   0  0  0  0  0  0  0  0  0  0  0  0
  -28.0396  -36.2711   24.7461 H   0  0  0  0  0  0  0  0  0  0  0  0
  -27.1773  -37.3087   25.8564 H   0  0  0  0  0  0  0  0  0  0  0  0
  -20.9627  -29.9365   21.7352 H   0  0  0  0  0  0  0  0  0  0  0  0
  -26.0447  -38.2561   24.0273 H   0  0  0  0  0  0  0  0  0  0  0  0
  -29.9140  -21.6595   19.0217 H   0  0  0  0  0  0  0  0  0  0  0  0
  -26.8433  -19.8497   21.2498 H   0  0  0  0  0  0  0  0  0  0  0  0
  -31.8545  -20.5827   18.5310 H   0  0  0  0  0  0  0  0  0  0  0  0
  -31.6913  -18.8603   18.2861 H   0  0  0  0  0  0  0  0  0  0  0  0
  -32.4028  -19.4695   19.7611 H   0  0  0  0  0  0  0  0  0  0  0  0
  -26.0637  -24.0618   20.2867 H   0  0  0  0  0  0  0  0  0  0  0  0
  -26.0659  -24.3458   18.6346 H   0  0  0  0  0  0  0  0  0  0  0  0
  -26.6193  -22.0653   20.4433 H   0  0  0  0  0  0  0  0  0  0  0  0
  -29.3037  -16.2316   19.2678 H   0  0  0  0  0  0  0  0  0  0  0  0
  1 25  1  0
  1 30  2  0
  1 82  1  0
  2  3  1  0
  2 25  1  0
  2 86  1  0
  2 87  1  0
  3  4  1  0
  3 88  1  0
  3 89  1  0
  4  5  1  0
  4 90  1  0
  4 91  1  0
  5  6  1  0
  5 26  1  0
  5 92  1  6
  6 25  1  0
  6 93  1  0
  6 94  1  0
  7  8  2  0
  7 26  1  0
  7 29  1  0
  8  9  1  0
  8 22  1  0
  9 10  1  0
  9 27  2  0
 10 11  2  0
 10 15  1  0
 11 12  1  0
 11 95  1  0
 12 13  2  0
 12 96  1  0
 13 14  1  0
 13 31  1  0
 14 15  2  0
 14 97  1  0
 15 98  1  0
 16 17  2  0
 16 21  1  0
 16 31  1  0
 17 18  1  0
 17 99  1  0
 18 19  2  0
 18100  1  0
 19 20  1  0
 19 24  1  0
 20 21  2  0
 20101  1  0
 21 23  1  0
 22 28  1  0
 22 32  2  0
 26 27  1  0
 28102  1  0
 28103  1  0
 29104  1  0
 29105  1  0
 33 34  1  0
 33 66  1  0
 33 70  2  0
 34 36  1  0
 34 59  1  0
 34106  1  6
 35 44  2  0
 35 45  1  0
 35 68  1  0
 36 56  1  0
 36107  1  0
 37 39  1  0
 37 47  1  0
 37 66  1  0
 37108  1  6
 38 43  2  0
 38 46  1  0
 38 47  1  0
 39 64  1  0
 39 67  2  0
 40 52  1  0
 40 53  2  0
 40 58  1  0
 41109  1  0
 41110  1  0
 41111  1  0
 42 43  1  0
 42 66  1  0
 42112  1  0
 42113  1  0
 43 44  1  0
 44114  1  0
 45 46  2  0
 45115  1  0
 46116  1  0
 47117  1  0
 47118  1  0
 48 41  1  0
 48 56  1  0
 48 65  1  0
 48119  1  1
 49 50  1  0
 49 53  1  0
 49 64  1  0
 49120  1  1
 50 51  1  0
 50121  1  0
 50122  1  0
 51 52  1  0
 51123  1  0
 51124  1  0
 52125  1  0
 52126  1  0
 53 54  1  0
 54 55  2  0
 54127  1  0
 55 57  1  0
 55128  1  0
 56 69  2  0
 57 58  2  0
 57129  1  0
 58130  1  0
 59 60  1  0
 59 61  1  0
 59 62  1  0
 60131  1  0
 60132  1  0
 60133  1  0
 61134  1  0
 61135  1  0
 61136  1  0
 62137  1  0
 62138  1  0
 62139  1  0
 63 65  1  0
 63140  1  0
 63141  1  0
 63142  1  0
 64143  1  0
 65144  1  0
 68 80  1  0
 71 74  2  0
 71 75  1  0
 71145  1  0
 72 75  2  0
 72 76  1  0
 72146  1  0
 73 74  1  0
 73 76  2  0
 73 77  1  0
 74 79  1  0
 75 81  1  0
 76 85  1  0
 77 82  1  0
 77 83  2  0
 78 80  1  0
 78 81  1  0
 78 84  2  0
 79147  1  0
 79148  1  0
 79149  1  0
 80150  1  0
 80151  1  0
 81152  1  0
 82153  1  0
M  ISO  4   1 100  68 101  80 101  82 100
M  END
$$$$
26
     RDKit          3D

154162  0  0  0  0  0  0  0  0999 V2000
  -30.7652  -14.3608   20.6636 C   0  0  0  0  0  0  0  0  0100  0  0
  -30.4392  -12.2669   19.3775 C   0  0  0  0  0  0  0  0  0101  0  0
  -29.4791  -12.5281   18.1977 C   0  0  0  0  0  0  0  0  0102  0  0
  -27.9985  -12.3963   18.6038 C   0  0  0  0  0  0  0  0  0103  0  0
  -27.6639  -13.2170   19.8820 C   0  0  2  0  0  0  0  0  0104  0  0
  -28.6795  -12.9602   21.0279 C   0  0  0  0  0  0  0  0  0105  0  0
  -25.2633  -13.8245   20.5754 C   0  0  0  0  0  0  0  0  0106  0  0
  -24.1645  -13.0409   20.9408 C   0  0  0  0  0  0  0  0  0107  0  0
  -24.6400  -11.7009   20.8697 C   0  0  0  0  0  0  0  0  0108  0  0
  -23.9005  -10.4085   21.0420 C   0  0  0  0  0  0  0  0  0109  0  0
  -24.3588   -9.4123   21.9123 C   0  0  0  0  0  0  0  0  0110  0  0
  -23.6296   -8.2350   22.0803 C   0  0  0  0  0  0  0  0  0111  0  0
  -22.4385   -8.0419   21.3657 C   0  0  0  0  0  0  0  0  0112  0  0
  -22.0103   -9.0167   20.4678 C   0  0  0  0  0  0  0  0  0113  0  0
  -22.7317  -10.1925   20.3102 C   0  0  0  0  0  0  0  0  0114  0  0
  -21.6857   -6.0709   22.5391 C   0  0  0  0  0  0  0  0  0115  0  0
  -21.4064   -6.5490   23.8264 C   0  0  0  0  0  0  0  0  0116  0  0
  -21.3635   -5.6677   24.9085 C   0  0  0  0  0  0  0  0  0117  0  0
  -21.5973   -4.3067   24.7088 C   0  0  0  0  0  0  0  0  0118  0  0
  -21.8700   -3.8284   23.4282 C   0  0  0  0  0  0  0  0  0119  0  0
  -21.9144   -4.7056   22.3460 C   0  0  0  0  0  0  0  0  0120  0  0
  -22.8194  -13.5263   21.1763 C   0  0  0  0  0  0  0  0  0121  0  0
  -22.1559   -4.2206   21.1063 F   0  0  0  0  0  0  0  0  0122  0  0
  -21.5628   -3.4510   25.7555 F   0  0  0  0  0  0  0  0  0123  0  0
  -30.0261  -13.1803   20.4553 N   0  0  0  0  0  0  0  0  0124  0  0
  -26.2911  -12.9356   20.3443 N   0  0  0  0  0  0  0  0  0125  0  0
  -25.9236  -11.6675   20.5847 N   0  0  0  0  0  0  0  0  0126  0  0
  -22.0708  -12.7905   22.0005 N   0  0  0  0  0  0  0  0  0127  0  0
  -25.4117  -15.1773   20.4097 N   0  0  0  0  0  0  0  0  0128  0  0
  -31.7916  -14.6724   20.0536 O   0  0  0  0  0  0  0  0  0129  0  0
  -21.6670   -6.9022   21.4423 O   0  0  0  0  0  0  0  0  0130  0  0
  -22.3946  -14.5564   20.6568 O   0  0  0  0  0  0  0  0  0131  0  0
  -24.6048  -31.8614   23.2223 C   0  0  0  0  0  0  0  0  0100  0  0
  -25.8822  -32.4841   23.8616 C   0  0  1  0  0  0  0  0  0101  0  0
  -27.2536  -27.5042   20.1156 C   0  0  0  0  0  0  0  0  0102  0  0
  -25.5726  -33.8762   24.2210 N   0  0  0  0  0  0  0  0  0103  0  0
  -23.4066  -30.4859   21.5461 C   0  0  2  0  0  0  0  0  0104  0  0
  -24.8467  -28.9636   20.1247 C   0  0  0  0  0  0  0  0  0105  0  0
  -22.7412  -29.4652   22.5052 C   0  0  0  0  0  0  0  0  0106  0  0
  -18.0167  -28.1302   22.8626 C   0  0  0  0  0  0  0  0  0107  0  0
  -24.1342  -36.7390   23.2568 C   0  0  0  0  0  0  0  0  0108  0  0
  -25.9141  -30.8882   21.3456 C   0  0  0  0  0  0  0  0  0109  0  0
  -25.9930  -29.5029   20.7208 C   0  0  0  0  0  0  0  0  0110  0  0
  -27.1758  -28.7612   20.7331 C   0  0  0  0  0  0  0  0  0111  0  0
  -26.1032  -26.9836   19.5230 C   0  0  0  0  0  0  0  0  0112  0  0
  -24.9097  -27.7011   19.5331 C   0  0  0  0  0  0  0  0  0113  0  0
  -23.5715  -29.7899   20.1582 C   0  0  0  0  0  0  0  0  0114  0  0
  -25.3990  -36.3212   24.0232 C   0  0  1  0  0  0  0  0  0115  0  0
  -20.5793  -28.3813   23.1004 C   0  0  2  0  0  0  0  0  0116  0  0
  -20.6548  -26.9392   22.5411 C   0  0  0  0  0  0  0  0  0117  0  0
  -19.5615  -26.6407   21.5143 C   0  0  0  0  0  0  0  0  0118  0  0
  -18.1797  -26.7818   22.1673 C   0  0  0  0  0  0  0  0  0119  0  0
  -19.1385  -28.8769   23.2988 C   0  0  0  0  0  0  0  0  0120  0  0
  -18.9183  -30.1286   23.8878 C   0  0  0  0  0  0  0  0  0121  0  0
  -17.6396  -30.6493   24.0352 C   0  0  0  0  0  0  0  0  0122  0  0
  -25.9153  -34.9582   23.4993 C   0  0  0  0  0  0  0  0  0123  0  0
  -16.5415  -29.9068   23.6254 C   0  0  0  0  0  0  0  0  0124  0  0
  -16.7331  -28.6521   23.0586 C   0  0  0  0  0  0  0  0  0125  0  0
  -26.4583  -31.6439   25.0683 C   0  0  0  0  0  0  0  0  0126  0  0
  -25.3807  -31.3179   26.1374 C   0  0  0  0  0  0  0  0  0127  0  0
  -27.0530  -30.3024   24.5680 C   0  0  0  0  0  0  0  0  0128  0  0
  -27.6014  -32.4281   25.7651 C   0  0  0  0  0  0  0  0  0129  0  0
  -27.5629  -37.2220   24.8621 C   0  0  0  0  0  0  0  0  0130  0  0
  -21.4133  -29.3375   22.3735 N   0  0  0  0  0  0  0  0  0131  0  0
  -26.4706  -37.3372   23.9061 N   0  0  0  0  0  0  0  0  0132  0  0
  -24.6674  -31.0544   22.1178 N   0  0  0  0  0  0  0  0  0133  0  0
  -23.4259  -28.8150   23.2971 O   0  0  0  0  0  0  0  0  0134  0  0
  -28.3948  -26.7345   20.0089 O   0  0  0  0  0  0  0  0  0135  0  0
  -26.5870  -34.9065   22.4671 O   0  0  0  0  0  0  0  0  0136  0  0
  -23.5365  -32.1254   23.7833 O   0  0  0  0  0  0  0  0  0137  0  0
  -26.7785  -23.9676   19.8409 C   0  0  0  0  0  0  0  0  0  0  0  0
  -25.7706  -26.1349   20.1932 C   0  0  0  0  0  0  0  0  0  0  0  0
  -25.7032  -23.5989   19.0327 C   0  0  0  0  0  0  0  0  0  0  0  0
  -26.8122  -25.2356   20.4213 C   0  0  0  0  0  0  0  0  0  0  0  0
  -24.6616  -24.4982   18.8046 C   0  0  0  0  0  0  0  0  0  0  0  0
  -24.6953  -25.7662   19.3849 C   0  0  0  0  0  0  0  0  0  0  0  0
  -25.6993  -22.2356   18.4282 C   0  0  0  0  0  0  0  0  0  0  0  0
  -28.6427  -24.6823   22.0155 C   0  0  0  0  0  0  0  0  0  0  0  0
  -27.8324  -23.6797   22.8083 C   0  0  0  0  0  0  0  0  0  0  0  0
  -26.3866  -21.1070   19.1712 C   0  0  0  0  0  0  0  0  0  1  0  0
  -23.5683  -24.1307   17.9864 N   0  0  0  0  0  0  0  0  0  0  0  0
  -27.9245  -25.6173   21.2574 N   0  0  0  0  0  0  0  0  0  0  0  0
  -25.1428  -22.0526   17.3479 O   0  0  0  0  0  0  0  0  0  0  0  0
  -29.8743  -24.6703   22.0953 O   0  0  0  0  0  0  0  0  0  0  0  0
  -23.6875  -26.6602   19.1757 O   0  0  0  0  0  0  0  0  0  0  0  0
  -31.4485  -12.4701   19.0860 H   0  0  0  0  0  0  0  0  0  0  0  0
  -30.3970  -11.2460   19.6950 H   0  0  0  0  0  0  0  0  0  0  0  0
  -29.6870  -11.8204   17.4226 H   0  0  0  0  0  0  0  0  0  0  0  0
  -29.6375  -13.5326   17.8649 H   0  0  0  0  0  0  0  0  0  0  0  0
  -27.7830  -11.3650   18.7904 H   0  0  0  0  0  0  0  0  0  0  0  0
  -27.4028  -12.7801   17.8021 H   0  0  0  0  0  0  0  0  0  0  0  0
  -27.7353  -14.2503   19.6136 H   0  0  0  0  0  0  0  0  0  0  0  0
  -28.5890  -11.9550   21.3832 H   0  0  0  0  0  0  0  0  0  0  0  0
  -28.5005  -13.6134   21.8562 H   0  0  0  0  0  0  0  0  0  0  0  0
  -25.2399   -9.5495   22.4318 H   0  0  0  0  0  0  0  0  0  0  0  0
  -23.9663   -7.5070   22.7297 H   0  0  0  0  0  0  0  0  0  0  0  0
  -21.1515   -8.8641   19.9162 H   0  0  0  0  0  0  0  0  0  0  0  0
  -22.4016  -10.9115   19.6476 H   0  0  0  0  0  0  0  0  0  0  0  0
  -21.2319   -7.5552   23.9750 H   0  0  0  0  0  0  0  0  0  0  0  0
  -21.1589   -6.0228   25.8556 H   0  0  0  0  0  0  0  0  0  0  0  0
  -22.0396   -2.8212   23.2809 H   0  0  0  0  0  0  0  0  0  0  0  0
  -22.4401  -11.9703   22.4008 H   0  0  0  0  0  0  0  0  0  0  0  0
  -21.1493  -13.0679   22.2082 H   0  0  0  0  0  0  0  0  0  0  0  0
  -24.6538  -15.7807   20.5848 H   0  0  0  0  0  0  0  0  0  0  0  0
  -26.2762  -15.5453   20.1156 H   0  0  0  0  0  0  0  0  0  0  0  0
  -26.6778  -32.4663   23.1464 H   0  0  0  0  0  0  0  0  0  0  0  0
  -25.0747  -34.0282   25.0566 H   0  0  0  0  0  0  0  0  0  0  0  0
  -22.7881  -31.3489   21.4131 H   0  0  0  0  0  0  0  0  0  0  0  0
  -23.3854  -35.9823   23.3648 H   0  0  0  0  0  0  0  0  0  0  0  0
  -24.3696  -36.8624   22.2204 H   0  0  0  0  0  0  0  0  0  0  0  0
  -23.7669  -37.6632   23.6516 H   0  0  0  0  0  0  0  0  0  0  0  0
  -25.9445  -31.6237   20.5691 H   0  0  0  0  0  0  0  0  0  0  0  0
  -26.7436  -31.0079   22.0108 H   0  0  0  0  0  0  0  0  0  0  0  0
  -28.0090  -29.1452   21.2057 H   0  0  0  0  0  0  0  0  0  0  0  0
  -26.1369  -26.0560   19.0719 H   0  0  0  0  0  0  0  0  0  0  0  0
  -24.0652  -27.2961   19.0997 H   0  0  0  0  0  0  0  0  0  0  0  0
  -23.6156  -30.5365   19.3930 H   0  0  0  0  0  0  0  0  0  0  0  0
  -22.7355  -29.1425   19.9945 H   0  0  0  0  0  0  0  0  0  0  0  0
  -25.1353  -36.2335   25.0565 H   0  0  0  0  0  0  0  0  0  0  0  0
  -21.0070  -28.3206   24.0793 H   0  0  0  0  0  0  0  0  0  0  0  0
  -20.5555  -26.2518   23.3550 H   0  0  0  0  0  0  0  0  0  0  0  0
  -21.5974  -26.8362   22.0454 H   0  0  0  0  0  0  0  0  0  0  0  0
  -19.6810  -25.6422   21.1488 H   0  0  0  0  0  0  0  0  0  0  0  0
  -19.6406  -27.3343   20.7034 H   0  0  0  0  0  0  0  0  0  0  0  0
  -17.4282  -26.6888   21.4113 H   0  0  0  0  0  0  0  0  0  0  0  0
  -18.0803  -26.0130   22.9049 H   0  0  0  0  0  0  0  0  0  0  0  0
  -19.7265  -30.6774   24.2204 H   0  0  0  0  0  0  0  0  0  0  0  0
  -17.5064  -31.5856   24.4483 H   0  0  0  0  0  0  0  0  0  0  0  0
  -15.5878  -30.2839   23.7407 H   0  0  0  0  0  0  0  0  0  0  0  0
  -15.9120  -28.0941   22.7766 H   0  0  0  0  0  0  0  0  0  0  0  0
  -24.5787  -30.7757   25.6817 H   0  0  0  0  0  0  0  0  0  0  0  0
  -25.0041  -32.2289   26.5536 H   0  0  0  0  0  0  0  0  0  0  0  0
  -25.8166  -30.7245   26.9138 H   0  0  0  0  0  0  0  0  0  0  0  0
  -26.2892  -29.7335   24.0803 H   0  0  0  0  0  0  0  0  0  0  0  0
  -27.4336  -29.7484   25.4006 H   0  0  0  0  0  0  0  0  0  0  0  0
  -27.8466  -30.4994   23.8779 H   0  0  0  0  0  0  0  0  0  0  0  0
  -27.2251  -33.3632   26.1242 H   0  0  0  0  0  0  0  0  0  0  0  0
  -28.3902  -32.6065   25.0645 H   0  0  0  0  0  0  0  0  0  0  0  0
  -27.9772  -31.8555   26.5872 H   0  0  0  0  0  0  0  0  0  0  0  0
  -28.2744  -38.0016   24.6863 H   0  0  0  0  0  0  0  0  0  0  0  0
  -28.0396  -36.2711   24.7461 H   0  0  0  0  0  0  0  0  0  0  0  0
  -27.1773  -37.3087   25.8564 H   0  0  0  0  0  0  0  0  0  0  0  0
  -20.9627  -29.9365   21.7352 H   0  0  0  0  0  0  0  0  0  0  0  0
  -26.0447  -38.2561   24.0273 H   0  0  0  0  0  0  0  0  0  0  0  0
  -27.5492  -23.3023   20.0095 H   0  0  0  0  0  0  0  0  0  0  0  0
  -25.7956  -27.0730   20.6225 H   0  0  0  0  0  0  0  0  0  0  0  0
  -26.7905  -23.8344   22.6199 H   0  0  0  0  0  0  0  0  0  0  0  0
  -28.0290  -23.8080   23.8522 H   0  0  0  0  0  0  0  0  0  0  0  0
  -28.1048  -22.6879   22.5133 H   0  0  0  0  0  0  0  0  0  0  0  0
  -26.9866  -20.4044   18.6315 H   0  0  0  0  0  0  0  0  0  0  0  0
  -26.0508  -20.3285   19.8239 H   0  0  0  0  0  0  0  0  0  0  0  0
  -23.5402  -23.2369   17.5747 H   0  0  0  0  0  0  0  0  0  0  0  0
  -22.8353  -24.7687   17.8285 H   0  0  0  0  0  0  0  0  0  0  0  0
  -23.7239  -27.5084   19.5722 H   0  0  0  0  0  0  0  0  0  0  0  0
  1 25  1  0
  1 30  2  0
  1 82  1  0
  2  3  1  0
  2 25  1  0
  2 86  1  0
  2 87  1  0
  3  4  1  0
  3 88  1  0
  3 89  1  0
  4  5  1  0
  4 90  1  0
  4 91  1  0
  5  6  1  0
  5 26  1  0
  5 92  1  6
  6 25  1  0
  6 93  1  0
  6 94  1  0
  7  8  2  0
  7 26  1  0
  7 29  1  0
  8  9  1  0
  8 22  1  0
  9 10  1  0
  9 27  2  0
 10 11  2  0
 10 15  1  0
 11 12  1  0
 11 95  1  0
 12 13  2  0
 12 96  1  0
 13 14  1  0
 13 31  1  0
 14 15  2  0
 14 97  1  0
 15 98  1  0
 16 17  2  0
 16 21  1  0
 16 31  1  0
 17 18  1  0
 17 99  1  0
 18 19  2  0
 18100  1  0
 19 20  1  0
 19 24  1  0
 20 21  2  0
 20101  1  0
 21 23  1  0
 22 28  1  0
 22 32  2  0
 26 27  1  0
 28102  1  0
 28103  1  0
 29104  1  0
 29105  1  0
 33 34  1  0
 33 66  1  0
 33 70  2  0
 34 36  1  0
 34 59  1  0
 34106  1  6
 35 44  2  0
 35 45  1  0
 35 68  1  0
 36 56  1  0
 36107  1  0
 37 39  1  0
 37 47  1  0
 37 66  1  0
 37108  1  6
 38 43  2  0
 38 46  1  0
 38 47  1  0
 39 64  1  0
 39 67  2  0
 40 52  1  0
 40 53  2  0
 40 58  1  0
 41109  1  0
 41110  1  0
 41111  1  0
 42 43  1  0
 42 66  1  0
 42112  1  0
 42113  1  0
 43 44  1  0
 44114  1  0
 45 46  2  0
 45115  1  0
 46116  1  0
 47117  1  0
 47118  1  0
 48 41  1  0
 48 56  1  0
 48 65  1  0
 48119  1  1
 49 50  1  0
 49 53  1  0
 49 64  1  0
 49120  1  1
 50 51  1  0
 50121  1  0
 50122  1  0
 51 52  1  0
 51123  1  0
 51124  1  0
 52125  1  0
 52126  1  0
 53 54  1  0
 54 55  2  0
 54127  1  0
 55 57  1  0
 55128  1  0
 56 69  2  0
 57 58  2  0
 57129  1  0
 58130  1  0
 59 60  1  0
 59 61  1  0
 59 62  1  0
 60131  1  0
 60132  1  0
 60133  1  0
 61134  1  0
 61135  1  0
 61136  1  0
 62137  1  0
 62138  1  0
 62139  1  0
 63 65  1  0
 63140  1  0
 63141  1  0
 63142  1  0
 64143  1  0
 65144  1  0
 68 80  1  0
 71 73  2  0
 71 74  1  0
 71145  1  0
 72 74  2  0
 72 76  1  0
 72146  1  0
 73 75  1  0
 73 77  1  0
 74 82  1  0
 75 76  2  0
 75 81  1  0
 76 85  1  0
 77 80  1  0
 77 83  2  0
 78 79  1  0
 78 82  1  0
 78 84  2  0
 79147  1  0
 79148  1  0
 79149  1  0
 80150  1  0
 80151  1  0
 81152  1  0
 81153  1  0
 85154  1  0
M  ISO  4   1 100  68 101  80 101  82 100
M  END
$$$$
27
     RDKit          3D

151159  0  0  0  0  0  0  0  0999 V2000
  -30.7652  -14.3608   20.6636 C   0  0  0  0  0  0  0  0  0100  0  0
  -30.4392  -12.2669   19.3775 C   0  0  0  0  0  0  0  0  0101  0  0
  -29.4791  -12.5281   18.1977 C   0  0  0  0  0  0  0  0  0102  0  0
  -27.9985  -12.3963   18.6038 C   0  0  0  0  0  0  0  0  0103  0  0
  -27.6639  -13.2170   19.8820 C   0  0  2  0  0  0  0  0  0104  0  0
  -28.6795  -12.9602   21.0279 C   0  0  0  0  0  0  0  0  0105  0  0
  -25.2633  -13.8245   20.5754 C   0  0  0  0  0  0  0  0  0106  0  0
  -24.1645  -13.0409   20.9408 C   0  0  0  0  0  0  0  0  0107  0  0
  -24.6400  -11.7009   20.8697 C   0  0  0  0  0  0  0  0  0108  0  0
  -23.9005  -10.4085   21.0420 C   0  0  0  0  0  0  0  0  0109  0  0
  -24.3588   -9.4123   21.9123 C   0  0  0  0  0  0  0  0  0110  0  0
  -23.6296   -8.2350   22.0803 C   0  0  0  0  0  0  0  0  0111  0  0
  -22.4385   -8.0419   21.3657 C   0  0  0  0  0  0  0  0  0112  0  0
  -22.0103   -9.0167   20.4678 C   0  0  0  0  0  0  0  0  0113  0  0
  -22.7317  -10.1925   20.3102 C   0  0  0  0  0  0  0  0  0114  0  0
  -21.6857   -6.0709   22.5391 C   0  0  0  0  0  0  0  0  0115  0  0
  -21.4064   -6.5490   23.8264 C   0  0  0  0  0  0  0  0  0116  0  0
  -21.3635   -5.6677   24.9085 C   0  0  0  0  0  0  0  0  0117  0  0
  -21.5973   -4.3067   24.7088 C   0  0  0  0  0  0  0  0  0118  0  0
  -21.8700   -3.8284   23.4282 C   0  0  0  0  0  0  0  0  0119  0  0
  -21.9144   -4.7056   22.3460 C   0  0  0  0  0  0  0  0  0120  0  0
  -22.8194  -13.5263   21.1763 C   0  0  0  0  0  0  0  0  0121  0  0
  -22.1559   -4.2206   21.1063 F   0  0  0  0  0  0  0  0  0122  0  0
  -21.5628   -3.4510   25.7555 F   0  0  0  0  0  0  0  0  0123  0  0
  -30.0261  -13.1803   20.4553 N   0  0  0  0  0  0  0  0  0124  0  0
  -26.2911  -12.9356   20.3443 N   0  0  0  0  0  0  0  0  0125  0  0
  -25.9236  -11.6675   20.5847 N   0  0  0  0  0  0  0  0  0126  0  0
  -22.0708  -12.7905   22.0005 N   0  0  0  0  0  0  0  0  0127  0  0
  -25.4117  -15.1773   20.4097 N   0  0  0  0  0  0  0  0  0128  0  0
  -31.7916  -14.6724   20.0536 O   0  0  0  0  0  0  0  0  0129  0  0
  -21.6670   -6.9022   21.4423 O   0  0  0  0  0  0  0  0  0130  0  0
  -22.3946  -14.5564   20.6568 O   0  0  0  0  0  0  0  0  0131  0  0
  -24.6048  -31.8614   23.2223 C   0  0  0  0  0  0  0  0  0100  0  0
  -25.8822  -32.4841   23.8616 C   0  0  1  0  0  0  0  0  0101  0  0
  -27.2536  -27.5042   20.1156 C   0  0  0  0  0  0  0  0  0102  0  0
  -25.5726  -33.8762   24.2210 N   0  0  0  0  0  0  0  0  0103  0  0
  -23.4066  -30.4859   21.5461 C   0  0  2  0  0  0  0  0  0104  0  0
  -24.8467  -28.9636   20.1247 C   0  0  0  0  0  0  0  0  0105  0  0
  -22.7412  -29.4652   22.5052 C   0  0  0  0  0  0  0  0  0106  0  0
  -18.0167  -28.1302   22.8626 C   0  0  0  0  0  0  0  0  0107  0  0
  -24.1342  -36.7390   23.2568 C   0  0  0  0  0  0  0  0  0108  0  0
  -25.9141  -30.8882   21.3456 C   0  0  0  0  0  0  0  0  0109  0  0
  -25.9930  -29.5029   20.7208 C   0  0  0  0  0  0  0  0  0110  0  0
  -27.1758  -28.7612   20.7331 C   0  0  0  0  0  0  0  0  0111  0  0
  -26.1032  -26.9836   19.5230 C   0  0  0  0  0  0  0  0  0112  0  0
  -24.9097  -27.7011   19.5331 C   0  0  0  0  0  0  0  0  0113  0  0
  -23.5715  -29.7899   20.1582 C   0  0  0  0  0  0  0  0  0114  0  0
  -25.3990  -36.3212   24.0232 C   0  0  1  0  0  0  0  0  0115  0  0
  -20.5793  -28.3813   23.1004 C   0  0  2  0  0  0  0  0  0116  0  0
  -20.6548  -26.9392   22.5411 C   0  0  0  0  0  0  0  0  0117  0  0
  -19.5615  -26.6407   21.5143 C   0  0  0  0  0  0  0  0  0118  0  0
  -18.1797  -26.7818   22.1673 C   0  0  0  0  0  0  0  0  0119  0  0
  -19.1385  -28.8769   23.2988 C   0  0  0  0  0  0  0  0  0120  0  0
  -18.9183  -30.1286   23.8878 C   0  0  0  0  0  0  0  0  0121  0  0
  -17.6396  -30.6493   24.0352 C   0  0  0  0  0  0  0  0  0122  0  0
  -25.9153  -34.9582   23.4993 C   0  0  0  0  0  0  0  0  0123  0  0
  -16.5415  -29.9068   23.6254 C   0  0  0  0  0  0  0  0  0124  0  0
  -16.7331  -28.6521   23.0586 C   0  0  0  0  0  0  0  0  0125  0  0
  -26.4583  -31.6439   25.0683 C   0  0  0  0  0  0  0  0  0126  0  0
  -25.3807  -31.3179   26.1374 C   0  0  0  0  0  0  0  0  0127  0  0
  -27.0530  -30.3024   24.5680 C   0  0  0  0  0  0  0  0  0128  0  0
  -27.6014  -32.4281   25.7651 C   0  0  0  0  0  0  0  0  0129  0  0
  -27.5629  -37.2220   24.8621 C   0  0  0  0  0  0  0  0  0130  0  0
  -21.4133  -29.3375   22.3735 N   0  0  0  0  0  0  0  0  0131  0  0
  -26.4706  -37.3372   23.9061 N   0  0  0  0  0  0  0  0  0132  0  0
  -24.6674  -31.0544   22.1178 N   0  0  0  0  0  0  0  0  0133  0  0
  -23.4259  -28.8150   23.2971 O   0  0  0  0  0  0  0  0  0134  0  0
  -28.3948  -26.7345   20.0089 O   0  0  0  0  0  0  0  0  0135  0  0
  -26.5870  -34.9065   22.4671 O   0  0  0  0  0  0  0  0  0136  0  0
  -23.5365  -32.1254   23.7833 O   0  0  0  0  0  0  0  0  0137  0  0
  -30.6184  -21.2318   19.4987 C   0  0  0  0  0  0  0  0  0  0  0  0
  -30.4590  -19.8556   19.6605 C   0  0  0  0  0  0  0  0  0  0  0  0
  -28.2515  -21.4556   19.0692 C   0  0  0  0  0  0  0  0  0  0  0  0
  -29.5147  -22.0318   19.2031 C   0  0  0  0  0  0  0  0  0  0  0  0
  -29.1958  -19.2794   19.5266 C   0  0  0  0  0  0  0  0  0  0  0  0
  -28.0920  -20.0794   19.2310 C   0  0  0  0  0  0  0  0  0  0  0  0
  -29.6847  -23.4976   19.0306 C   0  0  0  0  0  0  0  0  0  0  0  0
  -28.8052  -25.5368   17.9241 C   0  0  0  0  0  0  0  0  0  0  0  0
  -28.0028  -26.3422   18.9303 C   0  0  0  0  0  0  0  0  0  1  0  0
  -29.0373  -17.8809   19.6910 N   0  0  0  0  0  0  0  0  0  0  0  0
  -28.7585  -24.1270   18.2083 N   0  0  0  0  0  0  0  0  0  0  0  0
  -30.6205  -24.0630   19.5901 O   0  0  0  0  0  0  0  0  0  0  0  0
  -26.8730  -19.5365   19.0994 F   0  0  0  0  0  0  0  0  0  0  0  0
  -31.4485  -12.4701   19.0860 H   0  0  0  0  0  0  0  0  0  0  0  0
  -30.3970  -11.2460   19.6950 H   0  0  0  0  0  0  0  0  0  0  0  0
  -29.6870  -11.8204   17.4226 H   0  0  0  0  0  0  0  0  0  0  0  0
  -29.6375  -13.5326   17.8649 H   0  0  0  0  0  0  0  0  0  0  0  0
  -27.7830  -11.3650   18.7904 H   0  0  0  0  0  0  0  0  0  0  0  0
  -27.4028  -12.7801   17.8021 H   0  0  0  0  0  0  0  0  0  0  0  0
  -27.7353  -14.2503   19.6136 H   0  0  0  0  0  0  0  0  0  0  0  0
  -28.5890  -11.9550   21.3832 H   0  0  0  0  0  0  0  0  0  0  0  0
  -28.5005  -13.6134   21.8562 H   0  0  0  0  0  0  0  0  0  0  0  0
  -25.2399   -9.5495   22.4318 H   0  0  0  0  0  0  0  0  0  0  0  0
  -23.9663   -7.5070   22.7297 H   0  0  0  0  0  0  0  0  0  0  0  0
  -21.1515   -8.8641   19.9162 H   0  0  0  0  0  0  0  0  0  0  0  0
  -22.4016  -10.9115   19.6476 H   0  0  0  0  0  0  0  0  0  0  0  0
  -21.2319   -7.5552   23.9750 H   0  0  0  0  0  0  0  0  0  0  0  0
  -21.1589   -6.0228   25.8556 H   0  0  0  0  0  0  0  0  0  0  0  0
  -22.0396   -2.8212   23.2809 H   0  0  0  0  0  0  0  0  0  0  0  0
  -22.4401  -11.9703   22.4008 H   0  0  0  0  0  0  0  0  0  0  0  0
  -21.1493  -13.0679   22.2082 H   0  0  0  0  0  0  0  0  0  0  0  0
  -24.6538  -15.7807   20.5848 H   0  0  0  0  0  0  0  0  0  0  0  0
  -26.2762  -15.5453   20.1156 H   0  0  0  0  0  0  0  0  0  0  0  0
  -26.6778  -32.4663   23.1464 H   0  0  0  0  0  0  0  0  0  0  0  0
  -25.0747  -34.0282   25.0566 H   0  0  0  0  0  0  0  0  0  0  0  0
  -22.7881  -31.3489   21.4131 H   0  0  0  0  0  0  0  0  0  0  0  0
  -23.3854  -35.9823   23.3648 H   0  0  0  0  0  0  0  0  0  0  0  0
  -24.3696  -36.8624   22.2204 H   0  0  0  0  0  0  0  0  0  0  0  0
  -23.7669  -37.6632   23.6516 H   0  0  0  0  0  0  0  0  0  0  0  0
  -25.9445  -31.6237   20.5691 H   0  0  0  0  0  0  0  0  0  0  0  0
  -26.7436  -31.0079   22.0108 H   0  0  0  0  0  0  0  0  0  0  0  0
  -28.0090  -29.1452   21.2057 H   0  0  0  0  0  0  0  0  0  0  0  0
  -26.1369  -26.0560   19.0719 H   0  0  0  0  0  0  0  0  0  0  0  0
  -24.0652  -27.2961   19.0997 H   0  0  0  0  0  0  0  0  0  0  0  0
  -23.6156  -30.5365   19.3930 H   0  0  0  0  0  0  0  0  0  0  0  0
  -22.7355  -29.1425   19.9945 H   0  0  0  0  0  0  0  0  0  0  0  0
  -25.1353  -36.2335   25.0565 H   0  0  0  0  0  0  0  0  0  0  0  0
  -21.0070  -28.3206   24.0793 H   0  0  0  0  0  0  0  0  0  0  0  0
  -20.5555  -26.2518   23.3550 H   0  0  0  0  0  0  0  0  0  0  0  0
  -21.5974  -26.8362   22.0454 H   0  0  0  0  0  0  0  0  0  0  0  0
  -19.6810  -25.6422   21.1488 H   0  0  0  0  0  0  0  0  0  0  0  0
  -19.6406  -27.3343   20.7034 H   0  0  0  0  0  0  0  0  0  0  0  0
  -17.4282  -26.6888   21.4113 H   0  0  0  0  0  0  0  0  0  0  0  0
  -18.0803  -26.0130   22.9049 H   0  0  0  0  0  0  0  0  0  0  0  0
  -19.7265  -30.6774   24.2204 H   0  0  0  0  0  0  0  0  0  0  0  0
  -17.5064  -31.5856   24.4483 H   0  0  0  0  0  0  0  0  0  0  0  0
  -15.5878  -30.2839   23.7407 H   0  0  0  0  0  0  0  0  0  0  0  0
  -15.9120  -28.0941   22.7766 H   0  0  0  0  0  0  0  0  0  0  0  0
  -24.5787  -30.7757   25.6817 H   0  0  0  0  0  0  0  0  0  0  0  0
  -25.0041  -32.2289   26.5536 H   0  0  0  0  0  0  0  0  0  0  0  0
  -25.8166  -30.7245   26.9138 H   0  0  0  0  0  0  0  0  0  0  0  0
  -26.2892  -29.7335   24.0803 H   0  0  0  0  0  0  0  0  0  0  0  0
  -27.4336  -29.7484   25.4006 H   0  0  0  0  0  0  0  0  0  0  0  0
  -27.8466  -30.4994   23.8779 H   0  0  0  0  0  0  0  0  0  0  0  0
  -27.2251  -33.3632   26.1242 H   0  0  0  0  0  0  0  0  0  0  0  0
  -28.3902  -32.6065   25.0645 H   0  0  0  0  0  0  0  0  0  0  0  0
  -27.9772  -31.8555   26.5872 H   0  0  0  0  0  0  0  0  0  0  0  0
  -28.2744  -38.0016   24.6863 H   0  0  0  0  0  0  0  0  0  0  0  0
  -28.0396  -36.2711   24.7461 H   0  0  0  0  0  0  0  0  0  0  0  0
  -27.1773  -37.3087   25.8564 H   0  0  0  0  0  0  0  0  0  0  0  0
  -20.9627  -29.9365   21.7352 H   0  0  0  0  0  0  0  0  0  0  0  0
  -26.0447  -38.2561   24.0273 H   0  0  0  0  0  0  0  0  0  0  0  0
  -31.5530  -21.6581   19.5977 H   0  0  0  0  0  0  0  0  0  0  0  0
  -31.2756  -19.2637   19.8793 H   0  0  0  0  0  0  0  0  0  0  0  0
  -27.4349  -22.0475   18.8504 H   0  0  0  0  0  0  0  0  0  0  0  0
  -29.8240  -25.8624   17.9535 H   0  0  0  0  0  0  0  0  0  0  0  0
  -28.3785  -25.6950   16.9557 H   0  0  0  0  0  0  0  0  0  0  0  0
  -27.1430  -25.7430   19.1463 H   0  0  0  0  0  0  0  0  0  0  0  0
  -27.9442  -27.2750   18.4093 H   0  0  0  0  0  0  0  0  0  0  0  0
  -28.0983  -17.6796   19.4740 H   0  0  0  0  0  0  0  0  0  0  0  0
  -28.0416  -23.5869   17.8039 H   0  0  0  0  0  0  0  0  0  0  0  0
  1 25  1  0
  1 30  2  0
  1 80  1  0
  2  3  1  0
  2 25  1  0
  2 84  1  0
  2 85  1  0
  3  4  1  0
  3 86  1  0
  3 87  1  0
  4  5  1  0
  4 88  1  0
  4 89  1  0
  5  6  1  0
  5 26  1  0
  5 90  1  6
  6 25  1  0
  6 91  1  0
  6 92  1  0
  7  8  2  0
  7 26  1  0
  7 29  1  0
  8  9  1  0
  8 22  1  0
  9 10  1  0
  9 27  2  0
 10 11  2  0
 10 15  1  0
 11 12  1  0
 11 93  1  0
 12 13  2  0
 12 94  1  0
 13 14  1  0
 13 31  1  0
 14 15  2  0
 14 95  1  0
 15 96  1  0
 16 17  2  0
 16 21  1  0
 16 31  1  0
 17 18  1  0
 17 97  1  0
 18 19  2  0
 18 98  1  0
 19 20  1  0
 19 24  1  0
 20 21  2  0
 20 99  1  0
 21 23  1  0
 22 28  1  0
 22 32  2  0
 26 27  1  0
 28100  1  0
 28101  1  0
 29102  1  0
 29103  1  0
 33 34  1  0
 33 66  1  0
 33 70  2  0
 34 36  1  0
 34 59  1  0
 34104  1  6
 35 44  2  0
 35 45  1  0
 35 68  1  0
 36 56  1  0
 36105  1  0
 37 39  1  0
 37 47  1  0
 37 66  1  0
 37106  1  6
 38 43  2  0
 38 46  1  0
 38 47  1  0
 39 64  1  0
 39 67  2  0
 40 52  1  0
 40 53  2  0
 40 58  1  0
 41107  1  0
 41108  1  0
 41109  1  0
 42 43  1  0
 42 66  1  0
 42110  1  0
 42111  1  0
 43 44  1  0
 44112  1  0
 45 46  2  0
 45113  1  0
 46114  1  0
 47115  1  0
 47116  1  0
 48 41  1  0
 48 56  1  0
 48 65  1  0
 48117  1  1
 49 50  1  0
 49 53  1  0
 49 64  1  0
 49118  1  1
 50 51  1  0
 50119  1  0
 50120  1  0
 51 52  1  0
 51121  1  0
 51122  1  0
 52123  1  0
 52124  1  0
 53 54  1  0
 54 55  2  0
 54125  1  0
 55 57  1  0
 55126  1  0
 56 69  2  0
 57 58  2  0
 57127  1  0
 58128  1  0
 59 60  1  0
 59 61  1  0
 59 62  1  0
 60129  1  0
 60130  1  0
 60131  1  0
 61132  1  0
 61133  1  0
 61134  1  0
 62135  1  0
 62136  1  0
 62137  1  0
 63 65  1  0
 63138  1  0
 63139  1  0
 63140  1  0
 64141  1  0
 65142  1  0
 68 79  1  0
 71 72  2  0
 71 74  1  0
 71143  1  0
 72 75  1  0
 72144  1  0
 73 74  2  0
 73 76  1  0
 73145  1  0
 74 77  1  0
 75 76  2  0
 75 80  1  0
 76 83  1  0
 77 81  1  0
 77 82  2  0
 78 79  1  0
 78 81  1  0
 78146  1  0
 78147  1  0
 79148  1  0
 79149  1  0
 80150  1  0
 81151  1  0
M  ISO  4   1 100  68 101  79 101  80 100
M  END
$$$$
28
     RDKit          3D

161170  0  0  0  0  0  0  0  0999 V2000
  -30.7652  -14.3608   20.6636 C   0  0  0  0  0  0  0  0  0100  0  0
  -30.4392  -12.2669   19.3775 C   0  0  0  0  0  0  0  0  0101  0  0
  -29.4791  -12.5281   18.1977 C   0  0  0  0  0  0  0  0  0102  0  0
  -27.9985  -12.3963   18.6038 C   0  0  0  0  0  0  0  0  0103  0  0
  -27.6639  -13.2170   19.8820 C   0  0  2  0  0  0  0  0  0104  0  0
  -28.6795  -12.9602   21.0279 C   0  0  0  0  0  0  0  0  0105  0  0
  -25.2633  -13.8245   20.5754 C   0  0  0  0  0  0  0  0  0106  0  0
  -24.1645  -13.0409   20.9408 C   0  0  0  0  0  0  0  0  0107  0  0
  -24.6400  -11.7009   20.8697 C   0  0  0  0  0  0  0  0  0108  0  0
  -23.9005  -10.4085   21.0420 C   0  0  0  0  0  0  0  0  0109  0  0
  -24.3588   -9.4123   21.9123 C   0  0  0  0  0  0  0  0  0110  0  0
  -23.6296   -8.2350   22.0803 C   0  0  0  0  0  0  0  0  0111  0  0
  -22.4385   -8.0419   21.3657 C   0  0  0  0  0  0  0  0  0112  0  0
  -22.0103   -9.0167   20.4678 C   0  0  0  0  0  0  0  0  0113  0  0
  -22.7317  -10.1925   20.3102 C   0  0  0  0  0  0  0  0  0114  0  0
  -21.6857   -6.0709   22.5391 C   0  0  0  0  0  0  0  0  0115  0  0
  -21.4064   -6.5490   23.8264 C   0  0  0  0  0  0  0  0  0116  0  0
  -21.3635   -5.6677   24.9085 C   0  0  0  0  0  0  0  0  0117  0  0
  -21.5973   -4.3067   24.7088 C   0  0  0  0  0  0  0  0  0118  0  0
  -21.8700   -3.8284   23.4282 C   0  0  0  0  0  0  0  0  0119  0  0
  -21.9144   -4.7056   22.3460 C   0  0  0  0  0  0  0  0  0120  0  0
  -22.8194  -13.5263   21.1763 C   0  0  0  0  0  0  0  0  0121  0  0
  -22.1559   -4.2206   21.1063 F   0  0  0  0  0  0  0  0  0122  0  0
  -21.5628   -3.4510   25.7555 F   0  0  0  0  0  0  0  0  0123  0  0
  -30.0261  -13.1803   20.4553 N   0  0  0  0  0  0  0  0  0124  0  0
  -26.2911  -12.9356   20.3443 N   0  0  0  0  0  0  0  0  0125  0  0
  -25.9236  -11.6675   20.5847 N   0  0  0  0  0  0  0  0  0126  0  0
  -22.0708  -12.7905   22.0005 N   0  0  0  0  0  0  0  0  0127  0  0
  -25.4117  -15.1773   20.4097 N   0  0  0  0  0  0  0  0  0128  0  0
  -31.7916  -14.6724   20.0536 O   0  0  0  0  0  0  0  0  0129  0  0
  -21.6670   -6.9022   21.4423 O   0  0  0  0  0  0  0  0  0130  0  0
  -22.3946  -14.5564   20.6568 O   0  0  0  0  0  0  0  0  0131  0  0
  -24.6048  -31.8614   23.2223 C   0  0  0  0  0  0  0  0  0100  0  0
  -25.8822  -32.4841   23.8616 C   0  0  1  0  0  0  0  0  0101  0  0
  -27.2536  -27.5042   20.1156 C   0  0  0  0  0  0  0  0  0102  0  0
  -25.5726  -33.8762   24.2210 N   0  0  0  0  0  0  0  0  0103  0  0
  -23.4066  -30.4859   21.5461 C   0  0  2  0  0  0  0  0  0104  0  0
  -24.8467  -28.9636   20.1247 C   0  0  0  0  0  0  0  0  0105  0  0
  -22.7412  -29.4652   22.5052 C   0  0  0  0  0  0  0  0  0106  0  0
  -18.0167  -28.1302   22.8626 C   0  0  0  0  0  0  0  0  0107  0  0
  -24.1342  -36.7390   23.2568 C   0  0  0  0  0  0  0  0  0108  0  0
  -25.9141  -30.8882   21.3456 C   0  0  0  0  0  0  0  0  0109  0  0
  -25.9930  -29.5029   20.7208 C   0  0  0  0  0  0  0  0  0110  0  0
  -27.1758  -28.7612   20.7331 C   0  0  0  0  0  0  0  0  0111  0  0
  -26.1032  -26.9836   19.5230 C   0  0  0  0  0  0  0  0  0112  0  0
  -24.9097  -27.7011   19.5331 C   0  0  0  0  0  0  0  0  0113  0  0
  -23.5715  -29.7899   20.1582 C   0  0  0  0  0  0  0  0  0114  0  0
  -25.3990  -36.3212   24.0232 C   0  0  1  0  0  0  0  0  0115  0  0
  -20.5793  -28.3813   23.1004 C   0  0  2  0  0  0  0  0  0116  0  0
  -20.6548  -26.9392   22.5411 C   0  0  0  0  0  0  0  0  0117  0  0
  -19.5615  -26.6407   21.5143 C   0  0  0  0  0  0  0  0  0118  0  0
  -18.1797  -26.7818   22.1673 C   0  0  0  0  0  0  0  0  0119  0  0
  -19.1385  -28.8769   23.2988 C   0  0  0  0  0  0  0  0  0120  0  0
  -18.9183  -30.1286   23.8878 C   0  0  0  0  0  0  0  0  0121  0  0
  -17.6396  -30.6493   24.0352 C   0  0  0  0  0  0  0  0  0122  0  0
  -25.9153  -34.9582   23.4993 C   0  0  0  0  0  0  0  0  0123  0  0
  -16.5415  -29.9068   23.6254 C   0  0  0  0  0  0  0  0  0124  0  0
  -16.7331  -28.6521   23.0586 C   0  0  0  0  0  0  0  0  0125  0  0
  -26.4583  -31.6439   25.0683 C   0  0  0  0  0  0  0  0  0126  0  0
  -25.3807  -31.3179   26.1374 C   0  0  0  0  0  0  0  0  0127  0  0
  -27.0530  -30.3024   24.5680 C   0  0  0  0  0  0  0  0  0128  0  0
  -27.6014  -32.4281   25.7651 C   0  0  0  0  0  0  0  0  0129  0  0
  -27.5629  -37.2220   24.8621 C   0  0  0  0  0  0  0  0  0130  0  0
  -21.4133  -29.3375   22.3735 N   0  0  0  0  0  0  0  0  0131  0  0
  -26.4706  -37.3372   23.9061 N   0  0  0  0  0  0  0  0  0132  0  0
  -24.6674  -31.0544   22.1178 N   0  0  0  0  0  0  0  0  0133  0  0
  -23.4259  -28.8150   23.2971 O   0  0  0  0  0  0  0  0  0134  0  0
  -28.3948  -26.7345   20.0089 O   0  0  0  0  0  0  0  0  0135  0  0
  -26.5870  -34.9065   22.4671 O   0  0  0  0  0  0  0  0  0136  0  0
  -23.5365  -32.1254   23.7833 O   0  0  0  0  0  0  0  0  0137  0  0
  -21.1011  -23.7542   23.4650 C   0  0  0  0  0  0  0  0  0  0  0  0
  -22.1924  -23.1113   24.0493 C   0  0  0  0  0  0  0  0  0  0  0  0
  -21.9842  -23.2597   21.2713 C   0  0  0  0  0  0  0  0  0  0  0  0
  -20.9969  -23.8283   22.0760 C   0  0  0  0  0  0  0  0  0  0  0  0
  -23.1796  -22.5427   23.2445 C   0  0  0  0  0  0  0  0  0  0  0  0
  -23.0755  -22.6168   21.8555 C   0  0  0  0  0  0  0  0  0  0  0  0
  -18.6167  -26.3629   22.5524 C   0  0  0  0  0  0  0  0  0  0  0  0
  -18.5551  -27.8438   22.8717 C   0  0  0  0  0  0  0  0  0  0  0  0
  -19.9069  -28.5159   23.0103 C   0  0  0  0  0  0  0  0  0  0  0  0
  -20.9558  -26.7078   21.6815 C   0  0  0  0  0  0  0  0  0  0  0  0
  -20.7474  -28.2160   21.7765 C   0  0  2  0  0  0  0  0  0  0  0  0
  -19.8229  -24.5213   21.4469 C   0  0  0  0  0  0  0  0  0  0  0  0
  -22.0869  -28.9464   21.8319 C   0  0  0  0  0  0  0  0  0  1  0  0
  -19.7347  -25.9186   21.8496 N   0  0  0  0  0  0  0  0  0  0  0  0
  -24.2874  -21.8906   23.8407 N   0  0  0  0  0  0  0  0  0  0  0  0
  -17.6571  -25.6467   22.8512 O   0  0  0  0  0  0  0  0  0  0  0  0
  -24.0192  -22.0750   21.0723 F   0  0  0  0  0  0  0  0  0  0  0  0
  -31.4485  -12.4701   19.0860 H   0  0  0  0  0  0  0  0  0  0  0  0
  -30.3970  -11.2460   19.6950 H   0  0  0  0  0  0  0  0  0  0  0  0
  -29.6870  -11.8204   17.4226 H   0  0  0  0  0  0  0  0  0  0  0  0
  -29.6375  -13.5326   17.8649 H   0  0  0  0  0  0  0  0  0  0  0  0
  -27.7830  -11.3650   18.7904 H   0  0  0  0  0  0  0  0  0  0  0  0
  -27.4028  -12.7801   17.8021 H   0  0  0  0  0  0  0  0  0  0  0  0
  -27.7353  -14.2503   19.6136 H   0  0  0  0  0  0  0  0  0  0  0  0
  -28.5890  -11.9550   21.3832 H   0  0  0  0  0  0  0  0  0  0  0  0
  -28.5005  -13.6134   21.8562 H   0  0  0  0  0  0  0  0  0  0  0  0
  -25.2399   -9.5495   22.4318 H   0  0  0  0  0  0  0  0  0  0  0  0
  -23.9663   -7.5070   22.7297 H   0  0  0  0  0  0  0  0  0  0  0  0
  -21.1515   -8.8641   19.9162 H   0  0  0  0  0  0  0  0  0  0  0  0
  -22.4016  -10.9115   19.6476 H   0  0  0  0  0  0  0  0  0  0  0  0
  -21.2319   -7.5552   23.9750 H   0  0  0  0  0  0  0  0  0  0  0  0
  -21.1589   -6.0228   25.8556 H   0  0  0  0  0  0  0  0  0  0  0  0
  -22.0396   -2.8212   23.2809 H   0  0  0  0  0  0  0  0  0  0  0  0
  -22.4401  -11.9703   22.4008 H   0  0  0  0  0  0  0  0  0  0  0  0
  -21.1493  -13.0679   22.2082 H   0  0  0  0  0  0  0  0  0  0  0  0
  -24.6538  -15.7807   20.5848 H   0  0  0  0  0  0  0  0  0  0  0  0
  -26.2762  -15.5453   20.1156 H   0  0  0  0  0  0  0  0  0  0  0  0
  -26.6778  -32.4663   23.1464 H   0  0  0  0  0  0  0  0  0  0  0  0
  -25.0747  -34.0282   25.0566 H   0  0  0  0  0  0  0  0  0  0  0  0
  -22.7881  -31.3489   21.4131 H   0  0  0  0  0  0  0  0  0  0  0  0
  -23.3854  -35.9823   23.3648 H   0  0  0  0  0  0  0  0  0  0  0  0
  -24.3696  -36.8624   22.2204 H   0  0  0  0  0  0  0  0  0  0  0  0
  -23.7669  -37.6632   23.6516 H   0  0  0  0  0  0  0  0  0  0  0  0
  -25.9445  -31.6237   20.5691 H   0  0  0  0  0  0  0  0  0  0  0  0
  -26.7436  -31.0079   22.0108 H   0  0  0  0  0  0  0  0  0  0  0  0
  -28.0090  -29.1452   21.2057 H   0  0  0  0  0  0  0  0  0  0  0  0
  -26.1369  -26.0560   19.0719 H   0  0  0  0  0  0  0  0  0  0  0  0
  -24.0652  -27.2961   19.0997 H   0  0  0  0  0  0  0  0  0  0  0  0
  -23.6156  -30.5365   19.3930 H   0  0  0  0  0  0  0  0  0  0  0  0
  -22.7355  -29.1425   19.9945 H   0  0  0  0  0  0  0  0  0  0  0  0
  -25.1353  -36.2335   25.0565 H   0  0  0  0  0  0  0  0  0  0  0  0
  -21.0070  -28.3206   24.0793 H   0  0  0  0  0  0  0  0  0  0  0  0
  -20.5555  -26.2518   23.3550 H   0  0  0  0  0  0  0  0  0  0  0  0
  -21.5974  -26.8362   22.0454 H   0  0  0  0  0  0  0  0  0  0  0  0
  -19.6810  -25.6422   21.1488 H   0  0  0  0  0  0  0  0  0  0  0  0
  -19.6406  -27.3343   20.7034 H   0  0  0  0  0  0  0  0  0  0  0  0
  -17.4282  -26.6888   21.4113 H   0  0  0  0  0  0  0  0  0  0  0  0
  -18.0803  -26.0130   22.9049 H   0  0  0  0  0  0  0  0  0  0  0  0
  -19.7265  -30.6774   24.2204 H   0  0  0  0  0  0  0  0  0  0  0  0
  -17.5064  -31.5856   24.4483 H   0  0  0  0  0  0  0  0  0  0  0  0
  -15.5878  -30.2839   23.7407 H   0  0  0  0  0  0  0  0  0  0  0  0
  -15.9120  -28.0941   22.7766 H   0  0  0  0  0  0  0  0  0  0  0  0
  -24.5787  -30.7757   25.6817 H   0  0  0  0  0  0  0  0  0  0  0  0
  -25.0041  -32.2289   26.5536 H   0  0  0  0  0  0  0  0  0  0  0  0
  -25.8166  -30.7245   26.9138 H   0  0  0  0  0  0  0  0  0  0  0  0
  -26.2892  -29.7335   24.0803 H   0  0  0  0  0  0  0  0  0  0  0  0
  -27.4336  -29.7484   25.4006 H   0  0  0  0  0  0  0  0  0  0  0  0
  -27.8466  -30.4994   23.8779 H   0  0  0  0  0  0  0  0  0  0  0  0
  -27.2251  -33.3632   26.1242 H   0  0  0  0  0  0  0  0  0  0  0  0
  -28.3902  -32.6065   25.0645 H   0  0  0  0  0  0  0  0  0  0  0  0
  -27.9772  -31.8555   26.5872 H   0  0  0  0  0  0  0  0  0  0  0  0
  -28.2744  -38.0016   24.6863 H   0  0  0  0  0  0  0  0  0  0  0  0
  -28.0396  -36.2711   24.7461 H   0  0  0  0  0  0  0  0  0  0  0  0
  -27.1773  -37.3087   25.8564 H   0  0  0  0  0  0  0  0  0  0  0  0
  -20.9627  -29.9365   21.7352 H   0  0  0  0  0  0  0  0  0  0  0  0
  -26.0447  -38.2561   24.0273 H   0  0  0  0  0  0  0  0  0  0  0  0
  -20.3707  -24.1751   24.0604 H   0  0  0  0  0  0  0  0  0  0  0  0
  -22.2694  -23.0563   25.0770 H   0  0  0  0  0  0  0  0  0  0  0  0
  -21.9072  -23.3147   20.2436 H   0  0  0  0  0  0  0  0  0  0  0  0
  -18.0261  -27.9647   23.7939 H   0  0  0  0  0  0  0  0  0  0  0  0
  -18.0666  -28.3127   22.0432 H   0  0  0  0  0  0  0  0  0  0  0  0
  -20.4042  -28.1422   23.8809 H   0  0  0  0  0  0  0  0  0  0  0  0
  -19.7733  -29.5733   23.1044 H   0  0  0  0  0  0  0  0  0  0  0  0
  -21.6499  -26.4170   22.4421 H   0  0  0  0  0  0  0  0  0  0  0  0
  -21.3145  -26.5100   20.6930 H   0  0  0  0  0  0  0  0  0  0  0  0
  -20.2339  -28.5642   20.9048 H   0  0  0  0  0  0  0  0  0  0  0  0
  -18.9258  -24.0190   21.7431 H   0  0  0  0  0  0  0  0  0  0  0  0
  -19.9508  -24.4906   20.3850 H   0  0  0  0  0  0  0  0  0  0  0  0
  -22.1924  -29.2254   22.8595 H   0  0  0  0  0  0  0  0  0  0  0  0
  -21.9234  -29.6131   21.0111 H   0  0  0  0  0  0  0  0  0  0  0  0
  -24.4881  -22.2178   24.7473 H   0  0  0  0  0  0  0  0  0  0  0  0
  1 25  1  0
  1 30  2  0
  1 85  1  0
  2  3  1  0
  2 25  1  0
  2 88  1  0
  2 89  1  0
  3  4  1  0
  3 90  1  0
  3 91  1  0
  4  5  1  0
  4 92  1  0
  4 93  1  0
  5  6  1  0
  5 26  1  0
  5 94  1  6
  6 25  1  0
  6 95  1  0
  6 96  1  0
  7  8  2  0
  7 26  1  0
  7 29  1  0
  8  9  1  0
  8 22  1  0
  9 10  1  0
  9 27  2  0
 10 11  2  0
 10 15  1  0
 11 12  1  0
 11 97  1  0
 12 13  2  0
 12 98  1  0
 13 14  1  0
 13 31  1  0
 14 15  2  0
 14 99  1  0
 15100  1  0
 16 17  2  0
 16 21  1  0
 16 31  1  0
 17 18  1  0
 17101  1  0
 18 19  2  0
 18102  1  0
 19 20  1  0
 19 24  1  0
 20 21  2  0
 20103  1  0
 21 23  1  0
 22 28  1  0
 22 32  2  0
 26 27  1  0
 28104  1  0
 28105  1  0
 29106  1  0
 29107  1  0
 33 34  1  0
 33 66  1  0
 33 70  2  0
 34 36  1  0
 34 59  1  0
 34108  1  6
 35 44  2  0
 35 45  1  0
 35 68  1  0
 36 56  1  0
 36109  1  0
 37 39  1  0
 37 47  1  0
 37 66  1  0
 37110  1  6
 38 43  2  0
 38 46  1  0
 38 47  1  0
 39 64  1  0
 39 67  2  0
 40 52  1  0
 40 53  2  0
 40 58  1  0
 41111  1  0
 41112  1  0
 41113  1  0
 42 43  1  0
 42 66  1  0
 42114  1  0
 42115  1  0
 43 44  1  0
 44116  1  0
 45 46  2  0
 45117  1  0
 46118  1  0
 47119  1  0
 47120  1  0
 48 41  1  0
 48 56  1  0
 48 65  1  0
 48121  1  1
 49 50  1  0
 49 53  1  0
 49 64  1  0
 49122  1  1
 50 51  1  0
 50123  1  0
 50124  1  0
 51 52  1  0
 51125  1  0
 51126  1  0
 52127  1  0
 52128  1  0
 53 54  1  0
 54 55  2  0
 54129  1  0
 55 57  1  0
 55130  1  0
 56 69  2  0
 57 58  2  0
 57131  1  0
 58132  1  0
 59 60  1  0
 59 61  1  0
 59 62  1  0
 60133  1  0
 60134  1  0
 60135  1  0
 61136  1  0
 61137  1  0
 61138  1  0
 62139  1  0
 62140  1  0
 62141  1  0
 63 65  1  0
 63142  1  0
 63143  1  0
 63144  1  0
 64145  1  0
 65146  1  0
 68 83  1  0
 71 72  2  0
 71 74  1  0
 71147  1  0
 72 75  1  0
 72148  1  0
 73 74  2  0
 73 76  1  0
 73149  1  0
 74 82  1  0
 75 76  2  0
 75 85  1  0
 76 87  1  0
 77 78  1  0
 77 84  1  0
 77 86  2  0
 78 79  1  0
 78150  1  0
 78151  1  0
 79 81  1  0
 79152  1  0
 79153  1  0
 80 81  1  0
 80 84  1  0
 80154  1  0
 80155  1  0
 81 83  1  0
 81156  1  6
 82 84  1  0
 82157  1  0
 82158  1  0
 83159  1  0
 83160  1  0
 85161  1  0
M  ISO  4   1 100  68 101  83 101  85 100
M  END
$$$$
29
     RDKit          3D

165174  0  0  0  0  0  0  0  0999 V2000
  -30.7652  -14.3608   20.6636 C   0  0  0  0  0  0  0  0  0100  0  0
  -30.4392  -12.2669   19.3775 C   0  0  0  0  0  0  0  0  0101  0  0
  -29.4791  -12.5281   18.1977 C   0  0  0  0  0  0  0  0  0102  0  0
  -27.9985  -12.3963   18.6038 C   0  0  0  0  0  0  0  0  0103  0  0
  -27.6639  -13.2170   19.8820 C   0  0  2  0  0  0  0  0  0104  0  0
  -28.6795  -12.9602   21.0279 C   0  0  0  0  0  0  0  0  0105  0  0
  -25.2633  -13.8245   20.5754 C   0  0  0  0  0  0  0  0  0106  0  0
  -24.1645  -13.0409   20.9408 C   0  0  0  0  0  0  0  0  0107  0  0
  -24.6400  -11.7009   20.8697 C   0  0  0  0  0  0  0  0  0108  0  0
  -23.9005  -10.4085   21.0420 C   0  0  0  0  0  0  0  0  0109  0  0
  -24.3588   -9.4123   21.9123 C   0  0  0  0  0  0  0  0  0110  0  0
  -23.6296   -8.2350   22.0803 C   0  0  0  0  0  0  0  0  0111  0  0
  -22.4385   -8.0419   21.3657 C   0  0  0  0  0  0  0  0  0112  0  0
  -22.0103   -9.0167   20.4678 C   0  0  0  0  0  0  0  0  0113  0  0
  -22.7317  -10.1925   20.3102 C   0  0  0  0  0  0  0  0  0114  0  0
  -21.6857   -6.0709   22.5391 C   0  0  0  0  0  0  0  0  0115  0  0
  -21.4064   -6.5490   23.8264 C   0  0  0  0  0  0  0  0  0116  0  0
  -21.3635   -5.6677   24.9085 C   0  0  0  0  0  0  0  0  0117  0  0
  -21.5973   -4.3067   24.7088 C   0  0  0  0  0  0  0  0  0118  0  0
  -21.8700   -3.8284   23.4282 C   0  0  0  0  0  0  0  0  0119  0  0
  -21.9144   -4.7056   22.3460 C   0  0  0  0  0  0  0  0  0120  0  0
  -22.8194  -13.5263   21.1763 C   0  0  0  0  0  0  0  0  0121  0  0
  -22.1559   -4.2206   21.1063 F   0  0  0  0  0  0  0  0  0122  0  0
  -21.5628   -3.4510   25.7555 F   0  0  0  0  0  0  0  0  0123  0  0
  -30.0261  -13.1803   20.4553 N   0  0  0  0  0  0  0  0  0124  0  0
  -26.2911  -12.9356   20.3443 N   0  0  0  0  0  0  0  0  0125  0  0
  -25.9236  -11.6675   20.5847 N   0  0  0  0  0  0  0  0  0126  0  0
  -22.0708  -12.7905   22.0005 N   0  0  0  0  0  0  0  0  0127  0  0
  -25.4117  -15.1773   20.4097 N   0  0  0  0  0  0  0  0  0128  0  0
  -31.7916  -14.6724   20.0536 O   0  0  0  0  0  0  0  0  0129  0  0
  -21.6670   -6.9022   21.4423 O   0  0  0  0  0  0  0  0  0130  0  0
  -22.3946  -14.5564   20.6568 O   0  0  0  0  0  0  0  0  0131  0  0
  -24.6048  -31.8614   23.2223 C   0  0  0  0  0  0  0  0  0100  0  0
  -25.8822  -32.4841   23.8616 C   0  0  1  0  0  0  0  0  0101  0  0
  -27.2536  -27.5042   20.1156 C   0  0  0  0  0  0  0  0  0102  0  0
  -25.5726  -33.8762   24.2210 N   0  0  0  0  0  0  0  0  0103  0  0
  -23.4066  -30.4859   21.5461 C   0  0  2  0  0  0  0  0  0104  0  0
  -24.8467  -28.9636   20.1247 C   0  0  0  0  0  0  0  0  0105  0  0
  -22.7412  -29.4652   22.5052 C   0  0  0  0  0  0  0  0  0106  0  0
  -18.0167  -28.1302   22.8626 C   0  0  0  0  0  0  0  0  0107  0  0
  -24.1342  -36.7390   23.2568 C   0  0  0  0  0  0  0  0  0108  0  0
  -25.9141  -30.8882   21.3456 C   0  0  0  0  0  0  0  0  0109  0  0
  -25.9930  -29.5029   20.7208 C   0  0  0  0  0  0  0  0  0110  0  0
  -27.1758  -28.7612   20.7331 C   0  0  0  0  0  0  0  0  0111  0  0
  -26.1032  -26.9836   19.5230 C   0  0  0  0  0  0  0  0  0112  0  0
  -24.9097  -27.7011   19.5331 C   0  0  0  0  0  0  0  0  0113  0  0
  -23.5715  -29.7899   20.1582 C   0  0  0  0  0  0  0  0  0114  0  0
  -25.3990  -36.3212   24.0232 C   0  0  1  0  0  0  0  0  0115  0  0
  -20.5793  -28.3813   23.1004 C   0  0  2  0  0  0  0  0  0116  0  0
  -20.6548  -26.9392   22.5411 C   0  0  0  0  0  0  0  0  0117  0  0
  -19.5615  -26.6407   21.5143 C   0  0  0  0  0  0  0  0  0118  0  0
  -18.1797  -26.7818   22.1673 C   0  0  0  0  0  0  0  0  0119  0  0
  -19.1385  -28.8769   23.2988 C   0  0  0  0  0  0  0  0  0120  0  0
  -18.9183  -30.1286   23.8878 C   0  0  0  0  0  0  0  0  0121  0  0
  -17.6396  -30.6493   24.0352 C   0  0  0  0  0  0  0  0  0122  0  0
  -25.9153  -34.9582   23.4993 C   0  0  0  0  0  0  0  0  0123  0  0
  -16.5415  -29.9068   23.6254 C   0  0  0  0  0  0  0  0  0124  0  0
  -16.7331  -28.6521   23.0586 C   0  0  0  0  0  0  0  0  0125  0  0
  -26.4583  -31.6439   25.0683 C   0  0  0  0  0  0  0  0  0126  0  0
  -25.3807  -31.3179   26.1374 C   0  0  0  0  0  0  0  0  0127  0  0
  -27.0530  -30.3024   24.5680 C   0  0  0  0  0  0  0  0  0128  0  0
  -27.6014  -32.4281   25.7651 C   0  0  0  0  0  0  0  0  0129  0  0
  -27.5629  -37.2220   24.8621 C   0  0  0  0  0  0  0  0  0130  0  0
  -21.4133  -29.3375   22.3735 N   0  0  0  0  0  0  0  0  0131  0  0
  -26.4706  -37.3372   23.9061 N   0  0  0  0  0  0  0  0  0132  0  0
  -24.6674  -31.0544   22.1178 N   0  0  0  0  0  0  0  0  0133  0  0
  -23.4259  -28.8150   23.2971 O   0  0  0  0  0  0  0  0  0134  0  0
  -28.3948  -26.7345   20.0089 O   0  0  0  0  0  0  0  0  0135  0  0
  -26.5870  -34.9065   22.4671 O   0  0  0  0  0  0  0  0  0136  0  0
  -23.5365  -32.1254   23.7833 O   0  0  0  0  0  0  0  0  0137  0  0
  -27.0641  -21.9505   17.7509 C   0  0  0  0  0  0  0  0  0  0  0  0
  -25.8966  -21.4054   18.2850 C   0  0  0  0  0  0  0  0  0  0  0  0
  -27.2174  -19.8961   19.6321 C   0  0  0  0  0  0  0  0  0  0  0  0
  -28.3084  -21.4683   18.1573 C   0  0  0  0  0  0  0  0  0  0  0  0
  -25.9732  -20.3782   19.2256 C   0  0  0  0  0  0  0  0  0  0  0  0
  -28.3850  -20.4412   19.0979 C   0  0  0  0  0  0  0  0  0  0  0  0
  -31.5448  -22.7060   18.8748 C   0  0  0  0  0  0  0  0  0  0  0  0
  -32.1540  -23.6281   19.9128 C   0  0  0  0  0  0  0  0  0  0  0  0
  -31.5710  -25.0274   19.9332 C   0  0  0  0  0  0  0  0  0  0  0  0
  -29.5174  -24.2012   18.8216 C   0  0  0  0  0  0  0  0  0  0  0  0
  -30.0548  -24.9398   20.0435 C   0  0  2  0  0  0  0  0  0  0  0  0
  -29.5783  -18.9083   20.4698 C   0  0  0  0  0  0  0  0  0  0  0  0
  -29.5544  -22.0669   17.5715 C   0  0  0  0  0  0  0  0  0  0  0  0
  -29.4298  -26.3282   20.1564 C   0  0  0  0  0  0  0  0  0  1  0  0
  -30.2242  -22.9581   18.5094 N   0  0  0  0  0  0  0  0  0  0  0  0
  -24.7870  -19.8242   19.7674 N   0  0  0  0  0  0  0  0  0  0  0  0
  -32.2042  -21.7452   18.4685 O   0  0  0  0  0  0  0  0  0  0  0  0
  -29.5924  -19.9587   19.5053 O   0  0  0  0  0  0  0  0  0  0  0  0
  -31.4485  -12.4701   19.0860 H   0  0  0  0  0  0  0  0  0  0  0  0
  -30.3970  -11.2460   19.6950 H   0  0  0  0  0  0  0  0  0  0  0  0
  -29.6870  -11.8204   17.4226 H   0  0  0  0  0  0  0  0  0  0  0  0
  -29.6375  -13.5326   17.8649 H   0  0  0  0  0  0  0  0  0  0  0  0
  -27.7830  -11.3650   18.7904 H   0  0  0  0  0  0  0  0  0  0  0  0
  -27.4028  -12.7801   17.8021 H   0  0  0  0  0  0  0  0  0  0  0  0
  -27.7353  -14.2503   19.6136 H   0  0  0  0  0  0  0  0  0  0  0  0
  -28.5890  -11.9550   21.3832 H   0  0  0  0  0  0  0  0  0  0  0  0
  -28.5005  -13.6134   21.8562 H   0  0  0  0  0  0  0  0  0  0  0  0
  -25.2399   -9.5495   22.4318 H   0  0  0  0  0  0  0  0  0  0  0  0
  -23.9663   -7.5070   22.7297 H   0  0  0  0  0  0  0  0  0  0  0  0
  -21.1515   -8.8641   19.9162 H   0  0  0  0  0  0  0  0  0  0  0  0
  -22.4016  -10.9115   19.6476 H   0  0  0  0  0  0  0  0  0  0  0  0
  -21.2319   -7.5552   23.9750 H   0  0  0  0  0  0  0  0  0  0  0  0
  -21.1589   -6.0228   25.8556 H   0  0  0  0  0  0  0  0  0  0  0  0
  -22.0396   -2.8212   23.2809 H   0  0  0  0  0  0  0  0  0  0  0  0
  -22.4401  -11.9703   22.4008 H   0  0  0  0  0  0  0  0  0  0  0  0
  -21.1493  -13.0679   22.2082 H   0  0  0  0  0  0  0  0  0  0  0  0
  -24.6538  -15.7807   20.5848 H   0  0  0  0  0  0  0  0  0  0  0  0
  -26.2762  -15.5453   20.1156 H   0  0  0  0  0  0  0  0  0  0  0  0
  -26.6778  -32.4663   23.1464 H   0  0  0  0  0  0  0  0  0  0  0  0
  -25.0747  -34.0282   25.0566 H   0  0  0  0  0  0  0  0  0  0  0  0
  -22.7881  -31.3489   21.4131 H   0  0  0  0  0  0  0  0  0  0  0  0
  -23.3854  -35.9823   23.3648 H   0  0  0  0  0  0  0  0  0  0  0  0
  -24.3696  -36.8624   22.2204 H   0  0  0  0  0  0  0  0  0  0  0  0
  -23.7669  -37.6632   23.6516 H   0  0  0  0  0  0  0  0  0  0  0  0
  -25.9445  -31.6237   20.5691 H   0  0  0  0  0  0  0  0  0  0  0  0
  -26.7436  -31.0079   22.0108 H   0  0  0  0  0  0  0  0  0  0  0  0
  -28.0090  -29.1452   21.2057 H   0  0  0  0  0  0  0  0  0  0  0  0
  -26.1369  -26.0560   19.0719 H   0  0  0  0  0  0  0  0  0  0  0  0
  -24.0652  -27.2961   19.0997 H   0  0  0  0  0  0  0  0  0  0  0  0
  -23.6156  -30.5365   19.3930 H   0  0  0  0  0  0  0  0  0  0  0  0
  -22.7355  -29.1425   19.9945 H   0  0  0  0  0  0  0  0  0  0  0  0
  -25.1353  -36.2335   25.0565 H   0  0  0  0  0  0  0  0  0  0  0  0
  -21.0070  -28.3206   24.0793 H   0  0  0  0  0  0  0  0  0  0  0  0
  -20.5555  -26.2518   23.3550 H   0  0  0  0  0  0  0  0  0  0  0  0
  -21.5974  -26.8362   22.0454 H   0  0  0  0  0  0  0  0  0  0  0  0
  -19.6810  -25.6422   21.1488 H   0  0  0  0  0  0  0  0  0  0  0  0
  -19.6406  -27.3343   20.7034 H   0  0  0  0  0  0  0  0  0  0  0  0
  -17.4282  -26.6888   21.4113 H   0  0  0  0  0  0  0  0  0  0  0  0
  -18.0803  -26.0130   22.9049 H   0  0  0  0  0  0  0  0  0  0  0  0
  -19.7265  -30.6774   24.2204 H   0  0  0  0  0  0  0  0  0  0  0  0
  -17.5064  -31.5856   24.4483 H   0  0  0  0  0  0  0  0  0  0  0  0
  -15.5878  -30.2839   23.7407 H   0  0  0  0  0  0  0  0  0  0  0  0
  -15.9120  -28.0941   22.7766 H   0  0  0  0  0  0  0  0  0  0  0  0
  -24.5787  -30.7757   25.6817 H   0  0  0  0  0  0  0  0  0  0  0  0
  -25.0041  -32.2289   26.5536 H   0  0  0  0  0  0  0  0  0  0  0  0
  -25.8166  -30.7245   26.9138 H   0  0  0  0  0  0  0  0  0  0  0  0
  -26.2892  -29.7335   24.0803 H   0  0  0  0  0  0  0  0  0  0  0  0
  -27.4336  -29.7484   25.4006 H   0  0  0  0  0  0  0  0  0  0  0  0
  -27.8466  -30.4994   23.8779 H   0  0  0  0  0  0  0  0  0  0  0  0
  -27.2251  -33.3632   26.1242 H   0  0  0  0  0  0  0  0  0  0  0  0
  -28.3902  -32.6065   25.0645 H   0  0  0  0  0  0  0  0  0  0  0  0
  -27.9772  -31.8555   26.5872 H   0  0  0  0  0  0  0  0  0  0  0  0
  -28.2744  -38.0016   24.6863 H   0  0  0  0  0  0  0  0  0  0  0  0
  -28.0396  -36.2711   24.7461 H   0  0  0  0  0  0  0  0  0  0  0  0
  -27.1773  -37.3087   25.8564 H   0  0  0  0  0  0  0  0  0  0  0  0
  -20.9627  -29.9365   21.7352 H   0  0  0  0  0  0  0  0  0  0  0  0
  -26.0447  -38.2561   24.0273 H   0  0  0  0  0  0  0  0  0  0  0  0
  -27.0074  -22.7105   17.0551 H   0  0  0  0  0  0  0  0  0  0  0  0
  -24.9761  -21.7621   17.9843 H   0  0  0  0  0  0  0  0  0  0  0  0
  -27.2741  -19.1362   20.3280 H   0  0  0  0  0  0  0  0  0  0  0  0
  -33.2027  -23.7063   19.7155 H   0  0  0  0  0  0  0  0  0  0  0  0
  -31.9378  -23.1954   20.8672 H   0  0  0  0  0  0  0  0  0  0  0  0
  -31.8347  -25.5376   19.0304 H   0  0  0  0  0  0  0  0  0  0  0  0
  -31.9607  -25.5657   20.7718 H   0  0  0  0  0  0  0  0  0  0  0  0
  -29.5949  -24.8521   17.9759 H   0  0  0  0  0  0  0  0  0  0  0  0
  -28.5071  -23.9305   19.0473 H   0  0  0  0  0  0  0  0  0  0  0  0
  -29.7946  -24.4033   20.9320 H   0  0  0  0  0  0  0  0  0  0  0  0
  -30.5833  -18.6235   20.7017 H   0  0  0  0  0  0  0  0  0  0  0  0
  -29.0516  -18.0660   20.0722 H   0  0  0  0  0  0  0  0  0  0  0  0
  -29.0894  -19.2473   21.3592 H   0  0  0  0  0  0  0  0  0  0  0  0
  -29.2921  -22.6216   16.6949 H   0  0  0  0  0  0  0  0  0  0  0  0
  -30.2264  -21.2680   17.3370 H   0  0  0  0  0  0  0  0  0  0  0  0
  -30.0159  -26.9115   19.4774 H   0  0  0  0  0  0  0  0  0  0  0  0
  -29.3860  -26.3307   21.2255 H   0  0  0  0  0  0  0  0  0  0  0  0
  -23.8315  -19.9942   19.9331 H   0  0  0  0  0  0  0  0  0  0  0  0
  1 25  1  0
  1 30  2  0
  1 86  1  0
  2  3  1  0
  2 25  1  0
  2 89  1  0
  2 90  1  0
  3  4  1  0
  3 91  1  0
  3 92  1  0
  4  5  1  0
  4 93  1  0
  4 94  1  0
  5  6  1  0
  5 26  1  0
  5 95  1  6
  6 25  1  0
  6 96  1  0
  6 97  1  0
  7  8  2  0
  7 26  1  0
  7 29  1  0
  8  9  1  0
  8 22  1  0
  9 10  1  0
  9 27  2  0
 10 11  2  0
 10 15  1  0
 11 12  1  0
 11 98  1  0
 12 13  2  0
 12 99  1  0
 13 14  1  0
 13 31  1  0
 14 15  2  0
 14100  1  0
 15101  1  0
 16 17  2  0
 16 21  1  0
 16 31  1  0
 17 18  1  0
 17102  1  0
 18 19  2  0
 18103  1  0
 19 20  1  0
 19 24  1  0
 20 21  2  0
 20104  1  0
 21 23  1  0
 22 28  1  0
 22 32  2  0
 26 27  1  0
 28105  1  0
 28106  1  0
 29107  1  0
 29108  1  0
 33 34  1  0
 33 66  1  0
 33 70  2  0
 34 36  1  0
 34 59  1  0
 34109  1  6
 35 44  2  0
 35 45  1  0
 35 68  1  0
 36 56  1  0
 36110  1  0
 37 39  1  0
 37 47  1  0
 37 66  1  0
 37111  1  6
 38 43  2  0
 38 46  1  0
 38 47  1  0
 39 64  1  0
 39 67  2  0
 40 52  1  0
 40 53  2  0
 40 58  1  0
 41112  1  0
 41113  1  0
 41114  1  0
 42 43  1  0
 42 66  1  0
 42115  1  0
 42116  1  0
 43 44  1  0
 44117  1  0
 45 46  2  0
 45118  1  0
 46119  1  0
 47120  1  0
 47121  1  0
 48 41  1  0
 48 56  1  0
 48 65  1  0
 48122  1  1
 49 50  1  0
 49 53  1  0
 49 64  1  0
 49123  1  1
 50 51  1  0
 50124  1  0
 50125  1  0
 51 52  1  0
 51126  1  0
 51127  1  0
 52128  1  0
 52129  1  0
 53 54  1  0
 54 55  2  0
 54130  1  0
 55 57  1  0
 55131  1  0
 56 69  2  0
 57 58  2  0
 57132  1  0
 58133  1  0
 59 60  1  0
 59 61  1  0
 59 62  1  0
 60134  1  0
 60135  1  0
 60136  1  0
 61137  1  0
 61138  1  0
 61139  1  0
 62140  1  0
 62141  1  0
 62142  1  0
 63 65  1  0
 63143  1  0
 63144  1  0
 63145  1  0
 64146  1  0
 65147  1  0
 68 84  1  0
 71 72  2  0
 71 74  1  0
 71148  1  0
 72 75  1  0
 72149  1  0
 73 75  2  0
 73 76  1  0
 73150  1  0
 74 76  2  0
 74 83  1  0
 75 86  1  0
 76 88  1  0
 77 78  1  0
 77 85  1  0
 77 87  2  0
 78 79  1  0
 78151  1  0
 78152  1  0
 79 81  1  0
 79153  1  0
 79154  1  0
 80 81  1  0
 80 85  1  0
 80155  1  0
 80156  1  0
 81 84  1  0
 81157  1  1
 82 88  1  0
 82158  1  0
 82159  1  0
 82160  1  0
 83 85  1  0
 83161  1  0
 83162  1  0
 84163  1  0
 84164  1  0
 86165  1  0
M  ISO  4   1 100  68 101  84 101  86 100
M  END
$$$$
30
     RDKit          3D

153161  0  0  0  0  0  0  0  0999 V2000
  -30.7652  -14.3608   20.6636 C   0  0  0  0  0  0  0  0  0100  0  0
  -30.4392  -12.2669   19.3775 C   0  0  0  0  0  0  0  0  0101  0  0
  -29.4791  -12.5281   18.1977 C   0  0  0  0  0  0  0  0  0102  0  0
  -27.9985  -12.3963   18.6038 C   0  0  0  0  0  0  0  0  0103  0  0
  -27.6639  -13.2170   19.8820 C   0  0  2  0  0  0  0  0  0104  0  0
  -28.6795  -12.9602   21.0279 C   0  0  0  0  0  0  0  0  0105  0  0
  -25.2633  -13.8245   20.5754 C   0  0  0  0  0  0  0  0  0106  0  0
  -24.1645  -13.0409   20.9408 C   0  0  0  0  0  0  0  0  0107  0  0
  -24.6400  -11.7009   20.8697 C   0  0  0  0  0  0  0  0  0108  0  0
  -23.9005  -10.4085   21.0420 C   0  0  0  0  0  0  0  0  0109  0  0
  -24.3588   -9.4123   21.9123 C   0  0  0  0  0  0  0  0  0110  0  0
  -23.6296   -8.2350   22.0803 C   0  0  0  0  0  0  0  0  0111  0  0
  -22.4385   -8.0419   21.3657 C   0  0  0  0  0  0  0  0  0112  0  0
  -22.0103   -9.0167   20.4678 C   0  0  0  0  0  0  0  0  0113  0  0
  -22.7317  -10.1925   20.3102 C   0  0  0  0  0  0  0  0  0114  0  0
  -21.6857   -6.0709   22.5391 C   0  0  0  0  0  0  0  0  0115  0  0
  -21.4064   -6.5490   23.8264 C   0  0  0  0  0  0  0  0  0116  0  0
  -21.3635   -5.6677   24.9085 C   0  0  0  0  0  0  0  0  0117  0  0
  -21.5973   -4.3067   24.7088 C   0  0  0  0  0  0  0  0  0118  0  0
  -21.8700   -3.8284   23.4282 C   0  0  0  0  0  0  0  0  0119  0  0
  -21.9144   -4.7056   22.3460 C   0  0  0  0  0  0  0  0  0120  0  0
  -22.8194  -13.5263   21.1763 C   0  0  0  0  0  0  0  0  0121  0  0
  -22.1559   -4.2206   21.1063 F   0  0  0  0  0  0  0  0  0122  0  0
  -21.5628   -3.4510   25.7555 F   0  0  0  0  0  0  0  0  0123  0  0
  -30.0261  -13.1803   20.4553 N   0  0  0  0  0  0  0  0  0124  0  0
  -26.2911  -12.9356   20.3443 N   0  0  0  0  0  0  0  0  0125  0  0
  -25.9236  -11.6675   20.5847 N   0  0  0  0  0  0  0  0  0126  0  0
  -22.0708  -12.7905   22.0005 N   0  0  0  0  0  0  0  0  0127  0  0
  -25.4117  -15.1773   20.4097 N   0  0  0  0  0  0  0  0  0128  0  0
  -31.7916  -14.6724   20.0536 O   0  0  0  0  0  0  0  0  0129  0  0
  -21.6670   -6.9022   21.4423 O   0  0  0  0  0  0  0  0  0130  0  0
  -22.3946  -14.5564   20.6568 O   0  0  0  0  0  0  0  0  0131  0  0
  -24.6048  -31.8614   23.2223 C   0  0  0  0  0  0  0  0  0100  0  0
  -25.8822  -32.4841   23.8616 C   0  0  1  0  0  0  0  0  0101  0  0
  -27.2536  -27.5042   20.1156 C   0  0  0  0  0  0  0  0  0102  0  0
  -25.5726  -33.8762   24.2210 N   0  0  0  0  0  0  0  0  0103  0  0
  -23.4066  -30.4859   21.5461 C   0  0  2  0  0  0  0  0  0104  0  0
  -24.8467  -28.9636   20.1247 C   0  0  0  0  0  0  0  0  0105  0  0
  -22.7412  -29.4652   22.5052 C   0  0  0  0  0  0  0  0  0106  0  0
  -18.0167  -28.1302   22.8626 C   0  0  0  0  0  0  0  0  0107  0  0
  -24.1342  -36.7390   23.2568 C   0  0  0  0  0  0  0  0  0108  0  0
  -25.9141  -30.8882   21.3456 C   0  0  0  0  0  0  0  0  0109  0  0
  -25.9930  -29.5029   20.7208 C   0  0  0  0  0  0  0  0  0110  0  0
  -27.1758  -28.7612   20.7331 C   0  0  0  0  0  0  0  0  0111  0  0
  -26.1032  -26.9836   19.5230 C   0  0  0  0  0  0  0  0  0112  0  0
  -24.9097  -27.7011   19.5331 C   0  0  0  0  0  0  0  0  0113  0  0
  -23.5715  -29.7899   20.1582 C   0  0  0  0  0  0  0  0  0114  0  0
  -25.3990  -36.3212   24.0232 C   0  0  1  0  0  0  0  0  0115  0  0
  -20.5793  -28.3813   23.1004 C   0  0  2  0  0  0  0  0  0116  0  0
  -20.6548  -26.9392   22.5411 C   0  0  0  0  0  0  0  0  0117  0  0
  -19.5615  -26.6407   21.5143 C   0  0  0  0  0  0  0  0  0118  0  0
  -18.1797  -26.7818   22.1673 C   0  0  0  0  0  0  0  0  0119  0  0
  -19.1385  -28.8769   23.2988 C   0  0  0  0  0  0  0  0  0120  0  0
  -18.9183  -30.1286   23.8878 C   0  0  0  0  0  0  0  0  0121  0  0
  -17.6396  -30.6493   24.0352 C   0  0  0  0  0  0  0  0  0122  0  0
  -25.9153  -34.9582   23.4993 C   0  0  0  0  0  0  0  0  0123  0  0
  -16.5415  -29.9068   23.6254 C   0  0  0  0  0  0  0  0  0124  0  0
  -16.7331  -28.6521   23.0586 C   0  0  0  0  0  0  0  0  0125  0  0
  -26.4583  -31.6439   25.0683 C   0  0  0  0  0  0  0  0  0126  0  0
  -25.3807  -31.3179   26.1374 C   0  0  0  0  0  0  0  0  0127  0  0
  -27.0530  -30.3024   24.5680 C   0  0  0  0  0  0  0  0  0128  0  0
  -27.6014  -32.4281   25.7651 C   0  0  0  0  0  0  0  0  0129  0  0
  -27.5629  -37.2220   24.8621 C   0  0  0  0  0  0  0  0  0130  0  0
  -21.4133  -29.3375   22.3735 N   0  0  0  0  0  0  0  0  0131  0  0
  -26.4706  -37.3372   23.9061 N   0  0  0  0  0  0  0  0  0132  0  0
  -24.6674  -31.0544   22.1178 N   0  0  0  0  0  0  0  0  0133  0  0
  -23.4259  -28.8150   23.2971 O   0  0  0  0  0  0  0  0  0134  0  0
  -28.3948  -26.7345   20.0089 O   0  0  0  0  0  0  0  0  0135  0  0
  -26.5870  -34.9065   22.4671 O   0  0  0  0  0  0  0  0  0136  0  0
  -23.5365  -32.1254   23.7833 O   0  0  0  0  0  0  0  0  0137  0  0
  -29.3864  -19.6047   21.1102 C   0  0  0  0  0  0  0  0  0  0  0  0
  -28.7324  -20.3567   22.0861 C   0  0  0  0  0  0  0  0  0  0  0  0
  -28.0424  -18.3222   23.1914 C   0  0  0  0  0  0  0  0  0  0  0  0
  -29.3683  -18.2114   21.1748 C   0  0  0  0  0  0  0  0  0  0  0  0
  -28.0604  -19.7155   23.1267 C   0  0  0  0  0  0  0  0  0  0  0  0
  -28.6964  -17.5702   22.2155 C   0  0  0  0  0  0  0  0  0  0  0  0
  -30.0657  -17.4146   20.1330 C   0  0  0  0  0  0  0  0  0  0  0  0
  -26.5794  -22.3891   25.3040 C   0  0  0  0  0  0  0  0  0  0  0  0
  -27.3756  -21.9034   24.1115 C   0  0  0  0  0  0  0  0  0  0  0  0
  -26.4665  -23.8944   25.4471 C   0  0  0  0  0  0  0  0  0  1  0  0
  -27.4099  -20.4633   24.0977 N   0  0  0  0  0  0  0  0  0  0  0  0
  -29.5130  -16.1627   19.8617 N   0  0  0  0  0  0  0  0  0  0  0  0
  -31.0353  -17.9010   19.5573 O   0  0  0  0  0  0  0  0  0  0  0  0
  -26.0544  -21.6223   26.1104 O   0  0  0  0  0  0  0  0  0  0  0  0
  -28.6707  -16.2317   22.2858 F   0  0  0  0  0  0  0  0  0  0  0  0
  -31.4485  -12.4701   19.0860 H   0  0  0  0  0  0  0  0  0  0  0  0
  -30.3970  -11.2460   19.6950 H   0  0  0  0  0  0  0  0  0  0  0  0
  -29.6870  -11.8204   17.4226 H   0  0  0  0  0  0  0  0  0  0  0  0
  -29.6375  -13.5326   17.8649 H   0  0  0  0  0  0  0  0  0  0  0  0
  -27.7830  -11.3650   18.7904 H   0  0  0  0  0  0  0  0  0  0  0  0
  -27.4028  -12.7801   17.8021 H   0  0  0  0  0  0  0  0  0  0  0  0
  -27.7353  -14.2503   19.6136 H   0  0  0  0  0  0  0  0  0  0  0  0
  -28.5890  -11.9550   21.3832 H   0  0  0  0  0  0  0  0  0  0  0  0
  -28.5005  -13.6134   21.8562 H   0  0  0  0  0  0  0  0  0  0  0  0
  -25.2399   -9.5495   22.4318 H   0  0  0  0  0  0  0  0  0  0  0  0
  -23.9663   -7.5070   22.7297 H   0  0  0  0  0  0  0  0  0  0  0  0
  -21.1515   -8.8641   19.9162 H   0  0  0  0  0  0  0  0  0  0  0  0
  -22.4016  -10.9115   19.6476 H   0  0  0  0  0  0  0  0  0  0  0  0
  -21.2319   -7.5552   23.9750 H   0  0  0  0  0  0  0  0  0  0  0  0
  -21.1589   -6.0228   25.8556 H   0  0  0  0  0  0  0  0  0  0  0  0
  -22.0396   -2.8212   23.2809 H   0  0  0  0  0  0  0  0  0  0  0  0
  -22.4401  -11.9703   22.4008 H   0  0  0  0  0  0  0  0  0  0  0  0
  -21.1493  -13.0679   22.2082 H   0  0  0  0  0  0  0  0  0  0  0  0
  -24.6538  -15.7807   20.5848 H   0  0  0  0  0  0  0  0  0  0  0  0
  -26.2762  -15.5453   20.1156 H   0  0  0  0  0  0  0  0  0  0  0  0
  -26.6778  -32.4663   23.1464 H   0  0  0  0  0  0  0  0  0  0  0  0
  -25.0747  -34.0282   25.0566 H   0  0  0  0  0  0  0  0  0  0  0  0
  -22.7881  -31.3489   21.4131 H   0  0  0  0  0  0  0  0  0  0  0  0
  -23.3854  -35.9823   23.3648 H   0  0  0  0  0  0  0  0  0  0  0  0
  -24.3696  -36.8624   22.2204 H   0  0  0  0  0  0  0  0  0  0  0  0
  -23.7669  -37.6632   23.6516 H   0  0  0  0  0  0  0  0  0  0  0  0
  -25.9445  -31.6237   20.5691 H   0  0  0  0  0  0  0  0  0  0  0  0
  -26.7436  -31.0079   22.0108 H   0  0  0  0  0  0  0  0  0  0  0  0
  -28.0090  -29.1452   21.2057 H   0  0  0  0  0  0  0  0  0  0  0  0
  -26.1369  -26.0560   19.0719 H   0  0  0  0  0  0  0  0  0  0  0  0
  -24.0652  -27.2961   19.0997 H   0  0  0  0  0  0  0  0  0  0  0  0
  -23.6156  -30.5365   19.3930 H   0  0  0  0  0  0  0  0  0  0  0  0
  -22.7355  -29.1425   19.9945 H   0  0  0  0  0  0  0  0  0  0  0  0
  -25.1353  -36.2335   25.0565 H   0  0  0  0  0  0  0  0  0  0  0  0
  -21.0070  -28.3206   24.0793 H   0  0  0  0  0  0  0  0  0  0  0  0
  -20.5555  -26.2518   23.3550 H   0  0  0  0  0  0  0  0  0  0  0  0
  -21.5974  -26.8362   22.0454 H   0  0  0  0  0  0  0  0  0  0  0  0
  -19.6810  -25.6422   21.1488 H   0  0  0  0  0  0  0  0  0  0  0  0
  -19.6406  -27.3343   20.7034 H   0  0  0  0  0  0  0  0  0  0  0  0
  -17.4282  -26.6888   21.4113 H   0  0  0  0  0  0  0  0  0  0  0  0
  -18.0803  -26.0130   22.9049 H   0  0  0  0  0  0  0  0  0  0  0  0
  -19.7265  -30.6774   24.2204 H   0  0  0  0  0  0  0  0  0  0  0  0
  -17.5064  -31.5856   24.4483 H   0  0  0  0  0  0  0  0  0  0  0  0
  -15.5878  -30.2839   23.7407 H   0  0  0  0  0  0  0  0  0  0  0  0
  -15.9120  -28.0941   22.7766 H   0  0  0  0  0  0  0  0  0  0  0  0
  -24.5787  -30.7757   25.6817 H   0  0  0  0  0  0  0  0  0  0  0  0
  -25.0041  -32.2289   26.5536 H   0  0  0  0  0  0  0  0  0  0  0  0
  -25.8166  -30.7245   26.9138 H   0  0  0  0  0  0  0  0  0  0  0  0
  -26.2892  -29.7335   24.0803 H   0  0  0  0  0  0  0  0  0  0  0  0
  -27.4336  -29.7484   25.4006 H   0  0  0  0  0  0  0  0  0  0  0  0
  -27.8466  -30.4994   23.8779 H   0  0  0  0  0  0  0  0  0  0  0  0
  -27.2251  -33.3632   26.1242 H   0  0  0  0  0  0  0  0  0  0  0  0
  -28.3902  -32.6065   25.0645 H   0  0  0  0  0  0  0  0  0  0  0  0
  -27.9772  -31.8555   26.5872 H   0  0  0  0  0  0  0  0  0  0  0  0
  -28.2744  -38.0016   24.6863 H   0  0  0  0  0  0  0  0  0  0  0  0
  -28.0396  -36.2711   24.7461 H   0  0  0  0  0  0  0  0  0  0  0  0
  -27.1773  -37.3087   25.8564 H   0  0  0  0  0  0  0  0  0  0  0  0
  -20.9627  -29.9365   21.7352 H   0  0  0  0  0  0  0  0  0  0  0  0
  -26.0447  -38.2561   24.0273 H   0  0  0  0  0  0  0  0  0  0  0  0
  -29.8837  -20.0791   20.3404 H   0  0  0  0  0  0  0  0  0  0  0  0
  -28.7457  -21.3875   22.0382 H   0  0  0  0  0  0  0  0  0  0  0  0
  -27.5452  -17.8478   23.9613 H   0  0  0  0  0  0  0  0  0  0  0  0
  -28.3746  -22.2814   24.1743 H   0  0  0  0  0  0  0  0  0  0  0  0
  -26.9121  -22.2531   23.2127 H   0  0  0  0  0  0  0  0  0  0  0  0
  -27.0832  -24.2221   26.2578 H   0  0  0  0  0  0  0  0  0  0  0  0
  -25.4478  -24.1568   25.6425 H   0  0  0  0  0  0  0  0  0  0  0  0
  -26.9446  -19.9816   24.8193 H   0  0  0  0  0  0  0  0  0  0  0  0
  -28.6660  -16.0482   19.3731 H   0  0  0  0  0  0  0  0  0  0  0  0
  1 25  1  0
  1 30  2  0
  1 82  1  0
  2  3  1  0
  2 25  1  0
  2 86  1  0
  2 87  1  0
  3  4  1  0
  3 88  1  0
  3 89  1  0
  4  5  1  0
  4 90  1  0
  4 91  1  0
  5  6  1  0
  5 26  1  0
  5 92  1  6
  6 25  1  0
  6 93  1  0
  6 94  1  0
  7  8  2  0
  7 26  1  0
  7 29  1  0
  8  9  1  0
  8 22  1  0
  9 10  1  0
  9 27  2  0
 10 11  2  0
 10 15  1  0
 11 12  1  0
 11 95  1  0
 12 13  2  0
 12 96  1  0
 13 14  1  0
 13 31  1  0
 14 15  2  0
 14 97  1  0
 15 98  1  0
 16 17  2  0
 16 21  1  0
 16 31  1  0
 17 18  1  0
 17 99  1  0
 18 19  2  0
 18100  1  0
 19 20  1  0
 19 24  1  0
 20 21  2  0
 20101  1  0
 21 23  1  0
 22 28  1  0
 22 32  2  0
 26 27  1  0
 28102  1  0
 28103  1  0
 29104  1  0
 29105  1  0
 33 34  1  0
 33 66  1  0
 33 70  2  0
 34 36  1  0
 34 59  1  0
 34106  1  6
 35 44  2  0
 35 45  1  0
 35 68  1  0
 36 56  1  0
 36107  1  0
 37 39  1  0
 37 47  1  0
 37 66  1  0
 37108  1  6
 38 43  2  0
 38 46  1  0
 38 47  1  0
 39 64  1  0
 39 67  2  0
 40 52  1  0
 40 53  2  0
 40 58  1  0
 41109  1  0
 41110  1  0
 41111  1  0
 42 43  1  0
 42 66  1  0
 42112  1  0
 42113  1  0
 43 44  1  0
 44114  1  0
 45 46  2  0
 45115  1  0
 46116  1  0
 47117  1  0
 47118  1  0
 48 41  1  0
 48 56  1  0
 48 65  1  0
 48119  1  1
 49 50  1  0
 49 53  1  0
 49 64  1  0
 49120  1  1
 50 51  1  0
 50121  1  0
 50122  1  0
 51 52  1  0
 51123  1  0
 51124  1  0
 52125  1  0
 52126  1  0
 53 54  1  0
 54 55  2  0
 54127  1  0
 55 57  1  0
 55128  1  0
 56 69  2  0
 57 58  2  0
 57129  1  0
 58130  1  0
 59 60  1  0
 59 61  1  0
 59 62  1  0
 60131  1  0
 60132  1  0
 60133  1  0
 61134  1  0
 61135  1  0
 61136  1  0
 62137  1  0
 62138  1  0
 62139  1  0
 63 65  1  0
 63140  1  0
 63141  1  0
 63142  1  0
 64143  1  0
 65144  1  0
 68 80  1  0
 71 72  2  0
 71 74  1  0
 71145  1  0
 72 75  1  0
 72146  1  0
 73 75  2  0
 73 76  1  0
 73147  1  0
 74 76  2  0
 74 77  1  0
 75 81  1  0
 76 85  1  0
 77 82  1  0
 77 83  2  0
 78 79  1  0
 78 80  1  0
 78 84  2  0
 79 81  1  0
 79148  1  0
 79149  1  0
 80150  1  0
 80151  1  0
 81152  1  0
 82153  1  0
M  ISO  4   1 100  68 101  80 101  82 100
M  END
$$$$
31
     RDKit          3D

157165  0  0  0  0  0  0  0  0999 V2000
  -30.7652  -14.3608   20.6636 C   0  0  0  0  0  0  0  0  0100  0  0
  -30.4392  -12.2669   19.3775 C   0  0  0  0  0  0  0  0  0101  0  0
  -29.4791  -12.5281   18.1977 C   0  0  0  0  0  0  0  0  0102  0  0
  -27.9985  -12.3963   18.6038 C   0  0  0  0  0  0  0  0  0103  0  0
  -27.6639  -13.2170   19.8820 C   0  0  2  0  0  0  0  0  0104  0  0
  -28.6795  -12.9602   21.0279 C   0  0  0  0  0  0  0  0  0105  0  0
  -25.2633  -13.8245   20.5754 C   0  0  0  0  0  0  0  0  0106  0  0
  -24.1645  -13.0409   20.9408 C   0  0  0  0  0  0  0  0  0107  0  0
  -24.6400  -11.7009   20.8697 C   0  0  0  0  0  0  0  0  0108  0  0
  -23.9005  -10.4085   21.0420 C   0  0  0  0  0  0  0  0  0109  0  0
  -24.3588   -9.4123   21.9123 C   0  0  0  0  0  0  0  0  0110  0  0
  -23.6296   -8.2350   22.0803 C   0  0  0  0  0  0  0  0  0111  0  0
  -22.4385   -8.0419   21.3657 C   0  0  0  0  0  0  0  0  0112  0  0
  -22.0103   -9.0167   20.4678 C   0  0  0  0  0  0  0  0  0113  0  0
  -22.7317  -10.1925   20.3102 C   0  0  0  0  0  0  0  0  0114  0  0
  -21.6857   -6.0709   22.5391 C   0  0  0  0  0  0  0  0  0115  0  0
  -21.4064   -6.5490   23.8264 C   0  0  0  0  0  0  0  0  0116  0  0
  -21.3635   -5.6677   24.9085 C   0  0  0  0  0  0  0  0  0117  0  0
  -21.5973   -4.3067   24.7088 C   0  0  0  0  0  0  0  0  0118  0  0
  -21.8700   -3.8284   23.4282 C   0  0  0  0  0  0  0  0  0119  0  0
  -21.9144   -4.7056   22.3460 C   0  0  0  0  0  0  0  0  0120  0  0
  -22.8194  -13.5263   21.1763 C   0  0  0  0  0  0  0  0  0121  0  0
  -22.1559   -4.2206   21.1063 F   0  0  0  0  0  0  0  0  0122  0  0
  -21.5628   -3.4510   25.7555 F   0  0  0  0  0  0  0  0  0123  0  0
  -30.0261  -13.1803   20.4553 N   0  0  0  0  0  0  0  0  0124  0  0
  -26.2911  -12.9356   20.3443 N   0  0  0  0  0  0  0  0  0125  0  0
  -25.9236  -11.6675   20.5847 N   0  0  0  0  0  0  0  0  0126  0  0
  -22.0708  -12.7905   22.0005 N   0  0  0  0  0  0  0  0  0127  0  0
  -25.4117  -15.1773   20.4097 N   0  0  0  0  0  0  0  0  0128  0  0
  -31.7916  -14.6724   20.0536 O   0  0  0  0  0  0  0  0  0129  0  0
  -21.6670   -6.9022   21.4423 O   0  0  0  0  0  0  0  0  0130  0  0
  -22.3946  -14.5564   20.6568 O   0  0  0  0  0  0  0  0  0131  0  0
  -24.6048  -31.8614   23.2223 C   0  0  0  0  0  0  0  0  0100  0  0
  -25.8822  -32.4841   23.8616 C   0  0  1  0  0  0  0  0  0101  0  0
  -27.2536  -27.5042   20.1156 C   0  0  0  0  0  0  0  0  0102  0  0
  -25.5726  -33.8762   24.2210 N   0  0  0  0  0  0  0  0  0103  0  0
  -23.4066  -30.4859   21.5461 C   0  0  2  0  0  0  0  0  0104  0  0
  -24.8467  -28.9636   20.1247 C   0  0  0  0  0  0  0  0  0105  0  0
  -22.7412  -29.4652   22.5052 C   0  0  0  0  0  0  0  0  0106  0  0
  -18.0167  -28.1302   22.8626 C   0  0  0  0  0  0  0  0  0107  0  0
  -24.1342  -36.7390   23.2568 C   0  0  0  0  0  0  0  0  0108  0  0
  -25.9141  -30.8882   21.3456 C   0  0  0  0  0  0  0  0  0109  0  0
  -25.9930  -29.5029   20.7208 C   0  0  0  0  0  0  0  0  0110  0  0
  -27.1758  -28.7612   20.7331 C   0  0  0  0  0  0  0  0  0111  0  0
  -26.1032  -26.9836   19.5230 C   0  0  0  0  0  0  0  0  0112  0  0
  -24.9097  -27.7011   19.5331 C   0  0  0  0  0  0  0  0  0113  0  0
  -23.5715  -29.7899   20.1582 C   0  0  0  0  0  0  0  0  0114  0  0
  -25.3990  -36.3212   24.0232 C   0  0  1  0  0  0  0  0  0115  0  0
  -20.5793  -28.3813   23.1004 C   0  0  2  0  0  0  0  0  0116  0  0
  -20.6548  -26.9392   22.5411 C   0  0  0  0  0  0  0  0  0117  0  0
  -19.5615  -26.6407   21.5143 C   0  0  0  0  0  0  0  0  0118  0  0
  -18.1797  -26.7818   22.1673 C   0  0  0  0  0  0  0  0  0119  0  0
  -19.1385  -28.8769   23.2988 C   0  0  0  0  0  0  0  0  0120  0  0
  -18.9183  -30.1286   23.8878 C   0  0  0  0  0  0  0  0  0121  0  0
  -17.6396  -30.6493   24.0352 C   0  0  0  0  0  0  0  0  0122  0  0
  -25.9153  -34.9582   23.4993 C   0  0  0  0  0  0  0  0  0123  0  0
  -16.5415  -29.9068   23.6254 C   0  0  0  0  0  0  0  0  0124  0  0
  -16.7331  -28.6521   23.0586 C   0  0  0  0  0  0  0  0  0125  0  0
  -26.4583  -31.6439   25.0683 C   0  0  0  0  0  0  0  0  0126  0  0
  -25.3807  -31.3179   26.1374 C   0  0  0  0  0  0  0  0  0127  0  0
  -27.0530  -30.3024   24.5680 C   0  0  0  0  0  0  0  0  0128  0  0
  -27.6014  -32.4281   25.7651 C   0  0  0  0  0  0  0  0  0129  0  0
  -27.5629  -37.2220   24.8621 C   0  0  0  0  0  0  0  0  0130  0  0
  -21.4133  -29.3375   22.3735 N   0  0  0  0  0  0  0  0  0131  0  0
  -26.4706  -37.3372   23.9061 N   0  0  0  0  0  0  0  0  0132  0  0
  -24.6674  -31.0544   22.1178 N   0  0  0  0  0  0  0  0  0133  0  0
  -23.4259  -28.8150   23.2971 O   0  0  0  0  0  0  0  0  0134  0  0
  -28.3948  -26.7345   20.0089 O   0  0  0  0  0  0  0  0  0135  0  0
  -26.5870  -34.9065   22.4671 O   0  0  0  0  0  0  0  0  0136  0  0
  -23.5365  -32.1254   23.7833 O   0  0  0  0  0  0  0  0  0137  0  0
  -26.5359  -28.4963   20.3660 C   0  0  0  0  0  0  0  0  0  0  0  0
  -24.9612  -27.1113   19.1663 C   0  0  0  0  0  0  0  0  0  0  0  0
  -24.1726  -28.9868   20.4692 C   0  0  0  0  0  0  0  0  0  0  0  0
  -25.4853  -29.2850   20.8346 C   0  0  0  0  0  0  0  0  0  0  0  0
  -26.2739  -27.4095   19.5318 C   0  0  0  0  0  0  0  0  0  0  0  0
  -23.9105  -27.9000   19.6351 C   0  0  0  0  0  0  0  0  0  0  0  0
  -23.0377  -29.8128   20.9557 C   0  0  0  0  0  0  0  0  0  0  0  0
  -25.7941  -30.4430   21.7266 C   0  0  0  0  0  0  0  0  0  0  0  0
  -29.3875  -25.3405   19.2269 C   0  0  0  0  0  0  0  0  0  0  0  0
  -28.6204  -26.5750   19.6847 C   0  0  0  0  0  0  0  0  0  0  0  0
  -28.7008  -24.0359   19.6135 C   0  0  0  0  0  0  0  0  0  1  0  0
  -27.3178  -26.6255   19.0658 N   0  0  0  0  0  0  0  0  0  0  0  0
  -22.0793  -29.1350   21.7096 N   0  0  0  0  0  0  0  0  0  0  0  0
  -23.0252  -31.0159   20.7102 O   0  0  0  0  0  0  0  0  0  0  0  0
  -22.6531  -27.6031   19.2767 F   0  0  0  0  0  0  0  0  0  0  0  0
  -31.4485  -12.4701   19.0860 H   0  0  0  0  0  0  0  0  0  0  0  0
  -30.3970  -11.2460   19.6950 H   0  0  0  0  0  0  0  0  0  0  0  0
  -29.6870  -11.8204   17.4226 H   0  0  0  0  0  0  0  0  0  0  0  0
  -29.6375  -13.5326   17.8649 H   0  0  0  0  0  0  0  0  0  0  0  0
  -27.7830  -11.3650   18.7904 H   0  0  0  0  0  0  0  0  0  0  0  0
  -27.4028  -12.7801   17.8021 H   0  0  0  0  0  0  0  0  0  0  0  0
  -27.7353  -14.2503   19.6136 H   0  0  0  0  0  0  0  0  0  0  0  0
  -28.5890  -11.9550   21.3832 H   0  0  0  0  0  0  0  0  0  0  0  0
  -28.5005  -13.6134   21.8562 H   0  0  0  0  0  0  0  0  0  0  0  0
  -25.2399   -9.5495   22.4318 H   0  0  0  0  0  0  0  0  0  0  0  0
  -23.9663   -7.5070   22.7297 H   0  0  0  0  0  0  0  0  0  0  0  0
  -21.1515   -8.8641   19.9162 H   0  0  0  0  0  0  0  0  0  0  0  0
  -22.4016  -10.9115   19.6476 H   0  0  0  0  0  0  0  0  0  0  0  0
  -21.2319   -7.5552   23.9750 H   0  0  0  0  0  0  0  0  0  0  0  0
  -21.1589   -6.0228   25.8556 H   0  0  0  0  0  0  0  0  0  0  0  0
  -22.0396   -2.8212   23.2809 H   0  0  0  0  0  0  0  0  0  0  0  0
  -22.4401  -11.9703   22.4008 H   0  0  0  0  0  0  0  0  0  0  0  0
  -21.1493  -13.0679   22.2082 H   0  0  0  0  0  0  0  0  0  0  0  0
  -24.6538  -15.7807   20.5848 H   0  0  0  0  0  0  0  0  0  0  0  0
  -26.2762  -15.5453   20.1156 H   0  0  0  0  0  0  0  0  0  0  0  0
  -26.6778  -32.4663   23.1464 H   0  0  0  0  0  0  0  0  0  0  0  0
  -25.0747  -34.0282   25.0566 H   0  0  0  0  0  0  0  0  0  0  0  0
  -22.7881  -31.3489   21.4131 H   0  0  0  0  0  0  0  0  0  0  0  0
  -23.3854  -35.9823   23.3648 H   0  0  0  0  0  0  0  0  0  0  0  0
  -24.3696  -36.8624   22.2204 H   0  0  0  0  0  0  0  0  0  0  0  0
  -23.7669  -37.6632   23.6516 H   0  0  0  0  0  0  0  0  0  0  0  0
  -25.9445  -31.6237   20.5691 H   0  0  0  0  0  0  0  0  0  0  0  0
  -26.7436  -31.0079   22.0108 H   0  0  0  0  0  0  0  0  0  0  0  0
  -28.0090  -29.1452   21.2057 H   0  0  0  0  0  0  0  0  0  0  0  0
  -26.1369  -26.0560   19.0719 H   0  0  0  0  0  0  0  0  0  0  0  0
  -24.0652  -27.2961   19.0997 H   0  0  0  0  0  0  0  0  0  0  0  0
  -23.6156  -30.5365   19.3930 H   0  0  0  0  0  0  0  0  0  0  0  0
  -22.7355  -29.1425   19.9945 H   0  0  0  0  0  0  0  0  0  0  0  0
  -25.1353  -36.2335   25.0565 H   0  0  0  0  0  0  0  0  0  0  0  0
  -21.0070  -28.3206   24.0793 H   0  0  0  0  0  0  0  0  0  0  0  0
  -20.5555  -26.2518   23.3550 H   0  0  0  0  0  0  0  0  0  0  0  0
  -21.5974  -26.8362   22.0454 H   0  0  0  0  0  0  0  0  0  0  0  0
  -19.6810  -25.6422   21.1488 H   0  0  0  0  0  0  0  0  0  0  0  0
  -19.6406  -27.3343   20.7034 H   0  0  0  0  0  0  0  0  0  0  0  0
  -17.4282  -26.6888   21.4113 H   0  0  0  0  0  0  0  0  0  0  0  0
  -18.0803  -26.0130   22.9049 H   0  0  0  0  0  0  0  0  0  0  0  0
  -19.7265  -30.6774   24.2204 H   0  0  0  0  0  0  0  0  0  0  0  0
  -17.5064  -31.5856   24.4483 H   0  0  0  0  0  0  0  0  0  0  0  0
  -15.5878  -30.2839   23.7407 H   0  0  0  0  0  0  0  0  0  0  0  0
  -15.9120  -28.0941   22.7766 H   0  0  0  0  0  0  0  0  0  0  0  0
  -24.5787  -30.7757   25.6817 H   0  0  0  0  0  0  0  0  0  0  0  0
  -25.0041  -32.2289   26.5536 H   0  0  0  0  0  0  0  0  0  0  0  0
  -25.8166  -30.7245   26.9138 H   0  0  0  0  0  0  0  0  0  0  0  0
  -26.2892  -29.7335   24.0803 H   0  0  0  0  0  0  0  0  0  0  0  0
  -27.4336  -29.7484   25.4006 H   0  0  0  0  0  0  0  0  0  0  0  0
  -27.8466  -30.4994   23.8779 H   0  0  0  0  0  0  0  0  0  0  0  0
  -27.2251  -33.3632   26.1242 H   0  0  0  0  0  0  0  0  0  0  0  0
  -28.3902  -32.6065   25.0645 H   0  0  0  0  0  0  0  0  0  0  0  0
  -27.9772  -31.8555   26.5872 H   0  0  0  0  0  0  0  0  0  0  0  0
  -28.2744  -38.0016   24.6863 H   0  0  0  0  0  0  0  0  0  0  0  0
  -28.0396  -36.2711   24.7461 H   0  0  0  0  0  0  0  0  0  0  0  0
  -27.1773  -37.3087   25.8564 H   0  0  0  0  0  0  0  0  0  0  0  0
  -20.9627  -29.9365   21.7352 H   0  0  0  0  0  0  0  0  0  0  0  0
  -26.0447  -38.2561   24.0273 H   0  0  0  0  0  0  0  0  0  0  0  0
  -27.5071  -28.7168   20.6365 H   0  0  0  0  0  0  0  0  0  0  0  0
  -24.7674  -26.3072   18.5491 H   0  0  0  0  0  0  0  0  0  0  0  0
  -26.8508  -30.4995   21.8848 H   0  0  0  0  0  0  0  0  0  0  0  0
  -25.2994  -30.3113   22.6662 H   0  0  0  0  0  0  0  0  0  0  0  0
  -25.4533  -31.3475   21.2677 H   0  0  0  0  0  0  0  0  0  0  0  0
  -30.3603  -25.3589   19.6722 H   0  0  0  0  0  0  0  0  0  0  0  0
  -29.4369  -25.3721   18.1585 H   0  0  0  0  0  0  0  0  0  0  0  0
  -29.1718  -27.4513   19.4144 H   0  0  0  0  0  0  0  0  0  0  0  0
  -28.4950  -26.5277   20.7463 H   0  0  0  0  0  0  0  0  0  0  0  0
  -29.0855  -23.3806   20.3669 H   0  0  0  0  0  0  0  0  0  0  0  0
  -28.2128  -23.1790   19.1982 H   0  0  0  0  0  0  0  0  0  0  0  0
  -27.1616  -26.0716   18.2671 H   0  0  0  0  0  0  0  0  0  0  0  0
  -21.2328  -29.4008   22.1363 H   0  0  0  0  0  0  0  0  0  0  0  0
  1 25  1  0
  1 30  2  0
  1 83  1  0
  2  3  1  0
  2 25  1  0
  2 86  1  0
  2 87  1  0
  3  4  1  0
  3 88  1  0
  3 89  1  0
  4  5  1  0
  4 90  1  0
  4 91  1  0
  5  6  1  0
  5 26  1  0
  5 92  1  6
  6 25  1  0
  6 93  1  0
  6 94  1  0
  7  8  2  0
  7 26  1  0
  7 29  1  0
  8  9  1  0
  8 22  1  0
  9 10  1  0
  9 27  2  0
 10 11  2  0
 10 15  1  0
 11 12  1  0
 11 95  1  0
 12 13  2  0
 12 96  1  0
 13 14  1  0
 13 31  1  0
 14 15  2  0
 14 97  1  0
 15 98  1  0
 16 17  2  0
 16 21  1  0
 16 31  1  0
 17 18  1  0
 17 99  1  0
 18 19  2  0
 18100  1  0
 19 20  1  0
 19 24  1  0
 20 21  2  0
 20101  1  0
 21 23  1  0
 22 28  1  0
 22 32  2  0
 26 27  1  0
 28102  1  0
 28103  1  0
 29104  1  0
 29105  1  0
 33 34  1  0
 33 66  1  0
 33 70  2  0
 34 36  1  0
 34 59  1  0
 34106  1  6
 35 44  2  0
 35 45  1  0
 35 68  1  0
 36 56  1  0
 36107  1  0
 37 39  1  0
 37 47  1  0
 37 66  1  0
 37108  1  6
 38 43  2  0
 38 46  1  0
 38 47  1  0
 39 64  1  0
 39 67  2  0
 40 52  1  0
 40 53  2  0
 40 58  1  0
 41109  1  0
 41110  1  0
 41111  1  0
 42 43  1  0
 42 66  1  0
 42112  1  0
 42113  1  0
 43 44  1  0
 44114  1  0
 45 46  2  0
 45115  1  0
 46116  1  0
 47117  1  0
 47118  1  0
 48 41  1  0
 48 56  1  0
 48 65  1  0
 48119  1  1
 49 50  1  0
 49 53  1  0
 49 64  1  0
 49120  1  1
 50 51  1  0
 50121  1  0
 50122  1  0
 51 52  1  0
 51123  1  0
 51124  1  0
 52125  1  0
 52126  1  0
 53 54  1  0
 54 55  2  0
 54127  1  0
 55 57  1  0
 55128  1  0
 56 69  2  0
 57 58  2  0
 57129  1  0
 58130  1  0
 59 60  1  0
 59 61  1  0
 59 62  1  0
 60131  1  0
 60132  1  0
 60133  1  0
 61134  1  0
 61135  1  0
 61136  1  0
 62137  1  0
 62138  1  0
 62139  1  0
 63 65  1  0
 63140  1  0
 63141  1  0
 63142  1  0
 64143  1  0
 65144  1  0
 68 81  1  0
 71 74  2  0
 71 75  1  0
 71145  1  0
 72 75  2  0
 72 76  1  0
 72146  1  0
 73 74  1  0
 73 76  2  0
 73 77  1  0
 74 78  1  0
 75 82  1  0
 76 85  1  0
 77 83  1  0
 77 84  2  0
 78147  1  0
 78148  1  0
 78149  1  0
 79 80  1  0
 79 81  1  0
 79150  1  0
 79151  1  0
 80 82  1  0
 80152  1  0
 80153  1  0
 81154  1  0
 81155  1  0
 82156  1  0
 83157  1  0
M  ISO  4   1 100  68 101  81 101  83 100
M  END
$$$$
32
     RDKit          3D

167176  0  0  0  0  0  0  0  0999 V2000
  -30.7652  -14.3608   20.6636 C   0  0  0  0  0  0  0  0  0100  0  0
  -30.4392  -12.2669   19.3775 C   0  0  0  0  0  0  0  0  0101  0  0
  -29.4791  -12.5281   18.1977 C   0  0  0  0  0  0  0  0  0102  0  0
  -27.9985  -12.3963   18.6038 C   0  0  0  0  0  0  0  0  0103  0  0
  -27.6639  -13.2170   19.8820 C   0  0  2  0  0  0  0  0  0104  0  0
  -28.6795  -12.9602   21.0279 C   0  0  0  0  0  0  0  0  0105  0  0
  -25.2633  -13.8245   20.5754 C   0  0  0  0  0  0  0  0  0106  0  0
  -24.1645  -13.0409   20.9408 C   0  0  0  0  0  0  0  0  0107  0  0
  -24.6400  -11.7009   20.8697 C   0  0  0  0  0  0  0  0  0108  0  0
  -23.9005  -10.4085   21.0420 C   0  0  0  0  0  0  0  0  0109  0  0
  -24.3588   -9.4123   21.9123 C   0  0  0  0  0  0  0  0  0110  0  0
  -23.6296   -8.2350   22.0803 C   0  0  0  0  0  0  0  0  0111  0  0
  -22.4385   -8.0419   21.3657 C   0  0  0  0  0  0  0  0  0112  0  0
  -22.0103   -9.0167   20.4678 C   0  0  0  0  0  0  0  0  0113  0  0
  -22.7317  -10.1925   20.3102 C   0  0  0  0  0  0  0  0  0114  0  0
  -21.6857   -6.0709   22.5391 C   0  0  0  0  0  0  0  0  0115  0  0
  -21.4064   -6.5490   23.8264 C   0  0  0  0  0  0  0  0  0116  0  0
  -21.3635   -5.6677   24.9085 C   0  0  0  0  0  0  0  0  0117  0  0
  -21.5973   -4.3067   24.7088 C   0  0  0  0  0  0  0  0  0118  0  0
  -21.8700   -3.8284   23.4282 C   0  0  0  0  0  0  0  0  0119  0  0
  -21.9144   -4.7056   22.3460 C   0  0  0  0  0  0  0  0  0120  0  0
  -22.8194  -13.5263   21.1763 C   0  0  0  0  0  0  0  0  0121  0  0
  -22.1559   -4.2206   21.1063 F   0  0  0  0  0  0  0  0  0122  0  0
  -21.5628   -3.4510   25.7555 F   0  0  0  0  0  0  0  0  0123  0  0
  -30.0261  -13.1803   20.4553 N   0  0  0  0  0  0  0  0  0124  0  0
  -26.2911  -12.9356   20.3443 N   0  0  0  0  0  0  0  0  0125  0  0
  -25.9236  -11.6675   20.5847 N   0  0  0  0  0  0  0  0  0126  0  0
  -22.0708  -12.7905   22.0005 N   0  0  0  0  0  0  0  0  0127  0  0
  -25.4117  -15.1773   20.4097 N   0  0  0  0  0  0  0  0  0128  0  0
  -31.7916  -14.6724   20.0536 O   0  0  0  0  0  0  0  0  0129  0  0
  -21.6670   -6.9022   21.4423 O   0  0  0  0  0  0  0  0  0130  0  0
  -22.3946  -14.5564   20.6568 O   0  0  0  0  0  0  0  0  0131  0  0
  -24.6048  -31.8614   23.2223 C   0  0  0  0  0  0  0  0  0100  0  0
  -25.8822  -32.4841   23.8616 C   0  0  1  0  0  0  0  0  0101  0  0
  -27.2536  -27.5042   20.1156 C   0  0  0  0  0  0  0  0  0102  0  0
  -25.5726  -33.8762   24.2210 N   0  0  0  0  0  0  0  0  0103  0  0
  -23.4066  -30.4859   21.5461 C   0  0  2  0  0  0  0  0  0104  0  0
  -24.8467  -28.9636   20.1247 C   0  0  0  0  0  0  0  0  0105  0  0
  -22.7412  -29.4652   22.5052 C   0  0  0  0  0  0  0  0  0106  0  0
  -18.0167  -28.1302   22.8626 C   0  0  0  0  0  0  0  0  0107  0  0
  -24.1342  -36.7390   23.2568 C   0  0  0  0  0  0  0  0  0108  0  0
  -25.9141  -30.8882   21.3456 C   0  0  0  0  0  0  0  0  0109  0  0
  -25.9930  -29.5029   20.7208 C   0  0  0  0  0  0  0  0  0110  0  0
  -27.1758  -28.7612   20.7331 C   0  0  0  0  0  0  0  0  0111  0  0
  -26.1032  -26.9836   19.5230 C   0  0  0  0  0  0  0  0  0112  0  0
  -24.9097  -27.7011   19.5331 C   0  0  0  0  0  0  0  0  0113  0  0
  -23.5715  -29.7899   20.1582 C   0  0  0  0  0  0  0  0  0114  0  0
  -25.3990  -36.3212   24.0232 C   0  0  1  0  0  0  0  0  0115  0  0
  -20.5793  -28.3813   23.1004 C   0  0  2  0  0  0  0  0  0116  0  0
  -20.6548  -26.9392   22.5411 C   0  0  0  0  0  0  0  0  0117  0  0
  -19.5615  -26.6407   21.5143 C   0  0  0  0  0  0  0  0  0118  0  0
  -18.1797  -26.7818   22.1673 C   0  0  0  0  0  0  0  0  0119  0  0
  -19.1385  -28.8769   23.2988 C   0  0  0  0  0  0  0  0  0120  0  0
  -18.9183  -30.1286   23.8878 C   0  0  0  0  0  0  0  0  0121  0  0
  -17.6396  -30.6493   24.0352 C   0  0  0  0  0  0  0  0  0122  0  0
  -25.9153  -34.9582   23.4993 C   0  0  0  0  0  0  0  0  0123  0  0
  -16.5415  -29.9068   23.6254 C   0  0  0  0  0  0  0  0  0124  0  0
  -16.7331  -28.6521   23.0586 C   0  0  0  0  0  0  0  0  0125  0  0
  -26.4583  -31.6439   25.0683 C   0  0  0  0  0  0  0  0  0126  0  0
  -25.3807  -31.3179   26.1374 C   0  0  0  0  0  0  0  0  0127  0  0
  -27.0530  -30.3024   24.5680 C   0  0  0  0  0  0  0  0  0128  0  0
  -27.6014  -32.4281   25.7651 C   0  0  0  0  0  0  0  0  0129  0  0
  -27.5629  -37.2220   24.8621 C   0  0  0  0  0  0  0  0  0130  0  0
  -21.4133  -29.3375   22.3735 N   0  0  0  0  0  0  0  0  0131  0  0
  -26.4706  -37.3372   23.9061 N   0  0  0  0  0  0  0  0  0132  0  0
  -24.6674  -31.0544   22.1178 N   0  0  0  0  0  0  0  0  0133  0  0
  -23.4259  -28.8150   23.2971 O   0  0  0  0  0  0  0  0  0134  0  0
  -28.3948  -26.7345   20.0089 O   0  0  0  0  0  0  0  0  0135  0  0
  -26.5870  -34.9065   22.4671 O   0  0  0  0  0  0  0  0  0136  0  0
  -23.5365  -32.1254   23.7833 O   0  0  0  0  0  0  0  0  0137  0  0
  -31.1811  -19.8288   17.3074 C   0  0  0  0  0  0  0  0  0  0  0  0
  -31.3364  -21.2110   17.4115 C   0  0  0  0  0  0  0  0  0  0  0  0
  -28.9545  -21.4543   17.7347 C   0  0  0  0  0  0  0  0  0  0  0  0
  -29.9124  -19.2593   17.4169 C   0  0  0  0  0  0  0  0  0  0  0  0
  -30.2231  -22.0238   17.6252 C   0  0  0  0  0  0  0  0  0  0  0  0
  -28.7992  -20.0720   17.6306 C   0  0  0  0  0  0  0  0  0  0  0  0
  -31.3685  -24.2204   17.1012 C   0  0  0  0  0  0  0  0  0  0  0  0
  -31.0739  -25.6666   17.4278 C   0  0  0  0  0  0  0  0  0  0  0  0
  -29.4502  -24.2664   18.4721 C   0  0  0  0  0  0  0  0  0  0  0  0
  -30.1912  -25.5807   18.6647 C   0  0  2  0  0  0  0  0  0  0  0  0
  -28.4633  -17.1607   13.6678 C   0  0  0  0  0  0  0  0  0  0  0  0
  -29.2632  -26.7728   18.8218 C   0  0  0  0  0  0  0  0  0  1  0  0
  -29.3543  -17.7004   14.7760 C   0  0  0  0  0  0  0  0  0  0  0  0
  -28.8215  -17.3135   16.1589 C   0  0  0  0  0  0  0  0  0  0  0  0
  -29.7510  -17.7805   17.3068 C   0  0  2  0  0  0  0  0  0  0  0  0
  -30.3817  -23.4380   17.7298 N   0  0  0  0  0  0  0  0  0  0  0  0
  -29.2897  -17.2080   18.5519 N   0  0  0  0  0  0  0  0  0  0  0  0
  -32.2860  -23.8881   16.3646 O   0  0  0  0  0  0  0  0  0  0  0  0
  -27.5762  -19.5341   17.7372 F   0  0  0  0  0  0  0  0  0  0  0  0
  -31.4485  -12.4701   19.0860 H   0  0  0  0  0  0  0  0  0  0  0  0
  -30.3970  -11.2460   19.6950 H   0  0  0  0  0  0  0  0  0  0  0  0
  -29.6870  -11.8204   17.4226 H   0  0  0  0  0  0  0  0  0  0  0  0
  -29.6375  -13.5326   17.8649 H   0  0  0  0  0  0  0  0  0  0  0  0
  -27.7830  -11.3650   18.7904 H   0  0  0  0  0  0  0  0  0  0  0  0
  -27.4028  -12.7801   17.8021 H   0  0  0  0  0  0  0  0  0  0  0  0
  -27.7353  -14.2503   19.6136 H   0  0  0  0  0  0  0  0  0  0  0  0
  -28.5890  -11.9550   21.3832 H   0  0  0  0  0  0  0  0  0  0  0  0
  -28.5005  -13.6134   21.8562 H   0  0  0  0  0  0  0  0  0  0  0  0
  -25.2399   -9.5495   22.4318 H   0  0  0  0  0  0  0  0  0  0  0  0
  -23.9663   -7.5070   22.7297 H   0  0  0  0  0  0  0  0  0  0  0  0
  -21.1515   -8.8641   19.9162 H   0  0  0  0  0  0  0  0  0  0  0  0
  -22.4016  -10.9115   19.6476 H   0  0  0  0  0  0  0  0  0  0  0  0
  -21.2319   -7.5552   23.9750 H   0  0  0  0  0  0  0  0  0  0  0  0
  -21.1589   -6.0228   25.8556 H   0  0  0  0  0  0  0  0  0  0  0  0
  -22.0396   -2.8212   23.2809 H   0  0  0  0  0  0  0  0  0  0  0  0
  -22.4401  -11.9703   22.4008 H   0  0  0  0  0  0  0  0  0  0  0  0
  -21.1493  -13.0679   22.2082 H   0  0  0  0  0  0  0  0  0  0  0  0
  -24.6538  -15.7807   20.5848 H   0  0  0  0  0  0  0  0  0  0  0  0
  -26.2762  -15.5453   20.1156 H   0  0  0  0  0  0  0  0  0  0  0  0
  -26.6778  -32.4663   23.1464 H   0  0  0  0  0  0  0  0  0  0  0  0
  -25.0747  -34.0282   25.0566 H   0  0  0  0  0  0  0  0  0  0  0  0
  -22.7881  -31.3489   21.4131 H   0  0  0  0  0  0  0  0  0  0  0  0
  -23.3854  -35.9823   23.3648 H   0  0  0  0  0  0  0  0  0  0  0  0
  -24.3696  -36.8624   22.2204 H   0  0  0  0  0  0  0  0  0  0  0  0
  -23.7669  -37.6632   23.6516 H   0  0  0  0  0  0  0  0  0  0  0  0
  -25.9445  -31.6237   20.5691 H   0  0  0  0  0  0  0  0  0  0  0  0
  -26.7436  -31.0079   22.0108 H   0  0  0  0  0  0  0  0  0  0  0  0
  -28.0090  -29.1452   21.2057 H   0  0  0  0  0  0  0  0  0  0  0  0
  -26.1369  -26.0560   19.0719 H   0  0  0  0  0  0  0  0  0  0  0  0
  -24.0652  -27.2961   19.0997 H   0  0  0  0  0  0  0  0  0  0  0  0
  -23.6156  -30.5365   19.3930 H   0  0  0  0  0  0  0  0  0  0  0  0
  -22.7355  -29.1425   19.9945 H   0  0  0  0  0  0  0  0  0  0  0  0
  -25.1353  -36.2335   25.0565 H   0  0  0  0  0  0  0  0  0  0  0  0
  -21.0070  -28.3206   24.0793 H   0  0  0  0  0  0  0  0  0  0  0  0
  -20.5555  -26.2518   23.3550 H   0  0  0  0  0  0  0  0  0  0  0  0
  -21.5974  -26.8362   22.0454 H   0  0  0  0  0  0  0  0  0  0  0  0
  -19.6810  -25.6422   21.1488 H   0  0  0  0  0  0  0  0  0  0  0  0
  -19.6406  -27.3343   20.7034 H   0  0  0  0  0  0  0  0  0  0  0  0
  -17.4282  -26.6888   21.4113 H   0  0  0  0  0  0  0  0  0  0  0  0
  -18.0803  -26.0130   22.9049 H   0  0  0  0  0  0  0  0  0  0  0  0
  -19.7265  -30.6774   24.2204 H   0  0  0  0  0  0  0  0  0  0  0  0
  -17.5064  -31.5856   24.4483 H   0  0  0  0  0  0  0  0  0  0  0  0
  -15.5878  -30.2839   23.7407 H   0  0  0  0  0  0  0  0  0  0  0  0
  -15.9120  -28.0941   22.7766 H   0  0  0  0  0  0  0  0  0  0  0  0
  -24.5787  -30.7757   25.6817 H   0  0  0  0  0  0  0  0  0  0  0  0
  -25.0041  -32.2289   26.5536 H   0  0  0  0  0  0  0  0  0  0  0  0
  -25.8166  -30.7245   26.9138 H   0  0  0  0  0  0  0  0  0  0  0  0
  -26.2892  -29.7335   24.0803 H   0  0  0  0  0  0  0  0  0  0  0  0
  -27.4336  -29.7484   25.4006 H   0  0  0  0  0  0  0  0  0  0  0  0
  -27.8466  -30.4994   23.8779 H   0  0  0  0  0  0  0  0  0  0  0  0
  -27.2251  -33.3632   26.1242 H   0  0  0  0  0  0  0  0  0  0  0  0
  -28.3902  -32.6065   25.0645 H   0  0  0  0  0  0  0  0  0  0  0  0
  -27.9772  -31.8555   26.5872 H   0  0  0  0  0  0  0  0  0  0  0  0
  -28.2744  -38.0016   24.6863 H   0  0  0  0  0  0  0  0  0  0  0  0
  -28.0396  -36.2711   24.7461 H   0  0  0  0  0  0  0  0  0  0  0  0
  -27.1773  -37.3087   25.8564 H   0  0  0  0  0  0  0  0  0  0  0  0
  -20.9627  -29.9365   21.7352 H   0  0  0  0  0  0  0  0  0  0  0  0
  -26.0447  -38.2561   24.0273 H   0  0  0  0  0  0  0  0  0  0  0  0
  -32.0048  -19.2274   17.1494 H   0  0  0  0  0  0  0  0  0  0  0  0
  -32.2750  -21.6323   17.3304 H   0  0  0  0  0  0  0  0  0  0  0  0
  -28.1308  -22.0556   17.8927 H   0  0  0  0  0  0  0  0  0  0  0  0
  -30.5564  -26.1428   16.6213 H   0  0  0  0  0  0  0  0  0  0  0  0
  -31.9593  -26.2457   17.5879 H   0  0  0  0  0  0  0  0  0  0  0  0
  -28.5491  -24.4169   17.9151 H   0  0  0  0  0  0  0  0  0  0  0  0
  -29.1561  -23.8220   19.3999 H   0  0  0  0  0  0  0  0  0  0  0  0
  -30.7548  -25.6055   19.5739 H   0  0  0  0  0  0  0  0  0  0  0  0
  -28.8625  -17.4479   12.7175 H   0  0  0  0  0  0  0  0  0  0  0  0
  -27.4770  -17.5613   13.7762 H   0  0  0  0  0  0  0  0  0  0  0  0
  -28.4235  -16.0933   13.7301 H   0  0  0  0  0  0  0  0  0  0  0  0
  -28.6379  -26.8228   17.9550 H   0  0  0  0  0  0  0  0  0  0  0  0
  -29.8944  -27.6285   18.9413 H   0  0  0  0  0  0  0  0  0  0  0  0
  -29.3927  -18.7673   14.7035 H   0  0  0  0  0  0  0  0  0  0  0  0
  -30.3301  -17.2770   14.6602 H   0  0  0  0  0  0  0  0  0  0  0  0
  -28.7285  -16.2485   16.2048 H   0  0  0  0  0  0  0  0  0  0  0  0
  -27.8764  -17.7978   16.2895 H   0  0  0  0  0  0  0  0  0  0  0  0
  -30.7324  -17.4247   17.0721 H   0  0  0  0  0  0  0  0  0  0  0  0
  -28.4685  -17.6115   18.9152 H   0  0  0  0  0  0  0  0  0  0  0  0
  1 25  1  0
  1 30  2  0
  1 87  1  0
  2  3  1  0
  2 25  1  0
  2 90  1  0
  2 91  1  0
  3  4  1  0
  3 92  1  0
  3 93  1  0
  4  5  1  0
  4 94  1  0
  4 95  1  0
  5  6  1  0
  5 26  1  0
  5 96  1  6
  6 25  1  0
  6 97  1  0
  6 98  1  0
  7  8  2  0
  7 26  1  0
  7 29  1  0
  8  9  1  0
  8 22  1  0
  9 10  1  0
  9 27  2  0
 10 11  2  0
 10 15  1  0
 11 12  1  0
 11 99  1  0
 12 13  2  0
 12100  1  0
 13 14  1  0
 13 31  1  0
 14 15  2  0
 14101  1  0
 15102  1  0
 16 17  2  0
 16 21  1  0
 16 31  1  0
 17 18  1  0
 17103  1  0
 18 19  2  0
 18104  1  0
 19 20  1  0
 19 24  1  0
 20 21  2  0
 20105  1  0
 21 23  1  0
 22 28  1  0
 22 32  2  0
 26 27  1  0
 28106  1  0
 28107  1  0
 29108  1  0
 29109  1  0
 33 34  1  0
 33 66  1  0
 33 70  2  0
 34 36  1  0
 34 59  1  0
 34110  1  6
 35 44  2  0
 35 45  1  0
 35 68  1  0
 36 56  1  0
 36111  1  0
 37 39  1  0
 37 47  1  0
 37 66  1  0
 37112  1  6
 38 43  2  0
 38 46  1  0
 38 47  1  0
 39 64  1  0
 39 67  2  0
 40 52  1  0
 40 53  2  0
 40 58  1  0
 41113  1  0
 41114  1  0
 41115  1  0
 42 43  1  0
 42 66  1  0
 42116  1  0
 42117  1  0
 43 44  1  0
 44118  1  0
 45 46  2  0
 45119  1  0
 46120  1  0
 47121  1  0
 47122  1  0
 48 41  1  0
 48 56  1  0
 48 65  1  0
 48123  1  1
 49 50  1  0
 49 53  1  0
 49 64  1  0
 49124  1  1
 50 51  1  0
 50125  1  0
 50126  1  0
 51 52  1  0
 51127  1  0
 51128  1  0
 52129  1  0
 52130  1  0
 53 54  1  0
 54 55  2  0
 54131  1  0
 55 57  1  0
 55132  1  0
 56 69  2  0
 57 58  2  0
 57133  1  0
 58134  1  0
 59 60  1  0
 59 61  1  0
 59 62  1  0
 60135  1  0
 60136  1  0
 60137  1  0
 61138  1  0
 61139  1  0
 61140  1  0
 62141  1  0
 62142  1  0
 62143  1  0
 63 65  1  0
 63144  1  0
 63145  1  0
 63146  1  0
 64147  1  0
 65148  1  0
 68 82  1  0
 71 72  2  0
 71 74  1  0
 71149  1  0
 72 75  1  0
 72150  1  0
 73 75  2  0
 73 76  1  0
 73151  1  0
 74 76  2  0
 74 85  1  0
 75 86  1  0
 76 89  1  0
 77 78  1  0
 77 86  1  0
 77 88  2  0
 78 80  1  0
 78152  1  0
 78153  1  0
 79 80  1  0
 79 86  1  0
 79154  1  0
 79155  1  0
 80 82  1  0
 80156  1  1
 81 83  1  0
 81157  1  0
 81158  1  0
 81159  1  0
 82160  1  0
 82161  1  0
 83 84  1  0
 83162  1  0
 83163  1  0
 84164  1  0
 84165  1  0
 85 84  1  0
 85 87  1  0
 85166  1  6
 87167  1  0
M  ISO  4   1 100  68 101  82 101  87 100
M  END
$$$$
33
     RDKit          3D

164173  0  0  0  0  0  0  0  0999 V2000
  -30.7652  -14.3608   20.6636 C   0  0  0  0  0  0  0  0  0100  0  0
  -30.4392  -12.2669   19.3775 C   0  0  0  0  0  0  0  0  0101  0  0
  -29.4791  -12.5281   18.1977 C   0  0  0  0  0  0  0  0  0102  0  0
  -27.9985  -12.3963   18.6038 C   0  0  0  0  0  0  0  0  0103  0  0
  -27.6639  -13.2170   19.8820 C   0  0  2  0  0  0  0  0  0104  0  0
  -28.6795  -12.9602   21.0279 C   0  0  0  0  0  0  0  0  0105  0  0
  -25.2633  -13.8245   20.5754 C   0  0  0  0  0  0  0  0  0106  0  0
  -24.1645  -13.0409   20.9408 C   0  0  0  0  0  0  0  0  0107  0  0
  -24.6400  -11.7009   20.8697 C   0  0  0  0  0  0  0  0  0108  0  0
  -23.9005  -10.4085   21.0420 C   0  0  0  0  0  0  0  0  0109  0  0
  -24.3588   -9.4123   21.9123 C   0  0  0  0  0  0  0  0  0110  0  0
  -23.6296   -8.2350   22.0803 C   0  0  0  0  0  0  0  0  0111  0  0
  -22.4385   -8.0419   21.3657 C   0  0  0  0  0  0  0  0  0112  0  0
  -22.0103   -9.0167   20.4678 C   0  0  0  0  0  0  0  0  0113  0  0
  -22.7317  -10.1925   20.3102 C   0  0  0  0  0  0  0  0  0114  0  0
  -21.6857   -6.0709   22.5391 C   0  0  0  0  0  0  0  0  0115  0  0
  -21.4064   -6.5490   23.8264 C   0  0  0  0  0  0  0  0  0116  0  0
  -21.3635   -5.6677   24.9085 C   0  0  0  0  0  0  0  0  0117  0  0
  -21.5973   -4.3067   24.7088 C   0  0  0  0  0  0  0  0  0118  0  0
  -21.8700   -3.8284   23.4282 C   0  0  0  0  0  0  0  0  0119  0  0
  -21.9144   -4.7056   22.3460 C   0  0  0  0  0  0  0  0  0120  0  0
  -22.8194  -13.5263   21.1763 C   0  0  0  0  0  0  0  0  0121  0  0
  -22.1559   -4.2206   21.1063 F   0  0  0  0  0  0  0  0  0122  0  0
  -21.5628   -3.4510   25.7555 F   0  0  0  0  0  0  0  0  0123  0  0
  -30.0261  -13.1803   20.4553 N   0  0  0  0  0  0  0  0  0124  0  0
  -26.2911  -12.9356   20.3443 N   0  0  0  0  0  0  0  0  0125  0  0
  -25.9236  -11.6675   20.5847 N   0  0  0  0  0  0  0  0  0126  0  0
  -22.0708  -12.7905   22.0005 N   0  0  0  0  0  0  0  0  0127  0  0
  -25.4117  -15.1773   20.4097 N   0  0  0  0  0  0  0  0  0128  0  0
  -31.7916  -14.6724   20.0536 O   0  0  0  0  0  0  0  0  0129  0  0
  -21.6670   -6.9022   21.4423 O   0  0  0  0  0  0  0  0  0130  0  0
  -22.3946  -14.5564   20.6568 O   0  0  0  0  0  0  0  0  0131  0  0
  -24.6048  -31.8614   23.2223 C   0  0  0  0  0  0  0  0  0100  0  0
  -25.8822  -32.4841   23.8616 C   0  0  1  0  0  0  0  0  0101  0  0
  -27.2536  -27.5042   20.1156 C   0  0  0  0  0  0  0  0  0102  0  0
  -25.5726  -33.8762   24.2210 N   0  0  0  0  0  0  0  0  0103  0  0
  -23.4066  -30.4859   21.5461 C   0  0  2  0  0  0  0  0  0104  0  0
  -24.8467  -28.9636   20.1247 C   0  0  0  0  0  0  0  0  0105  0  0
  -22.7412  -29.4652   22.5052 C   0  0  0  0  0  0  0  0  0106  0  0
  -18.0167  -28.1302   22.8626 C   0  0  0  0  0  0  0  0  0107  0  0
  -24.1342  -36.7390   23.2568 C   0  0  0  0  0  0  0  0  0108  0  0
  -25.9141  -30.8882   21.3456 C   0  0  0  0  0  0  0  0  0109  0  0
  -25.9930  -29.5029   20.7208 C   0  0  0  0  0  0  0  0  0110  0  0
  -27.1758  -28.7612   20.7331 C   0  0  0  0  0  0  0  0  0111  0  0
  -26.1032  -26.9836   19.5230 C   0  0  0  0  0  0  0  0  0112  0  0
  -24.9097  -27.7011   19.5331 C   0  0  0  0  0  0  0  0  0113  0  0
  -23.5715  -29.7899   20.1582 C   0  0  0  0  0  0  0  0  0114  0  0
  -25.3990  -36.3212   24.0232 C   0  0  1  0  0  0  0  0  0115  0  0
  -20.5793  -28.3813   23.1004 C   0  0  2  0  0  0  0  0  0116  0  0
  -20.6548  -26.9392   22.5411 C   0  0  0  0  0  0  0  0  0117  0  0
  -19.5615  -26.6407   21.5143 C   0  0  0  0  0  0  0  0  0118  0  0
  -18.1797  -26.7818   22.1673 C   0  0  0  0  0  0  0  0  0119  0  0
  -19.1385  -28.8769   23.2988 C   0  0  0  0  0  0  0  0  0120  0  0
  -18.9183  -30.1286   23.8878 C   0  0  0  0  0  0  0  0  0121  0  0
  -17.6396  -30.6493   24.0352 C   0  0  0  0  0  0  0  0  0122  0  0
  -25.9153  -34.9582   23.4993 C   0  0  0  0  0  0  0  0  0123  0  0
  -16.5415  -29.9068   23.6254 C   0  0  0  0  0  0  0  0  0124  0  0
  -16.7331  -28.6521   23.0586 C   0  0  0  0  0  0  0  0  0125  0  0
  -26.4583  -31.6439   25.0683 C   0  0  0  0  0  0  0  0  0126  0  0
  -25.3807  -31.3179   26.1374 C   0  0  0  0  0  0  0  0  0127  0  0
  -27.0530  -30.3024   24.5680 C   0  0  0  0  0  0  0  0  0128  0  0
  -27.6014  -32.4281   25.7651 C   0  0  0  0  0  0  0  0  0129  0  0
  -27.5629  -37.2220   24.8621 C   0  0  0  0  0  0  0  0  0130  0  0
  -21.4133  -29.3375   22.3735 N   0  0  0  0  0  0  0  0  0131  0  0
  -26.4706  -37.3372   23.9061 N   0  0  0  0  0  0  0  0  0132  0  0
  -24.6674  -31.0544   22.1178 N   0  0  0  0  0  0  0  0  0133  0  0
  -23.4259  -28.8150   23.2971 O   0  0  0  0  0  0  0  0  0134  0  0
  -28.3948  -26.7345   20.0089 O   0  0  0  0  0  0  0  0  0135  0  0
  -26.5870  -34.9065   22.4671 O   0  0  0  0  0  0  0  0  0136  0  0
  -23.5365  -32.1254   23.7833 O   0  0  0  0  0  0  0  0  0137  0  0
  -32.3510  -11.3593   25.3283 C   0  0  0  0  0  0  0  0  0  0  0  0
  -32.0846  -10.5929   26.4628 C   0  0  0  0  0  0  0  0  0  0  0  0
  -29.9690  -11.7281   26.7329 C   0  0  0  0  0  0  0  0  0  0  0  0
  -31.4264  -12.3102   24.8960 C   0  0  0  0  0  0  0  0  0  0  0  0
  -30.8936  -10.7773   27.1651 C   0  0  0  0  0  0  0  0  0  0  0  0
  -30.2354  -12.4945   25.5983 C   0  0  0  0  0  0  0  0  0  0  0  0
  -31.1301   -8.6804   28.4679 C   0  0  0  0  0  0  0  0  0  0  0  0
  -31.0547   -8.0550   29.8480 C   0  0  0  0  0  0  0  0  0  0  0  0
  -29.8240   -8.4374   30.6404 C   0  0  0  0  0  0  0  0  0  0  0  0
  -29.6202  -10.5081   29.2937 C   0  0  0  0  0  0  0  0  0  0  0  0
  -29.7376   -9.9530   30.7124 C   0  0  1  0  0  0  0  0  0  0  0  0
  -31.7664  -14.6328   23.9734 C   0  0  0  0  0  0  0  0  0  0  0  0
  -28.5520  -10.3946   31.5678 C   0  0  0  0  0  0  0  0  0  1  0  0
  -31.7143  -13.1263   23.6811 C   0  0  2  0  0  0  0  0  0  0  0  0
  -30.6180   -9.9834   28.3436 N   0  0  0  0  0  0  0  0  0  0  0  0
  -30.7713  -12.8620   22.6173 N   0  0  0  0  0  0  0  0  0  0  0  0
  -31.6817   -8.0384   27.5699 O   0  0  0  0  0  0  0  0  0  0  0  0
  -29.3409  -13.4056   25.1906 F   0  0  0  0  0  0  0  0  0  0  0  0
  -31.4485  -12.4701   19.0860 H   0  0  0  0  0  0  0  0  0  0  0  0
  -30.3970  -11.2460   19.6950 H   0  0  0  0  0  0  0  0  0  0  0  0
  -29.6870  -11.8204   17.4226 H   0  0  0  0  0  0  0  0  0  0  0  0
  -29.6375  -13.5326   17.8649 H   0  0  0  0  0  0  0  0  0  0  0  0
  -27.7830  -11.3650   18.7904 H   0  0  0  0  0  0  0  0  0  0  0  0
  -27.4028  -12.7801   17.8021 H   0  0  0  0  0  0  0  0  0  0  0  0
  -27.7353  -14.2503   19.6136 H   0  0  0  0  0  0  0  0  0  0  0  0
  -28.5890  -11.9550   21.3832 H   0  0  0  0  0  0  0  0  0  0  0  0
  -28.5005  -13.6134   21.8562 H   0  0  0  0  0  0  0  0  0  0  0  0
  -25.2399   -9.5495   22.4318 H   0  0  0  0  0  0  0  0  0  0  0  0
  -23.9663   -7.5070   22.7297 H   0  0  0  0  0  0  0  0  0  0  0  0
  -21.1515   -8.8641   19.9162 H   0  0  0  0  0  0  0  0  0  0  0  0
  -22.4016  -10.9115   19.6476 H   0  0  0  0  0  0  0  0  0  0  0  0
  -21.2319   -7.5552   23.9750 H   0  0  0  0  0  0  0  0  0  0  0  0
  -21.1589   -6.0228   25.8556 H   0  0  0  0  0  0  0  0  0  0  0  0
  -22.0396   -2.8212   23.2809 H   0  0  0  0  0  0  0  0  0  0  0  0
  -22.4401  -11.9703   22.4008 H   0  0  0  0  0  0  0  0  0  0  0  0
  -21.1493  -13.0679   22.2082 H   0  0  0  0  0  0  0  0  0  0  0  0
  -24.6538  -15.7807   20.5848 H   0  0  0  0  0  0  0  0  0  0  0  0
  -26.2762  -15.5453   20.1156 H   0  0  0  0  0  0  0  0  0  0  0  0
  -26.6778  -32.4663   23.1464 H   0  0  0  0  0  0  0  0  0  0  0  0
  -25.0747  -34.0282   25.0566 H   0  0  0  0  0  0  0  0  0  0  0  0
  -22.7881  -31.3489   21.4131 H   0  0  0  0  0  0  0  0  0  0  0  0
  -23.3854  -35.9823   23.3648 H   0  0  0  0  0  0  0  0  0  0  0  0
  -24.3696  -36.8624   22.2204 H   0  0  0  0  0  0  0  0  0  0  0  0
  -23.7669  -37.6632   23.6516 H   0  0  0  0  0  0  0  0  0  0  0  0
  -25.9445  -31.6237   20.5691 H   0  0  0  0  0  0  0  0  0  0  0  0
  -26.7436  -31.0079   22.0108 H   0  0  0  0  0  0  0  0  0  0  0  0
  -28.0090  -29.1452   21.2057 H   0  0  0  0  0  0  0  0  0  0  0  0
  -26.1369  -26.0560   19.0719 H   0  0  0  0  0  0  0  0  0  0  0  0
  -24.0652  -27.2961   19.0997 H   0  0  0  0  0  0  0  0  0  0  0  0
  -23.6156  -30.5365   19.3930 H   0  0  0  0  0  0  0  0  0  0  0  0
  -22.7355  -29.1425   19.9945 H   0  0  0  0  0  0  0  0  0  0  0  0
  -25.1353  -36.2335   25.0565 H   0  0  0  0  0  0  0  0  0  0  0  0
  -21.0070  -28.3206   24.0793 H   0  0  0  0  0  0  0  0  0  0  0  0
  -20.5555  -26.2518   23.3550 H   0  0  0  0  0  0  0  0  0  0  0  0
  -21.5974  -26.8362   22.0454 H   0  0  0  0  0  0  0  0  0  0  0  0
  -19.6810  -25.6422   21.1488 H   0  0  0  0  0  0  0  0  0  0  0  0
  -19.6406  -27.3343   20.7034 H   0  0  0  0  0  0  0  0  0  0  0  0
  -17.4282  -26.6888   21.4113 H   0  0  0  0  0  0  0  0  0  0  0  0
  -18.0803  -26.0130   22.9049 H   0  0  0  0  0  0  0  0  0  0  0  0
  -19.7265  -30.6774   24.2204 H   0  0  0  0  0  0  0  0  0  0  0  0
  -17.5064  -31.5856   24.4483 H   0  0  0  0  0  0  0  0  0  0  0  0
  -15.5878  -30.2839   23.7407 H   0  0  0  0  0  0  0  0  0  0  0  0
  -15.9120  -28.0941   22.7766 H   0  0  0  0  0  0  0  0  0  0  0  0
  -24.5787  -30.7757   25.6817 H   0  0  0  0  0  0  0  0  0  0  0  0
  -25.0041  -32.2289   26.5536 H   0  0  0  0  0  0  0  0  0  0  0  0
  -25.8166  -30.7245   26.9138 H   0  0  0  0  0  0  0  0  0  0  0  0
  -26.2892  -29.7335   24.0803 H   0  0  0  0  0  0  0  0  0  0  0  0
  -27.4336  -29.7484   25.4006 H   0  0  0  0  0  0  0  0  0  0  0  0
  -27.8466  -30.4994   23.8779 H   0  0  0  0  0  0  0  0  0  0  0  0
  -27.2251  -33.3632   26.1242 H   0  0  0  0  0  0  0  0  0  0  0  0
  -28.3902  -32.6065   25.0645 H   0  0  0  0  0  0  0  0  0  0  0  0
  -27.9772  -31.8555   26.5872 H   0  0  0  0  0  0  0  0  0  0  0  0
  -28.2744  -38.0016   24.6863 H   0  0  0  0  0  0  0  0  0  0  0  0
  -28.0396  -36.2711   24.7461 H   0  0  0  0  0  0  0  0  0  0  0  0
  -27.1773  -37.3087   25.8564 H   0  0  0  0  0  0  0  0  0  0  0  0
  -20.9627  -29.9365   21.7352 H   0  0  0  0  0  0  0  0  0  0  0  0
  -26.0447  -38.2561   24.0273 H   0  0  0  0  0  0  0  0  0  0  0  0
  -33.2321  -11.2229   24.8087 H   0  0  0  0  0  0  0  0  0  0  0  0
  -32.7686   -9.8894   26.7826 H   0  0  0  0  0  0  0  0  0  0  0  0
  -29.0879  -11.8645   27.2526 H   0  0  0  0  0  0  0  0  0  0  0  0
  -31.9177   -8.3608   30.4017 H   0  0  0  0  0  0  0  0  0  0  0  0
  -31.0071   -6.9961   29.7015 H   0  0  0  0  0  0  0  0  0  0  0  0
  -29.8934   -8.0340   31.6290 H   0  0  0  0  0  0  0  0  0  0  0  0
  -28.9494   -8.0462   30.1640 H   0  0  0  0  0  0  0  0  0  0  0  0
  -29.7317  -11.5712   29.3412 H   0  0  0  0  0  0  0  0  0  0  0  0
  -28.6628  -10.2019   28.9271 H   0  0  0  0  0  0  0  0  0  0  0  0
  -30.6231  -10.3364   31.1747 H   0  0  0  0  0  0  0  0  0  0  0  0
  -32.4661  -14.8193   24.7612 H   0  0  0  0  0  0  0  0  0  0  0  0
  -30.7961  -14.9723   24.2704 H   0  0  0  0  0  0  0  0  0  0  0  0
  -32.0733  -15.1567   23.0923 H   0  0  0  0  0  0  0  0  0  0  0  0
  -28.7764  -10.5700   32.5992 H   0  0  0  0  0  0  0  0  0  0  0  0
  -27.6872   -9.7836   31.7213 H   0  0  0  0  0  0  0  0  0  0  0  0
  -32.6887  -12.8246   23.3578 H   0  0  0  0  0  0  0  0  0  0  0  0
  -30.1476  -12.1022   22.6727 H   0  0  0  0  0  0  0  0  0  0  0  0
  1 25  1  0
  1 30  2  0
  1 86  1  0
  2  3  1  0
  2 25  1  0
  2 89  1  0
  2 90  1  0
  3  4  1  0
  3 91  1  0
  3 92  1  0
  4  5  1  0
  4 93  1  0
  4 94  1  0
  5  6  1  0
  5 26  1  0
  5 95  1  6
  6 25  1  0
  6 96  1  0
  6 97  1  0
  7  8  2  0
  7 26  1  0
  7 29  1  0
  8  9  1  0
  8 22  1  0
  9 10  1  0
  9 27  2  0
 10 11  2  0
 10 15  1  0
 11 12  1  0
 11 98  1  0
 12 13  2  0
 12 99  1  0
 13 14  1  0
 13 31  1  0
 14 15  2  0
 14100  1  0
 15101  1  0
 16 17  2  0
 16 21  1  0
 16 31  1  0
 17 18  1  0
 17102  1  0
 18 19  2  0
 18103  1  0
 19 20  1  0
 19 24  1  0
 20 21  2  0
 20104  1  0
 21 23  1  0
 22 28  1  0
 22 32  2  0
 26 27  1  0
 28105  1  0
 28106  1  0
 29107  1  0
 29108  1  0
 33 34  1  0
 33 66  1  0
 33 70  2  0
 34 36  1  0
 34 59  1  0
 34109  1  6
 35 44  2  0
 35 45  1  0
 35 68  1  0
 36 56  1  0
 36110  1  0
 37 39  1  0
 37 47  1  0
 37 66  1  0
 37111  1  6
 38 43  2  0
 38 46  1  0
 38 47  1  0
 39 64  1  0
 39 67  2  0
 40 52  1  0
 40 53  2  0
 40 58  1  0
 41112  1  0
 41113  1  0
 41114  1  0
 42 43  1  0
 42 66  1  0
 42115  1  0
 42116  1  0
 43 44  1  0
 44117  1  0
 45 46  2  0
 45118  1  0
 46119  1  0
 47120  1  0
 47121  1  0
 48 41  1  0
 48 56  1  0
 48 65  1  0
 48122  1  1
 49 50  1  0
 49 53  1  0
 49 64  1  0
 49123  1  1
 50 51  1  0
 50124  1  0
 50125  1  0
 51 52  1  0
 51126  1  0
 51127  1  0
 52128  1  0
 52129  1  0
 53 54  1  0
 54 55  2  0
 54130  1  0
 55 57  1  0
 55131  1  0
 56 69  2  0
 57 58  2  0
 57132  1  0
 58133  1  0
 59 60  1  0
 59 61  1  0
 59 62  1  0
 60134  1  0
 60135  1  0
 60136  1  0
 61137  1  0
 61138  1  0
 61139  1  0
 62140  1  0
 62141  1  0
 62142  1  0
 63 65  1  0
 63143  1  0
 63144  1  0
 63145  1  0
 64146  1  0
 65147  1  0
 68 83  1  0
 71 72  2  0
 71 74  1  0
 71148  1  0
 72 75  1  0
 72149  1  0
 73 75  2  0
 73 76  1  0
 73150  1  0
 74 76  2  0
 74 84  1  0
 75 85  1  0
 76 88  1  0
 77 78  1  0
 77 85  1  0
 77 87  2  0
 78 79  1  0
 78151  1  0
 78152  1  0
 79 81  1  0
 79153  1  0
 79154  1  0
 80 81  1  0
 80 85  1  0
 80155  1  0
 80156  1  0
 81 83  1  0
 81157  1  1
 82158  1  0
 82159  1  0
 82160  1  0
 83161  1  0
 83162  1  0
 84 82  1  0
 84 86  1  0
 84163  1  6
 86164  1  0
M  ISO  4   1 100  68 101  83 101  86 100
M  END
$$$$
34
     RDKit          3D

154162  0  0  0  0  0  0  0  0999 V2000
  -30.7652  -14.3608   20.6636 C   0  0  0  0  0  0  0  0  0100  0  0
  -30.4392  -12.2669   19.3775 C   0  0  0  0  0  0  0  0  0101  0  0
  -29.4791  -12.5281   18.1977 C   0  0  0  0  0  0  0  0  0102  0  0
  -27.9985  -12.3963   18.6038 C   0  0  0  0  0  0  0  0  0103  0  0
  -27.6639  -13.2170   19.8820 C   0  0  2  0  0  0  0  0  0104  0  0
  -28.6795  -12.9602   21.0279 C   0  0  0  0  0  0  0  0  0105  0  0
  -25.2633  -13.8245   20.5754 C   0  0  0  0  0  0  0  0  0106  0  0
  -24.1645  -13.0409   20.9408 C   0  0  0  0  0  0  0  0  0107  0  0
  -24.6400  -11.7009   20.8697 C   0  0  0  0  0  0  0  0  0108  0  0
  -23.9005  -10.4085   21.0420 C   0  0  0  0  0  0  0  0  0109  0  0
  -24.3588   -9.4123   21.9123 C   0  0  0  0  0  0  0  0  0110  0  0
  -23.6296   -8.2350   22.0803 C   0  0  0  0  0  0  0  0  0111  0  0
  -22.4385   -8.0419   21.3657 C   0  0  0  0  0  0  0  0  0112  0  0
  -22.0103   -9.0167   20.4678 C   0  0  0  0  0  0  0  0  0113  0  0
  -22.7317  -10.1925   20.3102 C   0  0  0  0  0  0  0  0  0114  0  0
  -21.6857   -6.0709   22.5391 C   0  0  0  0  0  0  0  0  0115  0  0
  -21.4064   -6.5490   23.8264 C   0  0  0  0  0  0  0  0  0116  0  0
  -21.3635   -5.6677   24.9085 C   0  0  0  0  0  0  0  0  0117  0  0
  -21.5973   -4.3067   24.7088 C   0  0  0  0  0  0  0  0  0118  0  0
  -21.8700   -3.8284   23.4282 C   0  0  0  0  0  0  0  0  0119  0  0
  -21.9144   -4.7056   22.3460 C   0  0  0  0  0  0  0  0  0120  0  0
  -22.8194  -13.5263   21.1763 C   0  0  0  0  0  0  0  0  0121  0  0
  -22.1559   -4.2206   21.1063 F   0  0  0  0  0  0  0  0  0122  0  0
  -21.5628   -3.4510   25.7555 F   0  0  0  0  0  0  0  0  0123  0  0
  -30.0261  -13.1803   20.4553 N   0  0  0  0  0  0  0  0  0124  0  0
  -26.2911  -12.9356   20.3443 N   0  0  0  0  0  0  0  0  0125  0  0
  -25.9236  -11.6675   20.5847 N   0  0  0  0  0  0  0  0  0126  0  0
  -22.0708  -12.7905   22.0005 N   0  0  0  0  0  0  0  0  0127  0  0
  -25.4117  -15.1773   20.4097 N   0  0  0  0  0  0  0  0  0128  0  0
  -31.7916  -14.6724   20.0536 O   0  0  0  0  0  0  0  0  0129  0  0
  -21.6670   -6.9022   21.4423 O   0  0  0  0  0  0  0  0  0130  0  0
  -22.3946  -14.5564   20.6568 O   0  0  0  0  0  0  0  0  0131  0  0
  -24.6048  -31.8614   23.2223 C   0  0  0  0  0  0  0  0  0100  0  0
  -25.8822  -32.4841   23.8616 C   0  0  1  0  0  0  0  0  0101  0  0
  -27.2536  -27.5042   20.1156 C   0  0  0  0  0  0  0  0  0102  0  0
  -25.5726  -33.8762   24.2210 N   0  0  0  0  0  0  0  0  0103  0  0
  -23.4066  -30.4859   21.5461 C   0  0  2  0  0  0  0  0  0104  0  0
  -24.8467  -28.9636   20.1247 C   0  0  0  0  0  0  0  0  0105  0  0
  -22.7412  -29.4652   22.5052 C   0  0  0  0  0  0  0  0  0106  0  0
  -18.0167  -28.1302   22.8626 C   0  0  0  0  0  0  0  0  0107  0  0
  -24.1342  -36.7390   23.2568 C   0  0  0  0  0  0  0  0  0108  0  0
  -25.9141  -30.8882   21.3456 C   0  0  0  0  0  0  0  0  0109  0  0
  -25.9930  -29.5029   20.7208 C   0  0  0  0  0  0  0  0  0110  0  0
  -27.1758  -28.7612   20.7331 C   0  0  0  0  0  0  0  0  0111  0  0
  -26.1032  -26.9836   19.5230 C   0  0  0  0  0  0  0  0  0112  0  0
  -24.9097  -27.7011   19.5331 C   0  0  0  0  0  0  0  0  0113  0  0
  -23.5715  -29.7899   20.1582 C   0  0  0  0  0  0  0  0  0114  0  0
  -25.3990  -36.3212   24.0232 C   0  0  1  0  0  0  0  0  0115  0  0
  -20.5793  -28.3813   23.1004 C   0  0  2  0  0  0  0  0  0116  0  0
  -20.6548  -26.9392   22.5411 C   0  0  0  0  0  0  0  0  0117  0  0
  -19.5615  -26.6407   21.5143 C   0  0  0  0  0  0  0  0  0118  0  0
  -18.1797  -26.7818   22.1673 C   0  0  0  0  0  0  0  0  0119  0  0
  -19.1385  -28.8769   23.2988 C   0  0  0  0  0  0  0  0  0120  0  0
  -18.9183  -30.1286   23.8878 C   0  0  0  0  0  0  0  0  0121  0  0
  -17.6396  -30.6493   24.0352 C   0  0  0  0  0  0  0  0  0122  0  0
  -25.9153  -34.9582   23.4993 C   0  0  0  0  0  0  0  0  0123  0  0
  -16.5415  -29.9068   23.6254 C   0  0  0  0  0  0  0  0  0124  0  0
  -16.7331  -28.6521   23.0586 C   0  0  0  0  0  0  0  0  0125  0  0
  -26.4583  -31.6439   25.0683 C   0  0  0  0  0  0  0  0  0126  0  0
  -25.3807  -31.3179   26.1374 C   0  0  0  0  0  0  0  0  0127  0  0
  -27.0530  -30.3024   24.5680 C   0  0  0  0  0  0  0  0  0128  0  0
  -27.6014  -32.4281   25.7651 C   0  0  0  0  0  0  0  0  0129  0  0
  -27.5629  -37.2220   24.8621 C   0  0  0  0  0  0  0  0  0130  0  0
  -21.4133  -29.3375   22.3735 N   0  0  0  0  0  0  0  0  0131  0  0
  -26.4706  -37.3372   23.9061 N   0  0  0  0  0  0  0  0  0132  0  0
  -24.6674  -31.0544   22.1178 N   0  0  0  0  0  0  0  0  0133  0  0
  -23.4259  -28.8150   23.2971 O   0  0  0  0  0  0  0  0  0134  0  0
  -28.3948  -26.7345   20.0089 O   0  0  0  0  0  0  0  0  0135  0  0
  -26.5870  -34.9065   22.4671 O   0  0  0  0  0  0  0  0  0136  0  0
  -23.5365  -32.1254   23.7833 O   0  0  0  0  0  0  0  0  0137  0  0
  -33.4348  -24.4440   19.4426 C   0  0  0  0  0  0  0  0  0  0  0  0
  -31.2762  -25.3491   18.8440 C   0  0  0  0  0  0  0  0  0  0  0  0
  -33.3219  -23.4998   18.4222 C   0  0  0  0  0  0  0  0  0  0  0  0
  -31.1633  -24.4049   17.8235 C   0  0  0  0  0  0  0  0  0  0  0  0
  -32.4119  -25.3686   19.6536 C   0  0  0  0  0  0  0  0  0  0  0  0
  -32.1862  -23.4803   17.6126 C   0  0  0  0  0  0  0  0  0  0  0  0
  -32.5321  -26.3741   20.7405 C   0  0  0  0  0  0  0  0  0  0  0  0
  -31.2541  -21.4539   14.5724 C   0  0  0  0  0  0  0  0  0  0  0  0
  -31.1831  -22.6819   15.4720 C   0  0  0  0  0  0  0  0  0  0  0  0
  -30.9092  -20.1610   15.3022 C   0  0  0  0  0  0  0  0  0  1  0  0
  -32.0740  -22.5420   16.5985 N   0  0  0  0  0  0  0  0  0  0  0  0
  -31.3266  -26.8399   21.2661 N   0  0  0  0  0  0  0  0  0  0  0  0
  -33.6492  -26.7007   21.1322 O   0  0  0  0  0  0  0  0  0  0  0  0
  -31.4485  -12.4701   19.0860 H   0  0  0  0  0  0  0  0  0  0  0  0
  -30.3970  -11.2460   19.6950 H   0  0  0  0  0  0  0  0  0  0  0  0
  -29.6870  -11.8204   17.4226 H   0  0  0  0  0  0  0  0  0  0  0  0
  -29.6375  -13.5326   17.8649 H   0  0  0  0  0  0  0  0  0  0  0  0
  -27.7830  -11.3650   18.7904 H   0  0  0  0  0  0  0  0  0  0  0  0
  -27.4028  -12.7801   17.8021 H   0  0  0  0  0  0  0  0  0  0  0  0
  -27.7353  -14.2503   19.6136 H   0  0  0  0  0  0  0  0  0  0  0  0
  -28.5890  -11.9550   21.3832 H   0  0  0  0  0  0  0  0  0  0  0  0
  -28.5005  -13.6134   21.8562 H   0  0  0  0  0  0  0  0  0  0  0  0
  -25.2399   -9.5495   22.4318 H   0  0  0  0  0  0  0  0  0  0  0  0
  -23.9663   -7.5070   22.7297 H   0  0  0  0  0  0  0  0  0  0  0  0
  -21.1515   -8.8641   19.9162 H   0  0  0  0  0  0  0  0  0  0  0  0
  -22.4016  -10.9115   19.6476 H   0  0  0  0  0  0  0  0  0  0  0  0
  -21.2319   -7.5552   23.9750 H   0  0  0  0  0  0  0  0  0  0  0  0
  -21.1589   -6.0228   25.8556 H   0  0  0  0  0  0  0  0  0  0  0  0
  -22.0396   -2.8212   23.2809 H   0  0  0  0  0  0  0  0  0  0  0  0
  -22.4401  -11.9703   22.4008 H   0  0  0  0  0  0  0  0  0  0  0  0
  -21.1493  -13.0679   22.2082 H   0  0  0  0  0  0  0  0  0  0  0  0
  -24.6538  -15.7807   20.5848 H   0  0  0  0  0  0  0  0  0  0  0  0
  -26.2762  -15.5453   20.1156 H   0  0  0  0  0  0  0  0  0  0  0  0
  -26.6778  -32.4663   23.1464 H   0  0  0  0  0  0  0  0  0  0  0  0
  -25.0747  -34.0282   25.0566 H   0  0  0  0  0  0  0  0  0  0  0  0
  -22.7881  -31.3489   21.4131 H   0  0  0  0  0  0  0  0  0  0  0  0
  -23.3854  -35.9823   23.3648 H   0  0  0  0  0  0  0  0  0  0  0  0
  -24.3696  -36.8624   22.2204 H   0  0  0  0  0  0  0  0  0  0  0  0
  -23.7669  -37.6632   23.6516 H   0  0  0  0  0  0  0  0  0  0  0  0
  -25.9445  -31.6237   20.5691 H   0  0  0  0  0  0  0  0  0  0  0  0
  -26.7436  -31.0079   22.0108 H   0  0  0  0  0  0  0  0  0  0  0  0
  -28.0090  -29.1452   21.2057 H   0  0  0  0  0  0  0  0  0  0  0  0
  -26.1369  -26.0560   19.0719 H   0  0  0  0  0  0  0  0  0  0  0  0
  -24.0652  -27.2961   19.0997 H   0  0  0  0  0  0  0  0  0  0  0  0
  -23.6156  -30.5365   19.3930 H   0  0  0  0  0  0  0  0  0  0  0  0
  -22.7355  -29.1425   19.9945 H   0  0  0  0  0  0  0  0  0  0  0  0
  -25.1353  -36.2335   25.0565 H   0  0  0  0  0  0  0  0  0  0  0  0
  -21.0070  -28.3206   24.0793 H   0  0  0  0  0  0  0  0  0  0  0  0
  -20.5555  -26.2518   23.3550 H   0  0  0  0  0  0  0  0  0  0  0  0
  -21.5974  -26.8362   22.0454 H   0  0  0  0  0  0  0  0  0  0  0  0
  -19.6810  -25.6422   21.1488 H   0  0  0  0  0  0  0  0  0  0  0  0
  -19.6406  -27.3343   20.7034 H   0  0  0  0  0  0  0  0  0  0  0  0
  -17.4282  -26.6888   21.4113 H   0  0  0  0  0  0  0  0  0  0  0  0
  -18.0803  -26.0130   22.9049 H   0  0  0  0  0  0  0  0  0  0  0  0
  -19.7265  -30.6774   24.2204 H   0  0  0  0  0  0  0  0  0  0  0  0
  -17.5064  -31.5856   24.4483 H   0  0  0  0  0  0  0  0  0  0  0  0
  -15.5878  -30.2839   23.7407 H   0  0  0  0  0  0  0  0  0  0  0  0
  -15.9120  -28.0941   22.7766 H   0  0  0  0  0  0  0  0  0  0  0  0
  -24.5787  -30.7757   25.6817 H   0  0  0  0  0  0  0  0  0  0  0  0
  -25.0041  -32.2289   26.5536 H   0  0  0  0  0  0  0  0  0  0  0  0
  -25.8166  -30.7245   26.9138 H   0  0  0  0  0  0  0  0  0  0  0  0
  -26.2892  -29.7335   24.0803 H   0  0  0  0  0  0  0  0  0  0  0  0
  -27.4336  -29.7484   25.4006 H   0  0  0  0  0  0  0  0  0  0  0  0
  -27.8466  -30.4994   23.8779 H   0  0  0  0  0  0  0  0  0  0  0  0
  -27.2251  -33.3632   26.1242 H   0  0  0  0  0  0  0  0  0  0  0  0
  -28.3902  -32.6065   25.0645 H   0  0  0  0  0  0  0  0  0  0  0  0
  -27.9772  -31.8555   26.5872 H   0  0  0  0  0  0  0  0  0  0  0  0
  -28.2744  -38.0016   24.6863 H   0  0  0  0  0  0  0  0  0  0  0  0
  -28.0396  -36.2711   24.7461 H   0  0  0  0  0  0  0  0  0  0  0  0
  -27.1773  -37.3087   25.8564 H   0  0  0  0  0  0  0  0  0  0  0  0
  -20.9627  -29.9365   21.7352 H   0  0  0  0  0  0  0  0  0  0  0  0
  -26.0447  -38.2561   24.0273 H   0  0  0  0  0  0  0  0  0  0  0  0
  -34.2751  -24.4585   20.0415 H   0  0  0  0  0  0  0  0  0  0  0  0
  -30.5195  -26.0332   19.0000 H   0  0  0  0  0  0  0  0  0  0  0  0
  -34.0786  -22.8156   18.2662 H   0  0  0  0  0  0  0  0  0  0  0  0
  -30.3230  -24.3904   17.2245 H   0  0  0  0  0  0  0  0  0  0  0  0
  -32.2481  -21.3720   14.1848 H   0  0  0  0  0  0  0  0  0  0  0  0
  -30.5317  -21.5849   13.7940 H   0  0  0  0  0  0  0  0  0  0  0  0
  -30.1812  -22.7981   15.8291 H   0  0  0  0  0  0  0  0  0  0  0  0
  -31.4776  -23.5405   14.9054 H   0  0  0  0  0  0  0  0  0  0  0  0
  -31.7151  -19.5597   15.6680 H   0  0  0  0  0  0  0  0  0  0  0  0
  -30.3604  -19.3065   14.9653 H   0  0  0  0  0  0  0  0  0  0  0  0
  -32.6341  -21.7340   16.6497 H   0  0  0  0  0  0  0  0  0  0  0  0
  -30.8288  -27.6491   21.5243 H   0  0  0  0  0  0  0  0  0  0  0  0
  1 25  1  0
  1 30  2  0
  1 82  1  0
  2  3  1  0
  2 25  1  0
  2 84  1  0
  2 85  1  0
  3  4  1  0
  3 86  1  0
  3 87  1  0
  4  5  1  0
  4 88  1  0
  4 89  1  0
  5  6  1  0
  5 26  1  0
  5 90  1  6
  6 25  1  0
  6 91  1  0
  6 92  1  0
  7  8  2  0
  7 26  1  0
  7 29  1  0
  8  9  1  0
  8 22  1  0
  9 10  1  0
  9 27  2  0
 10 11  2  0
 10 15  1  0
 11 12  1  0
 11 93  1  0
 12 13  2  0
 12 94  1  0
 13 14  1  0
 13 31  1  0
 14 15  2  0
 14 95  1  0
 15 96  1  0
 16 17  2  0
 16 21  1  0
 16 31  1  0
 17 18  1  0
 17 97  1  0
 18 19  2  0
 18 98  1  0
 19 20  1  0
 19 24  1  0
 20 21  2  0
 20 99  1  0
 21 23  1  0
 22 28  1  0
 22 32  2  0
 26 27  1  0
 28100  1  0
 28101  1  0
 29102  1  0
 29103  1  0
 33 34  1  0
 33 66  1  0
 33 70  2  0
 34 36  1  0
 34 59  1  0
 34104  1  6
 35 44  2  0
 35 45  1  0
 35 68  1  0
 36 56  1  0
 36105  1  0
 37 39  1  0
 37 47  1  0
 37 66  1  0
 37106  1  6
 38 43  2  0
 38 46  1  0
 38 47  1  0
 39 64  1  0
 39 67  2  0
 40 52  1  0
 40 53  2  0
 40 58  1  0
 41107  1  0
 41108  1  0
 41109  1  0
 42 43  1  0
 42 66  1  0
 42110  1  0
 42111  1  0
 43 44  1  0
 44112  1  0
 45 46  2  0
 45113  1  0
 46114  1  0
 47115  1  0
 47116  1  0
 48 41  1  0
 48 56  1  0
 48 65  1  0
 48117  1  1
 49 50  1  0
 49 53  1  0
 49 64  1  0
 49118  1  1
 50 51  1  0
 50119  1  0
 50120  1  0
 51 52  1  0
 51121  1  0
 51122  1  0
 52123  1  0
 52124  1  0
 53 54  1  0
 54 55  2  0
 54125  1  0
 55 57  1  0
 55126  1  0
 56 69  2  0
 57 58  2  0
 57127  1  0
 58128  1  0
 59 60  1  0
 59 61  1  0
 59 62  1  0
 60129  1  0
 60130  1  0
 60131  1  0
 61132  1  0
 61133  1  0
 61134  1  0
 62135  1  0
 62136  1  0
 62137  1  0
 63 65  1  0
 63138  1  0
 63139  1  0
 63140  1  0
 64141  1  0
 65142  1  0
 68 80  1  0
 71 73  2  0
 71 75  1  0
 71143  1  0
 72 74  1  0
 72 75  2  0
 72144  1  0
 73 76  1  0
 73145  1  0
 74 76  2  0
 74146  1  0
 75 77  1  0
 76 81  1  0
 77 82  1  0
 77 83  2  0
 78 79  1  0
 78 80  1  0
 78147  1  0
 78148  1  0
 79 81  1  0
 79149  1  0
 79150  1  0
 80151  1  0
 80152  1  0
 81153  1  0
 82154  1  0
M  ISO  4   1 100  68 101  80 101  82 100
M  END
$$$$
35
     RDKit          3D

150158  0  0  0  0  0  0  0  0999 V2000
  -30.7652  -14.3608   20.6636 C   0  0  0  0  0  0  0  0  0100  0  0
  -30.4392  -12.2669   19.3775 C   0  0  0  0  0  0  0  0  0101  0  0
  -29.4791  -12.5281   18.1977 C   0  0  0  0  0  0  0  0  0102  0  0
  -27.9985  -12.3963   18.6038 C   0  0  0  0  0  0  0  0  0103  0  0
  -27.6639  -13.2170   19.8820 C   0  0  2  0  0  0  0  0  0104  0  0
  -28.6795  -12.9602   21.0279 C   0  0  0  0  0  0  0  0  0105  0  0
  -25.2633  -13.8245   20.5754 C   0  0  0  0  0  0  0  0  0106  0  0
  -24.1645  -13.0409   20.9408 C   0  0  0  0  0  0  0  0  0107  0  0
  -24.6400  -11.7009   20.8697 C   0  0  0  0  0  0  0  0  0108  0  0
  -23.9005  -10.4085   21.0420 C   0  0  0  0  0  0  0  0  0109  0  0
  -24.3588   -9.4123   21.9123 C   0  0  0  0  0  0  0  0  0110  0  0
  -23.6296   -8.2350   22.0803 C   0  0  0  0  0  0  0  0  0111  0  0
  -22.4385   -8.0419   21.3657 C   0  0  0  0  0  0  0  0  0112  0  0
  -22.0103   -9.0167   20.4678 C   0  0  0  0  0  0  0  0  0113  0  0
  -22.7317  -10.1925   20.3102 C   0  0  0  0  0  0  0  0  0114  0  0
  -21.6857   -6.0709   22.5391 C   0  0  0  0  0  0  0  0  0115  0  0
  -21.4064   -6.5490   23.8264 C   0  0  0  0  0  0  0  0  0116  0  0
  -21.3635   -5.6677   24.9085 C   0  0  0  0  0  0  0  0  0117  0  0
  -21.5973   -4.3067   24.7088 C   0  0  0  0  0  0  0  0  0118  0  0
  -21.8700   -3.8284   23.4282 C   0  0  0  0  0  0  0  0  0119  0  0
  -21.9144   -4.7056   22.3460 C   0  0  0  0  0  0  0  0  0120  0  0
  -22.8194  -13.5263   21.1763 C   0  0  0  0  0  0  0  0  0121  0  0
  -22.1559   -4.2206   21.1063 F   0  0  0  0  0  0  0  0  0122  0  0
  -21.5628   -3.4510   25.7555 F   0  0  0  0  0  0  0  0  0123  0  0
  -30.0261  -13.1803   20.4553 N   0  0  0  0  0  0  0  0  0124  0  0
  -26.2911  -12.9356   20.3443 N   0  0  0  0  0  0  0  0  0125  0  0
  -25.9236  -11.6675   20.5847 N   0  0  0  0  0  0  0  0  0126  0  0
  -22.0708  -12.7905   22.0005 N   0  0  0  0  0  0  0  0  0127  0  0
  -25.4117  -15.1773   20.4097 N   0  0  0  0  0  0  0  0  0128  0  0
  -31.7916  -14.6724   20.0536 O   0  0  0  0  0  0  0  0  0129  0  0
  -21.6670   -6.9022   21.4423 O   0  0  0  0  0  0  0  0  0130  0  0
  -22.3946  -14.5564   20.6568 O   0  0  0  0  0  0  0  0  0131  0  0
  -24.6048  -31.8614   23.2223 C   0  0  0  0  0  0  0  0  0100  0  0
  -25.8822  -32.4841   23.8616 C   0  0  1  0  0  0  0  0  0101  0  0
  -27.2536  -27.5042   20.1156 C   0  0  0  0  0  0  0  0  0102  0  0
  -25.5726  -33.8762   24.2210 N   0  0  0  0  0  0  0  0  0103  0  0
  -23.4066  -30.4859   21.5461 C   0  0  2  0  0  0  0  0  0104  0  0
  -24.8467  -28.9636   20.1247 C   0  0  0  0  0  0  0  0  0105  0  0
  -22.7412  -29.4652   22.5052 C   0  0  0  0  0  0  0  0  0106  0  0
  -18.0167  -28.1302   22.8626 C   0  0  0  0  0  0  0  0  0107  0  0
  -24.1342  -36.7390   23.2568 C   0  0  0  0  0  0  0  0  0108  0  0
  -25.9141  -30.8882   21.3456 C   0  0  0  0  0  0  0  0  0109  0  0
  -25.9930  -29.5029   20.7208 C   0  0  0  0  0  0  0  0  0110  0  0
  -27.1758  -28.7612   20.7331 C   0  0  0  0  0  0  0  0  0111  0  0
  -26.1032  -26.9836   19.5230 C   0  0  0  0  0  0  0  0  0112  0  0
  -24.9097  -27.7011   19.5331 C   0  0  0  0  0  0  0  0  0113  0  0
  -23.5715  -29.7899   20.1582 C   0  0  0  0  0  0  0  0  0114  0  0
  -25.3990  -36.3212   24.0232 C   0  0  1  0  0  0  0  0  0115  0  0
  -20.5793  -28.3813   23.1004 C   0  0  2  0  0  0  0  0  0116  0  0
  -20.6548  -26.9392   22.5411 C   0  0  0  0  0  0  0  0  0117  0  0
  -19.5615  -26.6407   21.5143 C   0  0  0  0  0  0  0  0  0118  0  0
  -18.1797  -26.7818   22.1673 C   0  0  0  0  0  0  0  0  0119  0  0
  -19.1385  -28.8769   23.2988 C   0  0  0  0  0  0  0  0  0120  0  0
  -18.9183  -30.1286   23.8878 C   0  0  0  0  0  0  0  0  0121  0  0
  -17.6396  -30.6493   24.0352 C   0  0  0  0  0  0  0  0  0122  0  0
  -25.9153  -34.9582   23.4993 C   0  0  0  0  0  0  0  0  0123  0  0
  -16.5415  -29.9068   23.6254 C   0  0  0  0  0  0  0  0  0124  0  0
  -16.7331  -28.6521   23.0586 C   0  0  0  0  0  0  0  0  0125  0  0
  -26.4583  -31.6439   25.0683 C   0  0  0  0  0  0  0  0  0126  0  0
  -25.3807  -31.3179   26.1374 C   0  0  0  0  0  0  0  0  0127  0  0
  -27.0530  -30.3024   24.5680 C   0  0  0  0  0  0  0  0  0128  0  0
  -27.6014  -32.4281   25.7651 C   0  0  0  0  0  0  0  0  0129  0  0
  -27.5629  -37.2220   24.8621 C   0  0  0  0  0  0  0  0  0130  0  0
  -21.4133  -29.3375   22.3735 N   0  0  0  0  0  0  0  0  0131  0  0
  -26.4706  -37.3372   23.9061 N   0  0  0  0  0  0  0  0  0132  0  0
  -24.6674  -31.0544   22.1178 N   0  0  0  0  0  0  0  0  0133  0  0
  -23.4259  -28.8150   23.2971 O   0  0  0  0  0  0  0  0  0134  0  0
  -28.3948  -26.7345   20.0089 O   0  0  0  0  0  0  0  0  0135  0  0
  -26.5870  -34.9065   22.4671 O   0  0  0  0  0  0  0  0  0136  0  0
  -23.5365  -32.1254   23.7833 O   0  0  0  0  0  0  0  0  0137  0  0
  -30.5128  -18.3085   24.0183 C   0  0  0  0  0  0  0  0  0  0  0  0
  -32.6863  -17.4032   23.4769 C   0  0  0  0  0  0  0  0  0  0  0  0
  -29.9193  -17.4196   23.1221 C   0  0  0  0  0  0  0  0  0  0  0  0
  -32.0928  -16.5142   22.5807 C   0  0  0  0  0  0  0  0  0  0  0  0
  -31.8963  -18.3004   24.1957 C   0  0  0  0  0  0  0  0  0  0  0  0
  -30.7093  -16.5224   22.4033 C   0  0  0  0  0  0  0  0  0  0  0  0
  -32.5307  -19.2505   25.1533 C   0  0  0  0  0  0  0  0  0  0  0  0
  -31.8994  -20.6100   25.4218 C   0  0  0  0  0  0  0  0  0  0  0  0
  -31.8653  -21.4584   24.1590 C   0  0  0  0  0  0  0  0  0  1  0  0
  -33.6272  -18.9255   25.7631 N   0  0  0  0  0  0  0  0  0  0  0  0
  -30.1053  -15.6197   21.4933 N   0  0  0  0  0  0  0  0  0  0  0  0
  -31.4485  -12.4701   19.0860 H   0  0  0  0  0  0  0  0  0  0  0  0
  -30.3970  -11.2460   19.6950 H   0  0  0  0  0  0  0  0  0  0  0  0
  -29.6870  -11.8204   17.4226 H   0  0  0  0  0  0  0  0  0  0  0  0
  -29.6375  -13.5326   17.8649 H   0  0  0  0  0  0  0  0  0  0  0  0
  -27.7830  -11.3650   18.7904 H   0  0  0  0  0  0  0  0  0  0  0  0
  -27.4028  -12.7801   17.8021 H   0  0  0  0  0  0  0  0  0  0  0  0
  -27.7353  -14.2503   19.6136 H   0  0  0  0  0  0  0  0  0  0  0  0
  -28.5890  -11.9550   21.3832 H   0  0  0  0  0  0  0  0  0  0  0  0
  -28.5005  -13.6134   21.8562 H   0  0  0  0  0  0  0  0  0  0  0  0
  -25.2399   -9.5495   22.4318 H   0  0  0  0  0  0  0  0  0  0  0  0
  -23.9663   -7.5070   22.7297 H   0  0  0  0  0  0  0  0  0  0  0  0
  -21.1515   -8.8641   19.9162 H   0  0  0  0  0  0  0  0  0  0  0  0
  -22.4016  -10.9115   19.6476 H   0  0  0  0  0  0  0  0  0  0  0  0
  -21.2319   -7.5552   23.9750 H   0  0  0  0  0  0  0  0  0  0  0  0
  -21.1589   -6.0228   25.8556 H   0  0  0  0  0  0  0  0  0  0  0  0
  -22.0396   -2.8212   23.2809 H   0  0  0  0  0  0  0  0  0  0  0  0
  -22.4401  -11.9703   22.4008 H   0  0  0  0  0  0  0  0  0  0  0  0
  -21.1493  -13.0679   22.2082 H   0  0  0  0  0  0  0  0  0  0  0  0
  -24.6538  -15.7807   20.5848 H   0  0  0  0  0  0  0  0  0  0  0  0
  -26.2762  -15.5453   20.1156 H   0  0  0  0  0  0  0  0  0  0  0  0
  -26.6778  -32.4663   23.1464 H   0  0  0  0  0  0  0  0  0  0  0  0
  -25.0747  -34.0282   25.0566 H   0  0  0  0  0  0  0  0  0  0  0  0
  -22.7881  -31.3489   21.4131 H   0  0  0  0  0  0  0  0  0  0  0  0
  -23.3854  -35.9823   23.3648 H   0  0  0  0  0  0  0  0  0  0  0  0
  -24.3696  -36.8624   22.2204 H   0  0  0  0  0  0  0  0  0  0  0  0
  -23.7669  -37.6632   23.6516 H   0  0  0  0  0  0  0  0  0  0  0  0
  -25.9445  -31.6237   20.5691 H   0  0  0  0  0  0  0  0  0  0  0  0
  -26.7436  -31.0079   22.0108 H   0  0  0  0  0  0  0  0  0  0  0  0
  -28.0090  -29.1452   21.2057 H   0  0  0  0  0  0  0  0  0  0  0  0
  -26.1369  -26.0560   19.0719 H   0  0  0  0  0  0  0  0  0  0  0  0
  -24.0652  -27.2961   19.0997 H   0  0  0  0  0  0  0  0  0  0  0  0
  -23.6156  -30.5365   19.3930 H   0  0  0  0  0  0  0  0  0  0  0  0
  -22.7355  -29.1425   19.9945 H   0  0  0  0  0  0  0  0  0  0  0  0
  -25.1353  -36.2335   25.0565 H   0  0  0  0  0  0  0  0  0  0  0  0
  -21.0070  -28.3206   24.0793 H   0  0  0  0  0  0  0  0  0  0  0  0
  -20.5555  -26.2518   23.3550 H   0  0  0  0  0  0  0  0  0  0  0  0
  -21.5974  -26.8362   22.0454 H   0  0  0  0  0  0  0  0  0  0  0  0
  -19.6810  -25.6422   21.1488 H   0  0  0  0  0  0  0  0  0  0  0  0
  -19.6406  -27.3343   20.7034 H   0  0  0  0  0  0  0  0  0  0  0  0
  -17.4282  -26.6888   21.4113 H   0  0  0  0  0  0  0  0  0  0  0  0
  -18.0803  -26.0130   22.9049 H   0  0  0  0  0  0  0  0  0  0  0  0
  -19.7265  -30.6774   24.2204 H   0  0  0  0  0  0  0  0  0  0  0  0
  -17.5064  -31.5856   24.4483 H   0  0  0  0  0  0  0  0  0  0  0  0
  -15.5878  -30.2839   23.7407 H   0  0  0  0  0  0  0  0  0  0  0  0
  -15.9120  -28.0941   22.7766 H   0  0  0  0  0  0  0  0  0  0  0  0
  -24.5787  -30.7757   25.6817 H   0  0  0  0  0  0  0  0  0  0  0  0
  -25.0041  -32.2289   26.5536 H   0  0  0  0  0  0  0  0  0  0  0  0
  -25.8166  -30.7245   26.9138 H   0  0  0  0  0  0  0  0  0  0  0  0
  -26.2892  -29.7335   24.0803 H   0  0  0  0  0  0  0  0  0  0  0  0
  -27.4336  -29.7484   25.4006 H   0  0  0  0  0  0  0  0  0  0  0  0
  -27.8466  -30.4994   23.8779 H   0  0  0  0  0  0  0  0  0  0  0  0
  -27.2251  -33.3632   26.1242 H   0  0  0  0  0  0  0  0  0  0  0  0
  -28.3902  -32.6065   25.0645 H   0  0  0  0  0  0  0  0  0  0  0  0
  -27.9772  -31.8555   26.5872 H   0  0  0  0  0  0  0  0  0  0  0  0
  -28.2744  -38.0016   24.6863 H   0  0  0  0  0  0  0  0  0  0  0  0
  -28.0396  -36.2711   24.7461 H   0  0  0  0  0  0  0  0  0  0  0  0
  -27.1773  -37.3087   25.8564 H   0  0  0  0  0  0  0  0  0  0  0  0
  -20.9627  -29.9365   21.7352 H   0  0  0  0  0  0  0  0  0  0  0  0
  -26.0447  -38.2561   24.0273 H   0  0  0  0  0  0  0  0  0  0  0  0
  -29.9283  -18.9722   24.5502 H   0  0  0  0  0  0  0  0  0  0  0  0
  -33.7099  -17.3971   23.6082 H   0  0  0  0  0  0  0  0  0  0  0  0
  -28.8957  -17.4257   22.9908 H   0  0  0  0  0  0  0  0  0  0  0  0
  -32.6773  -15.8504   22.0489 H   0  0  0  0  0  0  0  0  0  0  0  0
  -32.4712  -21.1191   26.1693 H   0  0  0  0  0  0  0  0  0  0  0  0
  -30.8943  -20.4575   25.7555 H   0  0  0  0  0  0  0  0  0  0  0  0
  -31.9063  -20.6750   23.4313 H   0  0  0  0  0  0  0  0  0  0  0  0
  -32.3870  -22.2326   24.6818 H   0  0  0  0  0  0  0  0  0  0  0  0
  -34.0423  -18.0487   25.5956 H   0  0  0  0  0  0  0  0  0  0  0  0
  -29.1453  -15.7681   21.3330 H   0  0  0  0  0  0  0  0  0  0  0  0
  1 25  1  0
  1 30  2  0
  1 81  1  0
  2  3  1  0
  2 25  1  0
  2 82  1  0
  2 83  1  0
  3  4  1  0
  3 84  1  0
  3 85  1  0
  4  5  1  0
  4 86  1  0
  4 87  1  0
  5  6  1  0
  5 26  1  0
  5 88  1  6
  6 25  1  0
  6 89  1  0
  6 90  1  0
  7  8  2  0
  7 26  1  0
  7 29  1  0
  8  9  1  0
  8 22  1  0
  9 10  1  0
  9 27  2  0
 10 11  2  0
 10 15  1  0
 11 12  1  0
 11 91  1  0
 12 13  2  0
 12 92  1  0
 13 14  1  0
 13 31  1  0
 14 15  2  0
 14 93  1  0
 15 94  1  0
 16 17  2  0
 16 21  1  0
 16 31  1  0
 17 18  1  0
 17 95  1  0
 18 19  2  0
 18 96  1  0
 19 20  1  0
 19 24  1  0
 20 21  2  0
 20 97  1  0
 21 23  1  0
 22 28  1  0
 22 32  2  0
 26 27  1  0
 28 98  1  0
 28 99  1  0
 29100  1  0
 29101  1  0
 33 34  1  0
 33 66  1  0
 33 70  2  0
 34 36  1  0
 34 59  1  0
 34102  1  6
 35 44  2  0
 35 45  1  0
 35 68  1  0
 36 56  1  0
 36103  1  0
 37 39  1  0
 37 47  1  0
 37 66  1  0
 37104  1  6
 38 43  2  0
 38 46  1  0
 38 47  1  0
 39 64  1  0
 39 67  2  0
 40 52  1  0
 40 53  2  0
 40 58  1  0
 41105  1  0
 41106  1  0
 41107  1  0
 42 43  1  0
 42 66  1  0
 42108  1  0
 42109  1  0
 43 44  1  0
 44110  1  0
 45 46  2  0
 45111  1  0
 46112  1  0
 47113  1  0
 47114  1  0
 48 41  1  0
 48 56  1  0
 48 65  1  0
 48115  1  1
 49 50  1  0
 49 53  1  0
 49 64  1  0
 49116  1  1
 50 51  1  0
 50117  1  0
 50118  1  0
 51 52  1  0
 51119  1  0
 51120  1  0
 52121  1  0
 52122  1  0
 53 54  1  0
 54 55  2  0
 54123  1  0
 55 57  1  0
 55124  1  0
 56 69  2  0
 57 58  2  0
 57125  1  0
 58126  1  0
 59 60  1  0
 59 61  1  0
 59 62  1  0
 60127  1  0
 60128  1  0
 60129  1  0
 61130  1  0
 61131  1  0
 61132  1  0
 62133  1  0
 62134  1  0
 62135  1  0
 63 65  1  0
 63136  1  0
 63137  1  0
 63138  1  0
 64139  1  0
 65140  1  0
 68 79  1  0
 71 73  2  0
 71 75  1  0
 71141  1  0
 72 74  1  0
 72 75  2  0
 72142  1  0
 73 76  1  0
 73143  1  0
 74 76  2  0
 74144  1  0
 75 77  1  0
 76 81  1  0
 77 78  1  0
 77 80  2  0
 78 79  1  0
 78145  1  0
 78146  1  0
 79147  1  0
 79148  1  0
 80149  1  0
 81150  1  0
M  ISO  4   1 100  68 101  79 101  81 100
M  END
$$$$
36
     RDKit          3D

154162  0  0  0  0  0  0  0  0999 V2000
  -30.7652  -14.3608   20.6636 C   0  0  0  0  0  0  0  0  0100  0  0
  -30.4392  -12.2669   19.3775 C   0  0  0  0  0  0  0  0  0101  0  0
  -29.4791  -12.5281   18.1977 C   0  0  0  0  0  0  0  0  0102  0  0
  -27.9985  -12.3963   18.6038 C   0  0  0  0  0  0  0  0  0103  0  0
  -27.6639  -13.2170   19.8820 C   0  0  2  0  0  0  0  0  0104  0  0
  -28.6795  -12.9602   21.0279 C   0  0  0  0  0  0  0  0  0105  0  0
  -25.2633  -13.8245   20.5754 C   0  0  0  0  0  0  0  0  0106  0  0
  -24.1645  -13.0409   20.9408 C   0  0  0  0  0  0  0  0  0107  0  0
  -24.6400  -11.7009   20.8697 C   0  0  0  0  0  0  0  0  0108  0  0
  -23.9005  -10.4085   21.0420 C   0  0  0  0  0  0  0  0  0109  0  0
  -24.3588   -9.4123   21.9123 C   0  0  0  0  0  0  0  0  0110  0  0
  -23.6296   -8.2350   22.0803 C   0  0  0  0  0  0  0  0  0111  0  0
  -22.4385   -8.0419   21.3657 C   0  0  0  0  0  0  0  0  0112  0  0
  -22.0103   -9.0167   20.4678 C   0  0  0  0  0  0  0  0  0113  0  0
  -22.7317  -10.1925   20.3102 C   0  0  0  0  0  0  0  0  0114  0  0
  -21.6857   -6.0709   22.5391 C   0  0  0  0  0  0  0  0  0115  0  0
  -21.4064   -6.5490   23.8264 C   0  0  0  0  0  0  0  0  0116  0  0
  -21.3635   -5.6677   24.9085 C   0  0  0  0  0  0  0  0  0117  0  0
  -21.5973   -4.3067   24.7088 C   0  0  0  0  0  0  0  0  0118  0  0
  -21.8700   -3.8284   23.4282 C   0  0  0  0  0  0  0  0  0119  0  0
  -21.9144   -4.7056   22.3460 C   0  0  0  0  0  0  0  0  0120  0  0
  -22.8194  -13.5263   21.1763 C   0  0  0  0  0  0  0  0  0121  0  0
  -22.1559   -4.2206   21.1063 F   0  0  0  0  0  0  0  0  0122  0  0
  -21.5628   -3.4510   25.7555 F   0  0  0  0  0  0  0  0  0123  0  0
  -30.0261  -13.1803   20.4553 N   0  0  0  0  0  0  0  0  0124  0  0
  -26.2911  -12.9356   20.3443 N   0  0  0  0  0  0  0  0  0125  0  0
  -25.9236  -11.6675   20.5847 N   0  0  0  0  0  0  0  0  0126  0  0
  -22.0708  -12.7905   22.0005 N   0  0  0  0  0  0  0  0  0127  0  0
  -25.4117  -15.1773   20.4097 N   0  0  0  0  0  0  0  0  0128  0  0
  -31.7916  -14.6724   20.0536 O   0  0  0  0  0  0  0  0  0129  0  0
  -21.6670   -6.9022   21.4423 O   0  0  0  0  0  0  0  0  0130  0  0
  -22.3946  -14.5564   20.6568 O   0  0  0  0  0  0  0  0  0131  0  0
  -24.6048  -31.8614   23.2223 C   0  0  0  0  0  0  0  0  0100  0  0
  -25.8822  -32.4841   23.8616 C   0  0  1  0  0  0  0  0  0101  0  0
  -27.2536  -27.5042   20.1156 C   0  0  0  0  0  0  0  0  0102  0  0
  -25.5726  -33.8762   24.2210 N   0  0  0  0  0  0  0  0  0103  0  0
  -23.4066  -30.4859   21.5461 C   0  0  2  0  0  0  0  0  0104  0  0
  -24.8467  -28.9636   20.1247 C   0  0  0  0  0  0  0  0  0105  0  0
  -22.7412  -29.4652   22.5052 C   0  0  0  0  0  0  0  0  0106  0  0
  -18.0167  -28.1302   22.8626 C   0  0  0  0  0  0  0  0  0107  0  0
  -24.1342  -36.7390   23.2568 C   0  0  0  0  0  0  0  0  0108  0  0
  -25.9141  -30.8882   21.3456 C   0  0  0  0  0  0  0  0  0109  0  0
  -25.9930  -29.5029   20.7208 C   0  0  0  0  0  0  0  0  0110  0  0
  -27.1758  -28.7612   20.7331 C   0  0  0  0  0  0  0  0  0111  0  0
  -26.1032  -26.9836   19.5230 C   0  0  0  0  0  0  0  0  0112  0  0
  -24.9097  -27.7011   19.5331 C   0  0  0  0  0  0  0  0  0113  0  0
  -23.5715  -29.7899   20.1582 C   0  0  0  0  0  0  0  0  0114  0  0
  -25.3990  -36.3212   24.0232 C   0  0  1  0  0  0  0  0  0115  0  0
  -20.5793  -28.3813   23.1004 C   0  0  2  0  0  0  0  0  0116  0  0
  -20.6548  -26.9392   22.5411 C   0  0  0  0  0  0  0  0  0117  0  0
  -19.5615  -26.6407   21.5143 C   0  0  0  0  0  0  0  0  0118  0  0
  -18.1797  -26.7818   22.1673 C   0  0  0  0  0  0  0  0  0119  0  0
  -19.1385  -28.8769   23.2988 C   0  0  0  0  0  0  0  0  0120  0  0
  -18.9183  -30.1286   23.8878 C   0  0  0  0  0  0  0  0  0121  0  0
  -17.6396  -30.6493   24.0352 C   0  0  0  0  0  0  0  0  0122  0  0
  -25.9153  -34.9582   23.4993 C   0  0  0  0  0  0  0  0  0123  0  0
  -16.5415  -29.9068   23.6254 C   0  0  0  0  0  0  0  0  0124  0  0
  -16.7331  -28.6521   23.0586 C   0  0  0  0  0  0  0  0  0125  0  0
  -26.4583  -31.6439   25.0683 C   0  0  0  0  0  0  0  0  0126  0  0
  -25.3807  -31.3179   26.1374 C   0  0  0  0  0  0  0  0  0127  0  0
  -27.0530  -30.3024   24.5680 C   0  0  0  0  0  0  0  0  0128  0  0
  -27.6014  -32.4281   25.7651 C   0  0  0  0  0  0  0  0  0129  0  0
  -27.5629  -37.2220   24.8621 C   0  0  0  0  0  0  0  0  0130  0  0
  -21.4133  -29.3375   22.3735 N   0  0  0  0  0  0  0  0  0131  0  0
  -26.4706  -37.3372   23.9061 N   0  0  0  0  0  0  0  0  0132  0  0
  -24.6674  -31.0544   22.1178 N   0  0  0  0  0  0  0  0  0133  0  0
  -23.4259  -28.8150   23.2971 O   0  0  0  0  0  0  0  0  0134  0  0
  -28.3948  -26.7345   20.0089 O   0  0  0  0  0  0  0  0  0135  0  0
  -26.5870  -34.9065   22.4671 O   0  0  0  0  0  0  0  0  0136  0  0
  -23.5365  -32.1254   23.7833 O   0  0  0  0  0  0  0  0  0137  0  0
  -29.5248  -17.0177   22.9506 C   0  0  0  0  0  0  0  0  0  0  0  0
  -30.0642  -19.7151   22.3279 C   0  0  0  0  0  0  0  0  0  0  0  0
  -30.0193  -21.0808   22.0477 C   0  0  0  0  0  0  0  0  0  0  0  0
  -29.2776  -19.2311   20.0954 C   0  0  0  0  0  0  0  0  0  0  0  0
  -29.6934  -18.7903   21.3518 C   0  0  0  0  0  0  0  0  0  0  0  0
  -29.6036  -21.5216   20.7913 C   0  0  0  0  0  0  0  0  0  0  0  0
  -29.2327  -20.5968   19.8152 C   0  0  0  0  0  0  0  0  0  0  0  0
  -29.7804  -25.2690   20.8827 C   0  0  0  0  0  0  0  0  0  0  0  0
  -29.9347  -23.8927   21.4943 C   0  0  0  0  0  0  0  0  0  0  0  0
  -30.1301  -26.4321   21.7905 C   0  0  0  0  0  0  0  0  0  1  0  0
  -29.3489  -16.7073   24.0555 N   0  0  0  0  0  0  0  0  0  0  0  0
  -28.8085  -21.0219   18.5362 N   0  0  0  0  0  0  0  0  0  0  0  0
  -29.5662  -22.8845   20.5336 N   0  0  0  0  0  0  0  0  0  0  0  0
  -29.7402  -17.3677   21.6442 N   0  0  0  0  0  0  0  0  0  0  0  0
  -29.3972  -25.4442   19.7267 O   0  0  0  0  0  0  0  0  0  0  0  0
  -31.4485  -12.4701   19.0860 H   0  0  0  0  0  0  0  0  0  0  0  0
  -30.3970  -11.2460   19.6950 H   0  0  0  0  0  0  0  0  0  0  0  0
  -29.6870  -11.8204   17.4226 H   0  0  0  0  0  0  0  0  0  0  0  0
  -29.6375  -13.5326   17.8649 H   0  0  0  0  0  0  0  0  0  0  0  0
  -27.7830  -11.3650   18.7904 H   0  0  0  0  0  0  0  0  0  0  0  0
  -27.4028  -12.7801   17.8021 H   0  0  0  0  0  0  0  0  0  0  0  0
  -27.7353  -14.2503   19.6136 H   0  0  0  0  0  0  0  0  0  0  0  0
  -28.5890  -11.9550   21.3832 H   0  0  0  0  0  0  0  0  0  0  0  0
  -28.5005  -13.6134   21.8562 H   0  0  0  0  0  0  0  0  0  0  0  0
  -25.2399   -9.5495   22.4318 H   0  0  0  0  0  0  0  0  0  0  0  0
  -23.9663   -7.5070   22.7297 H   0  0  0  0  0  0  0  0  0  0  0  0
  -21.1515   -8.8641   19.9162 H   0  0  0  0  0  0  0  0  0  0  0  0
  -22.4016  -10.9115   19.6476 H   0  0  0  0  0  0  0  0  0  0  0  0
  -21.2319   -7.5552   23.9750 H   0  0  0  0  0  0  0  0  0  0  0  0
  -21.1589   -6.0228   25.8556 H   0  0  0  0  0  0  0  0  0  0  0  0
  -22.0396   -2.8212   23.2809 H   0  0  0  0  0  0  0  0  0  0  0  0
  -22.4401  -11.9703   22.4008 H   0  0  0  0  0  0  0  0  0  0  0  0
  -21.1493  -13.0679   22.2082 H   0  0  0  0  0  0  0  0  0  0  0  0
  -24.6538  -15.7807   20.5848 H   0  0  0  0  0  0  0  0  0  0  0  0
  -26.2762  -15.5453   20.1156 H   0  0  0  0  0  0  0  0  0  0  0  0
  -26.6778  -32.4663   23.1464 H   0  0  0  0  0  0  0  0  0  0  0  0
  -25.0747  -34.0282   25.0566 H   0  0  0  0  0  0  0  0  0  0  0  0
  -22.7881  -31.3489   21.4131 H   0  0  0  0  0  0  0  0  0  0  0  0
  -23.3854  -35.9823   23.3648 H   0  0  0  0  0  0  0  0  0  0  0  0
  -24.3696  -36.8624   22.2204 H   0  0  0  0  0  0  0  0  0  0  0  0
  -23.7669  -37.6632   23.6516 H   0  0  0  0  0  0  0  0  0  0  0  0
  -25.9445  -31.6237   20.5691 H   0  0  0  0  0  0  0  0  0  0  0  0
  -26.7436  -31.0079   22.0108 H   0  0  0  0  0  0  0  0  0  0  0  0
  -28.0090  -29.1452   21.2057 H   0  0  0  0  0  0  0  0  0  0  0  0
  -26.1369  -26.0560   19.0719 H   0  0  0  0  0  0  0  0  0  0  0  0
  -24.0652  -27.2961   19.0997 H   0  0  0  0  0  0  0  0  0  0  0  0
  -23.6156  -30.5365   19.3930 H   0  0  0  0  0  0  0  0  0  0  0  0
  -22.7355  -29.1425   19.9945 H   0  0  0  0  0  0  0  0  0  0  0  0
  -25.1353  -36.2335   25.0565 H   0  0  0  0  0  0  0  0  0  0  0  0
  -21.0070  -28.3206   24.0793 H   0  0  0  0  0  0  0  0  0  0  0  0
  -20.5555  -26.2518   23.3550 H   0  0  0  0  0  0  0  0  0  0  0  0
  -21.5974  -26.8362   22.0454 H   0  0  0  0  0  0  0  0  0  0  0  0
  -19.6810  -25.6422   21.1488 H   0  0  0  0  0  0  0  0  0  0  0  0
  -19.6406  -27.3343   20.7034 H   0  0  0  0  0  0  0  0  0  0  0  0
  -17.4282  -26.6888   21.4113 H   0  0  0  0  0  0  0  0  0  0  0  0
  -18.0803  -26.0130   22.9049 H   0  0  0  0  0  0  0  0  0  0  0  0
  -19.7265  -30.6774   24.2204 H   0  0  0  0  0  0  0  0  0  0  0  0
  -17.5064  -31.5856   24.4483 H   0  0  0  0  0  0  0  0  0  0  0  0
  -15.5878  -30.2839   23.7407 H   0  0  0  0  0  0  0  0  0  0  0  0
  -15.9120  -28.0941   22.7766 H   0  0  0  0  0  0  0  0  0  0  0  0
  -24.5787  -30.7757   25.6817 H   0  0  0  0  0  0  0  0  0  0  0  0
  -25.0041  -32.2289   26.5536 H   0  0  0  0  0  0  0  0  0  0  0  0
  -25.8166  -30.7245   26.9138 H   0  0  0  0  0  0  0  0  0  0  0  0
  -26.2892  -29.7335   24.0803 H   0  0  0  0  0  0  0  0  0  0  0  0
  -27.4336  -29.7484   25.4006 H   0  0  0  0  0  0  0  0  0  0  0  0
  -27.8466  -30.4994   23.8779 H   0  0  0  0  0  0  0  0  0  0  0  0
  -27.2251  -33.3632   26.1242 H   0  0  0  0  0  0  0  0  0  0  0  0
  -28.3902  -32.6065   25.0645 H   0  0  0  0  0  0  0  0  0  0  0  0
  -27.9772  -31.8555   26.5872 H   0  0  0  0  0  0  0  0  0  0  0  0
  -28.2744  -38.0016   24.6863 H   0  0  0  0  0  0  0  0  0  0  0  0
  -28.0396  -36.2711   24.7461 H   0  0  0  0  0  0  0  0  0  0  0  0
  -27.1773  -37.3087   25.8564 H   0  0  0  0  0  0  0  0  0  0  0  0
  -20.9627  -29.9365   21.7352 H   0  0  0  0  0  0  0  0  0  0  0  0
  -26.0447  -38.2561   24.0273 H   0  0  0  0  0  0  0  0  0  0  0  0
  -30.3718  -19.3889   23.2574 H   0  0  0  0  0  0  0  0  0  0  0  0
  -30.2936  -21.7650   22.7699 H   0  0  0  0  0  0  0  0  0  0  0  0
  -29.0032  -18.5469   19.3732 H   0  0  0  0  0  0  0  0  0  0  0  0
  -29.3011  -23.8130   22.3528 H   0  0  0  0  0  0  0  0  0  0  0  0
  -30.9549  -23.7480   21.7827 H   0  0  0  0  0  0  0  0  0  0  0  0
  -31.0804  -26.9149   21.6974 H   0  0  0  0  0  0  0  0  0  0  0  0
  -30.1567  -26.5801   22.8499 H   0  0  0  0  0  0  0  0  0  0  0  0
  -28.5498  -20.3575   17.8574 H   0  0  0  0  0  0  0  0  0  0  0  0
  -28.7717  -21.9825   18.3239 H   0  0  0  0  0  0  0  0  0  0  0  0
  -29.2706  -23.1797   19.6422 H   0  0  0  0  0  0  0  0  0  0  0  0
  1 25  1  0
  1 30  2  0
  1 84  1  0
  2  3  1  0
  2 25  1  0
  2 86  1  0
  2 87  1  0
  3  4  1  0
  3 88  1  0
  3 89  1  0
  4  5  1  0
  4 90  1  0
  4 91  1  0
  5  6  1  0
  5 26  1  0
  5 92  1  6
  6 25  1  0
  6 93  1  0
  6 94  1  0
  7  8  2  0
  7 26  1  0
  7 29  1  0
  8  9  1  0
  8 22  1  0
  9 10  1  0
  9 27  2  0
 10 11  2  0
 10 15  1  0
 11 12  1  0
 11 95  1  0
 12 13  2  0
 12 96  1  0
 13 14  1  0
 13 31  1  0
 14 15  2  0
 14 97  1  0
 15 98  1  0
 16 17  2  0
 16 21  1  0
 16 31  1  0
 17 18  1  0
 17 99  1  0
 18 19  2  0
 18100  1  0
 19 20  1  0
 19 24  1  0
 20 21  2  0
 20101  1  0
 21 23  1  0
 22 28  1  0
 22 32  2  0
 26 27  1  0
 28102  1  0
 28103  1  0
 29104  1  0
 29105  1  0
 33 34  1  0
 33 66  1  0
 33 70  2  0
 34 36  1  0
 34 59  1  0
 34106  1  6
 35 44  2  0
 35 45  1  0
 35 68  1  0
 36 56  1  0
 36107  1  0
 37 39  1  0
 37 47  1  0
 37 66  1  0
 37108  1  6
 38 43  2  0
 38 46  1  0
 38 47  1  0
 39 64  1  0
 39 67  2  0
 40 52  1  0
 40 53  2  0
 40 58  1  0
 41109  1  0
 41110  1  0
 41111  1  0
 42 43  1  0
 42 66  1  0
 42112  1  0
 42113  1  0
 43 44  1  0
 44114  1  0
 45 46  2  0
 45115  1  0
 46116  1  0
 47117  1  0
 47118  1  0
 48 41  1  0
 48 56  1  0
 48 65  1  0
 48119  1  1
 49 50  1  0
 49 53  1  0
 49 64  1  0
 49120  1  1
 50 51  1  0
 50121  1  0
 50122  1  0
 51 52  1  0
 51123  1  0
 51124  1  0
 52125  1  0
 52126  1  0
 53 54  1  0
 54 55  2  0
 54127  1  0
 55 57  1  0
 55128  1  0
 56 69  2  0
 57 58  2  0
 57129  1  0
 58130  1  0
 59 60  1  0
 59 61  1  0
 59 62  1  0
 60131  1  0
 60132  1  0
 60133  1  0
 61134  1  0
 61135  1  0
 61136  1  0
 62137  1  0
 62138  1  0
 62139  1  0
 63 65  1  0
 63140  1  0
 63141  1  0
 63142  1  0
 64143  1  0
 65144  1  0
 68 80  1  0
 71 81  3  0
 71 84  1  0
 72 73  2  0
 72 75  1  0
 72145  1  0
 73 76  1  0
 73146  1  0
 74 75  2  0
 74 77  1  0
 74147  1  0
 75 84  1  0
 76 77  2  0
 76 83  1  0
 77 82  1  0
 78 79  1  0
 78 80  1  0
 78 85  2  0
 79 83  1  0
 79148  1  0
 79149  1  0
 80150  1  0
 80151  1  0
 82152  1  0
 82153  1  0
 83154  1  0
M  ISO  4   1 100  68 101  80 101  84 100
M  END
$$$$
37
     RDKit          3D

151159  0  0  0  0  0  0  0  0999 V2000
  -30.7652  -14.3608   20.6636 C   0  0  0  0  0  0  0  0  0100  0  0
  -30.4392  -12.2669   19.3775 C   0  0  0  0  0  0  0  0  0101  0  0
  -29.4791  -12.5281   18.1977 C   0  0  0  0  0  0  0  0  0102  0  0
  -27.9985  -12.3963   18.6038 C   0  0  0  0  0  0  0  0  0103  0  0
  -27.6639  -13.2170   19.8820 C   0  0  2  0  0  0  0  0  0104  0  0
  -28.6795  -12.9602   21.0279 C   0  0  0  0  0  0  0  0  0105  0  0
  -25.2633  -13.8245   20.5754 C   0  0  0  0  0  0  0  0  0106  0  0
  -24.1645  -13.0409   20.9408 C   0  0  0  0  0  0  0  0  0107  0  0
  -24.6400  -11.7009   20.8697 C   0  0  0  0  0  0  0  0  0108  0  0
  -23.9005  -10.4085   21.0420 C   0  0  0  0  0  0  0  0  0109  0  0
  -24.3588   -9.4123   21.9123 C   0  0  0  0  0  0  0  0  0110  0  0
  -23.6296   -8.2350   22.0803 C   0  0  0  0  0  0  0  0  0111  0  0
  -22.4385   -8.0419   21.3657 C   0  0  0  0  0  0  0  0  0112  0  0
  -22.0103   -9.0167   20.4678 C   0  0  0  0  0  0  0  0  0113  0  0
  -22.7317  -10.1925   20.3102 C   0  0  0  0  0  0  0  0  0114  0  0
  -21.6857   -6.0709   22.5391 C   0  0  0  0  0  0  0  0  0115  0  0
  -21.4064   -6.5490   23.8264 C   0  0  0  0  0  0  0  0  0116  0  0
  -21.3635   -5.6677   24.9085 C   0  0  0  0  0  0  0  0  0117  0  0
  -21.5973   -4.3067   24.7088 C   0  0  0  0  0  0  0  0  0118  0  0
  -21.8700   -3.8284   23.4282 C   0  0  0  0  0  0  0  0  0119  0  0
  -21.9144   -4.7056   22.3460 C   0  0  0  0  0  0  0  0  0120  0  0
  -22.8194  -13.5263   21.1763 C   0  0  0  0  0  0  0  0  0121  0  0
  -22.1559   -4.2206   21.1063 F   0  0  0  0  0  0  0  0  0122  0  0
  -21.5628   -3.4510   25.7555 F   0  0  0  0  0  0  0  0  0123  0  0
  -30.0261  -13.1803   20.4553 N   0  0  0  0  0  0  0  0  0124  0  0
  -26.2911  -12.9356   20.3443 N   0  0  0  0  0  0  0  0  0125  0  0
  -25.9236  -11.6675   20.5847 N   0  0  0  0  0  0  0  0  0126  0  0
  -22.0708  -12.7905   22.0005 N   0  0  0  0  0  0  0  0  0127  0  0
  -25.4117  -15.1773   20.4097 N   0  0  0  0  0  0  0  0  0128  0  0
  -31.7916  -14.6724   20.0536 O   0  0  0  0  0  0  0  0  0129  0  0
  -21.6670   -6.9022   21.4423 O   0  0  0  0  0  0  0  0  0130  0  0
  -22.3946  -14.5564   20.6568 O   0  0  0  0  0  0  0  0  0131  0  0
  -24.6048  -31.8614   23.2223 C   0  0  0  0  0  0  0  0  0100  0  0
  -25.8822  -32.4841   23.8616 C   0  0  1  0  0  0  0  0  0101  0  0
  -27.2536  -27.5042   20.1156 C   0  0  0  0  0  0  0  0  0102  0  0
  -25.5726  -33.8762   24.2210 N   0  0  0  0  0  0  0  0  0103  0  0
  -23.4066  -30.4859   21.5461 C   0  0  2  0  0  0  0  0  0104  0  0
  -24.8467  -28.9636   20.1247 C   0  0  0  0  0  0  0  0  0105  0  0
  -22.7412  -29.4652   22.5052 C   0  0  0  0  0  0  0  0  0106  0  0
  -18.0167  -28.1302   22.8626 C   0  0  0  0  0  0  0  0  0107  0  0
  -24.1342  -36.7390   23.2568 C   0  0  0  0  0  0  0  0  0108  0  0
  -25.9141  -30.8882   21.3456 C   0  0  0  0  0  0  0  0  0109  0  0
  -25.9930  -29.5029   20.7208 C   0  0  0  0  0  0  0  0  0110  0  0
  -27.1758  -28.7612   20.7331 C   0  0  0  0  0  0  0  0  0111  0  0
  -26.1032  -26.9836   19.5230 C   0  0  0  0  0  0  0  0  0112  0  0
  -24.9097  -27.7011   19.5331 C   0  0  0  0  0  0  0  0  0113  0  0
  -23.5715  -29.7899   20.1582 C   0  0  0  0  0  0  0  0  0114  0  0
  -25.3990  -36.3212   24.0232 C   0  0  1  0  0  0  0  0  0115  0  0
  -20.5793  -28.3813   23.1004 C   0  0  2  0  0  0  0  0  0116  0  0
  -20.6548  -26.9392   22.5411 C   0  0  0  0  0  0  0  0  0117  0  0
  -19.5615  -26.6407   21.5143 C   0  0  0  0  0  0  0  0  0118  0  0
  -18.1797  -26.7818   22.1673 C   0  0  0  0  0  0  0  0  0119  0  0
  -19.1385  -28.8769   23.2988 C   0  0  0  0  0  0  0  0  0120  0  0
  -18.9183  -30.1286   23.8878 C   0  0  0  0  0  0  0  0  0121  0  0
  -17.6396  -30.6493   24.0352 C   0  0  0  0  0  0  0  0  0122  0  0
  -25.9153  -34.9582   23.4993 C   0  0  0  0  0  0  0  0  0123  0  0
  -16.5415  -29.9068   23.6254 C   0  0  0  0  0  0  0  0  0124  0  0
  -16.7331  -28.6521   23.0586 C   0  0  0  0  0  0  0  0  0125  0  0
  -26.4583  -31.6439   25.0683 C   0  0  0  0  0  0  0  0  0126  0  0
  -25.3807  -31.3179   26.1374 C   0  0  0  0  0  0  0  0  0127  0  0
  -27.0530  -30.3024   24.5680 C   0  0  0  0  0  0  0  0  0128  0  0
  -27.6014  -32.4281   25.7651 C   0  0  0  0  0  0  0  0  0129  0  0
  -27.5629  -37.2220   24.8621 C   0  0  0  0  0  0  0  0  0130  0  0
  -21.4133  -29.3375   22.3735 N   0  0  0  0  0  0  0  0  0131  0  0
  -26.4706  -37.3372   23.9061 N   0  0  0  0  0  0  0  0  0132  0  0
  -24.6674  -31.0544   22.1178 N   0  0  0  0  0  0  0  0  0133  0  0
  -23.4259  -28.8150   23.2971 O   0  0  0  0  0  0  0  0  0134  0  0
  -28.3948  -26.7345   20.0089 O   0  0  0  0  0  0  0  0  0135  0  0
  -26.5870  -34.9065   22.4671 O   0  0  0  0  0  0  0  0  0136  0  0
  -23.5365  -32.1254   23.7833 O   0  0  0  0  0  0  0  0  0137  0  0
  -30.8475  -19.4064   19.8190 C   0  0  0  0  0  0  0  0  0  0  0  0
  -30.7654  -18.0314   20.0380 C   0  0  0  0  0  0  0  0  0  0  0  0
  -30.0138  -20.2758   20.5225 C   0  0  0  0  0  0  0  0  0  0  0  0
  -29.8494  -17.5256   20.9604 C   0  0  0  0  0  0  0  0  0  0  0  0
  -29.0979  -19.7700   21.4449 C   0  0  0  0  0  0  0  0  0  0  0  0
  -29.0157  -18.3949   21.6639 C   0  0  0  0  0  0  0  0  0  0  0  0
  -31.0372  -22.2246   19.3476 C   0  0  0  0  0  0  0  0  0  0  0  0
  -30.8753  -23.7353   19.3205 C   0  0  0  0  0  0  0  0  0  1  0  0
  -28.2462  -20.6355   22.1676 N   0  0  0  0  0  0  0  0  0  0  0  0
  -29.7678  -16.1280   21.1794 N   0  0  0  0  0  0  0  0  0  0  0  0
  -30.1115  -21.6375   20.2890 N   0  0  0  0  0  0  0  0  0  0  0  0
  -28.1327  -17.9076   22.5492 F   0  0  0  0  0  0  0  0  0  0  0  0
  -31.4485  -12.4701   19.0860 H   0  0  0  0  0  0  0  0  0  0  0  0
  -30.3970  -11.2460   19.6950 H   0  0  0  0  0  0  0  0  0  0  0  0
  -29.6870  -11.8204   17.4226 H   0  0  0  0  0  0  0  0  0  0  0  0
  -29.6375  -13.5326   17.8649 H   0  0  0  0  0  0  0  0  0  0  0  0
  -27.7830  -11.3650   18.7904 H   0  0  0  0  0  0  0  0  0  0  0  0
  -27.4028  -12.7801   17.8021 H   0  0  0  0  0  0  0  0  0  0  0  0
  -27.7353  -14.2503   19.6136 H   0  0  0  0  0  0  0  0  0  0  0  0
  -28.5890  -11.9550   21.3832 H   0  0  0  0  0  0  0  0  0  0  0  0
  -28.5005  -13.6134   21.8562 H   0  0  0  0  0  0  0  0  0  0  0  0
  -25.2399   -9.5495   22.4318 H   0  0  0  0  0  0  0  0  0  0  0  0
  -23.9663   -7.5070   22.7297 H   0  0  0  0  0  0  0  0  0  0  0  0
  -21.1515   -8.8641   19.9162 H   0  0  0  0  0  0  0  0  0  0  0  0
  -22.4016  -10.9115   19.6476 H   0  0  0  0  0  0  0  0  0  0  0  0
  -21.2319   -7.5552   23.9750 H   0  0  0  0  0  0  0  0  0  0  0  0
  -21.1589   -6.0228   25.8556 H   0  0  0  0  0  0  0  0  0  0  0  0
  -22.0396   -2.8212   23.2809 H   0  0  0  0  0  0  0  0  0  0  0  0
  -22.4401  -11.9703   22.4008 H   0  0  0  0  0  0  0  0  0  0  0  0
  -21.1493  -13.0679   22.2082 H   0  0  0  0  0  0  0  0  0  0  0  0
  -24.6538  -15.7807   20.5848 H   0  0  0  0  0  0  0  0  0  0  0  0
  -26.2762  -15.5453   20.1156 H   0  0  0  0  0  0  0  0  0  0  0  0
  -26.6778  -32.4663   23.1464 H   0  0  0  0  0  0  0  0  0  0  0  0
  -25.0747  -34.0282   25.0566 H   0  0  0  0  0  0  0  0  0  0  0  0
  -22.7881  -31.3489   21.4131 H   0  0  0  0  0  0  0  0  0  0  0  0
  -23.3854  -35.9823   23.3648 H   0  0  0  0  0  0  0  0  0  0  0  0
  -24.3696  -36.8624   22.2204 H   0  0  0  0  0  0  0  0  0  0  0  0
  -23.7669  -37.6632   23.6516 H   0  0  0  0  0  0  0  0  0  0  0  0
  -25.9445  -31.6237   20.5691 H   0  0  0  0  0  0  0  0  0  0  0  0
  -26.7436  -31.0079   22.0108 H   0  0  0  0  0  0  0  0  0  0  0  0
  -28.0090  -29.1452   21.2057 H   0  0  0  0  0  0  0  0  0  0  0  0
  -26.1369  -26.0560   19.0719 H   0  0  0  0  0  0  0  0  0  0  0  0
  -24.0652  -27.2961   19.0997 H   0  0  0  0  0  0  0  0  0  0  0  0
  -23.6156  -30.5365   19.3930 H   0  0  0  0  0  0  0  0  0  0  0  0
  -22.7355  -29.1425   19.9945 H   0  0  0  0  0  0  0  0  0  0  0  0
  -25.1353  -36.2335   25.0565 H   0  0  0  0  0  0  0  0  0  0  0  0
  -21.0070  -28.3206   24.0793 H   0  0  0  0  0  0  0  0  0  0  0  0
  -20.5555  -26.2518   23.3550 H   0  0  0  0  0  0  0  0  0  0  0  0
  -21.5974  -26.8362   22.0454 H   0  0  0  0  0  0  0  0  0  0  0  0
  -19.6810  -25.6422   21.1488 H   0  0  0  0  0  0  0  0  0  0  0  0
  -19.6406  -27.3343   20.7034 H   0  0  0  0  0  0  0  0  0  0  0  0
  -17.4282  -26.6888   21.4113 H   0  0  0  0  0  0  0  0  0  0  0  0
  -18.0803  -26.0130   22.9049 H   0  0  0  0  0  0  0  0  0  0  0  0
  -19.7265  -30.6774   24.2204 H   0  0  0  0  0  0  0  0  0  0  0  0
  -17.5064  -31.5856   24.4483 H   0  0  0  0  0  0  0  0  0  0  0  0
  -15.5878  -30.2839   23.7407 H   0  0  0  0  0  0  0  0  0  0  0  0
  -15.9120  -28.0941   22.7766 H   0  0  0  0  0  0  0  0  0  0  0  0
  -24.5787  -30.7757   25.6817 H   0  0  0  0  0  0  0  0  0  0  0  0
  -25.0041  -32.2289   26.5536 H   0  0  0  0  0  0  0  0  0  0  0  0
  -25.8166  -30.7245   26.9138 H   0  0  0  0  0  0  0  0  0  0  0  0
  -26.2892  -29.7335   24.0803 H   0  0  0  0  0  0  0  0  0  0  0  0
  -27.4336  -29.7484   25.4006 H   0  0  0  0  0  0  0  0  0  0  0  0
  -27.8466  -30.4994   23.8779 H   0  0  0  0  0  0  0  0  0  0  0  0
  -27.2251  -33.3632   26.1242 H   0  0  0  0  0  0  0  0  0  0  0  0
  -28.3902  -32.6065   25.0645 H   0  0  0  0  0  0  0  0  0  0  0  0
  -27.9772  -31.8555   26.5872 H   0  0  0  0  0  0  0  0  0  0  0  0
  -28.2744  -38.0016   24.6863 H   0  0  0  0  0  0  0  0  0  0  0  0
  -28.0396  -36.2711   24.7461 H   0  0  0  0  0  0  0  0  0  0  0  0
  -27.1773  -37.3087   25.8564 H   0  0  0  0  0  0  0  0  0  0  0  0
  -20.9627  -29.9365   21.7352 H   0  0  0  0  0  0  0  0  0  0  0  0
  -26.0447  -38.2561   24.0273 H   0  0  0  0  0  0  0  0  0  0  0  0
  -31.5251  -19.7806   19.1364 H   0  0  0  0  0  0  0  0  0  0  0  0
  -31.3823  -17.3883   19.5176 H   0  0  0  0  0  0  0  0  0  0  0  0
  -32.0379  -21.9821   19.6387 H   0  0  0  0  0  0  0  0  0  0  0  0
  -30.8346  -21.8354   18.3717 H   0  0  0  0  0  0  0  0  0  0  0  0
  -31.1254  -23.9312   18.2987 H   0  0  0  0  0  0  0  0  0  0  0  0
  -31.2516  -23.8038   20.3198 H   0  0  0  0  0  0  0  0  0  0  0  0
  -28.2944  -21.6080   22.0222 H   0  0  0  0  0  0  0  0  0  0  0  0
  -27.6046  -20.2660   22.8165 H   0  0  0  0  0  0  0  0  0  0  0  0
  -28.9978  -15.9228   21.7575 H   0  0  0  0  0  0  0  0  0  0  0  0
  -29.5169  -22.2391   20.7927 H   0  0  0  0  0  0  0  0  0  0  0  0
  1 25  1  0
  1 30  2  0
  1 80  1  0
  2  3  1  0
  2 25  1  0
  2 83  1  0
  2 84  1  0
  3  4  1  0
  3 85  1  0
  3 86  1  0
  4  5  1  0
  4 87  1  0
  4 88  1  0
  5  6  1  0
  5 26  1  0
  5 89  1  6
  6 25  1  0
  6 90  1  0
  6 91  1  0
  7  8  2  0
  7 26  1  0
  7 29  1  0
  8  9  1  0
  8 22  1  0
  9 10  1  0
  9 27  2  0
 10 11  2  0
 10 15  1  0
 11 12  1  0
 11 92  1  0
 12 13  2  0
 12 93  1  0
 13 14  1  0
 13 31  1  0
 14 15  2  0
 14 94  1  0
 15 95  1  0
 16 17  2  0
 16 21  1  0
 16 31  1  0
 17 18  1  0
 17 96  1  0
 18 19  2  0
 18 97  1  0
 19 20  1  0
 19 24  1  0
 20 21  2  0
 20 98  1  0
 21 23  1  0
 22 28  1  0
 22 32  2  0
 26 27  1  0
 28 99  1  0
 28100  1  0
 29101  1  0
 29102  1  0
 33 34  1  0
 33 66  1  0
 33 70  2  0
 34 36  1  0
 34 59  1  0
 34103  1  6
 35 44  2  0
 35 45  1  0
 35 68  1  0
 36 56  1  0
 36104  1  0
 37 39  1  0
 37 47  1  0
 37 66  1  0
 37105  1  6
 38 43  2  0
 38 46  1  0
 38 47  1  0
 39 64  1  0
 39 67  2  0
 40 52  1  0
 40 53  2  0
 40 58  1  0
 41106  1  0
 41107  1  0
 41108  1  0
 42 43  1  0
 42 66  1  0
 42109  1  0
 42110  1  0
 43 44  1  0
 44111  1  0
 45 46  2  0
 45112  1  0
 46113  1  0
 47114  1  0
 47115  1  0
 48 41  1  0
 48 56  1  0
 48 65  1  0
 48116  1  1
 49 50  1  0
 49 53  1  0
 49 64  1  0
 49117  1  1
 50 51  1  0
 50118  1  0
 50119  1  0
 51 52  1  0
 51120  1  0
 51121  1  0
 52122  1  0
 52123  1  0
 53 54  1  0
 54 55  2  0
 54124  1  0
 55 57  1  0
 55125  1  0
 56 69  2  0
 57 58  2  0
 57126  1  0
 58127  1  0
 59 60  1  0
 59 61  1  0
 59 62  1  0
 60128  1  0
 60129  1  0
 60130  1  0
 61131  1  0
 61132  1  0
 61133  1  0
 62134  1  0
 62135  1  0
 62136  1  0
 63 65  1  0
 63137  1  0
 63138  1  0
 63139  1  0
 64140  1  0
 65141  1  0
 68 78  1  0
 71 72  2  0
 71 73  1  0
 71142  1  0
 72 74  1  0
 72143  1  0
 73 75  2  0
 73 81  1  0
 74 76  2  0
 74 80  1  0
 75 76  1  0
 75 79  1  0
 76 82  1  0
 77 78  1  0
 77 81  1  0
 77144  1  0
 77145  1  0
 78146  1  0
 78147  1  0
 79148  1  0
 79149  1  0
 80150  1  0
 81151  1  0
M  ISO  4   1 100  68 101  78 101  80 100
M  END
$$$$
38
     RDKit          3D

159168  0  0  0  0  0  0  0  0999 V2000
  -30.7652  -14.3608   20.6636 C   0  0  0  0  0  0  0  0  0100  0  0
  -30.4392  -12.2669   19.3775 C   0  0  0  0  0  0  0  0  0101  0  0
  -29.4791  -12.5281   18.1977 C   0  0  0  0  0  0  0  0  0102  0  0
  -27.9985  -12.3963   18.6038 C   0  0  0  0  0  0  0  0  0103  0  0
  -27.6639  -13.2170   19.8820 C   0  0  2  0  0  0  0  0  0104  0  0
  -28.6795  -12.9602   21.0279 C   0  0  0  0  0  0  0  0  0105  0  0
  -25.2633  -13.8245   20.5754 C   0  0  0  0  0  0  0  0  0106  0  0
  -24.1645  -13.0409   20.9408 C   0  0  0  0  0  0  0  0  0107  0  0
  -24.6400  -11.7009   20.8697 C   0  0  0  0  0  0  0  0  0108  0  0
  -23.9005  -10.4085   21.0420 C   0  0  0  0  0  0  0  0  0109  0  0
  -24.3588   -9.4123   21.9123 C   0  0  0  0  0  0  0  0  0110  0  0
  -23.6296   -8.2350   22.0803 C   0  0  0  0  0  0  0  0  0111  0  0
  -22.4385   -8.0419   21.3657 C   0  0  0  0  0  0  0  0  0112  0  0
  -22.0103   -9.0167   20.4678 C   0  0  0  0  0  0  0  0  0113  0  0
  -22.7317  -10.1925   20.3102 C   0  0  0  0  0  0  0  0  0114  0  0
  -21.6857   -6.0709   22.5391 C   0  0  0  0  0  0  0  0  0115  0  0
  -21.4064   -6.5490   23.8264 C   0  0  0  0  0  0  0  0  0116  0  0
  -21.3635   -5.6677   24.9085 C   0  0  0  0  0  0  0  0  0117  0  0
  -21.5973   -4.3067   24.7088 C   0  0  0  0  0  0  0  0  0118  0  0
  -21.8700   -3.8284   23.4282 C   0  0  0  0  0  0  0  0  0119  0  0
  -21.9144   -4.7056   22.3460 C   0  0  0  0  0  0  0  0  0120  0  0
  -22.8194  -13.5263   21.1763 C   0  0  0  0  0  0  0  0  0121  0  0
  -22.1559   -4.2206   21.1063 F   0  0  0  0  0  0  0  0  0122  0  0
  -21.5628   -3.4510   25.7555 F   0  0  0  0  0  0  0  0  0123  0  0
  -30.0261  -13.1803   20.4553 N   0  0  0  0  0  0  0  0  0124  0  0
  -26.2911  -12.9356   20.3443 N   0  0  0  0  0  0  0  0  0125  0  0
  -25.9236  -11.6675   20.5847 N   0  0  0  0  0  0  0  0  0126  0  0
  -22.0708  -12.7905   22.0005 N   0  0  0  0  0  0  0  0  0127  0  0
  -25.4117  -15.1773   20.4097 N   0  0  0  0  0  0  0  0  0128  0  0
  -31.7916  -14.6724   20.0536 O   0  0  0  0  0  0  0  0  0129  0  0
  -21.6670   -6.9022   21.4423 O   0  0  0  0  0  0  0  0  0130  0  0
  -22.3946  -14.5564   20.6568 O   0  0  0  0  0  0  0  0  0131  0  0
  -24.6048  -31.8614   23.2223 C   0  0  0  0  0  0  0  0  0100  0  0
  -25.8822  -32.4841   23.8616 C   0  0  1  0  0  0  0  0  0101  0  0
  -27.2536  -27.5042   20.1156 C   0  0  0  0  0  0  0  0  0102  0  0
  -25.5726  -33.8762   24.2210 N   0  0  0  0  0  0  0  0  0103  0  0
  -23.4066  -30.4859   21.5461 C   0  0  2  0  0  0  0  0  0104  0  0
  -24.8467  -28.9636   20.1247 C   0  0  0  0  0  0  0  0  0105  0  0
  -22.7412  -29.4652   22.5052 C   0  0  0  0  0  0  0  0  0106  0  0
  -18.0167  -28.1302   22.8626 C   0  0  0  0  0  0  0  0  0107  0  0
  -24.1342  -36.7390   23.2568 C   0  0  0  0  0  0  0  0  0108  0  0
  -25.9141  -30.8882   21.3456 C   0  0  0  0  0  0  0  0  0109  0  0
  -25.9930  -29.5029   20.7208 C   0  0  0  0  0  0  0  0  0110  0  0
  -27.1758  -28.7612   20.7331 C   0  0  0  0  0  0  0  0  0111  0  0
  -26.1032  -26.9836   19.5230 C   0  0  0  0  0  0  0  0  0112  0  0
  -24.9097  -27.7011   19.5331 C   0  0  0  0  0  0  0  0  0113  0  0
  -23.5715  -29.7899   20.1582 C   0  0  0  0  0  0  0  0  0114  0  0
  -25.3990  -36.3212   24.0232 C   0  0  1  0  0  0  0  0  0115  0  0
  -20.5793  -28.3813   23.1004 C   0  0  2  0  0  0  0  0  0116  0  0
  -20.6548  -26.9392   22.5411 C   0  0  0  0  0  0  0  0  0117  0  0
  -19.5615  -26.6407   21.5143 C   0  0  0  0  0  0  0  0  0118  0  0
  -18.1797  -26.7818   22.1673 C   0  0  0  0  0  0  0  0  0119  0  0
  -19.1385  -28.8769   23.2988 C   0  0  0  0  0  0  0  0  0120  0  0
  -18.9183  -30.1286   23.8878 C   0  0  0  0  0  0  0  0  0121  0  0
  -17.6396  -30.6493   24.0352 C   0  0  0  0  0  0  0  0  0122  0  0
  -25.9153  -34.9582   23.4993 C   0  0  0  0  0  0  0  0  0123  0  0
  -16.5415  -29.9068   23.6254 C   0  0  0  0  0  0  0  0  0124  0  0
  -16.7331  -28.6521   23.0586 C   0  0  0  0  0  0  0  0  0125  0  0
  -26.4583  -31.6439   25.0683 C   0  0  0  0  0  0  0  0  0126  0  0
  -25.3807  -31.3179   26.1374 C   0  0  0  0  0  0  0  0  0127  0  0
  -27.0530  -30.3024   24.5680 C   0  0  0  0  0  0  0  0  0128  0  0
  -27.6014  -32.4281   25.7651 C   0  0  0  0  0  0  0  0  0129  0  0
  -27.5629  -37.2220   24.8621 C   0  0  0  0  0  0  0  0  0130  0  0
  -21.4133  -29.3375   22.3735 N   0  0  0  0  0  0  0  0  0131  0  0
  -26.4706  -37.3372   23.9061 N   0  0  0  0  0  0  0  0  0132  0  0
  -24.6674  -31.0544   22.1178 N   0  0  0  0  0  0  0  0  0133  0  0
  -23.4259  -28.8150   23.2971 O   0  0  0  0  0  0  0  0  0134  0  0
  -28.3948  -26.7345   20.0089 O   0  0  0  0  0  0  0  0  0135  0  0
  -26.5870  -34.9065   22.4671 O   0  0  0  0  0  0  0  0  0136  0  0
  -23.5365  -32.1254   23.7833 O   0  0  0  0  0  0  0  0  0137  0  0
  -28.6307  -18.9316   21.4785 C   0  0  0  0  0  0  0  0  0  0  0  0
  -28.9643  -18.4951   19.1257 C   0  0  0  0  0  0  0  0  0  0  0  0
  -29.4422  -17.8423   21.7956 C   0  0  0  0  0  0  0  0  0  0  0  0
  -29.7758  -17.4059   19.4429 C   0  0  0  0  0  0  0  0  0  0  0  0
  -28.3917  -19.2580   20.1435 C   0  0  0  0  0  0  0  0  0  0  0  0
  -30.0148  -17.0795   20.7778 C   0  0  0  0  0  0  0  0  0  0  0  0
  -27.4710  -21.4918   20.6652 C   0  0  0  0  0  0  0  0  0  0  0  0
  -26.5966  -22.4982   20.5135 C   0  0  0  0  0  0  0  0  0  0  0  0
  -26.7609  -20.3558   18.6378 C   0  0  0  0  0  0  0  0  0  0  0  0
  -25.6445  -22.5082   19.3595 C   0  0  0  0  0  0  0  0  0  0  0  0
  -26.2029  -21.6995   18.2039 C   0  0  0  0  0  0  0  0  0  0  0  0
  -31.8059  -16.0866   22.2140 C   0  0  0  0  0  0  0  0  0  0  0  0
  -26.5054  -23.6391   21.4806 C   0  0  0  0  0  0  0  0  0  1  0  0
  -27.5479  -20.3899   19.8137 N   0  0  0  0  0  0  0  0  0  0  0  0
  -30.8549  -15.9519   21.1058 N   0  0  0  0  0  0  0  0  0  0  0  0
  -26.5388  -19.3644   17.9401 O   0  0  0  0  0  0  0  0  0  0  0  0
  -31.4485  -12.4701   19.0860 H   0  0  0  0  0  0  0  0  0  0  0  0
  -30.3970  -11.2460   19.6950 H   0  0  0  0  0  0  0  0  0  0  0  0
  -29.6870  -11.8204   17.4226 H   0  0  0  0  0  0  0  0  0  0  0  0
  -29.6375  -13.5326   17.8649 H   0  0  0  0  0  0  0  0  0  0  0  0
  -27.7830  -11.3650   18.7904 H   0  0  0  0  0  0  0  0  0  0  0  0
  -27.4028  -12.7801   17.8021 H   0  0  0  0  0  0  0  0  0  0  0  0
  -27.7353  -14.2503   19.6136 H   0  0  0  0  0  0  0  0  0  0  0  0
  -28.5890  -11.9550   21.3832 H   0  0  0  0  0  0  0  0  0  0  0  0
  -28.5005  -13.6134   21.8562 H   0  0  0  0  0  0  0  0  0  0  0  0
  -25.2399   -9.5495   22.4318 H   0  0  0  0  0  0  0  0  0  0  0  0
  -23.9663   -7.5070   22.7297 H   0  0  0  0  0  0  0  0  0  0  0  0
  -21.1515   -8.8641   19.9162 H   0  0  0  0  0  0  0  0  0  0  0  0
  -22.4016  -10.9115   19.6476 H   0  0  0  0  0  0  0  0  0  0  0  0
  -21.2319   -7.5552   23.9750 H   0  0  0  0  0  0  0  0  0  0  0  0
  -21.1589   -6.0228   25.8556 H   0  0  0  0  0  0  0  0  0  0  0  0
  -22.0396   -2.8212   23.2809 H   0  0  0  0  0  0  0  0  0  0  0  0
  -22.4401  -11.9703   22.4008 H   0  0  0  0  0  0  0  0  0  0  0  0
  -21.1493  -13.0679   22.2082 H   0  0  0  0  0  0  0  0  0  0  0  0
  -24.6538  -15.7807   20.5848 H   0  0  0  0  0  0  0  0  0  0  0  0
  -26.2762  -15.5453   20.1156 H   0  0  0  0  0  0  0  0  0  0  0  0
  -26.6778  -32.4663   23.1464 H   0  0  0  0  0  0  0  0  0  0  0  0
  -25.0747  -34.0282   25.0566 H   0  0  0  0  0  0  0  0  0  0  0  0
  -22.7881  -31.3489   21.4131 H   0  0  0  0  0  0  0  0  0  0  0  0
  -23.3854  -35.9823   23.3648 H   0  0  0  0  0  0  0  0  0  0  0  0
  -24.3696  -36.8624   22.2204 H   0  0  0  0  0  0  0  0  0  0  0  0
  -23.7669  -37.6632   23.6516 H   0  0  0  0  0  0  0  0  0  0  0  0
  -25.9445  -31.6237   20.5691 H   0  0  0  0  0  0  0  0  0  0  0  0
  -26.7436  -31.0079   22.0108 H   0  0  0  0  0  0  0  0  0  0  0  0
  -28.0090  -29.1452   21.2057 H   0  0  0  0  0  0  0  0  0  0  0  0
  -26.1369  -26.0560   19.0719 H   0  0  0  0  0  0  0  0  0  0  0  0
  -24.0652  -27.2961   19.0997 H   0  0  0  0  0  0  0  0  0  0  0  0
  -23.6156  -30.5365   19.3930 H   0  0  0  0  0  0  0  0  0  0  0  0
  -22.7355  -29.1425   19.9945 H   0  0  0  0  0  0  0  0  0  0  0  0
  -25.1353  -36.2335   25.0565 H   0  0  0  0  0  0  0  0  0  0  0  0
  -21.0070  -28.3206   24.0793 H   0  0  0  0  0  0  0  0  0  0  0  0
  -20.5555  -26.2518   23.3550 H   0  0  0  0  0  0  0  0  0  0  0  0
  -21.5974  -26.8362   22.0454 H   0  0  0  0  0  0  0  0  0  0  0  0
  -19.6810  -25.6422   21.1488 H   0  0  0  0  0  0  0  0  0  0  0  0
  -19.6406  -27.3343   20.7034 H   0  0  0  0  0  0  0  0  0  0  0  0
  -17.4282  -26.6888   21.4113 H   0  0  0  0  0  0  0  0  0  0  0  0
  -18.0803  -26.0130   22.9049 H   0  0  0  0  0  0  0  0  0  0  0  0
  -19.7265  -30.6774   24.2204 H   0  0  0  0  0  0  0  0  0  0  0  0
  -17.5064  -31.5856   24.4483 H   0  0  0  0  0  0  0  0  0  0  0  0
  -15.5878  -30.2839   23.7407 H   0  0  0  0  0  0  0  0  0  0  0  0
  -15.9120  -28.0941   22.7766 H   0  0  0  0  0  0  0  0  0  0  0  0
  -24.5787  -30.7757   25.6817 H   0  0  0  0  0  0  0  0  0  0  0  0
  -25.0041  -32.2289   26.5536 H   0  0  0  0  0  0  0  0  0  0  0  0
  -25.8166  -30.7245   26.9138 H   0  0  0  0  0  0  0  0  0  0  0  0
  -26.2892  -29.7335   24.0803 H   0  0  0  0  0  0  0  0  0  0  0  0
  -27.4336  -29.7484   25.4006 H   0  0  0  0  0  0  0  0  0  0  0  0
  -27.8466  -30.4994   23.8779 H   0  0  0  0  0  0  0  0  0  0  0  0
  -27.2251  -33.3632   26.1242 H   0  0  0  0  0  0  0  0  0  0  0  0
  -28.3902  -32.6065   25.0645 H   0  0  0  0  0  0  0  0  0  0  0  0
  -27.9772  -31.8555   26.5872 H   0  0  0  0  0  0  0  0  0  0  0  0
  -28.2744  -38.0016   24.6863 H   0  0  0  0  0  0  0  0  0  0  0  0
  -28.0396  -36.2711   24.7461 H   0  0  0  0  0  0  0  0  0  0  0  0
  -27.1773  -37.3087   25.8564 H   0  0  0  0  0  0  0  0  0  0  0  0
  -20.9627  -29.9365   21.7352 H   0  0  0  0  0  0  0  0  0  0  0  0
  -26.0447  -38.2561   24.0273 H   0  0  0  0  0  0  0  0  0  0  0  0
  -28.2071  -19.4960   22.2315 H   0  0  0  0  0  0  0  0  0  0  0  0
  -28.7875  -18.7366   18.1380 H   0  0  0  0  0  0  0  0  0  0  0  0
  -29.6190  -17.6007   22.7832 H   0  0  0  0  0  0  0  0  0  0  0  0
  -30.1994  -16.8415   18.6899 H   0  0  0  0  0  0  0  0  0  0  0  0
  -28.1269  -21.5358   21.4608 H   0  0  0  0  0  0  0  0  0  0  0  0
  -25.4886  -23.5175   19.0402 H   0  0  0  0  0  0  0  0  0  0  0  0
  -24.7180  -22.0729   19.6711 H   0  0  0  0  0  0  0  0  0  0  0  0
  -25.4192  -21.5309   17.4951 H   0  0  0  0  0  0  0  0  0  0  0  0
  -27.0096  -22.2602   17.7800 H   0  0  0  0  0  0  0  0  0  0  0  0
  -31.8698  -17.1139   22.5063 H   0  0  0  0  0  0  0  0  0  0  0  0
  -32.7700  -15.7444   21.9003 H   0  0  0  0  0  0  0  0  0  0  0  0
  -31.4718  -15.4997   23.0440 H   0  0  0  0  0  0  0  0  0  0  0  0
  -26.9527  -23.3562   22.4105 H   0  0  0  0  0  0  0  0  0  0  0  0
  -25.4781  -23.8901   21.6434 H   0  0  0  0  0  0  0  0  0  0  0  0
  1 25  1  0
  1 30  2  0
  1 85  1  0
  2  3  1  0
  2 25  1  0
  2 87  1  0
  2 88  1  0
  3  4  1  0
  3 89  1  0
  3 90  1  0
  4  5  1  0
  4 91  1  0
  4 92  1  0
  5  6  1  0
  5 26  1  0
  5 93  1  6
  6 25  1  0
  6 94  1  0
  6 95  1  0
  7  8  2  0
  7 26  1  0
  7 29  1  0
  8  9  1  0
  8 22  1  0
  9 10  1  0
  9 27  2  0
 10 11  2  0
 10 15  1  0
 11 12  1  0
 11 96  1  0
 12 13  2  0
 12 97  1  0
 13 14  1  0
 13 31  1  0
 14 15  2  0
 14 98  1  0
 15 99  1  0
 16 17  2  0
 16 21  1  0
 16 31  1  0
 17 18  1  0
 17100  1  0
 18 19  2  0
 18101  1  0
 19 20  1  0
 19 24  1  0
 20 21  2  0
 20102  1  0
 21 23  1  0
 22 28  1  0
 22 32  2  0
 26 27  1  0
 28103  1  0
 28104  1  0
 29105  1  0
 29106  1  0
 33 34  1  0
 33 66  1  0
 33 70  2  0
 34 36  1  0
 34 59  1  0
 34107  1  6
 35 44  2  0
 35 45  1  0
 35 68  1  0
 36 56  1  0
 36108  1  0
 37 39  1  0
 37 47  1  0
 37 66  1  0
 37109  1  6
 38 43  2  0
 38 46  1  0
 38 47  1  0
 39 64  1  0
 39 67  2  0
 40 52  1  0
 40 53  2  0
 40 58  1  0
 41110  1  0
 41111  1  0
 41112  1  0
 42 43  1  0
 42 66  1  0
 42113  1  0
 42114  1  0
 43 44  1  0
 44115  1  0
 45 46  2  0
 45116  1  0
 46117  1  0
 47118  1  0
 47119  1  0
 48 41  1  0
 48 56  1  0
 48 65  1  0
 48120  1  1
 49 50  1  0
 49 53  1  0
 49 64  1  0
 49121  1  1
 50 51  1  0
 50122  1  0
 50123  1  0
 51 52  1  0
 51124  1  0
 51125  1  0
 52126  1  0
 52127  1  0
 53 54  1  0
 54 55  2  0
 54128  1  0
 55 57  1  0
 55129  1  0
 56 69  2  0
 57 58  2  0
 57130  1  0
 58131  1  0
 59 60  1  0
 59 61  1  0
 59 62  1  0
 60132  1  0
 60133  1  0
 60134  1  0
 61135  1  0
 61136  1  0
 61137  1  0
 62138  1  0
 62139  1  0
 62140  1  0
 63 65  1  0
 63141  1  0
 63142  1  0
 63143  1  0
 64144  1  0
 65145  1  0
 68 83  1  0
 71 73  2  0
 71 75  1  0
 71146  1  0
 72 74  1  0
 72 75  2  0
 72147  1  0
 73 76  1  0
 73148  1  0
 74 76  2  0
 74149  1  0
 75 84  1  0
 76 85  1  0
 77 78  2  0
 77 84  1  0
 77150  1  0
 78 80  1  0
 78 83  1  0
 79 81  1  0
 79 84  1  0
 79 86  2  0
 80 81  1  0
 80151  1  0
 80152  1  0
 81153  1  0
 81154  1  0
 82 85  1  0
 82155  1  0
 82156  1  0
 82157  1  0
 83158  1  0
 83159  1  0
M  ISO  4   1 100  68 101  83 101  85 100
M  END
$$$$
39
     RDKit          3D

160169  0  0  0  0  0  0  0  0999 V2000
  -30.7652  -14.3608   20.6636 C   0  0  0  0  0  0  0  0  0100  0  0
  -30.4392  -12.2669   19.3775 C   0  0  0  0  0  0  0  0  0101  0  0
  -29.4791  -12.5281   18.1977 C   0  0  0  0  0  0  0  0  0102  0  0
  -27.9985  -12.3963   18.6038 C   0  0  0  0  0  0  0  0  0103  0  0
  -27.6639  -13.2170   19.8820 C   0  0  2  0  0  0  0  0  0104  0  0
  -28.6795  -12.9602   21.0279 C   0  0  0  0  0  0  0  0  0105  0  0
  -25.2633  -13.8245   20.5754 C   0  0  0  0  0  0  0  0  0106  0  0
  -24.1645  -13.0409   20.9408 C   0  0  0  0  0  0  0  0  0107  0  0
  -24.6400  -11.7009   20.8697 C   0  0  0  0  0  0  0  0  0108  0  0
  -23.9005  -10.4085   21.0420 C   0  0  0  0  0  0  0  0  0109  0  0
  -24.3588   -9.4123   21.9123 C   0  0  0  0  0  0  0  0  0110  0  0
  -23.6296   -8.2350   22.0803 C   0  0  0  0  0  0  0  0  0111  0  0
  -22.4385   -8.0419   21.3657 C   0  0  0  0  0  0  0  0  0112  0  0
  -22.0103   -9.0167   20.4678 C   0  0  0  0  0  0  0  0  0113  0  0
  -22.7317  -10.1925   20.3102 C   0  0  0  0  0  0  0  0  0114  0  0
  -21.6857   -6.0709   22.5391 C   0  0  0  0  0  0  0  0  0115  0  0
  -21.4064   -6.5490   23.8264 C   0  0  0  0  0  0  0  0  0116  0  0
  -21.3635   -5.6677   24.9085 C   0  0  0  0  0  0  0  0  0117  0  0
  -21.5973   -4.3067   24.7088 C   0  0  0  0  0  0  0  0  0118  0  0
  -21.8700   -3.8284   23.4282 C   0  0  0  0  0  0  0  0  0119  0  0
  -21.9144   -4.7056   22.3460 C   0  0  0  0  0  0  0  0  0120  0  0
  -22.8194  -13.5263   21.1763 C   0  0  0  0  0  0  0  0  0121  0  0
  -22.1559   -4.2206   21.1063 F   0  0  0  0  0  0  0  0  0122  0  0
  -21.5628   -3.4510   25.7555 F   0  0  0  0  0  0  0  0  0123  0  0
  -30.0261  -13.1803   20.4553 N   0  0  0  0  0  0  0  0  0124  0  0
  -26.2911  -12.9356   20.3443 N   0  0  0  0  0  0  0  0  0125  0  0
  -25.9236  -11.6675   20.5847 N   0  0  0  0  0  0  0  0  0126  0  0
  -22.0708  -12.7905   22.0005 N   0  0  0  0  0  0  0  0  0127  0  0
  -25.4117  -15.1773   20.4097 N   0  0  0  0  0  0  0  0  0128  0  0
  -31.7916  -14.6724   20.0536 O   0  0  0  0  0  0  0  0  0129  0  0
  -21.6670   -6.9022   21.4423 O   0  0  0  0  0  0  0  0  0130  0  0
  -22.3946  -14.5564   20.6568 O   0  0  0  0  0  0  0  0  0131  0  0
  -24.6048  -31.8614   23.2223 C   0  0  0  0  0  0  0  0  0100  0  0
  -25.8822  -32.4841   23.8616 C   0  0  1  0  0  0  0  0  0101  0  0
  -27.2536  -27.5042   20.1156 C   0  0  0  0  0  0  0  0  0102  0  0
  -25.5726  -33.8762   24.2210 N   0  0  0  0  0  0  0  0  0103  0  0
  -23.4066  -30.4859   21.5461 C   0  0  2  0  0  0  0  0  0104  0  0
  -24.8467  -28.9636   20.1247 C   0  0  0  0  0  0  0  0  0105  0  0
  -22.7412  -29.4652   22.5052 C   0  0  0  0  0  0  0  0  0106  0  0
  -18.0167  -28.1302   22.8626 C   0  0  0  0  0  0  0  0  0107  0  0
  -24.1342  -36.7390   23.2568 C   0  0  0  0  0  0  0  0  0108  0  0
  -25.9141  -30.8882   21.3456 C   0  0  0  0  0  0  0  0  0109  0  0
  -25.9930  -29.5029   20.7208 C   0  0  0  0  0  0  0  0  0110  0  0
  -27.1758  -28.7612   20.7331 C   0  0  0  0  0  0  0  0  0111  0  0
  -26.1032  -26.9836   19.5230 C   0  0  0  0  0  0  0  0  0112  0  0
  -24.9097  -27.7011   19.5331 C   0  0  0  0  0  0  0  0  0113  0  0
  -23.5715  -29.7899   20.1582 C   0  0  0  0  0  0  0  0  0114  0  0
  -25.3990  -36.3212   24.0232 C   0  0  1  0  0  0  0  0  0115  0  0
  -20.5793  -28.3813   23.1004 C   0  0  2  0  0  0  0  0  0116  0  0
  -20.6548  -26.9392   22.5411 C   0  0  0  0  0  0  0  0  0117  0  0
  -19.5615  -26.6407   21.5143 C   0  0  0  0  0  0  0  0  0118  0  0
  -18.1797  -26.7818   22.1673 C   0  0  0  0  0  0  0  0  0119  0  0
  -19.1385  -28.8769   23.2988 C   0  0  0  0  0  0  0  0  0120  0  0
  -18.9183  -30.1286   23.8878 C   0  0  0  0  0  0  0  0  0121  0  0
  -17.6396  -30.6493   24.0352 C   0  0  0  0  0  0  0  0  0122  0  0
  -25.9153  -34.9582   23.4993 C   0  0  0  0  0  0  0  0  0123  0  0
  -16.5415  -29.9068   23.6254 C   0  0  0  0  0  0  0  0  0124  0  0
  -16.7331  -28.6521   23.0586 C   0  0  0  0  0  0  0  0  0125  0  0
  -26.4583  -31.6439   25.0683 C   0  0  0  0  0  0  0  0  0126  0  0
  -25.3807  -31.3179   26.1374 C   0  0  0  0  0  0  0  0  0127  0  0
  -27.0530  -30.3024   24.5680 C   0  0  0  0  0  0  0  0  0128  0  0
  -27.6014  -32.4281   25.7651 C   0  0  0  0  0  0  0  0  0129  0  0
  -27.5629  -37.2220   24.8621 C   0  0  0  0  0  0  0  0  0130  0  0
  -21.4133  -29.3375   22.3735 N   0  0  0  0  0  0  0  0  0131  0  0
  -26.4706  -37.3372   23.9061 N   0  0  0  0  0  0  0  0  0132  0  0
  -24.6674  -31.0544   22.1178 N   0  0  0  0  0  0  0  0  0133  0  0
  -23.4259  -28.8150   23.2971 O   0  0  0  0  0  0  0  0  0134  0  0
  -28.3948  -26.7345   20.0089 O   0  0  0  0  0  0  0  0  0135  0  0
  -26.5870  -34.9065   22.4671 O   0  0  0  0  0  0  0  0  0136  0  0
  -23.5365  -32.1254   23.7833 O   0  0  0  0  0  0  0  0  0137  0  0
  -27.1778  -20.0580   20.3693 C   0  0  0  0  0  0  0  0  0  0  0  0
  -27.3134  -18.6732   20.4661 C   0  0  0  0  0  0  0  0  0  0  0  0
  -29.2450  -18.7610   19.0176 C   0  0  0  0  0  0  0  0  0  0  0  0
  -28.0758  -20.7944   19.5966 C   0  0  0  0  0  0  0  0  0  0  0  0
  -28.3469  -18.0246   19.7902 C   0  0  0  0  0  0  0  0  0  0  0  0
  -29.1094  -20.1459   18.9208 C   0  0  0  0  0  0  0  0  0  0  0  0
  -27.6918  -25.0221   19.4054 C   0  0  0  0  0  0  0  0  0  0  0  0
  -27.5098  -26.2465   19.9191 C   0  0  0  0  0  0  0  0  0  1  0  0
  -26.5577  -24.1579   18.9325 C   0  0  0  0  0  0  0  0  0  0  0  0
  -29.0457  -24.3842   19.2737 C   0  0  0  0  0  0  0  0  0  0  0  0
  -26.5977  -22.7832   19.6046 C   0  0  0  0  0  0  0  0  0  0  0  0
  -29.0683  -23.0120   19.9498 C   0  0  0  0  0  0  0  0  0  0  0  0
  -27.8055  -15.9134   20.9903 C   0  0  0  0  0  0  0  0  0  0  0  0
  -27.9362  -22.1846   19.5002 N   0  0  0  0  0  0  0  0  0  0  0  0
  -28.4870  -16.5925   19.8905 N   0  0  0  0  0  0  0  0  0  0  0  0
  -29.9770  -20.8440   18.1744 F   0  0  0  0  0  0  0  0  0  0  0  0
  -31.4485  -12.4701   19.0860 H   0  0  0  0  0  0  0  0  0  0  0  0
  -30.3970  -11.2460   19.6950 H   0  0  0  0  0  0  0  0  0  0  0  0
  -29.6870  -11.8204   17.4226 H   0  0  0  0  0  0  0  0  0  0  0  0
  -29.6375  -13.5326   17.8649 H   0  0  0  0  0  0  0  0  0  0  0  0
  -27.7830  -11.3650   18.7904 H   0  0  0  0  0  0  0  0  0  0  0  0
  -27.4028  -12.7801   17.8021 H   0  0  0  0  0  0  0  0  0  0  0  0
  -27.7353  -14.2503   19.6136 H   0  0  0  0  0  0  0  0  0  0  0  0
  -28.5890  -11.9550   21.3832 H   0  0  0  0  0  0  0  0  0  0  0  0
  -28.5005  -13.6134   21.8562 H   0  0  0  0  0  0  0  0  0  0  0  0
  -25.2399   -9.5495   22.4318 H   0  0  0  0  0  0  0  0  0  0  0  0
  -23.9663   -7.5070   22.7297 H   0  0  0  0  0  0  0  0  0  0  0  0
  -21.1515   -8.8641   19.9162 H   0  0  0  0  0  0  0  0  0  0  0  0
  -22.4016  -10.9115   19.6476 H   0  0  0  0  0  0  0  0  0  0  0  0
  -21.2319   -7.5552   23.9750 H   0  0  0  0  0  0  0  0  0  0  0  0
  -21.1589   -6.0228   25.8556 H   0  0  0  0  0  0  0  0  0  0  0  0
  -22.0396   -2.8212   23.2809 H   0  0  0  0  0  0  0  0  0  0  0  0
  -22.4401  -11.9703   22.4008 H   0  0  0  0  0  0  0  0  0  0  0  0
  -21.1493  -13.0679   22.2082 H   0  0  0  0  0  0  0  0  0  0  0  0
  -24.6538  -15.7807   20.5848 H   0  0  0  0  0  0  0  0  0  0  0  0
  -26.2762  -15.5453   20.1156 H   0  0  0  0  0  0  0  0  0  0  0  0
  -26.6778  -32.4663   23.1464 H   0  0  0  0  0  0  0  0  0  0  0  0
  -25.0747  -34.0282   25.0566 H   0  0  0  0  0  0  0  0  0  0  0  0
  -22.7881  -31.3489   21.4131 H   0  0  0  0  0  0  0  0  0  0  0  0
  -23.3854  -35.9823   23.3648 H   0  0  0  0  0  0  0  0  0  0  0  0
  -24.3696  -36.8624   22.2204 H   0  0  0  0  0  0  0  0  0  0  0  0
  -23.7669  -37.6632   23.6516 H   0  0  0  0  0  0  0  0  0  0  0  0
  -25.9445  -31.6237   20.5691 H   0  0  0  0  0  0  0  0  0  0  0  0
  -26.7436  -31.0079   22.0108 H   0  0  0  0  0  0  0  0  0  0  0  0
  -28.0090  -29.1452   21.2057 H   0  0  0  0  0  0  0  0  0  0  0  0
  -26.1369  -26.0560   19.0719 H   0  0  0  0  0  0  0  0  0  0  0  0
  -24.0652  -27.2961   19.0997 H   0  0  0  0  0  0  0  0  0  0  0  0
  -23.6156  -30.5365   19.3930 H   0  0  0  0  0  0  0  0  0  0  0  0
  -22.7355  -29.1425   19.9945 H   0  0  0  0  0  0  0  0  0  0  0  0
  -25.1353  -36.2335   25.0565 H   0  0  0  0  0  0  0  0  0  0  0  0
  -21.0070  -28.3206   24.0793 H   0  0  0  0  0  0  0  0  0  0  0  0
  -20.5555  -26.2518   23.3550 H   0  0  0  0  0  0  0  0  0  0  0  0
  -21.5974  -26.8362   22.0454 H   0  0  0  0  0  0  0  0  0  0  0  0
  -19.6810  -25.6422   21.1488 H   0  0  0  0  0  0  0  0  0  0  0  0
  -19.6406  -27.3343   20.7034 H   0  0  0  0  0  0  0  0  0  0  0  0
  -17.4282  -26.6888   21.4113 H   0  0  0  0  0  0  0  0  0  0  0  0
  -18.0803  -26.0130   22.9049 H   0  0  0  0  0  0  0  0  0  0  0  0
  -19.7265  -30.6774   24.2204 H   0  0  0  0  0  0  0  0  0  0  0  0
  -17.5064  -31.5856   24.4483 H   0  0  0  0  0  0  0  0  0  0  0  0
  -15.5878  -30.2839   23.7407 H   0  0  0  0  0  0  0  0  0  0  0  0
  -15.9120  -28.0941   22.7766 H   0  0  0  0  0  0  0  0  0  0  0  0
  -24.5787  -30.7757   25.6817 H   0  0  0  0  0  0  0  0  0  0  0  0
  -25.0041  -32.2289   26.5536 H   0  0  0  0  0  0  0  0  0  0  0  0
  -25.8166  -30.7245   26.9138 H   0  0  0  0  0  0  0  0  0  0  0  0
  -26.2892  -29.7335   24.0803 H   0  0  0  0  0  0  0  0  0  0  0  0
  -27.4336  -29.7484   25.4006 H   0  0  0  0  0  0  0  0  0  0  0  0
  -27.8466  -30.4994   23.8779 H   0  0  0  0  0  0  0  0  0  0  0  0
  -27.2251  -33.3632   26.1242 H   0  0  0  0  0  0  0  0  0  0  0  0
  -28.3902  -32.6065   25.0645 H   0  0  0  0  0  0  0  0  0  0  0  0
  -27.9772  -31.8555   26.5872 H   0  0  0  0  0  0  0  0  0  0  0  0
  -28.2744  -38.0016   24.6863 H   0  0  0  0  0  0  0  0  0  0  0  0
  -28.0396  -36.2711   24.7461 H   0  0  0  0  0  0  0  0  0  0  0  0
  -27.1773  -37.3087   25.8564 H   0  0  0  0  0  0  0  0  0  0  0  0
  -20.9627  -29.9365   21.7352 H   0  0  0  0  0  0  0  0  0  0  0  0
  -26.0447  -38.2561   24.0273 H   0  0  0  0  0  0  0  0  0  0  0  0
  -26.4131  -20.5378   20.8693 H   0  0  0  0  0  0  0  0  0  0  0  0
  -26.6490  -18.1284   21.0378 H   0  0  0  0  0  0  0  0  0  0  0  0
  -30.0098  -18.2812   18.5176 H   0  0  0  0  0  0  0  0  0  0  0  0
  -26.5939  -26.6395   20.1869 H   0  0  0  0  0  0  0  0  0  0  0  0
  -26.6326  -24.0314   17.8726 H   0  0  0  0  0  0  0  0  0  0  0  0
  -25.6353  -24.6358   19.1889 H   0  0  0  0  0  0  0  0  0  0  0  0
  -29.7768  -25.0146   19.7352 H   0  0  0  0  0  0  0  0  0  0  0  0
  -29.2654  -24.2578   18.2342 H   0  0  0  0  0  0  0  0  0  0  0  0
  -25.8884  -22.1397   19.1275 H   0  0  0  0  0  0  0  0  0  0  0  0
  -26.3577  -22.9030   20.6404 H   0  0  0  0  0  0  0  0  0  0  0  0
  -29.0069  -23.1430   21.0100 H   0  0  0  0  0  0  0  0  0  0  0  0
  -29.9792  -22.5165   19.6860 H   0  0  0  0  0  0  0  0  0  0  0  0
  -26.8475  -16.3631   21.1482 H   0  0  0  0  0  0  0  0  0  0  0  0
  -28.3917  -16.0005   21.8812 H   0  0  0  0  0  0  0  0  0  0  0  0
  -27.6783  -14.8793   20.7468 H   0  0  0  0  0  0  0  0  0  0  0  0
  1 25  1  0
  1 30  2  0
  1 85  1  0
  2  3  1  0
  2 25  1  0
  2 87  1  0
  2 88  1  0
  3  4  1  0
  3 89  1  0
  3 90  1  0
  4  5  1  0
  4 91  1  0
  4 92  1  0
  5  6  1  0
  5 26  1  0
  5 93  1  6
  6 25  1  0
  6 94  1  0
  6 95  1  0
  7  8  2  0
  7 26  1  0
  7 29  1  0
  8  9  1  0
  8 22  1  0
  9 10  1  0
  9 27  2  0
 10 11  2  0
 10 15  1  0
 11 12  1  0
 11 96  1  0
 12 13  2  0
 12 97  1  0
 13 14  1  0
 13 31  1  0
 14 15  2  0
 14 98  1  0
 15 99  1  0
 16 17  2  0
 16 21  1  0
 16 31  1  0
 17 18  1  0
 17100  1  0
 18 19  2  0
 18101  1  0
 19 20  1  0
 19 24  1  0
 20 21  2  0
 20102  1  0
 21 23  1  0
 22 28  1  0
 22 32  2  0
 26 27  1  0
 28103  1  0
 28104  1  0
 29105  1  0
 29106  1  0
 33 34  1  0
 33 66  1  0
 33 70  2  0
 34 36  1  0
 34 59  1  0
 34107  1  6
 35 44  2  0
 35 45  1  0
 35 68  1  0
 36 56  1  0
 36108  1  0
 37 39  1  0
 37 47  1  0
 37 66  1  0
 37109  1  6
 38 43  2  0
 38 46  1  0
 38 47  1  0
 39 64  1  0
 39 67  2  0
 40 52  1  0
 40 53  2  0
 40 58  1  0
 41110  1  0
 41111  1  0
 41112  1  0
 42 43  1  0
 42 66  1  0
 42113  1  0
 42114  1  0
 43 44  1  0
 44115  1  0
 45 46  2  0
 45116  1  0
 46117  1  0
 47118  1  0
 47119  1  0
 48 41  1  0
 48 56  1  0
 48 65  1  0
 48120  1  1
 49 50  1  0
 49 53  1  0
 49 64  1  0
 49121  1  1
 50 51  1  0
 50122  1  0
 50123  1  0
 51 52  1  0
 51124  1  0
 51125  1  0
 52126  1  0
 52127  1  0
 53 54  1  0
 54 55  2  0
 54128  1  0
 55 57  1  0
 55129  1  0
 56 69  2  0
 57 58  2  0
 57130  1  0
 58131  1  0
 59 60  1  0
 59 61  1  0
 59 62  1  0
 60132  1  0
 60133  1  0
 60134  1  0
 61135  1  0
 61136  1  0
 61137  1  0
 62138  1  0
 62139  1  0
 62140  1  0
 63 65  1  0
 63141  1  0
 63142  1  0
 63143  1  0
 64144  1  0
 65145  1  0
 68 78  1  0
 71 72  2  0
 71 74  1  0
 71146  1  0
 72 75  1  0
 72147  1  0
 73 75  2  0
 73 76  1  0
 73148  1  0
 74 76  2  0
 74 84  1  0
 75 85  1  0
 76 86  1  0
 77 78  2  0
 77 79  1  0
 77 80  1  0
 78149  1  0
 79 81  1  0
 79150  1  0
 79151  1  0
 80 82  1  0
 80152  1  0
 80153  1  0
 81 84  1  0
 81154  1  0
 81155  1  0
 82 84  1  0
 82156  1  0
 82157  1  0
 83 85  1  0
 83158  1  0
 83159  1  0
 83160  1  0
M  ISO  4   1 100  68 101  78 101  85 100
M  END
$$$$
40
     RDKit          3D

158167  0  0  0  0  0  0  0  0999 V2000
  -30.7652  -14.3608   20.6636 C   0  0  0  0  0  0  0  0  0100  0  0
  -30.4392  -12.2669   19.3775 C   0  0  0  0  0  0  0  0  0101  0  0
  -29.4791  -12.5281   18.1977 C   0  0  0  0  0  0  0  0  0102  0  0
  -27.9985  -12.3963   18.6038 C   0  0  0  0  0  0  0  0  0103  0  0
  -27.6639  -13.2170   19.8820 C   0  0  2  0  0  0  0  0  0104  0  0
  -28.6795  -12.9602   21.0279 C   0  0  0  0  0  0  0  0  0105  0  0
  -25.2633  -13.8245   20.5754 C   0  0  0  0  0  0  0  0  0106  0  0
  -24.1645  -13.0409   20.9408 C   0  0  0  0  0  0  0  0  0107  0  0
  -24.6400  -11.7009   20.8697 C   0  0  0  0  0  0  0  0  0108  0  0
  -23.9005  -10.4085   21.0420 C   0  0  0  0  0  0  0  0  0109  0  0
  -24.3588   -9.4123   21.9123 C   0  0  0  0  0  0  0  0  0110  0  0
  -23.6296   -8.2350   22.0803 C   0  0  0  0  0  0  0  0  0111  0  0
  -22.4385   -8.0419   21.3657 C   0  0  0  0  0  0  0  0  0112  0  0
  -22.0103   -9.0167   20.4678 C   0  0  0  0  0  0  0  0  0113  0  0
  -22.7317  -10.1925   20.3102 C   0  0  0  0  0  0  0  0  0114  0  0
  -21.6857   -6.0709   22.5391 C   0  0  0  0  0  0  0  0  0115  0  0
  -21.4064   -6.5490   23.8264 C   0  0  0  0  0  0  0  0  0116  0  0
  -21.3635   -5.6677   24.9085 C   0  0  0  0  0  0  0  0  0117  0  0
  -21.5973   -4.3067   24.7088 C   0  0  0  0  0  0  0  0  0118  0  0
  -21.8700   -3.8284   23.4282 C   0  0  0  0  0  0  0  0  0119  0  0
  -21.9144   -4.7056   22.3460 C   0  0  0  0  0  0  0  0  0120  0  0
  -22.8194  -13.5263   21.1763 C   0  0  0  0  0  0  0  0  0121  0  0
  -22.1559   -4.2206   21.1063 F   0  0  0  0  0  0  0  0  0122  0  0
  -21.5628   -3.4510   25.7555 F   0  0  0  0  0  0  0  0  0123  0  0
  -30.0261  -13.1803   20.4553 N   0  0  0  0  0  0  0  0  0124  0  0
  -26.2911  -12.9356   20.3443 N   0  0  0  0  0  0  0  0  0125  0  0
  -25.9236  -11.6675   20.5847 N   0  0  0  0  0  0  0  0  0126  0  0
  -22.0708  -12.7905   22.0005 N   0  0  0  0  0  0  0  0  0127  0  0
  -25.4117  -15.1773   20.4097 N   0  0  0  0  0  0  0  0  0128  0  0
  -31.7916  -14.6724   20.0536 O   0  0  0  0  0  0  0  0  0129  0  0
  -21.6670   -6.9022   21.4423 O   0  0  0  0  0  0  0  0  0130  0  0
  -22.3946  -14.5564   20.6568 O   0  0  0  0  0  0  0  0  0131  0  0
  -24.6048  -31.8614   23.2223 C   0  0  0  0  0  0  0  0  0100  0  0
  -25.8822  -32.4841   23.8616 C   0  0  1  0  0  0  0  0  0101  0  0
  -27.2536  -27.5042   20.1156 C   0  0  0  0  0  0  0  0  0102  0  0
  -25.5726  -33.8762   24.2210 N   0  0  0  0  0  0  0  0  0103  0  0
  -23.4066  -30.4859   21.5461 C   0  0  2  0  0  0  0  0  0104  0  0
  -24.8467  -28.9636   20.1247 C   0  0  0  0  0  0  0  0  0105  0  0
  -22.7412  -29.4652   22.5052 C   0  0  0  0  0  0  0  0  0106  0  0
  -18.0167  -28.1302   22.8626 C   0  0  0  0  0  0  0  0  0107  0  0
  -24.1342  -36.7390   23.2568 C   0  0  0  0  0  0  0  0  0108  0  0
  -25.9141  -30.8882   21.3456 C   0  0  0  0  0  0  0  0  0109  0  0
  -25.9930  -29.5029   20.7208 C   0  0  0  0  0  0  0  0  0110  0  0
  -27.1758  -28.7612   20.7331 C   0  0  0  0  0  0  0  0  0111  0  0
  -26.1032  -26.9836   19.5230 C   0  0  0  0  0  0  0  0  0112  0  0
  -24.9097  -27.7011   19.5331 C   0  0  0  0  0  0  0  0  0113  0  0
  -23.5715  -29.7899   20.1582 C   0  0  0  0  0  0  0  0  0114  0  0
  -25.3990  -36.3212   24.0232 C   0  0  1  0  0  0  0  0  0115  0  0
  -20.5793  -28.3813   23.1004 C   0  0  2  0  0  0  0  0  0116  0  0
  -20.6548  -26.9392   22.5411 C   0  0  0  0  0  0  0  0  0117  0  0
  -19.5615  -26.6407   21.5143 C   0  0  0  0  0  0  0  0  0118  0  0
  -18.1797  -26.7818   22.1673 C   0  0  0  0  0  0  0  0  0119  0  0
  -19.1385  -28.8769   23.2988 C   0  0  0  0  0  0  0  0  0120  0  0
  -18.9183  -30.1286   23.8878 C   0  0  0  0  0  0  0  0  0121  0  0
  -17.6396  -30.6493   24.0352 C   0  0  0  0  0  0  0  0  0122  0  0
  -25.9153  -34.9582   23.4993 C   0  0  0  0  0  0  0  0  0123  0  0
  -16.5415  -29.9068   23.6254 C   0  0  0  0  0  0  0  0  0124  0  0
  -16.7331  -28.6521   23.0586 C   0  0  0  0  0  0  0  0  0125  0  0
  -26.4583  -31.6439   25.0683 C   0  0  0  0  0  0  0  0  0126  0  0
  -25.3807  -31.3179   26.1374 C   0  0  0  0  0  0  0  0  0127  0  0
  -27.0530  -30.3024   24.5680 C   0  0  0  0  0  0  0  0  0128  0  0
  -27.6014  -32.4281   25.7651 C   0  0  0  0  0  0  0  0  0129  0  0
  -27.5629  -37.2220   24.8621 C   0  0  0  0  0  0  0  0  0130  0  0
  -21.4133  -29.3375   22.3735 N   0  0  0  0  0  0  0  0  0131  0  0
  -26.4706  -37.3372   23.9061 N   0  0  0  0  0  0  0  0  0132  0  0
  -24.6674  -31.0544   22.1178 N   0  0  0  0  0  0  0  0  0133  0  0
  -23.4259  -28.8150   23.2971 O   0  0  0  0  0  0  0  0  0134  0  0
  -28.3948  -26.7345   20.0089 O   0  0  0  0  0  0  0  0  0135  0  0
  -26.5870  -34.9065   22.4671 O   0  0  0  0  0  0  0  0  0136  0  0
  -23.5365  -32.1254   23.7833 O   0  0  0  0  0  0  0  0  0137  0  0
  -30.3824  -25.6952   24.4671 C   0  0  0  0  0  0  0  0  0  0  0  0
  -29.7470  -24.9336   23.4865 C   0  0  0  0  0  0  0  0  0  0  0  0
  -28.3326  -23.9401   25.1746 C   0  0  0  0  0  0  0  0  0  0  0  0
  -29.9930  -25.5793   25.8016 C   0  0  0  0  0  0  0  0  0  0  0  0
  -28.7221  -24.0560   23.8402 C   0  0  0  0  0  0  0  0  0  0  0  0
  -28.9680  -24.7018   26.1553 C   0  0  0  0  0  0  0  0  0  0  0  0
  -31.5984  -28.6994   26.3652 C   0  0  0  0  0  0  0  0  0  0  0  0
  -30.9916  -30.0423   26.0341 C   0  0  0  0  0  0  0  0  0  0  0  0
  -29.2503  -28.4424   26.4517 C   0  0  0  0  0  0  0  0  0  0  0  0
  -29.5593  -29.9290   26.5625 C   0  0  2  0  0  0  0  0  0  0  0  0
  -30.6783  -26.4024   26.8537 C   0  0  0  0  0  0  0  0  0  0  0  0
  -28.5737  -30.8008   25.8038 C   0  0  0  0  0  0  0  0  0  1  0  0
  -30.5452  -27.8212   26.6031 N   0  0  0  0  0  0  0  0  0  0  0  0
  -28.0779  -23.2808   22.8443 N   0  0  0  0  0  0  0  0  0  0  0  0
  -32.7969  -28.4607   26.3663 O   0  0  0  0  0  0  0  0  0  0  0  0
  -28.5868  -24.5836   27.4347 F   0  0  0  0  0  0  0  0  0  0  0  0
  -31.4485  -12.4701   19.0860 H   0  0  0  0  0  0  0  0  0  0  0  0
  -30.3970  -11.2460   19.6950 H   0  0  0  0  0  0  0  0  0  0  0  0
  -29.6870  -11.8204   17.4226 H   0  0  0  0  0  0  0  0  0  0  0  0
  -29.6375  -13.5326   17.8649 H   0  0  0  0  0  0  0  0  0  0  0  0
  -27.7830  -11.3650   18.7904 H   0  0  0  0  0  0  0  0  0  0  0  0
  -27.4028  -12.7801   17.8021 H   0  0  0  0  0  0  0  0  0  0  0  0
  -27.7353  -14.2503   19.6136 H   0  0  0  0  0  0  0  0  0  0  0  0
  -28.5890  -11.9550   21.3832 H   0  0  0  0  0  0  0  0  0  0  0  0
  -28.5005  -13.6134   21.8562 H   0  0  0  0  0  0  0  0  0  0  0  0
  -25.2399   -9.5495   22.4318 H   0  0  0  0  0  0  0  0  0  0  0  0
  -23.9663   -7.5070   22.7297 H   0  0  0  0  0  0  0  0  0  0  0  0
  -21.1515   -8.8641   19.9162 H   0  0  0  0  0  0  0  0  0  0  0  0
  -22.4016  -10.9115   19.6476 H   0  0  0  0  0  0  0  0  0  0  0  0
  -21.2319   -7.5552   23.9750 H   0  0  0  0  0  0  0  0  0  0  0  0
  -21.1589   -6.0228   25.8556 H   0  0  0  0  0  0  0  0  0  0  0  0
  -22.0396   -2.8212   23.2809 H   0  0  0  0  0  0  0  0  0  0  0  0
  -22.4401  -11.9703   22.4008 H   0  0  0  0  0  0  0  0  0  0  0  0
  -21.1493  -13.0679   22.2082 H   0  0  0  0  0  0  0  0  0  0  0  0
  -24.6538  -15.7807   20.5848 H   0  0  0  0  0  0  0  0  0  0  0  0
  -26.2762  -15.5453   20.1156 H   0  0  0  0  0  0  0  0  0  0  0  0
  -26.6778  -32.4663   23.1464 H   0  0  0  0  0  0  0  0  0  0  0  0
  -25.0747  -34.0282   25.0566 H   0  0  0  0  0  0  0  0  0  0  0  0
  -22.7881  -31.3489   21.4131 H   0  0  0  0  0  0  0  0  0  0  0  0
  -23.3854  -35.9823   23.3648 H   0  0  0  0  0  0  0  0  0  0  0  0
  -24.3696  -36.8624   22.2204 H   0  0  0  0  0  0  0  0  0  0  0  0
  -23.7669  -37.6632   23.6516 H   0  0  0  0  0  0  0  0  0  0  0  0
  -25.9445  -31.6237   20.5691 H   0  0  0  0  0  0  0  0  0  0  0  0
  -26.7436  -31.0079   22.0108 H   0  0  0  0  0  0  0  0  0  0  0  0
  -28.0090  -29.1452   21.2057 H   0  0  0  0  0  0  0  0  0  0  0  0
  -26.1369  -26.0560   19.0719 H   0  0  0  0  0  0  0  0  0  0  0  0
  -24.0652  -27.2961   19.0997 H   0  0  0  0  0  0  0  0  0  0  0  0
  -23.6156  -30.5365   19.3930 H   0  0  0  0  0  0  0  0  0  0  0  0
  -22.7355  -29.1425   19.9945 H   0  0  0  0  0  0  0  0  0  0  0  0
  -25.1353  -36.2335   25.0565 H   0  0  0  0  0  0  0  0  0  0  0  0
  -21.0070  -28.3206   24.0793 H   0  0  0  0  0  0  0  0  0  0  0  0
  -20.5555  -26.2518   23.3550 H   0  0  0  0  0  0  0  0  0  0  0  0
  -21.5974  -26.8362   22.0454 H   0  0  0  0  0  0  0  0  0  0  0  0
  -19.6810  -25.6422   21.1488 H   0  0  0  0  0  0  0  0  0  0  0  0
  -19.6406  -27.3343   20.7034 H   0  0  0  0  0  0  0  0  0  0  0  0
  -17.4282  -26.6888   21.4113 H   0  0  0  0  0  0  0  0  0  0  0  0
  -18.0803  -26.0130   22.9049 H   0  0  0  0  0  0  0  0  0  0  0  0
  -19.7265  -30.6774   24.2204 H   0  0  0  0  0  0  0  0  0  0  0  0
  -17.5064  -31.5856   24.4483 H   0  0  0  0  0  0  0  0  0  0  0  0
  -15.5878  -30.2839   23.7407 H   0  0  0  0  0  0  0  0  0  0  0  0
  -15.9120  -28.0941   22.7766 H   0  0  0  0  0  0  0  0  0  0  0  0
  -24.5787  -30.7757   25.6817 H   0  0  0  0  0  0  0  0  0  0  0  0
  -25.0041  -32.2289   26.5536 H   0  0  0  0  0  0  0  0  0  0  0  0
  -25.8166  -30.7245   26.9138 H   0  0  0  0  0  0  0  0  0  0  0  0
  -26.2892  -29.7335   24.0803 H   0  0  0  0  0  0  0  0  0  0  0  0
  -27.4336  -29.7484   25.4006 H   0  0  0  0  0  0  0  0  0  0  0  0
  -27.8466  -30.4994   23.8779 H   0  0  0  0  0  0  0  0  0  0  0  0
  -27.2251  -33.3632   26.1242 H   0  0  0  0  0  0  0  0  0  0  0  0
  -28.3902  -32.6065   25.0645 H   0  0  0  0  0  0  0  0  0  0  0  0
  -27.9772  -31.8555   26.5872 H   0  0  0  0  0  0  0  0  0  0  0  0
  -28.2744  -38.0016   24.6863 H   0  0  0  0  0  0  0  0  0  0  0  0
  -28.0396  -36.2711   24.7461 H   0  0  0  0  0  0  0  0  0  0  0  0
  -27.1773  -37.3087   25.8564 H   0  0  0  0  0  0  0  0  0  0  0  0
  -20.9627  -29.9365   21.7352 H   0  0  0  0  0  0  0  0  0  0  0  0
  -26.0447  -38.2561   24.0273 H   0  0  0  0  0  0  0  0  0  0  0  0
  -31.1407  -26.3445   24.2054 H   0  0  0  0  0  0  0  0  0  0  0  0
  -30.0351  -25.0194   22.4993 H   0  0  0  0  0  0  0  0  0  0  0  0
  -27.5743  -23.2908   25.4363 H   0  0  0  0  0  0  0  0  0  0  0  0
  -30.9969  -30.2142   24.9780 H   0  0  0  0  0  0  0  0  0  0  0  0
  -31.5306  -30.8601   26.4648 H   0  0  0  0  0  0  0  0  0  0  0  0
  -28.8228  -28.2098   25.4988 H   0  0  0  0  0  0  0  0  0  0  0  0
  -28.5382  -28.1078   27.1769 H   0  0  0  0  0  0  0  0  0  0  0  0
  -29.4677  -30.2884   27.5662 H   0  0  0  0  0  0  0  0  0  0  0  0
  -31.7180  -26.1499   26.8671 H   0  0  0  0  0  0  0  0  0  0  0  0
  -30.2160  -26.1879   27.7946 H   0  0  0  0  0  0  0  0  0  0  0  0
  -28.9512  -31.7832   25.6105 H   0  0  0  0  0  0  0  0  0  0  0  0
  -27.6414  -31.0205   26.2807 H   0  0  0  0  0  0  0  0  0  0  0  0
  -27.3209  -23.6773   22.3555 H   0  0  0  0  0  0  0  0  0  0  0  0
  1 25  1  0
  1 30  2  0
  1 84  1  0
  2  3  1  0
  2 25  1  0
  2 87  1  0
  2 88  1  0
  3  4  1  0
  3 89  1  0
  3 90  1  0
  4  5  1  0
  4 91  1  0
  4 92  1  0
  5  6  1  0
  5 26  1  0
  5 93  1  6
  6 25  1  0
  6 94  1  0
  6 95  1  0
  7  8  2  0
  7 26  1  0
  7 29  1  0
  8  9  1  0
  8 22  1  0
  9 10  1  0
  9 27  2  0
 10 11  2  0
 10 15  1  0
 11 12  1  0
 11 96  1  0
 12 13  2  0
 12 97  1  0
 13 14  1  0
 13 31  1  0
 14 15  2  0
 14 98  1  0
 15 99  1  0
 16 17  2  0
 16 21  1  0
 16 31  1  0
 17 18  1  0
 17100  1  0
 18 19  2  0
 18101  1  0
 19 20  1  0
 19 24  1  0
 20 21  2  0
 20102  1  0
 21 23  1  0
 22 28  1  0
 22 32  2  0
 26 27  1  0
 28103  1  0
 28104  1  0
 29105  1  0
 29106  1  0
 33 34  1  0
 33 66  1  0
 33 70  2  0
 34 36  1  0
 34 59  1  0
 34107  1  6
 35 44  2  0
 35 45  1  0
 35 68  1  0
 36 56  1  0
 36108  1  0
 37 39  1  0
 37 47  1  0
 37 66  1  0
 37109  1  6
 38 43  2  0
 38 46  1  0
 38 47  1  0
 39 64  1  0
 39 67  2  0
 40 52  1  0
 40 53  2  0
 40 58  1  0
 41110  1  0
 41111  1  0
 41112  1  0
 42 43  1  0
 42 66  1  0
 42113  1  0
 42114  1  0
 43 44  1  0
 44115  1  0
 45 46  2  0
 45116  1  0
 46117  1  0
 47118  1  0
 47119  1  0
 48 41  1  0
 48 56  1  0
 48 65  1  0
 48120  1  1
 49 50  1  0
 49 53  1  0
 49 64  1  0
 49121  1  1
 50 51  1  0
 50122  1  0
 50123  1  0
 51 52  1  0
 51124  1  0
 51125  1  0
 52126  1  0
 52127  1  0
 53 54  1  0
 54 55  2  0
 54128  1  0
 55 57  1  0
 55129  1  0
 56 69  2  0
 57 58  2  0
 57130  1  0
 58131  1  0
 59 60  1  0
 59 61  1  0
 59 62  1  0
 60132  1  0
 60133  1  0
 60134  1  0
 61135  1  0
 61136  1  0
 61137  1  0
 62138  1  0
 62139  1  0
 62140  1  0
 63 65  1  0
 63141  1  0
 63142  1  0
 63143  1  0
 64144  1  0
 65145  1  0
 68 82  1  0
 71 72  2  0
 71 74  1  0
 71146  1  0
 72 75  1  0
 72147  1  0
 73 75  2  0
 73 76  1  0
 73148  1  0
 74 76  2  0
 74 81  1  0
 75 84  1  0
 76 86  1  0
 77 78  1  0
 77 83  1  0
 77 85  2  0
 78 80  1  0
 78149  1  0
 78150  1  0
 79 80  1  0
 79 83  1  0
 79151  1  0
 79152  1  0
 80 82  1  0
 80153  1  1
 81 83  1  0
 81154  1  0
 81155  1  0
 82156  1  0
 82157  1  0
 84158  1  0
M  ISO  4   1 100  68 101  82 101  84 100
M  END
$$$$
41
     RDKit          3D

156164  0  0  0  0  0  0  0  0999 V2000
  -30.7652  -14.3608   20.6636 C   0  0  0  0  0  0  0  0  0100  0  0
  -30.4392  -12.2669   19.3775 C   0  0  0  0  0  0  0  0  0101  0  0
  -29.4791  -12.5281   18.1977 C   0  0  0  0  0  0  0  0  0102  0  0
  -27.9985  -12.3963   18.6038 C   0  0  0  0  0  0  0  0  0103  0  0
  -27.6639  -13.2170   19.8820 C   0  0  2  0  0  0  0  0  0104  0  0
  -28.6795  -12.9602   21.0279 C   0  0  0  0  0  0  0  0  0105  0  0
  -25.2633  -13.8245   20.5754 C   0  0  0  0  0  0  0  0  0106  0  0
  -24.1645  -13.0409   20.9408 C   0  0  0  0  0  0  0  0  0107  0  0
  -24.6400  -11.7009   20.8697 C   0  0  0  0  0  0  0  0  0108  0  0
  -23.9005  -10.4085   21.0420 C   0  0  0  0  0  0  0  0  0109  0  0
  -24.3588   -9.4123   21.9123 C   0  0  0  0  0  0  0  0  0110  0  0
  -23.6296   -8.2350   22.0803 C   0  0  0  0  0  0  0  0  0111  0  0
  -22.4385   -8.0419   21.3657 C   0  0  0  0  0  0  0  0  0112  0  0
  -22.0103   -9.0167   20.4678 C   0  0  0  0  0  0  0  0  0113  0  0
  -22.7317  -10.1925   20.3102 C   0  0  0  0  0  0  0  0  0114  0  0
  -21.6857   -6.0709   22.5391 C   0  0  0  0  0  0  0  0  0115  0  0
  -21.4064   -6.5490   23.8264 C   0  0  0  0  0  0  0  0  0116  0  0
  -21.3635   -5.6677   24.9085 C   0  0  0  0  0  0  0  0  0117  0  0
  -21.5973   -4.3067   24.7088 C   0  0  0  0  0  0  0  0  0118  0  0
  -21.8700   -3.8284   23.4282 C   0  0  0  0  0  0  0  0  0119  0  0
  -21.9144   -4.7056   22.3460 C   0  0  0  0  0  0  0  0  0120  0  0
  -22.8194  -13.5263   21.1763 C   0  0  0  0  0  0  0  0  0121  0  0
  -22.1559   -4.2206   21.1063 F   0  0  0  0  0  0  0  0  0122  0  0
  -21.5628   -3.4510   25.7555 F   0  0  0  0  0  0  0  0  0123  0  0
  -30.0261  -13.1803   20.4553 N   0  0  0  0  0  0  0  0  0124  0  0
  -26.2911  -12.9356   20.3443 N   0  0  0  0  0  0  0  0  0125  0  0
  -25.9236  -11.6675   20.5847 N   0  0  0  0  0  0  0  0  0126  0  0
  -22.0708  -12.7905   22.0005 N   0  0  0  0  0  0  0  0  0127  0  0
  -25.4117  -15.1773   20.4097 N   0  0  0  0  0  0  0  0  0128  0  0
  -31.7916  -14.6724   20.0536 O   0  0  0  0  0  0  0  0  0129  0  0
  -21.6670   -6.9022   21.4423 O   0  0  0  0  0  0  0  0  0130  0  0
  -22.3946  -14.5564   20.6568 O   0  0  0  0  0  0  0  0  0131  0  0
  -24.6048  -31.8614   23.2223 C   0  0  0  0  0  0  0  0  0100  0  0
  -25.8822  -32.4841   23.8616 C   0  0  1  0  0  0  0  0  0101  0  0
  -27.2536  -27.5042   20.1156 C   0  0  0  0  0  0  0  0  0102  0  0
  -25.5726  -33.8762   24.2210 N   0  0  0  0  0  0  0  0  0103  0  0
  -23.4066  -30.4859   21.5461 C   0  0  2  0  0  0  0  0  0104  0  0
  -24.8467  -28.9636   20.1247 C   0  0  0  0  0  0  0  0  0105  0  0
  -22.7412  -29.4652   22.5052 C   0  0  0  0  0  0  0  0  0106  0  0
  -18.0167  -28.1302   22.8626 C   0  0  0  0  0  0  0  0  0107  0  0
  -24.1342  -36.7390   23.2568 C   0  0  0  0  0  0  0  0  0108  0  0
  -25.9141  -30.8882   21.3456 C   0  0  0  0  0  0  0  0  0109  0  0
  -25.9930  -29.5029   20.7208 C   0  0  0  0  0  0  0  0  0110  0  0
  -27.1758  -28.7612   20.7331 C   0  0  0  0  0  0  0  0  0111  0  0
  -26.1032  -26.9836   19.5230 C   0  0  0  0  0  0  0  0  0112  0  0
  -24.9097  -27.7011   19.5331 C   0  0  0  0  0  0  0  0  0113  0  0
  -23.5715  -29.7899   20.1582 C   0  0  0  0  0  0  0  0  0114  0  0
  -25.3990  -36.3212   24.0232 C   0  0  1  0  0  0  0  0  0115  0  0
  -20.5793  -28.3813   23.1004 C   0  0  2  0  0  0  0  0  0116  0  0
  -20.6548  -26.9392   22.5411 C   0  0  0  0  0  0  0  0  0117  0  0
  -19.5615  -26.6407   21.5143 C   0  0  0  0  0  0  0  0  0118  0  0
  -18.1797  -26.7818   22.1673 C   0  0  0  0  0  0  0  0  0119  0  0
  -19.1385  -28.8769   23.2988 C   0  0  0  0  0  0  0  0  0120  0  0
  -18.9183  -30.1286   23.8878 C   0  0  0  0  0  0  0  0  0121  0  0
  -17.6396  -30.6493   24.0352 C   0  0  0  0  0  0  0  0  0122  0  0
  -25.9153  -34.9582   23.4993 C   0  0  0  0  0  0  0  0  0123  0  0
  -16.5415  -29.9068   23.6254 C   0  0  0  0  0  0  0  0  0124  0  0
  -16.7331  -28.6521   23.0586 C   0  0  0  0  0  0  0  0  0125  0  0
  -26.4583  -31.6439   25.0683 C   0  0  0  0  0  0  0  0  0126  0  0
  -25.3807  -31.3179   26.1374 C   0  0  0  0  0  0  0  0  0127  0  0
  -27.0530  -30.3024   24.5680 C   0  0  0  0  0  0  0  0  0128  0  0
  -27.6014  -32.4281   25.7651 C   0  0  0  0  0  0  0  0  0129  0  0
  -27.5629  -37.2220   24.8621 C   0  0  0  0  0  0  0  0  0130  0  0
  -21.4133  -29.3375   22.3735 N   0  0  0  0  0  0  0  0  0131  0  0
  -26.4706  -37.3372   23.9061 N   0  0  0  0  0  0  0  0  0132  0  0
  -24.6674  -31.0544   22.1178 N   0  0  0  0  0  0  0  0  0133  0  0
  -23.4259  -28.8150   23.2971 O   0  0  0  0  0  0  0  0  0134  0  0
  -28.3948  -26.7345   20.0089 O   0  0  0  0  0  0  0  0  0135  0  0
  -26.5870  -34.9065   22.4671 O   0  0  0  0  0  0  0  0  0136  0  0
  -23.5365  -32.1254   23.7833 O   0  0  0  0  0  0  0  0  0137  0  0
  -29.8622  -18.5353   22.0431 C   0  0  0  0  0  0  0  0  0  0  0  0
  -29.5489  -19.7681   21.4707 C   0  0  0  0  0  0  0  0  0  0  0  0
  -31.8542  -18.4094   20.6818 C   0  0  0  0  0  0  0  0  0  0  0  0
  -31.0149  -17.8560   21.6487 C   0  0  0  0  0  0  0  0  0  0  0  0
  -30.3882  -20.3215   20.5038 C   0  0  0  0  0  0  0  0  0  0  0  0
  -31.5409  -19.6422   20.1094 C   0  0  0  0  0  0  0  0  0  0  0  0
  -28.8367  -23.5931   19.5178 C   0  0  0  0  0  0  0  0  0  0  0  0
  -31.3500  -16.5381   22.2611 C   0  0  0  0  0  0  0  0  0  0  0  0
  -28.8858  -22.3042   20.3106 C   0  0  0  0  0  0  0  0  0  0  0  0
  -27.6442  -24.4877   19.7952 C   0  0  0  0  0  0  0  0  0  1  0  0
  -32.4052  -20.1854   19.1328 N   0  0  0  0  0  0  0  0  0  0  0  0
  -30.0582  -21.5496   19.9485 N   0  0  0  0  0  0  0  0  0  0  0  0
  -30.5256  -15.4673   21.7467 N   0  0  0  0  0  0  0  0  0  0  0  0
  -29.7014  -23.9043   18.6997 O   0  0  0  0  0  0  0  0  0  0  0  0
  -31.4485  -12.4701   19.0860 H   0  0  0  0  0  0  0  0  0  0  0  0
  -30.3970  -11.2460   19.6950 H   0  0  0  0  0  0  0  0  0  0  0  0
  -29.6870  -11.8204   17.4226 H   0  0  0  0  0  0  0  0  0  0  0  0
  -29.6375  -13.5326   17.8649 H   0  0  0  0  0  0  0  0  0  0  0  0
  -27.7830  -11.3650   18.7904 H   0  0  0  0  0  0  0  0  0  0  0  0
  -27.4028  -12.7801   17.8021 H   0  0  0  0  0  0  0  0  0  0  0  0
  -27.7353  -14.2503   19.6136 H   0  0  0  0  0  0  0  0  0  0  0  0
  -28.5890  -11.9550   21.3832 H   0  0  0  0  0  0  0  0  0  0  0  0
  -28.5005  -13.6134   21.8562 H   0  0  0  0  0  0  0  0  0  0  0  0
  -25.2399   -9.5495   22.4318 H   0  0  0  0  0  0  0  0  0  0  0  0
  -23.9663   -7.5070   22.7297 H   0  0  0  0  0  0  0  0  0  0  0  0
  -21.1515   -8.8641   19.9162 H   0  0  0  0  0  0  0  0  0  0  0  0
  -22.4016  -10.9115   19.6476 H   0  0  0  0  0  0  0  0  0  0  0  0
  -21.2319   -7.5552   23.9750 H   0  0  0  0  0  0  0  0  0  0  0  0
  -21.1589   -6.0228   25.8556 H   0  0  0  0  0  0  0  0  0  0  0  0
  -22.0396   -2.8212   23.2809 H   0  0  0  0  0  0  0  0  0  0  0  0
  -22.4401  -11.9703   22.4008 H   0  0  0  0  0  0  0  0  0  0  0  0
  -21.1493  -13.0679   22.2082 H   0  0  0  0  0  0  0  0  0  0  0  0
  -24.6538  -15.7807   20.5848 H   0  0  0  0  0  0  0  0  0  0  0  0
  -26.2762  -15.5453   20.1156 H   0  0  0  0  0  0  0  0  0  0  0  0
  -26.6778  -32.4663   23.1464 H   0  0  0  0  0  0  0  0  0  0  0  0
  -25.0747  -34.0282   25.0566 H   0  0  0  0  0  0  0  0  0  0  0  0
  -22.7881  -31.3489   21.4131 H   0  0  0  0  0  0  0  0  0  0  0  0
  -23.3854  -35.9823   23.3648 H   0  0  0  0  0  0  0  0  0  0  0  0
  -24.3696  -36.8624   22.2204 H   0  0  0  0  0  0  0  0  0  0  0  0
  -23.7669  -37.6632   23.6516 H   0  0  0  0  0  0  0  0  0  0  0  0
  -25.9445  -31.6237   20.5691 H   0  0  0  0  0  0  0  0  0  0  0  0
  -26.7436  -31.0079   22.0108 H   0  0  0  0  0  0  0  0  0  0  0  0
  -28.0090  -29.1452   21.2057 H   0  0  0  0  0  0  0  0  0  0  0  0
  -26.1369  -26.0560   19.0719 H   0  0  0  0  0  0  0  0  0  0  0  0
  -24.0652  -27.2961   19.0997 H   0  0  0  0  0  0  0  0  0  0  0  0
  -23.6156  -30.5365   19.3930 H   0  0  0  0  0  0  0  0  0  0  0  0
  -22.7355  -29.1425   19.9945 H   0  0  0  0  0  0  0  0  0  0  0  0
  -25.1353  -36.2335   25.0565 H   0  0  0  0  0  0  0  0  0  0  0  0
  -21.0070  -28.3206   24.0793 H   0  0  0  0  0  0  0  0  0  0  0  0
  -20.5555  -26.2518   23.3550 H   0  0  0  0  0  0  0  0  0  0  0  0
  -21.5974  -26.8362   22.0454 H   0  0  0  0  0  0  0  0  0  0  0  0
  -19.6810  -25.6422   21.1488 H   0  0  0  0  0  0  0  0  0  0  0  0
  -19.6406  -27.3343   20.7034 H   0  0  0  0  0  0  0  0  0  0  0  0
  -17.4282  -26.6888   21.4113 H   0  0  0  0  0  0  0  0  0  0  0  0
  -18.0803  -26.0130   22.9049 H   0  0  0  0  0  0  0  0  0  0  0  0
  -19.7265  -30.6774   24.2204 H   0  0  0  0  0  0  0  0  0  0  0  0
  -17.5064  -31.5856   24.4483 H   0  0  0  0  0  0  0  0  0  0  0  0
  -15.5878  -30.2839   23.7407 H   0  0  0  0  0  0  0  0  0  0  0  0
  -15.9120  -28.0941   22.7766 H   0  0  0  0  0  0  0  0  0  0  0  0
  -24.5787  -30.7757   25.6817 H   0  0  0  0  0  0  0  0  0  0  0  0
  -25.0041  -32.2289   26.5536 H   0  0  0  0  0  0  0  0  0  0  0  0
  -25.8166  -30.7245   26.9138 H   0  0  0  0  0  0  0  0  0  0  0  0
  -26.2892  -29.7335   24.0803 H   0  0  0  0  0  0  0  0  0  0  0  0
  -27.4336  -29.7484   25.4006 H   0  0  0  0  0  0  0  0  0  0  0  0
  -27.8466  -30.4994   23.8779 H   0  0  0  0  0  0  0  0  0  0  0  0
  -27.2251  -33.3632   26.1242 H   0  0  0  0  0  0  0  0  0  0  0  0
  -28.3902  -32.6065   25.0645 H   0  0  0  0  0  0  0  0  0  0  0  0
  -27.9772  -31.8555   26.5872 H   0  0  0  0  0  0  0  0  0  0  0  0
  -28.2744  -38.0016   24.6863 H   0  0  0  0  0  0  0  0  0  0  0  0
  -28.0396  -36.2711   24.7461 H   0  0  0  0  0  0  0  0  0  0  0  0
  -27.1773  -37.3087   25.8564 H   0  0  0  0  0  0  0  0  0  0  0  0
  -20.9627  -29.9365   21.7352 H   0  0  0  0  0  0  0  0  0  0  0  0
  -26.0447  -38.2561   24.0273 H   0  0  0  0  0  0  0  0  0  0  0  0
  -29.2412  -18.1258   22.7584 H   0  0  0  0  0  0  0  0  0  0  0  0
  -28.6962  -20.2707   21.7626 H   0  0  0  0  0  0  0  0  0  0  0  0
  -32.7069  -17.9068   20.3899 H   0  0  0  0  0  0  0  0  0  0  0  0
  -31.2068  -16.6043   23.3194 H   0  0  0  0  0  0  0  0  0  0  0  0
  -32.3673  -16.3135   22.0171 H   0  0  0  0  0  0  0  0  0  0  0  0
  -28.0116  -21.7244   20.0995 H   0  0  0  0  0  0  0  0  0  0  0  0
  -28.9240  -22.5344   21.3548 H   0  0  0  0  0  0  0  0  0  0  0  0
  -27.1687  -24.1804   20.7032 H   0  0  0  0  0  0  0  0  0  0  0  0
  -26.9432  -24.4158   18.9900 H   0  0  0  0  0  0  0  0  0  0  0  0
  -33.2152  -19.6944   18.8645 H   0  0  0  0  0  0  0  0  0  0  0  0
  -32.1975  -21.0550   18.7205 H   0  0  0  0  0  0  0  0  0  0  0  0
  -30.6604  -21.9272   19.2673 H   0  0  0  0  0  0  0  0  0  0  0  0
  -29.6334  -15.4250   22.1607 H   0  0  0  0  0  0  0  0  0  0  0  0
  1 25  1  0
  1 30  2  0
  1 83  1  0
  2  3  1  0
  2 25  1  0
  2 85  1  0
  2 86  1  0
  3  4  1  0
  3 87  1  0
  3 88  1  0
  4  5  1  0
  4 89  1  0
  4 90  1  0
  5  6  1  0
  5 26  1  0
  5 91  1  6
  6 25  1  0
  6 92  1  0
  6 93  1  0
  7  8  2  0
  7 26  1  0
  7 29  1  0
  8  9  1  0
  8 22  1  0
  9 10  1  0
  9 27  2  0
 10 11  2  0
 10 15  1  0
 11 12  1  0
 11 94  1  0
 12 13  2  0
 12 95  1  0
 13 14  1  0
 13 31  1  0
 14 15  2  0
 14 96  1  0
 15 97  1  0
 16 17  2  0
 16 21  1  0
 16 31  1  0
 17 18  1  0
 17 98  1  0
 18 19  2  0
 18 99  1  0
 19 20  1  0
 19 24  1  0
 20 21  2  0
 20100  1  0
 21 23  1  0
 22 28  1  0
 22 32  2  0
 26 27  1  0
 28101  1  0
 28102  1  0
 29103  1  0
 29104  1  0
 33 34  1  0
 33 66  1  0
 33 70  2  0
 34 36  1  0
 34 59  1  0
 34105  1  6
 35 44  2  0
 35 45  1  0
 35 68  1  0
 36 56  1  0
 36106  1  0
 37 39  1  0
 37 47  1  0
 37 66  1  0
 37107  1  6
 38 43  2  0
 38 46  1  0
 38 47  1  0
 39 64  1  0
 39 67  2  0
 40 52  1  0
 40 53  2  0
 40 58  1  0
 41108  1  0
 41109  1  0
 41110  1  0
 42 43  1  0
 42 66  1  0
 42111  1  0
 42112  1  0
 43 44  1  0
 44113  1  0
 45 46  2  0
 45114  1  0
 46115  1  0
 47116  1  0
 47117  1  0
 48 41  1  0
 48 56  1  0
 48 65  1  0
 48118  1  1
 49 50  1  0
 49 53  1  0
 49 64  1  0
 49119  1  1
 50 51  1  0
 50120  1  0
 50121  1  0
 51 52  1  0
 51122  1  0
 51123  1  0
 52124  1  0
 52125  1  0
 53 54  1  0
 54 55  2  0
 54126  1  0
 55 57  1  0
 55127  1  0
 56 69  2  0
 57 58  2  0
 57128  1  0
 58129  1  0
 59 60  1  0
 59 61  1  0
 59 62  1  0
 60130  1  0
 60131  1  0
 60132  1  0
 61133  1  0
 61134  1  0
 61135  1  0
 62136  1  0
 62137  1  0
 62138  1  0
 63 65  1  0
 63139  1  0
 63140  1  0
 63141  1  0
 64142  1  0
 65143  1  0
 68 80  1  0
 71 72  2  0
 71 74  1  0
 71144  1  0
 72 75  1  0
 72145  1  0
 73 74  2  0
 73 76  1  0
 73146  1  0
 74 78  1  0
 75 76  2  0
 75 82  1  0
 76 81  1  0
 77 79  1  0
 77 80  1  0
 77 84  2  0
 78 83  1  0
 78147  1  0
 78148  1  0
 79 82  1  0
 79149  1  0
 79150  1  0
 80151  1  0
 80152  1  0
 81153  1  0
 81154  1  0
 82155  1  0
 83156  1  0
M  ISO  4   1 100  68 101  80 101  83 100
M  END
$$$$
42
     RDKit          3D

161170  0  0  0  0  0  0  0  0999 V2000
  -30.7652  -14.3608   20.6636 C   0  0  0  0  0  0  0  0  0100  0  0
  -30.4392  -12.2669   19.3775 C   0  0  0  0  0  0  0  0  0101  0  0
  -29.4791  -12.5281   18.1977 C   0  0  0  0  0  0  0  0  0102  0  0
  -27.9985  -12.3963   18.6038 C   0  0  0  0  0  0  0  0  0103  0  0
  -27.6639  -13.2170   19.8820 C   0  0  2  0  0  0  0  0  0104  0  0
  -28.6795  -12.9602   21.0279 C   0  0  0  0  0  0  0  0  0105  0  0
  -25.2633  -13.8245   20.5754 C   0  0  0  0  0  0  0  0  0106  0  0
  -24.1645  -13.0409   20.9408 C   0  0  0  0  0  0  0  0  0107  0  0
  -24.6400  -11.7009   20.8697 C   0  0  0  0  0  0  0  0  0108  0  0
  -23.9005  -10.4085   21.0420 C   0  0  0  0  0  0  0  0  0109  0  0
  -24.3588   -9.4123   21.9123 C   0  0  0  0  0  0  0  0  0110  0  0
  -23.6296   -8.2350   22.0803 C   0  0  0  0  0  0  0  0  0111  0  0
  -22.4385   -8.0419   21.3657 C   0  0  0  0  0  0  0  0  0112  0  0
  -22.0103   -9.0167   20.4678 C   0  0  0  0  0  0  0  0  0113  0  0
  -22.7317  -10.1925   20.3102 C   0  0  0  0  0  0  0  0  0114  0  0
  -21.6857   -6.0709   22.5391 C   0  0  0  0  0  0  0  0  0115  0  0
  -21.4064   -6.5490   23.8264 C   0  0  0  0  0  0  0  0  0116  0  0
  -21.3635   -5.6677   24.9085 C   0  0  0  0  0  0  0  0  0117  0  0
  -21.5973   -4.3067   24.7088 C   0  0  0  0  0  0  0  0  0118  0  0
  -21.8700   -3.8284   23.4282 C   0  0  0  0  0  0  0  0  0119  0  0
  -21.9144   -4.7056   22.3460 C   0  0  0  0  0  0  0  0  0120  0  0
  -22.8194  -13.5263   21.1763 C   0  0  0  0  0  0  0  0  0121  0  0
  -22.1559   -4.2206   21.1063 F   0  0  0  0  0  0  0  0  0122  0  0
  -21.5628   -3.4510   25.7555 F   0  0  0  0  0  0  0  0  0123  0  0
  -30.0261  -13.1803   20.4553 N   0  0  0  0  0  0  0  0  0124  0  0
  -26.2911  -12.9356   20.3443 N   0  0  0  0  0  0  0  0  0125  0  0
  -25.9236  -11.6675   20.5847 N   0  0  0  0  0  0  0  0  0126  0  0
  -22.0708  -12.7905   22.0005 N   0  0  0  0  0  0  0  0  0127  0  0
  -25.4117  -15.1773   20.4097 N   0  0  0  0  0  0  0  0  0128  0  0
  -31.7916  -14.6724   20.0536 O   0  0  0  0  0  0  0  0  0129  0  0
  -21.6670   -6.9022   21.4423 O   0  0  0  0  0  0  0  0  0130  0  0
  -22.3946  -14.5564   20.6568 O   0  0  0  0  0  0  0  0  0131  0  0
  -24.6048  -31.8614   23.2223 C   0  0  0  0  0  0  0  0  0100  0  0
  -25.8822  -32.4841   23.8616 C   0  0  1  0  0  0  0  0  0101  0  0
  -27.2536  -27.5042   20.1156 C   0  0  0  0  0  0  0  0  0102  0  0
  -25.5726  -33.8762   24.2210 N   0  0  0  0  0  0  0  0  0103  0  0
  -23.4066  -30.4859   21.5461 C   0  0  2  0  0  0  0  0  0104  0  0
  -24.8467  -28.9636   20.1247 C   0  0  0  0  0  0  0  0  0105  0  0
  -22.7412  -29.4652   22.5052 C   0  0  0  0  0  0  0  0  0106  0  0
  -18.0167  -28.1302   22.8626 C   0  0  0  0  0  0  0  0  0107  0  0
  -24.1342  -36.7390   23.2568 C   0  0  0  0  0  0  0  0  0108  0  0
  -25.9141  -30.8882   21.3456 C   0  0  0  0  0  0  0  0  0109  0  0
  -25.9930  -29.5029   20.7208 C   0  0  0  0  0  0  0  0  0110  0  0
  -27.1758  -28.7612   20.7331 C   0  0  0  0  0  0  0  0  0111  0  0
  -26.1032  -26.9836   19.5230 C   0  0  0  0  0  0  0  0  0112  0  0
  -24.9097  -27.7011   19.5331 C   0  0  0  0  0  0  0  0  0113  0  0
  -23.5715  -29.7899   20.1582 C   0  0  0  0  0  0  0  0  0114  0  0
  -25.3990  -36.3212   24.0232 C   0  0  1  0  0  0  0  0  0115  0  0
  -20.5793  -28.3813   23.1004 C   0  0  2  0  0  0  0  0  0116  0  0
  -20.6548  -26.9392   22.5411 C   0  0  0  0  0  0  0  0  0117  0  0
  -19.5615  -26.6407   21.5143 C   0  0  0  0  0  0  0  0  0118  0  0
  -18.1797  -26.7818   22.1673 C   0  0  0  0  0  0  0  0  0119  0  0
  -19.1385  -28.8769   23.2988 C   0  0  0  0  0  0  0  0  0120  0  0
  -18.9183  -30.1286   23.8878 C   0  0  0  0  0  0  0  0  0121  0  0
  -17.6396  -30.6493   24.0352 C   0  0  0  0  0  0  0  0  0122  0  0
  -25.9153  -34.9582   23.4993 C   0  0  0  0  0  0  0  0  0123  0  0
  -16.5415  -29.9068   23.6254 C   0  0  0  0  0  0  0  0  0124  0  0
  -16.7331  -28.6521   23.0586 C   0  0  0  0  0  0  0  0  0125  0  0
  -26.4583  -31.6439   25.0683 C   0  0  0  0  0  0  0  0  0126  0  0
  -25.3807  -31.3179   26.1374 C   0  0  0  0  0  0  0  0  0127  0  0
  -27.0530  -30.3024   24.5680 C   0  0  0  0  0  0  0  0  0128  0  0
  -27.6014  -32.4281   25.7651 C   0  0  0  0  0  0  0  0  0129  0  0
  -27.5629  -37.2220   24.8621 C   0  0  0  0  0  0  0  0  0130  0  0
  -21.4133  -29.3375   22.3735 N   0  0  0  0  0  0  0  0  0131  0  0
  -26.4706  -37.3372   23.9061 N   0  0  0  0  0  0  0  0  0132  0  0
  -24.6674  -31.0544   22.1178 N   0  0  0  0  0  0  0  0  0133  0  0
  -23.4259  -28.8150   23.2971 O   0  0  0  0  0  0  0  0  0134  0  0
  -28.3948  -26.7345   20.0089 O   0  0  0  0  0  0  0  0  0135  0  0
  -26.5870  -34.9065   22.4671 O   0  0  0  0  0  0  0  0  0136  0  0
  -23.5365  -32.1254   23.7833 O   0  0  0  0  0  0  0  0  0137  0  0
  -27.5426  -19.0764   21.6964 C   0  0  0  0  0  0  0  0  0  0  0  0
  -26.6353  -20.7360   23.1997 C   0  0  0  0  0  0  0  0  0  0  0  0
  -27.4202  -18.1074   22.6922 C   0  0  0  0  0  0  0  0  0  0  0  0
  -26.5128  -19.7669   24.1955 C   0  0  0  0  0  0  0  0  0  0  0  0
  -27.1502  -20.3907   21.9502 C   0  0  0  0  0  0  0  0  0  0  0  0
  -26.9052  -18.4526   23.9417 C   0  0  0  0  0  0  0  0  0  0  0  0
  -28.2911  -21.3061   19.9475 C   0  0  0  0  0  0  0  0  0  0  0  0
  -28.1538  -22.2162   18.7415 C   0  0  0  0  0  0  0  0  0  0  0  0
  -27.5495  -23.5693   19.0460 C   0  0  0  0  0  0  0  0  0  0  0  0
  -26.4498  -22.6094   21.0492 C   0  0  0  0  0  0  0  0  0  0  0  0
  -26.2141  -23.3653   19.7424 C   0  0  1  0  0  0  0  0  0  0  0  0
  -27.1312  -17.8130   26.3496 C   0  0  0  0  0  0  0  0  0  0  0  0
  -25.5232  -24.7017   20.0055 C   0  0  0  0  0  0  0  0  0  1  0  0
  -27.2776  -21.3965   20.9171 N   0  0  0  0  0  0  0  0  0  0  0  0
  -26.7783  -17.4497   24.9729 N   0  0  0  0  0  0  0  0  0  0  0  0
  -29.2372  -20.5142   19.9714 O   0  0  0  0  0  0  0  0  0  0  0  0
  -31.4485  -12.4701   19.0860 H   0  0  0  0  0  0  0  0  0  0  0  0
  -30.3970  -11.2460   19.6950 H   0  0  0  0  0  0  0  0  0  0  0  0
  -29.6870  -11.8204   17.4226 H   0  0  0  0  0  0  0  0  0  0  0  0
  -29.6375  -13.5326   17.8649 H   0  0  0  0  0  0  0  0  0  0  0  0
  -27.7830  -11.3650   18.7904 H   0  0  0  0  0  0  0  0  0  0  0  0
  -27.4028  -12.7801   17.8021 H   0  0  0  0  0  0  0  0  0  0  0  0
  -27.7353  -14.2503   19.6136 H   0  0  0  0  0  0  0  0  0  0  0  0
  -28.5890  -11.9550   21.3832 H   0  0  0  0  0  0  0  0  0  0  0  0
  -28.5005  -13.6134   21.8562 H   0  0  0  0  0  0  0  0  0  0  0  0
  -25.2399   -9.5495   22.4318 H   0  0  0  0  0  0  0  0  0  0  0  0
  -23.9663   -7.5070   22.7297 H   0  0  0  0  0  0  0  0  0  0  0  0
  -21.1515   -8.8641   19.9162 H   0  0  0  0  0  0  0  0  0  0  0  0
  -22.4016  -10.9115   19.6476 H   0  0  0  0  0  0  0  0  0  0  0  0
  -21.2319   -7.5552   23.9750 H   0  0  0  0  0  0  0  0  0  0  0  0
  -21.1589   -6.0228   25.8556 H   0  0  0  0  0  0  0  0  0  0  0  0
  -22.0396   -2.8212   23.2809 H   0  0  0  0  0  0  0  0  0  0  0  0
  -22.4401  -11.9703   22.4008 H   0  0  0  0  0  0  0  0  0  0  0  0
  -21.1493  -13.0679   22.2082 H   0  0  0  0  0  0  0  0  0  0  0  0
  -24.6538  -15.7807   20.5848 H   0  0  0  0  0  0  0  0  0  0  0  0
  -26.2762  -15.5453   20.1156 H   0  0  0  0  0  0  0  0  0  0  0  0
  -26.6778  -32.4663   23.1464 H   0  0  0  0  0  0  0  0  0  0  0  0
  -25.0747  -34.0282   25.0566 H   0  0  0  0  0  0  0  0  0  0  0  0
  -22.7881  -31.3489   21.4131 H   0  0  0  0  0  0  0  0  0  0  0  0
  -23.3854  -35.9823   23.3648 H   0  0  0  0  0  0  0  0  0  0  0  0
  -24.3696  -36.8624   22.2204 H   0  0  0  0  0  0  0  0  0  0  0  0
  -23.7669  -37.6632   23.6516 H   0  0  0  0  0  0  0  0  0  0  0  0
  -25.9445  -31.6237   20.5691 H   0  0  0  0  0  0  0  0  0  0  0  0
  -26.7436  -31.0079   22.0108 H   0  0  0  0  0  0  0  0  0  0  0  0
  -28.0090  -29.1452   21.2057 H   0  0  0  0  0  0  0  0  0  0  0  0
  -26.1369  -26.0560   19.0719 H   0  0  0  0  0  0  0  0  0  0  0  0
  -24.0652  -27.2961   19.0997 H   0  0  0  0  0  0  0  0  0  0  0  0
  -23.6156  -30.5365   19.3930 H   0  0  0  0  0  0  0  0  0  0  0  0
  -22.7355  -29.1425   19.9945 H   0  0  0  0  0  0  0  0  0  0  0  0
  -25.1353  -36.2335   25.0565 H   0  0  0  0  0  0  0  0  0  0  0  0
  -21.0070  -28.3206   24.0793 H   0  0  0  0  0  0  0  0  0  0  0  0
  -20.5555  -26.2518   23.3550 H   0  0  0  0  0  0  0  0  0  0  0  0
  -21.5974  -26.8362   22.0454 H   0  0  0  0  0  0  0  0  0  0  0  0
  -19.6810  -25.6422   21.1488 H   0  0  0  0  0  0  0  0  0  0  0  0
  -19.6406  -27.3343   20.7034 H   0  0  0  0  0  0  0  0  0  0  0  0
  -17.4282  -26.6888   21.4113 H   0  0  0  0  0  0  0  0  0  0  0  0
  -18.0803  -26.0130   22.9049 H   0  0  0  0  0  0  0  0  0  0  0  0
  -19.7265  -30.6774   24.2204 H   0  0  0  0  0  0  0  0  0  0  0  0
  -17.5064  -31.5856   24.4483 H   0  0  0  0  0  0  0  0  0  0  0  0
  -15.5878  -30.2839   23.7407 H   0  0  0  0  0  0  0  0  0  0  0  0
  -15.9120  -28.0941   22.7766 H   0  0  0  0  0  0  0  0  0  0  0  0
  -24.5787  -30.7757   25.6817 H   0  0  0  0  0  0  0  0  0  0  0  0
  -25.0041  -32.2289   26.5536 H   0  0  0  0  0  0  0  0  0  0  0  0
  -25.8166  -30.7245   26.9138 H   0  0  0  0  0  0  0  0  0  0  0  0
  -26.2892  -29.7335   24.0803 H   0  0  0  0  0  0  0  0  0  0  0  0
  -27.4336  -29.7484   25.4006 H   0  0  0  0  0  0  0  0  0  0  0  0
  -27.8466  -30.4994   23.8779 H   0  0  0  0  0  0  0  0  0  0  0  0
  -27.2251  -33.3632   26.1242 H   0  0  0  0  0  0  0  0  0  0  0  0
  -28.3902  -32.6065   25.0645 H   0  0  0  0  0  0  0  0  0  0  0  0
  -27.9772  -31.8555   26.5872 H   0  0  0  0  0  0  0  0  0  0  0  0
  -28.2744  -38.0016   24.6863 H   0  0  0  0  0  0  0  0  0  0  0  0
  -28.0396  -36.2711   24.7461 H   0  0  0  0  0  0  0  0  0  0  0  0
  -27.1773  -37.3087   25.8564 H   0  0  0  0  0  0  0  0  0  0  0  0
  -20.9627  -29.9365   21.7352 H   0  0  0  0  0  0  0  0  0  0  0  0
  -26.0447  -38.2561   24.0273 H   0  0  0  0  0  0  0  0  0  0  0  0
  -27.9235  -18.8210   20.7719 H   0  0  0  0  0  0  0  0  0  0  0  0
  -26.3450  -21.7084   23.3874 H   0  0  0  0  0  0  0  0  0  0  0  0
  -27.7107  -17.1351   22.5045 H   0  0  0  0  0  0  0  0  0  0  0  0
  -26.1319  -20.0223   25.1200 H   0  0  0  0  0  0  0  0  0  0  0  0
  -27.5321  -21.7263   18.0215 H   0  0  0  0  0  0  0  0  0  0  0  0
  -29.1449  -22.3981   18.3815 H   0  0  0  0  0  0  0  0  0  0  0  0
  -27.4007  -24.1097   18.1346 H   0  0  0  0  0  0  0  0  0  0  0  0
  -28.2077  -24.1266   19.6793 H   0  0  0  0  0  0  0  0  0  0  0  0
  -25.4980  -22.3222   21.4447 H   0  0  0  0  0  0  0  0  0  0  0  0
  -26.9881  -23.2750   21.6912 H   0  0  0  0  0  0  0  0  0  0  0  0
  -25.5686  -22.7931   19.1093 H   0  0  0  0  0  0  0  0  0  0  0  0
  -26.2995  -18.3001   26.8143 H   0  0  0  0  0  0  0  0  0  0  0  0
  -27.9720  -18.4747   26.3395 H   0  0  0  0  0  0  0  0  0  0  0  0
  -27.3795  -16.9292   26.8992 H   0  0  0  0  0  0  0  0  0  0  0  0
  -25.0139  -24.7170   20.9464 H   0  0  0  0  0  0  0  0  0  0  0  0
  -24.7521  -24.9769   19.3166 H   0  0  0  0  0  0  0  0  0  0  0  0
  1 25  1  0
  1 30  2  0
  1 85  1  0
  2  3  1  0
  2 25  1  0
  2 87  1  0
  2 88  1  0
  3  4  1  0
  3 89  1  0
  3 90  1  0
  4  5  1  0
  4 91  1  0
  4 92  1  0
  5  6  1  0
  5 26  1  0
  5 93  1  6
  6 25  1  0
  6 94  1  0
  6 95  1  0
  7  8  2  0
  7 26  1  0
  7 29  1  0
  8  9  1  0
  8 22  1  0
  9 10  1  0
  9 27  2  0
 10 11  2  0
 10 15  1  0
 11 12  1  0
 11 96  1  0
 12 13  2  0
 12 97  1  0
 13 14  1  0
 13 31  1  0
 14 15  2  0
 14 98  1  0
 15 99  1  0
 16 17  2  0
 16 21  1  0
 16 31  1  0
 17 18  1  0
 17100  1  0
 18 19  2  0
 18101  1  0
 19 20  1  0
 19 24  1  0
 20 21  2  0
 20102  1  0
 21 23  1  0
 22 28  1  0
 22 32  2  0
 26 27  1  0
 28103  1  0
 28104  1  0
 29105  1  0
 29106  1  0
 33 34  1  0
 33 66  1  0
 33 70  2  0
 34 36  1  0
 34 59  1  0
 34107  1  6
 35 44  2  0
 35 45  1  0
 35 68  1  0
 36 56  1  0
 36108  1  0
 37 39  1  0
 37 47  1  0
 37 66  1  0
 37109  1  6
 38 43  2  0
 38 46  1  0
 38 47  1  0
 39 64  1  0
 39 67  2  0
 40 52  1  0
 40 53  2  0
 40 58  1  0
 41110  1  0
 41111  1  0
 41112  1  0
 42 43  1  0
 42 66  1  0
 42113  1  0
 42114  1  0
 43 44  1  0
 44115  1  0
 45 46  2  0
 45116  1  0
 46117  1  0
 47118  1  0
 47119  1  0
 48 41  1  0
 48 56  1  0
 48 65  1  0
 48120  1  1
 49 50  1  0
 49 53  1  0
 49 64  1  0
 49121  1  1
 50 51  1  0
 50122  1  0
 50123  1  0
 51 52  1  0
 51124  1  0
 51125  1  0
 52126  1  0
 52127  1  0
 53 54  1  0
 54 55  2  0
 54128  1  0
 55 57  1  0
 55129  1  0
 56 69  2  0
 57 58  2  0
 57130  1  0
 58131  1  0
 59 60  1  0
 59 61  1  0
 59 62  1  0
 60132  1  0
 60133  1  0
 60134  1  0
 61135  1  0
 61136  1  0
 61137  1  0
 62138  1  0
 62139  1  0
 62140  1  0
 63 65  1  0
 63141  1  0
 63142  1  0
 63143  1  0
 64144  1  0
 65145  1  0
 68 83  1  0
 71 73  2  0
 71 75  1  0
 71146  1  0
 72 74  1  0
 72 75  2  0
 72147  1  0
 73 76  1  0
 73148  1  0
 74 76  2  0
 74149  1  0
 75 84  1  0
 76 85  1  0
 77 78  1  0
 77 84  1  0
 77 86  2  0
 78 79  1  0
 78150  1  0
 78151  1  0
 79 81  1  0
 79152  1  0
 79153  1  0
 80 81  1  0
 80 84  1  0
 80154  1  0
 80155  1  0
 81 83  1  0
 81156  1  6
 82 85  1  0
 82157  1  0
 82158  1  0
 82159  1  0
 83160  1  0
 83161  1  0
M  ISO  4   1 100  68 101  83 101  85 100
M  END
$$$$
43
     RDKit          3D

158167  0  0  0  0  0  0  0  0999 V2000
  -30.7652  -14.3608   20.6636 C   0  0  0  0  0  0  0  0  0100  0  0
  -30.4392  -12.2669   19.3775 C   0  0  0  0  0  0  0  0  0101  0  0
  -29.4791  -12.5281   18.1977 C   0  0  0  0  0  0  0  0  0102  0  0
  -27.9985  -12.3963   18.6038 C   0  0  0  0  0  0  0  0  0103  0  0
  -27.6639  -13.2170   19.8820 C   0  0  2  0  0  0  0  0  0104  0  0
  -28.6795  -12.9602   21.0279 C   0  0  0  0  0  0  0  0  0105  0  0
  -25.2633  -13.8245   20.5754 C   0  0  0  0  0  0  0  0  0106  0  0
  -24.1645  -13.0409   20.9408 C   0  0  0  0  0  0  0  0  0107  0  0
  -24.6400  -11.7009   20.8697 C   0  0  0  0  0  0  0  0  0108  0  0
  -23.9005  -10.4085   21.0420 C   0  0  0  0  0  0  0  0  0109  0  0
  -24.3588   -9.4123   21.9123 C   0  0  0  0  0  0  0  0  0110  0  0
  -23.6296   -8.2350   22.0803 C   0  0  0  0  0  0  0  0  0111  0  0
  -22.4385   -8.0419   21.3657 C   0  0  0  0  0  0  0  0  0112  0  0
  -22.0103   -9.0167   20.4678 C   0  0  0  0  0  0  0  0  0113  0  0
  -22.7317  -10.1925   20.3102 C   0  0  0  0  0  0  0  0  0114  0  0
  -21.6857   -6.0709   22.5391 C   0  0  0  0  0  0  0  0  0115  0  0
  -21.4064   -6.5490   23.8264 C   0  0  0  0  0  0  0  0  0116  0  0
  -21.3635   -5.6677   24.9085 C   0  0  0  0  0  0  0  0  0117  0  0
  -21.5973   -4.3067   24.7088 C   0  0  0  0  0  0  0  0  0118  0  0
  -21.8700   -3.8284   23.4282 C   0  0  0  0  0  0  0  0  0119  0  0
  -21.9144   -4.7056   22.3460 C   0  0  0  0  0  0  0  0  0120  0  0
  -22.8194  -13.5263   21.1763 C   0  0  0  0  0  0  0  0  0121  0  0
  -22.1559   -4.2206   21.1063 F   0  0  0  0  0  0  0  0  0122  0  0
  -21.5628   -3.4510   25.7555 F   0  0  0  0  0  0  0  0  0123  0  0
  -30.0261  -13.1803   20.4553 N   0  0  0  0  0  0  0  0  0124  0  0
  -26.2911  -12.9356   20.3443 N   0  0  0  0  0  0  0  0  0125  0  0
  -25.9236  -11.6675   20.5847 N   0  0  0  0  0  0  0  0  0126  0  0
  -22.0708  -12.7905   22.0005 N   0  0  0  0  0  0  0  0  0127  0  0
  -25.4117  -15.1773   20.4097 N   0  0  0  0  0  0  0  0  0128  0  0
  -31.7916  -14.6724   20.0536 O   0  0  0  0  0  0  0  0  0129  0  0
  -21.6670   -6.9022   21.4423 O   0  0  0  0  0  0  0  0  0130  0  0
  -22.3946  -14.5564   20.6568 O   0  0  0  0  0  0  0  0  0131  0  0
  -24.6048  -31.8614   23.2223 C   0  0  0  0  0  0  0  0  0100  0  0
  -25.8822  -32.4841   23.8616 C   0  0  1  0  0  0  0  0  0101  0  0
  -27.2536  -27.5042   20.1156 C   0  0  0  0  0  0  0  0  0102  0  0
  -25.5726  -33.8762   24.2210 N   0  0  0  0  0  0  0  0  0103  0  0
  -23.4066  -30.4859   21.5461 C   0  0  2  0  0  0  0  0  0104  0  0
  -24.8467  -28.9636   20.1247 C   0  0  0  0  0  0  0  0  0105  0  0
  -22.7412  -29.4652   22.5052 C   0  0  0  0  0  0  0  0  0106  0  0
  -18.0167  -28.1302   22.8626 C   0  0  0  0  0  0  0  0  0107  0  0
  -24.1342  -36.7390   23.2568 C   0  0  0  0  0  0  0  0  0108  0  0
  -25.9141  -30.8882   21.3456 C   0  0  0  0  0  0  0  0  0109  0  0
  -25.9930  -29.5029   20.7208 C   0  0  0  0  0  0  0  0  0110  0  0
  -27.1758  -28.7612   20.7331 C   0  0  0  0  0  0  0  0  0111  0  0
  -26.1032  -26.9836   19.5230 C   0  0  0  0  0  0  0  0  0112  0  0
  -24.9097  -27.7011   19.5331 C   0  0  0  0  0  0  0  0  0113  0  0
  -23.5715  -29.7899   20.1582 C   0  0  0  0  0  0  0  0  0114  0  0
  -25.3990  -36.3212   24.0232 C   0  0  1  0  0  0  0  0  0115  0  0
  -20.5793  -28.3813   23.1004 C   0  0  2  0  0  0  0  0  0116  0  0
  -20.6548  -26.9392   22.5411 C   0  0  0  0  0  0  0  0  0117  0  0
  -19.5615  -26.6407   21.5143 C   0  0  0  0  0  0  0  0  0118  0  0
  -18.1797  -26.7818   22.1673 C   0  0  0  0  0  0  0  0  0119  0  0
  -19.1385  -28.8769   23.2988 C   0  0  0  0  0  0  0  0  0120  0  0
  -18.9183  -30.1286   23.8878 C   0  0  0  0  0  0  0  0  0121  0  0
  -17.6396  -30.6493   24.0352 C   0  0  0  0  0  0  0  0  0122  0  0
  -25.9153  -34.9582   23.4993 C   0  0  0  0  0  0  0  0  0123  0  0
  -16.5415  -29.9068   23.6254 C   0  0  0  0  0  0  0  0  0124  0  0
  -16.7331  -28.6521   23.0586 C   0  0  0  0  0  0  0  0  0125  0  0
  -26.4583  -31.6439   25.0683 C   0  0  0  0  0  0  0  0  0126  0  0
  -25.3807  -31.3179   26.1374 C   0  0  0  0  0  0  0  0  0127  0  0
  -27.0530  -30.3024   24.5680 C   0  0  0  0  0  0  0  0  0128  0  0
  -27.6014  -32.4281   25.7651 C   0  0  0  0  0  0  0  0  0129  0  0
  -27.5629  -37.2220   24.8621 C   0  0  0  0  0  0  0  0  0130  0  0
  -21.4133  -29.3375   22.3735 N   0  0  0  0  0  0  0  0  0131  0  0
  -26.4706  -37.3372   23.9061 N   0  0  0  0  0  0  0  0  0132  0  0
  -24.6674  -31.0544   22.1178 N   0  0  0  0  0  0  0  0  0133  0  0
  -23.4259  -28.8150   23.2971 O   0  0  0  0  0  0  0  0  0134  0  0
  -28.3948  -26.7345   20.0089 O   0  0  0  0  0  0  0  0  0135  0  0
  -26.5870  -34.9065   22.4671 O   0  0  0  0  0  0  0  0  0136  0  0
  -23.5365  -32.1254   23.7833 O   0  0  0  0  0  0  0  0  0137  0  0
  -33.2841  -17.2829   21.1687 C   0  0  0  0  0  0  0  0  0  0  0  0
  -32.4082  -15.7777   22.8433 C   0  0  0  0  0  0  0  0  0  0  0  0
  -32.9920  -16.3480   20.1756 C   0  0  0  0  0  0  0  0  0  0  0  0
  -32.1160  -14.8428   21.8502 C   0  0  0  0  0  0  0  0  0  0  0  0
  -32.9922  -16.9977   22.5026 C   0  0  0  0  0  0  0  0  0  0  0  0
  -32.4079  -15.1280   20.5164 C   0  0  0  0  0  0  0  0  0  0  0  0
  -32.3455  -14.3187   18.1142 C   0  0  0  0  0  0  0  0  0  0  0  0
  -31.8889  -13.0505   17.4326 C   0  0  0  0  0  0  0  0  0  0  0  0
  -31.8386  -12.0403   18.5632 C   0  0  0  0  0  0  0  0  0  0  0  0
  -31.4806  -12.8808   19.7838 C   0  0  2  0  0  0  0  0  0  0  0  0
  -33.3047  -17.9974   23.5643 C   0  0  0  0  0  0  0  0  0  0  0  0
  -29.9633  -13.0012   19.9423 C   0  0  0  0  0  0  0  0  0  1  0  0
  -32.1076  -14.1681   19.4970 N   0  0  0  0  0  0  0  0  0  0  0  0
  -32.3649  -19.0962   23.5785 N   0  0  0  0  0  0  0  0  0  0  0  0
  -32.7996  -15.2660   17.4889 O   0  0  0  0  0  0  0  0  0  0  0  0
  -31.4485  -12.4701   19.0860 H   0  0  0  0  0  0  0  0  0  0  0  0
  -30.3970  -11.2460   19.6950 H   0  0  0  0  0  0  0  0  0  0  0  0
  -29.6870  -11.8204   17.4226 H   0  0  0  0  0  0  0  0  0  0  0  0
  -29.6375  -13.5326   17.8649 H   0  0  0  0  0  0  0  0  0  0  0  0
  -27.7830  -11.3650   18.7904 H   0  0  0  0  0  0  0  0  0  0  0  0
  -27.4028  -12.7801   17.8021 H   0  0  0  0  0  0  0  0  0  0  0  0
  -27.7353  -14.2503   19.6136 H   0  0  0  0  0  0  0  0  0  0  0  0
  -28.5890  -11.9550   21.3832 H   0  0  0  0  0  0  0  0  0  0  0  0
  -28.5005  -13.6134   21.8562 H   0  0  0  0  0  0  0  0  0  0  0  0
  -25.2399   -9.5495   22.4318 H   0  0  0  0  0  0  0  0  0  0  0  0
  -23.9663   -7.5070   22.7297 H   0  0  0  0  0  0  0  0  0  0  0  0
  -21.1515   -8.8641   19.9162 H   0  0  0  0  0  0  0  0  0  0  0  0
  -22.4016  -10.9115   19.6476 H   0  0  0  0  0  0  0  0  0  0  0  0
  -21.2319   -7.5552   23.9750 H   0  0  0  0  0  0  0  0  0  0  0  0
  -21.1589   -6.0228   25.8556 H   0  0  0  0  0  0  0  0  0  0  0  0
  -22.0396   -2.8212   23.2809 H   0  0  0  0  0  0  0  0  0  0  0  0
  -22.4401  -11.9703   22.4008 H   0  0  0  0  0  0  0  0  0  0  0  0
  -21.1493  -13.0679   22.2082 H   0  0  0  0  0  0  0  0  0  0  0  0
  -24.6538  -15.7807   20.5848 H   0  0  0  0  0  0  0  0  0  0  0  0
  -26.2762  -15.5453   20.1156 H   0  0  0  0  0  0  0  0  0  0  0  0
  -26.6778  -32.4663   23.1464 H   0  0  0  0  0  0  0  0  0  0  0  0
  -25.0747  -34.0282   25.0566 H   0  0  0  0  0  0  0  0  0  0  0  0
  -22.7881  -31.3489   21.4131 H   0  0  0  0  0  0  0  0  0  0  0  0
  -23.3854  -35.9823   23.3648 H   0  0  0  0  0  0  0  0  0  0  0  0
  -24.3696  -36.8624   22.2204 H   0  0  0  0  0  0  0  0  0  0  0  0
  -23.7669  -37.6632   23.6516 H   0  0  0  0  0  0  0  0  0  0  0  0
  -25.9445  -31.6237   20.5691 H   0  0  0  0  0  0  0  0  0  0  0  0
  -26.7436  -31.0079   22.0108 H   0  0  0  0  0  0  0  0  0  0  0  0
  -28.0090  -29.1452   21.2057 H   0  0  0  0  0  0  0  0  0  0  0  0
  -26.1369  -26.0560   19.0719 H   0  0  0  0  0  0  0  0  0  0  0  0
  -24.0652  -27.2961   19.0997 H   0  0  0  0  0  0  0  0  0  0  0  0
  -23.6156  -30.5365   19.3930 H   0  0  0  0  0  0  0  0  0  0  0  0
  -22.7355  -29.1425   19.9945 H   0  0  0  0  0  0  0  0  0  0  0  0
  -25.1353  -36.2335   25.0565 H   0  0  0  0  0  0  0  0  0  0  0  0
  -21.0070  -28.3206   24.0793 H   0  0  0  0  0  0  0  0  0  0  0  0
  -20.5555  -26.2518   23.3550 H   0  0  0  0  0  0  0  0  0  0  0  0
  -21.5974  -26.8362   22.0454 H   0  0  0  0  0  0  0  0  0  0  0  0
  -19.6810  -25.6422   21.1488 H   0  0  0  0  0  0  0  0  0  0  0  0
  -19.6406  -27.3343   20.7034 H   0  0  0  0  0  0  0  0  0  0  0  0
  -17.4282  -26.6888   21.4113 H   0  0  0  0  0  0  0  0  0  0  0  0
  -18.0803  -26.0130   22.9049 H   0  0  0  0  0  0  0  0  0  0  0  0
  -19.7265  -30.6774   24.2204 H   0  0  0  0  0  0  0  0  0  0  0  0
  -17.5064  -31.5856   24.4483 H   0  0  0  0  0  0  0  0  0  0  0  0
  -15.5878  -30.2839   23.7407 H   0  0  0  0  0  0  0  0  0  0  0  0
  -15.9120  -28.0941   22.7766 H   0  0  0  0  0  0  0  0  0  0  0  0
  -24.5787  -30.7757   25.6817 H   0  0  0  0  0  0  0  0  0  0  0  0
  -25.0041  -32.2289   26.5536 H   0  0  0  0  0  0  0  0  0  0  0  0
  -25.8166  -30.7245   26.9138 H   0  0  0  0  0  0  0  0  0  0  0  0
  -26.2892  -29.7335   24.0803 H   0  0  0  0  0  0  0  0  0  0  0  0
  -27.4336  -29.7484   25.4006 H   0  0  0  0  0  0  0  0  0  0  0  0
  -27.8466  -30.4994   23.8779 H   0  0  0  0  0  0  0  0  0  0  0  0
  -27.2251  -33.3632   26.1242 H   0  0  0  0  0  0  0  0  0  0  0  0
  -28.3902  -32.6065   25.0645 H   0  0  0  0  0  0  0  0  0  0  0  0
  -27.9772  -31.8555   26.5872 H   0  0  0  0  0  0  0  0  0  0  0  0
  -28.2744  -38.0016   24.6863 H   0  0  0  0  0  0  0  0  0  0  0  0
  -28.0396  -36.2711   24.7461 H   0  0  0  0  0  0  0  0  0  0  0  0
  -27.1773  -37.3087   25.8564 H   0  0  0  0  0  0  0  0  0  0  0  0
  -20.9627  -29.9365   21.7352 H   0  0  0  0  0  0  0  0  0  0  0  0
  -26.0447  -38.2561   24.0273 H   0  0  0  0  0  0  0  0  0  0  0  0
  -33.7162  -18.1856   20.9166 H   0  0  0  0  0  0  0  0  0  0  0  0
  -32.1923  -15.5667   23.8302 H   0  0  0  0  0  0  0  0  0  0  0  0
  -33.2080  -16.5589   19.1887 H   0  0  0  0  0  0  0  0  0  0  0  0
  -31.6839  -13.9402   22.1023 H   0  0  0  0  0  0  0  0  0  0  0  0
  -32.5868  -12.7480   16.6800 H   0  0  0  0  0  0  0  0  0  0  0  0
  -30.9506  -13.1615   16.9304 H   0  0  0  0  0  0  0  0  0  0  0  0
  -32.7884  -11.5650   18.6926 H   0  0  0  0  0  0  0  0  0  0  0  0
  -31.1384  -11.2514   18.3833 H   0  0  0  0  0  0  0  0  0  0  0  0
  -31.8188  -12.4583   20.7069 H   0  0  0  0  0  0  0  0  0  0  0  0
  -34.2864  -18.3867   23.3919 H   0  0  0  0  0  0  0  0  0  0  0  0
  -33.2412  -17.5007   24.5099 H   0  0  0  0  0  0  0  0  0  0  0  0
  -29.6281  -12.5631   20.8591 H   0  0  0  0  0  0  0  0  0  0  0  0
  -29.3996  -12.4967   19.1856 H   0  0  0  0  0  0  0  0  0  0  0  0
  -32.1488  -20.0095   23.8757 H   0  0  0  0  0  0  0  0  0  0  0  0
  1 25  1  0
  1 30  2  0
  1 84  1  0
  2  3  1  0
  2 25  1  0
  2 86  1  0
  2 87  1  0
  3  4  1  0
  3 88  1  0
  3 89  1  0
  4  5  1  0
  4 90  1  0
  4 91  1  0
  5  6  1  0
  5 26  1  0
  5 92  1  6
  6 25  1  0
  6 93  1  0
  6 94  1  0
  7  8  2  0
  7 26  1  0
  7 29  1  0
  8  9  1  0
  8 22  1  0
  9 10  1  0
  9 27  2  0
 10 11  2  0
 10 15  1  0
 11 12  1  0
 11 95  1  0
 12 13  2  0
 12 96  1  0
 13 14  1  0
 13 31  1  0
 14 15  2  0
 14 97  1  0
 15 98  1  0
 16 17  2  0
 16 21  1  0
 16 31  1  0
 17 18  1  0
 17 99  1  0
 18 19  2  0
 18100  1  0
 19 20  1  0
 19 24  1  0
 20 21  2  0
 20101  1  0
 21 23  1  0
 22 28  1  0
 22 32  2  0
 26 27  1  0
 28102  1  0
 28103  1  0
 29104  1  0
 29105  1  0
 33 34  1  0
 33 66  1  0
 33 70  2  0
 34 36  1  0
 34 59  1  0
 34106  1  6
 35 44  2  0
 35 45  1  0
 35 68  1  0
 36 56  1  0
 36107  1  0
 37 39  1  0
 37 47  1  0
 37 66  1  0
 37108  1  6
 38 43  2  0
 38 46  1  0
 38 47  1  0
 39 64  1  0
 39 67  2  0
 40 52  1  0
 40 53  2  0
 40 58  1  0
 41109  1  0
 41110  1  0
 41111  1  0
 42 43  1  0
 42 66  1  0
 42112  1  0
 42113  1  0
 43 44  1  0
 44114  1  0
 45 46  2  0
 45115  1  0
 46116  1  0
 47117  1  0
 47118  1  0
 48 41  1  0
 48 56  1  0
 48 65  1  0
 48119  1  1
 49 50  1  0
 49 53  1  0
 49 64  1  0
 49120  1  1
 50 51  1  0
 50121  1  0
 50122  1  0
 51 52  1  0
 51123  1  0
 51124  1  0
 52125  1  0
 52126  1  0
 53 54  1  0
 54 55  2  0
 54127  1  0
 55 57  1  0
 55128  1  0
 56 69  2  0
 57 58  2  0
 57129  1  0
 58130  1  0
 59 60  1  0
 59 61  1  0
 59 62  1  0
 60131  1  0
 60132  1  0
 60133  1  0
 61134  1  0
 61135  1  0
 61136  1  0
 62137  1  0
 62138  1  0
 62139  1  0
 63 65  1  0
 63140  1  0
 63141  1  0
 63142  1  0
 64143  1  0
 65144  1  0
 68 82  1  0
 71 73  2  0
 71 75  1  0
 71145  1  0
 72 74  1  0
 72 75  2  0
 72146  1  0
 73 76  1  0
 73147  1  0
 74 76  2  0
 74148  1  0
 75 81  1  0
 76 83  1  0
 77 78  1  0
 77 83  1  0
 77 85  2  0
 78 79  1  0
 78149  1  0
 78150  1  0
 79 80  1  0
 79151  1  0
 79152  1  0
 80 82  1  0
 80 83  1  0
 80153  1  1
 81 84  1  0
 81154  1  0
 81155  1  0
 82156  1  0
 82157  1  0
 84158  1  0
M  ISO  4   1 100  68 101  82 101  84 100
M  END
$$$$
44
     RDKit          3D

152160  0  0  0  0  0  0  0  0999 V2000
  -30.7652  -14.3608   20.6636 C   0  0  0  0  0  0  0  0  0100  0  0
  -30.4392  -12.2669   19.3775 C   0  0  0  0  0  0  0  0  0101  0  0
  -29.4791  -12.5281   18.1977 C   0  0  0  0  0  0  0  0  0102  0  0
  -27.9985  -12.3963   18.6038 C   0  0  0  0  0  0  0  0  0103  0  0
  -27.6639  -13.2170   19.8820 C   0  0  2  0  0  0  0  0  0104  0  0
  -28.6795  -12.9602   21.0279 C   0  0  0  0  0  0  0  0  0105  0  0
  -25.2633  -13.8245   20.5754 C   0  0  0  0  0  0  0  0  0106  0  0
  -24.1645  -13.0409   20.9408 C   0  0  0  0  0  0  0  0  0107  0  0
  -24.6400  -11.7009   20.8697 C   0  0  0  0  0  0  0  0  0108  0  0
  -23.9005  -10.4085   21.0420 C   0  0  0  0  0  0  0  0  0109  0  0
  -24.3588   -9.4123   21.9123 C   0  0  0  0  0  0  0  0  0110  0  0
  -23.6296   -8.2350   22.0803 C   0  0  0  0  0  0  0  0  0111  0  0
  -22.4385   -8.0419   21.3657 C   0  0  0  0  0  0  0  0  0112  0  0
  -22.0103   -9.0167   20.4678 C   0  0  0  0  0  0  0  0  0113  0  0
  -22.7317  -10.1925   20.3102 C   0  0  0  0  0  0  0  0  0114  0  0
  -21.6857   -6.0709   22.5391 C   0  0  0  0  0  0  0  0  0115  0  0
  -21.4064   -6.5490   23.8264 C   0  0  0  0  0  0  0  0  0116  0  0
  -21.3635   -5.6677   24.9085 C   0  0  0  0  0  0  0  0  0117  0  0
  -21.5973   -4.3067   24.7088 C   0  0  0  0  0  0  0  0  0118  0  0
  -21.8700   -3.8284   23.4282 C   0  0  0  0  0  0  0  0  0119  0  0
  -21.9144   -4.7056   22.3460 C   0  0  0  0  0  0  0  0  0120  0  0
  -22.8194  -13.5263   21.1763 C   0  0  0  0  0  0  0  0  0121  0  0
  -22.1559   -4.2206   21.1063 F   0  0  0  0  0  0  0  0  0122  0  0
  -21.5628   -3.4510   25.7555 F   0  0  0  0  0  0  0  0  0123  0  0
  -30.0261  -13.1803   20.4553 N   0  0  0  0  0  0  0  0  0124  0  0
  -26.2911  -12.9356   20.3443 N   0  0  0  0  0  0  0  0  0125  0  0
  -25.9236  -11.6675   20.5847 N   0  0  0  0  0  0  0  0  0126  0  0
  -22.0708  -12.7905   22.0005 N   0  0  0  0  0  0  0  0  0127  0  0
  -25.4117  -15.1773   20.4097 N   0  0  0  0  0  0  0  0  0128  0  0
  -31.7916  -14.6724   20.0536 O   0  0  0  0  0  0  0  0  0129  0  0
  -21.6670   -6.9022   21.4423 O   0  0  0  0  0  0  0  0  0130  0  0
  -22.3946  -14.5564   20.6568 O   0  0  0  0  0  0  0  0  0131  0  0
  -24.6048  -31.8614   23.2223 C   0  0  0  0  0  0  0  0  0100  0  0
  -25.8822  -32.4841   23.8616 C   0  0  1  0  0  0  0  0  0101  0  0
  -27.2536  -27.5042   20.1156 C   0  0  0  0  0  0  0  0  0102  0  0
  -25.5726  -33.8762   24.2210 N   0  0  0  0  0  0  0  0  0103  0  0
  -23.4066  -30.4859   21.5461 C   0  0  2  0  0  0  0  0  0104  0  0
  -24.8467  -28.9636   20.1247 C   0  0  0  0  0  0  0  0  0105  0  0
  -22.7412  -29.4652   22.5052 C   0  0  0  0  0  0  0  0  0106  0  0
  -18.0167  -28.1302   22.8626 C   0  0  0  0  0  0  0  0  0107  0  0
  -24.1342  -36.7390   23.2568 C   0  0  0  0  0  0  0  0  0108  0  0
  -25.9141  -30.8882   21.3456 C   0  0  0  0  0  0  0  0  0109  0  0
  -25.9930  -29.5029   20.7208 C   0  0  0  0  0  0  0  0  0110  0  0
  -27.1758  -28.7612   20.7331 C   0  0  0  0  0  0  0  0  0111  0  0
  -26.1032  -26.9836   19.5230 C   0  0  0  0  0  0  0  0  0112  0  0
  -24.9097  -27.7011   19.5331 C   0  0  0  0  0  0  0  0  0113  0  0
  -23.5715  -29.7899   20.1582 C   0  0  0  0  0  0  0  0  0114  0  0
  -25.3990  -36.3212   24.0232 C   0  0  1  0  0  0  0  0  0115  0  0
  -20.5793  -28.3813   23.1004 C   0  0  2  0  0  0  0  0  0116  0  0
  -20.6548  -26.9392   22.5411 C   0  0  0  0  0  0  0  0  0117  0  0
  -19.5615  -26.6407   21.5143 C   0  0  0  0  0  0  0  0  0118  0  0
  -18.1797  -26.7818   22.1673 C   0  0  0  0  0  0  0  0  0119  0  0
  -19.1385  -28.8769   23.2988 C   0  0  0  0  0  0  0  0  0120  0  0
  -18.9183  -30.1286   23.8878 C   0  0  0  0  0  0  0  0  0121  0  0
  -17.6396  -30.6493   24.0352 C   0  0  0  0  0  0  0  0  0122  0  0
  -25.9153  -34.9582   23.4993 C   0  0  0  0  0  0  0  0  0123  0  0
  -16.5415  -29.9068   23.6254 C   0  0  0  0  0  0  0  0  0124  0  0
  -16.7331  -28.6521   23.0586 C   0  0  0  0  0  0  0  0  0125  0  0
  -26.4583  -31.6439   25.0683 C   0  0  0  0  0  0  0  0  0126  0  0
  -25.3807  -31.3179   26.1374 C   0  0  0  0  0  0  0  0  0127  0  0
  -27.0530  -30.3024   24.5680 C   0  0  0  0  0  0  0  0  0128  0  0
  -27.6014  -32.4281   25.7651 C   0  0  0  0  0  0  0  0  0129  0  0
  -27.5629  -37.2220   24.8621 C   0  0  0  0  0  0  0  0  0130  0  0
  -21.4133  -29.3375   22.3735 N   0  0  0  0  0  0  0  0  0131  0  0
  -26.4706  -37.3372   23.9061 N   0  0  0  0  0  0  0  0  0132  0  0
  -24.6674  -31.0544   22.1178 N   0  0  0  0  0  0  0  0  0133  0  0
  -23.4259  -28.8150   23.2971 O   0  0  0  0  0  0  0  0  0134  0  0
  -28.3948  -26.7345   20.0089 O   0  0  0  0  0  0  0  0  0135  0  0
  -26.5870  -34.9065   22.4671 O   0  0  0  0  0  0  0  0  0136  0  0
  -23.5365  -32.1254   23.7833 O   0  0  0  0  0  0  0  0  0137  0  0
  -30.4387  -19.5320   19.3289 C   0  0  0  0  0  0  0  0  0  0  0  0
  -29.6235  -20.6631   19.2864 C   0  0  0  0  0  0  0  0  0  0  0  0
  -28.5989  -18.2392   20.2125 C   0  0  0  0  0  0  0  0  0  0  0  0
  -29.9264  -18.3200   19.7919 C   0  0  0  0  0  0  0  0  0  0  0  0
  -28.2960  -20.5822   19.7071 C   0  0  0  0  0  0  0  0  0  0  0  0
  -27.7837  -19.3702   20.1701 C   0  0  0  0  0  0  0  0  0  0  0  0
  -30.7950  -17.1157   19.8366 C   0  0  0  0  0  0  0  0  0  0  0  0
  -27.8544  -23.0111   19.2177 C   0  0  0  0  0  0  0  0  0  0  0  0
  -26.6854  -23.9727   19.3240 C   0  0  0  0  0  0  0  0  0  1  0  0
  -26.4420  -19.2647   20.6002 N   0  0  0  0  0  0  0  0  0  0  0  0
  -27.4876  -21.7424   19.6537 N   0  0  0  0  0  0  0  0  0  0  0  0
  -30.1333  -15.8918   19.7333 N   0  0  0  0  0  0  0  0  0  0  0  0
  -32.0118  -17.2587   19.9191 O   0  0  0  0  0  0  0  0  0  0  0  0
  -28.9476  -23.3729   18.7953 O   0  0  0  0  0  0  0  0  0  0  0  0
  -31.4485  -12.4701   19.0860 H   0  0  0  0  0  0  0  0  0  0  0  0
  -30.3970  -11.2460   19.6950 H   0  0  0  0  0  0  0  0  0  0  0  0
  -29.6870  -11.8204   17.4226 H   0  0  0  0  0  0  0  0  0  0  0  0
  -29.6375  -13.5326   17.8649 H   0  0  0  0  0  0  0  0  0  0  0  0
  -27.7830  -11.3650   18.7904 H   0  0  0  0  0  0  0  0  0  0  0  0
  -27.4028  -12.7801   17.8021 H   0  0  0  0  0  0  0  0  0  0  0  0
  -27.7353  -14.2503   19.6136 H   0  0  0  0  0  0  0  0  0  0  0  0
  -28.5890  -11.9550   21.3832 H   0  0  0  0  0  0  0  0  0  0  0  0
  -28.5005  -13.6134   21.8562 H   0  0  0  0  0  0  0  0  0  0  0  0
  -25.2399   -9.5495   22.4318 H   0  0  0  0  0  0  0  0  0  0  0  0
  -23.9663   -7.5070   22.7297 H   0  0  0  0  0  0  0  0  0  0  0  0
  -21.1515   -8.8641   19.9162 H   0  0  0  0  0  0  0  0  0  0  0  0
  -22.4016  -10.9115   19.6476 H   0  0  0  0  0  0  0  0  0  0  0  0
  -21.2319   -7.5552   23.9750 H   0  0  0  0  0  0  0  0  0  0  0  0
  -21.1589   -6.0228   25.8556 H   0  0  0  0  0  0  0  0  0  0  0  0
  -22.0396   -2.8212   23.2809 H   0  0  0  0  0  0  0  0  0  0  0  0
  -22.4401  -11.9703   22.4008 H   0  0  0  0  0  0  0  0  0  0  0  0
  -21.1493  -13.0679   22.2082 H   0  0  0  0  0  0  0  0  0  0  0  0
  -24.6538  -15.7807   20.5848 H   0  0  0  0  0  0  0  0  0  0  0  0
  -26.2762  -15.5453   20.1156 H   0  0  0  0  0  0  0  0  0  0  0  0
  -26.6778  -32.4663   23.1464 H   0  0  0  0  0  0  0  0  0  0  0  0
  -25.0747  -34.0282   25.0566 H   0  0  0  0  0  0  0  0  0  0  0  0
  -22.7881  -31.3489   21.4131 H   0  0  0  0  0  0  0  0  0  0  0  0
  -23.3854  -35.9823   23.3648 H   0  0  0  0  0  0  0  0  0  0  0  0
  -24.3696  -36.8624   22.2204 H   0  0  0  0  0  0  0  0  0  0  0  0
  -23.7669  -37.6632   23.6516 H   0  0  0  0  0  0  0  0  0  0  0  0
  -25.9445  -31.6237   20.5691 H   0  0  0  0  0  0  0  0  0  0  0  0
  -26.7436  -31.0079   22.0108 H   0  0  0  0  0  0  0  0  0  0  0  0
  -28.0090  -29.1452   21.2057 H   0  0  0  0  0  0  0  0  0  0  0  0
  -26.1369  -26.0560   19.0719 H   0  0  0  0  0  0  0  0  0  0  0  0
  -24.0652  -27.2961   19.0997 H   0  0  0  0  0  0  0  0  0  0  0  0
  -23.6156  -30.5365   19.3930 H   0  0  0  0  0  0  0  0  0  0  0  0
  -22.7355  -29.1425   19.9945 H   0  0  0  0  0  0  0  0  0  0  0  0
  -25.1353  -36.2335   25.0565 H   0  0  0  0  0  0  0  0  0  0  0  0
  -21.0070  -28.3206   24.0793 H   0  0  0  0  0  0  0  0  0  0  0  0
  -20.5555  -26.2518   23.3550 H   0  0  0  0  0  0  0  0  0  0  0  0
  -21.5974  -26.8362   22.0454 H   0  0  0  0  0  0  0  0  0  0  0  0
  -19.6810  -25.6422   21.1488 H   0  0  0  0  0  0  0  0  0  0  0  0
  -19.6406  -27.3343   20.7034 H   0  0  0  0  0  0  0  0  0  0  0  0
  -17.4282  -26.6888   21.4113 H   0  0  0  0  0  0  0  0  0  0  0  0
  -18.0803  -26.0130   22.9049 H   0  0  0  0  0  0  0  0  0  0  0  0
  -19.7265  -30.6774   24.2204 H   0  0  0  0  0  0  0  0  0  0  0  0
  -17.5064  -31.5856   24.4483 H   0  0  0  0  0  0  0  0  0  0  0  0
  -15.5878  -30.2839   23.7407 H   0  0  0  0  0  0  0  0  0  0  0  0
  -15.9120  -28.0941   22.7766 H   0  0  0  0  0  0  0  0  0  0  0  0
  -24.5787  -30.7757   25.6817 H   0  0  0  0  0  0  0  0  0  0  0  0
  -25.0041  -32.2289   26.5536 H   0  0  0  0  0  0  0  0  0  0  0  0
  -25.8166  -30.7245   26.9138 H   0  0  0  0  0  0  0  0  0  0  0  0
  -26.2892  -29.7335   24.0803 H   0  0  0  0  0  0  0  0  0  0  0  0
  -27.4336  -29.7484   25.4006 H   0  0  0  0  0  0  0  0  0  0  0  0
  -27.8466  -30.4994   23.8779 H   0  0  0  0  0  0  0  0  0  0  0  0
  -27.2251  -33.3632   26.1242 H   0  0  0  0  0  0  0  0  0  0  0  0
  -28.3902  -32.6065   25.0645 H   0  0  0  0  0  0  0  0  0  0  0  0
  -27.9772  -31.8555   26.5872 H   0  0  0  0  0  0  0  0  0  0  0  0
  -28.2744  -38.0016   24.6863 H   0  0  0  0  0  0  0  0  0  0  0  0
  -28.0396  -36.2711   24.7461 H   0  0  0  0  0  0  0  0  0  0  0  0
  -27.1773  -37.3087   25.8564 H   0  0  0  0  0  0  0  0  0  0  0  0
  -20.9627  -29.9365   21.7352 H   0  0  0  0  0  0  0  0  0  0  0  0
  -26.0447  -38.2561   24.0273 H   0  0  0  0  0  0  0  0  0  0  0  0
  -31.4209  -19.5919   19.0178 H   0  0  0  0  0  0  0  0  0  0  0  0
  -30.0025  -21.5597   18.9437 H   0  0  0  0  0  0  0  0  0  0  0  0
  -28.2199  -17.3425   20.5551 H   0  0  0  0  0  0  0  0  0  0  0  0
  -26.0142  -23.7068   20.1137 H   0  0  0  0  0  0  0  0  0  0  0  0
  -26.0426  -24.0217   18.4700 H   0  0  0  0  0  0  0  0  0  0  0  0
  -26.0954  -18.4021   20.9243 H   0  0  0  0  0  0  0  0  0  0  0  0
  -25.8538  -20.0538   20.5758 H   0  0  0  0  0  0  0  0  0  0  0  0
  -26.5579  -21.6396   19.9607 H   0  0  0  0  0  0  0  0  0  0  0  0
  -29.3284  -15.8207   19.1709 H   0  0  0  0  0  0  0  0  0  0  0  0
  1 25  1  0
  1 30  2  0
  1 82  1  0
  2  3  1  0
  2 25  1  0
  2 85  1  0
  2 86  1  0
  3  4  1  0
  3 87  1  0
  3 88  1  0
  4  5  1  0
  4 89  1  0
  4 90  1  0
  5  6  1  0
  5 26  1  0
  5 91  1  6
  6 25  1  0
  6 92  1  0
  6 93  1  0
  7  8  2  0
  7 26  1  0
  7 29  1  0
  8  9  1  0
  8 22  1  0
  9 10  1  0
  9 27  2  0
 10 11  2  0
 10 15  1  0
 11 12  1  0
 11 94  1  0
 12 13  2  0
 12 95  1  0
 13 14  1  0
 13 31  1  0
 14 15  2  0
 14 96  1  0
 15 97  1  0
 16 17  2  0
 16 21  1  0
 16 31  1  0
 17 18  1  0
 17 98  1  0
 18 19  2  0
 18 99  1  0
 19 20  1  0
 19 24  1  0
 20 21  2  0
 20100  1  0
 21 23  1  0
 22 28  1  0
 22 32  2  0
 26 27  1  0
 28101  1  0
 28102  1  0
 29103  1  0
 29104  1  0
 33 34  1  0
 33 66  1  0
 33 70  2  0
 34 36  1  0
 34 59  1  0
 34105  1  6
 35 44  2  0
 35 45  1  0
 35 68  1  0
 36 56  1  0
 36106  1  0
 37 39  1  0
 37 47  1  0
 37 66  1  0
 37107  1  6
 38 43  2  0
 38 46  1  0
 38 47  1  0
 39 64  1  0
 39 67  2  0
 40 52  1  0
 40 53  2  0
 40 58  1  0
 41108  1  0
 41109  1  0
 41110  1  0
 42 43  1  0
 42 66  1  0
 42111  1  0
 42112  1  0
 43 44  1  0
 44113  1  0
 45 46  2  0
 45114  1  0
 46115  1  0
 47116  1  0
 47117  1  0
 48 41  1  0
 48 56  1  0
 48 65  1  0
 48118  1  1
 49 50  1  0
 49 53  1  0
 49 64  1  0
 49119  1  1
 50 51  1  0
 50120  1  0
 50121  1  0
 51 52  1  0
 51122  1  0
 51123  1  0
 52124  1  0
 52125  1  0
 53 54  1  0
 54 55  2  0
 54126  1  0
 55 57  1  0
 55127  1  0
 56 69  2  0
 57 58  2  0
 57128  1  0
 58129  1  0
 59 60  1  0
 59 61  1  0
 59 62  1  0
 60130  1  0
 60131  1  0
 60132  1  0
 61133  1  0
 61134  1  0
 61135  1  0
 62136  1  0
 62137  1  0
 62138  1  0
 63 65  1  0
 63139  1  0
 63140  1  0
 63141  1  0
 64142  1  0
 65143  1  0
 68 79  1  0
 71 72  2  0
 71 74  1  0
 71144  1  0
 72 75  1  0
 72145  1  0
 73 74  2  0
 73 76  1  0
 73146  1  0
 74 77  1  0
 75 76  2  0
 75 81  1  0
 76 80  1  0
 77 82  1  0
 77 83  2  0
 78 79  1  0
 78 81  1  0
 78 84  2  0
 79147  1  0
 79148  1  0
 80149  1  0
 80150  1  0
 81151  1  0
 82152  1  0
M  ISO  4   1 100  68 101  79 101  82 100
M  END
$$$$
45
     RDKit          3D

153161  0  0  0  0  0  0  0  0999 V2000
  -30.7652  -14.3608   20.6636 C   0  0  0  0  0  0  0  0  0100  0  0
  -30.4392  -12.2669   19.3775 C   0  0  0  0  0  0  0  0  0101  0  0
  -29.4791  -12.5281   18.1977 C   0  0  0  0  0  0  0  0  0102  0  0
  -27.9985  -12.3963   18.6038 C   0  0  0  0  0  0  0  0  0103  0  0
  -27.6639  -13.2170   19.8820 C   0  0  2  0  0  0  0  0  0104  0  0
  -28.6795  -12.9602   21.0279 C   0  0  0  0  0  0  0  0  0105  0  0
  -25.2633  -13.8245   20.5754 C   0  0  0  0  0  0  0  0  0106  0  0
  -24.1645  -13.0409   20.9408 C   0  0  0  0  0  0  0  0  0107  0  0
  -24.6400  -11.7009   20.8697 C   0  0  0  0  0  0  0  0  0108  0  0
  -23.9005  -10.4085   21.0420 C   0  0  0  0  0  0  0  0  0109  0  0
  -24.3588   -9.4123   21.9123 C   0  0  0  0  0  0  0  0  0110  0  0
  -23.6296   -8.2350   22.0803 C   0  0  0  0  0  0  0  0  0111  0  0
  -22.4385   -8.0419   21.3657 C   0  0  0  0  0  0  0  0  0112  0  0
  -22.0103   -9.0167   20.4678 C   0  0  0  0  0  0  0  0  0113  0  0
  -22.7317  -10.1925   20.3102 C   0  0  0  0  0  0  0  0  0114  0  0
  -21.6857   -6.0709   22.5391 C   0  0  0  0  0  0  0  0  0115  0  0
  -21.4064   -6.5490   23.8264 C   0  0  0  0  0  0  0  0  0116  0  0
  -21.3635   -5.6677   24.9085 C   0  0  0  0  0  0  0  0  0117  0  0
  -21.5973   -4.3067   24.7088 C   0  0  0  0  0  0  0  0  0118  0  0
  -21.8700   -3.8284   23.4282 C   0  0  0  0  0  0  0  0  0119  0  0
  -21.9144   -4.7056   22.3460 C   0  0  0  0  0  0  0  0  0120  0  0
  -22.8194  -13.5263   21.1763 C   0  0  0  0  0  0  0  0  0121  0  0
  -22.1559   -4.2206   21.1063 F   0  0  0  0  0  0  0  0  0122  0  0
  -21.5628   -3.4510   25.7555 F   0  0  0  0  0  0  0  0  0123  0  0
  -30.0261  -13.1803   20.4553 N   0  0  0  0  0  0  0  0  0124  0  0
  -26.2911  -12.9356   20.3443 N   0  0  0  0  0  0  0  0  0125  0  0
  -25.9236  -11.6675   20.5847 N   0  0  0  0  0  0  0  0  0126  0  0
  -22.0708  -12.7905   22.0005 N   0  0  0  0  0  0  0  0  0127  0  0
  -25.4117  -15.1773   20.4097 N   0  0  0  0  0  0  0  0  0128  0  0
  -31.7916  -14.6724   20.0536 O   0  0  0  0  0  0  0  0  0129  0  0
  -21.6670   -6.9022   21.4423 O   0  0  0  0  0  0  0  0  0130  0  0
  -22.3946  -14.5564   20.6568 O   0  0  0  0  0  0  0  0  0131  0  0
  -24.6048  -31.8614   23.2223 C   0  0  0  0  0  0  0  0  0100  0  0
  -25.8822  -32.4841   23.8616 C   0  0  1  0  0  0  0  0  0101  0  0
  -27.2536  -27.5042   20.1156 C   0  0  0  0  0  0  0  0  0102  0  0
  -25.5726  -33.8762   24.2210 N   0  0  0  0  0  0  0  0  0103  0  0
  -23.4066  -30.4859   21.5461 C   0  0  2  0  0  0  0  0  0104  0  0
  -24.8467  -28.9636   20.1247 C   0  0  0  0  0  0  0  0  0105  0  0
  -22.7412  -29.4652   22.5052 C   0  0  0  0  0  0  0  0  0106  0  0
  -18.0167  -28.1302   22.8626 C   0  0  0  0  0  0  0  0  0107  0  0
  -24.1342  -36.7390   23.2568 C   0  0  0  0  0  0  0  0  0108  0  0
  -25.9141  -30.8882   21.3456 C   0  0  0  0  0  0  0  0  0109  0  0
  -25.9930  -29.5029   20.7208 C   0  0  0  0  0  0  0  0  0110  0  0
  -27.1758  -28.7612   20.7331 C   0  0  0  0  0  0  0  0  0111  0  0
  -26.1032  -26.9836   19.5230 C   0  0  0  0  0  0  0  0  0112  0  0
  -24.9097  -27.7011   19.5331 C   0  0  0  0  0  0  0  0  0113  0  0
  -23.5715  -29.7899   20.1582 C   0  0  0  0  0  0  0  0  0114  0  0
  -25.3990  -36.3212   24.0232 C   0  0  1  0  0  0  0  0  0115  0  0
  -20.5793  -28.3813   23.1004 C   0  0  2  0  0  0  0  0  0116  0  0
  -20.6548  -26.9392   22.5411 C   0  0  0  0  0  0  0  0  0117  0  0
  -19.5615  -26.6407   21.5143 C   0  0  0  0  0  0  0  0  0118  0  0
  -18.1797  -26.7818   22.1673 C   0  0  0  0  0  0  0  0  0119  0  0
  -19.1385  -28.8769   23.2988 C   0  0  0  0  0  0  0  0  0120  0  0
  -18.9183  -30.1286   23.8878 C   0  0  0  0  0  0  0  0  0121  0  0
  -17.6396  -30.6493   24.0352 C   0  0  0  0  0  0  0  0  0122  0  0
  -25.9153  -34.9582   23.4993 C   0  0  0  0  0  0  0  0  0123  0  0
  -16.5415  -29.9068   23.6254 C   0  0  0  0  0  0  0  0  0124  0  0
  -16.7331  -28.6521   23.0586 C   0  0  0  0  0  0  0  0  0125  0  0
  -26.4583  -31.6439   25.0683 C   0  0  0  0  0  0  0  0  0126  0  0
  -25.3807  -31.3179   26.1374 C   0  0  0  0  0  0  0  0  0127  0  0
  -27.0530  -30.3024   24.5680 C   0  0  0  0  0  0  0  0  0128  0  0
  -27.6014  -32.4281   25.7651 C   0  0  0  0  0  0  0  0  0129  0  0
  -27.5629  -37.2220   24.8621 C   0  0  0  0  0  0  0  0  0130  0  0
  -21.4133  -29.3375   22.3735 N   0  0  0  0  0  0  0  0  0131  0  0
  -26.4706  -37.3372   23.9061 N   0  0  0  0  0  0  0  0  0132  0  0
  -24.6674  -31.0544   22.1178 N   0  0  0  0  0  0  0  0  0133  0  0
  -23.4259  -28.8150   23.2971 O   0  0  0  0  0  0  0  0  0134  0  0
  -28.3948  -26.7345   20.0089 O   0  0  0  0  0  0  0  0  0135  0  0
  -26.5870  -34.9065   22.4671 O   0  0  0  0  0  0  0  0  0136  0  0
  -23.5365  -32.1254   23.7833 O   0  0  0  0  0  0  0  0  0137  0  0
  -29.5949  -24.6363   21.2313 C   0  0  0  0  0  0  0  0  0  0  0  0
  -28.8406  -23.5832   21.7486 C   0  0  0  0  0  0  0  0  0  0  0  0
  -28.5350  -22.7065   19.5180 C   0  0  0  0  0  0  0  0  0  0  0  0
  -29.8192  -24.7246   19.8574 C   0  0  0  0  0  0  0  0  0  0  0  0
  -28.3107  -22.6183   20.8919 C   0  0  0  0  0  0  0  0  0  0  0  0
  -29.2893  -23.7597   19.0008 C   0  0  0  0  0  0  0  0  0  0  0  0
  -30.6206  -25.8492   19.3110 C   0  0  0  0  0  0  0  0  0  0  0  0
  -31.2597  -28.2038   19.7022 C   0  0  0  0  0  0  0  0  0  0  0  0
  -30.9672  -29.3234   20.6893 C   0  0  0  0  0  0  0  0  0  0  0  0
  -29.4947  -29.7008   20.7388 C   0  0  0  0  0  0  0  0  0  1  0  0
  -27.5444  -21.5485   21.4175 N   0  0  0  0  0  0  0  0  0  0  0  0
  -30.5580  -27.0409   20.0311 N   0  0  0  0  0  0  0  0  0  0  0  0
  -31.2955  -25.6671   18.3013 O   0  0  0  0  0  0  0  0  0  0  0  0
  -32.0175  -28.3299   18.7445 O   0  0  0  0  0  0  0  0  0  0  0  0
  -29.4982  -23.8347   17.6785 F   0  0  0  0  0  0  0  0  0  0  0  0
  -31.4485  -12.4701   19.0860 H   0  0  0  0  0  0  0  0  0  0  0  0
  -30.3970  -11.2460   19.6950 H   0  0  0  0  0  0  0  0  0  0  0  0
  -29.6870  -11.8204   17.4226 H   0  0  0  0  0  0  0  0  0  0  0  0
  -29.6375  -13.5326   17.8649 H   0  0  0  0  0  0  0  0  0  0  0  0
  -27.7830  -11.3650   18.7904 H   0  0  0  0  0  0  0  0  0  0  0  0
  -27.4028  -12.7801   17.8021 H   0  0  0  0  0  0  0  0  0  0  0  0
  -27.7353  -14.2503   19.6136 H   0  0  0  0  0  0  0  0  0  0  0  0
  -28.5890  -11.9550   21.3832 H   0  0  0  0  0  0  0  0  0  0  0  0
  -28.5005  -13.6134   21.8562 H   0  0  0  0  0  0  0  0  0  0  0  0
  -25.2399   -9.5495   22.4318 H   0  0  0  0  0  0  0  0  0  0  0  0
  -23.9663   -7.5070   22.7297 H   0  0  0  0  0  0  0  0  0  0  0  0
  -21.1515   -8.8641   19.9162 H   0  0  0  0  0  0  0  0  0  0  0  0
  -22.4016  -10.9115   19.6476 H   0  0  0  0  0  0  0  0  0  0  0  0
  -21.2319   -7.5552   23.9750 H   0  0  0  0  0  0  0  0  0  0  0  0
  -21.1589   -6.0228   25.8556 H   0  0  0  0  0  0  0  0  0  0  0  0
  -22.0396   -2.8212   23.2809 H   0  0  0  0  0  0  0  0  0  0  0  0
  -22.4401  -11.9703   22.4008 H   0  0  0  0  0  0  0  0  0  0  0  0
  -21.1493  -13.0679   22.2082 H   0  0  0  0  0  0  0  0  0  0  0  0
  -24.6538  -15.7807   20.5848 H   0  0  0  0  0  0  0  0  0  0  0  0
  -26.2762  -15.5453   20.1156 H   0  0  0  0  0  0  0  0  0  0  0  0
  -26.6778  -32.4663   23.1464 H   0  0  0  0  0  0  0  0  0  0  0  0
  -25.0747  -34.0282   25.0566 H   0  0  0  0  0  0  0  0  0  0  0  0
  -22.7881  -31.3489   21.4131 H   0  0  0  0  0  0  0  0  0  0  0  0
  -23.3854  -35.9823   23.3648 H   0  0  0  0  0  0  0  0  0  0  0  0
  -24.3696  -36.8624   22.2204 H   0  0  0  0  0  0  0  0  0  0  0  0
  -23.7669  -37.6632   23.6516 H   0  0  0  0  0  0  0  0  0  0  0  0
  -25.9445  -31.6237   20.5691 H   0  0  0  0  0  0  0  0  0  0  0  0
  -26.7436  -31.0079   22.0108 H   0  0  0  0  0  0  0  0  0  0  0  0
  -28.0090  -29.1452   21.2057 H   0  0  0  0  0  0  0  0  0  0  0  0
  -26.1369  -26.0560   19.0719 H   0  0  0  0  0  0  0  0  0  0  0  0
  -24.0652  -27.2961   19.0997 H   0  0  0  0  0  0  0  0  0  0  0  0
  -23.6156  -30.5365   19.3930 H   0  0  0  0  0  0  0  0  0  0  0  0
  -22.7355  -29.1425   19.9945 H   0  0  0  0  0  0  0  0  0  0  0  0
  -25.1353  -36.2335   25.0565 H   0  0  0  0  0  0  0  0  0  0  0  0
  -21.0070  -28.3206   24.0793 H   0  0  0  0  0  0  0  0  0  0  0  0
  -20.5555  -26.2518   23.3550 H   0  0  0  0  0  0  0  0  0  0  0  0
  -21.5974  -26.8362   22.0454 H   0  0  0  0  0  0  0  0  0  0  0  0
  -19.6810  -25.6422   21.1488 H   0  0  0  0  0  0  0  0  0  0  0  0
  -19.6406  -27.3343   20.7034 H   0  0  0  0  0  0  0  0  0  0  0  0
  -17.4282  -26.6888   21.4113 H   0  0  0  0  0  0  0  0  0  0  0  0
  -18.0803  -26.0130   22.9049 H   0  0  0  0  0  0  0  0  0  0  0  0
  -19.7265  -30.6774   24.2204 H   0  0  0  0  0  0  0  0  0  0  0  0
  -17.5064  -31.5856   24.4483 H   0  0  0  0  0  0  0  0  0  0  0  0
  -15.5878  -30.2839   23.7407 H   0  0  0  0  0  0  0  0  0  0  0  0
  -15.9120  -28.0941   22.7766 H   0  0  0  0  0  0  0  0  0  0  0  0
  -24.5787  -30.7757   25.6817 H   0  0  0  0  0  0  0  0  0  0  0  0
  -25.0041  -32.2289   26.5536 H   0  0  0  0  0  0  0  0  0  0  0  0
  -25.8166  -30.7245   26.9138 H   0  0  0  0  0  0  0  0  0  0  0  0
  -26.2892  -29.7335   24.0803 H   0  0  0  0  0  0  0  0  0  0  0  0
  -27.4336  -29.7484   25.4006 H   0  0  0  0  0  0  0  0  0  0  0  0
  -27.8466  -30.4994   23.8779 H   0  0  0  0  0  0  0  0  0  0  0  0
  -27.2251  -33.3632   26.1242 H   0  0  0  0  0  0  0  0  0  0  0  0
  -28.3902  -32.6065   25.0645 H   0  0  0  0  0  0  0  0  0  0  0  0
  -27.9772  -31.8555   26.5872 H   0  0  0  0  0  0  0  0  0  0  0  0
  -28.2744  -38.0016   24.6863 H   0  0  0  0  0  0  0  0  0  0  0  0
  -28.0396  -36.2711   24.7461 H   0  0  0  0  0  0  0  0  0  0  0  0
  -27.1773  -37.3087   25.8564 H   0  0  0  0  0  0  0  0  0  0  0  0
  -20.9627  -29.9365   21.7352 H   0  0  0  0  0  0  0  0  0  0  0  0
  -26.0447  -38.2561   24.0273 H   0  0  0  0  0  0  0  0  0  0  0  0
  -29.9870  -25.3502   21.8651 H   0  0  0  0  0  0  0  0  0  0  0  0
  -28.6746  -23.5179   22.7651 H   0  0  0  0  0  0  0  0  0  0  0  0
  -28.1429  -21.9926   18.8842 H   0  0  0  0  0  0  0  0  0  0  0  0
  -31.5312  -30.1865   20.4032 H   0  0  0  0  0  0  0  0  0  0  0  0
  -31.2411  -28.9726   21.6623 H   0  0  0  0  0  0  0  0  0  0  0  0
  -29.2287  -30.4346   20.0069 H   0  0  0  0  0  0  0  0  0  0  0  0
  -29.1314  -30.1549   21.6370 H   0  0  0  0  0  0  0  0  0  0  0  0
  -26.6702  -21.6900   21.8475 H   0  0  0  0  0  0  0  0  0  0  0  0
  -29.9790  -27.0651   20.8270 H   0  0  0  0  0  0  0  0  0  0  0  0
  1 25  1  0
  1 30  2  0
  1 81  1  0
  2  3  1  0
  2 25  1  0
  2 86  1  0
  2 87  1  0
  3  4  1  0
  3 88  1  0
  3 89  1  0
  4  5  1  0
  4 90  1  0
  4 91  1  0
  5  6  1  0
  5 26  1  0
  5 92  1  6
  6 25  1  0
  6 93  1  0
  6 94  1  0
  7  8  2  0
  7 26  1  0
  7 29  1  0
  8  9  1  0
  8 22  1  0
  9 10  1  0
  9 27  2  0
 10 11  2  0
 10 15  1  0
 11 12  1  0
 11 95  1  0
 12 13  2  0
 12 96  1  0
 13 14  1  0
 13 31  1  0
 14 15  2  0
 14 97  1  0
 15 98  1  0
 16 17  2  0
 16 21  1  0
 16 31  1  0
 17 18  1  0
 17 99  1  0
 18 19  2  0
 18100  1  0
 19 20  1  0
 19 24  1  0
 20 21  2  0
 20101  1  0
 21 23  1  0
 22 28  1  0
 22 32  2  0
 26 27  1  0
 28102  1  0
 28103  1  0
 29104  1  0
 29105  1  0
 33 34  1  0
 33 66  1  0
 33 70  2  0
 34 36  1  0
 34 59  1  0
 34106  1  6
 35 44  2  0
 35 45  1  0
 35 68  1  0
 36 56  1  0
 36107  1  0
 37 39  1  0
 37 47  1  0
 37 66  1  0
 37108  1  6
 38 43  2  0
 38 46  1  0
 38 47  1  0
 39 64  1  0
 39 67  2  0
 40 52  1  0
 40 53  2  0
 40 58  1  0
 41109  1  0
 41110  1  0
 41111  1  0
 42 43  1  0
 42 66  1  0
 42112  1  0
 42113  1  0
 43 44  1  0
 44114  1  0
 45 46  2  0
 45115  1  0
 46116  1  0
 47117  1  0
 47118  1  0
 48 41  1  0
 48 56  1  0
 48 65  1  0
 48119  1  1
 49 50  1  0
 49 53  1  0
 49 64  1  0
 49120  1  1
 50 51  1  0
 50121  1  0
 50122  1  0
 51 52  1  0
 51123  1  0
 51124  1  0
 52125  1  0
 52126  1  0
 53 54  1  0
 54 55  2  0
 54127  1  0
 55 57  1  0
 55128  1  0
 56 69  2  0
 57 58  2  0
 57129  1  0
 58130  1  0
 59 60  1  0
 59 61  1  0
 59 62  1  0
 60131  1  0
 60132  1  0
 60133  1  0
 61134  1  0
 61135  1  0
 61136  1  0
 62137  1  0
 62138  1  0
 62139  1  0
 63 65  1  0
 63140  1  0
 63141  1  0
 63142  1  0
 64143  1  0
 65144  1  0
 68 80  1  0
 71 72  2  0
 71 74  1  0
 71145  1  0
 72 75  1  0
 72146  1  0
 73 75  2  0
 73 76  1  0
 73147  1  0
 74 76  2  0
 74 77  1  0
 75 81  1  0
 76 85  1  0
 77 82  1  0
 77 83  2  0
 78 79  1  0
 78 82  1  0
 78 84  2  0
 79 80  1  0
 79148  1  0
 79149  1  0
 80150  1  0
 80151  1  0
 81152  1  0
 82153  1  0
M  ISO  4   1 100  68 101  80 101  81 100
M  END
$$$$
46
     RDKit          3D

157165  0  0  0  0  0  0  0  0999 V2000
  -30.7652  -14.3608   20.6636 C   0  0  0  0  0  0  0  0  0100  0  0
  -30.4392  -12.2669   19.3775 C   0  0  0  0  0  0  0  0  0101  0  0
  -29.4791  -12.5281   18.1977 C   0  0  0  0  0  0  0  0  0102  0  0
  -27.9985  -12.3963   18.6038 C   0  0  0  0  0  0  0  0  0103  0  0
  -27.6639  -13.2170   19.8820 C   0  0  2  0  0  0  0  0  0104  0  0
  -28.6795  -12.9602   21.0279 C   0  0  0  0  0  0  0  0  0105  0  0
  -25.2633  -13.8245   20.5754 C   0  0  0  0  0  0  0  0  0106  0  0
  -24.1645  -13.0409   20.9408 C   0  0  0  0  0  0  0  0  0107  0  0
  -24.6400  -11.7009   20.8697 C   0  0  0  0  0  0  0  0  0108  0  0
  -23.9005  -10.4085   21.0420 C   0  0  0  0  0  0  0  0  0109  0  0
  -24.3588   -9.4123   21.9123 C   0  0  0  0  0  0  0  0  0110  0  0
  -23.6296   -8.2350   22.0803 C   0  0  0  0  0  0  0  0  0111  0  0
  -22.4385   -8.0419   21.3657 C   0  0  0  0  0  0  0  0  0112  0  0
  -22.0103   -9.0167   20.4678 C   0  0  0  0  0  0  0  0  0113  0  0
  -22.7317  -10.1925   20.3102 C   0  0  0  0  0  0  0  0  0114  0  0
  -21.6857   -6.0709   22.5391 C   0  0  0  0  0  0  0  0  0115  0  0
  -21.4064   -6.5490   23.8264 C   0  0  0  0  0  0  0  0  0116  0  0
  -21.3635   -5.6677   24.9085 C   0  0  0  0  0  0  0  0  0117  0  0
  -21.5973   -4.3067   24.7088 C   0  0  0  0  0  0  0  0  0118  0  0
  -21.8700   -3.8284   23.4282 C   0  0  0  0  0  0  0  0  0119  0  0
  -21.9144   -4.7056   22.3460 C   0  0  0  0  0  0  0  0  0120  0  0
  -22.8194  -13.5263   21.1763 C   0  0  0  0  0  0  0  0  0121  0  0
  -22.1559   -4.2206   21.1063 F   0  0  0  0  0  0  0  0  0122  0  0
  -21.5628   -3.4510   25.7555 F   0  0  0  0  0  0  0  0  0123  0  0
  -30.0261  -13.1803   20.4553 N   0  0  0  0  0  0  0  0  0124  0  0
  -26.2911  -12.9356   20.3443 N   0  0  0  0  0  0  0  0  0125  0  0
  -25.9236  -11.6675   20.5847 N   0  0  0  0  0  0  0  0  0126  0  0
  -22.0708  -12.7905   22.0005 N   0  0  0  0  0  0  0  0  0127  0  0
  -25.4117  -15.1773   20.4097 N   0  0  0  0  0  0  0  0  0128  0  0
  -31.7916  -14.6724   20.0536 O   0  0  0  0  0  0  0  0  0129  0  0
  -21.6670   -6.9022   21.4423 O   0  0  0  0  0  0  0  0  0130  0  0
  -22.3946  -14.5564   20.6568 O   0  0  0  0  0  0  0  0  0131  0  0
  -24.6048  -31.8614   23.2223 C   0  0  0  0  0  0  0  0  0100  0  0
  -25.8822  -32.4841   23.8616 C   0  0  1  0  0  0  0  0  0101  0  0
  -27.2536  -27.5042   20.1156 C   0  0  0  0  0  0  0  0  0102  0  0
  -25.5726  -33.8762   24.2210 N   0  0  0  0  0  0  0  0  0103  0  0
  -23.4066  -30.4859   21.5461 C   0  0  2  0  0  0  0  0  0104  0  0
  -24.8467  -28.9636   20.1247 C   0  0  0  0  0  0  0  0  0105  0  0
  -22.7412  -29.4652   22.5052 C   0  0  0  0  0  0  0  0  0106  0  0
  -18.0167  -28.1302   22.8626 C   0  0  0  0  0  0  0  0  0107  0  0
  -24.1342  -36.7390   23.2568 C   0  0  0  0  0  0  0  0  0108  0  0
  -25.9141  -30.8882   21.3456 C   0  0  0  0  0  0  0  0  0109  0  0
  -25.9930  -29.5029   20.7208 C   0  0  0  0  0  0  0  0  0110  0  0
  -27.1758  -28.7612   20.7331 C   0  0  0  0  0  0  0  0  0111  0  0
  -26.1032  -26.9836   19.5230 C   0  0  0  0  0  0  0  0  0112  0  0
  -24.9097  -27.7011   19.5331 C   0  0  0  0  0  0  0  0  0113  0  0
  -23.5715  -29.7899   20.1582 C   0  0  0  0  0  0  0  0  0114  0  0
  -25.3990  -36.3212   24.0232 C   0  0  1  0  0  0  0  0  0115  0  0
  -20.5793  -28.3813   23.1004 C   0  0  2  0  0  0  0  0  0116  0  0
  -20.6548  -26.9392   22.5411 C   0  0  0  0  0  0  0  0  0117  0  0
  -19.5615  -26.6407   21.5143 C   0  0  0  0  0  0  0  0  0118  0  0
  -18.1797  -26.7818   22.1673 C   0  0  0  0  0  0  0  0  0119  0  0
  -19.1385  -28.8769   23.2988 C   0  0  0  0  0  0  0  0  0120  0  0
  -18.9183  -30.1286   23.8878 C   0  0  0  0  0  0  0  0  0121  0  0
  -17.6396  -30.6493   24.0352 C   0  0  0  0  0  0  0  0  0122  0  0
  -25.9153  -34.9582   23.4993 C   0  0  0  0  0  0  0  0  0123  0  0
  -16.5415  -29.9068   23.6254 C   0  0  0  0  0  0  0  0  0124  0  0
  -16.7331  -28.6521   23.0586 C   0  0  0  0  0  0  0  0  0125  0  0
  -26.4583  -31.6439   25.0683 C   0  0  0  0  0  0  0  0  0126  0  0
  -25.3807  -31.3179   26.1374 C   0  0  0  0  0  0  0  0  0127  0  0
  -27.0530  -30.3024   24.5680 C   0  0  0  0  0  0  0  0  0128  0  0
  -27.6014  -32.4281   25.7651 C   0  0  0  0  0  0  0  0  0129  0  0
  -27.5629  -37.2220   24.8621 C   0  0  0  0  0  0  0  0  0130  0  0
  -21.4133  -29.3375   22.3735 N   0  0  0  0  0  0  0  0  0131  0  0
  -26.4706  -37.3372   23.9061 N   0  0  0  0  0  0  0  0  0132  0  0
  -24.6674  -31.0544   22.1178 N   0  0  0  0  0  0  0  0  0133  0  0
  -23.4259  -28.8150   23.2971 O   0  0  0  0  0  0  0  0  0134  0  0
  -28.3948  -26.7345   20.0089 O   0  0  0  0  0  0  0  0  0135  0  0
  -26.5870  -34.9065   22.4671 O   0  0  0  0  0  0  0  0  0136  0  0
  -23.5365  -32.1254   23.7833 O   0  0  0  0  0  0  0  0  0137  0  0
  -32.3169  -16.7588   19.8204 C   0  0  0  0  0  0  0  0  0  0  0  0
  -32.1496  -15.4967   19.2506 C   0  0  0  0  0  0  0  0  0  0  0  0
  -30.2737  -15.0837   20.7161 C   0  0  0  0  0  0  0  0  0  0  0  0
  -31.4627  -17.1834   20.8381 C   0  0  0  0  0  0  0  0  0  0  0  0
  -31.1280  -14.6592   19.6984 C   0  0  0  0  0  0  0  0  0  0  0  0
  -30.4411  -16.3458   21.2859 C   0  0  0  0  0  0  0  0  0  0  0  0
  -31.7157  -12.7978   18.1070 C   0  0  0  0  0  0  0  0  0  0  0  0
  -31.6438  -18.5346   21.4434 C   0  0  0  0  0  0  0  0  0  0  0  0
  -31.1957  -11.4038   17.7842 C   0  0  0  0  0  0  0  0  0  0  0  0
  -30.7398  -11.2678   16.3356 C   0  0  0  0  0  0  0  0  0  0  0  0
  -29.5839  -12.2058   16.0195 C   0  0  0  0  0  0  0  0  0  1  0  0
  -30.9594  -13.3779   19.1216 N   0  0  0  0  0  0  0  0  0  0  0  0
  -31.1673  -19.5920   20.5799 N   0  0  0  0  0  0  0  0  0  0  0  0
  -32.6736  -13.2879   17.5185 O   0  0  0  0  0  0  0  0  0  0  0  0
  -29.6152  -16.7450   22.2632 F   0  0  0  0  0  0  0  0  0  0  0  0
  -31.4485  -12.4701   19.0860 H   0  0  0  0  0  0  0  0  0  0  0  0
  -30.3970  -11.2460   19.6950 H   0  0  0  0  0  0  0  0  0  0  0  0
  -29.6870  -11.8204   17.4226 H   0  0  0  0  0  0  0  0  0  0  0  0
  -29.6375  -13.5326   17.8649 H   0  0  0  0  0  0  0  0  0  0  0  0
  -27.7830  -11.3650   18.7904 H   0  0  0  0  0  0  0  0  0  0  0  0
  -27.4028  -12.7801   17.8021 H   0  0  0  0  0  0  0  0  0  0  0  0
  -27.7353  -14.2503   19.6136 H   0  0  0  0  0  0  0  0  0  0  0  0
  -28.5890  -11.9550   21.3832 H   0  0  0  0  0  0  0  0  0  0  0  0
  -28.5005  -13.6134   21.8562 H   0  0  0  0  0  0  0  0  0  0  0  0
  -25.2399   -9.5495   22.4318 H   0  0  0  0  0  0  0  0  0  0  0  0
  -23.9663   -7.5070   22.7297 H   0  0  0  0  0  0  0  0  0  0  0  0
  -21.1515   -8.8641   19.9162 H   0  0  0  0  0  0  0  0  0  0  0  0
  -22.4016  -10.9115   19.6476 H   0  0  0  0  0  0  0  0  0  0  0  0
  -21.2319   -7.5552   23.9750 H   0  0  0  0  0  0  0  0  0  0  0  0
  -21.1589   -6.0228   25.8556 H   0  0  0  0  0  0  0  0  0  0  0  0
  -22.0396   -2.8212   23.2809 H   0  0  0  0  0  0  0  0  0  0  0  0
  -22.4401  -11.9703   22.4008 H   0  0  0  0  0  0  0  0  0  0  0  0
  -21.1493  -13.0679   22.2082 H   0  0  0  0  0  0  0  0  0  0  0  0
  -24.6538  -15.7807   20.5848 H   0  0  0  0  0  0  0  0  0  0  0  0
  -26.2762  -15.5453   20.1156 H   0  0  0  0  0  0  0  0  0  0  0  0
  -26.6778  -32.4663   23.1464 H   0  0  0  0  0  0  0  0  0  0  0  0
  -25.0747  -34.0282   25.0566 H   0  0  0  0  0  0  0  0  0  0  0  0
  -22.7881  -31.3489   21.4131 H   0  0  0  0  0  0  0  0  0  0  0  0
  -23.3854  -35.9823   23.3648 H   0  0  0  0  0  0  0  0  0  0  0  0
  -24.3696  -36.8624   22.2204 H   0  0  0  0  0  0  0  0  0  0  0  0
  -23.7669  -37.6632   23.6516 H   0  0  0  0  0  0  0  0  0  0  0  0
  -25.9445  -31.6237   20.5691 H   0  0  0  0  0  0  0  0  0  0  0  0
  -26.7436  -31.0079   22.0108 H   0  0  0  0  0  0  0  0  0  0  0  0
  -28.0090  -29.1452   21.2057 H   0  0  0  0  0  0  0  0  0  0  0  0
  -26.1369  -26.0560   19.0719 H   0  0  0  0  0  0  0  0  0  0  0  0
  -24.0652  -27.2961   19.0997 H   0  0  0  0  0  0  0  0  0  0  0  0
  -23.6156  -30.5365   19.3930 H   0  0  0  0  0  0  0  0  0  0  0  0
  -22.7355  -29.1425   19.9945 H   0  0  0  0  0  0  0  0  0  0  0  0
  -25.1353  -36.2335   25.0565 H   0  0  0  0  0  0  0  0  0  0  0  0
  -21.0070  -28.3206   24.0793 H   0  0  0  0  0  0  0  0  0  0  0  0
  -20.5555  -26.2518   23.3550 H   0  0  0  0  0  0  0  0  0  0  0  0
  -21.5974  -26.8362   22.0454 H   0  0  0  0  0  0  0  0  0  0  0  0
  -19.6810  -25.6422   21.1488 H   0  0  0  0  0  0  0  0  0  0  0  0
  -19.6406  -27.3343   20.7034 H   0  0  0  0  0  0  0  0  0  0  0  0
  -17.4282  -26.6888   21.4113 H   0  0  0  0  0  0  0  0  0  0  0  0
  -18.0803  -26.0130   22.9049 H   0  0  0  0  0  0  0  0  0  0  0  0
  -19.7265  -30.6774   24.2204 H   0  0  0  0  0  0  0  0  0  0  0  0
  -17.5064  -31.5856   24.4483 H   0  0  0  0  0  0  0  0  0  0  0  0
  -15.5878  -30.2839   23.7407 H   0  0  0  0  0  0  0  0  0  0  0  0
  -15.9120  -28.0941   22.7766 H   0  0  0  0  0  0  0  0  0  0  0  0
  -24.5787  -30.7757   25.6817 H   0  0  0  0  0  0  0  0  0  0  0  0
  -25.0041  -32.2289   26.5536 H   0  0  0  0  0  0  0  0  0  0  0  0
  -25.8166  -30.7245   26.9138 H   0  0  0  0  0  0  0  0  0  0  0  0
  -26.2892  -29.7335   24.0803 H   0  0  0  0  0  0  0  0  0  0  0  0
  -27.4336  -29.7484   25.4006 H   0  0  0  0  0  0  0  0  0  0  0  0
  -27.8466  -30.4994   23.8779 H   0  0  0  0  0  0  0  0  0  0  0  0
  -27.2251  -33.3632   26.1242 H   0  0  0  0  0  0  0  0  0  0  0  0
  -28.3902  -32.6065   25.0645 H   0  0  0  0  0  0  0  0  0  0  0  0
  -27.9772  -31.8555   26.5872 H   0  0  0  0  0  0  0  0  0  0  0  0
  -28.2744  -38.0016   24.6863 H   0  0  0  0  0  0  0  0  0  0  0  0
  -28.0396  -36.2711   24.7461 H   0  0  0  0  0  0  0  0  0  0  0  0
  -27.1773  -37.3087   25.8564 H   0  0  0  0  0  0  0  0  0  0  0  0
  -20.9627  -29.9365   21.7352 H   0  0  0  0  0  0  0  0  0  0  0  0
  -26.0447  -38.2561   24.0273 H   0  0  0  0  0  0  0  0  0  0  0  0
  -33.0727  -17.3785   19.4890 H   0  0  0  0  0  0  0  0  0  0  0  0
  -32.7817  -15.1825   18.4977 H   0  0  0  0  0  0  0  0  0  0  0  0
  -29.5179  -14.4640   21.0474 H   0  0  0  0  0  0  0  0  0  0  0  0
  -32.6853  -18.6893   21.6340 H   0  0  0  0  0  0  0  0  0  0  0  0
  -31.0716  -18.5675   22.3469 H   0  0  0  0  0  0  0  0  0  0  0  0
  -30.3663  -11.1906   18.4257 H   0  0  0  0  0  0  0  0  0  0  0  0
  -32.0003  -10.7150   17.9363 H   0  0  0  0  0  0  0  0  0  0  0  0
  -30.4252  -10.2596   16.1642 H   0  0  0  0  0  0  0  0  0  0  0  0
  -31.5620  -11.5257   15.7013 H   0  0  0  0  0  0  0  0  0  0  0  0
  -28.7203  -11.7321   16.4374 H   0  0  0  0  0  0  0  0  0  0  0  0
  -29.7379  -12.3251   14.9674 H   0  0  0  0  0  0  0  0  0  0  0  0
  -30.2214  -12.8335   19.4795 H   0  0  0  0  0  0  0  0  0  0  0  0
  -31.0328  -20.5111   20.2538 H   0  0  0  0  0  0  0  0  0  0  0  0
  1 25  1  0
  1 30  2  0
  1 83  1  0
  2  3  1  0
  2 25  1  0
  2 86  1  0
  2 87  1  0
  3  4  1  0
  3 88  1  0
  3 89  1  0
  4  5  1  0
  4 90  1  0
  4 91  1  0
  5  6  1  0
  5 26  1  0
  5 92  1  6
  6 25  1  0
  6 93  1  0
  6 94  1  0
  7  8  2  0
  7 26  1  0
  7 29  1  0
  8  9  1  0
  8 22  1  0
  9 10  1  0
  9 27  2  0
 10 11  2  0
 10 15  1  0
 11 12  1  0
 11 95  1  0
 12 13  2  0
 12 96  1  0
 13 14  1  0
 13 31  1  0
 14 15  2  0
 14 97  1  0
 15 98  1  0
 16 17  2  0
 16 21  1  0
 16 31  1  0
 17 18  1  0
 17 99  1  0
 18 19  2  0
 18100  1  0
 19 20  1  0
 19 24  1  0
 20 21  2  0
 20101  1  0
 21 23  1  0
 22 28  1  0
 22 32  2  0
 26 27  1  0
 28102  1  0
 28103  1  0
 29104  1  0
 29105  1  0
 33 34  1  0
 33 66  1  0
 33 70  2  0
 34 36  1  0
 34 59  1  0
 34106  1  6
 35 44  2  0
 35 45  1  0
 35 68  1  0
 36 56  1  0
 36107  1  0
 37 39  1  0
 37 47  1  0
 37 66  1  0
 37108  1  6
 38 43  2  0
 38 46  1  0
 38 47  1  0
 39 64  1  0
 39 67  2  0
 40 52  1  0
 40 53  2  0
 40 58  1  0
 41109  1  0
 41110  1  0
 41111  1  0
 42 43  1  0
 42 66  1  0
 42112  1  0
 42113  1  0
 43 44  1  0
 44114  1  0
 45 46  2  0
 45115  1  0
 46116  1  0
 47117  1  0
 47118  1  0
 48 41  1  0
 48 56  1  0
 48 65  1  0
 48119  1  1
 49 50  1  0
 49 53  1  0
 49 64  1  0
 49120  1  1
 50 51  1  0
 50121  1  0
 50122  1  0
 51 52  1  0
 51123  1  0
 51124  1  0
 52125  1  0
 52126  1  0
 53 54  1  0
 54 55  2  0
 54127  1  0
 55 57  1  0
 55128  1  0
 56 69  2  0
 57 58  2  0
 57129  1  0
 58130  1  0
 59 60  1  0
 59 61  1  0
 59 62  1  0
 60131  1  0
 60132  1  0
 60133  1  0
 61134  1  0
 61135  1  0
 61136  1  0
 62137  1  0
 62138  1  0
 62139  1  0
 63 65  1  0
 63140  1  0
 63141  1  0
 63142  1  0
 64143  1  0
 65144  1  0
 68 81  1  0
 71 72  2  0
 71 74  1  0
 71145  1  0
 72 75  1  0
 72146  1  0
 73 75  2  0
 73 76  1  0
 73147  1  0
 74 76  2  0
 74 78  1  0
 75 82  1  0
 76 85  1  0
 77 79  1  0
 77 82  1  0
 77 84  2  0
 78 83  1  0
 78148  1  0
 78149  1  0
 79 80  1  0
 79150  1  0
 79151  1  0
 80 81  1  0
 80152  1  0
 80153  1  0
 81154  1  0
 81155  1  0
 82156  1  0
 83157  1  0
M  ISO  4   1 100  68 101  81 101  83 100
M  END
$$$$
47
     RDKit          3D

168177  0  0  0  0  0  0  0  0999 V2000
  -30.7652  -14.3608   20.6636 C   0  0  0  0  0  0  0  0  0100  0  0
  -30.4392  -12.2669   19.3775 C   0  0  0  0  0  0  0  0  0101  0  0
  -29.4791  -12.5281   18.1977 C   0  0  0  0  0  0  0  0  0102  0  0
  -27.9985  -12.3963   18.6038 C   0  0  0  0  0  0  0  0  0103  0  0
  -27.6639  -13.2170   19.8820 C   0  0  2  0  0  0  0  0  0104  0  0
  -28.6795  -12.9602   21.0279 C   0  0  0  0  0  0  0  0  0105  0  0
  -25.2633  -13.8245   20.5754 C   0  0  0  0  0  0  0  0  0106  0  0
  -24.1645  -13.0409   20.9408 C   0  0  0  0  0  0  0  0  0107  0  0
  -24.6400  -11.7009   20.8697 C   0  0  0  0  0  0  0  0  0108  0  0
  -23.9005  -10.4085   21.0420 C   0  0  0  0  0  0  0  0  0109  0  0
  -24.3588   -9.4123   21.9123 C   0  0  0  0  0  0  0  0  0110  0  0
  -23.6296   -8.2350   22.0803 C   0  0  0  0  0  0  0  0  0111  0  0
  -22.4385   -8.0419   21.3657 C   0  0  0  0  0  0  0  0  0112  0  0
  -22.0103   -9.0167   20.4678 C   0  0  0  0  0  0  0  0  0113  0  0
  -22.7317  -10.1925   20.3102 C   0  0  0  0  0  0  0  0  0114  0  0
  -21.6857   -6.0709   22.5391 C   0  0  0  0  0  0  0  0  0115  0  0
  -21.4064   -6.5490   23.8264 C   0  0  0  0  0  0  0  0  0116  0  0
  -21.3635   -5.6677   24.9085 C   0  0  0  0  0  0  0  0  0117  0  0
  -21.5973   -4.3067   24.7088 C   0  0  0  0  0  0  0  0  0118  0  0
  -21.8700   -3.8284   23.4282 C   0  0  0  0  0  0  0  0  0119  0  0
  -21.9144   -4.7056   22.3460 C   0  0  0  0  0  0  0  0  0120  0  0
  -22.8194  -13.5263   21.1763 C   0  0  0  0  0  0  0  0  0121  0  0
  -22.1559   -4.2206   21.1063 F   0  0  0  0  0  0  0  0  0122  0  0
  -21.5628   -3.4510   25.7555 F   0  0  0  0  0  0  0  0  0123  0  0
  -30.0261  -13.1803   20.4553 N   0  0  0  0  0  0  0  0  0124  0  0
  -26.2911  -12.9356   20.3443 N   0  0  0  0  0  0  0  0  0125  0  0
  -25.9236  -11.6675   20.5847 N   0  0  0  0  0  0  0  0  0126  0  0
  -22.0708  -12.7905   22.0005 N   0  0  0  0  0  0  0  0  0127  0  0
  -25.4117  -15.1773   20.4097 N   0  0  0  0  0  0  0  0  0128  0  0
  -31.7916  -14.6724   20.0536 O   0  0  0  0  0  0  0  0  0129  0  0
  -21.6670   -6.9022   21.4423 O   0  0  0  0  0  0  0  0  0130  0  0
  -22.3946  -14.5564   20.6568 O   0  0  0  0  0  0  0  0  0131  0  0
  -24.6048  -31.8614   23.2223 C   0  0  0  0  0  0  0  0  0100  0  0
  -25.8822  -32.4841   23.8616 C   0  0  1  0  0  0  0  0  0101  0  0
  -27.2536  -27.5042   20.1156 C   0  0  0  0  0  0  0  0  0102  0  0
  -25.5726  -33.8762   24.2210 N   0  0  0  0  0  0  0  0  0103  0  0
  -23.4066  -30.4859   21.5461 C   0  0  2  0  0  0  0  0  0104  0  0
  -24.8467  -28.9636   20.1247 C   0  0  0  0  0  0  0  0  0105  0  0
  -22.7412  -29.4652   22.5052 C   0  0  0  0  0  0  0  0  0106  0  0
  -18.0167  -28.1302   22.8626 C   0  0  0  0  0  0  0  0  0107  0  0
  -24.1342  -36.7390   23.2568 C   0  0  0  0  0  0  0  0  0108  0  0
  -25.9141  -30.8882   21.3456 C   0  0  0  0  0  0  0  0  0109  0  0
  -25.9930  -29.5029   20.7208 C   0  0  0  0  0  0  0  0  0110  0  0
  -27.1758  -28.7612   20.7331 C   0  0  0  0  0  0  0  0  0111  0  0
  -26.1032  -26.9836   19.5230 C   0  0  0  0  0  0  0  0  0112  0  0
  -24.9097  -27.7011   19.5331 C   0  0  0  0  0  0  0  0  0113  0  0
  -23.5715  -29.7899   20.1582 C   0  0  0  0  0  0  0  0  0114  0  0
  -25.3990  -36.3212   24.0232 C   0  0  1  0  0  0  0  0  0115  0  0
  -20.5793  -28.3813   23.1004 C   0  0  2  0  0  0  0  0  0116  0  0
  -20.6548  -26.9392   22.5411 C   0  0  0  0  0  0  0  0  0117  0  0
  -19.5615  -26.6407   21.5143 C   0  0  0  0  0  0  0  0  0118  0  0
  -18.1797  -26.7818   22.1673 C   0  0  0  0  0  0  0  0  0119  0  0
  -19.1385  -28.8769   23.2988 C   0  0  0  0  0  0  0  0  0120  0  0
  -18.9183  -30.1286   23.8878 C   0  0  0  0  0  0  0  0  0121  0  0
  -17.6396  -30.6493   24.0352 C   0  0  0  0  0  0  0  0  0122  0  0
  -25.9153  -34.9582   23.4993 C   0  0  0  0  0  0  0  0  0123  0  0
  -16.5415  -29.9068   23.6254 C   0  0  0  0  0  0  0  0  0124  0  0
  -16.7331  -28.6521   23.0586 C   0  0  0  0  0  0  0  0  0125  0  0
  -26.4583  -31.6439   25.0683 C   0  0  0  0  0  0  0  0  0126  0  0
  -25.3807  -31.3179   26.1374 C   0  0  0  0  0  0  0  0  0127  0  0
  -27.0530  -30.3024   24.5680 C   0  0  0  0  0  0  0  0  0128  0  0
  -27.6014  -32.4281   25.7651 C   0  0  0  0  0  0  0  0  0129  0  0
  -27.5629  -37.2220   24.8621 C   0  0  0  0  0  0  0  0  0130  0  0
  -21.4133  -29.3375   22.3735 N   0  0  0  0  0  0  0  0  0131  0  0
  -26.4706  -37.3372   23.9061 N   0  0  0  0  0  0  0  0  0132  0  0
  -24.6674  -31.0544   22.1178 N   0  0  0  0  0  0  0  0  0133  0  0
  -23.4259  -28.8150   23.2971 O   0  0  0  0  0  0  0  0  0134  0  0
  -28.3948  -26.7345   20.0089 O   0  0  0  0  0  0  0  0  0135  0  0
  -26.5870  -34.9065   22.4671 O   0  0  0  0  0  0  0  0  0136  0  0
  -23.5365  -32.1254   23.7833 O   0  0  0  0  0  0  0  0  0137  0  0
  -25.3317  -19.8220   18.1126 C   0  0  0  0  0  0  0  0  0  0  0  0
  -24.9121  -20.2326   20.4562 C   0  0  0  0  0  0  0  0  0  0  0  0
  -25.6927  -21.1585   17.9430 C   0  0  0  0  0  0  0  0  0  0  0  0
  -25.2731  -21.5692   20.2866 C   0  0  0  0  0  0  0  0  0  0  0  0
  -24.9413  -19.3590   19.3692 C   0  0  0  0  0  0  0  0  0  0  0  0
  -25.6635  -22.0322   19.0300 C   0  0  0  0  0  0  0  0  0  0  0  0
  -21.5614  -17.5803   19.1694 C   0  0  0  0  0  0  0  0  0  0  0  0
  -22.5025  -17.7020   17.9772 C   0  0  0  0  0  0  0  0  0  0  0  0
  -22.1445  -18.2336   20.4163 C   0  0  0  0  0  0  0  0  0  0  0  0
  -23.9127  -17.2013   18.3083 C   0  0  0  0  0  0  0  0  0  0  0  0
  -23.5376  -17.6843   20.7295 C   0  0  0  0  0  0  0  0  0  0  0  0
  -24.5421  -17.8836   19.5573 C   0  0  0  0  0  0  0  0  0  0  0  0
  -26.6455  -16.8766   18.7523 C   0  0  0  0  0  0  0  0  0  0  0  0
  -26.4419  -23.9222   17.5992 C   0  0  0  0  0  0  0  0  0  0  0  0
  -26.7478  -25.4023   17.7568 C   0  0  0  0  0  0  0  0  0  1  0  0
  -26.0237  -23.3590   18.8625 N   0  0  0  0  0  0  0  0  0  0  0  0
  -25.7649  -17.1513   19.8788 N   0  0  0  0  0  0  0  0  0  0  0  0
  -31.4485  -12.4701   19.0860 H   0  0  0  0  0  0  0  0  0  0  0  0
  -30.3970  -11.2460   19.6950 H   0  0  0  0  0  0  0  0  0  0  0  0
  -29.6870  -11.8204   17.4226 H   0  0  0  0  0  0  0  0  0  0  0  0
  -29.6375  -13.5326   17.8649 H   0  0  0  0  0  0  0  0  0  0  0  0
  -27.7830  -11.3650   18.7904 H   0  0  0  0  0  0  0  0  0  0  0  0
  -27.4028  -12.7801   17.8021 H   0  0  0  0  0  0  0  0  0  0  0  0
  -27.7353  -14.2503   19.6136 H   0  0  0  0  0  0  0  0  0  0  0  0
  -28.5890  -11.9550   21.3832 H   0  0  0  0  0  0  0  0  0  0  0  0
  -28.5005  -13.6134   21.8562 H   0  0  0  0  0  0  0  0  0  0  0  0
  -25.2399   -9.5495   22.4318 H   0  0  0  0  0  0  0  0  0  0  0  0
  -23.9663   -7.5070   22.7297 H   0  0  0  0  0  0  0  0  0  0  0  0
  -21.1515   -8.8641   19.9162 H   0  0  0  0  0  0  0  0  0  0  0  0
  -22.4016  -10.9115   19.6476 H   0  0  0  0  0  0  0  0  0  0  0  0
  -21.2319   -7.5552   23.9750 H   0  0  0  0  0  0  0  0  0  0  0  0
  -21.1589   -6.0228   25.8556 H   0  0  0  0  0  0  0  0  0  0  0  0
  -22.0396   -2.8212   23.2809 H   0  0  0  0  0  0  0  0  0  0  0  0
  -22.4401  -11.9703   22.4008 H   0  0  0  0  0  0  0  0  0  0  0  0
  -21.1493  -13.0679   22.2082 H   0  0  0  0  0  0  0  0  0  0  0  0
  -24.6538  -15.7807   20.5848 H   0  0  0  0  0  0  0  0  0  0  0  0
  -26.2762  -15.5453   20.1156 H   0  0  0  0  0  0  0  0  0  0  0  0
  -26.6778  -32.4663   23.1464 H   0  0  0  0  0  0  0  0  0  0  0  0
  -25.0747  -34.0282   25.0566 H   0  0  0  0  0  0  0  0  0  0  0  0
  -22.7881  -31.3489   21.4131 H   0  0  0  0  0  0  0  0  0  0  0  0
  -23.3854  -35.9823   23.3648 H   0  0  0  0  0  0  0  0  0  0  0  0
  -24.3696  -36.8624   22.2204 H   0  0  0  0  0  0  0  0  0  0  0  0
  -23.7669  -37.6632   23.6516 H   0  0  0  0  0  0  0  0  0  0  0  0
  -25.9445  -31.6237   20.5691 H   0  0  0  0  0  0  0  0  0  0  0  0
  -26.7436  -31.0079   22.0108 H   0  0  0  0  0  0  0  0  0  0  0  0
  -28.0090  -29.1452   21.2057 H   0  0  0  0  0  0  0  0  0  0  0  0
  -26.1369  -26.0560   19.0719 H   0  0  0  0  0  0  0  0  0  0  0  0
  -24.0652  -27.2961   19.0997 H   0  0  0  0  0  0  0  0  0  0  0  0
  -23.6156  -30.5365   19.3930 H   0  0  0  0  0  0  0  0  0  0  0  0
  -22.7355  -29.1425   19.9945 H   0  0  0  0  0  0  0  0  0  0  0  0
  -25.1353  -36.2335   25.0565 H   0  0  0  0  0  0  0  0  0  0  0  0
  -21.0070  -28.3206   24.0793 H   0  0  0  0  0  0  0  0  0  0  0  0
  -20.5555  -26.2518   23.3550 H   0  0  0  0  0  0  0  0  0  0  0  0
  -21.5974  -26.8362   22.0454 H   0  0  0  0  0  0  0  0  0  0  0  0
  -19.6810  -25.6422   21.1488 H   0  0  0  0  0  0  0  0  0  0  0  0
  -19.6406  -27.3343   20.7034 H   0  0  0  0  0  0  0  0  0  0  0  0
  -17.4282  -26.6888   21.4113 H   0  0  0  0  0  0  0  0  0  0  0  0
  -18.0803  -26.0130   22.9049 H   0  0  0  0  0  0  0  0  0  0  0  0
  -19.7265  -30.6774   24.2204 H   0  0  0  0  0  0  0  0  0  0  0  0
  -17.5064  -31.5856   24.4483 H   0  0  0  0  0  0  0  0  0  0  0  0
  -15.5878  -30.2839   23.7407 H   0  0  0  0  0  0  0  0  0  0  0  0
  -15.9120  -28.0941   22.7766 H   0  0  0  0  0  0  0  0  0  0  0  0
  -24.5787  -30.7757   25.6817 H   0  0  0  0  0  0  0  0  0  0  0  0
  -25.0041  -32.2289   26.5536 H   0  0  0  0  0  0  0  0  0  0  0  0
  -25.8166  -30.7245   26.9138 H   0  0  0  0  0  0  0  0  0  0  0  0
  -26.2892  -29.7335   24.0803 H   0  0  0  0  0  0  0  0  0  0  0  0
  -27.4336  -29.7484   25.4006 H   0  0  0  0  0  0  0  0  0  0  0  0
  -27.8466  -30.4994   23.8779 H   0  0  0  0  0  0  0  0  0  0  0  0
  -27.2251  -33.3632   26.1242 H   0  0  0  0  0  0  0  0  0  0  0  0
  -28.3902  -32.6065   25.0645 H   0  0  0  0  0  0  0  0  0  0  0  0
  -27.9772  -31.8555   26.5872 H   0  0  0  0  0  0  0  0  0  0  0  0
  -28.2744  -38.0016   24.6863 H   0  0  0  0  0  0  0  0  0  0  0  0
  -28.0396  -36.2711   24.7461 H   0  0  0  0  0  0  0  0  0  0  0  0
  -27.1773  -37.3087   25.8564 H   0  0  0  0  0  0  0  0  0  0  0  0
  -20.9627  -29.9365   21.7352 H   0  0  0  0  0  0  0  0  0  0  0  0
  -26.0447  -38.2561   24.0273 H   0  0  0  0  0  0  0  0  0  0  0  0
  -25.3534  -19.1756   17.3084 H   0  0  0  0  0  0  0  0  0  0  0  0
  -24.6234  -19.8900   21.3859 H   0  0  0  0  0  0  0  0  0  0  0  0
  -25.9814  -21.5010   17.0133 H   0  0  0  0  0  0  0  0  0  0  0  0
  -25.2514  -22.2156   21.0908 H   0  0  0  0  0  0  0  0  0  0  0  0
  -21.3879  -16.5437   19.3699 H   0  0  0  0  0  0  0  0  0  0  0  0
  -20.6480  -18.0818   18.9261 H   0  0  0  0  0  0  0  0  0  0  0  0
  -22.5601  -18.7299   17.6855 H   0  0  0  0  0  0  0  0  0  0  0  0
  -22.1136  -17.0972   17.1848 H   0  0  0  0  0  0  0  0  0  0  0  0
  -21.4981  -18.0395   21.2466 H   0  0  0  0  0  0  0  0  0  0  0  0
  -22.2272  -19.2857   20.2400 H   0  0  0  0  0  0  0  0  0  0  0  0
  -24.5447  -17.3903   17.4658 H   0  0  0  0  0  0  0  0  0  0  0  0
  -23.8297  -16.1580   18.5307 H   0  0  0  0  0  0  0  0  0  0  0  0
  -23.4542  -16.6373   20.9340 H   0  0  0  0  0  0  0  0  0  0  0  0
  -23.9149  -18.2246   21.5725 H   0  0  0  0  0  0  0  0  0  0  0  0
  -26.2082  -17.2626   17.8553 H   0  0  0  0  0  0  0  0  0  0  0  0
  -26.7825  -15.8198   18.6561 H   0  0  0  0  0  0  0  0  0  0  0  0
  -27.5930  -17.3455   18.9176 H   0  0  0  0  0  0  0  0  0  0  0  0
  -27.3205  -23.4144   17.2600 H   0  0  0  0  0  0  0  0  0  0  0  0
  -25.6521  -23.8040   16.8871 H   0  0  0  0  0  0  0  0  0  0  0  0
  -25.7905  -25.8786   17.7970 H   0  0  0  0  0  0  0  0  0  0  0  0
  -27.4367  -25.5221   16.9469 H   0  0  0  0  0  0  0  0  0  0  0  0
  -25.9931  -23.9516   19.6481 H   0  0  0  0  0  0  0  0  0  0  0  0
  1 25  1  0
  1 30  2  0
  1 87  1  0
  2  3  1  0
  2 25  1  0
  2 88  1  0
  2 89  1  0
  3  4  1  0
  3 90  1  0
  3 91  1  0
  4  5  1  0
  4 92  1  0
  4 93  1  0
  5  6  1  0
  5 26  1  0
  5 94  1  6
  6 25  1  0
  6 95  1  0
  6 96  1  0
  7  8  2  0
  7 26  1  0
  7 29  1  0
  8  9  1  0
  8 22  1  0
  9 10  1  0
  9 27  2  0
 10 11  2  0
 10 15  1  0
 11 12  1  0
 11 97  1  0
 12 13  2  0
 12 98  1  0
 13 14  1  0
 13 31  1  0
 14 15  2  0
 14 99  1  0
 15100  1  0
 16 17  2  0
 16 21  1  0
 16 31  1  0
 17 18  1  0
 17101  1  0
 18 19  2  0
 18102  1  0
 19 20  1  0
 19 24  1  0
 20 21  2  0
 20103  1  0
 21 23  1  0
 22 28  1  0
 22 32  2  0
 26 27  1  0
 28104  1  0
 28105  1  0
 29106  1  0
 29107  1  0
 33 34  1  0
 33 66  1  0
 33 70  2  0
 34 36  1  0
 34 59  1  0
 34108  1  6
 35 44  2  0
 35 45  1  0
 35 68  1  0
 36 56  1  0
 36109  1  0
 37 39  1  0
 37 47  1  0
 37 66  1  0
 37110  1  6
 38 43  2  0
 38 46  1  0
 38 47  1  0
 39 64  1  0
 39 67  2  0
 40 52  1  0
 40 53  2  0
 40 58  1  0
 41111  1  0
 41112  1  0
 41113  1  0
 42 43  1  0
 42 66  1  0
 42114  1  0
 42115  1  0
 43 44  1  0
 44116  1  0
 45 46  2  0
 45117  1  0
 46118  1  0
 47119  1  0
 47120  1  0
 48 41  1  0
 48 56  1  0
 48 65  1  0
 48121  1  1
 49 50  1  0
 49 53  1  0
 49 64  1  0
 49122  1  1
 50 51  1  0
 50123  1  0
 50124  1  0
 51 52  1  0
 51125  1  0
 51126  1  0
 52127  1  0
 52128  1  0
 53 54  1  0
 54 55  2  0
 54129  1  0
 55 57  1  0
 55130  1  0
 56 69  2  0
 57 58  2  0
 57131  1  0
 58132  1  0
 59 60  1  0
 59 61  1  0
 59 62  1  0
 60133  1  0
 60134  1  0
 60135  1  0
 61136  1  0
 61137  1  0
 61138  1  0
 62139  1  0
 62140  1  0
 62141  1  0
 63 65  1  0
 63142  1  0
 63143  1  0
 63144  1  0
 64145  1  0
 65146  1  0
 68 85  1  0
 71 73  2  0
 71 75  1  0
 71147  1  0
 72 74  1  0
 72 75  2  0
 72148  1  0
 73 76  1  0
 73149  1  0
 74 76  2  0
 74150  1  0
 75 82  1  0
 76 86  1  0
 77 78  1  0
 77 79  1  0
 77151  1  0
 77152  1  0
 78 80  1  0
 78153  1  0
 78154  1  0
 79 81  1  0
 79155  1  0
 79156  1  0
 80 82  1  0
 80157  1  0
 80158  1  0
 81 82  1  0
 81159  1  0
 81160  1  0
 82 87  1  0
 83 87  1  0
 83161  1  0
 83162  1  0
 83163  1  0
 84 85  1  0
 84 86  1  0
 84164  1  0
 84165  1  0
 85166  1  0
 85167  1  0
 86168  1  0
M  ISO  4   1 100  68 101  85 101  87 100
M  END
$$$$
48
     RDKit          3D

162171  0  0  0  0  0  0  0  0999 V2000
  -30.7652  -14.3608   20.6636 C   0  0  0  0  0  0  0  0  0100  0  0
  -30.4392  -12.2669   19.3775 C   0  0  0  0  0  0  0  0  0101  0  0
  -29.4791  -12.5281   18.1977 C   0  0  0  0  0  0  0  0  0102  0  0
  -27.9985  -12.3963   18.6038 C   0  0  0  0  0  0  0  0  0103  0  0
  -27.6639  -13.2170   19.8820 C   0  0  2  0  0  0  0  0  0104  0  0
  -28.6795  -12.9602   21.0279 C   0  0  0  0  0  0  0  0  0105  0  0
  -25.2633  -13.8245   20.5754 C   0  0  0  0  0  0  0  0  0106  0  0
  -24.1645  -13.0409   20.9408 C   0  0  0  0  0  0  0  0  0107  0  0
  -24.6400  -11.7009   20.8697 C   0  0  0  0  0  0  0  0  0108  0  0
  -23.9005  -10.4085   21.0420 C   0  0  0  0  0  0  0  0  0109  0  0
  -24.3588   -9.4123   21.9123 C   0  0  0  0  0  0  0  0  0110  0  0
  -23.6296   -8.2350   22.0803 C   0  0  0  0  0  0  0  0  0111  0  0
  -22.4385   -8.0419   21.3657 C   0  0  0  0  0  0  0  0  0112  0  0
  -22.0103   -9.0167   20.4678 C   0  0  0  0  0  0  0  0  0113  0  0
  -22.7317  -10.1925   20.3102 C   0  0  0  0  0  0  0  0  0114  0  0
  -21.6857   -6.0709   22.5391 C   0  0  0  0  0  0  0  0  0115  0  0
  -21.4064   -6.5490   23.8264 C   0  0  0  0  0  0  0  0  0116  0  0
  -21.3635   -5.6677   24.9085 C   0  0  0  0  0  0  0  0  0117  0  0
  -21.5973   -4.3067   24.7088 C   0  0  0  0  0  0  0  0  0118  0  0
  -21.8700   -3.8284   23.4282 C   0  0  0  0  0  0  0  0  0119  0  0
  -21.9144   -4.7056   22.3460 C   0  0  0  0  0  0  0  0  0120  0  0
  -22.8194  -13.5263   21.1763 C   0  0  0  0  0  0  0  0  0121  0  0
  -22.1559   -4.2206   21.1063 F   0  0  0  0  0  0  0  0  0122  0  0
  -21.5628   -3.4510   25.7555 F   0  0  0  0  0  0  0  0  0123  0  0
  -30.0261  -13.1803   20.4553 N   0  0  0  0  0  0  0  0  0124  0  0
  -26.2911  -12.9356   20.3443 N   0  0  0  0  0  0  0  0  0125  0  0
  -25.9236  -11.6675   20.5847 N   0  0  0  0  0  0  0  0  0126  0  0
  -22.0708  -12.7905   22.0005 N   0  0  0  0  0  0  0  0  0127  0  0
  -25.4117  -15.1773   20.4097 N   0  0  0  0  0  0  0  0  0128  0  0
  -31.7916  -14.6724   20.0536 O   0  0  0  0  0  0  0  0  0129  0  0
  -21.6670   -6.9022   21.4423 O   0  0  0  0  0  0  0  0  0130  0  0
  -22.3946  -14.5564   20.6568 O   0  0  0  0  0  0  0  0  0131  0  0
  -24.6048  -31.8614   23.2223 C   0  0  0  0  0  0  0  0  0100  0  0
  -25.8822  -32.4841   23.8616 C   0  0  1  0  0  0  0  0  0101  0  0
  -27.2536  -27.5042   20.1156 C   0  0  0  0  0  0  0  0  0102  0  0
  -25.5726  -33.8762   24.2210 N   0  0  0  0  0  0  0  0  0103  0  0
  -23.4066  -30.4859   21.5461 C   0  0  2  0  0  0  0  0  0104  0  0
  -24.8467  -28.9636   20.1247 C   0  0  0  0  0  0  0  0  0105  0  0
  -22.7412  -29.4652   22.5052 C   0  0  0  0  0  0  0  0  0106  0  0
  -18.0167  -28.1302   22.8626 C   0  0  0  0  0  0  0  0  0107  0  0
  -24.1342  -36.7390   23.2568 C   0  0  0  0  0  0  0  0  0108  0  0
  -25.9141  -30.8882   21.3456 C   0  0  0  0  0  0  0  0  0109  0  0
  -25.9930  -29.5029   20.7208 C   0  0  0  0  0  0  0  0  0110  0  0
  -27.1758  -28.7612   20.7331 C   0  0  0  0  0  0  0  0  0111  0  0
  -26.1032  -26.9836   19.5230 C   0  0  0  0  0  0  0  0  0112  0  0
  -24.9097  -27.7011   19.5331 C   0  0  0  0  0  0  0  0  0113  0  0
  -23.5715  -29.7899   20.1582 C   0  0  0  0  0  0  0  0  0114  0  0
  -25.3990  -36.3212   24.0232 C   0  0  1  0  0  0  0  0  0115  0  0
  -20.5793  -28.3813   23.1004 C   0  0  2  0  0  0  0  0  0116  0  0
  -20.6548  -26.9392   22.5411 C   0  0  0  0  0  0  0  0  0117  0  0
  -19.5615  -26.6407   21.5143 C   0  0  0  0  0  0  0  0  0118  0  0
  -18.1797  -26.7818   22.1673 C   0  0  0  0  0  0  0  0  0119  0  0
  -19.1385  -28.8769   23.2988 C   0  0  0  0  0  0  0  0  0120  0  0
  -18.9183  -30.1286   23.8878 C   0  0  0  0  0  0  0  0  0121  0  0
  -17.6396  -30.6493   24.0352 C   0  0  0  0  0  0  0  0  0122  0  0
  -25.9153  -34.9582   23.4993 C   0  0  0  0  0  0  0  0  0123  0  0
  -16.5415  -29.9068   23.6254 C   0  0  0  0  0  0  0  0  0124  0  0
  -16.7331  -28.6521   23.0586 C   0  0  0  0  0  0  0  0  0125  0  0
  -26.4583  -31.6439   25.0683 C   0  0  0  0  0  0  0  0  0126  0  0
  -25.3807  -31.3179   26.1374 C   0  0  0  0  0  0  0  0  0127  0  0
  -27.0530  -30.3024   24.5680 C   0  0  0  0  0  0  0  0  0128  0  0
  -27.6014  -32.4281   25.7651 C   0  0  0  0  0  0  0  0  0129  0  0
  -27.5629  -37.2220   24.8621 C   0  0  0  0  0  0  0  0  0130  0  0
  -21.4133  -29.3375   22.3735 N   0  0  0  0  0  0  0  0  0131  0  0
  -26.4706  -37.3372   23.9061 N   0  0  0  0  0  0  0  0  0132  0  0
  -24.6674  -31.0544   22.1178 N   0  0  0  0  0  0  0  0  0133  0  0
  -23.4259  -28.8150   23.2971 O   0  0  0  0  0  0  0  0  0134  0  0
  -28.3948  -26.7345   20.0089 O   0  0  0  0  0  0  0  0  0135  0  0
  -26.5870  -34.9065   22.4671 O   0  0  0  0  0  0  0  0  0136  0  0
  -23.5365  -32.1254   23.7833 O   0  0  0  0  0  0  0  0  0137  0  0
  -28.2037  -18.5054   21.2031 C   0  0  0  0  0  0  0  0  0  0  0  0
  -25.9309  -18.0740   20.5063 C   0  0  0  0  0  0  0  0  0  0  0  0
  -27.8112  -19.7407   21.7185 C   0  0  0  0  0  0  0  0  0  0  0  0
  -26.4785  -20.1426   21.6279 C   0  0  0  0  0  0  0  0  0  0  0  0
  -27.2635  -17.6721   20.5969 C   0  0  0  0  0  0  0  0  0  0  0  0
  -25.5384  -19.3092   21.0218 C   0  0  0  0  0  0  0  0  0  0  0  0
  -28.8200  -20.5870   22.3442 C   0  0  0  0  0  0  0  0  0  0  0  0
  -25.0551  -22.9846   23.4951 C   0  0  0  0  0  0  0  0  0  0  0  0
  -25.6332  -21.5711   23.5079 C   0  0  0  0  0  0  0  0  0  0  0  0
  -26.0825  -22.6066   21.3671 C   0  0  0  0  0  0  0  0  0  0  0  0
  -25.8892  -23.6927   22.4314 C   0  0  1  0  0  0  0  0  0  0  0  0
  -25.2300  -24.9502   21.8925 C   0  0  0  0  0  0  0  0  0  1  0  0
  -26.0916  -21.3643   22.1365 N   0  0  0  0  0  0  0  0  0  0  0  0
  -24.1831  -19.6962   20.9171 N   0  0  0  0  0  0  0  0  0  0  0  0
  -29.4978  -21.4889   21.5319 N   0  0  0  0  0  0  0  0  0  0  0  0
  -27.6626  -16.4175   20.0730 N   0  0  0  0  0  0  0  0  0  0  0  0
  -29.0776  -20.4950   23.5554 O   0  0  0  0  0  0  0  0  0  0  0  0
  -31.4485  -12.4701   19.0860 H   0  0  0  0  0  0  0  0  0  0  0  0
  -30.3970  -11.2460   19.6950 H   0  0  0  0  0  0  0  0  0  0  0  0
  -29.6870  -11.8204   17.4226 H   0  0  0  0  0  0  0  0  0  0  0  0
  -29.6375  -13.5326   17.8649 H   0  0  0  0  0  0  0  0  0  0  0  0
  -27.7830  -11.3650   18.7904 H   0  0  0  0  0  0  0  0  0  0  0  0
  -27.4028  -12.7801   17.8021 H   0  0  0  0  0  0  0  0  0  0  0  0
  -27.7353  -14.2503   19.6136 H   0  0  0  0  0  0  0  0  0  0  0  0
  -28.5890  -11.9550   21.3832 H   0  0  0  0  0  0  0  0  0  0  0  0
  -28.5005  -13.6134   21.8562 H   0  0  0  0  0  0  0  0  0  0  0  0
  -25.2399   -9.5495   22.4318 H   0  0  0  0  0  0  0  0  0  0  0  0
  -23.9663   -7.5070   22.7297 H   0  0  0  0  0  0  0  0  0  0  0  0
  -21.1515   -8.8641   19.9162 H   0  0  0  0  0  0  0  0  0  0  0  0
  -22.4016  -10.9115   19.6476 H   0  0  0  0  0  0  0  0  0  0  0  0
  -21.2319   -7.5552   23.9750 H   0  0  0  0  0  0  0  0  0  0  0  0
  -21.1589   -6.0228   25.8556 H   0  0  0  0  0  0  0  0  0  0  0  0
  -22.0396   -2.8212   23.2809 H   0  0  0  0  0  0  0  0  0  0  0  0
  -22.4401  -11.9703   22.4008 H   0  0  0  0  0  0  0  0  0  0  0  0
  -21.1493  -13.0679   22.2082 H   0  0  0  0  0  0  0  0  0  0  0  0
  -24.6538  -15.7807   20.5848 H   0  0  0  0  0  0  0  0  0  0  0  0
  -26.2762  -15.5453   20.1156 H   0  0  0  0  0  0  0  0  0  0  0  0
  -26.6778  -32.4663   23.1464 H   0  0  0  0  0  0  0  0  0  0  0  0
  -25.0747  -34.0282   25.0566 H   0  0  0  0  0  0  0  0  0  0  0  0
  -22.7881  -31.3489   21.4131 H   0  0  0  0  0  0  0  0  0  0  0  0
  -23.3854  -35.9823   23.3648 H   0  0  0  0  0  0  0  0  0  0  0  0
  -24.3696  -36.8624   22.2204 H   0  0  0  0  0  0  0  0  0  0  0  0
  -23.7669  -37.6632   23.6516 H   0  0  0  0  0  0  0  0  0  0  0  0
  -25.9445  -31.6237   20.5691 H   0  0  0  0  0  0  0  0  0  0  0  0
  -26.7436  -31.0079   22.0108 H   0  0  0  0  0  0  0  0  0  0  0  0
  -28.0090  -29.1452   21.2057 H   0  0  0  0  0  0  0  0  0  0  0  0
  -26.1369  -26.0560   19.0719 H   0  0  0  0  0  0  0  0  0  0  0  0
  -24.0652  -27.2961   19.0997 H   0  0  0  0  0  0  0  0  0  0  0  0
  -23.6156  -30.5365   19.3930 H   0  0  0  0  0  0  0  0  0  0  0  0
  -22.7355  -29.1425   19.9945 H   0  0  0  0  0  0  0  0  0  0  0  0
  -25.1353  -36.2335   25.0565 H   0  0  0  0  0  0  0  0  0  0  0  0
  -21.0070  -28.3206   24.0793 H   0  0  0  0  0  0  0  0  0  0  0  0
  -20.5555  -26.2518   23.3550 H   0  0  0  0  0  0  0  0  0  0  0  0
  -21.5974  -26.8362   22.0454 H   0  0  0  0  0  0  0  0  0  0  0  0
  -19.6810  -25.6422   21.1488 H   0  0  0  0  0  0  0  0  0  0  0  0
  -19.6406  -27.3343   20.7034 H   0  0  0  0  0  0  0  0  0  0  0  0
  -17.4282  -26.6888   21.4113 H   0  0  0  0  0  0  0  0  0  0  0  0
  -18.0803  -26.0130   22.9049 H   0  0  0  0  0  0  0  0  0  0  0  0
  -19.7265  -30.6774   24.2204 H   0  0  0  0  0  0  0  0  0  0  0  0
  -17.5064  -31.5856   24.4483 H   0  0  0  0  0  0  0  0  0  0  0  0
  -15.5878  -30.2839   23.7407 H   0  0  0  0  0  0  0  0  0  0  0  0
  -15.9120  -28.0941   22.7766 H   0  0  0  0  0  0  0  0  0  0  0  0
  -24.5787  -30.7757   25.6817 H   0  0  0  0  0  0  0  0  0  0  0  0
  -25.0041  -32.2289   26.5536 H   0  0  0  0  0  0  0  0  0  0  0  0
  -25.8166  -30.7245   26.9138 H   0  0  0  0  0  0  0  0  0  0  0  0
  -26.2892  -29.7335   24.0803 H   0  0  0  0  0  0  0  0  0  0  0  0
  -27.4336  -29.7484   25.4006 H   0  0  0  0  0  0  0  0  0  0  0  0
  -27.8466  -30.4994   23.8779 H   0  0  0  0  0  0  0  0  0  0  0  0
  -27.2251  -33.3632   26.1242 H   0  0  0  0  0  0  0  0  0  0  0  0
  -28.3902  -32.6065   25.0645 H   0  0  0  0  0  0  0  0  0  0  0  0
  -27.9772  -31.8555   26.5872 H   0  0  0  0  0  0  0  0  0  0  0  0
  -28.2744  -38.0016   24.6863 H   0  0  0  0  0  0  0  0  0  0  0  0
  -28.0396  -36.2711   24.7461 H   0  0  0  0  0  0  0  0  0  0  0  0
  -27.1773  -37.3087   25.8564 H   0  0  0  0  0  0  0  0  0  0  0  0
  -20.9627  -29.9365   21.7352 H   0  0  0  0  0  0  0  0  0  0  0  0
  -26.0447  -38.2561   24.0273 H   0  0  0  0  0  0  0  0  0  0  0  0
  -29.1896  -18.2080   21.2703 H   0  0  0  0  0  0  0  0  0  0  0  0
  -25.2353  -17.4575   20.0579 H   0  0  0  0  0  0  0  0  0  0  0  0
  -25.1705  -23.4550   24.4492 H   0  0  0  0  0  0  0  0  0  0  0  0
  -24.0054  -23.0068   23.2888 H   0  0  0  0  0  0  0  0  0  0  0  0
  -24.8822  -20.8554   23.7699 H   0  0  0  0  0  0  0  0  0  0  0  0
  -26.4173  -21.4534   24.2264 H   0  0  0  0  0  0  0  0  0  0  0  0
  -27.0089  -22.7410   20.8488 H   0  0  0  0  0  0  0  0  0  0  0  0
  -25.3212  -22.6229   20.6154 H   0  0  0  0  0  0  0  0  0  0  0  0
  -26.8162  -24.0664   22.8134 H   0  0  0  0  0  0  0  0  0  0  0  0
  -24.8459  -25.5622   22.6817 H   0  0  0  0  0  0  0  0  0  0  0  0
  -24.3841  -24.7708   21.2623 H   0  0  0  0  0  0  0  0  0  0  0  0
  -23.5318  -19.0966   20.4864 H   0  0  0  0  0  0  0  0  0  0  0  0
  -23.8903  -20.5654   21.2749 H   0  0  0  0  0  0  0  0  0  0  0  0
  -29.2802  -21.5481   20.5736 H   0  0  0  0  0  0  0  0  0  0  0  0
  -30.1954  -22.0684   21.9150 H   0  0  0  0  0  0  0  0  0  0  0  0
  -27.0188  -16.0136   19.4472 H   0  0  0  0  0  0  0  0  0  0  0  0
  1 25  1  0
  1 30  2  0
  1 86  1  0
  2  3  1  0
  2 25  1  0
  2 88  1  0
  2 89  1  0
  3  4  1  0
  3 90  1  0
  3 91  1  0
  4  5  1  0
  4 92  1  0
  4 93  1  0
  5  6  1  0
  5 26  1  0
  5 94  1  6
  6 25  1  0
  6 95  1  0
  6 96  1  0
  7  8  2  0
  7 26  1  0
  7 29  1  0
  8  9  1  0
  8 22  1  0
  9 10  1  0
  9 27  2  0
 10 11  2  0
 10 15  1  0
 11 12  1  0
 11 97  1  0
 12 13  2  0
 12 98  1  0
 13 14  1  0
 13 31  1  0
 14 15  2  0
 14 99  1  0
 15100  1  0
 16 17  2  0
 16 21  1  0
 16 31  1  0
 17 18  1  0
 17101  1  0
 18 19  2  0
 18102  1  0
 19 20  1  0
 19 24  1  0
 20 21  2  0
 20103  1  0
 21 23  1  0
 22 28  1  0
 22 32  2  0
 26 27  1  0
 28104  1  0
 28105  1  0
 29106  1  0
 29107  1  0
 33 34  1  0
 33 66  1  0
 33 70  2  0
 34 36  1  0
 34 59  1  0
 34108  1  6
 35 44  2  0
 35 45  1  0
 35 68  1  0
 36 56  1  0
 36109  1  0
 37 39  1  0
 37 47  1  0
 37 66  1  0
 37110  1  6
 38 43  2  0
 38 46  1  0
 38 47  1  0
 39 64  1  0
 39 67  2  0
 40 52  1  0
 40 53  2  0
 40 58  1  0
 41111  1  0
 41112  1  0
 41113  1  0
 42 43  1  0
 42 66  1  0
 42114  1  0
 42115  1  0
 43 44  1  0
 44116  1  0
 45 46  2  0
 45117  1  0
 46118  1  0
 47119  1  0
 47120  1  0
 48 41  1  0
 48 56  1  0
 48 65  1  0
 48121  1  1
 49 50  1  0
 49 53  1  0
 49 64  1  0
 49122  1  1
 50 51  1  0
 50123  1  0
 50124  1  0
 51 52  1  0
 51125  1  0
 51126  1  0
 52127  1  0
 52128  1  0
 53 54  1  0
 54 55  2  0
 54129  1  0
 55 57  1  0
 55130  1  0
 56 69  2  0
 57 58  2  0
 57131  1  0
 58132  1  0
 59 60  1  0
 59 61  1  0
 59 62  1  0
 60133  1  0
 60134  1  0
 60135  1  0
 61136  1  0
 61137  1  0
 61138  1  0
 62139  1  0
 62140  1  0
 62141  1  0
 63 65  1  0
 63142  1  0
 63143  1  0
 63144  1  0
 64145  1  0
 65146  1  0
 68 82  1  0
 71 73  2  0
 71 75  1  0
 71147  1  0
 72 75  2  0
 72 76  1  0
 72148  1  0
 73 74  1  0
 73 77  1  0
 74 76  2  0
 74 83  1  0
 75 86  1  0
 76 84  1  0
 77 85  1  0
 77 87  2  0
 78 79  1  0
 78 81  1  0
 78149  1  0
 78150  1  0
 79 83  1  0
 79151  1  0
 79152  1  0
 80 81  1  0
 80 83  1  0
 80153  1  0
 80154  1  0
 81 82  1  0
 81155  1  1
 82156  1  0
 82157  1  0
 84158  1  0
 84159  1  0
 85160  1  0
 85161  1  0
 86162  1  0
M  ISO  4   1 100  68 101  82 101  86 100
M  END
$$$$
49
     RDKit          3D

153161  0  0  0  0  0  0  0  0999 V2000
  -30.7652  -14.3608   20.6636 C   0  0  0  0  0  0  0  0  0100  0  0
  -30.4392  -12.2669   19.3775 C   0  0  0  0  0  0  0  0  0101  0  0
  -29.4791  -12.5281   18.1977 C   0  0  0  0  0  0  0  0  0102  0  0
  -27.9985  -12.3963   18.6038 C   0  0  0  0  0  0  0  0  0103  0  0
  -27.6639  -13.2170   19.8820 C   0  0  2  0  0  0  0  0  0104  0  0
  -28.6795  -12.9602   21.0279 C   0  0  0  0  0  0  0  0  0105  0  0
  -25.2633  -13.8245   20.5754 C   0  0  0  0  0  0  0  0  0106  0  0
  -24.1645  -13.0409   20.9408 C   0  0  0  0  0  0  0  0  0107  0  0
  -24.6400  -11.7009   20.8697 C   0  0  0  0  0  0  0  0  0108  0  0
  -23.9005  -10.4085   21.0420 C   0  0  0  0  0  0  0  0  0109  0  0
  -24.3588   -9.4123   21.9123 C   0  0  0  0  0  0  0  0  0110  0  0
  -23.6296   -8.2350   22.0803 C   0  0  0  0  0  0  0  0  0111  0  0
  -22.4385   -8.0419   21.3657 C   0  0  0  0  0  0  0  0  0112  0  0
  -22.0103   -9.0167   20.4678 C   0  0  0  0  0  0  0  0  0113  0  0
  -22.7317  -10.1925   20.3102 C   0  0  0  0  0  0  0  0  0114  0  0
  -21.6857   -6.0709   22.5391 C   0  0  0  0  0  0  0  0  0115  0  0
  -21.4064   -6.5490   23.8264 C   0  0  0  0  0  0  0  0  0116  0  0
  -21.3635   -5.6677   24.9085 C   0  0  0  0  0  0  0  0  0117  0  0
  -21.5973   -4.3067   24.7088 C   0  0  0  0  0  0  0  0  0118  0  0
  -21.8700   -3.8284   23.4282 C   0  0  0  0  0  0  0  0  0119  0  0
  -21.9144   -4.7056   22.3460 C   0  0  0  0  0  0  0  0  0120  0  0
  -22.8194  -13.5263   21.1763 C   0  0  0  0  0  0  0  0  0121  0  0
  -22.1559   -4.2206   21.1063 F   0  0  0  0  0  0  0  0  0122  0  0
  -21.5628   -3.4510   25.7555 F   0  0  0  0  0  0  0  0  0123  0  0
  -30.0261  -13.1803   20.4553 N   0  0  0  0  0  0  0  0  0124  0  0
  -26.2911  -12.9356   20.3443 N   0  0  0  0  0  0  0  0  0125  0  0
  -25.9236  -11.6675   20.5847 N   0  0  0  0  0  0  0  0  0126  0  0
  -22.0708  -12.7905   22.0005 N   0  0  0  0  0  0  0  0  0127  0  0
  -25.4117  -15.1773   20.4097 N   0  0  0  0  0  0  0  0  0128  0  0
  -31.7916  -14.6724   20.0536 O   0  0  0  0  0  0  0  0  0129  0  0
  -21.6670   -6.9022   21.4423 O   0  0  0  0  0  0  0  0  0130  0  0
  -22.3946  -14.5564   20.6568 O   0  0  0  0  0  0  0  0  0131  0  0
  -24.6048  -31.8614   23.2223 C   0  0  0  0  0  0  0  0  0100  0  0
  -25.8822  -32.4841   23.8616 C   0  0  1  0  0  0  0  0  0101  0  0
  -27.2536  -27.5042   20.1156 C   0  0  0  0  0  0  0  0  0102  0  0
  -25.5726  -33.8762   24.2210 N   0  0  0  0  0  0  0  0  0103  0  0
  -23.4066  -30.4859   21.5461 C   0  0  2  0  0  0  0  0  0104  0  0
  -24.8467  -28.9636   20.1247 C   0  0  0  0  0  0  0  0  0105  0  0
  -22.7412  -29.4652   22.5052 C   0  0  0  0  0  0  0  0  0106  0  0
  -18.0167  -28.1302   22.8626 C   0  0  0  0  0  0  0  0  0107  0  0
  -24.1342  -36.7390   23.2568 C   0  0  0  0  0  0  0  0  0108  0  0
  -25.9141  -30.8882   21.3456 C   0  0  0  0  0  0  0  0  0109  0  0
  -25.9930  -29.5029   20.7208 C   0  0  0  0  0  0  0  0  0110  0  0
  -27.1758  -28.7612   20.7331 C   0  0  0  0  0  0  0  0  0111  0  0
  -26.1032  -26.9836   19.5230 C   0  0  0  0  0  0  0  0  0112  0  0
  -24.9097  -27.7011   19.5331 C   0  0  0  0  0  0  0  0  0113  0  0
  -23.5715  -29.7899   20.1582 C   0  0  0  0  0  0  0  0  0114  0  0
  -25.3990  -36.3212   24.0232 C   0  0  1  0  0  0  0  0  0115  0  0
  -20.5793  -28.3813   23.1004 C   0  0  2  0  0  0  0  0  0116  0  0
  -20.6548  -26.9392   22.5411 C   0  0  0  0  0  0  0  0  0117  0  0
  -19.5615  -26.6407   21.5143 C   0  0  0  0  0  0  0  0  0118  0  0
  -18.1797  -26.7818   22.1673 C   0  0  0  0  0  0  0  0  0119  0  0
  -19.1385  -28.8769   23.2988 C   0  0  0  0  0  0  0  0  0120  0  0
  -18.9183  -30.1286   23.8878 C   0  0  0  0  0  0  0  0  0121  0  0
  -17.6396  -30.6493   24.0352 C   0  0  0  0  0  0  0  0  0122  0  0
  -25.9153  -34.9582   23.4993 C   0  0  0  0  0  0  0  0  0123  0  0
  -16.5415  -29.9068   23.6254 C   0  0  0  0  0  0  0  0  0124  0  0
  -16.7331  -28.6521   23.0586 C   0  0  0  0  0  0  0  0  0125  0  0
  -26.4583  -31.6439   25.0683 C   0  0  0  0  0  0  0  0  0126  0  0
  -25.3807  -31.3179   26.1374 C   0  0  0  0  0  0  0  0  0127  0  0
  -27.0530  -30.3024   24.5680 C   0  0  0  0  0  0  0  0  0128  0  0
  -27.6014  -32.4281   25.7651 C   0  0  0  0  0  0  0  0  0129  0  0
  -27.5629  -37.2220   24.8621 C   0  0  0  0  0  0  0  0  0130  0  0
  -21.4133  -29.3375   22.3735 N   0  0  0  0  0  0  0  0  0131  0  0
  -26.4706  -37.3372   23.9061 N   0  0  0  0  0  0  0  0  0132  0  0
  -24.6674  -31.0544   22.1178 N   0  0  0  0  0  0  0  0  0133  0  0
  -23.4259  -28.8150   23.2971 O   0  0  0  0  0  0  0  0  0134  0  0
  -28.3948  -26.7345   20.0089 O   0  0  0  0  0  0  0  0  0135  0  0
  -26.5870  -34.9065   22.4671 O   0  0  0  0  0  0  0  0  0136  0  0
  -23.5365  -32.1254   23.7833 O   0  0  0  0  0  0  0  0  0137  0  0
  -31.3484  -23.5687   17.7565 C   0  0  0  0  0  0  0  0  0  0  0  0
  -31.2975  -22.2348   18.1611 C   0  0  0  0  0  0  0  0  0  0  0  0
  -30.1356  -24.2174   19.7428 C   0  0  0  0  0  0  0  0  0  0  0  0
  -30.7674  -24.5600   18.5474 C   0  0  0  0  0  0  0  0  0  0  0  0
  -30.6656  -21.8922   19.3565 C   0  0  0  0  0  0  0  0  0  0  0  0
  -30.0846  -22.8835   20.1474 C   0  0  0  0  0  0  0  0  0  0  0  0
  -29.5896  -19.8836   19.3529 C   0  0  0  0  0  0  0  0  0  0  0  0
  -29.4677  -18.4480   19.7488 C   0  0  0  0  0  0  0  0  0  0  0  0
  -28.0639  -17.9258   19.8855 C   0  0  0  0  0  0  0  0  0  1  0  0
  -30.8209  -25.9866   18.1164 C   0  0  1  0  0  0  0  0  0  0  0  0
  -30.6142  -20.5479   19.7618 N   0  0  0  0  0  0  0  0  0  0  0  0
  -32.2111  -26.5414   18.0238 N   0  0  0  0  0  0  0  0  0  0  0  0
  -30.4924  -17.8062   19.9173 O   0  0  0  0  0  0  0  0  0  0  0  0
  -29.4752  -22.5635   21.2977 F   0  0  0  0  0  0  0  0  0  0  0  0
  -31.4485  -12.4701   19.0860 H   0  0  0  0  0  0  0  0  0  0  0  0
  -30.3970  -11.2460   19.6950 H   0  0  0  0  0  0  0  0  0  0  0  0
  -29.6870  -11.8204   17.4226 H   0  0  0  0  0  0  0  0  0  0  0  0
  -29.6375  -13.5326   17.8649 H   0  0  0  0  0  0  0  0  0  0  0  0
  -27.7830  -11.3650   18.7904 H   0  0  0  0  0  0  0  0  0  0  0  0
  -27.4028  -12.7801   17.8021 H   0  0  0  0  0  0  0  0  0  0  0  0
  -27.7353  -14.2503   19.6136 H   0  0  0  0  0  0  0  0  0  0  0  0
  -28.5890  -11.9550   21.3832 H   0  0  0  0  0  0  0  0  0  0  0  0
  -28.5005  -13.6134   21.8562 H   0  0  0  0  0  0  0  0  0  0  0  0
  -25.2399   -9.5495   22.4318 H   0  0  0  0  0  0  0  0  0  0  0  0
  -23.9663   -7.5070   22.7297 H   0  0  0  0  0  0  0  0  0  0  0  0
  -21.1515   -8.8641   19.9162 H   0  0  0  0  0  0  0  0  0  0  0  0
  -22.4016  -10.9115   19.6476 H   0  0  0  0  0  0  0  0  0  0  0  0
  -21.2319   -7.5552   23.9750 H   0  0  0  0  0  0  0  0  0  0  0  0
  -21.1589   -6.0228   25.8556 H   0  0  0  0  0  0  0  0  0  0  0  0
  -22.0396   -2.8212   23.2809 H   0  0  0  0  0  0  0  0  0  0  0  0
  -22.4401  -11.9703   22.4008 H   0  0  0  0  0  0  0  0  0  0  0  0
  -21.1493  -13.0679   22.2082 H   0  0  0  0  0  0  0  0  0  0  0  0
  -24.6538  -15.7807   20.5848 H   0  0  0  0  0  0  0  0  0  0  0  0
  -26.2762  -15.5453   20.1156 H   0  0  0  0  0  0  0  0  0  0  0  0
  -26.6778  -32.4663   23.1464 H   0  0  0  0  0  0  0  0  0  0  0  0
  -25.0747  -34.0282   25.0566 H   0  0  0  0  0  0  0  0  0  0  0  0
  -22.7881  -31.3489   21.4131 H   0  0  0  0  0  0  0  0  0  0  0  0
  -23.3854  -35.9823   23.3648 H   0  0  0  0  0  0  0  0  0  0  0  0
  -24.3696  -36.8624   22.2204 H   0  0  0  0  0  0  0  0  0  0  0  0
  -23.7669  -37.6632   23.6516 H   0  0  0  0  0  0  0  0  0  0  0  0
  -25.9445  -31.6237   20.5691 H   0  0  0  0  0  0  0  0  0  0  0  0
  -26.7436  -31.0079   22.0108 H   0  0  0  0  0  0  0  0  0  0  0  0
  -28.0090  -29.1452   21.2057 H   0  0  0  0  0  0  0  0  0  0  0  0
  -26.1369  -26.0560   19.0719 H   0  0  0  0  0  0  0  0  0  0  0  0
  -24.0652  -27.2961   19.0997 H   0  0  0  0  0  0  0  0  0  0  0  0
  -23.6156  -30.5365   19.3930 H   0  0  0  0  0  0  0  0  0  0  0  0
  -22.7355  -29.1425   19.9945 H   0  0  0  0  0  0  0  0  0  0  0  0
  -25.1353  -36.2335   25.0565 H   0  0  0  0  0  0  0  0  0  0  0  0
  -21.0070  -28.3206   24.0793 H   0  0  0  0  0  0  0  0  0  0  0  0
  -20.5555  -26.2518   23.3550 H   0  0  0  0  0  0  0  0  0  0  0  0
  -21.5974  -26.8362   22.0454 H   0  0  0  0  0  0  0  0  0  0  0  0
  -19.6810  -25.6422   21.1488 H   0  0  0  0  0  0  0  0  0  0  0  0
  -19.6406  -27.3343   20.7034 H   0  0  0  0  0  0  0  0  0  0  0  0
  -17.4282  -26.6888   21.4113 H   0  0  0  0  0  0  0  0  0  0  0  0
  -18.0803  -26.0130   22.9049 H   0  0  0  0  0  0  0  0  0  0  0  0
  -19.7265  -30.6774   24.2204 H   0  0  0  0  0  0  0  0  0  0  0  0
  -17.5064  -31.5856   24.4483 H   0  0  0  0  0  0  0  0  0  0  0  0
  -15.5878  -30.2839   23.7407 H   0  0  0  0  0  0  0  0  0  0  0  0
  -15.9120  -28.0941   22.7766 H   0  0  0  0  0  0  0  0  0  0  0  0
  -24.5787  -30.7757   25.6817 H   0  0  0  0  0  0  0  0  0  0  0  0
  -25.0041  -32.2289   26.5536 H   0  0  0  0  0  0  0  0  0  0  0  0
  -25.8166  -30.7245   26.9138 H   0  0  0  0  0  0  0  0  0  0  0  0
  -26.2892  -29.7335   24.0803 H   0  0  0  0  0  0  0  0  0  0  0  0
  -27.4336  -29.7484   25.4006 H   0  0  0  0  0  0  0  0  0  0  0  0
  -27.8466  -30.4994   23.8779 H   0  0  0  0  0  0  0  0  0  0  0  0
  -27.2251  -33.3632   26.1242 H   0  0  0  0  0  0  0  0  0  0  0  0
  -28.3902  -32.6065   25.0645 H   0  0  0  0  0  0  0  0  0  0  0  0
  -27.9772  -31.8555   26.5872 H   0  0  0  0  0  0  0  0  0  0  0  0
  -28.2744  -38.0016   24.6863 H   0  0  0  0  0  0  0  0  0  0  0  0
  -28.0396  -36.2711   24.7461 H   0  0  0  0  0  0  0  0  0  0  0  0
  -27.1773  -37.3087   25.8564 H   0  0  0  0  0  0  0  0  0  0  0  0
  -20.9627  -29.9365   21.7352 H   0  0  0  0  0  0  0  0  0  0  0  0
  -26.0447  -38.2561   24.0273 H   0  0  0  0  0  0  0  0  0  0  0  0
  -31.8159  -23.8222   16.8721 H   0  0  0  0  0  0  0  0  0  0  0  0
  -31.7274  -21.5014   17.5760 H   0  0  0  0  0  0  0  0  0  0  0  0
  -29.7059  -24.9509   20.3279 H   0  0  0  0  0  0  0  0  0  0  0  0
  -28.8695  -20.3323   18.7655 H   0  0  0  0  0  0  0  0  0  0  0  0
  -27.7934  -17.4097   20.7829 H   0  0  0  0  0  0  0  0  0  0  0  0
  -27.4979  -17.2447   19.2850 H   0  0  0  0  0  0  0  0  0  0  0  0
  -30.3084  -26.8906   17.8613 H   0  0  0  0  0  0  0  0  0  0  0  0
  -32.8853  -25.8073   18.2407 H   0  0  0  0  0  0  0  0  0  0  0  0
  -32.3166  -27.3073   18.6892 H   0  0  0  0  0  0  0  0  0  0  0  0
  -32.3770  -26.8870   17.0786 H   0  0  0  0  0  0  0  0  0  0  0  0
  1 25  1  0
  1 30  2  0
  1 80  1  0
  2  3  1  0
  2 25  1  0
  2 85  1  0
  2 86  1  0
  3  4  1  0
  3 87  1  0
  3 88  1  0
  4  5  1  0
  4 89  1  0
  4 90  1  0
  5  6  1  0
  5 26  1  0
  5 91  1  6
  6 25  1  0
  6 92  1  0
  6 93  1  0
  7  8  2  0
  7 26  1  0
  7 29  1  0
  8  9  1  0
  8 22  1  0
  9 10  1  0
  9 27  2  0
 10 11  2  0
 10 15  1  0
 11 12  1  0
 11 94  1  0
 12 13  2  0
 12 95  1  0
 13 14  1  0
 13 31  1  0
 14 15  2  0
 14 96  1  0
 15 97  1  0
 16 17  2  0
 16 21  1  0
 16 31  1  0
 17 18  1  0
 17 98  1  0
 18 19  2  0
 18 99  1  0
 19 20  1  0
 19 24  1  0
 20 21  2  0
 20100  1  0
 21 23  1  0
 22 28  1  0
 22 32  2  0
 26 27  1  0
 28101  1  0
 28102  1  0
 29103  1  0
 29104  1  0
 33 34  1  0
 33 66  1  0
 33 70  2  0
 34 36  1  0
 34 59  1  0
 34105  1  6
 35 44  2  0
 35 45  1  0
 35 68  1  0
 36 56  1  0
 36106  1  0
 37 39  1  0
 37 47  1  0
 37 66  1  0
 37107  1  6
 38 43  2  0
 38 46  1  0
 38 47  1  0
 39 64  1  0
 39 67  2  0
 40 52  1  0
 40 53  2  0
 40 58  1  0
 41108  1  0
 41109  1  0
 41110  1  0
 42 43  1  0
 42 66  1  0
 42111  1  0
 42112  1  0
 43 44  1  0
 44113  1  0
 45 46  2  0
 45114  1  0
 46115  1  0
 47116  1  0
 47117  1  0
 48 41  1  0
 48 56  1  0
 48 65  1  0
 48118  1  1
 49 50  1  0
 49 53  1  0
 49 64  1  0
 49119  1  1
 50 51  1  0
 50120  1  0
 50121  1  0
 51 52  1  0
 51122  1  0
 51123  1  0
 52124  1  0
 52125  1  0
 53 54  1  0
 54 55  2  0
 54126  1  0
 55 57  1  0
 55127  1  0
 56 69  2  0
 57 58  2  0
 57128  1  0
 58129  1  0
 59 60  1  0
 59 61  1  0
 59 62  1  0
 60130  1  0
 60131  1  0
 60132  1  0
 61133  1  0
 61134  1  0
 61135  1  0
 62136  1  0
 62137  1  0
 62138  1  0
 63 65  1  0
 63139  1  0
 63140  1  0
 63141  1  0
 64142  1  0
 65143  1  0
 68 79  1  0
 71 72  2  0
 71 74  1  0
 71144  1  0
 72 75  1  0
 72145  1  0
 73 74  2  0
 73 76  1  0
 73146  1  0
 74 80  1  0
 75 76  2  0
 75 81  1  0
 76 84  1  0
 77 78  1  0
 77 81  2  0
 77147  1  0
 78 79  1  0
 78 83  2  0
 79148  1  0
 79149  1  0
 80 82  1  0
 80150  1  6
 82151  1  0
 82152  1  0
 82153  1  0
M  CHG  1  82   1
M  ISO  4   1 100  68 101  79 101  80 100
M  END
$$$$
50
     RDKit          3D

158167  0  0  0  0  0  0  0  0999 V2000
  -30.7652  -14.3608   20.6636 C   0  0  0  0  0  0  0  0  0100  0  0
  -30.4392  -12.2669   19.3775 C   0  0  0  0  0  0  0  0  0101  0  0
  -29.4791  -12.5281   18.1977 C   0  0  0  0  0  0  0  0  0102  0  0
  -27.9985  -12.3963   18.6038 C   0  0  0  0  0  0  0  0  0103  0  0
  -27.6639  -13.2170   19.8820 C   0  0  2  0  0  0  0  0  0104  0  0
  -28.6795  -12.9602   21.0279 C   0  0  0  0  0  0  0  0  0105  0  0
  -25.2633  -13.8245   20.5754 C   0  0  0  0  0  0  0  0  0106  0  0
  -24.1645  -13.0409   20.9408 C   0  0  0  0  0  0  0  0  0107  0  0
  -24.6400  -11.7009   20.8697 C   0  0  0  0  0  0  0  0  0108  0  0
  -23.9005  -10.4085   21.0420 C   0  0  0  0  0  0  0  0  0109  0  0
  -24.3588   -9.4123   21.9123 C   0  0  0  0  0  0  0  0  0110  0  0
  -23.6296   -8.2350   22.0803 C   0  0  0  0  0  0  0  0  0111  0  0
  -22.4385   -8.0419   21.3657 C   0  0  0  0  0  0  0  0  0112  0  0
  -22.0103   -9.0167   20.4678 C   0  0  0  0  0  0  0  0  0113  0  0
  -22.7317  -10.1925   20.3102 C   0  0  0  0  0  0  0  0  0114  0  0
  -21.6857   -6.0709   22.5391 C   0  0  0  0  0  0  0  0  0115  0  0
  -21.4064   -6.5490   23.8264 C   0  0  0  0  0  0  0  0  0116  0  0
  -21.3635   -5.6677   24.9085 C   0  0  0  0  0  0  0  0  0117  0  0
  -21.5973   -4.3067   24.7088 C   0  0  0  0  0  0  0  0  0118  0  0
  -21.8700   -3.8284   23.4282 C   0  0  0  0  0  0  0  0  0119  0  0
  -21.9144   -4.7056   22.3460 C   0  0  0  0  0  0  0  0  0120  0  0
  -22.8194  -13.5263   21.1763 C   0  0  0  0  0  0  0  0  0121  0  0
  -22.1559   -4.2206   21.1063 F   0  0  0  0  0  0  0  0  0122  0  0
  -21.5628   -3.4510   25.7555 F   0  0  0  0  0  0  0  0  0123  0  0
  -30.0261  -13.1803   20.4553 N   0  0  0  0  0  0  0  0  0124  0  0
  -26.2911  -12.9356   20.3443 N   0  0  0  0  0  0  0  0  0125  0  0
  -25.9236  -11.6675   20.5847 N   0  0  0  0  0  0  0  0  0126  0  0
  -22.0708  -12.7905   22.0005 N   0  0  0  0  0  0  0  0  0127  0  0
  -25.4117  -15.1773   20.4097 N   0  0  0  0  0  0  0  0  0128  0  0
  -31.7916  -14.6724   20.0536 O   0  0  0  0  0  0  0  0  0129  0  0
  -21.6670   -6.9022   21.4423 O   0  0  0  0  0  0  0  0  0130  0  0
  -22.3946  -14.5564   20.6568 O   0  0  0  0  0  0  0  0  0131  0  0
  -24.6048  -31.8614   23.2223 C   0  0  0  0  0  0  0  0  0100  0  0
  -25.8822  -32.4841   23.8616 C   0  0  1  0  0  0  0  0  0101  0  0
  -27.2536  -27.5042   20.1156 C   0  0  0  0  0  0  0  0  0102  0  0
  -25.5726  -33.8762   24.2210 N   0  0  0  0  0  0  0  0  0103  0  0
  -23.4066  -30.4859   21.5461 C   0  0  2  0  0  0  0  0  0104  0  0
  -24.8467  -28.9636   20.1247 C   0  0  0  0  0  0  0  0  0105  0  0
  -22.7412  -29.4652   22.5052 C   0  0  0  0  0  0  0  0  0106  0  0
  -18.0167  -28.1302   22.8626 C   0  0  0  0  0  0  0  0  0107  0  0
  -24.1342  -36.7390   23.2568 C   0  0  0  0  0  0  0  0  0108  0  0
  -25.9141  -30.8882   21.3456 C   0  0  0  0  0  0  0  0  0109  0  0
  -25.9930  -29.5029   20.7208 C   0  0  0  0  0  0  0  0  0110  0  0
  -27.1758  -28.7612   20.7331 C   0  0  0  0  0  0  0  0  0111  0  0
  -26.1032  -26.9836   19.5230 C   0  0  0  0  0  0  0  0  0112  0  0
  -24.9097  -27.7011   19.5331 C   0  0  0  0  0  0  0  0  0113  0  0
  -23.5715  -29.7899   20.1582 C   0  0  0  0  0  0  0  0  0114  0  0
  -25.3990  -36.3212   24.0232 C   0  0  1  0  0  0  0  0  0115  0  0
  -20.5793  -28.3813   23.1004 C   0  0  2  0  0  0  0  0  0116  0  0
  -20.6548  -26.9392   22.5411 C   0  0  0  0  0  0  0  0  0117  0  0
  -19.5615  -26.6407   21.5143 C   0  0  0  0  0  0  0  0  0118  0  0
  -18.1797  -26.7818   22.1673 C   0  0  0  0  0  0  0  0  0119  0  0
  -19.1385  -28.8769   23.2988 C   0  0  0  0  0  0  0  0  0120  0  0
  -18.9183  -30.1286   23.8878 C   0  0  0  0  0  0  0  0  0121  0  0
  -17.6396  -30.6493   24.0352 C   0  0  0  0  0  0  0  0  0122  0  0
  -25.9153  -34.9582   23.4993 C   0  0  0  0  0  0  0  0  0123  0  0
  -16.5415  -29.9068   23.6254 C   0  0  0  0  0  0  0  0  0124  0  0
  -16.7331  -28.6521   23.0586 C   0  0  0  0  0  0  0  0  0125  0  0
  -26.4583  -31.6439   25.0683 C   0  0  0  0  0  0  0  0  0126  0  0
  -25.3807  -31.3179   26.1374 C   0  0  0  0  0  0  0  0  0127  0  0
  -27.0530  -30.3024   24.5680 C   0  0  0  0  0  0  0  0  0128  0  0
  -27.6014  -32.4281   25.7651 C   0  0  0  0  0  0  0  0  0129  0  0
  -27.5629  -37.2220   24.8621 C   0  0  0  0  0  0  0  0  0130  0  0
  -21.4133  -29.3375   22.3735 N   0  0  0  0  0  0  0  0  0131  0  0
  -26.4706  -37.3372   23.9061 N   0  0  0  0  0  0  0  0  0132  0  0
  -24.6674  -31.0544   22.1178 N   0  0  0  0  0  0  0  0  0133  0  0
  -23.4259  -28.8150   23.2971 O   0  0  0  0  0  0  0  0  0134  0  0
  -28.3948  -26.7345   20.0089 O   0  0  0  0  0  0  0  0  0135  0  0
  -26.5870  -34.9065   22.4671 O   0  0  0  0  0  0  0  0  0136  0  0
  -23.5365  -32.1254   23.7833 O   0  0  0  0  0  0  0  0  0137  0  0
  -32.6547  -17.4850   23.4576 C   0  0  0  0  0  0  0  0  0  0  0  0
  -32.0641  -16.6033   22.5525 C   0  0  0  0  0  0  0  0  0  0  0  0
  -30.4730  -18.3355   24.0527 C   0  0  0  0  0  0  0  0  0  0  0  0
  -31.8591  -18.3511   24.2078 C   0  0  0  0  0  0  0  0  0  0  0  0
  -30.6780  -16.5876   22.3974 C   0  0  0  0  0  0  0  0  0  0  0  0
  -29.8824  -17.4537   23.1475 C   0  0  0  0  0  0  0  0  0  0  0  0
  -33.5170  -21.2125   23.8918 C   0  0  0  0  0  0  0  0  0  0  0  0
  -33.0629  -22.5994   23.5029 C   0  0  0  0  0  0  0  0  0  0  0  0
  -31.3874  -21.5447   24.8618 C   0  0  0  0  0  0  0  0  0  0  0  0
  -31.9590  -22.9128   24.5162 C   0  0  2  0  0  0  0  0  0  0  0  0
  -32.4946  -19.3011   25.1813 C   0  0  0  0  0  0  0  0  0  0  0  0
  -30.9148  -23.8771   23.9805 C   0  0  0  0  0  0  0  0  0  1  0  0
  -32.5128  -20.6583   24.6801 N   0  0  0  0  0  0  0  0  0  0  0  0
  -30.0807  -15.6912   21.4767 N   0  0  0  0  0  0  0  0  0  0  0  0
  -34.5601  -20.6944   23.5214 O   0  0  0  0  0  0  0  0  0  0  0  0
  -28.5492  -17.4484   23.0055 F   0  0  0  0  0  0  0  0  0  0  0  0
  -31.4485  -12.4701   19.0860 H   0  0  0  0  0  0  0  0  0  0  0  0
  -30.3970  -11.2460   19.6950 H   0  0  0  0  0  0  0  0  0  0  0  0
  -29.6870  -11.8204   17.4226 H   0  0  0  0  0  0  0  0  0  0  0  0
  -29.6375  -13.5326   17.8649 H   0  0  0  0  0  0  0  0  0  0  0  0
  -27.7830  -11.3650   18.7904 H   0  0  0  0  0  0  0  0  0  0  0  0
  -27.4028  -12.7801   17.8021 H   0  0  0  0  0  0  0  0  0  0  0  0
  -27.7353  -14.2503   19.6136 H   0  0  0  0  0  0  0  0  0  0  0  0
  -28.5890  -11.9550   21.3832 H   0  0  0  0  0  0  0  0  0  0  0  0
  -28.5005  -13.6134   21.8562 H   0  0  0  0  0  0  0  0  0  0  0  0
  -25.2399   -9.5495   22.4318 H   0  0  0  0  0  0  0  0  0  0  0  0
  -23.9663   -7.5070   22.7297 H   0  0  0  0  0  0  0  0  0  0  0  0
  -21.1515   -8.8641   19.9162 H   0  0  0  0  0  0  0  0  0  0  0  0
  -22.4016  -10.9115   19.6476 H   0  0  0  0  0  0  0  0  0  0  0  0
  -21.2319   -7.5552   23.9750 H   0  0  0  0  0  0  0  0  0  0  0  0
  -21.1589   -6.0228   25.8556 H   0  0  0  0  0  0  0  0  0  0  0  0
  -22.0396   -2.8212   23.2809 H   0  0  0  0  0  0  0  0  0  0  0  0
  -22.4401  -11.9703   22.4008 H   0  0  0  0  0  0  0  0  0  0  0  0
  -21.1493  -13.0679   22.2082 H   0  0  0  0  0  0  0  0  0  0  0  0
  -24.6538  -15.7807   20.5848 H   0  0  0  0  0  0  0  0  0  0  0  0
  -26.2762  -15.5453   20.1156 H   0  0  0  0  0  0  0  0  0  0  0  0
  -26.6778  -32.4663   23.1464 H   0  0  0  0  0  0  0  0  0  0  0  0
  -25.0747  -34.0282   25.0566 H   0  0  0  0  0  0  0  0  0  0  0  0
  -22.7881  -31.3489   21.4131 H   0  0  0  0  0  0  0  0  0  0  0  0
  -23.3854  -35.9823   23.3648 H   0  0  0  0  0  0  0  0  0  0  0  0
  -24.3696  -36.8624   22.2204 H   0  0  0  0  0  0  0  0  0  0  0  0
  -23.7669  -37.6632   23.6516 H   0  0  0  0  0  0  0  0  0  0  0  0
  -25.9445  -31.6237   20.5691 H   0  0  0  0  0  0  0  0  0  0  0  0
  -26.7436  -31.0079   22.0108 H   0  0  0  0  0  0  0  0  0  0  0  0
  -28.0090  -29.1452   21.2057 H   0  0  0  0  0  0  0  0  0  0  0  0
  -26.1369  -26.0560   19.0719 H   0  0  0  0  0  0  0  0  0  0  0  0
  -24.0652  -27.2961   19.0997 H   0  0  0  0  0  0  0  0  0  0  0  0
  -23.6156  -30.5365   19.3930 H   0  0  0  0  0  0  0  0  0  0  0  0
  -22.7355  -29.1425   19.9945 H   0  0  0  0  0  0  0  0  0  0  0  0
  -25.1353  -36.2335   25.0565 H   0  0  0  0  0  0  0  0  0  0  0  0
  -21.0070  -28.3206   24.0793 H   0  0  0  0  0  0  0  0  0  0  0  0
  -20.5555  -26.2518   23.3550 H   0  0  0  0  0  0  0  0  0  0  0  0
  -21.5974  -26.8362   22.0454 H   0  0  0  0  0  0  0  0  0  0  0  0
  -19.6810  -25.6422   21.1488 H   0  0  0  0  0  0  0  0  0  0  0  0
  -19.6406  -27.3343   20.7034 H   0  0  0  0  0  0  0  0  0  0  0  0
  -17.4282  -26.6888   21.4113 H   0  0  0  0  0  0  0  0  0  0  0  0
  -18.0803  -26.0130   22.9049 H   0  0  0  0  0  0  0  0  0  0  0  0
  -19.7265  -30.6774   24.2204 H   0  0  0  0  0  0  0  0  0  0  0  0
  -17.5064  -31.5856   24.4483 H   0  0  0  0  0  0  0  0  0  0  0  0
  -15.5878  -30.2839   23.7407 H   0  0  0  0  0  0  0  0  0  0  0  0
  -15.9120  -28.0941   22.7766 H   0  0  0  0  0  0  0  0  0  0  0  0
  -24.5787  -30.7757   25.6817 H   0  0  0  0  0  0  0  0  0  0  0  0
  -25.0041  -32.2289   26.5536 H   0  0  0  0  0  0  0  0  0  0  0  0
  -25.8166  -30.7245   26.9138 H   0  0  0  0  0  0  0  0  0  0  0  0
  -26.2892  -29.7335   24.0803 H   0  0  0  0  0  0  0  0  0  0  0  0
  -27.4336  -29.7484   25.4006 H   0  0  0  0  0  0  0  0  0  0  0  0
  -27.8466  -30.4994   23.8779 H   0  0  0  0  0  0  0  0  0  0  0  0
  -27.2251  -33.3632   26.1242 H   0  0  0  0  0  0  0  0  0  0  0  0
  -28.3902  -32.6065   25.0645 H   0  0  0  0  0  0  0  0  0  0  0  0
  -27.9772  -31.8555   26.5872 H   0  0  0  0  0  0  0  0  0  0  0  0
  -28.2744  -38.0016   24.6863 H   0  0  0  0  0  0  0  0  0  0  0  0
  -28.0396  -36.2711   24.7461 H   0  0  0  0  0  0  0  0  0  0  0  0
  -27.1773  -37.3087   25.8564 H   0  0  0  0  0  0  0  0  0  0  0  0
  -20.9627  -29.9365   21.7352 H   0  0  0  0  0  0  0  0  0  0  0  0
  -26.0447  -38.2561   24.0273 H   0  0  0  0  0  0  0  0  0  0  0  0
  -33.6802  -17.4966   23.5723 H   0  0  0  0  0  0  0  0  0  0  0  0
  -32.6527  -15.9625   21.9975 H   0  0  0  0  0  0  0  0  0  0  0  0
  -29.8844  -18.9763   24.6076 H   0  0  0  0  0  0  0  0  0  0  0  0
  -32.6792  -22.6099   22.5041 H   0  0  0  0  0  0  0  0  0  0  0  0
  -33.8568  -23.3166   23.5172 H   0  0  0  0  0  0  0  0  0  0  0  0
  -30.5858  -21.2865   24.2018 H   0  0  0  0  0  0  0  0  0  0  0  0
  -30.9749  -21.5005   25.8481 H   0  0  0  0  0  0  0  0  0  0  0  0
  -32.3329  -23.4253   25.3778 H   0  0  0  0  0  0  0  0  0  0  0  0
  -33.5009  -18.9867   25.3641 H   0  0  0  0  0  0  0  0  0  0  0  0
  -31.9160  -19.2886   26.0813 H   0  0  0  0  0  0  0  0  0  0  0  0
  -31.1478  -24.7032   24.6194 H   0  0  0  0  0  0  0  0  0  0  0  0
  -30.3356  -23.0273   23.6851 H   0  0  0  0  0  0  0  0  0  0  0  0
  -29.1318  -15.8626   21.2782 H   0  0  0  0  0  0  0  0  0  0  0  0
  1 25  1  0
  1 30  2  0
  1 84  1  0
  2  3  1  0
  2 25  1  0
  2 87  1  0
  2 88  1  0
  3  4  1  0
  3 89  1  0
  3 90  1  0
  4  5  1  0
  4 91  1  0
  4 92  1  0
  5  6  1  0
  5 26  1  0
  5 93  1  6
  6 25  1  0
  6 94  1  0
  6 95  1  0
  7  8  2  0
  7 26  1  0
  7 29  1  0
  8  9  1  0
  8 22  1  0
  9 10  1  0
  9 27  2  0
 10 11  2  0
 10 15  1  0
 11 12  1  0
 11 96  1  0
 12 13  2  0
 12 97  1  0
 13 14  1  0
 13 31  1  0
 14 15  2  0
 14 98  1  0
 15 99  1  0
 16 17  2  0
 16 21  1  0
 16 31  1  0
 17 18  1  0
 17100  1  0
 18 19  2  0
 18101  1  0
 19 20  1  0
 19 24  1  0
 20 21  2  0
 20102  1  0
 21 23  1  0
 22 28  1  0
 22 32  2  0
 26 27  1  0
 28103  1  0
 28104  1  0
 29105  1  0
 29106  1  0
 33 34  1  0
 33 66  1  0
 33 70  2  0
 34 36  1  0
 34 59  1  0
 34107  1  6
 35 44  2  0
 35 45  1  0
 35 68  1  0
 36 56  1  0
 36108  1  0
 37 39  1  0
 37 47  1  0
 37 66  1  0
 37109  1  6
 38 43  2  0
 38 46  1  0
 38 47  1  0
 39 64  1  0
 39 67  2  0
 40 52  1  0
 40 53  2  0
 40 58  1  0
 41110  1  0
 41111  1  0
 41112  1  0
 42 43  1  0
 42 66  1  0
 42113  1  0
 42114  1  0
 43 44  1  0
 44115  1  0
 45 46  2  0
 45116  1  0
 46117  1  0
 47118  1  0
 47119  1  0
 48 41  1  0
 48 56  1  0
 48 65  1  0
 48120  1  1
 49 50  1  0
 49 53  1  0
 49 64  1  0
 49121  1  1
 50 51  1  0
 50122  1  0
 50123  1  0
 51 52  1  0
 51124  1  0
 51125  1  0
 52126  1  0
 52127  1  0
 53 54  1  0
 54 55  2  0
 54128  1  0
 55 57  1  0
 55129  1  0
 56 69  2  0
 57 58  2  0
 57130  1  0
 58131  1  0
 59 60  1  0
 59 61  1  0
 59 62  1  0
 60132  1  0
 60133  1  0
 60134  1  0
 61135  1  0
 61136  1  0
 61137  1  0
 62138  1  0
 62139  1  0
 62140  1  0
 63 65  1  0
 63141  1  0
 63142  1  0
 63143  1  0
 64144  1  0
 65145  1  0
 68 82  1  0
 71 72  2  0
 71 74  1  0
 71146  1  0
 72 75  1  0
 72147  1  0
 73 74  2  0
 73 76  1  0
 73148  1  0
 74 81  1  0
 75 76  2  0
 75 84  1  0
 76 86  1  0
 77 78  1  0
 77 83  1  0
 77 85  2  0
 78 80  1  0
 78149  1  0
 78150  1  0
 79 80  1  0
 79 83  1  0
 79151  1  0
 79152  1  0
 80 82  1  0
 80153  1  1
 81 83  1  0
 81154  1  0
 81155  1  0
 82156  1  0
 82157  1  0
 84158  1  0
M  ISO  4   1 100  68 101  82 101  84 100
M  END
$$$$
51
     RDKit          3D

161170  0  0  0  0  0  0  0  0999 V2000
  -30.7652  -14.3608   20.6636 C   0  0  0  0  0  0  0  0  0100  0  0
  -30.4392  -12.2669   19.3775 C   0  0  0  0  0  0  0  0  0101  0  0
  -29.4791  -12.5281   18.1977 C   0  0  0  0  0  0  0  0  0102  0  0
  -27.9985  -12.3963   18.6038 C   0  0  0  0  0  0  0  0  0103  0  0
  -27.6639  -13.2170   19.8820 C   0  0  2  0  0  0  0  0  0104  0  0
  -28.6795  -12.9602   21.0279 C   0  0  0  0  0  0  0  0  0105  0  0
  -25.2633  -13.8245   20.5754 C   0  0  0  0  0  0  0  0  0106  0  0
  -24.1645  -13.0409   20.9408 C   0  0  0  0  0  0  0  0  0107  0  0
  -24.6400  -11.7009   20.8697 C   0  0  0  0  0  0  0  0  0108  0  0
  -23.9005  -10.4085   21.0420 C   0  0  0  0  0  0  0  0  0109  0  0
  -24.3588   -9.4123   21.9123 C   0  0  0  0  0  0  0  0  0110  0  0
  -23.6296   -8.2350   22.0803 C   0  0  0  0  0  0  0  0  0111  0  0
  -22.4385   -8.0419   21.3657 C   0  0  0  0  0  0  0  0  0112  0  0
  -22.0103   -9.0167   20.4678 C   0  0  0  0  0  0  0  0  0113  0  0
  -22.7317  -10.1925   20.3102 C   0  0  0  0  0  0  0  0  0114  0  0
  -21.6857   -6.0709   22.5391 C   0  0  0  0  0  0  0  0  0115  0  0
  -21.4064   -6.5490   23.8264 C   0  0  0  0  0  0  0  0  0116  0  0
  -21.3635   -5.6677   24.9085 C   0  0  0  0  0  0  0  0  0117  0  0
  -21.5973   -4.3067   24.7088 C   0  0  0  0  0  0  0  0  0118  0  0
  -21.8700   -3.8284   23.4282 C   0  0  0  0  0  0  0  0  0119  0  0
  -21.9144   -4.7056   22.3460 C   0  0  0  0  0  0  0  0  0120  0  0
  -22.8194  -13.5263   21.1763 C   0  0  0  0  0  0  0  0  0121  0  0
  -22.1559   -4.2206   21.1063 F   0  0  0  0  0  0  0  0  0122  0  0
  -21.5628   -3.4510   25.7555 F   0  0  0  0  0  0  0  0  0123  0  0
  -30.0261  -13.1803   20.4553 N   0  0  0  0  0  0  0  0  0124  0  0
  -26.2911  -12.9356   20.3443 N   0  0  0  0  0  0  0  0  0125  0  0
  -25.9236  -11.6675   20.5847 N   0  0  0  0  0  0  0  0  0126  0  0
  -22.0708  -12.7905   22.0005 N   0  0  0  0  0  0  0  0  0127  0  0
  -25.4117  -15.1773   20.4097 N   0  0  0  0  0  0  0  0  0128  0  0
  -31.7916  -14.6724   20.0536 O   0  0  0  0  0  0  0  0  0129  0  0
  -21.6670   -6.9022   21.4423 O   0  0  0  0  0  0  0  0  0130  0  0
  -22.3946  -14.5564   20.6568 O   0  0  0  0  0  0  0  0  0131  0  0
  -24.6048  -31.8614   23.2223 C   0  0  0  0  0  0  0  0  0100  0  0
  -25.8822  -32.4841   23.8616 C   0  0  1  0  0  0  0  0  0101  0  0
  -27.2536  -27.5042   20.1156 C   0  0  0  0  0  0  0  0  0102  0  0
  -25.5726  -33.8762   24.2210 N   0  0  0  0  0  0  0  0  0103  0  0
  -23.4066  -30.4859   21.5461 C   0  0  2  0  0  0  0  0  0104  0  0
  -24.8467  -28.9636   20.1247 C   0  0  0  0  0  0  0  0  0105  0  0
  -22.7412  -29.4652   22.5052 C   0  0  0  0  0  0  0  0  0106  0  0
  -18.0167  -28.1302   22.8626 C   0  0  0  0  0  0  0  0  0107  0  0
  -24.1342  -36.7390   23.2568 C   0  0  0  0  0  0  0  0  0108  0  0
  -25.9141  -30.8882   21.3456 C   0  0  0  0  0  0  0  0  0109  0  0
  -25.9930  -29.5029   20.7208 C   0  0  0  0  0  0  0  0  0110  0  0
  -27.1758  -28.7612   20.7331 C   0  0  0  0  0  0  0  0  0111  0  0
  -26.1032  -26.9836   19.5230 C   0  0  0  0  0  0  0  0  0112  0  0
  -24.9097  -27.7011   19.5331 C   0  0  0  0  0  0  0  0  0113  0  0
  -23.5715  -29.7899   20.1582 C   0  0  0  0  0  0  0  0  0114  0  0
  -25.3990  -36.3212   24.0232 C   0  0  1  0  0  0  0  0  0115  0  0
  -20.5793  -28.3813   23.1004 C   0  0  2  0  0  0  0  0  0116  0  0
  -20.6548  -26.9392   22.5411 C   0  0  0  0  0  0  0  0  0117  0  0
  -19.5615  -26.6407   21.5143 C   0  0  0  0  0  0  0  0  0118  0  0
  -18.1797  -26.7818   22.1673 C   0  0  0  0  0  0  0  0  0119  0  0
  -19.1385  -28.8769   23.2988 C   0  0  0  0  0  0  0  0  0120  0  0
  -18.9183  -30.1286   23.8878 C   0  0  0  0  0  0  0  0  0121  0  0
  -17.6396  -30.6493   24.0352 C   0  0  0  0  0  0  0  0  0122  0  0
  -25.9153  -34.9582   23.4993 C   0  0  0  0  0  0  0  0  0123  0  0
  -16.5415  -29.9068   23.6254 C   0  0  0  0  0  0  0  0  0124  0  0
  -16.7331  -28.6521   23.0586 C   0  0  0  0  0  0  0  0  0125  0  0
  -26.4583  -31.6439   25.0683 C   0  0  0  0  0  0  0  0  0126  0  0
  -25.3807  -31.3179   26.1374 C   0  0  0  0  0  0  0  0  0127  0  0
  -27.0530  -30.3024   24.5680 C   0  0  0  0  0  0  0  0  0128  0  0
  -27.6014  -32.4281   25.7651 C   0  0  0  0  0  0  0  0  0129  0  0
  -27.5629  -37.2220   24.8621 C   0  0  0  0  0  0  0  0  0130  0  0
  -21.4133  -29.3375   22.3735 N   0  0  0  0  0  0  0  0  0131  0  0
  -26.4706  -37.3372   23.9061 N   0  0  0  0  0  0  0  0  0132  0  0
  -24.6674  -31.0544   22.1178 N   0  0  0  0  0  0  0  0  0133  0  0
  -23.4259  -28.8150   23.2971 O   0  0  0  0  0  0  0  0  0134  0  0
  -28.3948  -26.7345   20.0089 O   0  0  0  0  0  0  0  0  0135  0  0
  -26.5870  -34.9065   22.4671 O   0  0  0  0  0  0  0  0  0136  0  0
  -23.5365  -32.1254   23.7833 O   0  0  0  0  0  0  0  0  0137  0  0
  -32.4765  -18.8522   20.6446 C   0  0  0  0  0  0  0  0  0  0  0  0
  -31.9169  -17.6206   20.3048 C   0  0  0  0  0  0  0  0  0  0  0  0
  -30.2638  -19.7769   20.9376 C   0  0  0  0  0  0  0  0  0  0  0  0
  -29.7041  -18.5453   20.5977 C   0  0  0  0  0  0  0  0  0  0  0  0
  -31.6500  -19.9304   20.9610 C   0  0  0  0  0  0  0  0  0  0  0  0
  -30.5307  -17.4671   20.2814 C   0  0  0  0  0  0  0  0  0  0  0  0
  -33.4848  -21.2756   21.9479 C   0  0  0  0  0  0  0  0  0  0  0  0
  -34.1432  -22.6416   21.9946 C   0  0  0  0  0  0  0  0  0  0  0  0
  -33.1775  -23.7949   22.1565 C   0  0  0  0  0  0  0  0  0  0  0  0
  -31.3739  -22.3999   21.1849 C   0  0  0  0  0  0  0  0  0  0  0  0
  -32.1333  -23.7194   21.0548 C   0  0  1  0  0  0  0  0  0  0  0  0
  -28.2162  -18.4086   20.5826 C   0  0  0  0  0  0  0  0  0  0  0  0
  -31.1748  -24.9064   21.1255 C   0  0  0  0  0  0  0  0  0  1  0  0
  -32.2310  -21.2075   21.3163 N   0  0  0  0  0  0  0  0  0  0  0  0
  -29.9816  -16.2076   19.9352 N   0  0  0  0  0  0  0  0  0  0  0  0
  -34.1090  -20.3153   22.4073 O   0  0  0  0  0  0  0  0  0  0  0  0
  -31.4485  -12.4701   19.0860 H   0  0  0  0  0  0  0  0  0  0  0  0
  -30.3970  -11.2460   19.6950 H   0  0  0  0  0  0  0  0  0  0  0  0
  -29.6870  -11.8204   17.4226 H   0  0  0  0  0  0  0  0  0  0  0  0
  -29.6375  -13.5326   17.8649 H   0  0  0  0  0  0  0  0  0  0  0  0
  -27.7830  -11.3650   18.7904 H   0  0  0  0  0  0  0  0  0  0  0  0
  -27.4028  -12.7801   17.8021 H   0  0  0  0  0  0  0  0  0  0  0  0
  -27.7353  -14.2503   19.6136 H   0  0  0  0  0  0  0  0  0  0  0  0
  -28.5890  -11.9550   21.3832 H   0  0  0  0  0  0  0  0  0  0  0  0
  -28.5005  -13.6134   21.8562 H   0  0  0  0  0  0  0  0  0  0  0  0
  -25.2399   -9.5495   22.4318 H   0  0  0  0  0  0  0  0  0  0  0  0
  -23.9663   -7.5070   22.7297 H   0  0  0  0  0  0  0  0  0  0  0  0
  -21.1515   -8.8641   19.9162 H   0  0  0  0  0  0  0  0  0  0  0  0
  -22.4016  -10.9115   19.6476 H   0  0  0  0  0  0  0  0  0  0  0  0
  -21.2319   -7.5552   23.9750 H   0  0  0  0  0  0  0  0  0  0  0  0
  -21.1589   -6.0228   25.8556 H   0  0  0  0  0  0  0  0  0  0  0  0
  -22.0396   -2.8212   23.2809 H   0  0  0  0  0  0  0  0  0  0  0  0
  -22.4401  -11.9703   22.4008 H   0  0  0  0  0  0  0  0  0  0  0  0
  -21.1493  -13.0679   22.2082 H   0  0  0  0  0  0  0  0  0  0  0  0
  -24.6538  -15.7807   20.5848 H   0  0  0  0  0  0  0  0  0  0  0  0
  -26.2762  -15.5453   20.1156 H   0  0  0  0  0  0  0  0  0  0  0  0
  -26.6778  -32.4663   23.1464 H   0  0  0  0  0  0  0  0  0  0  0  0
  -25.0747  -34.0282   25.0566 H   0  0  0  0  0  0  0  0  0  0  0  0
  -22.7881  -31.3489   21.4131 H   0  0  0  0  0  0  0  0  0  0  0  0
  -23.3854  -35.9823   23.3648 H   0  0  0  0  0  0  0  0  0  0  0  0
  -24.3696  -36.8624   22.2204 H   0  0  0  0  0  0  0  0  0  0  0  0
  -23.7669  -37.6632   23.6516 H   0  0  0  0  0  0  0  0  0  0  0  0
  -25.9445  -31.6237   20.5691 H   0  0  0  0  0  0  0  0  0  0  0  0
  -26.7436  -31.0079   22.0108 H   0  0  0  0  0  0  0  0  0  0  0  0
  -28.0090  -29.1452   21.2057 H   0  0  0  0  0  0  0  0  0  0  0  0
  -26.1369  -26.0560   19.0719 H   0  0  0  0  0  0  0  0  0  0  0  0
  -24.0652  -27.2961   19.0997 H   0  0  0  0  0  0  0  0  0  0  0  0
  -23.6156  -30.5365   19.3930 H   0  0  0  0  0  0  0  0  0  0  0  0
  -22.7355  -29.1425   19.9945 H   0  0  0  0  0  0  0  0  0  0  0  0
  -25.1353  -36.2335   25.0565 H   0  0  0  0  0  0  0  0  0  0  0  0
  -21.0070  -28.3206   24.0793 H   0  0  0  0  0  0  0  0  0  0  0  0
  -20.5555  -26.2518   23.3550 H   0  0  0  0  0  0  0  0  0  0  0  0
  -21.5974  -26.8362   22.0454 H   0  0  0  0  0  0  0  0  0  0  0  0
  -19.6810  -25.6422   21.1488 H   0  0  0  0  0  0  0  0  0  0  0  0
  -19.6406  -27.3343   20.7034 H   0  0  0  0  0  0  0  0  0  0  0  0
  -17.4282  -26.6888   21.4113 H   0  0  0  0  0  0  0  0  0  0  0  0
  -18.0803  -26.0130   22.9049 H   0  0  0  0  0  0  0  0  0  0  0  0
  -19.7265  -30.6774   24.2204 H   0  0  0  0  0  0  0  0  0  0  0  0
  -17.5064  -31.5856   24.4483 H   0  0  0  0  0  0  0  0  0  0  0  0
  -15.5878  -30.2839   23.7407 H   0  0  0  0  0  0  0  0  0  0  0  0
  -15.9120  -28.0941   22.7766 H   0  0  0  0  0  0  0  0  0  0  0  0
  -24.5787  -30.7757   25.6817 H   0  0  0  0  0  0  0  0  0  0  0  0
  -25.0041  -32.2289   26.5536 H   0  0  0  0  0  0  0  0  0  0  0  0
  -25.8166  -30.7245   26.9138 H   0  0  0  0  0  0  0  0  0  0  0  0
  -26.2892  -29.7335   24.0803 H   0  0  0  0  0  0  0  0  0  0  0  0
  -27.4336  -29.7484   25.4006 H   0  0  0  0  0  0  0  0  0  0  0  0
  -27.8466  -30.4994   23.8779 H   0  0  0  0  0  0  0  0  0  0  0  0
  -27.2251  -33.3632   26.1242 H   0  0  0  0  0  0  0  0  0  0  0  0
  -28.3902  -32.6065   25.0645 H   0  0  0  0  0  0  0  0  0  0  0  0
  -27.9772  -31.8555   26.5872 H   0  0  0  0  0  0  0  0  0  0  0  0
  -28.2744  -38.0016   24.6863 H   0  0  0  0  0  0  0  0  0  0  0  0
  -28.0396  -36.2711   24.7461 H   0  0  0  0  0  0  0  0  0  0  0  0
  -27.1773  -37.3087   25.8564 H   0  0  0  0  0  0  0  0  0  0  0  0
  -20.9627  -29.9365   21.7352 H   0  0  0  0  0  0  0  0  0  0  0  0
  -26.0447  -38.2561   24.0273 H   0  0  0  0  0  0  0  0  0  0  0  0
  -33.5021  -18.9658   20.6619 H   0  0  0  0  0  0  0  0  0  0  0  0
  -32.5284  -16.8229   20.0707 H   0  0  0  0  0  0  0  0  0  0  0  0
  -29.6523  -20.5746   21.1718 H   0  0  0  0  0  0  0  0  0  0  0  0
  -34.6845  -22.7837   21.0826 H   0  0  0  0  0  0  0  0  0  0  0  0
  -34.7740  -22.6475   22.8589 H   0  0  0  0  0  0  0  0  0  0  0  0
  -33.7086  -24.7211   22.0854 H   0  0  0  0  0  0  0  0  0  0  0  0
  -32.7010  -23.7379   23.1128 H   0  0  0  0  0  0  0  0  0  0  0  0
  -30.7647  -22.2784   20.3137 H   0  0  0  0  0  0  0  0  0  0  0  0
  -30.8058  -22.4655   22.0892 H   0  0  0  0  0  0  0  0  0  0  0  0
  -32.6198  -23.7602   20.1026 H   0  0  0  0  0  0  0  0  0  0  0  0
  -27.7695  -19.3427   20.8524 H   0  0  0  0  0  0  0  0  0  0  0  0
  -27.9200  -17.6560   21.2832 H   0  0  0  0  0  0  0  0  0  0  0  0
  -27.8936  -18.1292   19.6014 H   0  0  0  0  0  0  0  0  0  0  0  0
  -31.9027  -25.6873   21.0528 H   0  0  0  0  0  0  0  0  0  0  0  0
  -30.5042  -24.2907   21.6877 H   0  0  0  0  0  0  0  0  0  0  0  0
  -29.2040  -16.1833   19.3318 H   0  0  0  0  0  0  0  0  0  0  0  0
  1 25  1  0
  1 30  2  0
  1 85  1  0
  2  3  1  0
  2 25  1  0
  2 87  1  0
  2 88  1  0
  3  4  1  0
  3 89  1  0
  3 90  1  0
  4  5  1  0
  4 91  1  0
  4 92  1  0
  5  6  1  0
  5 26  1  0
  5 93  1  6
  6 25  1  0
  6 94  1  0
  6 95  1  0
  7  8  2  0
  7 26  1  0
  7 29  1  0
  8  9  1  0
  8 22  1  0
  9 10  1  0
  9 27  2  0
 10 11  2  0
 10 15  1  0
 11 12  1  0
 11 96  1  0
 12 13  2  0
 12 97  1  0
 13 14  1  0
 13 31  1  0
 14 15  2  0
 14 98  1  0
 15 99  1  0
 16 17  2  0
 16 21  1  0
 16 31  1  0
 17 18  1  0
 17100  1  0
 18 19  2  0
 18101  1  0
 19 20  1  0
 19 24  1  0
 20 21  2  0
 20102  1  0
 21 23  1  0
 22 28  1  0
 22 32  2  0
 26 27  1  0
 28103  1  0
 28104  1  0
 29105  1  0
 29106  1  0
 33 34  1  0
 33 66  1  0
 33 70  2  0
 34 36  1  0
 34 59  1  0
 34107  1  6
 35 44  2  0
 35 45  1  0
 35 68  1  0
 36 56  1  0
 36108  1  0
 37 39  1  0
 37 47  1  0
 37 66  1  0
 37109  1  6
 38 43  2  0
 38 46  1  0
 38 47  1  0
 39 64  1  0
 39 67  2  0
 40 52  1  0
 40 53  2  0
 40 58  1  0
 41110  1  0
 41111  1  0
 41112  1  0
 42 43  1  0
 42 66  1  0
 42113  1  0
 42114  1  0
 43 44  1  0
 44115  1  0
 45 46  2  0
 45116  1  0
 46117  1  0
 47118  1  0
 47119  1  0
 48 41  1  0
 48 56  1  0
 48 65  1  0
 48120  1  1
 49 50  1  0
 49 53  1  0
 49 64  1  0
 49121  1  1
 50 51  1  0
 50122  1  0
 50123  1  0
 51 52  1  0
 51124  1  0
 51125  1  0
 52126  1  0
 52127  1  0
 53 54  1  0
 54 55  2  0
 54128  1  0
 55 57  1  0
 55129  1  0
 56 69  2  0
 57 58  2  0
 57130  1  0
 58131  1  0
 59 60  1  0
 59 61  1  0
 59 62  1  0
 60132  1  0
 60133  1  0
 60134  1  0
 61135  1  0
 61136  1  0
 61137  1  0
 62138  1  0
 62139  1  0
 62140  1  0
 63 65  1  0
 63141  1  0
 63142  1  0
 63143  1  0
 64144  1  0
 65145  1  0
 68 83  1  0
 71 72  2  0
 71 75  1  0
 71146  1  0
 72 76  1  0
 72147  1  0
 73 74  1  0
 73 75  2  0
 73148  1  0
 74 76  2  0
 74 82  1  0
 75 84  1  0
 76 85  1  0
 77 78  1  0
 77 84  1  0
 77 86  2  0
 78 79  1  0
 78149  1  0
 78150  1  0
 79 81  1  0
 79151  1  0
 79152  1  0
 80 81  1  0
 80 84  1  0
 80153  1  0
 80154  1  0
 81 83  1  0
 81155  1  6
 82156  1  0
 82157  1  0
 82158  1  0
 83159  1  0
 83160  1  0
 85161  1  0
M  ISO  4   1 100  68 101  83 101  85 100
M  END
$$$$
52
     RDKit          3D

150158  0  0  0  0  0  0  0  0999 V2000
  -30.7652  -14.3608   20.6636 C   0  0  0  0  0  0  0  0  0100  0  0
  -30.4392  -12.2669   19.3775 C   0  0  0  0  0  0  0  0  0101  0  0
  -29.4791  -12.5281   18.1977 C   0  0  0  0  0  0  0  0  0102  0  0
  -27.9985  -12.3963   18.6038 C   0  0  0  0  0  0  0  0  0103  0  0
  -27.6639  -13.2170   19.8820 C   0  0  2  0  0  0  0  0  0104  0  0
  -28.6795  -12.9602   21.0279 C   0  0  0  0  0  0  0  0  0105  0  0
  -25.2633  -13.8245   20.5754 C   0  0  0  0  0  0  0  0  0106  0  0
  -24.1645  -13.0409   20.9408 C   0  0  0  0  0  0  0  0  0107  0  0
  -24.6400  -11.7009   20.8697 C   0  0  0  0  0  0  0  0  0108  0  0
  -23.9005  -10.4085   21.0420 C   0  0  0  0  0  0  0  0  0109  0  0
  -24.3588   -9.4123   21.9123 C   0  0  0  0  0  0  0  0  0110  0  0
  -23.6296   -8.2350   22.0803 C   0  0  0  0  0  0  0  0  0111  0  0
  -22.4385   -8.0419   21.3657 C   0  0  0  0  0  0  0  0  0112  0  0
  -22.0103   -9.0167   20.4678 C   0  0  0  0  0  0  0  0  0113  0  0
  -22.7317  -10.1925   20.3102 C   0  0  0  0  0  0  0  0  0114  0  0
  -21.6857   -6.0709   22.5391 C   0  0  0  0  0  0  0  0  0115  0  0
  -21.4064   -6.5490   23.8264 C   0  0  0  0  0  0  0  0  0116  0  0
  -21.3635   -5.6677   24.9085 C   0  0  0  0  0  0  0  0  0117  0  0
  -21.5973   -4.3067   24.7088 C   0  0  0  0  0  0  0  0  0118  0  0
  -21.8700   -3.8284   23.4282 C   0  0  0  0  0  0  0  0  0119  0  0
  -21.9144   -4.7056   22.3460 C   0  0  0  0  0  0  0  0  0120  0  0
  -22.8194  -13.5263   21.1763 C   0  0  0  0  0  0  0  0  0121  0  0
  -22.1559   -4.2206   21.1063 F   0  0  0  0  0  0  0  0  0122  0  0
  -21.5628   -3.4510   25.7555 F   0  0  0  0  0  0  0  0  0123  0  0
  -30.0261  -13.1803   20.4553 N   0  0  0  0  0  0  0  0  0124  0  0
  -26.2911  -12.9356   20.3443 N   0  0  0  0  0  0  0  0  0125  0  0
  -25.9236  -11.6675   20.5847 N   0  0  0  0  0  0  0  0  0126  0  0
  -22.0708  -12.7905   22.0005 N   0  0  0  0  0  0  0  0  0127  0  0
  -25.4117  -15.1773   20.4097 N   0  0  0  0  0  0  0  0  0128  0  0
  -31.7916  -14.6724   20.0536 O   0  0  0  0  0  0  0  0  0129  0  0
  -21.6670   -6.9022   21.4423 O   0  0  0  0  0  0  0  0  0130  0  0
  -22.3946  -14.5564   20.6568 O   0  0  0  0  0  0  0  0  0131  0  0
  -24.6048  -31.8614   23.2223 C   0  0  0  0  0  0  0  0  0100  0  0
  -25.8822  -32.4841   23.8616 C   0  0  1  0  0  0  0  0  0101  0  0
  -27.2536  -27.5042   20.1156 C   0  0  0  0  0  0  0  0  0102  0  0
  -25.5726  -33.8762   24.2210 N   0  0  0  0  0  0  0  0  0103  0  0
  -23.4066  -30.4859   21.5461 C   0  0  2  0  0  0  0  0  0104  0  0
  -24.8467  -28.9636   20.1247 C   0  0  0  0  0  0  0  0  0105  0  0
  -22.7412  -29.4652   22.5052 C   0  0  0  0  0  0  0  0  0106  0  0
  -18.0167  -28.1302   22.8626 C   0  0  0  0  0  0  0  0  0107  0  0
  -24.1342  -36.7390   23.2568 C   0  0  0  0  0  0  0  0  0108  0  0
  -25.9141  -30.8882   21.3456 C   0  0  0  0  0  0  0  0  0109  0  0
  -25.9930  -29.5029   20.7208 C   0  0  0  0  0  0  0  0  0110  0  0
  -27.1758  -28.7612   20.7331 C   0  0  0  0  0  0  0  0  0111  0  0
  -26.1032  -26.9836   19.5230 C   0  0  0  0  0  0  0  0  0112  0  0
  -24.9097  -27.7011   19.5331 C   0  0  0  0  0  0  0  0  0113  0  0
  -23.5715  -29.7899   20.1582 C   0  0  0  0  0  0  0  0  0114  0  0
  -25.3990  -36.3212   24.0232 C   0  0  1  0  0  0  0  0  0115  0  0
  -20.5793  -28.3813   23.1004 C   0  0  2  0  0  0  0  0  0116  0  0
  -20.6548  -26.9392   22.5411 C   0  0  0  0  0  0  0  0  0117  0  0
  -19.5615  -26.6407   21.5143 C   0  0  0  0  0  0  0  0  0118  0  0
  -18.1797  -26.7818   22.1673 C   0  0  0  0  0  0  0  0  0119  0  0
  -19.1385  -28.8769   23.2988 C   0  0  0  0  0  0  0  0  0120  0  0
  -18.9183  -30.1286   23.8878 C   0  0  0  0  0  0  0  0  0121  0  0
  -17.6396  -30.6493   24.0352 C   0  0  0  0  0  0  0  0  0122  0  0
  -25.9153  -34.9582   23.4993 C   0  0  0  0  0  0  0  0  0123  0  0
  -16.5415  -29.9068   23.6254 C   0  0  0  0  0  0  0  0  0124  0  0
  -16.7331  -28.6521   23.0586 C   0  0  0  0  0  0  0  0  0125  0  0
  -26.4583  -31.6439   25.0683 C   0  0  0  0  0  0  0  0  0126  0  0
  -25.3807  -31.3179   26.1374 C   0  0  0  0  0  0  0  0  0127  0  0
  -27.0530  -30.3024   24.5680 C   0  0  0  0  0  0  0  0  0128  0  0
  -27.6014  -32.4281   25.7651 C   0  0  0  0  0  0  0  0  0129  0  0
  -27.5629  -37.2220   24.8621 C   0  0  0  0  0  0  0  0  0130  0  0
  -21.4133  -29.3375   22.3735 N   0  0  0  0  0  0  0  0  0131  0  0
  -26.4706  -37.3372   23.9061 N   0  0  0  0  0  0  0  0  0132  0  0
  -24.6674  -31.0544   22.1178 N   0  0  0  0  0  0  0  0  0133  0  0
  -23.4259  -28.8150   23.2971 O   0  0  0  0  0  0  0  0  0134  0  0
  -28.3948  -26.7345   20.0089 O   0  0  0  0  0  0  0  0  0135  0  0
  -26.5870  -34.9065   22.4671 O   0  0  0  0  0  0  0  0  0136  0  0
  -23.5365  -32.1254   23.7833 O   0  0  0  0  0  0  0  0  0137  0  0
  -26.5230  -18.4562   15.3889 C   0  0  0  0  0  0  0  0  0  0  0  0
  -27.2704  -18.0188   16.4824 C   0  0  0  0  0  0  0  0  0  0  0  0
  -26.2453  -19.8141   15.2322 C   0  0  0  0  0  0  0  0  0  0  0  0
  -27.4621  -20.2974   17.2626 C   0  0  0  0  0  0  0  0  0  0  0  0
  -27.7399  -18.9394   17.4193 C   0  0  0  0  0  0  0  0  0  0  0  0
  -26.7147  -20.7347   16.1691 C   0  0  0  0  0  0  0  0  0  0  0  0
  -28.5364  -18.4737   18.5843 C   0  0  0  0  0  0  0  0  0  0  0  0
  -25.2512  -22.5891   15.3659 C   0  0  0  0  0  0  0  0  0  0  0  0
  -28.4459  -19.2732   19.8754 C   0  0  0  0  0  0  0  0  0  1  0  0
  -29.2565  -17.3998   18.4385 N   0  0  0  0  0  0  0  0  0  0  0  0
  -26.4337  -22.1075   16.0105 N   0  0  0  0  0  0  0  0  0  0  0  0
  -31.4485  -12.4701   19.0860 H   0  0  0  0  0  0  0  0  0  0  0  0
  -30.3970  -11.2460   19.6950 H   0  0  0  0  0  0  0  0  0  0  0  0
  -29.6870  -11.8204   17.4226 H   0  0  0  0  0  0  0  0  0  0  0  0
  -29.6375  -13.5326   17.8649 H   0  0  0  0  0  0  0  0  0  0  0  0
  -27.7830  -11.3650   18.7904 H   0  0  0  0  0  0  0  0  0  0  0  0
  -27.4028  -12.7801   17.8021 H   0  0  0  0  0  0  0  0  0  0  0  0
  -27.7353  -14.2503   19.6136 H   0  0  0  0  0  0  0  0  0  0  0  0
  -28.5890  -11.9550   21.3832 H   0  0  0  0  0  0  0  0  0  0  0  0
  -28.5005  -13.6134   21.8562 H   0  0  0  0  0  0  0  0  0  0  0  0
  -25.2399   -9.5495   22.4318 H   0  0  0  0  0  0  0  0  0  0  0  0
  -23.9663   -7.5070   22.7297 H   0  0  0  0  0  0  0  0  0  0  0  0
  -21.1515   -8.8641   19.9162 H   0  0  0  0  0  0  0  0  0  0  0  0
  -22.4016  -10.9115   19.6476 H   0  0  0  0  0  0  0  0  0  0  0  0
  -21.2319   -7.5552   23.9750 H   0  0  0  0  0  0  0  0  0  0  0  0
  -21.1589   -6.0228   25.8556 H   0  0  0  0  0  0  0  0  0  0  0  0
  -22.0396   -2.8212   23.2809 H   0  0  0  0  0  0  0  0  0  0  0  0
  -22.4401  -11.9703   22.4008 H   0  0  0  0  0  0  0  0  0  0  0  0
  -21.1493  -13.0679   22.2082 H   0  0  0  0  0  0  0  0  0  0  0  0
  -24.6538  -15.7807   20.5848 H   0  0  0  0  0  0  0  0  0  0  0  0
  -26.2762  -15.5453   20.1156 H   0  0  0  0  0  0  0  0  0  0  0  0
  -26.6778  -32.4663   23.1464 H   0  0  0  0  0  0  0  0  0  0  0  0
  -25.0747  -34.0282   25.0566 H   0  0  0  0  0  0  0  0  0  0  0  0
  -22.7881  -31.3489   21.4131 H   0  0  0  0  0  0  0  0  0  0  0  0
  -23.3854  -35.9823   23.3648 H   0  0  0  0  0  0  0  0  0  0  0  0
  -24.3696  -36.8624   22.2204 H   0  0  0  0  0  0  0  0  0  0  0  0
  -23.7669  -37.6632   23.6516 H   0  0  0  0  0  0  0  0  0  0  0  0
  -25.9445  -31.6237   20.5691 H   0  0  0  0  0  0  0  0  0  0  0  0
  -26.7436  -31.0079   22.0108 H   0  0  0  0  0  0  0  0  0  0  0  0
  -28.0090  -29.1452   21.2057 H   0  0  0  0  0  0  0  0  0  0  0  0
  -26.1369  -26.0560   19.0719 H   0  0  0  0  0  0  0  0  0  0  0  0
  -24.0652  -27.2961   19.0997 H   0  0  0  0  0  0  0  0  0  0  0  0
  -23.6156  -30.5365   19.3930 H   0  0  0  0  0  0  0  0  0  0  0  0
  -22.7355  -29.1425   19.9945 H   0  0  0  0  0  0  0  0  0  0  0  0
  -25.1353  -36.2335   25.0565 H   0  0  0  0  0  0  0  0  0  0  0  0
  -21.0070  -28.3206   24.0793 H   0  0  0  0  0  0  0  0  0  0  0  0
  -20.5555  -26.2518   23.3550 H   0  0  0  0  0  0  0  0  0  0  0  0
  -21.5974  -26.8362   22.0454 H   0  0  0  0  0  0  0  0  0  0  0  0
  -19.6810  -25.6422   21.1488 H   0  0  0  0  0  0  0  0  0  0  0  0
  -19.6406  -27.3343   20.7034 H   0  0  0  0  0  0  0  0  0  0  0  0
  -17.4282  -26.6888   21.4113 H   0  0  0  0  0  0  0  0  0  0  0  0
  -18.0803  -26.0130   22.9049 H   0  0  0  0  0  0  0  0  0  0  0  0
  -19.7265  -30.6774   24.2204 H   0  0  0  0  0  0  0  0  0  0  0  0
  -17.5064  -31.5856   24.4483 H   0  0  0  0  0  0  0  0  0  0  0  0
  -15.5878  -30.2839   23.7407 H   0  0  0  0  0  0  0  0  0  0  0  0
  -15.9120  -28.0941   22.7766 H   0  0  0  0  0  0  0  0  0  0  0  0
  -24.5787  -30.7757   25.6817 H   0  0  0  0  0  0  0  0  0  0  0  0
  -25.0041  -32.2289   26.5536 H   0  0  0  0  0  0  0  0  0  0  0  0
  -25.8166  -30.7245   26.9138 H   0  0  0  0  0  0  0  0  0  0  0  0
  -26.2892  -29.7335   24.0803 H   0  0  0  0  0  0  0  0  0  0  0  0
  -27.4336  -29.7484   25.4006 H   0  0  0  0  0  0  0  0  0  0  0  0
  -27.8466  -30.4994   23.8779 H   0  0  0  0  0  0  0  0  0  0  0  0
  -27.2251  -33.3632   26.1242 H   0  0  0  0  0  0  0  0  0  0  0  0
  -28.3902  -32.6065   25.0645 H   0  0  0  0  0  0  0  0  0  0  0  0
  -27.9772  -31.8555   26.5872 H   0  0  0  0  0  0  0  0  0  0  0  0
  -28.2744  -38.0016   24.6863 H   0  0  0  0  0  0  0  0  0  0  0  0
  -28.0396  -36.2711   24.7461 H   0  0  0  0  0  0  0  0  0  0  0  0
  -27.1773  -37.3087   25.8564 H   0  0  0  0  0  0  0  0  0  0  0  0
  -20.9627  -29.9365   21.7352 H   0  0  0  0  0  0  0  0  0  0  0  0
  -26.0447  -38.2561   24.0273 H   0  0  0  0  0  0  0  0  0  0  0  0
  -26.1755  -17.7751   14.6958 H   0  0  0  0  0  0  0  0  0  0  0  0
  -27.4760  -17.0141   16.5983 H   0  0  0  0  0  0  0  0  0  0  0  0
  -25.6925  -20.1377   14.4230 H   0  0  0  0  0  0  0  0  0  0  0  0
  -27.8096  -20.9785   17.9557 H   0  0  0  0  0  0  0  0  0  0  0  0
  -25.2565  -23.6591   15.3642 H   0  0  0  0  0  0  0  0  0  0  0  0
  -24.3891  -22.2376   15.8933 H   0  0  0  0  0  0  0  0  0  0  0  0
  -25.2233  -22.2309   14.3580 H   0  0  0  0  0  0  0  0  0  0  0  0
  -29.2837  -18.9723   20.4691 H   0  0  0  0  0  0  0  0  0  0  0  0
  -27.4535  -19.0439   20.2031 H   0  0  0  0  0  0  0  0  0  0  0  0
  -27.0800  -22.7634   16.3589 H   0  0  0  0  0  0  0  0  0  0  0  0
  1 25  1  0
  1 30  2  0
  1 80  1  0
  2  3  1  0
  2 25  1  0
  2 82  1  0
  2 83  1  0
  3  4  1  0
  3 84  1  0
  3 85  1  0
  4  5  1  0
  4 86  1  0
  4 87  1  0
  5  6  1  0
  5 26  1  0
  5 88  1  6
  6 25  1  0
  6 89  1  0
  6 90  1  0
  7  8  2  0
  7 26  1  0
  7 29  1  0
  8  9  1  0
  8 22  1  0
  9 10  1  0
  9 27  2  0
 10 11  2  0
 10 15  1  0
 11 12  1  0
 11 91  1  0
 12 13  2  0
 12 92  1  0
 13 14  1  0
 13 31  1  0
 14 15  2  0
 14 93  1  0
 15 94  1  0
 16 17  2  0
 16 21  1  0
 16 31  1  0
 17 18  1  0
 17 95  1  0
 18 19  2  0
 18 96  1  0
 19 20  1  0
 19 24  1  0
 20 21  2  0
 20 97  1  0
 21 23  1  0
 22 28  1  0
 22 32  2  0
 26 27  1  0
 28 98  1  0
 28 99  1  0
 29100  1  0
 29101  1  0
 33 34  1  0
 33 66  1  0
 33 70  2  0
 34 36  1  0
 34 59  1  0
 34102  1  6
 35 44  2  0
 35 45  1  0
 35 68  1  0
 36 56  1  0
 36103  1  0
 37 39  1  0
 37 47  1  0
 37 66  1  0
 37104  1  6
 38 43  2  0
 38 46  1  0
 38 47  1  0
 39 64  1  0
 39 67  2  0
 40 52  1  0
 40 53  2  0
 40 58  1  0
 41105  1  0
 41106  1  0
 41107  1  0
 42 43  1  0
 42 66  1  0
 42108  1  0
 42109  1  0
 43 44  1  0
 44110  1  0
 45 46  2  0
 45111  1  0
 46112  1  0
 47113  1  0
 47114  1  0
 48 41  1  0
 48 56  1  0
 48 65  1  0
 48115  1  1
 49 50  1  0
 49 53  1  0
 49 64  1  0
 49116  1  1
 50 51  1  0
 50117  1  0
 50118  1  0
 51 52  1  0
 51119  1  0
 51120  1  0
 52121  1  0
 52122  1  0
 53 54  1  0
 54 55  2  0
 54123  1  0
 55 57  1  0
 55124  1  0
 56 69  2  0
 57 58  2  0
 57125  1  0
 58126  1  0
 59 60  1  0
 59 61  1  0
 59 62  1  0
 60127  1  0
 60128  1  0
 60129  1  0
 61130  1  0
 61131  1  0
 61132  1  0
 62133  1  0
 62134  1  0
 62135  1  0
 63 65  1  0
 63136  1  0
 63137  1  0
 63138  1  0
 64139  1  0
 65140  1  0
 68 79  1  0
 71 72  2  0
 71 73  1  0
 71141  1  0
 72 75  1  0
 72142  1  0
 73 76  2  0
 73143  1  0
 74 75  2  0
 74 76  1  0
 74144  1  0
 75 77  1  0
 76 81  1  0
 77 79  1  0
 77 80  2  0
 78 81  1  0
 78145  1  0
 78146  1  0
 78147  1  0
 79148  1  0
 79149  1  0
 81150  1  0
M  ISO  4   1 100  68 101  79 101  80 100
M  END
$$$$
53
     RDKit          3D

158167  0  0  0  0  0  0  0  0999 V2000
  -30.7652  -14.3608   20.6636 C   0  0  0  0  0  0  0  0  0100  0  0
  -30.4392  -12.2669   19.3775 C   0  0  0  0  0  0  0  0  0101  0  0
  -29.4791  -12.5281   18.1977 C   0  0  0  0  0  0  0  0  0102  0  0
  -27.9985  -12.3963   18.6038 C   0  0  0  0  0  0  0  0  0103  0  0
  -27.6639  -13.2170   19.8820 C   0  0  2  0  0  0  0  0  0104  0  0
  -28.6795  -12.9602   21.0279 C   0  0  0  0  0  0  0  0  0105  0  0
  -25.2633  -13.8245   20.5754 C   0  0  0  0  0  0  0  0  0106  0  0
  -24.1645  -13.0409   20.9408 C   0  0  0  0  0  0  0  0  0107  0  0
  -24.6400  -11.7009   20.8697 C   0  0  0  0  0  0  0  0  0108  0  0
  -23.9005  -10.4085   21.0420 C   0  0  0  0  0  0  0  0  0109  0  0
  -24.3588   -9.4123   21.9123 C   0  0  0  0  0  0  0  0  0110  0  0
  -23.6296   -8.2350   22.0803 C   0  0  0  0  0  0  0  0  0111  0  0
  -22.4385   -8.0419   21.3657 C   0  0  0  0  0  0  0  0  0112  0  0
  -22.0103   -9.0167   20.4678 C   0  0  0  0  0  0  0  0  0113  0  0
  -22.7317  -10.1925   20.3102 C   0  0  0  0  0  0  0  0  0114  0  0
  -21.6857   -6.0709   22.5391 C   0  0  0  0  0  0  0  0  0115  0  0
  -21.4064   -6.5490   23.8264 C   0  0  0  0  0  0  0  0  0116  0  0
  -21.3635   -5.6677   24.9085 C   0  0  0  0  0  0  0  0  0117  0  0
  -21.5973   -4.3067   24.7088 C   0  0  0  0  0  0  0  0  0118  0  0
  -21.8700   -3.8284   23.4282 C   0  0  0  0  0  0  0  0  0119  0  0
  -21.9144   -4.7056   22.3460 C   0  0  0  0  0  0  0  0  0120  0  0
  -22.8194  -13.5263   21.1763 C   0  0  0  0  0  0  0  0  0121  0  0
  -22.1559   -4.2206   21.1063 F   0  0  0  0  0  0  0  0  0122  0  0
  -21.5628   -3.4510   25.7555 F   0  0  0  0  0  0  0  0  0123  0  0
  -30.0261  -13.1803   20.4553 N   0  0  0  0  0  0  0  0  0124  0  0
  -26.2911  -12.9356   20.3443 N   0  0  0  0  0  0  0  0  0125  0  0
  -25.9236  -11.6675   20.5847 N   0  0  0  0  0  0  0  0  0126  0  0
  -22.0708  -12.7905   22.0005 N   0  0  0  0  0  0  0  0  0127  0  0
  -25.4117  -15.1773   20.4097 N   0  0  0  0  0  0  0  0  0128  0  0
  -31.7916  -14.6724   20.0536 O   0  0  0  0  0  0  0  0  0129  0  0
  -21.6670   -6.9022   21.4423 O   0  0  0  0  0  0  0  0  0130  0  0
  -22.3946  -14.5564   20.6568 O   0  0  0  0  0  0  0  0  0131  0  0
  -24.6048  -31.8614   23.2223 C   0  0  0  0  0  0  0  0  0100  0  0
  -25.8822  -32.4841   23.8616 C   0  0  1  0  0  0  0  0  0101  0  0
  -27.2536  -27.5042   20.1156 C   0  0  0  0  0  0  0  0  0102  0  0
  -25.5726  -33.8762   24.2210 N   0  0  0  0  0  0  0  0  0103  0  0
  -23.4066  -30.4859   21.5461 C   0  0  2  0  0  0  0  0  0104  0  0
  -24.8467  -28.9636   20.1247 C   0  0  0  0  0  0  0  0  0105  0  0
  -22.7412  -29.4652   22.5052 C   0  0  0  0  0  0  0  0  0106  0  0
  -18.0167  -28.1302   22.8626 C   0  0  0  0  0  0  0  0  0107  0  0
  -24.1342  -36.7390   23.2568 C   0  0  0  0  0  0  0  0  0108  0  0
  -25.9141  -30.8882   21.3456 C   0  0  0  0  0  0  0  0  0109  0  0
  -25.9930  -29.5029   20.7208 C   0  0  0  0  0  0  0  0  0110  0  0
  -27.1758  -28.7612   20.7331 C   0  0  0  0  0  0  0  0  0111  0  0
  -26.1032  -26.9836   19.5230 C   0  0  0  0  0  0  0  0  0112  0  0
  -24.9097  -27.7011   19.5331 C   0  0  0  0  0  0  0  0  0113  0  0
  -23.5715  -29.7899   20.1582 C   0  0  0  0  0  0  0  0  0114  0  0
  -25.3990  -36.3212   24.0232 C   0  0  1  0  0  0  0  0  0115  0  0
  -20.5793  -28.3813   23.1004 C   0  0  2  0  0  0  0  0  0116  0  0
  -20.6548  -26.9392   22.5411 C   0  0  0  0  0  0  0  0  0117  0  0
  -19.5615  -26.6407   21.5143 C   0  0  0  0  0  0  0  0  0118  0  0
  -18.1797  -26.7818   22.1673 C   0  0  0  0  0  0  0  0  0119  0  0
  -19.1385  -28.8769   23.2988 C   0  0  0  0  0  0  0  0  0120  0  0
  -18.9183  -30.1286   23.8878 C   0  0  0  0  0  0  0  0  0121  0  0
  -17.6396  -30.6493   24.0352 C   0  0  0  0  0  0  0  0  0122  0  0
  -25.9153  -34.9582   23.4993 C   0  0  0  0  0  0  0  0  0123  0  0
  -16.5415  -29.9068   23.6254 C   0  0  0  0  0  0  0  0  0124  0  0
  -16.7331  -28.6521   23.0586 C   0  0  0  0  0  0  0  0  0125  0  0
  -26.4583  -31.6439   25.0683 C   0  0  0  0  0  0  0  0  0126  0  0
  -25.3807  -31.3179   26.1374 C   0  0  0  0  0  0  0  0  0127  0  0
  -27.0530  -30.3024   24.5680 C   0  0  0  0  0  0  0  0  0128  0  0
  -27.6014  -32.4281   25.7651 C   0  0  0  0  0  0  0  0  0129  0  0
  -27.5629  -37.2220   24.8621 C   0  0  0  0  0  0  0  0  0130  0  0
  -21.4133  -29.3375   22.3735 N   0  0  0  0  0  0  0  0  0131  0  0
  -26.4706  -37.3372   23.9061 N   0  0  0  0  0  0  0  0  0132  0  0
  -24.6674  -31.0544   22.1178 N   0  0  0  0  0  0  0  0  0133  0  0
  -23.4259  -28.8150   23.2971 O   0  0  0  0  0  0  0  0  0134  0  0
  -28.3948  -26.7345   20.0089 O   0  0  0  0  0  0  0  0  0135  0  0
  -26.5870  -34.9065   22.4671 O   0  0  0  0  0  0  0  0  0136  0  0
  -23.5365  -32.1254   23.7833 O   0  0  0  0  0  0  0  0  0137  0  0
  -28.1920  -19.7064   20.1120 C   0  0  0  0  0  0  0  0  0  0  0  0
  -30.2603  -19.2172   21.2608 C   0  0  0  0  0  0  0  0  0  0  0  0
  -28.1971  -18.2023   22.0027 C   0  0  0  0  0  0  0  0  0  0  0  0
  -29.5691  -19.8816   20.2477 C   0  0  0  0  0  0  0  0  0  0  0  0
  -27.5060  -18.8668   20.9895 C   0  0  0  0  0  0  0  0  0  0  0  0
  -29.5742  -18.3775   22.1383 C   0  0  0  0  0  0  0  0  0  0  0  0
  -30.2929  -20.7693   19.3239 C   0  0  0  0  0  0  0  0  0  0  0  0
  -29.7464  -24.3266   18.5182 C   0  0  0  0  0  0  0  0  0  0  0  0
  -30.5789  -23.0581   18.4134 C   0  0  0  0  0  0  0  0  0  0  0  0
  -28.9004  -22.7589   20.1104 C   0  0  0  0  0  0  0  0  0  0  0  0
  -29.1827  -24.2505   19.9390 C   0  0  2  0  0  0  0  0  0  0  0  0
  -27.9567  -25.1219   20.1446 C   0  0  0  0  0  0  0  0  0  1  0  0
  -29.9131  -22.1021   19.2856 N   0  0  0  0  0  0  0  0  0  0  0  0
  -26.1070  -18.6885   20.8519 N   0  0  0  0  0  0  0  0  0  0  0  0
  -31.1954  -20.2718   18.6533 O   0  0  0  0  0  0  0  0  0  0  0  0
  -30.2373  -17.7417   23.1131 F   0  0  0  0  0  0  0  0  0  0  0  0
  -31.4485  -12.4701   19.0860 H   0  0  0  0  0  0  0  0  0  0  0  0
  -30.3970  -11.2460   19.6950 H   0  0  0  0  0  0  0  0  0  0  0  0
  -29.6870  -11.8204   17.4226 H   0  0  0  0  0  0  0  0  0  0  0  0
  -29.6375  -13.5326   17.8649 H   0  0  0  0  0  0  0  0  0  0  0  0
  -27.7830  -11.3650   18.7904 H   0  0  0  0  0  0  0  0  0  0  0  0
  -27.4028  -12.7801   17.8021 H   0  0  0  0  0  0  0  0  0  0  0  0
  -27.7353  -14.2503   19.6136 H   0  0  0  0  0  0  0  0  0  0  0  0
  -28.5890  -11.9550   21.3832 H   0  0  0  0  0  0  0  0  0  0  0  0
  -28.5005  -13.6134   21.8562 H   0  0  0  0  0  0  0  0  0  0  0  0
  -25.2399   -9.5495   22.4318 H   0  0  0  0  0  0  0  0  0  0  0  0
  -23.9663   -7.5070   22.7297 H   0  0  0  0  0  0  0  0  0  0  0  0
  -21.1515   -8.8641   19.9162 H   0  0  0  0  0  0  0  0  0  0  0  0
  -22.4016  -10.9115   19.6476 H   0  0  0  0  0  0  0  0  0  0  0  0
  -21.2319   -7.5552   23.9750 H   0  0  0  0  0  0  0  0  0  0  0  0
  -21.1589   -6.0228   25.8556 H   0  0  0  0  0  0  0  0  0  0  0  0
  -22.0396   -2.8212   23.2809 H   0  0  0  0  0  0  0  0  0  0  0  0
  -22.4401  -11.9703   22.4008 H   0  0  0  0  0  0  0  0  0  0  0  0
  -21.1493  -13.0679   22.2082 H   0  0  0  0  0  0  0  0  0  0  0  0
  -24.6538  -15.7807   20.5848 H   0  0  0  0  0  0  0  0  0  0  0  0
  -26.2762  -15.5453   20.1156 H   0  0  0  0  0  0  0  0  0  0  0  0
  -26.6778  -32.4663   23.1464 H   0  0  0  0  0  0  0  0  0  0  0  0
  -25.0747  -34.0282   25.0566 H   0  0  0  0  0  0  0  0  0  0  0  0
  -22.7881  -31.3489   21.4131 H   0  0  0  0  0  0  0  0  0  0  0  0
  -23.3854  -35.9823   23.3648 H   0  0  0  0  0  0  0  0  0  0  0  0
  -24.3696  -36.8624   22.2204 H   0  0  0  0  0  0  0  0  0  0  0  0
  -23.7669  -37.6632   23.6516 H   0  0  0  0  0  0  0  0  0  0  0  0
  -25.9445  -31.6237   20.5691 H   0  0  0  0  0  0  0  0  0  0  0  0
  -26.7436  -31.0079   22.0108 H   0  0  0  0  0  0  0  0  0  0  0  0
  -28.0090  -29.1452   21.2057 H   0  0  0  0  0  0  0  0  0  0  0  0
  -26.1369  -26.0560   19.0719 H   0  0  0  0  0  0  0  0  0  0  0  0
  -24.0652  -27.2961   19.0997 H   0  0  0  0  0  0  0  0  0  0  0  0
  -23.6156  -30.5365   19.3930 H   0  0  0  0  0  0  0  0  0  0  0  0
  -22.7355  -29.1425   19.9945 H   0  0  0  0  0  0  0  0  0  0  0  0
  -25.1353  -36.2335   25.0565 H   0  0  0  0  0  0  0  0  0  0  0  0
  -21.0070  -28.3206   24.0793 H   0  0  0  0  0  0  0  0  0  0  0  0
  -20.5555  -26.2518   23.3550 H   0  0  0  0  0  0  0  0  0  0  0  0
  -21.5974  -26.8362   22.0454 H   0  0  0  0  0  0  0  0  0  0  0  0
  -19.6810  -25.6422   21.1488 H   0  0  0  0  0  0  0  0  0  0  0  0
  -19.6406  -27.3343   20.7034 H   0  0  0  0  0  0  0  0  0  0  0  0
  -17.4282  -26.6888   21.4113 H   0  0  0  0  0  0  0  0  0  0  0  0
  -18.0803  -26.0130   22.9049 H   0  0  0  0  0  0  0  0  0  0  0  0
  -19.7265  -30.6774   24.2204 H   0  0  0  0  0  0  0  0  0  0  0  0
  -17.5064  -31.5856   24.4483 H   0  0  0  0  0  0  0  0  0  0  0  0
  -15.5878  -30.2839   23.7407 H   0  0  0  0  0  0  0  0  0  0  0  0
  -15.9120  -28.0941   22.7766 H   0  0  0  0  0  0  0  0  0  0  0  0
  -24.5787  -30.7757   25.6817 H   0  0  0  0  0  0  0  0  0  0  0  0
  -25.0041  -32.2289   26.5536 H   0  0  0  0  0  0  0  0  0  0  0  0
  -25.8166  -30.7245   26.9138 H   0  0  0  0  0  0  0  0  0  0  0  0
  -26.2892  -29.7335   24.0803 H   0  0  0  0  0  0  0  0  0  0  0  0
  -27.4336  -29.7484   25.4006 H   0  0  0  0  0  0  0  0  0  0  0  0
  -27.8466  -30.4994   23.8779 H   0  0  0  0  0  0  0  0  0  0  0  0
  -27.2251  -33.3632   26.1242 H   0  0  0  0  0  0  0  0  0  0  0  0
  -28.3902  -32.6065   25.0645 H   0  0  0  0  0  0  0  0  0  0  0  0
  -27.9772  -31.8555   26.5872 H   0  0  0  0  0  0  0  0  0  0  0  0
  -28.2744  -38.0016   24.6863 H   0  0  0  0  0  0  0  0  0  0  0  0
  -28.0396  -36.2711   24.7461 H   0  0  0  0  0  0  0  0  0  0  0  0
  -27.1773  -37.3087   25.8564 H   0  0  0  0  0  0  0  0  0  0  0  0
  -20.9627  -29.9365   21.7352 H   0  0  0  0  0  0  0  0  0  0  0  0
  -26.0447  -38.2561   24.0273 H   0  0  0  0  0  0  0  0  0  0  0  0
  -27.6807  -20.1980   19.3624 H   0  0  0  0  0  0  0  0  0  0  0  0
  -31.2792  -19.3468   21.3612 H   0  0  0  0  0  0  0  0  0  0  0  0
  -27.6895  -17.5811   22.6519 H   0  0  0  0  0  0  0  0  0  0  0  0
  -28.9604  -24.3321   17.7922 H   0  0  0  0  0  0  0  0  0  0  0  0
  -30.3097  -25.2176   18.3347 H   0  0  0  0  0  0  0  0  0  0  0  0
  -31.5805  -23.2364   18.7448 H   0  0  0  0  0  0  0  0  0  0  0  0
  -30.6497  -22.7040   17.4062 H   0  0  0  0  0  0  0  0  0  0  0  0
  -27.9164  -22.5174   19.7663 H   0  0  0  0  0  0  0  0  0  0  0  0
  -28.9436  -22.4498   21.1339 H   0  0  0  0  0  0  0  0  0  0  0  0
  -29.8582  -24.6322   20.6759 H   0  0  0  0  0  0  0  0  0  0  0  0
  -27.5498  -24.9426   21.1178 H   0  0  0  0  0  0  0  0  0  0  0  0
  -27.2211  -24.8865   19.4041 H   0  0  0  0  0  0  0  0  0  0  0  0
  -25.1707  -18.9904   20.8151 H   0  0  0  0  0  0  0  0  0  0  0  0
  1 25  1  0
  1 30  2  0
  1 84  1  0
  2  3  1  0
  2 25  1  0
  2 87  1  0
  2 88  1  0
  3  4  1  0
  3 89  1  0
  3 90  1  0
  4  5  1  0
  4 91  1  0
  4 92  1  0
  5  6  1  0
  5 26  1  0
  5 93  1  6
  6 25  1  0
  6 94  1  0
  6 95  1  0
  7  8  2  0
  7 26  1  0
  7 29  1  0
  8  9  1  0
  8 22  1  0
  9 10  1  0
  9 27  2  0
 10 11  2  0
 10 15  1  0
 11 12  1  0
 11 96  1  0
 12 13  2  0
 12 97  1  0
 13 14  1  0
 13 31  1  0
 14 15  2  0
 14 98  1  0
 15 99  1  0
 16 17  2  0
 16 21  1  0
 16 31  1  0
 17 18  1  0
 17100  1  0
 18 19  2  0
 18101  1  0
 19 20  1  0
 19 24  1  0
 20 21  2  0
 20102  1  0
 21 23  1  0
 22 28  1  0
 22 32  2  0
 26 27  1  0
 28103  1  0
 28104  1  0
 29105  1  0
 29106  1  0
 33 34  1  0
 33 66  1  0
 33 70  2  0
 34 36  1  0
 34 59  1  0
 34107  1  6
 35 44  2  0
 35 45  1  0
 35 68  1  0
 36 56  1  0
 36108  1  0
 37 39  1  0
 37 47  1  0
 37 66  1  0
 37109  1  6
 38 43  2  0
 38 46  1  0
 38 47  1  0
 39 64  1  0
 39 67  2  0
 40 52  1  0
 40 53  2  0
 40 58  1  0
 41110  1  0
 41111  1  0
 41112  1  0
 42 43  1  0
 42 66  1  0
 42113  1  0
 42114  1  0
 43 44  1  0
 44115  1  0
 45 46  2  0
 45116  1  0
 46117  1  0
 47118  1  0
 47119  1  0
 48 41  1  0
 48 56  1  0
 48 65  1  0
 48120  1  1
 49 50  1  0
 49 53  1  0
 49 64  1  0
 49121  1  1
 50 51  1  0
 50122  1  0
 50123  1  0
 51 52  1  0
 51124  1  0
 51125  1  0
 52126  1  0
 52127  1  0
 53 54  1  0
 54 55  2  0
 54128  1  0
 55 57  1  0
 55129  1  0
 56 69  2  0
 57 58  2  0
 57130  1  0
 58131  1  0
 59 60  1  0
 59 61  1  0
 59 62  1  0
 60132  1  0
 60133  1  0
 60134  1  0
 61135  1  0
 61136  1  0
 61137  1  0
 62138  1  0
 62139  1  0
 62140  1  0
 63 65  1  0
 63141  1  0
 63142  1  0
 63143  1  0
 64144  1  0
 65145  1  0
 68 82  1  0
 71 74  2  0
 71 75  1  0
 71146  1  0
 72 74  1  0
 72 76  2  0
 72147  1  0
 73 75  2  0
 73 76  1  0
 73148  1  0
 74 77  1  0
 75 84  1  0
 76 86  1  0
 77 83  1  0
 77 85  2  0
 78 79  1  0
 78 81  1  0
 78149  1  0
 78150  1  0
 79 83  1  0
 79151  1  0
 79152  1  0
 80 81  1  0
 80 83  1  0
 80153  1  0
 80154  1  0
 81 82  1  0
 81155  1  1
 82156  1  0
 82157  1  0
 84158  1  0
M  ISO  4   1 100  68 101  82 101  84 100
M  END
$$$$
54
     RDKit          3D

158167  0  0  0  0  0  0  0  0999 V2000
  -30.7652  -14.3608   20.6636 C   0  0  0  0  0  0  0  0  0100  0  0
  -30.4392  -12.2669   19.3775 C   0  0  0  0  0  0  0  0  0101  0  0
  -29.4791  -12.5281   18.1977 C   0  0  0  0  0  0  0  0  0102  0  0
  -27.9985  -12.3963   18.6038 C   0  0  0  0  0  0  0  0  0103  0  0
  -27.6639  -13.2170   19.8820 C   0  0  2  0  0  0  0  0  0104  0  0
  -28.6795  -12.9602   21.0279 C   0  0  0  0  0  0  0  0  0105  0  0
  -25.2633  -13.8245   20.5754 C   0  0  0  0  0  0  0  0  0106  0  0
  -24.1645  -13.0409   20.9408 C   0  0  0  0  0  0  0  0  0107  0  0
  -24.6400  -11.7009   20.8697 C   0  0  0  0  0  0  0  0  0108  0  0
  -23.9005  -10.4085   21.0420 C   0  0  0  0  0  0  0  0  0109  0  0
  -24.3588   -9.4123   21.9123 C   0  0  0  0  0  0  0  0  0110  0  0
  -23.6296   -8.2350   22.0803 C   0  0  0  0  0  0  0  0  0111  0  0
  -22.4385   -8.0419   21.3657 C   0  0  0  0  0  0  0  0  0112  0  0
  -22.0103   -9.0167   20.4678 C   0  0  0  0  0  0  0  0  0113  0  0
  -22.7317  -10.1925   20.3102 C   0  0  0  0  0  0  0  0  0114  0  0
  -21.6857   -6.0709   22.5391 C   0  0  0  0  0  0  0  0  0115  0  0
  -21.4064   -6.5490   23.8264 C   0  0  0  0  0  0  0  0  0116  0  0
  -21.3635   -5.6677   24.9085 C   0  0  0  0  0  0  0  0  0117  0  0
  -21.5973   -4.3067   24.7088 C   0  0  0  0  0  0  0  0  0118  0  0
  -21.8700   -3.8284   23.4282 C   0  0  0  0  0  0  0  0  0119  0  0
  -21.9144   -4.7056   22.3460 C   0  0  0  0  0  0  0  0  0120  0  0
  -22.8194  -13.5263   21.1763 C   0  0  0  0  0  0  0  0  0121  0  0
  -22.1559   -4.2206   21.1063 F   0  0  0  0  0  0  0  0  0122  0  0
  -21.5628   -3.4510   25.7555 F   0  0  0  0  0  0  0  0  0123  0  0
  -30.0261  -13.1803   20.4553 N   0  0  0  0  0  0  0  0  0124  0  0
  -26.2911  -12.9356   20.3443 N   0  0  0  0  0  0  0  0  0125  0  0
  -25.9236  -11.6675   20.5847 N   0  0  0  0  0  0  0  0  0126  0  0
  -22.0708  -12.7905   22.0005 N   0  0  0  0  0  0  0  0  0127  0  0
  -25.4117  -15.1773   20.4097 N   0  0  0  0  0  0  0  0  0128  0  0
  -31.7916  -14.6724   20.0536 O   0  0  0  0  0  0  0  0  0129  0  0
  -21.6670   -6.9022   21.4423 O   0  0  0  0  0  0  0  0  0130  0  0
  -22.3946  -14.5564   20.6568 O   0  0  0  0  0  0  0  0  0131  0  0
  -24.6048  -31.8614   23.2223 C   0  0  0  0  0  0  0  0  0100  0  0
  -25.8822  -32.4841   23.8616 C   0  0  1  0  0  0  0  0  0101  0  0
  -27.2536  -27.5042   20.1156 C   0  0  0  0  0  0  0  0  0102  0  0
  -25.5726  -33.8762   24.2210 N   0  0  0  0  0  0  0  0  0103  0  0
  -23.4066  -30.4859   21.5461 C   0  0  2  0  0  0  0  0  0104  0  0
  -24.8467  -28.9636   20.1247 C   0  0  0  0  0  0  0  0  0105  0  0
  -22.7412  -29.4652   22.5052 C   0  0  0  0  0  0  0  0  0106  0  0
  -18.0167  -28.1302   22.8626 C   0  0  0  0  0  0  0  0  0107  0  0
  -24.1342  -36.7390   23.2568 C   0  0  0  0  0  0  0  0  0108  0  0
  -25.9141  -30.8882   21.3456 C   0  0  0  0  0  0  0  0  0109  0  0
  -25.9930  -29.5029   20.7208 C   0  0  0  0  0  0  0  0  0110  0  0
  -27.1758  -28.7612   20.7331 C   0  0  0  0  0  0  0  0  0111  0  0
  -26.1032  -26.9836   19.5230 C   0  0  0  0  0  0  0  0  0112  0  0
  -24.9097  -27.7011   19.5331 C   0  0  0  0  0  0  0  0  0113  0  0
  -23.5715  -29.7899   20.1582 C   0  0  0  0  0  0  0  0  0114  0  0
  -25.3990  -36.3212   24.0232 C   0  0  1  0  0  0  0  0  0115  0  0
  -20.5793  -28.3813   23.1004 C   0  0  2  0  0  0  0  0  0116  0  0
  -20.6548  -26.9392   22.5411 C   0  0  0  0  0  0  0  0  0117  0  0
  -19.5615  -26.6407   21.5143 C   0  0  0  0  0  0  0  0  0118  0  0
  -18.1797  -26.7818   22.1673 C   0  0  0  0  0  0  0  0  0119  0  0
  -19.1385  -28.8769   23.2988 C   0  0  0  0  0  0  0  0  0120  0  0
  -18.9183  -30.1286   23.8878 C   0  0  0  0  0  0  0  0  0121  0  0
  -17.6396  -30.6493   24.0352 C   0  0  0  0  0  0  0  0  0122  0  0
  -25.9153  -34.9582   23.4993 C   0  0  0  0  0  0  0  0  0123  0  0
  -16.5415  -29.9068   23.6254 C   0  0  0  0  0  0  0  0  0124  0  0
  -16.7331  -28.6521   23.0586 C   0  0  0  0  0  0  0  0  0125  0  0
  -26.4583  -31.6439   25.0683 C   0  0  0  0  0  0  0  0  0126  0  0
  -25.3807  -31.3179   26.1374 C   0  0  0  0  0  0  0  0  0127  0  0
  -27.0530  -30.3024   24.5680 C   0  0  0  0  0  0  0  0  0128  0  0
  -27.6014  -32.4281   25.7651 C   0  0  0  0  0  0  0  0  0129  0  0
  -27.5629  -37.2220   24.8621 C   0  0  0  0  0  0  0  0  0130  0  0
  -21.4133  -29.3375   22.3735 N   0  0  0  0  0  0  0  0  0131  0  0
  -26.4706  -37.3372   23.9061 N   0  0  0  0  0  0  0  0  0132  0  0
  -24.6674  -31.0544   22.1178 N   0  0  0  0  0  0  0  0  0133  0  0
  -23.4259  -28.8150   23.2971 O   0  0  0  0  0  0  0  0  0134  0  0
  -28.3948  -26.7345   20.0089 O   0  0  0  0  0  0  0  0  0135  0  0
  -26.5870  -34.9065   22.4671 O   0  0  0  0  0  0  0  0  0136  0  0
  -23.5365  -32.1254   23.7833 O   0  0  0  0  0  0  0  0  0137  0  0
  -28.1716  -16.7648   16.9979 C   0  0  0  0  0  0  0  0  0  0  0  0
  -28.9731  -15.9402   17.3440 C   0  0  0  0  0  0  0  0  0  0  0  0
  -27.1175  -18.9542   17.2759 C   0  0  0  0  0  0  0  0  0  0  0  0
  -26.3884  -17.4962   15.4927 C   0  0  0  0  0  0  0  0  0  0  0  0
  -26.1884  -19.9129   16.8719 C   0  0  0  0  0  0  0  0  0  0  0  0
  -25.4593  -18.4549   15.0888 C   0  0  0  0  0  0  0  0  0  0  0  0
  -27.2176  -17.7459   16.5863 C   0  0  0  0  0  0  0  0  0  0  0  0
  -25.3593  -19.6633   15.7784 C   0  0  0  0  0  0  0  0  0  0  0  0
  -24.0132  -20.7652   14.0109 C   0  0  0  0  0  0  0  0  0  0  0  0
  -22.7863  -21.6096   13.7226 C   0  0  0  0  0  0  0  0  0  0  0  0
  -22.6302  -22.8131   14.6260 C   0  0  0  0  0  0  0  0  0  0  0  0
  -24.0005  -21.6761   16.3503 C   0  0  0  0  0  0  0  0  0  0  0  0
  -22.6565  -22.3479   16.0726 C   0  0  1  0  0  0  0  0  0  0  0  0
  -22.4262  -23.5165   17.0287 C   0  0  0  0  0  0  0  0  0  1  0  0
  -24.3955  -20.6585   15.3592 N   0  0  0  0  0  0  0  0  0  0  0  0
  -24.5538  -20.1863   13.0647 O   0  0  0  0  0  0  0  0  0  0  0  0
  -31.4485  -12.4701   19.0860 H   0  0  0  0  0  0  0  0  0  0  0  0
  -30.3970  -11.2460   19.6950 H   0  0  0  0  0  0  0  0  0  0  0  0
  -29.6870  -11.8204   17.4226 H   0  0  0  0  0  0  0  0  0  0  0  0
  -29.6375  -13.5326   17.8649 H   0  0  0  0  0  0  0  0  0  0  0  0
  -27.7830  -11.3650   18.7904 H   0  0  0  0  0  0  0  0  0  0  0  0
  -27.4028  -12.7801   17.8021 H   0  0  0  0  0  0  0  0  0  0  0  0
  -27.7353  -14.2503   19.6136 H   0  0  0  0  0  0  0  0  0  0  0  0
  -28.5890  -11.9550   21.3832 H   0  0  0  0  0  0  0  0  0  0  0  0
  -28.5005  -13.6134   21.8562 H   0  0  0  0  0  0  0  0  0  0  0  0
  -25.2399   -9.5495   22.4318 H   0  0  0  0  0  0  0  0  0  0  0  0
  -23.9663   -7.5070   22.7297 H   0  0  0  0  0  0  0  0  0  0  0  0
  -21.1515   -8.8641   19.9162 H   0  0  0  0  0  0  0  0  0  0  0  0
  -22.4016  -10.9115   19.6476 H   0  0  0  0  0  0  0  0  0  0  0  0
  -21.2319   -7.5552   23.9750 H   0  0  0  0  0  0  0  0  0  0  0  0
  -21.1589   -6.0228   25.8556 H   0  0  0  0  0  0  0  0  0  0  0  0
  -22.0396   -2.8212   23.2809 H   0  0  0  0  0  0  0  0  0  0  0  0
  -22.4401  -11.9703   22.4008 H   0  0  0  0  0  0  0  0  0  0  0  0
  -21.1493  -13.0679   22.2082 H   0  0  0  0  0  0  0  0  0  0  0  0
  -24.6538  -15.7807   20.5848 H   0  0  0  0  0  0  0  0  0  0  0  0
  -26.2762  -15.5453   20.1156 H   0  0  0  0  0  0  0  0  0  0  0  0
  -26.6778  -32.4663   23.1464 H   0  0  0  0  0  0  0  0  0  0  0  0
  -25.0747  -34.0282   25.0566 H   0  0  0  0  0  0  0  0  0  0  0  0
  -22.7881  -31.3489   21.4131 H   0  0  0  0  0  0  0  0  0  0  0  0
  -23.3854  -35.9823   23.3648 H   0  0  0  0  0  0  0  0  0  0  0  0
  -24.3696  -36.8624   22.2204 H   0  0  0  0  0  0  0  0  0  0  0  0
  -23.7669  -37.6632   23.6516 H   0  0  0  0  0  0  0  0  0  0  0  0
  -25.9445  -31.6237   20.5691 H   0  0  0  0  0  0  0  0  0  0  0  0
  -26.7436  -31.0079   22.0108 H   0  0  0  0  0  0  0  0  0  0  0  0
  -28.0090  -29.1452   21.2057 H   0  0  0  0  0  0  0  0  0  0  0  0
  -26.1369  -26.0560   19.0719 H   0  0  0  0  0  0  0  0  0  0  0  0
  -24.0652  -27.2961   19.0997 H   0  0  0  0  0  0  0  0  0  0  0  0
  -23.6156  -30.5365   19.3930 H   0  0  0  0  0  0  0  0  0  0  0  0
  -22.7355  -29.1425   19.9945 H   0  0  0  0  0  0  0  0  0  0  0  0
  -25.1353  -36.2335   25.0565 H   0  0  0  0  0  0  0  0  0  0  0  0
  -21.0070  -28.3206   24.0793 H   0  0  0  0  0  0  0  0  0  0  0  0
  -20.5555  -26.2518   23.3550 H   0  0  0  0  0  0  0  0  0  0  0  0
  -21.5974  -26.8362   22.0454 H   0  0  0  0  0  0  0  0  0  0  0  0
  -19.6810  -25.6422   21.1488 H   0  0  0  0  0  0  0  0  0  0  0  0
  -19.6406  -27.3343   20.7034 H   0  0  0  0  0  0  0  0  0  0  0  0
  -17.4282  -26.6888   21.4113 H   0  0  0  0  0  0  0  0  0  0  0  0
  -18.0803  -26.0130   22.9049 H   0  0  0  0  0  0  0  0  0  0  0  0
  -19.7265  -30.6774   24.2204 H   0  0  0  0  0  0  0  0  0  0  0  0
  -17.5064  -31.5856   24.4483 H   0  0  0  0  0  0  0  0  0  0  0  0
  -15.5878  -30.2839   23.7407 H   0  0  0  0  0  0  0  0  0  0  0  0
  -15.9120  -28.0941   22.7766 H   0  0  0  0  0  0  0  0  0  0  0  0
  -24.5787  -30.7757   25.6817 H   0  0  0  0  0  0  0  0  0  0  0  0
  -25.0041  -32.2289   26.5536 H   0  0  0  0  0  0  0  0  0  0  0  0
  -25.8166  -30.7245   26.9138 H   0  0  0  0  0  0  0  0  0  0  0  0
  -26.2892  -29.7335   24.0803 H   0  0  0  0  0  0  0  0  0  0  0  0
  -27.4336  -29.7484   25.4006 H   0  0  0  0  0  0  0  0  0  0  0  0
  -27.8466  -30.4994   23.8779 H   0  0  0  0  0  0  0  0  0  0  0  0
  -27.2251  -33.3632   26.1242 H   0  0  0  0  0  0  0  0  0  0  0  0
  -28.3902  -32.6065   25.0645 H   0  0  0  0  0  0  0  0  0  0  0  0
  -27.9772  -31.8555   26.5872 H   0  0  0  0  0  0  0  0  0  0  0  0
  -28.2744  -38.0016   24.6863 H   0  0  0  0  0  0  0  0  0  0  0  0
  -28.0396  -36.2711   24.7461 H   0  0  0  0  0  0  0  0  0  0  0  0
  -27.1773  -37.3087   25.8564 H   0  0  0  0  0  0  0  0  0  0  0  0
  -20.9627  -29.9365   21.7352 H   0  0  0  0  0  0  0  0  0  0  0  0
  -26.0447  -38.2561   24.0273 H   0  0  0  0  0  0  0  0  0  0  0  0
  -27.7309  -19.1389   18.0850 H   0  0  0  0  0  0  0  0  0  0  0  0
  -26.4624  -16.6022   14.9825 H   0  0  0  0  0  0  0  0  0  0  0  0
  -26.1144  -20.8069   17.3821 H   0  0  0  0  0  0  0  0  0  0  0  0
  -24.8458  -18.2702   14.2797 H   0  0  0  0  0  0  0  0  0  0  0  0
  -21.9203  -20.9914   13.8359 H   0  0  0  0  0  0  0  0  0  0  0  0
  -22.9019  -21.9870   12.7280 H   0  0  0  0  0  0  0  0  0  0  0  0
  -21.6985  -23.2978   14.4212 H   0  0  0  0  0  0  0  0  0  0  0  0
  -23.4289  -23.5036   14.4521 H   0  0  0  0  0  0  0  0  0  0  0  0
  -23.9458  -21.2043   17.3091 H   0  0  0  0  0  0  0  0  0  0  0  0
  -24.7402  -22.4478   16.3033 H   0  0  0  0  0  0  0  0  0  0  0  0
  -21.8653  -21.6456   16.2329 H   0  0  0  0  0  0  0  0  0  0  0  0
  -21.8207  -23.1566   17.8342 H   0  0  0  0  0  0  0  0  0  0  0  0
  -21.9799  -24.2783   16.4243 H   0  0  0  0  0  0  0  0  0  0  0  0
  1 25  1  0
  1 30  2  0
  1 72  1  0
  2  3  1  0
  2 25  1  0
  2 87  1  0
  2 88  1  0
  3  4  1  0
  3 89  1  0
  3 90  1  0
  4  5  1  0
  4 91  1  0
  4 92  1  0
  5  6  1  0
  5 26  1  0
  5 93  1  6
  6 25  1  0
  6 94  1  0
  6 95  1  0
  7  8  2  0
  7 26  1  0
  7 29  1  0
  8  9  1  0
  8 22  1  0
  9 10  1  0
  9 27  2  0
 10 11  2  0
 10 15  1  0
 11 12  1  0
 11 96  1  0
 12 13  2  0
 12 97  1  0
 13 14  1  0
 13 31  1  0
 14 15  2  0
 14 98  1  0
 15 99  1  0
 16 17  2  0
 16 21  1  0
 16 31  1  0
 17 18  1  0
 17100  1  0
 18 19  2  0
 18101  1  0
 19 20  1  0
 19 24  1  0
 20 21  2  0
 20102  1  0
 21 23  1  0
 22 28  1  0
 22 32  2  0
 26 27  1  0
 28103  1  0
 28104  1  0
 29105  1  0
 29106  1  0
 33 34  1  0
 33 66  1  0
 33 70  2  0
 34 36  1  0
 34 59  1  0
 34107  1  6
 35 44  2  0
 35 45  1  0
 35 68  1  0
 36 56  1  0
 36108  1  0
 37 39  1  0
 37 47  1  0
 37 66  1  0
 37109  1  6
 38 43  2  0
 38 46  1  0
 38 47  1  0
 39 64  1  0
 39 67  2  0
 40 52  1  0
 40 53  2  0
 40 58  1  0
 41110  1  0
 41111  1  0
 41112  1  0
 42 43  1  0
 42 66  1  0
 42113  1  0
 42114  1  0
 43 44  1  0
 44115  1  0
 45 46  2  0
 45116  1  0
 46117  1  0
 47118  1  0
 47119  1  0
 48 41  1  0
 48 56  1  0
 48 65  1  0
 48120  1  1
 49 50  1  0
 49 53  1  0
 49 64  1  0
 49121  1  1
 50 51  1  0
 50122  1  0
 50123  1  0
 51 52  1  0
 51124  1  0
 51125  1  0
 52126  1  0
 52127  1  0
 53 54  1  0
 54 55  2  0
 54128  1  0
 55 57  1  0
 55129  1  0
 56 69  2  0
 57 58  2  0
 57130  1  0
 58131  1  0
 59 60  1  0
 59 61  1  0
 59 62  1  0
 60132  1  0
 60133  1  0
 60134  1  0
 61135  1  0
 61136  1  0
 61137  1  0
 62138  1  0
 62139  1  0
 62140  1  0
 63 65  1  0
 63141  1  0
 63142  1  0
 63143  1  0
 64144  1  0
 65145  1  0
 68 84  1  0
 71 72  3  0
 71 77  1  0
 73 75  2  0
 73 77  1  0
 73146  1  0
 74 76  1  0
 74 77  2  0
 74147  1  0
 75 78  1  0
 75148  1  0
 76 78  2  0
 76149  1  0
 78 85  1  0
 79 80  1  0
 79 85  1  0
 79 86  2  0
 80 81  1  0
 80150  1  0
 80151  1  0
 81 83  1  0
 81152  1  0
 81153  1  0
 82 83  1  0
 82 85  1  0
 82154  1  0
 82155  1  0
 83 84  1  0
 83156  1  6
 84157  1  0
 84158  1  0
M  ISO  4   1 100  68 101  72 100  84 101
M  END
$$$$
55
     RDKit          3D

162171  0  0  0  0  0  0  0  0999 V2000
  -30.7652  -14.3608   20.6636 C   0  0  0  0  0  0  0  0  0100  0  0
  -30.4392  -12.2669   19.3775 C   0  0  0  0  0  0  0  0  0101  0  0
  -29.4791  -12.5281   18.1977 C   0  0  0  0  0  0  0  0  0102  0  0
  -27.9985  -12.3963   18.6038 C   0  0  0  0  0  0  0  0  0103  0  0
  -27.6639  -13.2170   19.8820 C   0  0  2  0  0  0  0  0  0104  0  0
  -28.6795  -12.9602   21.0279 C   0  0  0  0  0  0  0  0  0105  0  0
  -25.2633  -13.8245   20.5754 C   0  0  0  0  0  0  0  0  0106  0  0
  -24.1645  -13.0409   20.9408 C   0  0  0  0  0  0  0  0  0107  0  0
  -24.6400  -11.7009   20.8697 C   0  0  0  0  0  0  0  0  0108  0  0
  -23.9005  -10.4085   21.0420 C   0  0  0  0  0  0  0  0  0109  0  0
  -24.3588   -9.4123   21.9123 C   0  0  0  0  0  0  0  0  0110  0  0
  -23.6296   -8.2350   22.0803 C   0  0  0  0  0  0  0  0  0111  0  0
  -22.4385   -8.0419   21.3657 C   0  0  0  0  0  0  0  0  0112  0  0
  -22.0103   -9.0167   20.4678 C   0  0  0  0  0  0  0  0  0113  0  0
  -22.7317  -10.1925   20.3102 C   0  0  0  0  0  0  0  0  0114  0  0
  -21.6857   -6.0709   22.5391 C   0  0  0  0  0  0  0  0  0115  0  0
  -21.4064   -6.5490   23.8264 C   0  0  0  0  0  0  0  0  0116  0  0
  -21.3635   -5.6677   24.9085 C   0  0  0  0  0  0  0  0  0117  0  0
  -21.5973   -4.3067   24.7088 C   0  0  0  0  0  0  0  0  0118  0  0
  -21.8700   -3.8284   23.4282 C   0  0  0  0  0  0  0  0  0119  0  0
  -21.9144   -4.7056   22.3460 C   0  0  0  0  0  0  0  0  0120  0  0
  -22.8194  -13.5263   21.1763 C   0  0  0  0  0  0  0  0  0121  0  0
  -22.1559   -4.2206   21.1063 F   0  0  0  0  0  0  0  0  0122  0  0
  -21.5628   -3.4510   25.7555 F   0  0  0  0  0  0  0  0  0123  0  0
  -30.0261  -13.1803   20.4553 N   0  0  0  0  0  0  0  0  0124  0  0
  -26.2911  -12.9356   20.3443 N   0  0  0  0  0  0  0  0  0125  0  0
  -25.9236  -11.6675   20.5847 N   0  0  0  0  0  0  0  0  0126  0  0
  -22.0708  -12.7905   22.0005 N   0  0  0  0  0  0  0  0  0127  0  0
  -25.4117  -15.1773   20.4097 N   0  0  0  0  0  0  0  0  0128  0  0
  -31.7916  -14.6724   20.0536 O   0  0  0  0  0  0  0  0  0129  0  0
  -21.6670   -6.9022   21.4423 O   0  0  0  0  0  0  0  0  0130  0  0
  -22.3946  -14.5564   20.6568 O   0  0  0  0  0  0  0  0  0131  0  0
  -24.6048  -31.8614   23.2223 C   0  0  0  0  0  0  0  0  0100  0  0
  -25.8822  -32.4841   23.8616 C   0  0  1  0  0  0  0  0  0101  0  0
  -27.2536  -27.5042   20.1156 C   0  0  0  0  0  0  0  0  0102  0  0
  -25.5726  -33.8762   24.2210 N   0  0  0  0  0  0  0  0  0103  0  0
  -23.4066  -30.4859   21.5461 C   0  0  2  0  0  0  0  0  0104  0  0
  -24.8467  -28.9636   20.1247 C   0  0  0  0  0  0  0  0  0105  0  0
  -22.7412  -29.4652   22.5052 C   0  0  0  0  0  0  0  0  0106  0  0
  -18.0167  -28.1302   22.8626 C   0  0  0  0  0  0  0  0  0107  0  0
  -24.1342  -36.7390   23.2568 C   0  0  0  0  0  0  0  0  0108  0  0
  -25.9141  -30.8882   21.3456 C   0  0  0  0  0  0  0  0  0109  0  0
  -25.9930  -29.5029   20.7208 C   0  0  0  0  0  0  0  0  0110  0  0
  -27.1758  -28.7612   20.7331 C   0  0  0  0  0  0  0  0  0111  0  0
  -26.1032  -26.9836   19.5230 C   0  0  0  0  0  0  0  0  0112  0  0
  -24.9097  -27.7011   19.5331 C   0  0  0  0  0  0  0  0  0113  0  0
  -23.5715  -29.7899   20.1582 C   0  0  0  0  0  0  0  0  0114  0  0
  -25.3990  -36.3212   24.0232 C   0  0  1  0  0  0  0  0  0115  0  0
  -20.5793  -28.3813   23.1004 C   0  0  2  0  0  0  0  0  0116  0  0
  -20.6548  -26.9392   22.5411 C   0  0  0  0  0  0  0  0  0117  0  0
  -19.5615  -26.6407   21.5143 C   0  0  0  0  0  0  0  0  0118  0  0
  -18.1797  -26.7818   22.1673 C   0  0  0  0  0  0  0  0  0119  0  0
  -19.1385  -28.8769   23.2988 C   0  0  0  0  0  0  0  0  0120  0  0
  -18.9183  -30.1286   23.8878 C   0  0  0  0  0  0  0  0  0121  0  0
  -17.6396  -30.6493   24.0352 C   0  0  0  0  0  0  0  0  0122  0  0
  -25.9153  -34.9582   23.4993 C   0  0  0  0  0  0  0  0  0123  0  0
  -16.5415  -29.9068   23.6254 C   0  0  0  0  0  0  0  0  0124  0  0
  -16.7331  -28.6521   23.0586 C   0  0  0  0  0  0  0  0  0125  0  0
  -26.4583  -31.6439   25.0683 C   0  0  0  0  0  0  0  0  0126  0  0
  -25.3807  -31.3179   26.1374 C   0  0  0  0  0  0  0  0  0127  0  0
  -27.0530  -30.3024   24.5680 C   0  0  0  0  0  0  0  0  0128  0  0
  -27.6014  -32.4281   25.7651 C   0  0  0  0  0  0  0  0  0129  0  0
  -27.5629  -37.2220   24.8621 C   0  0  0  0  0  0  0  0  0130  0  0
  -21.4133  -29.3375   22.3735 N   0  0  0  0  0  0  0  0  0131  0  0
  -26.4706  -37.3372   23.9061 N   0  0  0  0  0  0  0  0  0132  0  0
  -24.6674  -31.0544   22.1178 N   0  0  0  0  0  0  0  0  0133  0  0
  -23.4259  -28.8150   23.2971 O   0  0  0  0  0  0  0  0  0134  0  0
  -28.3948  -26.7345   20.0089 O   0  0  0  0  0  0  0  0  0135  0  0
  -26.5870  -34.9065   22.4671 O   0  0  0  0  0  0  0  0  0136  0  0
  -23.5365  -32.1254   23.7833 O   0  0  0  0  0  0  0  0  0137  0  0
  -21.4611  -24.5224   23.0809 C   0  0  0  0  0  0  0  0  0  0  0  0
  -21.4395  -22.7037   21.4907 C   0  0  0  0  0  0  0  0  0  0  0  0
  -20.2430  -24.9779   22.5765 C   0  0  0  0  0  0  0  0  0  0  0  0
  -20.2214  -23.1591   20.9863 C   0  0  0  0  0  0  0  0  0  0  0  0
  -22.0594  -23.3853   22.5379 C   0  0  0  0  0  0  0  0  0  0  0  0
  -19.6232  -24.2963   21.5292 C   0  0  0  0  0  0  0  0  0  0  0  0
  -24.2547  -23.8111   23.6101 C   0  0  0  0  0  0  0  0  0  0  0  0
  -17.3168  -25.2217   23.1085 C   0  0  0  0  0  0  0  0  0  0  0  0
  -17.4400  -25.4388   21.7972 C   0  0  0  0  0  0  0  0  0  0  0  0
  -25.3930  -23.2002   24.4054 C   0  0  0  0  0  0  0  0  0  0  0  0
  -25.8826  -21.8708   23.8745 C   0  0  0  0  0  0  0  0  0  0  0  0
  -23.6775  -21.5049   22.8035 C   0  0  0  0  0  0  0  0  0  0  0  0
  -24.7028  -20.9182   23.7727 C   0  0  1  0  0  0  0  0  0  0  0  0
  -25.1541  -19.5336   23.3126 C   0  0  0  0  0  0  0  0  0  1  0  0
  -23.3236  -22.9128   23.0609 N   0  0  0  0  0  0  0  0  0  0  0  0
  -18.3581  -24.7690   21.0052 N   0  0  0  0  0  0  0  0  0  0  0  0
  -24.1864  -25.0416   23.5473 O   0  0  0  0  0  0  0  0  0  0  0  0
  -31.4485  -12.4701   19.0860 H   0  0  0  0  0  0  0  0  0  0  0  0
  -30.3970  -11.2460   19.6950 H   0  0  0  0  0  0  0  0  0  0  0  0
  -29.6870  -11.8204   17.4226 H   0  0  0  0  0  0  0  0  0  0  0  0
  -29.6375  -13.5326   17.8649 H   0  0  0  0  0  0  0  0  0  0  0  0
  -27.7830  -11.3650   18.7904 H   0  0  0  0  0  0  0  0  0  0  0  0
  -27.4028  -12.7801   17.8021 H   0  0  0  0  0  0  0  0  0  0  0  0
  -27.7353  -14.2503   19.6136 H   0  0  0  0  0  0  0  0  0  0  0  0
  -28.5890  -11.9550   21.3832 H   0  0  0  0  0  0  0  0  0  0  0  0
  -28.5005  -13.6134   21.8562 H   0  0  0  0  0  0  0  0  0  0  0  0
  -25.2399   -9.5495   22.4318 H   0  0  0  0  0  0  0  0  0  0  0  0
  -23.9663   -7.5070   22.7297 H   0  0  0  0  0  0  0  0  0  0  0  0
  -21.1515   -8.8641   19.9162 H   0  0  0  0  0  0  0  0  0  0  0  0
  -22.4016  -10.9115   19.6476 H   0  0  0  0  0  0  0  0  0  0  0  0
  -21.2319   -7.5552   23.9750 H   0  0  0  0  0  0  0  0  0  0  0  0
  -21.1589   -6.0228   25.8556 H   0  0  0  0  0  0  0  0  0  0  0  0
  -22.0396   -2.8212   23.2809 H   0  0  0  0  0  0  0  0  0  0  0  0
  -22.4401  -11.9703   22.4008 H   0  0  0  0  0  0  0  0  0  0  0  0
  -21.1493  -13.0679   22.2082 H   0  0  0  0  0  0  0  0  0  0  0  0
  -24.6538  -15.7807   20.5848 H   0  0  0  0  0  0  0  0  0  0  0  0
  -26.2762  -15.5453   20.1156 H   0  0  0  0  0  0  0  0  0  0  0  0
  -26.6778  -32.4663   23.1464 H   0  0  0  0  0  0  0  0  0  0  0  0
  -25.0747  -34.0282   25.0566 H   0  0  0  0  0  0  0  0  0  0  0  0
  -22.7881  -31.3489   21.4131 H   0  0  0  0  0  0  0  0  0  0  0  0
  -23.3854  -35.9823   23.3648 H   0  0  0  0  0  0  0  0  0  0  0  0
  -24.3696  -36.8624   22.2204 H   0  0  0  0  0  0  0  0  0  0  0  0
  -23.7669  -37.6632   23.6516 H   0  0  0  0  0  0  0  0  0  0  0  0
  -25.9445  -31.6237   20.5691 H   0  0  0  0  0  0  0  0  0  0  0  0
  -26.7436  -31.0079   22.0108 H   0  0  0  0  0  0  0  0  0  0  0  0
  -28.0090  -29.1452   21.2057 H   0  0  0  0  0  0  0  0  0  0  0  0
  -26.1369  -26.0560   19.0719 H   0  0  0  0  0  0  0  0  0  0  0  0
  -24.0652  -27.2961   19.0997 H   0  0  0  0  0  0  0  0  0  0  0  0
  -23.6156  -30.5365   19.3930 H   0  0  0  0  0  0  0  0  0  0  0  0
  -22.7355  -29.1425   19.9945 H   0  0  0  0  0  0  0  0  0  0  0  0
  -25.1353  -36.2335   25.0565 H   0  0  0  0  0  0  0  0  0  0  0  0
  -21.0070  -28.3206   24.0793 H   0  0  0  0  0  0  0  0  0  0  0  0
  -20.5555  -26.2518   23.3550 H   0  0  0  0  0  0  0  0  0  0  0  0
  -21.5974  -26.8362   22.0454 H   0  0  0  0  0  0  0  0  0  0  0  0
  -19.6810  -25.6422   21.1488 H   0  0  0  0  0  0  0  0  0  0  0  0
  -19.6406  -27.3343   20.7034 H   0  0  0  0  0  0  0  0  0  0  0  0
  -17.4282  -26.6888   21.4113 H   0  0  0  0  0  0  0  0  0  0  0  0
  -18.0803  -26.0130   22.9049 H   0  0  0  0  0  0  0  0  0  0  0  0
  -19.7265  -30.6774   24.2204 H   0  0  0  0  0  0  0  0  0  0  0  0
  -17.5064  -31.5856   24.4483 H   0  0  0  0  0  0  0  0  0  0  0  0
  -15.5878  -30.2839   23.7407 H   0  0  0  0  0  0  0  0  0  0  0  0
  -15.9120  -28.0941   22.7766 H   0  0  0  0  0  0  0  0  0  0  0  0
  -24.5787  -30.7757   25.6817 H   0  0  0  0  0  0  0  0  0  0  0  0
  -25.0041  -32.2289   26.5536 H   0  0  0  0  0  0  0  0  0  0  0  0
  -25.8166  -30.7245   26.9138 H   0  0  0  0  0  0  0  0  0  0  0  0
  -26.2892  -29.7335   24.0803 H   0  0  0  0  0  0  0  0  0  0  0  0
  -27.4336  -29.7484   25.4006 H   0  0  0  0  0  0  0  0  0  0  0  0
  -27.8466  -30.4994   23.8779 H   0  0  0  0  0  0  0  0  0  0  0  0
  -27.2251  -33.3632   26.1242 H   0  0  0  0  0  0  0  0  0  0  0  0
  -28.3902  -32.6065   25.0645 H   0  0  0  0  0  0  0  0  0  0  0  0
  -27.9772  -31.8555   26.5872 H   0  0  0  0  0  0  0  0  0  0  0  0
  -28.2744  -38.0016   24.6863 H   0  0  0  0  0  0  0  0  0  0  0  0
  -28.0396  -36.2711   24.7461 H   0  0  0  0  0  0  0  0  0  0  0  0
  -27.1773  -37.3087   25.8564 H   0  0  0  0  0  0  0  0  0  0  0  0
  -20.9627  -29.9365   21.7352 H   0  0  0  0  0  0  0  0  0  0  0  0
  -26.0447  -38.2561   24.0273 H   0  0  0  0  0  0  0  0  0  0  0  0
  -21.9197  -25.0266   23.8558 H   0  0  0  0  0  0  0  0  0  0  0  0
  -21.8821  -21.8624   21.0891 H   0  0  0  0  0  0  0  0  0  0  0  0
  -19.8004  -25.8192   22.9782 H   0  0  0  0  0  0  0  0  0  0  0  0
  -19.7628  -22.6547   20.2115 H   0  0  0  0  0  0  0  0  0  0  0  0
  -16.6166  -25.7472   23.6550 H   0  0  0  0  0  0  0  0  0  0  0  0
  -17.9217  -24.5284   23.5758 H   0  0  0  0  0  0  0  0  0  0  0  0
  -16.8234  -26.1372   21.3534 H   0  0  0  0  0  0  0  0  0  0  0  0
  -25.0589  -23.0563   25.4116 H   0  0  0  0  0  0  0  0  0  0  0  0
  -26.2160  -23.8801   24.3327 H   0  0  0  0  0  0  0  0  0  0  0  0
  -26.6153  -21.4656   24.5407 H   0  0  0  0  0  0  0  0  0  0  0  0
  -26.3245  -22.0058   22.9094 H   0  0  0  0  0  0  0  0  0  0  0  0
  -22.7843  -20.9193   22.8681 H   0  0  0  0  0  0  0  0  0  0  0  0
  -24.1282  -21.4785   21.8334 H   0  0  0  0  0  0  0  0  0  0  0  0
  -24.2571  -20.8024   24.7385 H   0  0  0  0  0  0  0  0  0  0  0  0
  -24.5011  -18.9173   22.7307 H   0  0  0  0  0  0  0  0  0  0  0  0
  -25.5484  -18.6570   23.7828 H   0  0  0  0  0  0  0  0  0  0  0  0
  1 25  1  0
  1 30  2  0
  1 86  1  0
  2  3  1  0
  2 25  1  0
  2 88  1  0
  2 89  1  0
  3  4  1  0
  3 90  1  0
  3 91  1  0
  4  5  1  0
  4 92  1  0
  4 93  1  0
  5  6  1  0
  5 26  1  0
  5 94  1  6
  6 25  1  0
  6 95  1  0
  6 96  1  0
  7  8  2  0
  7 26  1  0
  7 29  1  0
  8  9  1  0
  8 22  1  0
  9 10  1  0
  9 27  2  0
 10 11  2  0
 10 15  1  0
 11 12  1  0
 11 97  1  0
 12 13  2  0
 12 98  1  0
 13 14  1  0
 13 31  1  0
 14 15  2  0
 14 99  1  0
 15100  1  0
 16 17  2  0
 16 21  1  0
 16 31  1  0
 17 18  1  0
 17101  1  0
 18 19  2  0
 18102  1  0
 19 20  1  0
 19 24  1  0
 20 21  2  0
 20103  1  0
 21 23  1  0
 22 28  1  0
 22 32  2  0
 26 27  1  0
 28104  1  0
 28105  1  0
 29106  1  0
 29107  1  0
 33 34  1  0
 33 66  1  0
 33 70  2  0
 34 36  1  0
 34 59  1  0
 34108  1  6
 35 44  2  0
 35 45  1  0
 35 68  1  0
 36 56  1  0
 36109  1  0
 37 39  1  0
 37 47  1  0
 37 66  1  0
 37110  1  6
 38 43  2  0
 38 46  1  0
 38 47  1  0
 39 64  1  0
 39 67  2  0
 40 52  1  0
 40 53  2  0
 40 58  1  0
 41111  1  0
 41112  1  0
 41113  1  0
 42 43  1  0
 42 66  1  0
 42114  1  0
 42115  1  0
 43 44  1  0
 44116  1  0
 45 46  2  0
 45117  1  0
 46118  1  0
 47119  1  0
 47120  1  0
 48 41  1  0
 48 56  1  0
 48 65  1  0
 48121  1  1
 49 50  1  0
 49 53  1  0
 49 64  1  0
 49122  1  1
 50 51  1  0
 50123  1  0
 50124  1  0
 51 52  1  0
 51125  1  0
 51126  1  0
 52127  1  0
 52128  1  0
 53 54  1  0
 54 55  2  0
 54129  1  0
 55 57  1  0
 55130  1  0
 56 69  2  0
 57 58  2  0
 57131  1  0
 58132  1  0
 59 60  1  0
 59 61  1  0
 59 62  1  0
 60133  1  0
 60134  1  0
 60135  1  0
 61136  1  0
 61137  1  0
 61138  1  0
 62139  1  0
 62140  1  0
 62141  1  0
 63 65  1  0
 63142  1  0
 63143  1  0
 63144  1  0
 64145  1  0
 65146  1  0
 68 84  1  0
 71 73  2  0
 71 75  1  0
 71147  1  0
 72 74  1  0
 72 75  2  0
 72148  1  0
 73 76  1  0
 73149  1  0
 74 76  2  0
 74150  1  0
 75 85  1  0
 76 86  1  0
 77 80  1  0
 77 85  1  0
 77 87  2  0
 78 79  2  0
 78151  1  0
 78152  1  0
 79 86  1  0
 79153  1  0
 80 81  1  0
 80154  1  0
 80155  1  0
 81 83  1  0
 81156  1  0
 81157  1  0
 82 83  1  0
 82 85  1  0
 82158  1  0
 82159  1  0
 83 84  1  0
 83160  1  1
 84161  1  0
 84162  1  0
M  ISO  4   1 100  68 101  84 101  86 100
M  END
$$$$
56
     RDKit          3D

154162  0  0  0  0  0  0  0  0999 V2000
  -30.7652  -14.3608   20.6636 C   0  0  0  0  0  0  0  0  0100  0  0
  -30.4392  -12.2669   19.3775 C   0  0  0  0  0  0  0  0  0101  0  0
  -29.4791  -12.5281   18.1977 C   0  0  0  0  0  0  0  0  0102  0  0
  -27.9985  -12.3963   18.6038 C   0  0  0  0  0  0  0  0  0103  0  0
  -27.6639  -13.2170   19.8820 C   0  0  2  0  0  0  0  0  0104  0  0
  -28.6795  -12.9602   21.0279 C   0  0  0  0  0  0  0  0  0105  0  0
  -25.2633  -13.8245   20.5754 C   0  0  0  0  0  0  0  0  0106  0  0
  -24.1645  -13.0409   20.9408 C   0  0  0  0  0  0  0  0  0107  0  0
  -24.6400  -11.7009   20.8697 C   0  0  0  0  0  0  0  0  0108  0  0
  -23.9005  -10.4085   21.0420 C   0  0  0  0  0  0  0  0  0109  0  0
  -24.3588   -9.4123   21.9123 C   0  0  0  0  0  0  0  0  0110  0  0
  -23.6296   -8.2350   22.0803 C   0  0  0  0  0  0  0  0  0111  0  0
  -22.4385   -8.0419   21.3657 C   0  0  0  0  0  0  0  0  0112  0  0
  -22.0103   -9.0167   20.4678 C   0  0  0  0  0  0  0  0  0113  0  0
  -22.7317  -10.1925   20.3102 C   0  0  0  0  0  0  0  0  0114  0  0
  -21.6857   -6.0709   22.5391 C   0  0  0  0  0  0  0  0  0115  0  0
  -21.4064   -6.5490   23.8264 C   0  0  0  0  0  0  0  0  0116  0  0
  -21.3635   -5.6677   24.9085 C   0  0  0  0  0  0  0  0  0117  0  0
  -21.5973   -4.3067   24.7088 C   0  0  0  0  0  0  0  0  0118  0  0
  -21.8700   -3.8284   23.4282 C   0  0  0  0  0  0  0  0  0119  0  0
  -21.9144   -4.7056   22.3460 C   0  0  0  0  0  0  0  0  0120  0  0
  -22.8194  -13.5263   21.1763 C   0  0  0  0  0  0  0  0  0121  0  0
  -22.1559   -4.2206   21.1063 F   0  0  0  0  0  0  0  0  0122  0  0
  -21.5628   -3.4510   25.7555 F   0  0  0  0  0  0  0  0  0123  0  0
  -30.0261  -13.1803   20.4553 N   0  0  0  0  0  0  0  0  0124  0  0
  -26.2911  -12.9356   20.3443 N   0  0  0  0  0  0  0  0  0125  0  0
  -25.9236  -11.6675   20.5847 N   0  0  0  0  0  0  0  0  0126  0  0
  -22.0708  -12.7905   22.0005 N   0  0  0  0  0  0  0  0  0127  0  0
  -25.4117  -15.1773   20.4097 N   0  0  0  0  0  0  0  0  0128  0  0
  -31.7916  -14.6724   20.0536 O   0  0  0  0  0  0  0  0  0129  0  0
  -21.6670   -6.9022   21.4423 O   0  0  0  0  0  0  0  0  0130  0  0
  -22.3946  -14.5564   20.6568 O   0  0  0  0  0  0  0  0  0131  0  0
  -24.6048  -31.8614   23.2223 C   0  0  0  0  0  0  0  0  0100  0  0
  -25.8822  -32.4841   23.8616 C   0  0  1  0  0  0  0  0  0101  0  0
  -27.2536  -27.5042   20.1156 C   0  0  0  0  0  0  0  0  0102  0  0
  -25.5726  -33.8762   24.2210 N   0  0  0  0  0  0  0  0  0103  0  0
  -23.4066  -30.4859   21.5461 C   0  0  2  0  0  0  0  0  0104  0  0
  -24.8467  -28.9636   20.1247 C   0  0  0  0  0  0  0  0  0105  0  0
  -22.7412  -29.4652   22.5052 C   0  0  0  0  0  0  0  0  0106  0  0
  -18.0167  -28.1302   22.8626 C   0  0  0  0  0  0  0  0  0107  0  0
  -24.1342  -36.7390   23.2568 C   0  0  0  0  0  0  0  0  0108  0  0
  -25.9141  -30.8882   21.3456 C   0  0  0  0  0  0  0  0  0109  0  0
  -25.9930  -29.5029   20.7208 C   0  0  0  0  0  0  0  0  0110  0  0
  -27.1758  -28.7612   20.7331 C   0  0  0  0  0  0  0  0  0111  0  0
  -26.1032  -26.9836   19.5230 C   0  0  0  0  0  0  0  0  0112  0  0
  -24.9097  -27.7011   19.5331 C   0  0  0  0  0  0  0  0  0113  0  0
  -23.5715  -29.7899   20.1582 C   0  0  0  0  0  0  0  0  0114  0  0
  -25.3990  -36.3212   24.0232 C   0  0  1  0  0  0  0  0  0115  0  0
  -20.5793  -28.3813   23.1004 C   0  0  2  0  0  0  0  0  0116  0  0
  -20.6548  -26.9392   22.5411 C   0  0  0  0  0  0  0  0  0117  0  0
  -19.5615  -26.6407   21.5143 C   0  0  0  0  0  0  0  0  0118  0  0
  -18.1797  -26.7818   22.1673 C   0  0  0  0  0  0  0  0  0119  0  0
  -19.1385  -28.8769   23.2988 C   0  0  0  0  0  0  0  0  0120  0  0
  -18.9183  -30.1286   23.8878 C   0  0  0  0  0  0  0  0  0121  0  0
  -17.6396  -30.6493   24.0352 C   0  0  0  0  0  0  0  0  0122  0  0
  -25.9153  -34.9582   23.4993 C   0  0  0  0  0  0  0  0  0123  0  0
  -16.5415  -29.9068   23.6254 C   0  0  0  0  0  0  0  0  0124  0  0
  -16.7331  -28.6521   23.0586 C   0  0  0  0  0  0  0  0  0125  0  0
  -26.4583  -31.6439   25.0683 C   0  0  0  0  0  0  0  0  0126  0  0
  -25.3807  -31.3179   26.1374 C   0  0  0  0  0  0  0  0  0127  0  0
  -27.0530  -30.3024   24.5680 C   0  0  0  0  0  0  0  0  0128  0  0
  -27.6014  -32.4281   25.7651 C   0  0  0  0  0  0  0  0  0129  0  0
  -27.5629  -37.2220   24.8621 C   0  0  0  0  0  0  0  0  0130  0  0
  -21.4133  -29.3375   22.3735 N   0  0  0  0  0  0  0  0  0131  0  0
  -26.4706  -37.3372   23.9061 N   0  0  0  0  0  0  0  0  0132  0  0
  -24.6674  -31.0544   22.1178 N   0  0  0  0  0  0  0  0  0133  0  0
  -23.4259  -28.8150   23.2971 O   0  0  0  0  0  0  0  0  0134  0  0
  -28.3948  -26.7345   20.0089 O   0  0  0  0  0  0  0  0  0135  0  0
  -26.5870  -34.9065   22.4671 O   0  0  0  0  0  0  0  0  0136  0  0
  -23.5365  -32.1254   23.7833 O   0  0  0  0  0  0  0  0  0137  0  0
  -31.8463  -18.2093   21.1910 C   0  0  0  0  0  0  0  0  0  0  0  0
  -31.5345  -19.5140   20.8088 C   0  0  0  0  0  0  0  0  0  0  0  0
  -31.0037  -17.5171   22.0609 C   0  0  0  0  0  0  0  0  0  0  0  0
  -30.3802  -20.1266   21.2965 C   0  0  0  0  0  0  0  0  0  0  0  0
  -29.5376  -19.4345   22.1664 C   0  0  0  0  0  0  0  0  0  0  0  0
  -29.8493  -18.1297   22.5486 C   0  0  0  0  0  0  0  0  0  0  0  0
  -31.3394  -16.1214   22.4657 C   0  0  0  0  0  0  0  0  0  0  0  0
  -30.9203  -22.1940   20.0082 C   0  0  0  0  0  0  0  0  0  0  0  0
  -30.3097  -23.5651   19.7713 C   0  0  0  0  0  0  0  0  0  1  0  0
  -28.3636  -20.0384   22.6700 N   0  0  0  0  0  0  0  0  0  0  0  0
  -30.0898  -21.4230   20.9048 N   0  0  0  0  0  0  0  0  0  0  0  0
  -30.5172  -15.1409   21.7923 N   0  0  0  0  0  0  0  0  0  0  0  0
  -29.0407  -17.4618   23.3852 F   0  0  0  0  0  0  0  0  0  0  0  0
  -31.4485  -12.4701   19.0860 H   0  0  0  0  0  0  0  0  0  0  0  0
  -30.3970  -11.2460   19.6950 H   0  0  0  0  0  0  0  0  0  0  0  0
  -29.6870  -11.8204   17.4226 H   0  0  0  0  0  0  0  0  0  0  0  0
  -29.6375  -13.5326   17.8649 H   0  0  0  0  0  0  0  0  0  0  0  0
  -27.7830  -11.3650   18.7904 H   0  0  0  0  0  0  0  0  0  0  0  0
  -27.4028  -12.7801   17.8021 H   0  0  0  0  0  0  0  0  0  0  0  0
  -27.7353  -14.2503   19.6136 H   0  0  0  0  0  0  0  0  0  0  0  0
  -28.5890  -11.9550   21.3832 H   0  0  0  0  0  0  0  0  0  0  0  0
  -28.5005  -13.6134   21.8562 H   0  0  0  0  0  0  0  0  0  0  0  0
  -25.2399   -9.5495   22.4318 H   0  0  0  0  0  0  0  0  0  0  0  0
  -23.9663   -7.5070   22.7297 H   0  0  0  0  0  0  0  0  0  0  0  0
  -21.1515   -8.8641   19.9162 H   0  0  0  0  0  0  0  0  0  0  0  0
  -22.4016  -10.9115   19.6476 H   0  0  0  0  0  0  0  0  0  0  0  0
  -21.2319   -7.5552   23.9750 H   0  0  0  0  0  0  0  0  0  0  0  0
  -21.1589   -6.0228   25.8556 H   0  0  0  0  0  0  0  0  0  0  0  0
  -22.0396   -2.8212   23.2809 H   0  0  0  0  0  0  0  0  0  0  0  0
  -22.4401  -11.9703   22.4008 H   0  0  0  0  0  0  0  0  0  0  0  0
  -21.1493  -13.0679   22.2082 H   0  0  0  0  0  0  0  0  0  0  0  0
  -24.6538  -15.7807   20.5848 H   0  0  0  0  0  0  0  0  0  0  0  0
  -26.2762  -15.5453   20.1156 H   0  0  0  0  0  0  0  0  0  0  0  0
  -26.6778  -32.4663   23.1464 H   0  0  0  0  0  0  0  0  0  0  0  0
  -25.0747  -34.0282   25.0566 H   0  0  0  0  0  0  0  0  0  0  0  0
  -22.7881  -31.3489   21.4131 H   0  0  0  0  0  0  0  0  0  0  0  0
  -23.3854  -35.9823   23.3648 H   0  0  0  0  0  0  0  0  0  0  0  0
  -24.3696  -36.8624   22.2204 H   0  0  0  0  0  0  0  0  0  0  0  0
  -23.7669  -37.6632   23.6516 H   0  0  0  0  0  0  0  0  0  0  0  0
  -25.9445  -31.6237   20.5691 H   0  0  0  0  0  0  0  0  0  0  0  0
  -26.7436  -31.0079   22.0108 H   0  0  0  0  0  0  0  0  0  0  0  0
  -28.0090  -29.1452   21.2057 H   0  0  0  0  0  0  0  0  0  0  0  0
  -26.1369  -26.0560   19.0719 H   0  0  0  0  0  0  0  0  0  0  0  0
  -24.0652  -27.2961   19.0997 H   0  0  0  0  0  0  0  0  0  0  0  0
  -23.6156  -30.5365   19.3930 H   0  0  0  0  0  0  0  0  0  0  0  0
  -22.7355  -29.1425   19.9945 H   0  0  0  0  0  0  0  0  0  0  0  0
  -25.1353  -36.2335   25.0565 H   0  0  0  0  0  0  0  0  0  0  0  0
  -21.0070  -28.3206   24.0793 H   0  0  0  0  0  0  0  0  0  0  0  0
  -20.5555  -26.2518   23.3550 H   0  0  0  0  0  0  0  0  0  0  0  0
  -21.5974  -26.8362   22.0454 H   0  0  0  0  0  0  0  0  0  0  0  0
  -19.6810  -25.6422   21.1488 H   0  0  0  0  0  0  0  0  0  0  0  0
  -19.6406  -27.3343   20.7034 H   0  0  0  0  0  0  0  0  0  0  0  0
  -17.4282  -26.6888   21.4113 H   0  0  0  0  0  0  0  0  0  0  0  0
  -18.0803  -26.0130   22.9049 H   0  0  0  0  0  0  0  0  0  0  0  0
  -19.7265  -30.6774   24.2204 H   0  0  0  0  0  0  0  0  0  0  0  0
  -17.5064  -31.5856   24.4483 H   0  0  0  0  0  0  0  0  0  0  0  0
  -15.5878  -30.2839   23.7407 H   0  0  0  0  0  0  0  0  0  0  0  0
  -15.9120  -28.0941   22.7766 H   0  0  0  0  0  0  0  0  0  0  0  0
  -24.5787  -30.7757   25.6817 H   0  0  0  0  0  0  0  0  0  0  0  0
  -25.0041  -32.2289   26.5536 H   0  0  0  0  0  0  0  0  0  0  0  0
  -25.8166  -30.7245   26.9138 H   0  0  0  0  0  0  0  0  0  0  0  0
  -26.2892  -29.7335   24.0803 H   0  0  0  0  0  0  0  0  0  0  0  0
  -27.4336  -29.7484   25.4006 H   0  0  0  0  0  0  0  0  0  0  0  0
  -27.8466  -30.4994   23.8779 H   0  0  0  0  0  0  0  0  0  0  0  0
  -27.2251  -33.3632   26.1242 H   0  0  0  0  0  0  0  0  0  0  0  0
  -28.3902  -32.6065   25.0645 H   0  0  0  0  0  0  0  0  0  0  0  0
  -27.9772  -31.8555   26.5872 H   0  0  0  0  0  0  0  0  0  0  0  0
  -28.2744  -38.0016   24.6863 H   0  0  0  0  0  0  0  0  0  0  0  0
  -28.0396  -36.2711   24.7461 H   0  0  0  0  0  0  0  0  0  0  0  0
  -27.1773  -37.3087   25.8564 H   0  0  0  0  0  0  0  0  0  0  0  0
  -20.9627  -29.9365   21.7352 H   0  0  0  0  0  0  0  0  0  0  0  0
  -26.0447  -38.2561   24.0273 H   0  0  0  0  0  0  0  0  0  0  0  0
  -32.7004  -17.7561   20.8302 H   0  0  0  0  0  0  0  0  0  0  0  0
  -32.1578  -20.0261   20.1652 H   0  0  0  0  0  0  0  0  0  0  0  0
  -31.1943  -16.0252   23.5214 H   0  0  0  0  0  0  0  0  0  0  0  0
  -32.3574  -15.9376   22.1923 H   0  0  0  0  0  0  0  0  0  0  0  0
  -31.8924  -22.3104   20.4399 H   0  0  0  0  0  0  0  0  0  0  0  0
  -30.9936  -21.6795   19.0729 H   0  0  0  0  0  0  0  0  0  0  0  0
  -29.9231  -23.3126   18.8061 H   0  0  0  0  0  0  0  0  0  0  0  0
  -30.8887  -23.9111   20.6019 H   0  0  0  0  0  0  0  0  0  0  0  0
  -28.1322  -20.9588   22.4080 H   0  0  0  0  0  0  0  0  0  0  0  0
  -27.7770  -19.5388   23.2828 H   0  0  0  0  0  0  0  0  0  0  0  0
  -29.2718  -21.8427   21.2569 H   0  0  0  0  0  0  0  0  0  0  0  0
  -29.6322  -15.0003   22.1999 H   0  0  0  0  0  0  0  0  0  0  0  0
  1 25  1  0
  1 30  2  0
  1 82  1  0
  2  3  1  0
  2 25  1  0
  2 84  1  0
  2 85  1  0
  3  4  1  0
  3 86  1  0
  3 87  1  0
  4  5  1  0
  4 88  1  0
  4 89  1  0
  5  6  1  0
  5 26  1  0
  5 90  1  6
  6 25  1  0
  6 91  1  0
  6 92  1  0
  7  8  2  0
  7 26  1  0
  7 29  1  0
  8  9  1  0
  8 22  1  0
  9 10  1  0
  9 27  2  0
 10 11  2  0
 10 15  1  0
 11 12  1  0
 11 93  1  0
 12 13  2  0
 12 94  1  0
 13 14  1  0
 13 31  1  0
 14 15  2  0
 14 95  1  0
 15 96  1  0
 16 17  2  0
 16 21  1  0
 16 31  1  0
 17 18  1  0
 17 97  1  0
 18 19  2  0
 18 98  1  0
 19 20  1  0
 19 24  1  0
 20 21  2  0
 20 99  1  0
 21 23  1  0
 22 28  1  0
 22 32  2  0
 26 27  1  0
 28100  1  0
 28101  1  0
 29102  1  0
 29103  1  0
 33 34  1  0
 33 66  1  0
 33 70  2  0
 34 36  1  0
 34 59  1  0
 34104  1  6
 35 44  2  0
 35 45  1  0
 35 68  1  0
 36 56  1  0
 36105  1  0
 37 39  1  0
 37 47  1  0
 37 66  1  0
 37106  1  6
 38 43  2  0
 38 46  1  0
 38 47  1  0
 39 64  1  0
 39 67  2  0
 40 52  1  0
 40 53  2  0
 40 58  1  0
 41107  1  0
 41108  1  0
 41109  1  0
 42 43  1  0
 42 66  1  0
 42110  1  0
 42111  1  0
 43 44  1  0
 44112  1  0
 45 46  2  0
 45113  1  0
 46114  1  0
 47115  1  0
 47116  1  0
 48 41  1  0
 48 56  1  0
 48 65  1  0
 48117  1  1
 49 50  1  0
 49 53  1  0
 49 64  1  0
 49118  1  1
 50 51  1  0
 50119  1  0
 50120  1  0
 51 52  1  0
 51121  1  0
 51122  1  0
 52123  1  0
 52124  1  0
 53 54  1  0
 54 55  2  0
 54125  1  0
 55 57  1  0
 55126  1  0
 56 69  2  0
 57 58  2  0
 57127  1  0
 58128  1  0
 59 60  1  0
 59 61  1  0
 59 62  1  0
 60129  1  0
 60130  1  0
 60131  1  0
 61132  1  0
 61133  1  0
 61134  1  0
 62135  1  0
 62136  1  0
 62137  1  0
 63 65  1  0
 63138  1  0
 63139  1  0
 63140  1  0
 64141  1  0
 65142  1  0
 68 79  1  0
 71 72  2  0
 71 73  1  0
 71143  1  0
 72 74  1  0
 72144  1  0
 73 76  2  0
 73 77  1  0
 74 75  2  0
 74 81  1  0
 75 76  1  0
 75 80  1  0
 76 83  1  0
 77 82  1  0
 77145  1  0
 77146  1  0
 78 79  1  0
 78 81  1  0
 78147  1  0
 78148  1  0
 79149  1  0
 79150  1  0
 80151  1  0
 80152  1  0
 81153  1  0
 82154  1  0
M  ISO  4   1 100  68 101  79 101  82 100
M  END
$$$$
57
     RDKit          3D

156165  0  0  0  0  0  0  0  0999 V2000
  -30.7652  -14.3608   20.6636 C   0  0  0  0  0  0  0  0  0100  0  0
  -30.4392  -12.2669   19.3775 C   0  0  0  0  0  0  0  0  0101  0  0
  -29.4791  -12.5281   18.1977 C   0  0  0  0  0  0  0  0  0102  0  0
  -27.9985  -12.3963   18.6038 C   0  0  0  0  0  0  0  0  0103  0  0
  -27.6639  -13.2170   19.8820 C   0  0  2  0  0  0  0  0  0104  0  0
  -28.6795  -12.9602   21.0279 C   0  0  0  0  0  0  0  0  0105  0  0
  -25.2633  -13.8245   20.5754 C   0  0  0  0  0  0  0  0  0106  0  0
  -24.1645  -13.0409   20.9408 C   0  0  0  0  0  0  0  0  0107  0  0
  -24.6400  -11.7009   20.8697 C   0  0  0  0  0  0  0  0  0108  0  0
  -23.9005  -10.4085   21.0420 C   0  0  0  0  0  0  0  0  0109  0  0
  -24.3588   -9.4123   21.9123 C   0  0  0  0  0  0  0  0  0110  0  0
  -23.6296   -8.2350   22.0803 C   0  0  0  0  0  0  0  0  0111  0  0
  -22.4385   -8.0419   21.3657 C   0  0  0  0  0  0  0  0  0112  0  0
  -22.0103   -9.0167   20.4678 C   0  0  0  0  0  0  0  0  0113  0  0
  -22.7317  -10.1925   20.3102 C   0  0  0  0  0  0  0  0  0114  0  0
  -21.6857   -6.0709   22.5391 C   0  0  0  0  0  0  0  0  0115  0  0
  -21.4064   -6.5490   23.8264 C   0  0  0  0  0  0  0  0  0116  0  0
  -21.3635   -5.6677   24.9085 C   0  0  0  0  0  0  0  0  0117  0  0
  -21.5973   -4.3067   24.7088 C   0  0  0  0  0  0  0  0  0118  0  0
  -21.8700   -3.8284   23.4282 C   0  0  0  0  0  0  0  0  0119  0  0
  -21.9144   -4.7056   22.3460 C   0  0  0  0  0  0  0  0  0120  0  0
  -22.8194  -13.5263   21.1763 C   0  0  0  0  0  0  0  0  0121  0  0
  -22.1559   -4.2206   21.1063 F   0  0  0  0  0  0  0  0  0122  0  0
  -21.5628   -3.4510   25.7555 F   0  0  0  0  0  0  0  0  0123  0  0
  -30.0261  -13.1803   20.4553 N   0  0  0  0  0  0  0  0  0124  0  0
  -26.2911  -12.9356   20.3443 N   0  0  0  0  0  0  0  0  0125  0  0
  -25.9236  -11.6675   20.5847 N   0  0  0  0  0  0  0  0  0126  0  0
  -22.0708  -12.7905   22.0005 N   0  0  0  0  0  0  0  0  0127  0  0
  -25.4117  -15.1773   20.4097 N   0  0  0  0  0  0  0  0  0128  0  0
  -31.7916  -14.6724   20.0536 O   0  0  0  0  0  0  0  0  0129  0  0
  -21.6670   -6.9022   21.4423 O   0  0  0  0  0  0  0  0  0130  0  0
  -22.3946  -14.5564   20.6568 O   0  0  0  0  0  0  0  0  0131  0  0
  -24.6048  -31.8614   23.2223 C   0  0  0  0  0  0  0  0  0100  0  0
  -25.8822  -32.4841   23.8616 C   0  0  1  0  0  0  0  0  0101  0  0
  -27.2536  -27.5042   20.1156 C   0  0  0  0  0  0  0  0  0102  0  0
  -25.5726  -33.8762   24.2210 N   0  0  0  0  0  0  0  0  0103  0  0
  -23.4066  -30.4859   21.5461 C   0  0  2  0  0  0  0  0  0104  0  0
  -24.8467  -28.9636   20.1247 C   0  0  0  0  0  0  0  0  0105  0  0
  -22.7412  -29.4652   22.5052 C   0  0  0  0  0  0  0  0  0106  0  0
  -18.0167  -28.1302   22.8626 C   0  0  0  0  0  0  0  0  0107  0  0
  -24.1342  -36.7390   23.2568 C   0  0  0  0  0  0  0  0  0108  0  0
  -25.9141  -30.8882   21.3456 C   0  0  0  0  0  0  0  0  0109  0  0
  -25.9930  -29.5029   20.7208 C   0  0  0  0  0  0  0  0  0110  0  0
  -27.1758  -28.7612   20.7331 C   0  0  0  0  0  0  0  0  0111  0  0
  -26.1032  -26.9836   19.5230 C   0  0  0  0  0  0  0  0  0112  0  0
  -24.9097  -27.7011   19.5331 C   0  0  0  0  0  0  0  0  0113  0  0
  -23.5715  -29.7899   20.1582 C   0  0  0  0  0  0  0  0  0114  0  0
  -25.3990  -36.3212   24.0232 C   0  0  1  0  0  0  0  0  0115  0  0
  -20.5793  -28.3813   23.1004 C   0  0  2  0  0  0  0  0  0116  0  0
  -20.6548  -26.9392   22.5411 C   0  0  0  0  0  0  0  0  0117  0  0
  -19.5615  -26.6407   21.5143 C   0  0  0  0  0  0  0  0  0118  0  0
  -18.1797  -26.7818   22.1673 C   0  0  0  0  0  0  0  0  0119  0  0
  -19.1385  -28.8769   23.2988 C   0  0  0  0  0  0  0  0  0120  0  0
  -18.9183  -30.1286   23.8878 C   0  0  0  0  0  0  0  0  0121  0  0
  -17.6396  -30.6493   24.0352 C   0  0  0  0  0  0  0  0  0122  0  0
  -25.9153  -34.9582   23.4993 C   0  0  0  0  0  0  0  0  0123  0  0
  -16.5415  -29.9068   23.6254 C   0  0  0  0  0  0  0  0  0124  0  0
  -16.7331  -28.6521   23.0586 C   0  0  0  0  0  0  0  0  0125  0  0
  -26.4583  -31.6439   25.0683 C   0  0  0  0  0  0  0  0  0126  0  0
  -25.3807  -31.3179   26.1374 C   0  0  0  0  0  0  0  0  0127  0  0
  -27.0530  -30.3024   24.5680 C   0  0  0  0  0  0  0  0  0128  0  0
  -27.6014  -32.4281   25.7651 C   0  0  0  0  0  0  0  0  0129  0  0
  -27.5629  -37.2220   24.8621 C   0  0  0  0  0  0  0  0  0130  0  0
  -21.4133  -29.3375   22.3735 N   0  0  0  0  0  0  0  0  0131  0  0
  -26.4706  -37.3372   23.9061 N   0  0  0  0  0  0  0  0  0132  0  0
  -24.6674  -31.0544   22.1178 N   0  0  0  0  0  0  0  0  0133  0  0
  -23.4259  -28.8150   23.2971 O   0  0  0  0  0  0  0  0  0134  0  0
  -28.3948  -26.7345   20.0089 O   0  0  0  0  0  0  0  0  0135  0  0
  -26.5870  -34.9065   22.4671 O   0  0  0  0  0  0  0  0  0136  0  0
  -23.5365  -32.1254   23.7833 O   0  0  0  0  0  0  0  0  0137  0  0
  -25.1092  -18.5385   16.8478 C   0  0  0  0  0  0  0  0  0  0  0  0
  -25.7142  -19.7173   17.2835 C   0  0  0  0  0  0  0  0  0  0  0  0
  -25.7047  -17.3069   17.1202 C   0  0  0  0  0  0  0  0  0  0  0  0
  -27.5104  -18.4330   18.2639 C   0  0  0  0  0  0  0  0  0  0  0  0
  -26.9148  -19.6646   17.9916 C   0  0  0  0  0  0  0  0  0  0  0  0
  -26.9053  -17.2542   17.8282 C   0  0  0  0  0  0  0  0  0  0  0  0
  -26.8175  -22.0082   18.7640 C   0  0  0  0  0  0  0  0  0  0  0  0
  -27.3250  -23.1861   19.1542 C   0  0  0  0  0  0  0  0  0  0  0  0
  -28.8100  -23.3077   19.1625 C   0  0  0  0  0  0  0  0  0  0  0  0
  -29.6140  -22.1867   18.5384 C   0  0  0  0  0  0  0  0  0  0  0  0
  -28.9705  -20.8158   18.7292 C   0  0  0  0  0  0  0  0  0  0  0  0
  -26.5059  -24.3661   19.5610 C   0  0  0  0  0  0  0  0  0  1  0  0
  -27.5302  -20.8647   18.4356 N   0  0  0  0  0  0  0  0  0  0  0  0
  -27.5105  -16.0029   18.1036 N   0  0  0  0  0  0  0  0  0  0  0  0
  -29.3563  -24.3199   19.5974 O   0  0  0  0  0  0  0  0  0  0  0  0
  -31.4485  -12.4701   19.0860 H   0  0  0  0  0  0  0  0  0  0  0  0
  -30.3970  -11.2460   19.6950 H   0  0  0  0  0  0  0  0  0  0  0  0
  -29.6870  -11.8204   17.4226 H   0  0  0  0  0  0  0  0  0  0  0  0
  -29.6375  -13.5326   17.8649 H   0  0  0  0  0  0  0  0  0  0  0  0
  -27.7830  -11.3650   18.7904 H   0  0  0  0  0  0  0  0  0  0  0  0
  -27.4028  -12.7801   17.8021 H   0  0  0  0  0  0  0  0  0  0  0  0
  -27.7353  -14.2503   19.6136 H   0  0  0  0  0  0  0  0  0  0  0  0
  -28.5890  -11.9550   21.3832 H   0  0  0  0  0  0  0  0  0  0  0  0
  -28.5005  -13.6134   21.8562 H   0  0  0  0  0  0  0  0  0  0  0  0
  -25.2399   -9.5495   22.4318 H   0  0  0  0  0  0  0  0  0  0  0  0
  -23.9663   -7.5070   22.7297 H   0  0  0  0  0  0  0  0  0  0  0  0
  -21.1515   -8.8641   19.9162 H   0  0  0  0  0  0  0  0  0  0  0  0
  -22.4016  -10.9115   19.6476 H   0  0  0  0  0  0  0  0  0  0  0  0
  -21.2319   -7.5552   23.9750 H   0  0  0  0  0  0  0  0  0  0  0  0
  -21.1589   -6.0228   25.8556 H   0  0  0  0  0  0  0  0  0  0  0  0
  -22.0396   -2.8212   23.2809 H   0  0  0  0  0  0  0  0  0  0  0  0
  -22.4401  -11.9703   22.4008 H   0  0  0  0  0  0  0  0  0  0  0  0
  -21.1493  -13.0679   22.2082 H   0  0  0  0  0  0  0  0  0  0  0  0
  -24.6538  -15.7807   20.5848 H   0  0  0  0  0  0  0  0  0  0  0  0
  -26.2762  -15.5453   20.1156 H   0  0  0  0  0  0  0  0  0  0  0  0
  -26.6778  -32.4663   23.1464 H   0  0  0  0  0  0  0  0  0  0  0  0
  -25.0747  -34.0282   25.0566 H   0  0  0  0  0  0  0  0  0  0  0  0
  -22.7881  -31.3489   21.4131 H   0  0  0  0  0  0  0  0  0  0  0  0
  -23.3854  -35.9823   23.3648 H   0  0  0  0  0  0  0  0  0  0  0  0
  -24.3696  -36.8624   22.2204 H   0  0  0  0  0  0  0  0  0  0  0  0
  -23.7669  -37.6632   23.6516 H   0  0  0  0  0  0  0  0  0  0  0  0
  -25.9445  -31.6237   20.5691 H   0  0  0  0  0  0  0  0  0  0  0  0
  -26.7436  -31.0079   22.0108 H   0  0  0  0  0  0  0  0  0  0  0  0
  -28.0090  -29.1452   21.2057 H   0  0  0  0  0  0  0  0  0  0  0  0
  -26.1369  -26.0560   19.0719 H   0  0  0  0  0  0  0  0  0  0  0  0
  -24.0652  -27.2961   19.0997 H   0  0  0  0  0  0  0  0  0  0  0  0
  -23.6156  -30.5365   19.3930 H   0  0  0  0  0  0  0  0  0  0  0  0
  -22.7355  -29.1425   19.9945 H   0  0  0  0  0  0  0  0  0  0  0  0
  -25.1353  -36.2335   25.0565 H   0  0  0  0  0  0  0  0  0  0  0  0
  -21.0070  -28.3206   24.0793 H   0  0  0  0  0  0  0  0  0  0  0  0
  -20.5555  -26.2518   23.3550 H   0  0  0  0  0  0  0  0  0  0  0  0
  -21.5974  -26.8362   22.0454 H   0  0  0  0  0  0  0  0  0  0  0  0
  -19.6810  -25.6422   21.1488 H   0  0  0  0  0  0  0  0  0  0  0  0
  -19.6406  -27.3343   20.7034 H   0  0  0  0  0  0  0  0  0  0  0  0
  -17.4282  -26.6888   21.4113 H   0  0  0  0  0  0  0  0  0  0  0  0
  -18.0803  -26.0130   22.9049 H   0  0  0  0  0  0  0  0  0  0  0  0
  -19.7265  -30.6774   24.2204 H   0  0  0  0  0  0  0  0  0  0  0  0
  -17.5064  -31.5856   24.4483 H   0  0  0  0  0  0  0  0  0  0  0  0
  -15.5878  -30.2839   23.7407 H   0  0  0  0  0  0  0  0  0  0  0  0
  -15.9120  -28.0941   22.7766 H   0  0  0  0  0  0  0  0  0  0  0  0
  -24.5787  -30.7757   25.6817 H   0  0  0  0  0  0  0  0  0  0  0  0
  -25.0041  -32.2289   26.5536 H   0  0  0  0  0  0  0  0  0  0  0  0
  -25.8166  -30.7245   26.9138 H   0  0  0  0  0  0  0  0  0  0  0  0
  -26.2892  -29.7335   24.0803 H   0  0  0  0  0  0  0  0  0  0  0  0
  -27.4336  -29.7484   25.4006 H   0  0  0  0  0  0  0  0  0  0  0  0
  -27.8466  -30.4994   23.8779 H   0  0  0  0  0  0  0  0  0  0  0  0
  -27.2251  -33.3632   26.1242 H   0  0  0  0  0  0  0  0  0  0  0  0
  -28.3902  -32.6065   25.0645 H   0  0  0  0  0  0  0  0  0  0  0  0
  -27.9772  -31.8555   26.5872 H   0  0  0  0  0  0  0  0  0  0  0  0
  -28.2744  -38.0016   24.6863 H   0  0  0  0  0  0  0  0  0  0  0  0
  -28.0396  -36.2711   24.7461 H   0  0  0  0  0  0  0  0  0  0  0  0
  -27.1773  -37.3087   25.8564 H   0  0  0  0  0  0  0  0  0  0  0  0
  -20.9627  -29.9365   21.7352 H   0  0  0  0  0  0  0  0  0  0  0  0
  -26.0447  -38.2561   24.0273 H   0  0  0  0  0  0  0  0  0  0  0  0
  -24.2209  -18.5775   16.3239 H   0  0  0  0  0  0  0  0  0  0  0  0
  -25.2736  -20.6285   17.0820 H   0  0  0  0  0  0  0  0  0  0  0  0
  -25.2570  -16.4347   16.7979 H   0  0  0  0  0  0  0  0  0  0  0  0
  -28.3987  -18.3940   18.7877 H   0  0  0  0  0  0  0  0  0  0  0  0
  -25.7893  -21.9459   18.7015 H   0  0  0  0  0  0  0  0  0  0  0  0
  -30.5855  -22.1730   18.9865 H   0  0  0  0  0  0  0  0  0  0  0  0
  -29.6631  -22.3744   17.4861 H   0  0  0  0  0  0  0  0  0  0  0  0
  -29.1107  -20.5013   19.7423 H   0  0  0  0  0  0  0  0  0  0  0  0
  -29.4328  -20.1252   18.0552 H   0  0  0  0  0  0  0  0  0  0  0  0
  -25.9793  -24.1467   20.4662 H   0  0  0  0  0  0  0  0  0  0  0  0
  -25.7928  -24.6013   18.7987 H   0  0  0  0  0  0  0  0  0  0  0  0
  -27.0885  -15.2877   17.5748 H   0  0  0  0  0  0  0  0  0  0  0  0
  1 25  1  0
  1 30  2  0
  1 84  1  0
  2  3  1  0
  2 25  1  0
  2 86  1  0
  2 87  1  0
  3  4  1  0
  3 88  1  0
  3 89  1  0
  4  5  1  0
  4 90  1  0
  4 91  1  0
  5  6  1  0
  5 26  1  0
  5 92  1  6
  6 25  1  0
  6 93  1  0
  6 94  1  0
  7  8  2  0
  7 26  1  0
  7 29  1  0
  8  9  1  0
  8 22  1  0
  9 10  1  0
  9 27  2  0
 10 11  2  0
 10 15  1  0
 11 12  1  0
 11 95  1  0
 12 13  2  0
 12 96  1  0
 13 14  1  0
 13 31  1  0
 14 15  2  0
 14 97  1  0
 15 98  1  0
 16 17  2  0
 16 21  1  0
 16 31  1  0
 17 18  1  0
 17 99  1  0
 18 19  2  0
 18100  1  0
 19 20  1  0
 19 24  1  0
 20 21  2  0
 20101  1  0
 21 23  1  0
 22 28  1  0
 22 32  2  0
 26 27  1  0
 28102  1  0
 28103  1  0
 29104  1  0
 29105  1  0
 33 34  1  0
 33 66  1  0
 33 70  2  0
 34 36  1  0
 34 59  1  0
 34106  1  6
 35 44  2  0
 35 45  1  0
 35 68  1  0
 36 56  1  0
 36107  1  0
 37 39  1  0
 37 47  1  0
 37 66  1  0
 37108  1  6
 38 43  2  0
 38 46  1  0
 38 47  1  0
 39 64  1  0
 39 67  2  0
 40 52  1  0
 40 53  2  0
 40 58  1  0
 41109  1  0
 41110  1  0
 41111  1  0
 42 43  1  0
 42 66  1  0
 42112  1  0
 42113  1  0
 43 44  1  0
 44114  1  0
 45 46  2  0
 45115  1  0
 46116  1  0
 47117  1  0
 47118  1  0
 48 41  1  0
 48 56  1  0
 48 65  1  0
 48119  1  1
 49 50  1  0
 49 53  1  0
 49 64  1  0
 49120  1  1
 50 51  1  0
 50121  1  0
 50122  1  0
 51 52  1  0
 51123  1  0
 51124  1  0
 52125  1  0
 52126  1  0
 53 54  1  0
 54 55  2  0
 54127  1  0
 55 57  1  0
 55128  1  0
 56 69  2  0
 57 58  2  0
 57129  1  0
 58130  1  0
 59 60  1  0
 59 61  1  0
 59 62  1  0
 60131  1  0
 60132  1  0
 60133  1  0
 61134  1  0
 61135  1  0
 61136  1  0
 62137  1  0
 62138  1  0
 62139  1  0
 63 65  1  0
 63140  1  0
 63141  1  0
 63142  1  0
 64143  1  0
 65144  1  0
 68 82  1  0
 71 72  2  0
 71 73  1  0
 71145  1  0
 72 75  1  0
 72146  1  0
 73 76  2  0
 73147  1  0
 74 75  2  0
 74 76  1  0
 74148  1  0
 75 83  1  0
 76 84  1  0
 77 78  2  0
 77 83  1  0
 77149  1  0
 78 79  1  0
 78 82  1  0
 79 80  1  0
 79 85  2  0
 80 81  1  0
 80150  1  0
 80151  1  0
 81 83  1  0
 81152  1  0
 81153  1  0
 82154  1  0
 82155  1  0
 84156  1  0
M  ISO  4   1 100  68 101  82 101  84 100
M  END
$$$$
58
     RDKit          3D

159168  0  0  0  0  0  0  0  0999 V2000
  -30.7652  -14.3608   20.6636 C   0  0  0  0  0  0  0  0  0100  0  0
  -30.4392  -12.2669   19.3775 C   0  0  0  0  0  0  0  0  0101  0  0
  -29.4791  -12.5281   18.1977 C   0  0  0  0  0  0  0  0  0102  0  0
  -27.9985  -12.3963   18.6038 C   0  0  0  0  0  0  0  0  0103  0  0
  -27.6639  -13.2170   19.8820 C   0  0  2  0  0  0  0  0  0104  0  0
  -28.6795  -12.9602   21.0279 C   0  0  0  0  0  0  0  0  0105  0  0
  -25.2633  -13.8245   20.5754 C   0  0  0  0  0  0  0  0  0106  0  0
  -24.1645  -13.0409   20.9408 C   0  0  0  0  0  0  0  0  0107  0  0
  -24.6400  -11.7009   20.8697 C   0  0  0  0  0  0  0  0  0108  0  0
  -23.9005  -10.4085   21.0420 C   0  0  0  0  0  0  0  0  0109  0  0
  -24.3588   -9.4123   21.9123 C   0  0  0  0  0  0  0  0  0110  0  0
  -23.6296   -8.2350   22.0803 C   0  0  0  0  0  0  0  0  0111  0  0
  -22.4385   -8.0419   21.3657 C   0  0  0  0  0  0  0  0  0112  0  0
  -22.0103   -9.0167   20.4678 C   0  0  0  0  0  0  0  0  0113  0  0
  -22.7317  -10.1925   20.3102 C   0  0  0  0  0  0  0  0  0114  0  0
  -21.6857   -6.0709   22.5391 C   0  0  0  0  0  0  0  0  0115  0  0
  -21.4064   -6.5490   23.8264 C   0  0  0  0  0  0  0  0  0116  0  0
  -21.3635   -5.6677   24.9085 C   0  0  0  0  0  0  0  0  0117  0  0
  -21.5973   -4.3067   24.7088 C   0  0  0  0  0  0  0  0  0118  0  0
  -21.8700   -3.8284   23.4282 C   0  0  0  0  0  0  0  0  0119  0  0
  -21.9144   -4.7056   22.3460 C   0  0  0  0  0  0  0  0  0120  0  0
  -22.8194  -13.5263   21.1763 C   0  0  0  0  0  0  0  0  0121  0  0
  -22.1559   -4.2206   21.1063 F   0  0  0  0  0  0  0  0  0122  0  0
  -21.5628   -3.4510   25.7555 F   0  0  0  0  0  0  0  0  0123  0  0
  -30.0261  -13.1803   20.4553 N   0  0  0  0  0  0  0  0  0124  0  0
  -26.2911  -12.9356   20.3443 N   0  0  0  0  0  0  0  0  0125  0  0
  -25.9236  -11.6675   20.5847 N   0  0  0  0  0  0  0  0  0126  0  0
  -22.0708  -12.7905   22.0005 N   0  0  0  0  0  0  0  0  0127  0  0
  -25.4117  -15.1773   20.4097 N   0  0  0  0  0  0  0  0  0128  0  0
  -31.7916  -14.6724   20.0536 O   0  0  0  0  0  0  0  0  0129  0  0
  -21.6670   -6.9022   21.4423 O   0  0  0  0  0  0  0  0  0130  0  0
  -22.3946  -14.5564   20.6568 O   0  0  0  0  0  0  0  0  0131  0  0
  -24.6048  -31.8614   23.2223 C   0  0  0  0  0  0  0  0  0100  0  0
  -25.8822  -32.4841   23.8616 C   0  0  1  0  0  0  0  0  0101  0  0
  -27.2536  -27.5042   20.1156 C   0  0  0  0  0  0  0  0  0102  0  0
  -25.5726  -33.8762   24.2210 N   0  0  0  0  0  0  0  0  0103  0  0
  -23.4066  -30.4859   21.5461 C   0  0  2  0  0  0  0  0  0104  0  0
  -24.8467  -28.9636   20.1247 C   0  0  0  0  0  0  0  0  0105  0  0
  -22.7412  -29.4652   22.5052 C   0  0  0  0  0  0  0  0  0106  0  0
  -18.0167  -28.1302   22.8626 C   0  0  0  0  0  0  0  0  0107  0  0
  -24.1342  -36.7390   23.2568 C   0  0  0  0  0  0  0  0  0108  0  0
  -25.9141  -30.8882   21.3456 C   0  0  0  0  0  0  0  0  0109  0  0
  -25.9930  -29.5029   20.7208 C   0  0  0  0  0  0  0  0  0110  0  0
  -27.1758  -28.7612   20.7331 C   0  0  0  0  0  0  0  0  0111  0  0
  -26.1032  -26.9836   19.5230 C   0  0  0  0  0  0  0  0  0112  0  0
  -24.9097  -27.7011   19.5331 C   0  0  0  0  0  0  0  0  0113  0  0
  -23.5715  -29.7899   20.1582 C   0  0  0  0  0  0  0  0  0114  0  0
  -25.3990  -36.3212   24.0232 C   0  0  1  0  0  0  0  0  0115  0  0
  -20.5793  -28.3813   23.1004 C   0  0  2  0  0  0  0  0  0116  0  0
  -20.6548  -26.9392   22.5411 C   0  0  0  0  0  0  0  0  0117  0  0
  -19.5615  -26.6407   21.5143 C   0  0  0  0  0  0  0  0  0118  0  0
  -18.1797  -26.7818   22.1673 C   0  0  0  0  0  0  0  0  0119  0  0
  -19.1385  -28.8769   23.2988 C   0  0  0  0  0  0  0  0  0120  0  0
  -18.9183  -30.1286   23.8878 C   0  0  0  0  0  0  0  0  0121  0  0
  -17.6396  -30.6493   24.0352 C   0  0  0  0  0  0  0  0  0122  0  0
  -25.9153  -34.9582   23.4993 C   0  0  0  0  0  0  0  0  0123  0  0
  -16.5415  -29.9068   23.6254 C   0  0  0  0  0  0  0  0  0124  0  0
  -16.7331  -28.6521   23.0586 C   0  0  0  0  0  0  0  0  0125  0  0
  -26.4583  -31.6439   25.0683 C   0  0  0  0  0  0  0  0  0126  0  0
  -25.3807  -31.3179   26.1374 C   0  0  0  0  0  0  0  0  0127  0  0
  -27.0530  -30.3024   24.5680 C   0  0  0  0  0  0  0  0  0128  0  0
  -27.6014  -32.4281   25.7651 C   0  0  0  0  0  0  0  0  0129  0  0
  -27.5629  -37.2220   24.8621 C   0  0  0  0  0  0  0  0  0130  0  0
  -21.4133  -29.3375   22.3735 N   0  0  0  0  0  0  0  0  0131  0  0
  -26.4706  -37.3372   23.9061 N   0  0  0  0  0  0  0  0  0132  0  0
  -24.6674  -31.0544   22.1178 N   0  0  0  0  0  0  0  0  0133  0  0
  -23.4259  -28.8150   23.2971 O   0  0  0  0  0  0  0  0  0134  0  0
  -28.3948  -26.7345   20.0089 O   0  0  0  0  0  0  0  0  0135  0  0
  -26.5870  -34.9065   22.4671 O   0  0  0  0  0  0  0  0  0136  0  0
  -23.5365  -32.1254   23.7833 O   0  0  0  0  0  0  0  0  0137  0  0
  -29.8874  -16.1871   23.2941 C   0  0  0  0  0  0  0  0  0  0  0  0
  -29.9683  -16.4893   22.1351 C   0  0  0  0  0  0  0  0  0  0  0  0
  -30.2627  -20.0853   18.9699 C   0  0  0  0  0  0  0  0  0  0  0  0
  -30.1267  -20.5413   21.3386 C   0  0  0  0  0  0  0  0  0  0  0  0
  -30.2095  -18.7161   19.2304 C   0  0  0  0  0  0  0  0  0  0  0  0
  -30.0734  -19.1720   21.5991 C   0  0  0  0  0  0  0  0  0  0  0  0
  -30.7404  -24.3113   18.7875 C   0  0  0  0  0  0  0  0  0  0  0  0
  -29.9637  -24.5624   19.9454 C   0  0  0  0  0  0  0  0  0  0  0  0
  -30.2214  -20.9980   20.0240 C   0  0  0  0  0  0  0  0  0  0  0  0
  -30.1148  -18.2594   20.5450 C   0  0  0  0  0  0  0  0  0  0  0  0
  -30.9170  -22.9482   18.6983 C   0  0  0  0  0  0  0  0  0  0  0  0
  -29.6896  -23.3451   20.5287 C   0  0  0  0  0  0  0  0  0  0  0  0
  -29.7893  -15.8188   24.7058 C   0  0  0  0  0  0  0  0  0  0  0  0
  -29.5247  -25.9088   20.4411 C   0  0  0  0  0  0  0  0  0  1  0  0
  -30.2742  -22.3710   19.7622 N   0  0  0  0  0  0  0  0  0  0  0  0
  -30.0604  -16.8338   20.8153 N   0  0  0  0  0  0  0  0  0  0  0  0
  -31.5676  -22.2216   17.7974 O   0  0  0  0  0  0  0  0  0  0  0  0
  -29.0029  -23.0469   21.6259 O   0  0  0  0  0  0  0  0  0  0  0  0
  -31.4485  -12.4701   19.0860 H   0  0  0  0  0  0  0  0  0  0  0  0
  -30.3970  -11.2460   19.6950 H   0  0  0  0  0  0  0  0  0  0  0  0
  -29.6870  -11.8204   17.4226 H   0  0  0  0  0  0  0  0  0  0  0  0
  -29.6375  -13.5326   17.8649 H   0  0  0  0  0  0  0  0  0  0  0  0
  -27.7830  -11.3650   18.7904 H   0  0  0  0  0  0  0  0  0  0  0  0
  -27.4028  -12.7801   17.8021 H   0  0  0  0  0  0  0  0  0  0  0  0
  -27.7353  -14.2503   19.6136 H   0  0  0  0  0  0  0  0  0  0  0  0
  -28.5890  -11.9550   21.3832 H   0  0  0  0  0  0  0  0  0  0  0  0
  -28.5005  -13.6134   21.8562 H   0  0  0  0  0  0  0  0  0  0  0  0
  -25.2399   -9.5495   22.4318 H   0  0  0  0  0  0  0  0  0  0  0  0
  -23.9663   -7.5070   22.7297 H   0  0  0  0  0  0  0  0  0  0  0  0
  -21.1515   -8.8641   19.9162 H   0  0  0  0  0  0  0  0  0  0  0  0
  -22.4016  -10.9115   19.6476 H   0  0  0  0  0  0  0  0  0  0  0  0
  -21.2319   -7.5552   23.9750 H   0  0  0  0  0  0  0  0  0  0  0  0
  -21.1589   -6.0228   25.8556 H   0  0  0  0  0  0  0  0  0  0  0  0
  -22.0396   -2.8212   23.2809 H   0  0  0  0  0  0  0  0  0  0  0  0
  -22.4401  -11.9703   22.4008 H   0  0  0  0  0  0  0  0  0  0  0  0
  -21.1493  -13.0679   22.2082 H   0  0  0  0  0  0  0  0  0  0  0  0
  -24.6538  -15.7807   20.5848 H   0  0  0  0  0  0  0  0  0  0  0  0
  -26.2762  -15.5453   20.1156 H   0  0  0  0  0  0  0  0  0  0  0  0
  -26.6778  -32.4663   23.1464 H   0  0  0  0  0  0  0  0  0  0  0  0
  -25.0747  -34.0282   25.0566 H   0  0  0  0  0  0  0  0  0  0  0  0
  -22.7881  -31.3489   21.4131 H   0  0  0  0  0  0  0  0  0  0  0  0
  -23.3854  -35.9823   23.3648 H   0  0  0  0  0  0  0  0  0  0  0  0
  -24.3696  -36.8624   22.2204 H   0  0  0  0  0  0  0  0  0  0  0  0
  -23.7669  -37.6632   23.6516 H   0  0  0  0  0  0  0  0  0  0  0  0
  -25.9445  -31.6237   20.5691 H   0  0  0  0  0  0  0  0  0  0  0  0
  -26.7436  -31.0079   22.0108 H   0  0  0  0  0  0  0  0  0  0  0  0
  -28.0090  -29.1452   21.2057 H   0  0  0  0  0  0  0  0  0  0  0  0
  -26.1369  -26.0560   19.0719 H   0  0  0  0  0  0  0  0  0  0  0  0
  -24.0652  -27.2961   19.0997 H   0  0  0  0  0  0  0  0  0  0  0  0
  -23.6156  -30.5365   19.3930 H   0  0  0  0  0  0  0  0  0  0  0  0
  -22.7355  -29.1425   19.9945 H   0  0  0  0  0  0  0  0  0  0  0  0
  -25.1353  -36.2335   25.0565 H   0  0  0  0  0  0  0  0  0  0  0  0
  -21.0070  -28.3206   24.0793 H   0  0  0  0  0  0  0  0  0  0  0  0
  -20.5555  -26.2518   23.3550 H   0  0  0  0  0  0  0  0  0  0  0  0
  -21.5974  -26.8362   22.0454 H   0  0  0  0  0  0  0  0  0  0  0  0
  -19.6810  -25.6422   21.1488 H   0  0  0  0  0  0  0  0  0  0  0  0
  -19.6406  -27.3343   20.7034 H   0  0  0  0  0  0  0  0  0  0  0  0
  -17.4282  -26.6888   21.4113 H   0  0  0  0  0  0  0  0  0  0  0  0
  -18.0803  -26.0130   22.9049 H   0  0  0  0  0  0  0  0  0  0  0  0
  -19.7265  -30.6774   24.2204 H   0  0  0  0  0  0  0  0  0  0  0  0
  -17.5064  -31.5856   24.4483 H   0  0  0  0  0  0  0  0  0  0  0  0
  -15.5878  -30.2839   23.7407 H   0  0  0  0  0  0  0  0  0  0  0  0
  -15.9120  -28.0941   22.7766 H   0  0  0  0  0  0  0  0  0  0  0  0
  -24.5787  -30.7757   25.6817 H   0  0  0  0  0  0  0  0  0  0  0  0
  -25.0041  -32.2289   26.5536 H   0  0  0  0  0  0  0  0  0  0  0  0
  -25.8166  -30.7245   26.9138 H   0  0  0  0  0  0  0  0  0  0  0  0
  -26.2892  -29.7335   24.0803 H   0  0  0  0  0  0  0  0  0  0  0  0
  -27.4336  -29.7484   25.4006 H   0  0  0  0  0  0  0  0  0  0  0  0
  -27.8466  -30.4994   23.8779 H   0  0  0  0  0  0  0  0  0  0  0  0
  -27.2251  -33.3632   26.1242 H   0  0  0  0  0  0  0  0  0  0  0  0
  -28.3902  -32.6065   25.0645 H   0  0  0  0  0  0  0  0  0  0  0  0
  -27.9772  -31.8555   26.5872 H   0  0  0  0  0  0  0  0  0  0  0  0
  -28.2744  -38.0016   24.6863 H   0  0  0  0  0  0  0  0  0  0  0  0
  -28.0396  -36.2711   24.7461 H   0  0  0  0  0  0  0  0  0  0  0  0
  -27.1773  -37.3087   25.8564 H   0  0  0  0  0  0  0  0  0  0  0  0
  -20.9627  -29.9365   21.7352 H   0  0  0  0  0  0  0  0  0  0  0  0
  -26.0447  -38.2561   24.0273 H   0  0  0  0  0  0  0  0  0  0  0  0
  -30.3326  -20.4232   17.9973 H   0  0  0  0  0  0  0  0  0  0  0  0
  -30.0961  -21.2165   22.1185 H   0  0  0  0  0  0  0  0  0  0  0  0
  -30.2402  -18.0409   18.4505 H   0  0  0  0  0  0  0  0  0  0  0  0
  -30.0033  -18.8341   22.5717 H   0  0  0  0  0  0  0  0  0  0  0  0
  -31.1064  -25.0192   18.1318 H   0  0  0  0  0  0  0  0  0  0  0  0
  -29.1268  -16.4943   25.2054 H   0  0  0  0  0  0  0  0  0  0  0  0
  -30.7584  -15.8712   25.1563 H   0  0  0  0  0  0  0  0  0  0  0  0
  -29.4109  -14.8214   24.7887 H   0  0  0  0  0  0  0  0  0  0  0  0
  -30.3801  -26.5352   20.2970 H   0  0  0  0  0  0  0  0  0  0  0  0
  -29.1270  -25.5964   21.3840 H   0  0  0  0  0  0  0  0  0  0  0  0
  -31.9987  -22.6418   17.0794 H   0  0  0  0  0  0  0  0  0  0  0  0
  -28.6120  -23.7302   22.1341 H   0  0  0  0  0  0  0  0  0  0  0  0
  1 25  1  0
  1 30  2  0
  1 86  1  0
  2  3  1  0
  2 25  1  0
  2 89  1  0
  2 90  1  0
  3  4  1  0
  3 91  1  0
  3 92  1  0
  4  5  1  0
  4 93  1  0
  4 94  1  0
  5  6  1  0
  5 26  1  0
  5 95  1  6
  6 25  1  0
  6 96  1  0
  6 97  1  0
  7  8  2  0
  7 26  1  0
  7 29  1  0
  8  9  1  0
  8 22  1  0
  9 10  1  0
  9 27  2  0
 10 11  2  0
 10 15  1  0
 11 12  1  0
 11 98  1  0
 12 13  2  0
 12 99  1  0
 13 14  1  0
 13 31  1  0
 14 15  2  0
 14100  1  0
 15101  1  0
 16 17  2  0
 16 21  1  0
 16 31  1  0
 17 18  1  0
 17102  1  0
 18 19  2  0
 18103  1  0
 19 20  1  0
 19 24  1  0
 20 21  2  0
 20104  1  0
 21 23  1  0
 22 28  1  0
 22 32  2  0
 26 27  1  0
 28105  1  0
 28106  1  0
 29107  1  0
 29108  1  0
 33 34  1  0
 33 66  1  0
 33 70  2  0
 34 36  1  0
 34 59  1  0
 34109  1  6
 35 44  2  0
 35 45  1  0
 35 68  1  0
 36 56  1  0
 36110  1  0
 37 39  1  0
 37 47  1  0
 37 66  1  0
 37111  1  6
 38 43  2  0
 38 46  1  0
 38 47  1  0
 39 64  1  0
 39 67  2  0
 40 52  1  0
 40 53  2  0
 40 58  1  0
 41112  1  0
 41113  1  0
 41114  1  0
 42 43  1  0
 42 66  1  0
 42115  1  0
 42116  1  0
 43 44  1  0
 44117  1  0
 45 46  2  0
 45118  1  0
 46119  1  0
 47120  1  0
 47121  1  0
 48 41  1  0
 48 56  1  0
 48 65  1  0
 48122  1  1
 49 50  1  0
 49 53  1  0
 49 64  1  0
 49123  1  1
 50 51  1  0
 50124  1  0
 50125  1  0
 51 52  1  0
 51126  1  0
 51127  1  0
 52128  1  0
 52129  1  0
 53 54  1  0
 54 55  2  0
 54130  1  0
 55 57  1  0
 55131  1  0
 56 69  2  0
 57 58  2  0
 57132  1  0
 58133  1  0
 59 60  1  0
 59 61  1  0
 59 62  1  0
 60134  1  0
 60135  1  0
 60136  1  0
 61137  1  0
 61138  1  0
 61139  1  0
 62140  1  0
 62141  1  0
 62142  1  0
 63 65  1  0
 63143  1  0
 63144  1  0
 63145  1  0
 64146  1  0
 65147  1  0
 68 84  1  0
 71 72  3  0
 71 83  1  0
 72 86  1  0
 73 75  2  0
 73 79  1  0
 73148  1  0
 74 76  1  0
 74 79  2  0
 74149  1  0
 75 80  1  0
 75150  1  0
 76 80  2  0
 76151  1  0
 77 78  1  0
 77 81  2  0
 77152  1  0
 78 82  2  0
 78 84  1  0
 79 85  1  0
 80 86  1  0
 81 85  1  0
 81 87  1  0
 82 85  1  0
 82 88  1  0
 83153  1  0
 83154  1  0
 83155  1  0
 84156  1  0
 84157  1  0
 87158  1  0
 88159  1  0
M  ISO  4   1 100  68 101  84 101  86 100
M  END
$$$$
59
     RDKit          3D

163172  0  0  0  0  0  0  0  0999 V2000
  -30.7652  -14.3608   20.6636 C   0  0  0  0  0  0  0  0  0100  0  0
  -30.4392  -12.2669   19.3775 C   0  0  0  0  0  0  0  0  0101  0  0
  -29.4791  -12.5281   18.1977 C   0  0  0  0  0  0  0  0  0102  0  0
  -27.9985  -12.3963   18.6038 C   0  0  0  0  0  0  0  0  0103  0  0
  -27.6639  -13.2170   19.8820 C   0  0  2  0  0  0  0  0  0104  0  0
  -28.6795  -12.9602   21.0279 C   0  0  0  0  0  0  0  0  0105  0  0
  -25.2633  -13.8245   20.5754 C   0  0  0  0  0  0  0  0  0106  0  0
  -24.1645  -13.0409   20.9408 C   0  0  0  0  0  0  0  0  0107  0  0
  -24.6400  -11.7009   20.8697 C   0  0  0  0  0  0  0  0  0108  0  0
  -23.9005  -10.4085   21.0420 C   0  0  0  0  0  0  0  0  0109  0  0
  -24.3588   -9.4123   21.9123 C   0  0  0  0  0  0  0  0  0110  0  0
  -23.6296   -8.2350   22.0803 C   0  0  0  0  0  0  0  0  0111  0  0
  -22.4385   -8.0419   21.3657 C   0  0  0  0  0  0  0  0  0112  0  0
  -22.0103   -9.0167   20.4678 C   0  0  0  0  0  0  0  0  0113  0  0
  -22.7317  -10.1925   20.3102 C   0  0  0  0  0  0  0  0  0114  0  0
  -21.6857   -6.0709   22.5391 C   0  0  0  0  0  0  0  0  0115  0  0
  -21.4064   -6.5490   23.8264 C   0  0  0  0  0  0  0  0  0116  0  0
  -21.3635   -5.6677   24.9085 C   0  0  0  0  0  0  0  0  0117  0  0
  -21.5973   -4.3067   24.7088 C   0  0  0  0  0  0  0  0  0118  0  0
  -21.8700   -3.8284   23.4282 C   0  0  0  0  0  0  0  0  0119  0  0
  -21.9144   -4.7056   22.3460 C   0  0  0  0  0  0  0  0  0120  0  0
  -22.8194  -13.5263   21.1763 C   0  0  0  0  0  0  0  0  0121  0  0
  -22.1559   -4.2206   21.1063 F   0  0  0  0  0  0  0  0  0122  0  0
  -21.5628   -3.4510   25.7555 F   0  0  0  0  0  0  0  0  0123  0  0
  -30.0261  -13.1803   20.4553 N   0  0  0  0  0  0  0  0  0124  0  0
  -26.2911  -12.9356   20.3443 N   0  0  0  0  0  0  0  0  0125  0  0
  -25.9236  -11.6675   20.5847 N   0  0  0  0  0  0  0  0  0126  0  0
  -22.0708  -12.7905   22.0005 N   0  0  0  0  0  0  0  0  0127  0  0
  -25.4117  -15.1773   20.4097 N   0  0  0  0  0  0  0  0  0128  0  0
  -31.7916  -14.6724   20.0536 O   0  0  0  0  0  0  0  0  0129  0  0
  -21.6670   -6.9022   21.4423 O   0  0  0  0  0  0  0  0  0130  0  0
  -22.3946  -14.5564   20.6568 O   0  0  0  0  0  0  0  0  0131  0  0
  -24.6048  -31.8614   23.2223 C   0  0  0  0  0  0  0  0  0100  0  0
  -25.8822  -32.4841   23.8616 C   0  0  1  0  0  0  0  0  0101  0  0
  -27.2536  -27.5042   20.1156 C   0  0  0  0  0  0  0  0  0102  0  0
  -25.5726  -33.8762   24.2210 N   0  0  0  0  0  0  0  0  0103  0  0
  -23.4066  -30.4859   21.5461 C   0  0  2  0  0  0  0  0  0104  0  0
  -24.8467  -28.9636   20.1247 C   0  0  0  0  0  0  0  0  0105  0  0
  -22.7412  -29.4652   22.5052 C   0  0  0  0  0  0  0  0  0106  0  0
  -18.0167  -28.1302   22.8626 C   0  0  0  0  0  0  0  0  0107  0  0
  -24.1342  -36.7390   23.2568 C   0  0  0  0  0  0  0  0  0108  0  0
  -25.9141  -30.8882   21.3456 C   0  0  0  0  0  0  0  0  0109  0  0
  -25.9930  -29.5029   20.7208 C   0  0  0  0  0  0  0  0  0110  0  0
  -27.1758  -28.7612   20.7331 C   0  0  0  0  0  0  0  0  0111  0  0
  -26.1032  -26.9836   19.5230 C   0  0  0  0  0  0  0  0  0112  0  0
  -24.9097  -27.7011   19.5331 C   0  0  0  0  0  0  0  0  0113  0  0
  -23.5715  -29.7899   20.1582 C   0  0  0  0  0  0  0  0  0114  0  0
  -25.3990  -36.3212   24.0232 C   0  0  1  0  0  0  0  0  0115  0  0
  -20.5793  -28.3813   23.1004 C   0  0  2  0  0  0  0  0  0116  0  0
  -20.6548  -26.9392   22.5411 C   0  0  0  0  0  0  0  0  0117  0  0
  -19.5615  -26.6407   21.5143 C   0  0  0  0  0  0  0  0  0118  0  0
  -18.1797  -26.7818   22.1673 C   0  0  0  0  0  0  0  0  0119  0  0
  -19.1385  -28.8769   23.2988 C   0  0  0  0  0  0  0  0  0120  0  0
  -18.9183  -30.1286   23.8878 C   0  0  0  0  0  0  0  0  0121  0  0
  -17.6396  -30.6493   24.0352 C   0  0  0  0  0  0  0  0  0122  0  0
  -25.9153  -34.9582   23.4993 C   0  0  0  0  0  0  0  0  0123  0  0
  -16.5415  -29.9068   23.6254 C   0  0  0  0  0  0  0  0  0124  0  0
  -16.7331  -28.6521   23.0586 C   0  0  0  0  0  0  0  0  0125  0  0
  -26.4583  -31.6439   25.0683 C   0  0  0  0  0  0  0  0  0126  0  0
  -25.3807  -31.3179   26.1374 C   0  0  0  0  0  0  0  0  0127  0  0
  -27.0530  -30.3024   24.5680 C   0  0  0  0  0  0  0  0  0128  0  0
  -27.6014  -32.4281   25.7651 C   0  0  0  0  0  0  0  0  0129  0  0
  -27.5629  -37.2220   24.8621 C   0  0  0  0  0  0  0  0  0130  0  0
  -21.4133  -29.3375   22.3735 N   0  0  0  0  0  0  0  0  0131  0  0
  -26.4706  -37.3372   23.9061 N   0  0  0  0  0  0  0  0  0132  0  0
  -24.6674  -31.0544   22.1178 N   0  0  0  0  0  0  0  0  0133  0  0
  -23.4259  -28.8150   23.2971 O   0  0  0  0  0  0  0  0  0134  0  0
  -28.3948  -26.7345   20.0089 O   0  0  0  0  0  0  0  0  0135  0  0
  -26.5870  -34.9065   22.4671 O   0  0  0  0  0  0  0  0  0136  0  0
  -23.5365  -32.1254   23.7833 O   0  0  0  0  0  0  0  0  0137  0  0
  -28.1734  -13.7116   18.0590 C   0  0  0  0  0  0  0  0  0  0  0  0
  -27.3410  -12.6777   18.5769 C   0  0  0  0  0  0  0  0  0  0  0  0
  -26.4868  -13.1412   19.5531 C   0  0  0  0  0  0  0  0  0  0  0  0
  -27.9234  -14.9263   18.6590 C   0  0  0  0  0  0  0  0  0  0  0  0
  -31.2993  -15.9955   19.2950 C   0  0  0  0  0  0  0  0  0  0  0  0
  -25.4680  -12.3995   20.3396 C   0  0  0  0  0  0  0  0  0  0  0  0
  -30.9354  -15.6359   17.8657 C   0  0  0  0  0  0  0  0  0  0  0  0
  -30.8940  -17.3524   19.8327 C   0  0  0  0  0  0  0  0  0  0  0  0
  -29.6217  -16.2341   17.3692 C   0  0  0  0  0  0  0  0  0  0  0  0
  -28.4069  -17.3151   19.2441 C   0  0  0  0  0  0  0  0  0  0  0  0
  -29.4563  -17.3368   20.3719 C   0  0  2  0  0  0  0  0  0  0  0  0
  -27.4001  -11.2713   18.1102 C   0  0  0  0  0  0  0  0  0  0  0  0
  -29.2233  -18.5650   21.2566 C   0  0  0  0  0  0  0  0  0  1  0  0
  -28.5631  -16.1354   18.3821 N   0  0  0  0  0  0  0  0  0  0  0  0
  -24.3606  -13.1448   20.7454 N   0  0  0  0  0  0  0  0  0  0  0  0
  -31.9428  -15.2091   19.9932 O   0  0  0  0  0  0  0  0  0  0  0  0
  -25.6306  -11.2005   20.5491 O   0  0  0  0  0  0  0  0  0  0  0  0
  -26.6899  -14.8169   19.8417 S   0  0  0  0  0  0  0  0  0  0  0  0
  -31.4485  -12.4701   19.0860 H   0  0  0  0  0  0  0  0  0  0  0  0
  -30.3970  -11.2460   19.6950 H   0  0  0  0  0  0  0  0  0  0  0  0
  -29.6870  -11.8204   17.4226 H   0  0  0  0  0  0  0  0  0  0  0  0
  -29.6375  -13.5326   17.8649 H   0  0  0  0  0  0  0  0  0  0  0  0
  -27.7830  -11.3650   18.7904 H   0  0  0  0  0  0  0  0  0  0  0  0
  -27.4028  -12.7801   17.8021 H   0  0  0  0  0  0  0  0  0  0  0  0
  -27.7353  -14.2503   19.6136 H   0  0  0  0  0  0  0  0  0  0  0  0
  -28.5890  -11.9550   21.3832 H   0  0  0  0  0  0  0  0  0  0  0  0
  -28.5005  -13.6134   21.8562 H   0  0  0  0  0  0  0  0  0  0  0  0
  -25.2399   -9.5495   22.4318 H   0  0  0  0  0  0  0  0  0  0  0  0
  -23.9663   -7.5070   22.7297 H   0  0  0  0  0  0  0  0  0  0  0  0
  -21.1515   -8.8641   19.9162 H   0  0  0  0  0  0  0  0  0  0  0  0
  -22.4016  -10.9115   19.6476 H   0  0  0  0  0  0  0  0  0  0  0  0
  -21.2319   -7.5552   23.9750 H   0  0  0  0  0  0  0  0  0  0  0  0
  -21.1589   -6.0228   25.8556 H   0  0  0  0  0  0  0  0  0  0  0  0
  -22.0396   -2.8212   23.2809 H   0  0  0  0  0  0  0  0  0  0  0  0
  -22.4401  -11.9703   22.4008 H   0  0  0  0  0  0  0  0  0  0  0  0
  -21.1493  -13.0679   22.2082 H   0  0  0  0  0  0  0  0  0  0  0  0
  -24.6538  -15.7807   20.5848 H   0  0  0  0  0  0  0  0  0  0  0  0
  -26.2762  -15.5453   20.1156 H   0  0  0  0  0  0  0  0  0  0  0  0
  -26.6778  -32.4663   23.1464 H   0  0  0  0  0  0  0  0  0  0  0  0
  -25.0747  -34.0282   25.0566 H   0  0  0  0  0  0  0  0  0  0  0  0
  -22.7881  -31.3489   21.4131 H   0  0  0  0  0  0  0  0  0  0  0  0
  -23.3854  -35.9823   23.3648 H   0  0  0  0  0  0  0  0  0  0  0  0
  -24.3696  -36.8624   22.2204 H   0  0  0  0  0  0  0  0  0  0  0  0
  -23.7669  -37.6632   23.6516 H   0  0  0  0  0  0  0  0  0  0  0  0
  -25.9445  -31.6237   20.5691 H   0  0  0  0  0  0  0  0  0  0  0  0
  -26.7436  -31.0079   22.0108 H   0  0  0  0  0  0  0  0  0  0  0  0
  -28.0090  -29.1452   21.2057 H   0  0  0  0  0  0  0  0  0  0  0  0
  -26.1369  -26.0560   19.0719 H   0  0  0  0  0  0  0  0  0  0  0  0
  -24.0652  -27.2961   19.0997 H   0  0  0  0  0  0  0  0  0  0  0  0
  -23.6156  -30.5365   19.3930 H   0  0  0  0  0  0  0  0  0  0  0  0
  -22.7355  -29.1425   19.9945 H   0  0  0  0  0  0  0  0  0  0  0  0
  -25.1353  -36.2335   25.0565 H   0  0  0  0  0  0  0  0  0  0  0  0
  -21.0070  -28.3206   24.0793 H   0  0  0  0  0  0  0  0  0  0  0  0
  -20.5555  -26.2518   23.3550 H   0  0  0  0  0  0  0  0  0  0  0  0
  -21.5974  -26.8362   22.0454 H   0  0  0  0  0  0  0  0  0  0  0  0
  -19.6810  -25.6422   21.1488 H   0  0  0  0  0  0  0  0  0  0  0  0
  -19.6406  -27.3343   20.7034 H   0  0  0  0  0  0  0  0  0  0  0  0
  -17.4282  -26.6888   21.4113 H   0  0  0  0  0  0  0  0  0  0  0  0
  -18.0803  -26.0130   22.9049 H   0  0  0  0  0  0  0  0  0  0  0  0
  -19.7265  -30.6774   24.2204 H   0  0  0  0  0  0  0  0  0  0  0  0
  -17.5064  -31.5856   24.4483 H   0  0  0  0  0  0  0  0  0  0  0  0
  -15.5878  -30.2839   23.7407 H   0  0  0  0  0  0  0  0  0  0  0  0
  -15.9120  -28.0941   22.7766 H   0  0  0  0  0  0  0  0  0  0  0  0
  -24.5787  -30.7757   25.6817 H   0  0  0  0  0  0  0  0  0  0  0  0
  -25.0041  -32.2289   26.5536 H   0  0  0  0  0  0  0  0  0  0  0  0
  -25.8166  -30.7245   26.9138 H   0  0  0  0  0  0  0  0  0  0  0  0
  -26.2892  -29.7335   24.0803 H   0  0  0  0  0  0  0  0  0  0  0  0
  -27.4336  -29.7484   25.4006 H   0  0  0  0  0  0  0  0  0  0  0  0
  -27.8466  -30.4994   23.8779 H   0  0  0  0  0  0  0  0  0  0  0  0
  -27.2251  -33.3632   26.1242 H   0  0  0  0  0  0  0  0  0  0  0  0
  -28.3902  -32.6065   25.0645 H   0  0  0  0  0  0  0  0  0  0  0  0
  -27.9772  -31.8555   26.5872 H   0  0  0  0  0  0  0  0  0  0  0  0
  -28.2744  -38.0016   24.6863 H   0  0  0  0  0  0  0  0  0  0  0  0
  -28.0396  -36.2711   24.7461 H   0  0  0  0  0  0  0  0  0  0  0  0
  -27.1773  -37.3087   25.8564 H   0  0  0  0  0  0  0  0  0  0  0  0
  -20.9627  -29.9365   21.7352 H   0  0  0  0  0  0  0  0  0  0  0  0
  -26.0447  -38.2561   24.0273 H   0  0  0  0  0  0  0  0  0  0  0  0
  -28.8804  -13.5675   17.3212 H   0  0  0  0  0  0  0  0  0  0  0  0
  -30.8622  -14.5705   17.7990 H   0  0  0  0  0  0  0  0  0  0  0  0
  -31.7058  -16.0460   17.2467 H   0  0  0  0  0  0  0  0  0  0  0  0
  -30.9622  -18.0732   19.0449 H   0  0  0  0  0  0  0  0  0  0  0  0
  -31.5520  -17.6050   20.6377 H   0  0  0  0  0  0  0  0  0  0  0  0
  -29.3112  -15.7081   16.4907 H   0  0  0  0  0  0  0  0  0  0  0  0
  -29.7857  -17.2701   17.1578 H   0  0  0  0  0  0  0  0  0  0  0  0
  -28.5186  -18.1972   18.6489 H   0  0  0  0  0  0  0  0  0  0  0  0
  -27.4357  -17.2763   19.6915 H   0  0  0  0  0  0  0  0  0  0  0  0
  -29.3403  -16.4382   20.9411 H   0  0  0  0  0  0  0  0  0  0  0  0
  -28.1460  -11.1793   17.3486 H   0  0  0  0  0  0  0  0  0  0  0  0
  -26.4480  -10.9869   17.7132 H   0  0  0  0  0  0  0  0  0  0  0  0
  -27.6489  -10.6329   18.9321 H   0  0  0  0  0  0  0  0  0  0  0  0
  -30.0437  -18.5167   21.9418 H   0  0  0  0  0  0  0  0  0  0  0  0
  -28.1737  -18.3901   21.3687 H   0  0  0  0  0  0  0  0  0  0  0  0
  -23.4077  -13.3313   20.9082 H   0  0  0  0  0  0  0  0  0  0  0  0
  1 25  1  0
  1 30  2  0
  1 85  1  0
  2  3  1  0
  2 25  1  0
  2 89  1  0
  2 90  1  0
  3  4  1  0
  3 91  1  0
  3 92  1  0
  4  5  1  0
  4 93  1  0
  4 94  1  0
  5  6  1  0
  5 26  1  0
  5 95  1  6
  6 25  1  0
  6 96  1  0
  6 97  1  0
  7  8  2  0
  7 26  1  0
  7 29  1  0
  8  9  1  0
  8 22  1  0
  9 10  1  0
  9 27  2  0
 10 11  2  0
 10 15  1  0
 11 12  1  0
 11 98  1  0
 12 13  2  0
 12 99  1  0
 13 14  1  0
 13 31  1  0
 14 15  2  0
 14100  1  0
 15101  1  0
 16 17  2  0
 16 21  1  0
 16 31  1  0
 17 18  1  0
 17102  1  0
 18 19  2  0
 18103  1  0
 19 20  1  0
 19 24  1  0
 20 21  2  0
 20104  1  0
 21 23  1  0
 22 28  1  0
 22 32  2  0
 26 27  1  0
 28105  1  0
 28106  1  0
 29107  1  0
 29108  1  0
 33 34  1  0
 33 66  1  0
 33 70  2  0
 34 36  1  0
 34 59  1  0
 34109  1  6
 35 44  2  0
 35 45  1  0
 35 68  1  0
 36 56  1  0
 36110  1  0
 37 39  1  0
 37 47  1  0
 37 66  1  0
 37111  1  6
 38 43  2  0
 38 46  1  0
 38 47  1  0
 39 64  1  0
 39 67  2  0
 40 52  1  0
 40 53  2  0
 40 58  1  0
 41112  1  0
 41113  1  0
 41114  1  0
 42 43  1  0
 42 66  1  0
 42115  1  0
 42116  1  0
 43 44  1  0
 44117  1  0
 45 46  2  0
 45118  1  0
 46119  1  0
 47120  1  0
 47121  1  0
 48 41  1  0
 48 56  1  0
 48 65  1  0
 48122  1  1
 49 50  1  0
 49 53  1  0
 49 64  1  0
 49123  1  1
 50 51  1  0
 50124  1  0
 50125  1  0
 51 52  1  0
 51126  1  0
 51127  1  0
 52128  1  0
 52129  1  0
 53 54  1  0
 54 55  2  0
 54130  1  0
 55 57  1  0
 55131  1  0
 56 69  2  0
 57 58  2  0
 57132  1  0
 58133  1  0
 59 60  1  0
 59 61  1  0
 59 62  1  0
 60134  1  0
 60135  1  0
 60136  1  0
 61137  1  0
 61138  1  0
 61139  1  0
 62140  1  0
 62141  1  0
 62142  1  0
 63 65  1  0
 63143  1  0
 63144  1  0
 63145  1  0
 64146  1  0
 65147  1  0
 68 83  1  0
 71 72  1  0
 71 74  2  0
 71148  1  0
 72 73  2  0
 72 82  1  0
 73 76  1  0
 73 88  1  0
 74 84  1  0
 74 88  1  0
 75 77  1  0
 75 78  1  0
 75 86  2  0
 76 85  1  0
 76 87  2  0
 77 79  1  0
 77149  1  0
 77150  1  0
 78 81  1  0
 78151  1  0
 78152  1  0
 79 84  1  0
 79153  1  0
 79154  1  0
 80 81  1  0
 80 84  1  0
 80155  1  0
 80156  1  0
 81 83  1  0
 81157  1  1
 82158  1  0
 82159  1  0
 82160  1  0
 83161  1  0
 83162  1  0
 85163  1  0
M  ISO  4   1 100  68 101  83 101  85 100
M  END
$$$$
60
     RDKit          3D

150158  0  0  0  0  0  0  0  0999 V2000
  -30.7652  -14.3608   20.6636 C   0  0  0  0  0  0  0  0  0100  0  0
  -30.4392  -12.2669   19.3775 C   0  0  0  0  0  0  0  0  0101  0  0
  -29.4791  -12.5281   18.1977 C   0  0  0  0  0  0  0  0  0102  0  0
  -27.9985  -12.3963   18.6038 C   0  0  0  0  0  0  0  0  0103  0  0
  -27.6639  -13.2170   19.8820 C   0  0  2  0  0  0  0  0  0104  0  0
  -28.6795  -12.9602   21.0279 C   0  0  0  0  0  0  0  0  0105  0  0
  -25.2633  -13.8245   20.5754 C   0  0  0  0  0  0  0  0  0106  0  0
  -24.1645  -13.0409   20.9408 C   0  0  0  0  0  0  0  0  0107  0  0
  -24.6400  -11.7009   20.8697 C   0  0  0  0  0  0  0  0  0108  0  0
  -23.9005  -10.4085   21.0420 C   0  0  0  0  0  0  0  0  0109  0  0
  -24.3588   -9.4123   21.9123 C   0  0  0  0  0  0  0  0  0110  0  0
  -23.6296   -8.2350   22.0803 C   0  0  0  0  0  0  0  0  0111  0  0
  -22.4385   -8.0419   21.3657 C   0  0  0  0  0  0  0  0  0112  0  0
  -22.0103   -9.0167   20.4678 C   0  0  0  0  0  0  0  0  0113  0  0
  -22.7317  -10.1925   20.3102 C   0  0  0  0  0  0  0  0  0114  0  0
  -21.6857   -6.0709   22.5391 C   0  0  0  0  0  0  0  0  0115  0  0
  -21.4064   -6.5490   23.8264 C   0  0  0  0  0  0  0  0  0116  0  0
  -21.3635   -5.6677   24.9085 C   0  0  0  0  0  0  0  0  0117  0  0
  -21.5973   -4.3067   24.7088 C   0  0  0  0  0  0  0  0  0118  0  0
  -21.8700   -3.8284   23.4282 C   0  0  0  0  0  0  0  0  0119  0  0
  -21.9144   -4.7056   22.3460 C   0  0  0  0  0  0  0  0  0120  0  0
  -22.8194  -13.5263   21.1763 C   0  0  0  0  0  0  0  0  0121  0  0
  -22.1559   -4.2206   21.1063 F   0  0  0  0  0  0  0  0  0122  0  0
  -21.5628   -3.4510   25.7555 F   0  0  0  0  0  0  0  0  0123  0  0
  -30.0261  -13.1803   20.4553 N   0  0  0  0  0  0  0  0  0124  0  0
  -26.2911  -12.9356   20.3443 N   0  0  0  0  0  0  0  0  0125  0  0
  -25.9236  -11.6675   20.5847 N   0  0  0  0  0  0  0  0  0126  0  0
  -22.0708  -12.7905   22.0005 N   0  0  0  0  0  0  0  0  0127  0  0
  -25.4117  -15.1773   20.4097 N   0  0  0  0  0  0  0  0  0128  0  0
  -31.7916  -14.6724   20.0536 O   0  0  0  0  0  0  0  0  0129  0  0
  -21.6670   -6.9022   21.4423 O   0  0  0  0  0  0  0  0  0130  0  0
  -22.3946  -14.5564   20.6568 O   0  0  0  0  0  0  0  0  0131  0  0
  -24.6048  -31.8614   23.2223 C   0  0  0  0  0  0  0  0  0100  0  0
  -25.8822  -32.4841   23.8616 C   0  0  1  0  0  0  0  0  0101  0  0
  -27.2536  -27.5042   20.1156 C   0  0  0  0  0  0  0  0  0102  0  0
  -25.5726  -33.8762   24.2210 N   0  0  0  0  0  0  0  0  0103  0  0
  -23.4066  -30.4859   21.5461 C   0  0  2  0  0  0  0  0  0104  0  0
  -24.8467  -28.9636   20.1247 C   0  0  0  0  0  0  0  0  0105  0  0
  -22.7412  -29.4652   22.5052 C   0  0  0  0  0  0  0  0  0106  0  0
  -18.0167  -28.1302   22.8626 C   0  0  0  0  0  0  0  0  0107  0  0
  -24.1342  -36.7390   23.2568 C   0  0  0  0  0  0  0  0  0108  0  0
  -25.9141  -30.8882   21.3456 C   0  0  0  0  0  0  0  0  0109  0  0
  -25.9930  -29.5029   20.7208 C   0  0  0  0  0  0  0  0  0110  0  0
  -27.1758  -28.7612   20.7331 C   0  0  0  0  0  0  0  0  0111  0  0
  -26.1032  -26.9836   19.5230 C   0  0  0  0  0  0  0  0  0112  0  0
  -24.9097  -27.7011   19.5331 C   0  0  0  0  0  0  0  0  0113  0  0
  -23.5715  -29.7899   20.1582 C   0  0  0  0  0  0  0  0  0114  0  0
  -25.3990  -36.3212   24.0232 C   0  0  1  0  0  0  0  0  0115  0  0
  -20.5793  -28.3813   23.1004 C   0  0  2  0  0  0  0  0  0116  0  0
  -20.6548  -26.9392   22.5411 C   0  0  0  0  0  0  0  0  0117  0  0
  -19.5615  -26.6407   21.5143 C   0  0  0  0  0  0  0  0  0118  0  0
  -18.1797  -26.7818   22.1673 C   0  0  0  0  0  0  0  0  0119  0  0
  -19.1385  -28.8769   23.2988 C   0  0  0  0  0  0  0  0  0120  0  0
  -18.9183  -30.1286   23.8878 C   0  0  0  0  0  0  0  0  0121  0  0
  -17.6396  -30.6493   24.0352 C   0  0  0  0  0  0  0  0  0122  0  0
  -25.9153  -34.9582   23.4993 C   0  0  0  0  0  0  0  0  0123  0  0
  -16.5415  -29.9068   23.6254 C   0  0  0  0  0  0  0  0  0124  0  0
  -16.7331  -28.6521   23.0586 C   0  0  0  0  0  0  0  0  0125  0  0
  -26.4583  -31.6439   25.0683 C   0  0  0  0  0  0  0  0  0126  0  0
  -25.3807  -31.3179   26.1374 C   0  0  0  0  0  0  0  0  0127  0  0
  -27.0530  -30.3024   24.5680 C   0  0  0  0  0  0  0  0  0128  0  0
  -27.6014  -32.4281   25.7651 C   0  0  0  0  0  0  0  0  0129  0  0
  -27.5629  -37.2220   24.8621 C   0  0  0  0  0  0  0  0  0130  0  0
  -21.4133  -29.3375   22.3735 N   0  0  0  0  0  0  0  0  0131  0  0
  -26.4706  -37.3372   23.9061 N   0  0  0  0  0  0  0  0  0132  0  0
  -24.6674  -31.0544   22.1178 N   0  0  0  0  0  0  0  0  0133  0  0
  -23.4259  -28.8150   23.2971 O   0  0  0  0  0  0  0  0  0134  0  0
  -28.3948  -26.7345   20.0089 O   0  0  0  0  0  0  0  0  0135  0  0
  -26.5870  -34.9065   22.4671 O   0  0  0  0  0  0  0  0  0136  0  0
  -23.5365  -32.1254   23.7833 O   0  0  0  0  0  0  0  0  0137  0  0
  -28.6925  -26.9845   20.0476 C   0  0  0  0  0  0  0  0  0  0  0  0
  -30.6737  -25.9834   20.4254 C   0  0  0  0  0  0  0  0  0  0  0  0
  -29.7350  -26.8170   20.9922 C   0  0  0  0  0  0  0  0  0  0  0  0
  -29.0257  -26.2479   18.9324 C   0  0  0  0  0  0  0  0  0  0  0  0
  -29.8411  -27.4086   22.3508 C   0  0  0  0  0  0  0  0  0  0  0  0
  -28.2953  -26.0708   17.6603 C   0  0  0  0  0  0  0  0  0  0  0  0
  -30.9753  -24.7411   18.2188 C   0  0  0  0  0  0  0  0  0  0  0  0
  -30.8531  -23.2693   18.5981 C   0  0  0  0  0  0  0  0  0  1  0  0
  -30.2318  -25.6435   19.1734 N   0  0  0  0  0  0  0  0  0  0  0  0
  -28.6291  -27.7114   22.9720 N   0  0  0  0  0  0  0  0  0  0  0  0
  -30.9516  -27.5571   22.8533 O   0  0  0  0  0  0  0  0  0  0  0  0
  -31.4485  -12.4701   19.0860 H   0  0  0  0  0  0  0  0  0  0  0  0
  -30.3970  -11.2460   19.6950 H   0  0  0  0  0  0  0  0  0  0  0  0
  -29.6870  -11.8204   17.4226 H   0  0  0  0  0  0  0  0  0  0  0  0
  -29.6375  -13.5326   17.8649 H   0  0  0  0  0  0  0  0  0  0  0  0
  -27.7830  -11.3650   18.7904 H   0  0  0  0  0  0  0  0  0  0  0  0
  -27.4028  -12.7801   17.8021 H   0  0  0  0  0  0  0  0  0  0  0  0
  -27.7353  -14.2503   19.6136 H   0  0  0  0  0  0  0  0  0  0  0  0
  -28.5890  -11.9550   21.3832 H   0  0  0  0  0  0  0  0  0  0  0  0
  -28.5005  -13.6134   21.8562 H   0  0  0  0  0  0  0  0  0  0  0  0
  -25.2399   -9.5495   22.4318 H   0  0  0  0  0  0  0  0  0  0  0  0
  -23.9663   -7.5070   22.7297 H   0  0  0  0  0  0  0  0  0  0  0  0
  -21.1515   -8.8641   19.9162 H   0  0  0  0  0  0  0  0  0  0  0  0
  -22.4016  -10.9115   19.6476 H   0  0  0  0  0  0  0  0  0  0  0  0
  -21.2319   -7.5552   23.9750 H   0  0  0  0  0  0  0  0  0  0  0  0
  -21.1589   -6.0228   25.8556 H   0  0  0  0  0  0  0  0  0  0  0  0
  -22.0396   -2.8212   23.2809 H   0  0  0  0  0  0  0  0  0  0  0  0
  -22.4401  -11.9703   22.4008 H   0  0  0  0  0  0  0  0  0  0  0  0
  -21.1493  -13.0679   22.2082 H   0  0  0  0  0  0  0  0  0  0  0  0
  -24.6538  -15.7807   20.5848 H   0  0  0  0  0  0  0  0  0  0  0  0
  -26.2762  -15.5453   20.1156 H   0  0  0  0  0  0  0  0  0  0  0  0
  -26.6778  -32.4663   23.1464 H   0  0  0  0  0  0  0  0  0  0  0  0
  -25.0747  -34.0282   25.0566 H   0  0  0  0  0  0  0  0  0  0  0  0
  -22.7881  -31.3489   21.4131 H   0  0  0  0  0  0  0  0  0  0  0  0
  -23.3854  -35.9823   23.3648 H   0  0  0  0  0  0  0  0  0  0  0  0
  -24.3696  -36.8624   22.2204 H   0  0  0  0  0  0  0  0  0  0  0  0
  -23.7669  -37.6632   23.6516 H   0  0  0  0  0  0  0  0  0  0  0  0
  -25.9445  -31.6237   20.5691 H   0  0  0  0  0  0  0  0  0  0  0  0
  -26.7436  -31.0079   22.0108 H   0  0  0  0  0  0  0  0  0  0  0  0
  -28.0090  -29.1452   21.2057 H   0  0  0  0  0  0  0  0  0  0  0  0
  -26.1369  -26.0560   19.0719 H   0  0  0  0  0  0  0  0  0  0  0  0
  -24.0652  -27.2961   19.0997 H   0  0  0  0  0  0  0  0  0  0  0  0
  -23.6156  -30.5365   19.3930 H   0  0  0  0  0  0  0  0  0  0  0  0
  -22.7355  -29.1425   19.9945 H   0  0  0  0  0  0  0  0  0  0  0  0
  -25.1353  -36.2335   25.0565 H   0  0  0  0  0  0  0  0  0  0  0  0
  -21.0070  -28.3206   24.0793 H   0  0  0  0  0  0  0  0  0  0  0  0
  -20.5555  -26.2518   23.3550 H   0  0  0  0  0  0  0  0  0  0  0  0
  -21.5974  -26.8362   22.0454 H   0  0  0  0  0  0  0  0  0  0  0  0
  -19.6810  -25.6422   21.1488 H   0  0  0  0  0  0  0  0  0  0  0  0
  -19.6406  -27.3343   20.7034 H   0  0  0  0  0  0  0  0  0  0  0  0
  -17.4282  -26.6888   21.4113 H   0  0  0  0  0  0  0  0  0  0  0  0
  -18.0803  -26.0130   22.9049 H   0  0  0  0  0  0  0  0  0  0  0  0
  -19.7265  -30.6774   24.2204 H   0  0  0  0  0  0  0  0  0  0  0  0
  -17.5064  -31.5856   24.4483 H   0  0  0  0  0  0  0  0  0  0  0  0
  -15.5878  -30.2839   23.7407 H   0  0  0  0  0  0  0  0  0  0  0  0
  -15.9120  -28.0941   22.7766 H   0  0  0  0  0  0  0  0  0  0  0  0
  -24.5787  -30.7757   25.6817 H   0  0  0  0  0  0  0  0  0  0  0  0
  -25.0041  -32.2289   26.5536 H   0  0  0  0  0  0  0  0  0  0  0  0
  -25.8166  -30.7245   26.9138 H   0  0  0  0  0  0  0  0  0  0  0  0
  -26.2892  -29.7335   24.0803 H   0  0  0  0  0  0  0  0  0  0  0  0
  -27.4336  -29.7484   25.4006 H   0  0  0  0  0  0  0  0  0  0  0  0
  -27.8466  -30.4994   23.8779 H   0  0  0  0  0  0  0  0  0  0  0  0
  -27.2251  -33.3632   26.1242 H   0  0  0  0  0  0  0  0  0  0  0  0
  -28.3902  -32.6065   25.0645 H   0  0  0  0  0  0  0  0  0  0  0  0
  -27.9772  -31.8555   26.5872 H   0  0  0  0  0  0  0  0  0  0  0  0
  -28.2744  -38.0016   24.6863 H   0  0  0  0  0  0  0  0  0  0  0  0
  -28.0396  -36.2711   24.7461 H   0  0  0  0  0  0  0  0  0  0  0  0
  -27.1773  -37.3087   25.8564 H   0  0  0  0  0  0  0  0  0  0  0  0
  -20.9627  -29.9365   21.7352 H   0  0  0  0  0  0  0  0  0  0  0  0
  -26.0447  -38.2561   24.0273 H   0  0  0  0  0  0  0  0  0  0  0  0
  -27.8406  -27.5535   20.1721 H   0  0  0  0  0  0  0  0  0  0  0  0
  -31.5533  -25.6705   20.8652 H   0  0  0  0  0  0  0  0  0  0  0  0
  -27.3838  -26.6304   17.6915 H   0  0  0  0  0  0  0  0  0  0  0  0
  -28.0725  -25.0339   17.5183 H   0  0  0  0  0  0  0  0  0  0  0  0
  -28.9006  -26.4198   16.8499 H   0  0  0  0  0  0  0  0  0  0  0  0
  -30.5760  -24.8771   17.2355 H   0  0  0  0  0  0  0  0  0  0  0  0
  -32.0116  -25.0044   18.2602 H   0  0  0  0  0  0  0  0  0  0  0  0
  -31.5696  -22.7978   19.2378 H   0  0  0  0  0  0  0  0  0  0  0  0
  -30.7073  -22.3256   18.1154 H   0  0  0  0  0  0  0  0  0  0  0  0
  -28.0309  -28.4065   23.3302 H   0  0  0  0  0  0  0  0  0  0  0  0
  1 25  1  0
  1 30  2  0
  1 80  1  0
  2  3  1  0
  2 25  1  0
  2 82  1  0
  2 83  1  0
  3  4  1  0
  3 84  1  0
  3 85  1  0
  4  5  1  0
  4 86  1  0
  4 87  1  0
  5  6  1  0
  5 26  1  0
  5 88  1  6
  6 25  1  0
  6 89  1  0
  6 90  1  0
  7  8  2  0
  7 26  1  0
  7 29  1  0
  8  9  1  0
  8 22  1  0
  9 10  1  0
  9 27  2  0
 10 11  2  0
 10 15  1  0
 11 12  1  0
 11 91  1  0
 12 13  2  0
 12 92  1  0
 13 14  1  0
 13 31  1  0
 14 15  2  0
 14 93  1  0
 15 94  1  0
 16 17  2  0
 16 21  1  0
 16 31  1  0
 17 18  1  0
 17 95  1  0
 18 19  2  0
 18 96  1  0
 19 20  1  0
 19 24  1  0
 20 21  2  0
 20 97  1  0
 21 23  1  0
 22 28  1  0
 22 32  2  0
 26 27  1  0
 28 98  1  0
 28 99  1  0
 29100  1  0
 29101  1  0
 33 34  1  0
 33 66  1  0
 33 70  2  0
 34 36  1  0
 34 59  1  0
 34102  1  6
 35 44  2  0
 35 45  1  0
 35 68  1  0
 36 56  1  0
 36103  1  0
 37 39  1  0
 37 47  1  0
 37 66  1  0
 37104  1  6
 38 43  2  0
 38 46  1  0
 38 47  1  0
 39 64  1  0
 39 67  2  0
 40 52  1  0
 40 53  2  0
 40 58  1  0
 41105  1  0
 41106  1  0
 41107  1  0
 42 43  1  0
 42 66  1  0
 42108  1  0
 42109  1  0
 43 44  1  0
 44110  1  0
 45 46  2  0
 45111  1  0
 46112  1  0
 47113  1  0
 47114  1  0
 48 41  1  0
 48 56  1  0
 48 65  1  0
 48115  1  1
 49 50  1  0
 49 53  1  0
 49 64  1  0
 49116  1  1
 50 51  1  0
 50117  1  0
 50118  1  0
 51 52  1  0
 51119  1  0
 51120  1  0
 52121  1  0
 52122  1  0
 53 54  1  0
 54 55  2  0
 54123  1  0
 55 57  1  0
 55124  1  0
 56 69  2  0
 57 58  2  0
 57125  1  0
 58126  1  0
 59 60  1  0
 59 61  1  0
 59 62  1  0
 60127  1  0
 60128  1  0
 60129  1  0
 61130  1  0
 61131  1  0
 61132  1  0
 62133  1  0
 62134  1  0
 62135  1  0
 63 65  1  0
 63136  1  0
 63137  1  0
 63138  1  0
 64139  1  0
 65140  1  0
 68 78  1  0
 71 73  1  0
 71 74  2  0
 71141  1  0
 72 73  2  0
 72 79  1  0
 72142  1  0
 73 75  1  0
 74 76  1  0
 74 79  1  0
 75 80  1  0
 75 81  2  0
 76143  1  0
 76144  1  0
 76145  1  0
 77 78  1  0
 77 79  1  0
 77146  1  0
 77147  1  0
 78148  1  0
 78149  1  0
 80150  1  0
M  ISO  4   1 100  68 101  78 101  80 100
M  END
$$$$
61
     RDKit          3D

162171  0  0  0  0  0  0  0  0999 V2000
  -30.7652  -14.3608   20.6636 C   0  0  0  0  0  0  0  0  0100  0  0
  -30.4392  -12.2669   19.3775 C   0  0  0  0  0  0  0  0  0101  0  0
  -29.4791  -12.5281   18.1977 C   0  0  0  0  0  0  0  0  0102  0  0
  -27.9985  -12.3963   18.6038 C   0  0  0  0  0  0  0  0  0103  0  0
  -27.6639  -13.2170   19.8820 C   0  0  2  0  0  0  0  0  0104  0  0
  -28.6795  -12.9602   21.0279 C   0  0  0  0  0  0  0  0  0105  0  0
  -25.2633  -13.8245   20.5754 C   0  0  0  0  0  0  0  0  0106  0  0
  -24.1645  -13.0409   20.9408 C   0  0  0  0  0  0  0  0  0107  0  0
  -24.6400  -11.7009   20.8697 C   0  0  0  0  0  0  0  0  0108  0  0
  -23.9005  -10.4085   21.0420 C   0  0  0  0  0  0  0  0  0109  0  0
  -24.3588   -9.4123   21.9123 C   0  0  0  0  0  0  0  0  0110  0  0
  -23.6296   -8.2350   22.0803 C   0  0  0  0  0  0  0  0  0111  0  0
  -22.4385   -8.0419   21.3657 C   0  0  0  0  0  0  0  0  0112  0  0
  -22.0103   -9.0167   20.4678 C   0  0  0  0  0  0  0  0  0113  0  0
  -22.7317  -10.1925   20.3102 C   0  0  0  0  0  0  0  0  0114  0  0
  -21.6857   -6.0709   22.5391 C   0  0  0  0  0  0  0  0  0115  0  0
  -21.4064   -6.5490   23.8264 C   0  0  0  0  0  0  0  0  0116  0  0
  -21.3635   -5.6677   24.9085 C   0  0  0  0  0  0  0  0  0117  0  0
  -21.5973   -4.3067   24.7088 C   0  0  0  0  0  0  0  0  0118  0  0
  -21.8700   -3.8284   23.4282 C   0  0  0  0  0  0  0  0  0119  0  0
  -21.9144   -4.7056   22.3460 C   0  0  0  0  0  0  0  0  0120  0  0
  -22.8194  -13.5263   21.1763 C   0  0  0  0  0  0  0  0  0121  0  0
  -22.1559   -4.2206   21.1063 F   0  0  0  0  0  0  0  0  0122  0  0
  -21.5628   -3.4510   25.7555 F   0  0  0  0  0  0  0  0  0123  0  0
  -30.0261  -13.1803   20.4553 N   0  0  0  0  0  0  0  0  0124  0  0
  -26.2911  -12.9356   20.3443 N   0  0  0  0  0  0  0  0  0125  0  0
  -25.9236  -11.6675   20.5847 N   0  0  0  0  0  0  0  0  0126  0  0
  -22.0708  -12.7905   22.0005 N   0  0  0  0  0  0  0  0  0127  0  0
  -25.4117  -15.1773   20.4097 N   0  0  0  0  0  0  0  0  0128  0  0
  -31.7916  -14.6724   20.0536 O   0  0  0  0  0  0  0  0  0129  0  0
  -21.6670   -6.9022   21.4423 O   0  0  0  0  0  0  0  0  0130  0  0
  -22.3946  -14.5564   20.6568 O   0  0  0  0  0  0  0  0  0131  0  0
  -24.6048  -31.8614   23.2223 C   0  0  0  0  0  0  0  0  0100  0  0
  -25.8822  -32.4841   23.8616 C   0  0  1  0  0  0  0  0  0101  0  0
  -27.2536  -27.5042   20.1156 C   0  0  0  0  0  0  0  0  0102  0  0
  -25.5726  -33.8762   24.2210 N   0  0  0  0  0  0  0  0  0103  0  0
  -23.4066  -30.4859   21.5461 C   0  0  2  0  0  0  0  0  0104  0  0
  -24.8467  -28.9636   20.1247 C   0  0  0  0  0  0  0  0  0105  0  0
  -22.7412  -29.4652   22.5052 C   0  0  0  0  0  0  0  0  0106  0  0
  -18.0167  -28.1302   22.8626 C   0  0  0  0  0  0  0  0  0107  0  0
  -24.1342  -36.7390   23.2568 C   0  0  0  0  0  0  0  0  0108  0  0
  -25.9141  -30.8882   21.3456 C   0  0  0  0  0  0  0  0  0109  0  0
  -25.9930  -29.5029   20.7208 C   0  0  0  0  0  0  0  0  0110  0  0
  -27.1758  -28.7612   20.7331 C   0  0  0  0  0  0  0  0  0111  0  0
  -26.1032  -26.9836   19.5230 C   0  0  0  0  0  0  0  0  0112  0  0
  -24.9097  -27.7011   19.5331 C   0  0  0  0  0  0  0  0  0113  0  0
  -23.5715  -29.7899   20.1582 C   0  0  0  0  0  0  0  0  0114  0  0
  -25.3990  -36.3212   24.0232 C   0  0  1  0  0  0  0  0  0115  0  0
  -20.5793  -28.3813   23.1004 C   0  0  2  0  0  0  0  0  0116  0  0
  -20.6548  -26.9392   22.5411 C   0  0  0  0  0  0  0  0  0117  0  0
  -19.5615  -26.6407   21.5143 C   0  0  0  0  0  0  0  0  0118  0  0
  -18.1797  -26.7818   22.1673 C   0  0  0  0  0  0  0  0  0119  0  0
  -19.1385  -28.8769   23.2988 C   0  0  0  0  0  0  0  0  0120  0  0
  -18.9183  -30.1286   23.8878 C   0  0  0  0  0  0  0  0  0121  0  0
  -17.6396  -30.6493   24.0352 C   0  0  0  0  0  0  0  0  0122  0  0
  -25.9153  -34.9582   23.4993 C   0  0  0  0  0  0  0  0  0123  0  0
  -16.5415  -29.9068   23.6254 C   0  0  0  0  0  0  0  0  0124  0  0
  -16.7331  -28.6521   23.0586 C   0  0  0  0  0  0  0  0  0125  0  0
  -26.4583  -31.6439   25.0683 C   0  0  0  0  0  0  0  0  0126  0  0
  -25.3807  -31.3179   26.1374 C   0  0  0  0  0  0  0  0  0127  0  0
  -27.0530  -30.3024   24.5680 C   0  0  0  0  0  0  0  0  0128  0  0
  -27.6014  -32.4281   25.7651 C   0  0  0  0  0  0  0  0  0129  0  0
  -27.5629  -37.2220   24.8621 C   0  0  0  0  0  0  0  0  0130  0  0
  -21.4133  -29.3375   22.3735 N   0  0  0  0  0  0  0  0  0131  0  0
  -26.4706  -37.3372   23.9061 N   0  0  0  0  0  0  0  0  0132  0  0
  -24.6674  -31.0544   22.1178 N   0  0  0  0  0  0  0  0  0133  0  0
  -23.4259  -28.8150   23.2971 O   0  0  0  0  0  0  0  0  0134  0  0
  -28.3948  -26.7345   20.0089 O   0  0  0  0  0  0  0  0  0135  0  0
  -26.5870  -34.9065   22.4671 O   0  0  0  0  0  0  0  0  0136  0  0
  -23.5365  -32.1254   23.7833 O   0  0  0  0  0  0  0  0  0137  0  0
  -30.0086  -27.9980   19.1804 C   0  0  0  0  0  0  0  0  0  0  0  0
  -30.1716  -26.8365   18.4255 C   0  0  0  0  0  0  0  0  0  0  0  0
  -29.6700  -25.4995   20.3744 C   0  0  0  0  0  0  0  0  0  0  0  0
  -29.6763  -27.9103   20.5323 C   0  0  0  0  0  0  0  0  0  0  0  0
  -30.0023  -25.5873   19.0225 C   0  0  0  0  0  0  0  0  0  0  0  0
  -29.5070  -26.6611   21.1293 C   0  0  0  0  0  0  0  0  0  0  0  0
  -30.4771  -24.3435   15.7724 C   0  0  0  0  0  0  0  0  0  0  0  0
  -29.4536  -23.2025   18.5417 C   0  0  0  0  0  0  0  0  0  0  0  0
  -29.5065  -29.1498   21.3328 C   0  0  0  0  0  0  0  0  0  0  0  0
  -29.0457  -23.8647   15.6970 C   0  0  0  0  0  0  0  0  0  0  0  0
  -31.1417  -24.4264   17.1332 C   0  0  0  0  0  0  0  0  0  0  0  0
  -28.8841  -22.4278   16.1902 C   0  0  0  0  0  0  0  0  0  0  0  0
  -29.6003  -22.0749   17.5087 C   0  0  2  0  0  0  0  0  0  0  0  0
  -29.0608  -20.7492   18.0552 C   0  0  0  0  0  0  0  0  0  1  0  0
  -30.1711  -24.3848   18.2408 N   0  0  0  0  0  0  0  0  0  0  0  0
  -28.2475  -29.3279   21.9072 N   0  0  0  0  0  0  0  0  0  0  0  0
  -31.1183  -24.5826   14.7475 O   0  0  0  0  0  0  0  0  0  0  0  0
  -28.6738  -23.0614   19.4859 O   0  0  0  0  0  0  0  0  0  0  0  0
  -30.4426  -29.9403   21.4154 O   0  0  0  0  0  0  0  0  0  0  0  0
  -29.1880  -26.5648   22.4280 F   0  0  0  0  0  0  0  0  0  0  0  0
  -31.4485  -12.4701   19.0860 H   0  0  0  0  0  0  0  0  0  0  0  0
  -30.3970  -11.2460   19.6950 H   0  0  0  0  0  0  0  0  0  0  0  0
  -29.6870  -11.8204   17.4226 H   0  0  0  0  0  0  0  0  0  0  0  0
  -29.6375  -13.5326   17.8649 H   0  0  0  0  0  0  0  0  0  0  0  0
  -27.7830  -11.3650   18.7904 H   0  0  0  0  0  0  0  0  0  0  0  0
  -27.4028  -12.7801   17.8021 H   0  0  0  0  0  0  0  0  0  0  0  0
  -27.7353  -14.2503   19.6136 H   0  0  0  0  0  0  0  0  0  0  0  0
  -28.5890  -11.9550   21.3832 H   0  0  0  0  0  0  0  0  0  0  0  0
  -28.5005  -13.6134   21.8562 H   0  0  0  0  0  0  0  0  0  0  0  0
  -25.2399   -9.5495   22.4318 H   0  0  0  0  0  0  0  0  0  0  0  0
  -23.9663   -7.5070   22.7297 H   0  0  0  0  0  0  0  0  0  0  0  0
  -21.1515   -8.8641   19.9162 H   0  0  0  0  0  0  0  0  0  0  0  0
  -22.4016  -10.9115   19.6476 H   0  0  0  0  0  0  0  0  0  0  0  0
  -21.2319   -7.5552   23.9750 H   0  0  0  0  0  0  0  0  0  0  0  0
  -21.1589   -6.0228   25.8556 H   0  0  0  0  0  0  0  0  0  0  0  0
  -22.0396   -2.8212   23.2809 H   0  0  0  0  0  0  0  0  0  0  0  0
  -22.4401  -11.9703   22.4008 H   0  0  0  0  0  0  0  0  0  0  0  0
  -21.1493  -13.0679   22.2082 H   0  0  0  0  0  0  0  0  0  0  0  0
  -24.6538  -15.7807   20.5848 H   0  0  0  0  0  0  0  0  0  0  0  0
  -26.2762  -15.5453   20.1156 H   0  0  0  0  0  0  0  0  0  0  0  0
  -26.6778  -32.4663   23.1464 H   0  0  0  0  0  0  0  0  0  0  0  0
  -25.0747  -34.0282   25.0566 H   0  0  0  0  0  0  0  0  0  0  0  0
  -22.7881  -31.3489   21.4131 H   0  0  0  0  0  0  0  0  0  0  0  0
  -23.3854  -35.9823   23.3648 H   0  0  0  0  0  0  0  0  0  0  0  0
  -24.3696  -36.8624   22.2204 H   0  0  0  0  0  0  0  0  0  0  0  0
  -23.7669  -37.6632   23.6516 H   0  0  0  0  0  0  0  0  0  0  0  0
  -25.9445  -31.6237   20.5691 H   0  0  0  0  0  0  0  0  0  0  0  0
  -26.7436  -31.0079   22.0108 H   0  0  0  0  0  0  0  0  0  0  0  0
  -28.0090  -29.1452   21.2057 H   0  0  0  0  0  0  0  0  0  0  0  0
  -26.1369  -26.0560   19.0719 H   0  0  0  0  0  0  0  0  0  0  0  0
  -24.0652  -27.2961   19.0997 H   0  0  0  0  0  0  0  0  0  0  0  0
  -23.6156  -30.5365   19.3930 H   0  0  0  0  0  0  0  0  0  0  0  0
  -22.7355  -29.1425   19.9945 H   0  0  0  0  0  0  0  0  0  0  0  0
  -25.1353  -36.2335   25.0565 H   0  0  0  0  0  0  0  0  0  0  0  0
  -21.0070  -28.3206   24.0793 H   0  0  0  0  0  0  0  0  0  0  0  0
  -20.5555  -26.2518   23.3550 H   0  0  0  0  0  0  0  0  0  0  0  0
  -21.5974  -26.8362   22.0454 H   0  0  0  0  0  0  0  0  0  0  0  0
  -19.6810  -25.6422   21.1488 H   0  0  0  0  0  0  0  0  0  0  0  0
  -19.6406  -27.3343   20.7034 H   0  0  0  0  0  0  0  0  0  0  0  0
  -17.4282  -26.6888   21.4113 H   0  0  0  0  0  0  0  0  0  0  0  0
  -18.0803  -26.0130   22.9049 H   0  0  0  0  0  0  0  0  0  0  0  0
  -19.7265  -30.6774   24.2204 H   0  0  0  0  0  0  0  0  0  0  0  0
  -17.5064  -31.5856   24.4483 H   0  0  0  0  0  0  0  0  0  0  0  0
  -15.5878  -30.2839   23.7407 H   0  0  0  0  0  0  0  0  0  0  0  0
  -15.9120  -28.0941   22.7766 H   0  0  0  0  0  0  0  0  0  0  0  0
  -24.5787  -30.7757   25.6817 H   0  0  0  0  0  0  0  0  0  0  0  0
  -25.0041  -32.2289   26.5536 H   0  0  0  0  0  0  0  0  0  0  0  0
  -25.8166  -30.7245   26.9138 H   0  0  0  0  0  0  0  0  0  0  0  0
  -26.2892  -29.7335   24.0803 H   0  0  0  0  0  0  0  0  0  0  0  0
  -27.4336  -29.7484   25.4006 H   0  0  0  0  0  0  0  0  0  0  0  0
  -27.8466  -30.4994   23.8779 H   0  0  0  0  0  0  0  0  0  0  0  0
  -27.2251  -33.3632   26.1242 H   0  0  0  0  0  0  0  0  0  0  0  0
  -28.3902  -32.6065   25.0645 H   0  0  0  0  0  0  0  0  0  0  0  0
  -27.9772  -31.8555   26.5872 H   0  0  0  0  0  0  0  0  0  0  0  0
  -28.2744  -38.0016   24.6863 H   0  0  0  0  0  0  0  0  0  0  0  0
  -28.0396  -36.2711   24.7461 H   0  0  0  0  0  0  0  0  0  0  0  0
  -27.1773  -37.3087   25.8564 H   0  0  0  0  0  0  0  0  0  0  0  0
  -20.9627  -29.9365   21.7352 H   0  0  0  0  0  0  0  0  0  0  0  0
  -26.0447  -38.2561   24.0273 H   0  0  0  0  0  0  0  0  0  0  0  0
  -30.1338  -28.9223   18.7387 H   0  0  0  0  0  0  0  0  0  0  0  0
  -30.4174  -26.9014   17.4253 H   0  0  0  0  0  0  0  0  0  0  0  0
  -29.5448  -24.5752   20.8160 H   0  0  0  0  0  0  0  0  0  0  0  0
  -28.7192  -23.9172   14.6794 H   0  0  0  0  0  0  0  0  0  0  0  0
  -28.4577  -24.4948   16.3311 H   0  0  0  0  0  0  0  0  0  0  0  0
  -31.6895  -25.3436   17.1918 H   0  0  0  0  0  0  0  0  0  0  0  0
  -31.7839  -23.5763   17.2327 H   0  0  0  0  0  0  0  0  0  0  0  0
  -29.2621  -21.7773   15.4294 H   0  0  0  0  0  0  0  0  0  0  0  0
  -27.8398  -22.3106   16.3920 H   0  0  0  0  0  0  0  0  0  0  0  0
  -30.6456  -21.9630   17.3096 H   0  0  0  0  0  0  0  0  0  0  0  0
  -29.6892  -20.0535   18.5709 H   0  0  0  0  0  0  0  0  0  0  0  0
  -28.4632  -19.9179   17.7444 H   0  0  0  0  0  0  0  0  0  0  0  0
  -27.5977  -30.0038   22.2075 H   0  0  0  0  0  0  0  0  0  0  0  0
  1 25  1  0
  1 30  2  0
  1 86  1  0
  2  3  1  0
  2 25  1  0
  2 91  1  0
  2 92  1  0
  3  4  1  0
  3 93  1  0
  3 94  1  0
  4  5  1  0
  4 95  1  0
  4 96  1  0
  5  6  1  0
  5 26  1  0
  5 97  1  6
  6 25  1  0
  6 98  1  0
  6 99  1  0
  7  8  2  0
  7 26  1  0
  7 29  1  0
  8  9  1  0
  8 22  1  0
  9 10  1  0
  9 27  2  0
 10 11  2  0
 10 15  1  0
 11 12  1  0
 11100  1  0
 12 13  2  0
 12101  1  0
 13 14  1  0
 13 31  1  0
 14 15  2  0
 14102  1  0
 15103  1  0
 16 17  2  0
 16 21  1  0
 16 31  1  0
 17 18  1  0
 17104  1  0
 18 19  2  0
 18105  1  0
 19 20  1  0
 19 24  1  0
 20 21  2  0
 20106  1  0
 21 23  1  0
 22 28  1  0
 22 32  2  0
 26 27  1  0
 28107  1  0
 28108  1  0
 29109  1  0
 29110  1  0
 33 34  1  0
 33 66  1  0
 33 70  2  0
 34 36  1  0
 34 59  1  0
 34111  1  6
 35 44  2  0
 35 45  1  0
 35 68  1  0
 36 56  1  0
 36112  1  0
 37 39  1  0
 37 47  1  0
 37 66  1  0
 37113  1  6
 38 43  2  0
 38 46  1  0
 38 47  1  0
 39 64  1  0
 39 67  2  0
 40 52  1  0
 40 53  2  0
 40 58  1  0
 41114  1  0
 41115  1  0
 41116  1  0
 42 43  1  0
 42 66  1  0
 42117  1  0
 42118  1  0
 43 44  1  0
 44119  1  0
 45 46  2  0
 45120  1  0
 46121  1  0
 47122  1  0
 47123  1  0
 48 41  1  0
 48 56  1  0
 48 65  1  0
 48124  1  1
 49 50  1  0
 49 53  1  0
 49 64  1  0
 49125  1  1
 50 51  1  0
 50126  1  0
 50127  1  0
 51 52  1  0
 51128  1  0
 51129  1  0
 52130  1  0
 52131  1  0
 53 54  1  0
 54 55  2  0
 54132  1  0
 55 57  1  0
 55133  1  0
 56 69  2  0
 57 58  2  0
 57134  1  0
 58135  1  0
 59 60  1  0
 59 61  1  0
 59 62  1  0
 60136  1  0
 60137  1  0
 60138  1  0
 61139  1  0
 61140  1  0
 61141  1  0
 62142  1  0
 62143  1  0
 62144  1  0
 63 65  1  0
 63145  1  0
 63146  1  0
 63147  1  0
 64148  1  0
 65149  1  0
 68 84  1  0
 71 72  2  0
 71 74  1  0
 71150  1  0
 72 75  1  0
 72151  1  0
 73 75  2  0
 73 76  1  0
 73152  1  0
 74 76  2  0
 74 79  1  0
 75 85  1  0
 76 90  1  0
 77 80  1  0
 77 81  1  0
 77 87  2  0
 78 83  1  0
 78 85  1  0
 78 88  2  0
 79 86  1  0
 79 89  2  0
 80 82  1  0
 80153  1  0
 80154  1  0
 81 85  1  0
 81155  1  0
 81156  1  0
 82 83  1  0
 82157  1  0
 82158  1  0
 83 84  1  0
 83159  1  6
 84160  1  0
 84161  1  0
 86162  1  0
M  ISO  4   1 100  68 101  84 101  86 100
M  END
$$$$
62
     RDKit          3D

162171  0  0  0  0  0  0  0  0999 V2000
  -30.7652  -14.3608   20.6636 C   0  0  0  0  0  0  0  0  0100  0  0
  -30.4392  -12.2669   19.3775 C   0  0  0  0  0  0  0  0  0101  0  0
  -29.4791  -12.5281   18.1977 C   0  0  0  0  0  0  0  0  0102  0  0
  -27.9985  -12.3963   18.6038 C   0  0  0  0  0  0  0  0  0103  0  0
  -27.6639  -13.2170   19.8820 C   0  0  2  0  0  0  0  0  0104  0  0
  -28.6795  -12.9602   21.0279 C   0  0  0  0  0  0  0  0  0105  0  0
  -25.2633  -13.8245   20.5754 C   0  0  0  0  0  0  0  0  0106  0  0
  -24.1645  -13.0409   20.9408 C   0  0  0  0  0  0  0  0  0107  0  0
  -24.6400  -11.7009   20.8697 C   0  0  0  0  0  0  0  0  0108  0  0
  -23.9005  -10.4085   21.0420 C   0  0  0  0  0  0  0  0  0109  0  0
  -24.3588   -9.4123   21.9123 C   0  0  0  0  0  0  0  0  0110  0  0
  -23.6296   -8.2350   22.0803 C   0  0  0  0  0  0  0  0  0111  0  0
  -22.4385   -8.0419   21.3657 C   0  0  0  0  0  0  0  0  0112  0  0
  -22.0103   -9.0167   20.4678 C   0  0  0  0  0  0  0  0  0113  0  0
  -22.7317  -10.1925   20.3102 C   0  0  0  0  0  0  0  0  0114  0  0
  -21.6857   -6.0709   22.5391 C   0  0  0  0  0  0  0  0  0115  0  0
  -21.4064   -6.5490   23.8264 C   0  0  0  0  0  0  0  0  0116  0  0
  -21.3635   -5.6677   24.9085 C   0  0  0  0  0  0  0  0  0117  0  0
  -21.5973   -4.3067   24.7088 C   0  0  0  0  0  0  0  0  0118  0  0
  -21.8700   -3.8284   23.4282 C   0  0  0  0  0  0  0  0  0119  0  0
  -21.9144   -4.7056   22.3460 C   0  0  0  0  0  0  0  0  0120  0  0
  -22.8194  -13.5263   21.1763 C   0  0  0  0  0  0  0  0  0121  0  0
  -22.1559   -4.2206   21.1063 F   0  0  0  0  0  0  0  0  0122  0  0
  -21.5628   -3.4510   25.7555 F   0  0  0  0  0  0  0  0  0123  0  0
  -30.0261  -13.1803   20.4553 N   0  0  0  0  0  0  0  0  0124  0  0
  -26.2911  -12.9356   20.3443 N   0  0  0  0  0  0  0  0  0125  0  0
  -25.9236  -11.6675   20.5847 N   0  0  0  0  0  0  0  0  0126  0  0
  -22.0708  -12.7905   22.0005 N   0  0  0  0  0  0  0  0  0127  0  0
  -25.4117  -15.1773   20.4097 N   0  0  0  0  0  0  0  0  0128  0  0
  -31.7916  -14.6724   20.0536 O   0  0  0  0  0  0  0  0  0129  0  0
  -21.6670   -6.9022   21.4423 O   0  0  0  0  0  0  0  0  0130  0  0
  -22.3946  -14.5564   20.6568 O   0  0  0  0  0  0  0  0  0131  0  0
  -24.6048  -31.8614   23.2223 C   0  0  0  0  0  0  0  0  0100  0  0
  -25.8822  -32.4841   23.8616 C   0  0  1  0  0  0  0  0  0101  0  0
  -27.2536  -27.5042   20.1156 C   0  0  0  0  0  0  0  0  0102  0  0
  -25.5726  -33.8762   24.2210 N   0  0  0  0  0  0  0  0  0103  0  0
  -23.4066  -30.4859   21.5461 C   0  0  2  0  0  0  0  0  0104  0  0
  -24.8467  -28.9636   20.1247 C   0  0  0  0  0  0  0  0  0105  0  0
  -22.7412  -29.4652   22.5052 C   0  0  0  0  0  0  0  0  0106  0  0
  -18.0167  -28.1302   22.8626 C   0  0  0  0  0  0  0  0  0107  0  0
  -24.1342  -36.7390   23.2568 C   0  0  0  0  0  0  0  0  0108  0  0
  -25.9141  -30.8882   21.3456 C   0  0  0  0  0  0  0  0  0109  0  0
  -25.9930  -29.5029   20.7208 C   0  0  0  0  0  0  0  0  0110  0  0
  -27.1758  -28.7612   20.7331 C   0  0  0  0  0  0  0  0  0111  0  0
  -26.1032  -26.9836   19.5230 C   0  0  0  0  0  0  0  0  0112  0  0
  -24.9097  -27.7011   19.5331 C   0  0  0  0  0  0  0  0  0113  0  0
  -23.5715  -29.7899   20.1582 C   0  0  0  0  0  0  0  0  0114  0  0
  -25.3990  -36.3212   24.0232 C   0  0  1  0  0  0  0  0  0115  0  0
  -20.5793  -28.3813   23.1004 C   0  0  2  0  0  0  0  0  0116  0  0
  -20.6548  -26.9392   22.5411 C   0  0  0  0  0  0  0  0  0117  0  0
  -19.5615  -26.6407   21.5143 C   0  0  0  0  0  0  0  0  0118  0  0
  -18.1797  -26.7818   22.1673 C   0  0  0  0  0  0  0  0  0119  0  0
  -19.1385  -28.8769   23.2988 C   0  0  0  0  0  0  0  0  0120  0  0
  -18.9183  -30.1286   23.8878 C   0  0  0  0  0  0  0  0  0121  0  0
  -17.6396  -30.6493   24.0352 C   0  0  0  0  0  0  0  0  0122  0  0
  -25.9153  -34.9582   23.4993 C   0  0  0  0  0  0  0  0  0123  0  0
  -16.5415  -29.9068   23.6254 C   0  0  0  0  0  0  0  0  0124  0  0
  -16.7331  -28.6521   23.0586 C   0  0  0  0  0  0  0  0  0125  0  0
  -26.4583  -31.6439   25.0683 C   0  0  0  0  0  0  0  0  0126  0  0
  -25.3807  -31.3179   26.1374 C   0  0  0  0  0  0  0  0  0127  0  0
  -27.0530  -30.3024   24.5680 C   0  0  0  0  0  0  0  0  0128  0  0
  -27.6014  -32.4281   25.7651 C   0  0  0  0  0  0  0  0  0129  0  0
  -27.5629  -37.2220   24.8621 C   0  0  0  0  0  0  0  0  0130  0  0
  -21.4133  -29.3375   22.3735 N   0  0  0  0  0  0  0  0  0131  0  0
  -26.4706  -37.3372   23.9061 N   0  0  0  0  0  0  0  0  0132  0  0
  -24.6674  -31.0544   22.1178 N   0  0  0  0  0  0  0  0  0133  0  0
  -23.4259  -28.8150   23.2971 O   0  0  0  0  0  0  0  0  0134  0  0
  -28.3948  -26.7345   20.0089 O   0  0  0  0  0  0  0  0  0135  0  0
  -26.5870  -34.9065   22.4671 O   0  0  0  0  0  0  0  0  0136  0  0
  -23.5365  -32.1254   23.7833 O   0  0  0  0  0  0  0  0  0137  0  0
  -21.9096  -23.4334   19.8426 C   0  0  0  0  0  0  0  0  0  0  0  0
  -22.2258  -22.1351   19.4427 C   0  0  0  0  0  0  0  0  0  0  0  0
  -21.3114  -22.6126   22.0347 C   0  0  0  0  0  0  0  0  0  0  0  0
  -21.4525  -23.6722   21.1387 C   0  0  0  0  0  0  0  0  0  0  0  0
  -22.0847  -21.0755   20.3387 C   0  0  0  0  0  0  0  0  0  0  0  0
  -21.6275  -21.3142   21.6348 C   0  0  0  0  0  0  0  0  0  0  0  0
  -21.1145  -25.0581   21.5652 C   0  0  0  0  0  0  0  0  0  0  0  0
  -22.5987  -26.9270   22.2472 C   0  0  0  0  0  0  0  0  0  0  0  0
  -20.8708  -26.0164   23.8429 C   0  0  0  0  0  0  0  0  0  0  0  0
  -23.2526  -27.6496   23.4184 C   0  0  0  0  0  0  0  0  0  0  0  0
  -21.5546  -26.7689   24.9805 C   0  0  0  0  0  0  0  0  0  0  0  0
  -21.8491  -25.6778   22.7160 C   0  0  0  0  0  0  0  0  0  0  0  0
  -22.4275  -19.6945   19.8824 C   0  0  0  0  0  0  0  0  0  1  0  0
  -20.1829  -25.7237   20.9602 N   0  0  0  0  0  0  0  0  0  0  0  0
  -22.2900  -27.9323   24.4870 N   0  0  0  0  0  0  0  0  0  0  0  0
  -21.4766  -20.2529   22.5543 N   0  0  0  0  0  0  0  0  0  0  0  0
  -31.4485  -12.4701   19.0860 H   0  0  0  0  0  0  0  0  0  0  0  0
  -30.3970  -11.2460   19.6950 H   0  0  0  0  0  0  0  0  0  0  0  0
  -29.6870  -11.8204   17.4226 H   0  0  0  0  0  0  0  0  0  0  0  0
  -29.6375  -13.5326   17.8649 H   0  0  0  0  0  0  0  0  0  0  0  0
  -27.7830  -11.3650   18.7904 H   0  0  0  0  0  0  0  0  0  0  0  0
  -27.4028  -12.7801   17.8021 H   0  0  0  0  0  0  0  0  0  0  0  0
  -27.7353  -14.2503   19.6136 H   0  0  0  0  0  0  0  0  0  0  0  0
  -28.5890  -11.9550   21.3832 H   0  0  0  0  0  0  0  0  0  0  0  0
  -28.5005  -13.6134   21.8562 H   0  0  0  0  0  0  0  0  0  0  0  0
  -25.2399   -9.5495   22.4318 H   0  0  0  0  0  0  0  0  0  0  0  0
  -23.9663   -7.5070   22.7297 H   0  0  0  0  0  0  0  0  0  0  0  0
  -21.1515   -8.8641   19.9162 H   0  0  0  0  0  0  0  0  0  0  0  0
  -22.4016  -10.9115   19.6476 H   0  0  0  0  0  0  0  0  0  0  0  0
  -21.2319   -7.5552   23.9750 H   0  0  0  0  0  0  0  0  0  0  0  0
  -21.1589   -6.0228   25.8556 H   0  0  0  0  0  0  0  0  0  0  0  0
  -22.0396   -2.8212   23.2809 H   0  0  0  0  0  0  0  0  0  0  0  0
  -22.4401  -11.9703   22.4008 H   0  0  0  0  0  0  0  0  0  0  0  0
  -21.1493  -13.0679   22.2082 H   0  0  0  0  0  0  0  0  0  0  0  0
  -24.6538  -15.7807   20.5848 H   0  0  0  0  0  0  0  0  0  0  0  0
  -26.2762  -15.5453   20.1156 H   0  0  0  0  0  0  0  0  0  0  0  0
  -26.6778  -32.4663   23.1464 H   0  0  0  0  0  0  0  0  0  0  0  0
  -25.0747  -34.0282   25.0566 H   0  0  0  0  0  0  0  0  0  0  0  0
  -22.7881  -31.3489   21.4131 H   0  0  0  0  0  0  0  0  0  0  0  0
  -23.3854  -35.9823   23.3648 H   0  0  0  0  0  0  0  0  0  0  0  0
  -24.3696  -36.8624   22.2204 H   0  0  0  0  0  0  0  0  0  0  0  0
  -23.7669  -37.6632   23.6516 H   0  0  0  0  0  0  0  0  0  0  0  0
  -25.9445  -31.6237   20.5691 H   0  0  0  0  0  0  0  0  0  0  0  0
  -26.7436  -31.0079   22.0108 H   0  0  0  0  0  0  0  0  0  0  0  0
  -28.0090  -29.1452   21.2057 H   0  0  0  0  0  0  0  0  0  0  0  0
  -26.1369  -26.0560   19.0719 H   0  0  0  0  0  0  0  0  0  0  0  0
  -24.0652  -27.2961   19.0997 H   0  0  0  0  0  0  0  0  0  0  0  0
  -23.6156  -30.5365   19.3930 H   0  0  0  0  0  0  0  0  0  0  0  0
  -22.7355  -29.1425   19.9945 H   0  0  0  0  0  0  0  0  0  0  0  0
  -25.1353  -36.2335   25.0565 H   0  0  0  0  0  0  0  0  0  0  0  0
  -21.0070  -28.3206   24.0793 H   0  0  0  0  0  0  0  0  0  0  0  0
  -20.5555  -26.2518   23.3550 H   0  0  0  0  0  0  0  0  0  0  0  0
  -21.5974  -26.8362   22.0454 H   0  0  0  0  0  0  0  0  0  0  0  0
  -19.6810  -25.6422   21.1488 H   0  0  0  0  0  0  0  0  0  0  0  0
  -19.6406  -27.3343   20.7034 H   0  0  0  0  0  0  0  0  0  0  0  0
  -17.4282  -26.6888   21.4113 H   0  0  0  0  0  0  0  0  0  0  0  0
  -18.0803  -26.0130   22.9049 H   0  0  0  0  0  0  0  0  0  0  0  0
  -19.7265  -30.6774   24.2204 H   0  0  0  0  0  0  0  0  0  0  0  0
  -17.5064  -31.5856   24.4483 H   0  0  0  0  0  0  0  0  0  0  0  0
  -15.5878  -30.2839   23.7407 H   0  0  0  0  0  0  0  0  0  0  0  0
  -15.9120  -28.0941   22.7766 H   0  0  0  0  0  0  0  0  0  0  0  0
  -24.5787  -30.7757   25.6817 H   0  0  0  0  0  0  0  0  0  0  0  0
  -25.0041  -32.2289   26.5536 H   0  0  0  0  0  0  0  0  0  0  0  0
  -25.8166  -30.7245   26.9138 H   0  0  0  0  0  0  0  0  0  0  0  0
  -26.2892  -29.7335   24.0803 H   0  0  0  0  0  0  0  0  0  0  0  0
  -27.4336  -29.7484   25.4006 H   0  0  0  0  0  0  0  0  0  0  0  0
  -27.8466  -30.4994   23.8779 H   0  0  0  0  0  0  0  0  0  0  0  0
  -27.2251  -33.3632   26.1242 H   0  0  0  0  0  0  0  0  0  0  0  0
  -28.3902  -32.6065   25.0645 H   0  0  0  0  0  0  0  0  0  0  0  0
  -27.9772  -31.8555   26.5872 H   0  0  0  0  0  0  0  0  0  0  0  0
  -28.2744  -38.0016   24.6863 H   0  0  0  0  0  0  0  0  0  0  0  0
  -28.0396  -36.2711   24.7461 H   0  0  0  0  0  0  0  0  0  0  0  0
  -27.1773  -37.3087   25.8564 H   0  0  0  0  0  0  0  0  0  0  0  0
  -20.9627  -29.9365   21.7352 H   0  0  0  0  0  0  0  0  0  0  0  0
  -26.0447  -38.2561   24.0273 H   0  0  0  0  0  0  0  0  0  0  0  0
  -22.0138  -24.2173   19.1796 H   0  0  0  0  0  0  0  0  0  0  0  0
  -22.5642  -21.9585   18.4839 H   0  0  0  0  0  0  0  0  0  0  0  0
  -20.9731  -22.7892   22.9935 H   0  0  0  0  0  0  0  0  0  0  0  0
  -23.3560  -26.6380   21.5488 H   0  0  0  0  0  0  0  0  0  0  0  0
  -21.8963  -27.5914   21.7889 H   0  0  0  0  0  0  0  0  0  0  0  0
  -20.0850  -26.6257   23.4478 H   0  0  0  0  0  0  0  0  0  0  0  0
  -20.4857  -25.0986   24.2357 H   0  0  0  0  0  0  0  0  0  0  0  0
  -23.6645  -28.5734   23.0695 H   0  0  0  0  0  0  0  0  0  0  0  0
  -24.0166  -27.0153   23.8170 H   0  0  0  0  0  0  0  0  0  0  0  0
  -22.2378  -26.1088   25.4729 H   0  0  0  0  0  0  0  0  0  0  0  0
  -20.8004  -27.1109   25.6581 H   0  0  0  0  0  0  0  0  0  0  0  0
  -22.5654  -24.9786   23.0940 H   0  0  0  0  0  0  0  0  0  0  0  0
  -22.0492  -19.3163   18.9557 H   0  0  0  0  0  0  0  0  0  0  0  0
  -22.3803  -18.7055   20.2881 H   0  0  0  0  0  0  0  0  0  0  0  0
  -19.6997  -25.3181   20.2044 H   0  0  0  0  0  0  0  0  0  0  0  0
  -21.1530  -20.4340   23.4663 H   0  0  0  0  0  0  0  0  0  0  0  0
  -21.6950  -19.3320   22.2833 H   0  0  0  0  0  0  0  0  0  0  0  0
  1 25  1  0
  1 30  2  0
  1 85  1  0
  2  3  1  0
  2 25  1  0
  2 87  1  0
  2 88  1  0
  3  4  1  0
  3 89  1  0
  3 90  1  0
  4  5  1  0
  4 91  1  0
  4 92  1  0
  5  6  1  0
  5 26  1  0
  5 93  1  6
  6 25  1  0
  6 94  1  0
  6 95  1  0
  7  8  2  0
  7 26  1  0
  7 29  1  0
  8  9  1  0
  8 22  1  0
  9 10  1  0
  9 27  2  0
 10 11  2  0
 10 15  1  0
 11 12  1  0
 11 96  1  0
 12 13  2  0
 12 97  1  0
 13 14  1  0
 13 31  1  0
 14 15  2  0
 14 98  1  0
 15 99  1  0
 16 17  2  0
 16 21  1  0
 16 31  1  0
 17 18  1  0
 17100  1  0
 18 19  2  0
 18101  1  0
 19 20  1  0
 19 24  1  0
 20 21  2  0
 20102  1  0
 21 23  1  0
 22 28  1  0
 22 32  2  0
 26 27  1  0
 28103  1  0
 28104  1  0
 29105  1  0
 29106  1  0
 33 34  1  0
 33 66  1  0
 33 70  2  0
 34 36  1  0
 34 59  1  0
 34107  1  6
 35 44  2  0
 35 45  1  0
 35 68  1  0
 36 56  1  0
 36108  1  0
 37 39  1  0
 37 47  1  0
 37 66  1  0
 37109  1  6
 38 43  2  0
 38 46  1  0
 38 47  1  0
 39 64  1  0
 39 67  2  0
 40 52  1  0
 40 53  2  0
 40 58  1  0
 41110  1  0
 41111  1  0
 41112  1  0
 42 43  1  0
 42 66  1  0
 42113  1  0
 42114  1  0
 43 44  1  0
 44115  1  0
 45 46  2  0
 45116  1  0
 46117  1  0
 47118  1  0
 47119  1  0
 48 41  1  0
 48 56  1  0
 48 65  1  0
 48120  1  1
 49 50  1  0
 49 53  1  0
 49 64  1  0
 49121  1  1
 50 51  1  0
 50122  1  0
 50123  1  0
 51 52  1  0
 51124  1  0
 51125  1  0
 52126  1  0
 52127  1  0
 53 54  1  0
 54 55  2  0
 54128  1  0
 55 57  1  0
 55129  1  0
 56 69  2  0
 57 58  2  0
 57130  1  0
 58131  1  0
 59 60  1  0
 59 61  1  0
 59 62  1  0
 60132  1  0
 60133  1  0
 60134  1  0
 61135  1  0
 61136  1  0
 61137  1  0
 62138  1  0
 62139  1  0
 62140  1  0
 63 65  1  0
 63141  1  0
 63142  1  0
 63143  1  0
 64144  1  0
 65145  1  0
 68 83  1  0
 71 72  2  0
 71 74  1  0
 71146  1  0
 72 75  1  0
 72147  1  0
 73 74  2  0
 73 76  1  0
 73148  1  0
 74 77  1  0
 75 76  2  0
 75 83  1  0
 76 86  1  0
 77 84  2  0
 78 80  1  0
 78 82  1  0
 78149  1  0
 78150  1  0
 79 81  1  0
 79 82  1  0
 79151  1  0
 79152  1  0
 80 85  1  0
 80153  1  0
 80154  1  0
 81 85  1  0
 81155  1  0
 81156  1  0
 82 77  1  0
 82157  1  0
 83158  1  0
 83159  1  0
 84160  1  0
 86161  1  0
 86162  1  0
M  ISO  4   1 100  68 101  83 101  85 100
M  END
$$$$
63
     RDKit          3D

151159  0  0  0  0  0  0  0  0999 V2000
  -30.7652  -14.3608   20.6636 C   0  0  0  0  0  0  0  0  0100  0  0
  -30.4392  -12.2669   19.3775 C   0  0  0  0  0  0  0  0  0101  0  0
  -29.4791  -12.5281   18.1977 C   0  0  0  0  0  0  0  0  0102  0  0
  -27.9985  -12.3963   18.6038 C   0  0  0  0  0  0  0  0  0103  0  0
  -27.6639  -13.2170   19.8820 C   0  0  2  0  0  0  0  0  0104  0  0
  -28.6795  -12.9602   21.0279 C   0  0  0  0  0  0  0  0  0105  0  0
  -25.2633  -13.8245   20.5754 C   0  0  0  0  0  0  0  0  0106  0  0
  -24.1645  -13.0409   20.9408 C   0  0  0  0  0  0  0  0  0107  0  0
  -24.6400  -11.7009   20.8697 C   0  0  0  0  0  0  0  0  0108  0  0
  -23.9005  -10.4085   21.0420 C   0  0  0  0  0  0  0  0  0109  0  0
  -24.3588   -9.4123   21.9123 C   0  0  0  0  0  0  0  0  0110  0  0
  -23.6296   -8.2350   22.0803 C   0  0  0  0  0  0  0  0  0111  0  0
  -22.4385   -8.0419   21.3657 C   0  0  0  0  0  0  0  0  0112  0  0
  -22.0103   -9.0167   20.4678 C   0  0  0  0  0  0  0  0  0113  0  0
  -22.7317  -10.1925   20.3102 C   0  0  0  0  0  0  0  0  0114  0  0
  -21.6857   -6.0709   22.5391 C   0  0  0  0  0  0  0  0  0115  0  0
  -21.4064   -6.5490   23.8264 C   0  0  0  0  0  0  0  0  0116  0  0
  -21.3635   -5.6677   24.9085 C   0  0  0  0  0  0  0  0  0117  0  0
  -21.5973   -4.3067   24.7088 C   0  0  0  0  0  0  0  0  0118  0  0
  -21.8700   -3.8284   23.4282 C   0  0  0  0  0  0  0  0  0119  0  0
  -21.9144   -4.7056   22.3460 C   0  0  0  0  0  0  0  0  0120  0  0
  -22.8194  -13.5263   21.1763 C   0  0  0  0  0  0  0  0  0121  0  0
  -22.1559   -4.2206   21.1063 F   0  0  0  0  0  0  0  0  0122  0  0
  -21.5628   -3.4510   25.7555 F   0  0  0  0  0  0  0  0  0123  0  0
  -30.0261  -13.1803   20.4553 N   0  0  0  0  0  0  0  0  0124  0  0
  -26.2911  -12.9356   20.3443 N   0  0  0  0  0  0  0  0  0125  0  0
  -25.9236  -11.6675   20.5847 N   0  0  0  0  0  0  0  0  0126  0  0
  -22.0708  -12.7905   22.0005 N   0  0  0  0  0  0  0  0  0127  0  0
  -25.4117  -15.1773   20.4097 N   0  0  0  0  0  0  0  0  0128  0  0
  -31.7916  -14.6724   20.0536 O   0  0  0  0  0  0  0  0  0129  0  0
  -21.6670   -6.9022   21.4423 O   0  0  0  0  0  0  0  0  0130  0  0
  -22.3946  -14.5564   20.6568 O   0  0  0  0  0  0  0  0  0131  0  0
  -24.6048  -31.8614   23.2223 C   0  0  0  0  0  0  0  0  0100  0  0
  -25.8822  -32.4841   23.8616 C   0  0  1  0  0  0  0  0  0101  0  0
  -27.2536  -27.5042   20.1156 C   0  0  0  0  0  0  0  0  0102  0  0
  -25.5726  -33.8762   24.2210 N   0  0  0  0  0  0  0  0  0103  0  0
  -23.4066  -30.4859   21.5461 C   0  0  2  0  0  0  0  0  0104  0  0
  -24.8467  -28.9636   20.1247 C   0  0  0  0  0  0  0  0  0105  0  0
  -22.7412  -29.4652   22.5052 C   0  0  0  0  0  0  0  0  0106  0  0
  -18.0167  -28.1302   22.8626 C   0  0  0  0  0  0  0  0  0107  0  0
  -24.1342  -36.7390   23.2568 C   0  0  0  0  0  0  0  0  0108  0  0
  -25.9141  -30.8882   21.3456 C   0  0  0  0  0  0  0  0  0109  0  0
  -25.9930  -29.5029   20.7208 C   0  0  0  0  0  0  0  0  0110  0  0
  -27.1758  -28.7612   20.7331 C   0  0  0  0  0  0  0  0  0111  0  0
  -26.1032  -26.9836   19.5230 C   0  0  0  0  0  0  0  0  0112  0  0
  -24.9097  -27.7011   19.5331 C   0  0  0  0  0  0  0  0  0113  0  0
  -23.5715  -29.7899   20.1582 C   0  0  0  0  0  0  0  0  0114  0  0
  -25.3990  -36.3212   24.0232 C   0  0  1  0  0  0  0  0  0115  0  0
  -20.5793  -28.3813   23.1004 C   0  0  2  0  0  0  0  0  0116  0  0
  -20.6548  -26.9392   22.5411 C   0  0  0  0  0  0  0  0  0117  0  0
  -19.5615  -26.6407   21.5143 C   0  0  0  0  0  0  0  0  0118  0  0
  -18.1797  -26.7818   22.1673 C   0  0  0  0  0  0  0  0  0119  0  0
  -19.1385  -28.8769   23.2988 C   0  0  0  0  0  0  0  0  0120  0  0
  -18.9183  -30.1286   23.8878 C   0  0  0  0  0  0  0  0  0121  0  0
  -17.6396  -30.6493   24.0352 C   0  0  0  0  0  0  0  0  0122  0  0
  -25.9153  -34.9582   23.4993 C   0  0  0  0  0  0  0  0  0123  0  0
  -16.5415  -29.9068   23.6254 C   0  0  0  0  0  0  0  0  0124  0  0
  -16.7331  -28.6521   23.0586 C   0  0  0  0  0  0  0  0  0125  0  0
  -26.4583  -31.6439   25.0683 C   0  0  0  0  0  0  0  0  0126  0  0
  -25.3807  -31.3179   26.1374 C   0  0  0  0  0  0  0  0  0127  0  0
  -27.0530  -30.3024   24.5680 C   0  0  0  0  0  0  0  0  0128  0  0
  -27.6014  -32.4281   25.7651 C   0  0  0  0  0  0  0  0  0129  0  0
  -27.5629  -37.2220   24.8621 C   0  0  0  0  0  0  0  0  0130  0  0
  -21.4133  -29.3375   22.3735 N   0  0  0  0  0  0  0  0  0131  0  0
  -26.4706  -37.3372   23.9061 N   0  0  0  0  0  0  0  0  0132  0  0
  -24.6674  -31.0544   22.1178 N   0  0  0  0  0  0  0  0  0133  0  0
  -23.4259  -28.8150   23.2971 O   0  0  0  0  0  0  0  0  0134  0  0
  -28.3948  -26.7345   20.0089 O   0  0  0  0  0  0  0  0  0135  0  0
  -26.5870  -34.9065   22.4671 O   0  0  0  0  0  0  0  0  0136  0  0
  -23.5365  -32.1254   23.7833 O   0  0  0  0  0  0  0  0  0137  0  0
  -27.3893  -20.5704   20.7524 C   0  0  0  0  0  0  0  0  0  0  0  0
  -26.4325  -21.2645   21.4929 C   0  0  0  0  0  0  0  0  0  0  0  0
  -25.8846  -19.2363   22.6860 C   0  0  0  0  0  0  0  0  0  0  0  0
  -27.5937  -19.2092   20.9786 C   0  0  0  0  0  0  0  0  0  0  0  0
  -25.6802  -20.5975   22.4597 C   0  0  0  0  0  0  0  0  0  0  0  0
  -26.8413  -18.5422   21.9454 C   0  0  0  0  0  0  0  0  0  0  0  0
  -28.6133  -18.4739   20.1871 C   0  0  0  0  0  0  0  0  0  0  0  0
  -23.9080  -20.6756   24.2144 C   0  0  0  0  0  0  0  0  0  0  0  0
  -22.9862  -21.7096   24.8388 C   0  0  0  0  0  0  0  0  0  1  0  0
  -24.7302  -21.2866   23.1952 N   0  0  0  0  0  0  0  0  0  0  0  0
  -28.3468  -17.1218   19.9696 N   0  0  0  0  0  0  0  0  0  0  0  0
  -29.5838  -19.0845   19.7476 O   0  0  0  0  0  0  0  0  0  0  0  0
  -27.0279  -17.2337   22.1692 F   0  0  0  0  0  0  0  0  0  0  0  0
  -31.4485  -12.4701   19.0860 H   0  0  0  0  0  0  0  0  0  0  0  0
  -30.3970  -11.2460   19.6950 H   0  0  0  0  0  0  0  0  0  0  0  0
  -29.6870  -11.8204   17.4226 H   0  0  0  0  0  0  0  0  0  0  0  0
  -29.6375  -13.5326   17.8649 H   0  0  0  0  0  0  0  0  0  0  0  0
  -27.7830  -11.3650   18.7904 H   0  0  0  0  0  0  0  0  0  0  0  0
  -27.4028  -12.7801   17.8021 H   0  0  0  0  0  0  0  0  0  0  0  0
  -27.7353  -14.2503   19.6136 H   0  0  0  0  0  0  0  0  0  0  0  0
  -28.5890  -11.9550   21.3832 H   0  0  0  0  0  0  0  0  0  0  0  0
  -28.5005  -13.6134   21.8562 H   0  0  0  0  0  0  0  0  0  0  0  0
  -25.2399   -9.5495   22.4318 H   0  0  0  0  0  0  0  0  0  0  0  0
  -23.9663   -7.5070   22.7297 H   0  0  0  0  0  0  0  0  0  0  0  0
  -21.1515   -8.8641   19.9162 H   0  0  0  0  0  0  0  0  0  0  0  0
  -22.4016  -10.9115   19.6476 H   0  0  0  0  0  0  0  0  0  0  0  0
  -21.2319   -7.5552   23.9750 H   0  0  0  0  0  0  0  0  0  0  0  0
  -21.1589   -6.0228   25.8556 H   0  0  0  0  0  0  0  0  0  0  0  0
  -22.0396   -2.8212   23.2809 H   0  0  0  0  0  0  0  0  0  0  0  0
  -22.4401  -11.9703   22.4008 H   0  0  0  0  0  0  0  0  0  0  0  0
  -21.1493  -13.0679   22.2082 H   0  0  0  0  0  0  0  0  0  0  0  0
  -24.6538  -15.7807   20.5848 H   0  0  0  0  0  0  0  0  0  0  0  0
  -26.2762  -15.5453   20.1156 H   0  0  0  0  0  0  0  0  0  0  0  0
  -26.6778  -32.4663   23.1464 H   0  0  0  0  0  0  0  0  0  0  0  0
  -25.0747  -34.0282   25.0566 H   0  0  0  0  0  0  0  0  0  0  0  0
  -22.7881  -31.3489   21.4131 H   0  0  0  0  0  0  0  0  0  0  0  0
  -23.3854  -35.9823   23.3648 H   0  0  0  0  0  0  0  0  0  0  0  0
  -24.3696  -36.8624   22.2204 H   0  0  0  0  0  0  0  0  0  0  0  0
  -23.7669  -37.6632   23.6516 H   0  0  0  0  0  0  0  0  0  0  0  0
  -25.9445  -31.6237   20.5691 H   0  0  0  0  0  0  0  0  0  0  0  0
  -26.7436  -31.0079   22.0108 H   0  0  0  0  0  0  0  0  0  0  0  0
  -28.0090  -29.1452   21.2057 H   0  0  0  0  0  0  0  0  0  0  0  0
  -26.1369  -26.0560   19.0719 H   0  0  0  0  0  0  0  0  0  0  0  0
  -24.0652  -27.2961   19.0997 H   0  0  0  0  0  0  0  0  0  0  0  0
  -23.6156  -30.5365   19.3930 H   0  0  0  0  0  0  0  0  0  0  0  0
  -22.7355  -29.1425   19.9945 H   0  0  0  0  0  0  0  0  0  0  0  0
  -25.1353  -36.2335   25.0565 H   0  0  0  0  0  0  0  0  0  0  0  0
  -21.0070  -28.3206   24.0793 H   0  0  0  0  0  0  0  0  0  0  0  0
  -20.5555  -26.2518   23.3550 H   0  0  0  0  0  0  0  0  0  0  0  0
  -21.5974  -26.8362   22.0454 H   0  0  0  0  0  0  0  0  0  0  0  0
  -19.6810  -25.6422   21.1488 H   0  0  0  0  0  0  0  0  0  0  0  0
  -19.6406  -27.3343   20.7034 H   0  0  0  0  0  0  0  0  0  0  0  0
  -17.4282  -26.6888   21.4113 H   0  0  0  0  0  0  0  0  0  0  0  0
  -18.0803  -26.0130   22.9049 H   0  0  0  0  0  0  0  0  0  0  0  0
  -19.7265  -30.6774   24.2204 H   0  0  0  0  0  0  0  0  0  0  0  0
  -17.5064  -31.5856   24.4483 H   0  0  0  0  0  0  0  0  0  0  0  0
  -15.5878  -30.2839   23.7407 H   0  0  0  0  0  0  0  0  0  0  0  0
  -15.9120  -28.0941   22.7766 H   0  0  0  0  0  0  0  0  0  0  0  0
  -24.5787  -30.7757   25.6817 H   0  0  0  0  0  0  0  0  0  0  0  0
  -25.0041  -32.2289   26.5536 H   0  0  0  0  0  0  0  0  0  0  0  0
  -25.8166  -30.7245   26.9138 H   0  0  0  0  0  0  0  0  0  0  0  0
  -26.2892  -29.7335   24.0803 H   0  0  0  0  0  0  0  0  0  0  0  0
  -27.4336  -29.7484   25.4006 H   0  0  0  0  0  0  0  0  0  0  0  0
  -27.8466  -30.4994   23.8779 H   0  0  0  0  0  0  0  0  0  0  0  0
  -27.2251  -33.3632   26.1242 H   0  0  0  0  0  0  0  0  0  0  0  0
  -28.3902  -32.6065   25.0645 H   0  0  0  0  0  0  0  0  0  0  0  0
  -27.9772  -31.8555   26.5872 H   0  0  0  0  0  0  0  0  0  0  0  0
  -28.2744  -38.0016   24.6863 H   0  0  0  0  0  0  0  0  0  0  0  0
  -28.0396  -36.2711   24.7461 H   0  0  0  0  0  0  0  0  0  0  0  0
  -27.1773  -37.3087   25.8564 H   0  0  0  0  0  0  0  0  0  0  0  0
  -20.9627  -29.9365   21.7352 H   0  0  0  0  0  0  0  0  0  0  0  0
  -26.0447  -38.2561   24.0273 H   0  0  0  0  0  0  0  0  0  0  0  0
  -27.9460  -21.0639   20.0372 H   0  0  0  0  0  0  0  0  0  0  0  0
  -26.2812  -22.2715   21.3255 H   0  0  0  0  0  0  0  0  0  0  0  0
  -25.3280  -18.7428   23.4013 H   0  0  0  0  0  0  0  0  0  0  0  0
  -23.3193  -19.8982   23.7739 H   0  0  0  0  0  0  0  0  0  0  0  0
  -24.5414  -20.2696   24.9752 H   0  0  0  0  0  0  0  0  0  0  0  0
  -23.0437  -21.8253   25.9010 H   0  0  0  0  0  0  0  0  0  0  0  0
  -21.9166  -21.7119   24.8100 H   0  0  0  0  0  0  0  0  0  0  0  0
  -24.6083  -22.2465   23.0134 H   0  0  0  0  0  0  0  0  0  0  0  0
  -27.4632  -16.8794   19.6095 H   0  0  0  0  0  0  0  0  0  0  0  0
  1 25  1  0
  1 30  2  0
  1 81  1  0
  2  3  1  0
  2 25  1  0
  2 84  1  0
  2 85  1  0
  3  4  1  0
  3 86  1  0
  3 87  1  0
  4  5  1  0
  4 88  1  0
  4 89  1  0
  5  6  1  0
  5 26  1  0
  5 90  1  6
  6 25  1  0
  6 91  1  0
  6 92  1  0
  7  8  2  0
  7 26  1  0
  7 29  1  0
  8  9  1  0
  8 22  1  0
  9 10  1  0
  9 27  2  0
 10 11  2  0
 10 15  1  0
 11 12  1  0
 11 93  1  0
 12 13  2  0
 12 94  1  0
 13 14  1  0
 13 31  1  0
 14 15  2  0
 14 95  1  0
 15 96  1  0
 16 17  2  0
 16 21  1  0
 16 31  1  0
 17 18  1  0
 17 97  1  0
 18 19  2  0
 18 98  1  0
 19 20  1  0
 19 24  1  0
 20 21  2  0
 20 99  1  0
 21 23  1  0
 22 28  1  0
 22 32  2  0
 26 27  1  0
 28100  1  0
 28101  1  0
 29102  1  0
 29103  1  0
 33 34  1  0
 33 66  1  0
 33 70  2  0
 34 36  1  0
 34 59  1  0
 34104  1  6
 35 44  2  0
 35 45  1  0
 35 68  1  0
 36 56  1  0
 36105  1  0
 37 39  1  0
 37 47  1  0
 37 66  1  0
 37106  1  6
 38 43  2  0
 38 46  1  0
 38 47  1  0
 39 64  1  0
 39 67  2  0
 40 52  1  0
 40 53  2  0
 40 58  1  0
 41107  1  0
 41108  1  0
 41109  1  0
 42 43  1  0
 42 66  1  0
 42110  1  0
 42111  1  0
 43 44  1  0
 44112  1  0
 45 46  2  0
 45113  1  0
 46114  1  0
 47115  1  0
 47116  1  0
 48 41  1  0
 48 56  1  0
 48 65  1  0
 48117  1  1
 49 50  1  0
 49 53  1  0
 49 64  1  0
 49118  1  1
 50 51  1  0
 50119  1  0
 50120  1  0
 51 52  1  0
 51121  1  0
 51122  1  0
 52123  1  0
 52124  1  0
 53 54  1  0
 54 55  2  0
 54125  1  0
 55 57  1  0
 55126  1  0
 56 69  2  0
 57 58  2  0
 57127  1  0
 58128  1  0
 59 60  1  0
 59 61  1  0
 59 62  1  0
 60129  1  0
 60130  1  0
 60131  1  0
 61132  1  0
 61133  1  0
 61134  1  0
 62135  1  0
 62136  1  0
 62137  1  0
 63 65  1  0
 63138  1  0
 63139  1  0
 63140  1  0
 64141  1  0
 65142  1  0
 68 79  1  0
 71 72  2  0
 71 74  1  0
 71143  1  0
 72 75  1  0
 72144  1  0
 73 75  2  0
 73 76  1  0
 73145  1  0
 74 76  2  0
 74 77  1  0
 75 80  1  0
 76 83  1  0
 77 81  1  0
 77 82  2  0
 78 79  1  0
 78 80  1  0
 78146  1  0
 78147  1  0
 79148  1  0
 79149  1  0
 80150  1  0
 81151  1  0
M  ISO  4   1 100  68 101  79 101  81 100
M  END
$$$$
64
     RDKit          3D

164173  0  0  0  0  0  0  0  0999 V2000
  -30.7652  -14.3608   20.6636 C   0  0  0  0  0  0  0  0  0100  0  0
  -30.4392  -12.2669   19.3775 C   0  0  0  0  0  0  0  0  0101  0  0
  -29.4791  -12.5281   18.1977 C   0  0  0  0  0  0  0  0  0102  0  0
  -27.9985  -12.3963   18.6038 C   0  0  0  0  0  0  0  0  0103  0  0
  -27.6639  -13.2170   19.8820 C   0  0  2  0  0  0  0  0  0104  0  0
  -28.6795  -12.9602   21.0279 C   0  0  0  0  0  0  0  0  0105  0  0
  -25.2633  -13.8245   20.5754 C   0  0  0  0  0  0  0  0  0106  0  0
  -24.1645  -13.0409   20.9408 C   0  0  0  0  0  0  0  0  0107  0  0
  -24.6400  -11.7009   20.8697 C   0  0  0  0  0  0  0  0  0108  0  0
  -23.9005  -10.4085   21.0420 C   0  0  0  0  0  0  0  0  0109  0  0
  -24.3588   -9.4123   21.9123 C   0  0  0  0  0  0  0  0  0110  0  0
  -23.6296   -8.2350   22.0803 C   0  0  0  0  0  0  0  0  0111  0  0
  -22.4385   -8.0419   21.3657 C   0  0  0  0  0  0  0  0  0112  0  0
  -22.0103   -9.0167   20.4678 C   0  0  0  0  0  0  0  0  0113  0  0
  -22.7317  -10.1925   20.3102 C   0  0  0  0  0  0  0  0  0114  0  0
  -21.6857   -6.0709   22.5391 C   0  0  0  0  0  0  0  0  0115  0  0
  -21.4064   -6.5490   23.8264 C   0  0  0  0  0  0  0  0  0116  0  0
  -21.3635   -5.6677   24.9085 C   0  0  0  0  0  0  0  0  0117  0  0
  -21.5973   -4.3067   24.7088 C   0  0  0  0  0  0  0  0  0118  0  0
  -21.8700   -3.8284   23.4282 C   0  0  0  0  0  0  0  0  0119  0  0
  -21.9144   -4.7056   22.3460 C   0  0  0  0  0  0  0  0  0120  0  0
  -22.8194  -13.5263   21.1763 C   0  0  0  0  0  0  0  0  0121  0  0
  -22.1559   -4.2206   21.1063 F   0  0  0  0  0  0  0  0  0122  0  0
  -21.5628   -3.4510   25.7555 F   0  0  0  0  0  0  0  0  0123  0  0
  -30.0261  -13.1803   20.4553 N   0  0  0  0  0  0  0  0  0124  0  0
  -26.2911  -12.9356   20.3443 N   0  0  0  0  0  0  0  0  0125  0  0
  -25.9236  -11.6675   20.5847 N   0  0  0  0  0  0  0  0  0126  0  0
  -22.0708  -12.7905   22.0005 N   0  0  0  0  0  0  0  0  0127  0  0
  -25.4117  -15.1773   20.4097 N   0  0  0  0  0  0  0  0  0128  0  0
  -31.7916  -14.6724   20.0536 O   0  0  0  0  0  0  0  0  0129  0  0
  -21.6670   -6.9022   21.4423 O   0  0  0  0  0  0  0  0  0130  0  0
  -22.3946  -14.5564   20.6568 O   0  0  0  0  0  0  0  0  0131  0  0
  -24.6048  -31.8614   23.2223 C   0  0  0  0  0  0  0  0  0100  0  0
  -25.8822  -32.4841   23.8616 C   0  0  1  0  0  0  0  0  0101  0  0
  -27.2536  -27.5042   20.1156 C   0  0  0  0  0  0  0  0  0102  0  0
  -25.5726  -33.8762   24.2210 N   0  0  0  0  0  0  0  0  0103  0  0
  -23.4066  -30.4859   21.5461 C   0  0  2  0  0  0  0  0  0104  0  0
  -24.8467  -28.9636   20.1247 C   0  0  0  0  0  0  0  0  0105  0  0
  -22.7412  -29.4652   22.5052 C   0  0  0  0  0  0  0  0  0106  0  0
  -18.0167  -28.1302   22.8626 C   0  0  0  0  0  0  0  0  0107  0  0
  -24.1342  -36.7390   23.2568 C   0  0  0  0  0  0  0  0  0108  0  0
  -25.9141  -30.8882   21.3456 C   0  0  0  0  0  0  0  0  0109  0  0
  -25.9930  -29.5029   20.7208 C   0  0  0  0  0  0  0  0  0110  0  0
  -27.1758  -28.7612   20.7331 C   0  0  0  0  0  0  0  0  0111  0  0
  -26.1032  -26.9836   19.5230 C   0  0  0  0  0  0  0  0  0112  0  0
  -24.9097  -27.7011   19.5331 C   0  0  0  0  0  0  0  0  0113  0  0
  -23.5715  -29.7899   20.1582 C   0  0  0  0  0  0  0  0  0114  0  0
  -25.3990  -36.3212   24.0232 C   0  0  1  0  0  0  0  0  0115  0  0
  -20.5793  -28.3813   23.1004 C   0  0  2  0  0  0  0  0  0116  0  0
  -20.6548  -26.9392   22.5411 C   0  0  0  0  0  0  0  0  0117  0  0
  -19.5615  -26.6407   21.5143 C   0  0  0  0  0  0  0  0  0118  0  0
  -18.1797  -26.7818   22.1673 C   0  0  0  0  0  0  0  0  0119  0  0
  -19.1385  -28.8769   23.2988 C   0  0  0  0  0  0  0  0  0120  0  0
  -18.9183  -30.1286   23.8878 C   0  0  0  0  0  0  0  0  0121  0  0
  -17.6396  -30.6493   24.0352 C   0  0  0  0  0  0  0  0  0122  0  0
  -25.9153  -34.9582   23.4993 C   0  0  0  0  0  0  0  0  0123  0  0
  -16.5415  -29.9068   23.6254 C   0  0  0  0  0  0  0  0  0124  0  0
  -16.7331  -28.6521   23.0586 C   0  0  0  0  0  0  0  0  0125  0  0
  -26.4583  -31.6439   25.0683 C   0  0  0  0  0  0  0  0  0126  0  0
  -25.3807  -31.3179   26.1374 C   0  0  0  0  0  0  0  0  0127  0  0
  -27.0530  -30.3024   24.5680 C   0  0  0  0  0  0  0  0  0128  0  0
  -27.6014  -32.4281   25.7651 C   0  0  0  0  0  0  0  0  0129  0  0
  -27.5629  -37.2220   24.8621 C   0  0  0  0  0  0  0  0  0130  0  0
  -21.4133  -29.3375   22.3735 N   0  0  0  0  0  0  0  0  0131  0  0
  -26.4706  -37.3372   23.9061 N   0  0  0  0  0  0  0  0  0132  0  0
  -24.6674  -31.0544   22.1178 N   0  0  0  0  0  0  0  0  0133  0  0
  -23.4259  -28.8150   23.2971 O   0  0  0  0  0  0  0  0  0134  0  0
  -28.3948  -26.7345   20.0089 O   0  0  0  0  0  0  0  0  0135  0  0
  -26.5870  -34.9065   22.4671 O   0  0  0  0  0  0  0  0  0136  0  0
  -23.5365  -32.1254   23.7833 O   0  0  0  0  0  0  0  0  0137  0  0
  -26.5375  -19.4133   21.0387 C   0  0  0  0  0  0  0  0  0  0  0  0
  -26.2489  -18.5925   22.1289 C   0  0  0  0  0  0  0  0  0  0  0  0
  -25.1872  -21.1693   22.0030 C   0  0  0  0  0  0  0  0  0  0  0  0
  -26.0068  -20.7017   20.9757 C   0  0  0  0  0  0  0  0  0  0  0  0
  -25.4293  -19.0601   23.1562 C   0  0  0  0  0  0  0  0  0  0  0  0
  -24.8985  -20.3485   23.0933 C   0  0  0  0  0  0  0  0  0  0  0  0
  -26.5450  -20.9292   18.5949 C   0  0  0  0  0  0  0  0  0  0  0  0
  -26.3507  -22.9565   20.0673 C   0  0  0  0  0  0  0  0  0  0  0  0
  -27.0198  -21.8162   17.4625 C   0  0  0  0  0  0  0  0  0  0  0  0
  -27.5064  -23.1757   17.9067 C   0  0  0  0  0  0  0  0  0  0  0  0
  -26.4462  -23.7942   18.8001 C   0  0  2  0  0  0  0  0  0  0  0  0
  -25.1310  -18.7801   25.6241 C   0  0  0  0  0  0  0  0  0  0  0  0
  -23.5978  -22.1526   23.9355 C   0  0  0  0  0  0  0  0  0  0  0  0
  -26.7824  -25.2513   19.1087 C   0  0  0  0  0  0  0  0  0  1  0  0
  -26.3063  -21.5541   19.8423 N   0  0  0  0  0  0  0  0  0  0  0  0
  -25.1389  -18.1980   24.2777 N   0  0  0  0  0  0  0  0  0  0  0  0
  -26.3165  -19.7421   18.3407 O   0  0  0  0  0  0  0  0  0  0  0  0
  -26.3340  -23.4978   21.1747 O   0  0  0  0  0  0  0  0  0  0  0  0
  -24.0940  -20.8244   24.0856 O   0  0  0  0  0  0  0  0  0  0  0  0
  -31.4485  -12.4701   19.0860 H   0  0  0  0  0  0  0  0  0  0  0  0
  -30.3970  -11.2460   19.6950 H   0  0  0  0  0  0  0  0  0  0  0  0
  -29.6870  -11.8204   17.4226 H   0  0  0  0  0  0  0  0  0  0  0  0
  -29.6375  -13.5326   17.8649 H   0  0  0  0  0  0  0  0  0  0  0  0
  -27.7830  -11.3650   18.7904 H   0  0  0  0  0  0  0  0  0  0  0  0
  -27.4028  -12.7801   17.8021 H   0  0  0  0  0  0  0  0  0  0  0  0
  -27.7353  -14.2503   19.6136 H   0  0  0  0  0  0  0  0  0  0  0  0
  -28.5890  -11.9550   21.3832 H   0  0  0  0  0  0  0  0  0  0  0  0
  -28.5005  -13.6134   21.8562 H   0  0  0  0  0  0  0  0  0  0  0  0
  -25.2399   -9.5495   22.4318 H   0  0  0  0  0  0  0  0  0  0  0  0
  -23.9663   -7.5070   22.7297 H   0  0  0  0  0  0  0  0  0  0  0  0
  -21.1515   -8.8641   19.9162 H   0  0  0  0  0  0  0  0  0  0  0  0
  -22.4016  -10.9115   19.6476 H   0  0  0  0  0  0  0  0  0  0  0  0
  -21.2319   -7.5552   23.9750 H   0  0  0  0  0  0  0  0  0  0  0  0
  -21.1589   -6.0228   25.8556 H   0  0  0  0  0  0  0  0  0  0  0  0
  -22.0396   -2.8212   23.2809 H   0  0  0  0  0  0  0  0  0  0  0  0
  -22.4401  -11.9703   22.4008 H   0  0  0  0  0  0  0  0  0  0  0  0
  -21.1493  -13.0679   22.2082 H   0  0  0  0  0  0  0  0  0  0  0  0
  -24.6538  -15.7807   20.5848 H   0  0  0  0  0  0  0  0  0  0  0  0
  -26.2762  -15.5453   20.1156 H   0  0  0  0  0  0  0  0  0  0  0  0
  -26.6778  -32.4663   23.1464 H   0  0  0  0  0  0  0  0  0  0  0  0
  -25.0747  -34.0282   25.0566 H   0  0  0  0  0  0  0  0  0  0  0  0
  -22.7881  -31.3489   21.4131 H   0  0  0  0  0  0  0  0  0  0  0  0
  -23.3854  -35.9823   23.3648 H   0  0  0  0  0  0  0  0  0  0  0  0
  -24.3696  -36.8624   22.2204 H   0  0  0  0  0  0  0  0  0  0  0  0
  -23.7669  -37.6632   23.6516 H   0  0  0  0  0  0  0  0  0  0  0  0
  -25.9445  -31.6237   20.5691 H   0  0  0  0  0  0  0  0  0  0  0  0
  -26.7436  -31.0079   22.0108 H   0  0  0  0  0  0  0  0  0  0  0  0
  -28.0090  -29.1452   21.2057 H   0  0  0  0  0  0  0  0  0  0  0  0
  -26.1369  -26.0560   19.0719 H   0  0  0  0  0  0  0  0  0  0  0  0
  -24.0652  -27.2961   19.0997 H   0  0  0  0  0  0  0  0  0  0  0  0
  -23.6156  -30.5365   19.3930 H   0  0  0  0  0  0  0  0  0  0  0  0
  -22.7355  -29.1425   19.9945 H   0  0  0  0  0  0  0  0  0  0  0  0
  -25.1353  -36.2335   25.0565 H   0  0  0  0  0  0  0  0  0  0  0  0
  -21.0070  -28.3206   24.0793 H   0  0  0  0  0  0  0  0  0  0  0  0
  -20.5555  -26.2518   23.3550 H   0  0  0  0  0  0  0  0  0  0  0  0
  -21.5974  -26.8362   22.0454 H   0  0  0  0  0  0  0  0  0  0  0  0
  -19.6810  -25.6422   21.1488 H   0  0  0  0  0  0  0  0  0  0  0  0
  -19.6406  -27.3343   20.7034 H   0  0  0  0  0  0  0  0  0  0  0  0
  -17.4282  -26.6888   21.4113 H   0  0  0  0  0  0  0  0  0  0  0  0
  -18.0803  -26.0130   22.9049 H   0  0  0  0  0  0  0  0  0  0  0  0
  -19.7265  -30.6774   24.2204 H   0  0  0  0  0  0  0  0  0  0  0  0
  -17.5064  -31.5856   24.4483 H   0  0  0  0  0  0  0  0  0  0  0  0
  -15.5878  -30.2839   23.7407 H   0  0  0  0  0  0  0  0  0  0  0  0
  -15.9120  -28.0941   22.7766 H   0  0  0  0  0  0  0  0  0  0  0  0
  -24.5787  -30.7757   25.6817 H   0  0  0  0  0  0  0  0  0  0  0  0
  -25.0041  -32.2289   26.5536 H   0  0  0  0  0  0  0  0  0  0  0  0
  -25.8166  -30.7245   26.9138 H   0  0  0  0  0  0  0  0  0  0  0  0
  -26.2892  -29.7335   24.0803 H   0  0  0  0  0  0  0  0  0  0  0  0
  -27.4336  -29.7484   25.4006 H   0  0  0  0  0  0  0  0  0  0  0  0
  -27.8466  -30.4994   23.8779 H   0  0  0  0  0  0  0  0  0  0  0  0
  -27.2251  -33.3632   26.1242 H   0  0  0  0  0  0  0  0  0  0  0  0
  -28.3902  -32.6065   25.0645 H   0  0  0  0  0  0  0  0  0  0  0  0
  -27.9772  -31.8555   26.5872 H   0  0  0  0  0  0  0  0  0  0  0  0
  -28.2744  -38.0016   24.6863 H   0  0  0  0  0  0  0  0  0  0  0  0
  -28.0396  -36.2711   24.7461 H   0  0  0  0  0  0  0  0  0  0  0  0
  -27.1773  -37.3087   25.8564 H   0  0  0  0  0  0  0  0  0  0  0  0
  -20.9627  -29.9365   21.7352 H   0  0  0  0  0  0  0  0  0  0  0  0
  -26.0447  -38.2561   24.0273 H   0  0  0  0  0  0  0  0  0  0  0  0
  -27.1438  -19.0673   20.2786 H   0  0  0  0  0  0  0  0  0  0  0  0
  -26.6417  -17.6393   22.1755 H   0  0  0  0  0  0  0  0  0  0  0  0
  -24.7944  -22.1225   21.9564 H   0  0  0  0  0  0  0  0  0  0  0  0
  -26.2063  -21.9564   16.7817 H   0  0  0  0  0  0  0  0  0  0  0  0
  -27.8549  -21.3214   17.0122 H   0  0  0  0  0  0  0  0  0  0  0  0
  -27.6677  -23.7990   17.0521 H   0  0  0  0  0  0  0  0  0  0  0  0
  -28.4284  -23.0802   18.4412 H   0  0  0  0  0  0  0  0  0  0  0  0
  -25.4974  -23.7981   18.3054 H   0  0  0  0  0  0  0  0  0  0  0  0
  -24.1838  -19.2431   25.8069 H   0  0  0  0  0  0  0  0  0  0  0  0
  -25.9069  -19.5130   25.7004 H   0  0  0  0  0  0  0  0  0  0  0  0
  -25.2965  -18.0089   26.3471 H   0  0  0  0  0  0  0  0  0  0  0  0
  -22.9844  -22.4013   24.7762 H   0  0  0  0  0  0  0  0  0  0  0  0
  -23.0174  -22.2173   23.0389 H   0  0  0  0  0  0  0  0  0  0  0  0
  -24.4192  -22.8359   23.8787 H   0  0  0  0  0  0  0  0  0  0  0  0
  -25.9381  -25.5100   19.7129 H   0  0  0  0  0  0  0  0  0  0  0  0
  -27.2128  -25.3644   18.1356 H   0  0  0  0  0  0  0  0  0  0  0  0
  1 25  1  0
  1 30  2  0
  1 86  1  0
  2  3  1  0
  2 25  1  0
  2 90  1  0
  2 91  1  0
  3  4  1  0
  3 92  1  0
  3 93  1  0
  4  5  1  0
  4 94  1  0
  4 95  1  0
  5  6  1  0
  5 26  1  0
  5 96  1  6
  6 25  1  0
  6 97  1  0
  6 98  1  0
  7  8  2  0
  7 26  1  0
  7 29  1  0
  8  9  1  0
  8 22  1  0
  9 10  1  0
  9 27  2  0
 10 11  2  0
 10 15  1  0
 11 12  1  0
 11 99  1  0
 12 13  2  0
 12100  1  0
 13 14  1  0
 13 31  1  0
 14 15  2  0
 14101  1  0
 15102  1  0
 16 17  2  0
 16 21  1  0
 16 31  1  0
 17 18  1  0
 17103  1  0
 18 19  2  0
 18104  1  0
 19 20  1  0
 19 24  1  0
 20 21  2  0
 20105  1  0
 21 23  1  0
 22 28  1  0
 22 32  2  0
 26 27  1  0
 28106  1  0
 28107  1  0
 29108  1  0
 29109  1  0
 33 34  1  0
 33 66  1  0
 33 70  2  0
 34 36  1  0
 34 59  1  0
 34110  1  6
 35 44  2  0
 35 45  1  0
 35 68  1  0
 36 56  1  0
 36111  1  0
 37 39  1  0
 37 47  1  0
 37 66  1  0
 37112  1  6
 38 43  2  0
 38 46  1  0
 38 47  1  0
 39 64  1  0
 39 67  2  0
 40 52  1  0
 40 53  2  0
 40 58  1  0
 41113  1  0
 41114  1  0
 41115  1  0
 42 43  1  0
 42 66  1  0
 42116  1  0
 42117  1  0
 43 44  1  0
 44118  1  0
 45 46  2  0
 45119  1  0
 46120  1  0
 47121  1  0
 47122  1  0
 48 41  1  0
 48 56  1  0
 48 65  1  0
 48123  1  1
 49 50  1  0
 49 53  1  0
 49 64  1  0
 49124  1  1
 50 51  1  0
 50125  1  0
 50126  1  0
 51 52  1  0
 51127  1  0
 51128  1  0
 52129  1  0
 52130  1  0
 53 54  1  0
 54 55  2  0
 54131  1  0
 55 57  1  0
 55132  1  0
 56 69  2  0
 57 58  2  0
 57133  1  0
 58134  1  0
 59 60  1  0
 59 61  1  0
 59 62  1  0
 60135  1  0
 60136  1  0
 60137  1  0
 61138  1  0
 61139  1  0
 61140  1  0
 62141  1  0
 62142  1  0
 62143  1  0
 63 65  1  0
 63144  1  0
 63145  1  0
 63146  1  0
 64147  1  0
 65148  1  0
 68 84  1  0
 71 72  2  0
 71 74  1  0
 71149  1  0
 72 75  1  0
 72150  1  0
 73 74  2  0
 73 76  1  0
 73151  1  0
 74 85  1  0
 75 76  2  0
 75 86  1  0
 76 89  1  0
 77 79  1  0
 77 85  1  0
 77 87  2  0
 78 81  1  0
 78 85  1  0
 78 88  2  0
 79 80  1  0
 79152  1  0
 79153  1  0
 80 81  1  0
 80154  1  0
 80155  1  0
 81 84  1  0
 81156  1  6
 82 86  1  0
 82157  1  0
 82158  1  0
 82159  1  0
 83 89  1  0
 83160  1  0
 83161  1  0
 83162  1  0
 84163  1  0
 84164  1  0
M  ISO  4   1 100  68 101  84 101  86 100
M  END
$$$$
65
     RDKit          3D

155163  0  0  0  0  0  0  0  0999 V2000
  -30.7652  -14.3608   20.6636 C   0  0  0  0  0  0  0  0  0100  0  0
  -30.4392  -12.2669   19.3775 C   0  0  0  0  0  0  0  0  0101  0  0
  -29.4791  -12.5281   18.1977 C   0  0  0  0  0  0  0  0  0102  0  0
  -27.9985  -12.3963   18.6038 C   0  0  0  0  0  0  0  0  0103  0  0
  -27.6639  -13.2170   19.8820 C   0  0  2  0  0  0  0  0  0104  0  0
  -28.6795  -12.9602   21.0279 C   0  0  0  0  0  0  0  0  0105  0  0
  -25.2633  -13.8245   20.5754 C   0  0  0  0  0  0  0  0  0106  0  0
  -24.1645  -13.0409   20.9408 C   0  0  0  0  0  0  0  0  0107  0  0
  -24.6400  -11.7009   20.8697 C   0  0  0  0  0  0  0  0  0108  0  0
  -23.9005  -10.4085   21.0420 C   0  0  0  0  0  0  0  0  0109  0  0
  -24.3588   -9.4123   21.9123 C   0  0  0  0  0  0  0  0  0110  0  0
  -23.6296   -8.2350   22.0803 C   0  0  0  0  0  0  0  0  0111  0  0
  -22.4385   -8.0419   21.3657 C   0  0  0  0  0  0  0  0  0112  0  0
  -22.0103   -9.0167   20.4678 C   0  0  0  0  0  0  0  0  0113  0  0
  -22.7317  -10.1925   20.3102 C   0  0  0  0  0  0  0  0  0114  0  0
  -21.6857   -6.0709   22.5391 C   0  0  0  0  0  0  0  0  0115  0  0
  -21.4064   -6.5490   23.8264 C   0  0  0  0  0  0  0  0  0116  0  0
  -21.3635   -5.6677   24.9085 C   0  0  0  0  0  0  0  0  0117  0  0
  -21.5973   -4.3067   24.7088 C   0  0  0  0  0  0  0  0  0118  0  0
  -21.8700   -3.8284   23.4282 C   0  0  0  0  0  0  0  0  0119  0  0
  -21.9144   -4.7056   22.3460 C   0  0  0  0  0  0  0  0  0120  0  0
  -22.8194  -13.5263   21.1763 C   0  0  0  0  0  0  0  0  0121  0  0
  -22.1559   -4.2206   21.1063 F   0  0  0  0  0  0  0  0  0122  0  0
  -21.5628   -3.4510   25.7555 F   0  0  0  0  0  0  0  0  0123  0  0
  -30.0261  -13.1803   20.4553 N   0  0  0  0  0  0  0  0  0124  0  0
  -26.2911  -12.9356   20.3443 N   0  0  0  0  0  0  0  0  0125  0  0
  -25.9236  -11.6675   20.5847 N   0  0  0  0  0  0  0  0  0126  0  0
  -22.0708  -12.7905   22.0005 N   0  0  0  0  0  0  0  0  0127  0  0
  -25.4117  -15.1773   20.4097 N   0  0  0  0  0  0  0  0  0128  0  0
  -31.7916  -14.6724   20.0536 O   0  0  0  0  0  0  0  0  0129  0  0
  -21.6670   -6.9022   21.4423 O   0  0  0  0  0  0  0  0  0130  0  0
  -22.3946  -14.5564   20.6568 O   0  0  0  0  0  0  0  0  0131  0  0
  -24.6048  -31.8614   23.2223 C   0  0  0  0  0  0  0  0  0100  0  0
  -25.8822  -32.4841   23.8616 C   0  0  1  0  0  0  0  0  0101  0  0
  -27.2536  -27.5042   20.1156 C   0  0  0  0  0  0  0  0  0102  0  0
  -25.5726  -33.8762   24.2210 N   0  0  0  0  0  0  0  0  0103  0  0
  -23.4066  -30.4859   21.5461 C   0  0  2  0  0  0  0  0  0104  0  0
  -24.8467  -28.9636   20.1247 C   0  0  0  0  0  0  0  0  0105  0  0
  -22.7412  -29.4652   22.5052 C   0  0  0  0  0  0  0  0  0106  0  0
  -18.0167  -28.1302   22.8626 C   0  0  0  0  0  0  0  0  0107  0  0
  -24.1342  -36.7390   23.2568 C   0  0  0  0  0  0  0  0  0108  0  0
  -25.9141  -30.8882   21.3456 C   0  0  0  0  0  0  0  0  0109  0  0
  -25.9930  -29.5029   20.7208 C   0  0  0  0  0  0  0  0  0110  0  0
  -27.1758  -28.7612   20.7331 C   0  0  0  0  0  0  0  0  0111  0  0
  -26.1032  -26.9836   19.5230 C   0  0  0  0  0  0  0  0  0112  0  0
  -24.9097  -27.7011   19.5331 C   0  0  0  0  0  0  0  0  0113  0  0
  -23.5715  -29.7899   20.1582 C   0  0  0  0  0  0  0  0  0114  0  0
  -25.3990  -36.3212   24.0232 C   0  0  1  0  0  0  0  0  0115  0  0
  -20.5793  -28.3813   23.1004 C   0  0  2  0  0  0  0  0  0116  0  0
  -20.6548  -26.9392   22.5411 C   0  0  0  0  0  0  0  0  0117  0  0
  -19.5615  -26.6407   21.5143 C   0  0  0  0  0  0  0  0  0118  0  0
  -18.1797  -26.7818   22.1673 C   0  0  0  0  0  0  0  0  0119  0  0
  -19.1385  -28.8769   23.2988 C   0  0  0  0  0  0  0  0  0120  0  0
  -18.9183  -30.1286   23.8878 C   0  0  0  0  0  0  0  0  0121  0  0
  -17.6396  -30.6493   24.0352 C   0  0  0  0  0  0  0  0  0122  0  0
  -25.9153  -34.9582   23.4993 C   0  0  0  0  0  0  0  0  0123  0  0
  -16.5415  -29.9068   23.6254 C   0  0  0  0  0  0  0  0  0124  0  0
  -16.7331  -28.6521   23.0586 C   0  0  0  0  0  0  0  0  0125  0  0
  -26.4583  -31.6439   25.0683 C   0  0  0  0  0  0  0  0  0126  0  0
  -25.3807  -31.3179   26.1374 C   0  0  0  0  0  0  0  0  0127  0  0
  -27.0530  -30.3024   24.5680 C   0  0  0  0  0  0  0  0  0128  0  0
  -27.6014  -32.4281   25.7651 C   0  0  0  0  0  0  0  0  0129  0  0
  -27.5629  -37.2220   24.8621 C   0  0  0  0  0  0  0  0  0130  0  0
  -21.4133  -29.3375   22.3735 N   0  0  0  0  0  0  0  0  0131  0  0
  -26.4706  -37.3372   23.9061 N   0  0  0  0  0  0  0  0  0132  0  0
  -24.6674  -31.0544   22.1178 N   0  0  0  0  0  0  0  0  0133  0  0
  -23.4259  -28.8150   23.2971 O   0  0  0  0  0  0  0  0  0134  0  0
  -28.3948  -26.7345   20.0089 O   0  0  0  0  0  0  0  0  0135  0  0
  -26.5870  -34.9065   22.4671 O   0  0  0  0  0  0  0  0  0136  0  0
  -23.5365  -32.1254   23.7833 O   0  0  0  0  0  0  0  0  0137  0  0
  -31.2184  -19.1373   20.5663 C   0  0  0  0  0  0  0  0  0  0  0  0
  -31.0583  -17.7523   20.6073 C   0  0  0  0  0  0  0  0  0  0  0  0
  -29.5241  -19.3838   22.2709 C   0  0  0  0  0  0  0  0  0  0  0  0
  -30.4513  -19.9531   21.3981 C   0  0  0  0  0  0  0  0  0  0  0  0
  -30.1311  -17.1830   21.4801 C   0  0  0  0  0  0  0  0  0  0  0  0
  -29.3640  -17.9987   22.3119 C   0  0  0  0  0  0  0  0  0  0  0  0
  -30.6203  -21.4201   21.3554 C   0  0  0  0  0  0  0  0  0  0  0  0
  -32.1882  -23.3247   21.6571 C   0  0  0  0  0  0  0  0  0  0  0  0
  -33.6359  -23.5529   22.0282 C   0  0  0  0  0  0  0  0  0  0  0  0
  -34.0122  -25.0259   22.0400 C   0  0  0  0  0  0  0  0  0  1  0  0
  -29.9712  -15.7757   21.5194 N   0  0  0  0  0  0  0  0  0  0  0  0
  -31.8273  -21.9255   21.6449 N   0  0  0  0  0  0  0  0  0  0  0  0
  -29.5584  -22.1576   21.0324 N   0  0  0  0  0  0  0  0  0  0  0  0
  -31.3756  -24.1978   21.3898 O   0  0  0  0  0  0  0  0  0  0  0  0
  -28.4689  -17.4625   23.1537 F   0  0  0  0  0  0  0  0  0  0  0  0
  -31.4485  -12.4701   19.0860 H   0  0  0  0  0  0  0  0  0  0  0  0
  -30.3970  -11.2460   19.6950 H   0  0  0  0  0  0  0  0  0  0  0  0
  -29.6870  -11.8204   17.4226 H   0  0  0  0  0  0  0  0  0  0  0  0
  -29.6375  -13.5326   17.8649 H   0  0  0  0  0  0  0  0  0  0  0  0
  -27.7830  -11.3650   18.7904 H   0  0  0  0  0  0  0  0  0  0  0  0
  -27.4028  -12.7801   17.8021 H   0  0  0  0  0  0  0  0  0  0  0  0
  -27.7353  -14.2503   19.6136 H   0  0  0  0  0  0  0  0  0  0  0  0
  -28.5890  -11.9550   21.3832 H   0  0  0  0  0  0  0  0  0  0  0  0
  -28.5005  -13.6134   21.8562 H   0  0  0  0  0  0  0  0  0  0  0  0
  -25.2399   -9.5495   22.4318 H   0  0  0  0  0  0  0  0  0  0  0  0
  -23.9663   -7.5070   22.7297 H   0  0  0  0  0  0  0  0  0  0  0  0
  -21.1515   -8.8641   19.9162 H   0  0  0  0  0  0  0  0  0  0  0  0
  -22.4016  -10.9115   19.6476 H   0  0  0  0  0  0  0  0  0  0  0  0
  -21.2319   -7.5552   23.9750 H   0  0  0  0  0  0  0  0  0  0  0  0
  -21.1589   -6.0228   25.8556 H   0  0  0  0  0  0  0  0  0  0  0  0
  -22.0396   -2.8212   23.2809 H   0  0  0  0  0  0  0  0  0  0  0  0
  -22.4401  -11.9703   22.4008 H   0  0  0  0  0  0  0  0  0  0  0  0
  -21.1493  -13.0679   22.2082 H   0  0  0  0  0  0  0  0  0  0  0  0
  -24.6538  -15.7807   20.5848 H   0  0  0  0  0  0  0  0  0  0  0  0
  -26.2762  -15.5453   20.1156 H   0  0  0  0  0  0  0  0  0  0  0  0
  -26.6778  -32.4663   23.1464 H   0  0  0  0  0  0  0  0  0  0  0  0
  -25.0747  -34.0282   25.0566 H   0  0  0  0  0  0  0  0  0  0  0  0
  -22.7881  -31.3489   21.4131 H   0  0  0  0  0  0  0  0  0  0  0  0
  -23.3854  -35.9823   23.3648 H   0  0  0  0  0  0  0  0  0  0  0  0
  -24.3696  -36.8624   22.2204 H   0  0  0  0  0  0  0  0  0  0  0  0
  -23.7669  -37.6632   23.6516 H   0  0  0  0  0  0  0  0  0  0  0  0
  -25.9445  -31.6237   20.5691 H   0  0  0  0  0  0  0  0  0  0  0  0
  -26.7436  -31.0079   22.0108 H   0  0  0  0  0  0  0  0  0  0  0  0
  -28.0090  -29.1452   21.2057 H   0  0  0  0  0  0  0  0  0  0  0  0
  -26.1369  -26.0560   19.0719 H   0  0  0  0  0  0  0  0  0  0  0  0
  -24.0652  -27.2961   19.0997 H   0  0  0  0  0  0  0  0  0  0  0  0
  -23.6156  -30.5365   19.3930 H   0  0  0  0  0  0  0  0  0  0  0  0
  -22.7355  -29.1425   19.9945 H   0  0  0  0  0  0  0  0  0  0  0  0
  -25.1353  -36.2335   25.0565 H   0  0  0  0  0  0  0  0  0  0  0  0
  -21.0070  -28.3206   24.0793 H   0  0  0  0  0  0  0  0  0  0  0  0
  -20.5555  -26.2518   23.3550 H   0  0  0  0  0  0  0  0  0  0  0  0
  -21.5974  -26.8362   22.0454 H   0  0  0  0  0  0  0  0  0  0  0  0
  -19.6810  -25.6422   21.1488 H   0  0  0  0  0  0  0  0  0  0  0  0
  -19.6406  -27.3343   20.7034 H   0  0  0  0  0  0  0  0  0  0  0  0
  -17.4282  -26.6888   21.4113 H   0  0  0  0  0  0  0  0  0  0  0  0
  -18.0803  -26.0130   22.9049 H   0  0  0  0  0  0  0  0  0  0  0  0
  -19.7265  -30.6774   24.2204 H   0  0  0  0  0  0  0  0  0  0  0  0
  -17.5064  -31.5856   24.4483 H   0  0  0  0  0  0  0  0  0  0  0  0
  -15.5878  -30.2839   23.7407 H   0  0  0  0  0  0  0  0  0  0  0  0
  -15.9120  -28.0941   22.7766 H   0  0  0  0  0  0  0  0  0  0  0  0
  -24.5787  -30.7757   25.6817 H   0  0  0  0  0  0  0  0  0  0  0  0
  -25.0041  -32.2289   26.5536 H   0  0  0  0  0  0  0  0  0  0  0  0
  -25.8166  -30.7245   26.9138 H   0  0  0  0  0  0  0  0  0  0  0  0
  -26.2892  -29.7335   24.0803 H   0  0  0  0  0  0  0  0  0  0  0  0
  -27.4336  -29.7484   25.4006 H   0  0  0  0  0  0  0  0  0  0  0  0
  -27.8466  -30.4994   23.8779 H   0  0  0  0  0  0  0  0  0  0  0  0
  -27.2251  -33.3632   26.1242 H   0  0  0  0  0  0  0  0  0  0  0  0
  -28.3902  -32.6065   25.0645 H   0  0  0  0  0  0  0  0  0  0  0  0
  -27.9772  -31.8555   26.5872 H   0  0  0  0  0  0  0  0  0  0  0  0
  -28.2744  -38.0016   24.6863 H   0  0  0  0  0  0  0  0  0  0  0  0
  -28.0396  -36.2711   24.7461 H   0  0  0  0  0  0  0  0  0  0  0  0
  -27.1773  -37.3087   25.8564 H   0  0  0  0  0  0  0  0  0  0  0  0
  -20.9627  -29.9365   21.7352 H   0  0  0  0  0  0  0  0  0  0  0  0
  -26.0447  -38.2561   24.0273 H   0  0  0  0  0  0  0  0  0  0  0  0
  -31.9044  -19.5585   19.9205 H   0  0  0  0  0  0  0  0  0  0  0  0
  -31.6258  -17.1488   19.9919 H   0  0  0  0  0  0  0  0  0  0  0  0
  -28.9566  -19.9873   22.8863 H   0  0  0  0  0  0  0  0  0  0  0  0
  -34.2555  -23.0468   21.3177 H   0  0  0  0  0  0  0  0  0  0  0  0
  -33.7798  -23.1741   23.0185 H   0  0  0  0  0  0  0  0  0  0  0  0
  -34.8045  -25.2706   21.3638 H   0  0  0  0  0  0  0  0  0  0  0  0
  -34.3952  -25.4591   22.9403 H   0  0  0  0  0  0  0  0  0  0  0  0
  -29.2726  -15.4916   22.1522 H   0  0  0  0  0  0  0  0  0  0  0  0
  -32.5366  -21.2813   21.8711 H   0  0  0  0  0  0  0  0  0  0  0  0
  -28.6991  -21.7215   20.8307 H   0  0  0  0  0  0  0  0  0  0  0  0
  -29.6332  -23.1386   20.9955 H   0  0  0  0  0  0  0  0  0  0  0  0
  1 25  1  0
  1 30  2  0
  1 81  1  0
  2  3  1  0
  2 25  1  0
  2 86  1  0
  2 87  1  0
  3  4  1  0
  3 88  1  0
  3 89  1  0
  4  5  1  0
  4 90  1  0
  4 91  1  0
  5  6  1  0
  5 26  1  0
  5 92  1  6
  6 25  1  0
  6 93  1  0
  6 94  1  0
  7  8  2  0
  7 26  1  0
  7 29  1  0
  8  9  1  0
  8 22  1  0
  9 10  1  0
  9 27  2  0
 10 11  2  0
 10 15  1  0
 11 12  1  0
 11 95  1  0
 12 13  2  0
 12 96  1  0
 13 14  1  0
 13 31  1  0
 14 15  2  0
 14 97  1  0
 15 98  1  0
 16 17  2  0
 16 21  1  0
 16 31  1  0
 17 18  1  0
 17 99  1  0
 18 19  2  0
 18100  1  0
 19 20  1  0
 19 24  1  0
 20 21  2  0
 20101  1  0
 21 23  1  0
 22 28  1  0
 22 32  2  0
 26 27  1  0
 28102  1  0
 28103  1  0
 29104  1  0
 29105  1  0
 33 34  1  0
 33 66  1  0
 33 70  2  0
 34 36  1  0
 34 59  1  0
 34106  1  6
 35 44  2  0
 35 45  1  0
 35 68  1  0
 36 56  1  0
 36107  1  0
 37 39  1  0
 37 47  1  0
 37 66  1  0
 37108  1  6
 38 43  2  0
 38 46  1  0
 38 47  1  0
 39 64  1  0
 39 67  2  0
 40 52  1  0
 40 53  2  0
 40 58  1  0
 41109  1  0
 41110  1  0
 41111  1  0
 42 43  1  0
 42 66  1  0
 42112  1  0
 42113  1  0
 43 44  1  0
 44114  1  0
 45 46  2  0
 45115  1  0
 46116  1  0
 47117  1  0
 47118  1  0
 48 41  1  0
 48 56  1  0
 48 65  1  0
 48119  1  1
 49 50  1  0
 49 53  1  0
 49 64  1  0
 49120  1  1
 50 51  1  0
 50121  1  0
 50122  1  0
 51 52  1  0
 51123  1  0
 51124  1  0
 52125  1  0
 52126  1  0
 53 54  1  0
 54 55  2  0
 54127  1  0
 55 57  1  0
 55128  1  0
 56 69  2  0
 57 58  2  0
 57129  1  0
 58130  1  0
 59 60  1  0
 59 61  1  0
 59 62  1  0
 60131  1  0
 60132  1  0
 60133  1  0
 61134  1  0
 61135  1  0
 61136  1  0
 62137  1  0
 62138  1  0
 62139  1  0
 63 65  1  0
 63140  1  0
 63141  1  0
 63142  1  0
 64143  1  0
 65144  1  0
 68 80  1  0
 71 72  2  0
 71 74  1  0
 71145  1  0
 72 75  1  0
 72146  1  0
 73 74  2  0
 73 76  1  0
 73147  1  0
 74 77  1  0
 75 76  2  0
 75 81  1  0
 76 85  1  0
 77 82  1  0
 77 83  2  0
 78 79  1  0
 78 82  1  0
 78 84  2  0
 79 80  1  0
 79148  1  0
 79149  1  0
 80150  1  0
 80151  1  0
 81152  1  0
 82153  1  0
 83154  1  0
 83155  1  0
M  CHG  1  83   1
M  ISO  4   1 100  68 101  80 101  81 100
M  END
$$$$
66
     RDKit          3D

156165  0  0  0  0  0  0  0  0999 V2000
  -30.7652  -14.3608   20.6636 C   0  0  0  0  0  0  0  0  0100  0  0
  -30.4392  -12.2669   19.3775 C   0  0  0  0  0  0  0  0  0101  0  0
  -29.4791  -12.5281   18.1977 C   0  0  0  0  0  0  0  0  0102  0  0
  -27.9985  -12.3963   18.6038 C   0  0  0  0  0  0  0  0  0103  0  0
  -27.6639  -13.2170   19.8820 C   0  0  2  0  0  0  0  0  0104  0  0
  -28.6795  -12.9602   21.0279 C   0  0  0  0  0  0  0  0  0105  0  0
  -25.2633  -13.8245   20.5754 C   0  0  0  0  0  0  0  0  0106  0  0
  -24.1645  -13.0409   20.9408 C   0  0  0  0  0  0  0  0  0107  0  0
  -24.6400  -11.7009   20.8697 C   0  0  0  0  0  0  0  0  0108  0  0
  -23.9005  -10.4085   21.0420 C   0  0  0  0  0  0  0  0  0109  0  0
  -24.3588   -9.4123   21.9123 C   0  0  0  0  0  0  0  0  0110  0  0
  -23.6296   -8.2350   22.0803 C   0  0  0  0  0  0  0  0  0111  0  0
  -22.4385   -8.0419   21.3657 C   0  0  0  0  0  0  0  0  0112  0  0
  -22.0103   -9.0167   20.4678 C   0  0  0  0  0  0  0  0  0113  0  0
  -22.7317  -10.1925   20.3102 C   0  0  0  0  0  0  0  0  0114  0  0
  -21.6857   -6.0709   22.5391 C   0  0  0  0  0  0  0  0  0115  0  0
  -21.4064   -6.5490   23.8264 C   0  0  0  0  0  0  0  0  0116  0  0
  -21.3635   -5.6677   24.9085 C   0  0  0  0  0  0  0  0  0117  0  0
  -21.5973   -4.3067   24.7088 C   0  0  0  0  0  0  0  0  0118  0  0
  -21.8700   -3.8284   23.4282 C   0  0  0  0  0  0  0  0  0119  0  0
  -21.9144   -4.7056   22.3460 C   0  0  0  0  0  0  0  0  0120  0  0
  -22.8194  -13.5263   21.1763 C   0  0  0  0  0  0  0  0  0121  0  0
  -22.1559   -4.2206   21.1063 F   0  0  0  0  0  0  0  0  0122  0  0
  -21.5628   -3.4510   25.7555 F   0  0  0  0  0  0  0  0  0123  0  0
  -30.0261  -13.1803   20.4553 N   0  0  0  0  0  0  0  0  0124  0  0
  -26.2911  -12.9356   20.3443 N   0  0  0  0  0  0  0  0  0125  0  0
  -25.9236  -11.6675   20.5847 N   0  0  0  0  0  0  0  0  0126  0  0
  -22.0708  -12.7905   22.0005 N   0  0  0  0  0  0  0  0  0127  0  0
  -25.4117  -15.1773   20.4097 N   0  0  0  0  0  0  0  0  0128  0  0
  -31.7916  -14.6724   20.0536 O   0  0  0  0  0  0  0  0  0129  0  0
  -21.6670   -6.9022   21.4423 O   0  0  0  0  0  0  0  0  0130  0  0
  -22.3946  -14.5564   20.6568 O   0  0  0  0  0  0  0  0  0131  0  0
  -24.6048  -31.8614   23.2223 C   0  0  0  0  0  0  0  0  0100  0  0
  -25.8822  -32.4841   23.8616 C   0  0  1  0  0  0  0  0  0101  0  0
  -27.2536  -27.5042   20.1156 C   0  0  0  0  0  0  0  0  0102  0  0
  -25.5726  -33.8762   24.2210 N   0  0  0  0  0  0  0  0  0103  0  0
  -23.4066  -30.4859   21.5461 C   0  0  2  0  0  0  0  0  0104  0  0
  -24.8467  -28.9636   20.1247 C   0  0  0  0  0  0  0  0  0105  0  0
  -22.7412  -29.4652   22.5052 C   0  0  0  0  0  0  0  0  0106  0  0
  -18.0167  -28.1302   22.8626 C   0  0  0  0  0  0  0  0  0107  0  0
  -24.1342  -36.7390   23.2568 C   0  0  0  0  0  0  0  0  0108  0  0
  -25.9141  -30.8882   21.3456 C   0  0  0  0  0  0  0  0  0109  0  0
  -25.9930  -29.5029   20.7208 C   0  0  0  0  0  0  0  0  0110  0  0
  -27.1758  -28.7612   20.7331 C   0  0  0  0  0  0  0  0  0111  0  0
  -26.1032  -26.9836   19.5230 C   0  0  0  0  0  0  0  0  0112  0  0
  -24.9097  -27.7011   19.5331 C   0  0  0  0  0  0  0  0  0113  0  0
  -23.5715  -29.7899   20.1582 C   0  0  0  0  0  0  0  0  0114  0  0
  -25.3990  -36.3212   24.0232 C   0  0  1  0  0  0  0  0  0115  0  0
  -20.5793  -28.3813   23.1004 C   0  0  2  0  0  0  0  0  0116  0  0
  -20.6548  -26.9392   22.5411 C   0  0  0  0  0  0  0  0  0117  0  0
  -19.5615  -26.6407   21.5143 C   0  0  0  0  0  0  0  0  0118  0  0
  -18.1797  -26.7818   22.1673 C   0  0  0  0  0  0  0  0  0119  0  0
  -19.1385  -28.8769   23.2988 C   0  0  0  0  0  0  0  0  0120  0  0
  -18.9183  -30.1286   23.8878 C   0  0  0  0  0  0  0  0  0121  0  0
  -17.6396  -30.6493   24.0352 C   0  0  0  0  0  0  0  0  0122  0  0
  -25.9153  -34.9582   23.4993 C   0  0  0  0  0  0  0  0  0123  0  0
  -16.5415  -29.9068   23.6254 C   0  0  0  0  0  0  0  0  0124  0  0
  -16.7331  -28.6521   23.0586 C   0  0  0  0  0  0  0  0  0125  0  0
  -26.4583  -31.6439   25.0683 C   0  0  0  0  0  0  0  0  0126  0  0
  -25.3807  -31.3179   26.1374 C   0  0  0  0  0  0  0  0  0127  0  0
  -27.0530  -30.3024   24.5680 C   0  0  0  0  0  0  0  0  0128  0  0
  -27.6014  -32.4281   25.7651 C   0  0  0  0  0  0  0  0  0129  0  0
  -27.5629  -37.2220   24.8621 C   0  0  0  0  0  0  0  0  0130  0  0
  -21.4133  -29.3375   22.3735 N   0  0  0  0  0  0  0  0  0131  0  0
  -26.4706  -37.3372   23.9061 N   0  0  0  0  0  0  0  0  0132  0  0
  -24.6674  -31.0544   22.1178 N   0  0  0  0  0  0  0  0  0133  0  0
  -23.4259  -28.8150   23.2971 O   0  0  0  0  0  0  0  0  0134  0  0
  -28.3948  -26.7345   20.0089 O   0  0  0  0  0  0  0  0  0135  0  0
  -26.5870  -34.9065   22.4671 O   0  0  0  0  0  0  0  0  0136  0  0
  -23.5365  -32.1254   23.7833 O   0  0  0  0  0  0  0  0  0137  0  0
  -32.2983  -19.2361   20.9664 C   0  0  0  0  0  0  0  0  0  0  0  0
  -32.3858  -16.8669   20.5014 C   0  0  0  0  0  0  0  0  0  0  0  0
  -30.9105  -19.2119   20.8287 C   0  0  0  0  0  0  0  0  0  0  0  0
  -30.9980  -16.8427   20.3637 C   0  0  0  0  0  0  0  0  0  0  0  0
  -33.0360  -18.0636   20.8028 C   0  0  0  0  0  0  0  0  0  0  0  0
  -30.2603  -18.0152   20.5274 C   0  0  0  0  0  0  0  0  0  0  0  0
  -29.5767  -22.5431   21.6736 C   0  0  0  0  0  0  0  0  0  0  0  0
  -30.7754  -21.6696   21.3099 C   0  0  0  0  0  0  0  0  0  0  0  0
  -28.7293  -20.4514   20.8776 C   0  0  0  0  0  0  0  0  0  0  0  0
  -28.4494  -21.9577   20.8281 C   0  0  1  0  0  0  0  0  0  0  0  0
  -27.0664  -22.3279   21.3347 C   0  0  0  0  0  0  0  0  0  1  0  0
  -30.1840  -20.3722   20.9924 N   0  0  0  0  0  0  0  0  0  0  0  0
  -30.3406  -15.6254   20.0574 N   0  0  0  0  0  0  0  0  0  0  0  0
  -34.3688  -18.0869   20.9340 F   0  0  0  0  0  0  0  0  0  0  0  0
  -28.9251  -17.9918   20.3956 F   0  0  0  0  0  0  0  0  0  0  0  0
  -31.4485  -12.4701   19.0860 H   0  0  0  0  0  0  0  0  0  0  0  0
  -30.3970  -11.2460   19.6950 H   0  0  0  0  0  0  0  0  0  0  0  0
  -29.6870  -11.8204   17.4226 H   0  0  0  0  0  0  0  0  0  0  0  0
  -29.6375  -13.5326   17.8649 H   0  0  0  0  0  0  0  0  0  0  0  0
  -27.7830  -11.3650   18.7904 H   0  0  0  0  0  0  0  0  0  0  0  0
  -27.4028  -12.7801   17.8021 H   0  0  0  0  0  0  0  0  0  0  0  0
  -27.7353  -14.2503   19.6136 H   0  0  0  0  0  0  0  0  0  0  0  0
  -28.5890  -11.9550   21.3832 H   0  0  0  0  0  0  0  0  0  0  0  0
  -28.5005  -13.6134   21.8562 H   0  0  0  0  0  0  0  0  0  0  0  0
  -25.2399   -9.5495   22.4318 H   0  0  0  0  0  0  0  0  0  0  0  0
  -23.9663   -7.5070   22.7297 H   0  0  0  0  0  0  0  0  0  0  0  0
  -21.1515   -8.8641   19.9162 H   0  0  0  0  0  0  0  0  0  0  0  0
  -22.4016  -10.9115   19.6476 H   0  0  0  0  0  0  0  0  0  0  0  0
  -21.2319   -7.5552   23.9750 H   0  0  0  0  0  0  0  0  0  0  0  0
  -21.1589   -6.0228   25.8556 H   0  0  0  0  0  0  0  0  0  0  0  0
  -22.0396   -2.8212   23.2809 H   0  0  0  0  0  0  0  0  0  0  0  0
  -22.4401  -11.9703   22.4008 H   0  0  0  0  0  0  0  0  0  0  0  0
  -21.1493  -13.0679   22.2082 H   0  0  0  0  0  0  0  0  0  0  0  0
  -24.6538  -15.7807   20.5848 H   0  0  0  0  0  0  0  0  0  0  0  0
  -26.2762  -15.5453   20.1156 H   0  0  0  0  0  0  0  0  0  0  0  0
  -26.6778  -32.4663   23.1464 H   0  0  0  0  0  0  0  0  0  0  0  0
  -25.0747  -34.0282   25.0566 H   0  0  0  0  0  0  0  0  0  0  0  0
  -22.7881  -31.3489   21.4131 H   0  0  0  0  0  0  0  0  0  0  0  0
  -23.3854  -35.9823   23.3648 H   0  0  0  0  0  0  0  0  0  0  0  0
  -24.3696  -36.8624   22.2204 H   0  0  0  0  0  0  0  0  0  0  0  0
  -23.7669  -37.6632   23.6516 H   0  0  0  0  0  0  0  0  0  0  0  0
  -25.9445  -31.6237   20.5691 H   0  0  0  0  0  0  0  0  0  0  0  0
  -26.7436  -31.0079   22.0108 H   0  0  0  0  0  0  0  0  0  0  0  0
  -28.0090  -29.1452   21.2057 H   0  0  0  0  0  0  0  0  0  0  0  0
  -26.1369  -26.0560   19.0719 H   0  0  0  0  0  0  0  0  0  0  0  0
  -24.0652  -27.2961   19.0997 H   0  0  0  0  0  0  0  0  0  0  0  0
  -23.6156  -30.5365   19.3930 H   0  0  0  0  0  0  0  0  0  0  0  0
  -22.7355  -29.1425   19.9945 H   0  0  0  0  0  0  0  0  0  0  0  0
  -25.1353  -36.2335   25.0565 H   0  0  0  0  0  0  0  0  0  0  0  0
  -21.0070  -28.3206   24.0793 H   0  0  0  0  0  0  0  0  0  0  0  0
  -20.5555  -26.2518   23.3550 H   0  0  0  0  0  0  0  0  0  0  0  0
  -21.5974  -26.8362   22.0454 H   0  0  0  0  0  0  0  0  0  0  0  0
  -19.6810  -25.6422   21.1488 H   0  0  0  0  0  0  0  0  0  0  0  0
  -19.6406  -27.3343   20.7034 H   0  0  0  0  0  0  0  0  0  0  0  0
  -17.4282  -26.6888   21.4113 H   0  0  0  0  0  0  0  0  0  0  0  0
  -18.0803  -26.0130   22.9049 H   0  0  0  0  0  0  0  0  0  0  0  0
  -19.7265  -30.6774   24.2204 H   0  0  0  0  0  0  0  0  0  0  0  0
  -17.5064  -31.5856   24.4483 H   0  0  0  0  0  0  0  0  0  0  0  0
  -15.5878  -30.2839   23.7407 H   0  0  0  0  0  0  0  0  0  0  0  0
  -15.9120  -28.0941   22.7766 H   0  0  0  0  0  0  0  0  0  0  0  0
  -24.5787  -30.7757   25.6817 H   0  0  0  0  0  0  0  0  0  0  0  0
  -25.0041  -32.2289   26.5536 H   0  0  0  0  0  0  0  0  0  0  0  0
  -25.8166  -30.7245   26.9138 H   0  0  0  0  0  0  0  0  0  0  0  0
  -26.2892  -29.7335   24.0803 H   0  0  0  0  0  0  0  0  0  0  0  0
  -27.4336  -29.7484   25.4006 H   0  0  0  0  0  0  0  0  0  0  0  0
  -27.8466  -30.4994   23.8779 H   0  0  0  0  0  0  0  0  0  0  0  0
  -27.2251  -33.3632   26.1242 H   0  0  0  0  0  0  0  0  0  0  0  0
  -28.3902  -32.6065   25.0645 H   0  0  0  0  0  0  0  0  0  0  0  0
  -27.9772  -31.8555   26.5872 H   0  0  0  0  0  0  0  0  0  0  0  0
  -28.2744  -38.0016   24.6863 H   0  0  0  0  0  0  0  0  0  0  0  0
  -28.0396  -36.2711   24.7461 H   0  0  0  0  0  0  0  0  0  0  0  0
  -27.1773  -37.3087   25.8564 H   0  0  0  0  0  0  0  0  0  0  0  0
  -20.9627  -29.9365   21.7352 H   0  0  0  0  0  0  0  0  0  0  0  0
  -26.0447  -38.2561   24.0273 H   0  0  0  0  0  0  0  0  0  0  0  0
  -32.7793  -20.1215   21.1893 H   0  0  0  0  0  0  0  0  0  0  0  0
  -32.9316  -15.9994   20.3803 H   0  0  0  0  0  0  0  0  0  0  0  0
  -29.7562  -23.5665   21.4182 H   0  0  0  0  0  0  0  0  0  0  0  0
  -29.3594  -22.5422   22.7213 H   0  0  0  0  0  0  0  0  0  0  0  0
  -31.4509  -21.5878   22.1357 H   0  0  0  0  0  0  0  0  0  0  0  0
  -31.3467  -22.0712   20.4992 H   0  0  0  0  0  0  0  0  0  0  0  0
  -28.3905  -19.9709   19.9836 H   0  0  0  0  0  0  0  0  0  0  0  0
  -28.2228  -19.9621   21.6832 H   0  0  0  0  0  0  0  0  0  0  0  0
  -28.4378  -22.3431   19.8300 H   0  0  0  0  0  0  0  0  0  0  0  0
  -26.9057  -22.1893   22.3834 H   0  0  0  0  0  0  0  0  0  0  0  0
  -26.1635  -21.8523   21.0130 H   0  0  0  0  0  0  0  0  0  0  0  0
  -29.5852  -15.6294   19.4261 H   0  0  0  0  0  0  0  0  0  0  0  0
  1 25  1  0
  1 30  2  0
  1 83  1  0
  2  3  1  0
  2 25  1  0
  2 86  1  0
  2 87  1  0
  3  4  1  0
  3 88  1  0
  3 89  1  0
  4  5  1  0
  4 90  1  0
  4 91  1  0
  5  6  1  0
  5 26  1  0
  5 92  1  6
  6 25  1  0
  6 93  1  0
  6 94  1  0
  7  8  2  0
  7 26  1  0
  7 29  1  0
  8  9  1  0
  8 22  1  0
  9 10  1  0
  9 27  2  0
 10 11  2  0
 10 15  1  0
 11 12  1  0
 11 95  1  0
 12 13  2  0
 12 96  1  0
 13 14  1  0
 13 31  1  0
 14 15  2  0
 14 97  1  0
 15 98  1  0
 16 17  2  0
 16 21  1  0
 16 31  1  0
 17 18  1  0
 17 99  1  0
 18 19  2  0
 18100  1  0
 19 20  1  0
 19 24  1  0
 20 21  2  0
 20101  1  0
 21 23  1  0
 22 28  1  0
 22 32  2  0
 26 27  1  0
 28102  1  0
 28103  1  0
 29104  1  0
 29105  1  0
 33 34  1  0
 33 66  1  0
 33 70  2  0
 34 36  1  0
 34 59  1  0
 34106  1  6
 35 44  2  0
 35 45  1  0
 35 68  1  0
 36 56  1  0
 36107  1  0
 37 39  1  0
 37 47  1  0
 37 66  1  0
 37108  1  6
 38 43  2  0
 38 46  1  0
 38 47  1  0
 39 64  1  0
 39 67  2  0
 40 52  1  0
 40 53  2  0
 40 58  1  0
 41109  1  0
 41110  1  0
 41111  1  0
 42 43  1  0
 42 66  1  0
 42112  1  0
 42113  1  0
 43 44  1  0
 44114  1  0
 45 46  2  0
 45115  1  0
 46116  1  0
 47117  1  0
 47118  1  0
 48 41  1  0
 48 56  1  0
 48 65  1  0
 48119  1  1
 49 50  1  0
 49 53  1  0
 49 64  1  0
 49120  1  1
 50 51  1  0
 50121  1  0
 50122  1  0
 51 52  1  0
 51123  1  0
 51124  1  0
 52125  1  0
 52126  1  0
 53 54  1  0
 54 55  2  0
 54127  1  0
 55 57  1  0
 55128  1  0
 56 69  2  0
 57 58  2  0
 57129  1  0
 58130  1  0
 59 60  1  0
 59 61  1  0
 59 62  1  0
 60131  1  0
 60132  1  0
 60133  1  0
 61134  1  0
 61135  1  0
 61136  1  0
 62137  1  0
 62138  1  0
 62139  1  0
 63 65  1  0
 63140  1  0
 63141  1  0
 63142  1  0
 64143  1  0
 65144  1  0
 68 81  1  0
 71 73  2  0
 71 75  1  0
 71145  1  0
 72 74  1  0
 72 75  2  0
 72146  1  0
 73 76  1  0
 73 82  1  0
 74 76  2  0
 74 83  1  0
 75 84  1  0
 76 85  1  0
 77 78  1  0
 77 80  1  0
 77147  1  0
 77148  1  0
 78 82  1  0
 78149  1  0
 78150  1  0
 79 80  1  0
 79 82  1  0
 79151  1  0
 79152  1  0
 80 81  1  0
 80153  1  6
 81154  1  0
 81155  1  0
 83156  1  0
M  ISO  4   1 100  68 101  81 101  83 100
M  END
$$$$
67
     RDKit          3D

163172  0  0  0  0  0  0  0  0999 V2000
  -30.7652  -14.3608   20.6636 C   0  0  0  0  0  0  0  0  0100  0  0
  -30.4392  -12.2669   19.3775 C   0  0  0  0  0  0  0  0  0101  0  0
  -29.4791  -12.5281   18.1977 C   0  0  0  0  0  0  0  0  0102  0  0
  -27.9985  -12.3963   18.6038 C   0  0  0  0  0  0  0  0  0103  0  0
  -27.6639  -13.2170   19.8820 C   0  0  2  0  0  0  0  0  0104  0  0
  -28.6795  -12.9602   21.0279 C   0  0  0  0  0  0  0  0  0105  0  0
  -25.2633  -13.8245   20.5754 C   0  0  0  0  0  0  0  0  0106  0  0
  -24.1645  -13.0409   20.9408 C   0  0  0  0  0  0  0  0  0107  0  0
  -24.6400  -11.7009   20.8697 C   0  0  0  0  0  0  0  0  0108  0  0
  -23.9005  -10.4085   21.0420 C   0  0  0  0  0  0  0  0  0109  0  0
  -24.3588   -9.4123   21.9123 C   0  0  0  0  0  0  0  0  0110  0  0
  -23.6296   -8.2350   22.0803 C   0  0  0  0  0  0  0  0  0111  0  0
  -22.4385   -8.0419   21.3657 C   0  0  0  0  0  0  0  0  0112  0  0
  -22.0103   -9.0167   20.4678 C   0  0  0  0  0  0  0  0  0113  0  0
  -22.7317  -10.1925   20.3102 C   0  0  0  0  0  0  0  0  0114  0  0
  -21.6857   -6.0709   22.5391 C   0  0  0  0  0  0  0  0  0115  0  0
  -21.4064   -6.5490   23.8264 C   0  0  0  0  0  0  0  0  0116  0  0
  -21.3635   -5.6677   24.9085 C   0  0  0  0  0  0  0  0  0117  0  0
  -21.5973   -4.3067   24.7088 C   0  0  0  0  0  0  0  0  0118  0  0
  -21.8700   -3.8284   23.4282 C   0  0  0  0  0  0  0  0  0119  0  0
  -21.9144   -4.7056   22.3460 C   0  0  0  0  0  0  0  0  0120  0  0
  -22.8194  -13.5263   21.1763 C   0  0  0  0  0  0  0  0  0121  0  0
  -22.1559   -4.2206   21.1063 F   0  0  0  0  0  0  0  0  0122  0  0
  -21.5628   -3.4510   25.7555 F   0  0  0  0  0  0  0  0  0123  0  0
  -30.0261  -13.1803   20.4553 N   0  0  0  0  0  0  0  0  0124  0  0
  -26.2911  -12.9356   20.3443 N   0  0  0  0  0  0  0  0  0125  0  0
  -25.9236  -11.6675   20.5847 N   0  0  0  0  0  0  0  0  0126  0  0
  -22.0708  -12.7905   22.0005 N   0  0  0  0  0  0  0  0  0127  0  0
  -25.4117  -15.1773   20.4097 N   0  0  0  0  0  0  0  0  0128  0  0
  -31.7916  -14.6724   20.0536 O   0  0  0  0  0  0  0  0  0129  0  0
  -21.6670   -6.9022   21.4423 O   0  0  0  0  0  0  0  0  0130  0  0
  -22.3946  -14.5564   20.6568 O   0  0  0  0  0  0  0  0  0131  0  0
  -24.6048  -31.8614   23.2223 C   0  0  0  0  0  0  0  0  0100  0  0
  -25.8822  -32.4841   23.8616 C   0  0  1  0  0  0  0  0  0101  0  0
  -27.2536  -27.5042   20.1156 C   0  0  0  0  0  0  0  0  0102  0  0
  -25.5726  -33.8762   24.2210 N   0  0  0  0  0  0  0  0  0103  0  0
  -23.4066  -30.4859   21.5461 C   0  0  2  0  0  0  0  0  0104  0  0
  -24.8467  -28.9636   20.1247 C   0  0  0  0  0  0  0  0  0105  0  0
  -22.7412  -29.4652   22.5052 C   0  0  0  0  0  0  0  0  0106  0  0
  -18.0167  -28.1302   22.8626 C   0  0  0  0  0  0  0  0  0107  0  0
  -24.1342  -36.7390   23.2568 C   0  0  0  0  0  0  0  0  0108  0  0
  -25.9141  -30.8882   21.3456 C   0  0  0  0  0  0  0  0  0109  0  0
  -25.9930  -29.5029   20.7208 C   0  0  0  0  0  0  0  0  0110  0  0
  -27.1758  -28.7612   20.7331 C   0  0  0  0  0  0  0  0  0111  0  0
  -26.1032  -26.9836   19.5230 C   0  0  0  0  0  0  0  0  0112  0  0
  -24.9097  -27.7011   19.5331 C   0  0  0  0  0  0  0  0  0113  0  0
  -23.5715  -29.7899   20.1582 C   0  0  0  0  0  0  0  0  0114  0  0
  -25.3990  -36.3212   24.0232 C   0  0  1  0  0  0  0  0  0115  0  0
  -20.5793  -28.3813   23.1004 C   0  0  2  0  0  0  0  0  0116  0  0
  -20.6548  -26.9392   22.5411 C   0  0  0  0  0  0  0  0  0117  0  0
  -19.5615  -26.6407   21.5143 C   0  0  0  0  0  0  0  0  0118  0  0
  -18.1797  -26.7818   22.1673 C   0  0  0  0  0  0  0  0  0119  0  0
  -19.1385  -28.8769   23.2988 C   0  0  0  0  0  0  0  0  0120  0  0
  -18.9183  -30.1286   23.8878 C   0  0  0  0  0  0  0  0  0121  0  0
  -17.6396  -30.6493   24.0352 C   0  0  0  0  0  0  0  0  0122  0  0
  -25.9153  -34.9582   23.4993 C   0  0  0  0  0  0  0  0  0123  0  0
  -16.5415  -29.9068   23.6254 C   0  0  0  0  0  0  0  0  0124  0  0
  -16.7331  -28.6521   23.0586 C   0  0  0  0  0  0  0  0  0125  0  0
  -26.4583  -31.6439   25.0683 C   0  0  0  0  0  0  0  0  0126  0  0
  -25.3807  -31.3179   26.1374 C   0  0  0  0  0  0  0  0  0127  0  0
  -27.0530  -30.3024   24.5680 C   0  0  0  0  0  0  0  0  0128  0  0
  -27.6014  -32.4281   25.7651 C   0  0  0  0  0  0  0  0  0129  0  0
  -27.5629  -37.2220   24.8621 C   0  0  0  0  0  0  0  0  0130  0  0
  -21.4133  -29.3375   22.3735 N   0  0  0  0  0  0  0  0  0131  0  0
  -26.4706  -37.3372   23.9061 N   0  0  0  0  0  0  0  0  0132  0  0
  -24.6674  -31.0544   22.1178 N   0  0  0  0  0  0  0  0  0133  0  0
  -23.4259  -28.8150   23.2971 O   0  0  0  0  0  0  0  0  0134  0  0
  -28.3948  -26.7345   20.0089 O   0  0  0  0  0  0  0  0  0135  0  0
  -26.5870  -34.9065   22.4671 O   0  0  0  0  0  0  0  0  0136  0  0
  -23.5365  -32.1254   23.7833 O   0  0  0  0  0  0  0  0  0137  0  0
  -31.3715  -23.7302   20.5765 C   0  0  0  0  0  0  0  0  0  0  0  0
  -31.7909  -22.9384   21.6454 C   0  0  0  0  0  0  0  0  0  0  0  0
  -31.7034  -20.9820   20.2305 C   0  0  0  0  0  0  0  0  0  0  0  0
  -31.1180  -23.1480   19.3345 C   0  0  0  0  0  0  0  0  0  0  0  0
  -31.9569  -21.5643   21.4724 C   0  0  0  0  0  0  0  0  0  0  0  0
  -31.2839  -21.7739   19.1615 C   0  0  0  0  0  0  0  0  0  0  0  0
  -31.4376  -24.0814   17.0593 C   0  0  0  0  0  0  0  0  0  0  0  0
  -30.7533  -24.7279   15.8696 C   0  0  0  0  0  0  0  0  0  0  0  0
  -29.8138  -25.8582   16.2280 C   0  0  0  0  0  0  0  0  0  0  0  0
  -29.5469  -24.8956   18.4963 C   0  0  0  0  0  0  0  0  0  0  0  0
  -28.8019  -25.3526   17.2430 C   0  0  1  0  0  0  0  0  0  0  0  0
  -33.4434  -21.2615   23.4616 C   0  0  0  0  0  0  0  0  0  0  0  0
  -27.7795  -26.4347   17.5838 C   0  0  0  0  0  0  0  0  0  1  0  0
  -30.6820  -23.9900   18.2409 N   0  0  0  0  0  0  0  0  0  0  0  0
  -31.0315  -21.1631   17.9124 N   0  0  0  0  0  0  0  0  0  0  0  0
  -32.3918  -20.7448   22.5791 N   0  0  0  0  0  0  0  0  0  0  0  0
  -32.5750  -23.6303   16.8992 O   0  0  0  0  0  0  0  0  0  0  0  0
  -31.4485  -12.4701   19.0860 H   0  0  0  0  0  0  0  0  0  0  0  0
  -30.3970  -11.2460   19.6950 H   0  0  0  0  0  0  0  0  0  0  0  0
  -29.6870  -11.8204   17.4226 H   0  0  0  0  0  0  0  0  0  0  0  0
  -29.6375  -13.5326   17.8649 H   0  0  0  0  0  0  0  0  0  0  0  0
  -27.7830  -11.3650   18.7904 H   0  0  0  0  0  0  0  0  0  0  0  0
  -27.4028  -12.7801   17.8021 H   0  0  0  0  0  0  0  0  0  0  0  0
  -27.7353  -14.2503   19.6136 H   0  0  0  0  0  0  0  0  0  0  0  0
  -28.5890  -11.9550   21.3832 H   0  0  0  0  0  0  0  0  0  0  0  0
  -28.5005  -13.6134   21.8562 H   0  0  0  0  0  0  0  0  0  0  0  0
  -25.2399   -9.5495   22.4318 H   0  0  0  0  0  0  0  0  0  0  0  0
  -23.9663   -7.5070   22.7297 H   0  0  0  0  0  0  0  0  0  0  0  0
  -21.1515   -8.8641   19.9162 H   0  0  0  0  0  0  0  0  0  0  0  0
  -22.4016  -10.9115   19.6476 H   0  0  0  0  0  0  0  0  0  0  0  0
  -21.2319   -7.5552   23.9750 H   0  0  0  0  0  0  0  0  0  0  0  0
  -21.1589   -6.0228   25.8556 H   0  0  0  0  0  0  0  0  0  0  0  0
  -22.0396   -2.8212   23.2809 H   0  0  0  0  0  0  0  0  0  0  0  0
  -22.4401  -11.9703   22.4008 H   0  0  0  0  0  0  0  0  0  0  0  0
  -21.1493  -13.0679   22.2082 H   0  0  0  0  0  0  0  0  0  0  0  0
  -24.6538  -15.7807   20.5848 H   0  0  0  0  0  0  0  0  0  0  0  0
  -26.2762  -15.5453   20.1156 H   0  0  0  0  0  0  0  0  0  0  0  0
  -26.6778  -32.4663   23.1464 H   0  0  0  0  0  0  0  0  0  0  0  0
  -25.0747  -34.0282   25.0566 H   0  0  0  0  0  0  0  0  0  0  0  0
  -22.7881  -31.3489   21.4131 H   0  0  0  0  0  0  0  0  0  0  0  0
  -23.3854  -35.9823   23.3648 H   0  0  0  0  0  0  0  0  0  0  0  0
  -24.3696  -36.8624   22.2204 H   0  0  0  0  0  0  0  0  0  0  0  0
  -23.7669  -37.6632   23.6516 H   0  0  0  0  0  0  0  0  0  0  0  0
  -25.9445  -31.6237   20.5691 H   0  0  0  0  0  0  0  0  0  0  0  0
  -26.7436  -31.0079   22.0108 H   0  0  0  0  0  0  0  0  0  0  0  0
  -28.0090  -29.1452   21.2057 H   0  0  0  0  0  0  0  0  0  0  0  0
  -26.1369  -26.0560   19.0719 H   0  0  0  0  0  0  0  0  0  0  0  0
  -24.0652  -27.2961   19.0997 H   0  0  0  0  0  0  0  0  0  0  0  0
  -23.6156  -30.5365   19.3930 H   0  0  0  0  0  0  0  0  0  0  0  0
  -22.7355  -29.1425   19.9945 H   0  0  0  0  0  0  0  0  0  0  0  0
  -25.1353  -36.2335   25.0565 H   0  0  0  0  0  0  0  0  0  0  0  0
  -21.0070  -28.3206   24.0793 H   0  0  0  0  0  0  0  0  0  0  0  0
  -20.5555  -26.2518   23.3550 H   0  0  0  0  0  0  0  0  0  0  0  0
  -21.5974  -26.8362   22.0454 H   0  0  0  0  0  0  0  0  0  0  0  0
  -19.6810  -25.6422   21.1488 H   0  0  0  0  0  0  0  0  0  0  0  0
  -19.6406  -27.3343   20.7034 H   0  0  0  0  0  0  0  0  0  0  0  0
  -17.4282  -26.6888   21.4113 H   0  0  0  0  0  0  0  0  0  0  0  0
  -18.0803  -26.0130   22.9049 H   0  0  0  0  0  0  0  0  0  0  0  0
  -19.7265  -30.6774   24.2204 H   0  0  0  0  0  0  0  0  0  0  0  0
  -17.5064  -31.5856   24.4483 H   0  0  0  0  0  0  0  0  0  0  0  0
  -15.5878  -30.2839   23.7407 H   0  0  0  0  0  0  0  0  0  0  0  0
  -15.9120  -28.0941   22.7766 H   0  0  0  0  0  0  0  0  0  0  0  0
  -24.5787  -30.7757   25.6817 H   0  0  0  0  0  0  0  0  0  0  0  0
  -25.0041  -32.2289   26.5536 H   0  0  0  0  0  0  0  0  0  0  0  0
  -25.8166  -30.7245   26.9138 H   0  0  0  0  0  0  0  0  0  0  0  0
  -26.2892  -29.7335   24.0803 H   0  0  0  0  0  0  0  0  0  0  0  0
  -27.4336  -29.7484   25.4006 H   0  0  0  0  0  0  0  0  0  0  0  0
  -27.8466  -30.4994   23.8779 H   0  0  0  0  0  0  0  0  0  0  0  0
  -27.2251  -33.3632   26.1242 H   0  0  0  0  0  0  0  0  0  0  0  0
  -28.3902  -32.6065   25.0645 H   0  0  0  0  0  0  0  0  0  0  0  0
  -27.9772  -31.8555   26.5872 H   0  0  0  0  0  0  0  0  0  0  0  0
  -28.2744  -38.0016   24.6863 H   0  0  0  0  0  0  0  0  0  0  0  0
  -28.0396  -36.2711   24.7461 H   0  0  0  0  0  0  0  0  0  0  0  0
  -27.1773  -37.3087   25.8564 H   0  0  0  0  0  0  0  0  0  0  0  0
  -20.9627  -29.9365   21.7352 H   0  0  0  0  0  0  0  0  0  0  0  0
  -26.0447  -38.2561   24.0273 H   0  0  0  0  0  0  0  0  0  0  0  0
  -31.2487  -24.7468   20.7045 H   0  0  0  0  0  0  0  0  0  0  0  0
  -31.9784  -23.3692   22.5643 H   0  0  0  0  0  0  0  0  0  0  0  0
  -31.8262  -19.9654   20.1025 H   0  0  0  0  0  0  0  0  0  0  0  0
  -30.1914  -23.9753   15.3570 H   0  0  0  0  0  0  0  0  0  0  0  0
  -31.5274  -25.1537   15.2660 H   0  0  0  0  0  0  0  0  0  0  0  0
  -29.3042  -26.1943   15.3492 H   0  0  0  0  0  0  0  0  0  0  0  0
  -30.3685  -26.6734   16.6435 H   0  0  0  0  0  0  0  0  0  0  0  0
  -28.8513  -24.3877   19.1312 H   0  0  0  0  0  0  0  0  0  0  0  0
  -29.9574  -25.7771   18.9429 H   0  0  0  0  0  0  0  0  0  0  0  0
  -28.2638  -24.5274   16.8254 H   0  0  0  0  0  0  0  0  0  0  0  0
  -33.3744  -22.3281   23.5122 H   0  0  0  0  0  0  0  0  0  0  0  0
  -34.4017  -20.9840   23.0749 H   0  0  0  0  0  0  0  0  0  0  0  0
  -33.3212  -20.8493   24.4414 H   0  0  0  0  0  0  0  0  0  0  0  0
  -26.7723  -26.0955   17.4593 H   0  0  0  0  0  0  0  0  0  0  0  0
  -27.8064  -27.3163   16.9781 H   0  0  0  0  0  0  0  0  0  0  0  0
  -31.1531  -20.1920   17.8058 H   0  0  0  0  0  0  0  0  0  0  0  0
  -30.7341  -21.7087   17.1488 H   0  0  0  0  0  0  0  0  0  0  0  0
  1 25  1  0
  1 30  2  0
  1 86  1  0
  2  3  1  0
  2 25  1  0
  2 88  1  0
  2 89  1  0
  3  4  1  0
  3 90  1  0
  3 91  1  0
  4  5  1  0
  4 92  1  0
  4 93  1  0
  5  6  1  0
  5 26  1  0
  5 94  1  6
  6 25  1  0
  6 95  1  0
  6 96  1  0
  7  8  2  0
  7 26  1  0
  7 29  1  0
  8  9  1  0
  8 22  1  0
  9 10  1  0
  9 27  2  0
 10 11  2  0
 10 15  1  0
 11 12  1  0
 11 97  1  0
 12 13  2  0
 12 98  1  0
 13 14  1  0
 13 31  1  0
 14 15  2  0
 14 99  1  0
 15100  1  0
 16 17  2  0
 16 21  1  0
 16 31  1  0
 17 18  1  0
 17101  1  0
 18 19  2  0
 18102  1  0
 19 20  1  0
 19 24  1  0
 20 21  2  0
 20103  1  0
 21 23  1  0
 22 28  1  0
 22 32  2  0
 26 27  1  0
 28104  1  0
 28105  1  0
 29106  1  0
 29107  1  0
 33 34  1  0
 33 66  1  0
 33 70  2  0
 34 36  1  0
 34 59  1  0
 34108  1  6
 35 44  2  0
 35 45  1  0
 35 68  1  0
 36 56  1  0
 36109  1  0
 37 39  1  0
 37 47  1  0
 37 66  1  0
 37110  1  6
 38 43  2  0
 38 46  1  0
 38 47  1  0
 39 64  1  0
 39 67  2  0
 40 52  1  0
 40 53  2  0
 40 58  1  0
 41111  1  0
 41112  1  0
 41113  1  0
 42 43  1  0
 42 66  1  0
 42114  1  0
 42115  1  0
 43 44  1  0
 44116  1  0
 45 46  2  0
 45117  1  0
 46118  1  0
 47119  1  0
 47120  1  0
 48 41  1  0
 48 56  1  0
 48 65  1  0
 48121  1  1
 49 50  1  0
 49 53  1  0
 49 64  1  0
 49122  1  1
 50 51  1  0
 50123  1  0
 50124  1  0
 51 52  1  0
 51125  1  0
 51126  1  0
 52127  1  0
 52128  1  0
 53 54  1  0
 54 55  2  0
 54129  1  0
 55 57  1  0
 55130  1  0
 56 69  2  0
 57 58  2  0
 57131  1  0
 58132  1  0
 59 60  1  0
 59 61  1  0
 59 62  1  0
 60133  1  0
 60134  1  0
 60135  1  0
 61136  1  0
 61137  1  0
 61138  1  0
 62139  1  0
 62140  1  0
 62141  1  0
 63 65  1  0
 63142  1  0
 63143  1  0
 63144  1  0
 64145  1  0
 65146  1  0
 68 83  1  0
 71 72  2  0
 71 74  1  0
 71147  1  0
 72 75  1  0
 72148  1  0
 73 75  2  0
 73 76  1  0
 73149  1  0
 74 76  2  0
 74 84  1  0
 75 86  1  0
 76 85  1  0
 77 78  1  0
 77 84  1  0
 77 87  2  0
 78 79  1  0
 78150  1  0
 78151  1  0
 79 81  1  0
 79152  1  0
 79153  1  0
 80 81  1  0
 80 84  1  0
 80154  1  0
 80155  1  0
 81 83  1  0
 81156  1  6
 82 86  1  0
 82157  1  0
 82158  1  0
 82159  1  0
 83160  1  0
 83161  1  0
 85162  1  0
 85163  1  0
M  ISO  4   1 100  68 101  83 101  86 100
M  END
$$$$
68
     RDKit          3D

169178  0  0  0  0  0  0  0  0999 V2000
  -30.7652  -14.3608   20.6636 C   0  0  0  0  0  0  0  0  0100  0  0
  -30.4392  -12.2669   19.3775 C   0  0  0  0  0  0  0  0  0101  0  0
  -29.4791  -12.5281   18.1977 C   0  0  0  0  0  0  0  0  0102  0  0
  -27.9985  -12.3963   18.6038 C   0  0  0  0  0  0  0  0  0103  0  0
  -27.6639  -13.2170   19.8820 C   0  0  2  0  0  0  0  0  0104  0  0
  -28.6795  -12.9602   21.0279 C   0  0  0  0  0  0  0  0  0105  0  0
  -25.2633  -13.8245   20.5754 C   0  0  0  0  0  0  0  0  0106  0  0
  -24.1645  -13.0409   20.9408 C   0  0  0  0  0  0  0  0  0107  0  0
  -24.6400  -11.7009   20.8697 C   0  0  0  0  0  0  0  0  0108  0  0
  -23.9005  -10.4085   21.0420 C   0  0  0  0  0  0  0  0  0109  0  0
  -24.3588   -9.4123   21.9123 C   0  0  0  0  0  0  0  0  0110  0  0
  -23.6296   -8.2350   22.0803 C   0  0  0  0  0  0  0  0  0111  0  0
  -22.4385   -8.0419   21.3657 C   0  0  0  0  0  0  0  0  0112  0  0
  -22.0103   -9.0167   20.4678 C   0  0  0  0  0  0  0  0  0113  0  0
  -22.7317  -10.1925   20.3102 C   0  0  0  0  0  0  0  0  0114  0  0
  -21.6857   -6.0709   22.5391 C   0  0  0  0  0  0  0  0  0115  0  0
  -21.4064   -6.5490   23.8264 C   0  0  0  0  0  0  0  0  0116  0  0
  -21.3635   -5.6677   24.9085 C   0  0  0  0  0  0  0  0  0117  0  0
  -21.5973   -4.3067   24.7088 C   0  0  0  0  0  0  0  0  0118  0  0
  -21.8700   -3.8284   23.4282 C   0  0  0  0  0  0  0  0  0119  0  0
  -21.9144   -4.7056   22.3460 C   0  0  0  0  0  0  0  0  0120  0  0
  -22.8194  -13.5263   21.1763 C   0  0  0  0  0  0  0  0  0121  0  0
  -22.1559   -4.2206   21.1063 F   0  0  0  0  0  0  0  0  0122  0  0
  -21.5628   -3.4510   25.7555 F   0  0  0  0  0  0  0  0  0123  0  0
  -30.0261  -13.1803   20.4553 N   0  0  0  0  0  0  0  0  0124  0  0
  -26.2911  -12.9356   20.3443 N   0  0  0  0  0  0  0  0  0125  0  0
  -25.9236  -11.6675   20.5847 N   0  0  0  0  0  0  0  0  0126  0  0
  -22.0708  -12.7905   22.0005 N   0  0  0  0  0  0  0  0  0127  0  0
  -25.4117  -15.1773   20.4097 N   0  0  0  0  0  0  0  0  0128  0  0
  -31.7916  -14.6724   20.0536 O   0  0  0  0  0  0  0  0  0129  0  0
  -21.6670   -6.9022   21.4423 O   0  0  0  0  0  0  0  0  0130  0  0
  -22.3946  -14.5564   20.6568 O   0  0  0  0  0  0  0  0  0131  0  0
  -24.6048  -31.8614   23.2223 C   0  0  0  0  0  0  0  0  0100  0  0
  -25.8822  -32.4841   23.8616 C   0  0  1  0  0  0  0  0  0101  0  0
  -27.2536  -27.5042   20.1156 C   0  0  0  0  0  0  0  0  0102  0  0
  -25.5726  -33.8762   24.2210 N   0  0  0  0  0  0  0  0  0103  0  0
  -23.4066  -30.4859   21.5461 C   0  0  2  0  0  0  0  0  0104  0  0
  -24.8467  -28.9636   20.1247 C   0  0  0  0  0  0  0  0  0105  0  0
  -22.7412  -29.4652   22.5052 C   0  0  0  0  0  0  0  0  0106  0  0
  -18.0167  -28.1302   22.8626 C   0  0  0  0  0  0  0  0  0107  0  0
  -24.1342  -36.7390   23.2568 C   0  0  0  0  0  0  0  0  0108  0  0
  -25.9141  -30.8882   21.3456 C   0  0  0  0  0  0  0  0  0109  0  0
  -25.9930  -29.5029   20.7208 C   0  0  0  0  0  0  0  0  0110  0  0
  -27.1758  -28.7612   20.7331 C   0  0  0  0  0  0  0  0  0111  0  0
  -26.1032  -26.9836   19.5230 C   0  0  0  0  0  0  0  0  0112  0  0
  -24.9097  -27.7011   19.5331 C   0  0  0  0  0  0  0  0  0113  0  0
  -23.5715  -29.7899   20.1582 C   0  0  0  0  0  0  0  0  0114  0  0
  -25.3990  -36.3212   24.0232 C   0  0  1  0  0  0  0  0  0115  0  0
  -20.5793  -28.3813   23.1004 C   0  0  2  0  0  0  0  0  0116  0  0
  -20.6548  -26.9392   22.5411 C   0  0  0  0  0  0  0  0  0117  0  0
  -19.5615  -26.6407   21.5143 C   0  0  0  0  0  0  0  0  0118  0  0
  -18.1797  -26.7818   22.1673 C   0  0  0  0  0  0  0  0  0119  0  0
  -19.1385  -28.8769   23.2988 C   0  0  0  0  0  0  0  0  0120  0  0
  -18.9183  -30.1286   23.8878 C   0  0  0  0  0  0  0  0  0121  0  0
  -17.6396  -30.6493   24.0352 C   0  0  0  0  0  0  0  0  0122  0  0
  -25.9153  -34.9582   23.4993 C   0  0  0  0  0  0  0  0  0123  0  0
  -16.5415  -29.9068   23.6254 C   0  0  0  0  0  0  0  0  0124  0  0
  -16.7331  -28.6521   23.0586 C   0  0  0  0  0  0  0  0  0125  0  0
  -26.4583  -31.6439   25.0683 C   0  0  0  0  0  0  0  0  0126  0  0
  -25.3807  -31.3179   26.1374 C   0  0  0  0  0  0  0  0  0127  0  0
  -27.0530  -30.3024   24.5680 C   0  0  0  0  0  0  0  0  0128  0  0
  -27.6014  -32.4281   25.7651 C   0  0  0  0  0  0  0  0  0129  0  0
  -27.5629  -37.2220   24.8621 C   0  0  0  0  0  0  0  0  0130  0  0
  -21.4133  -29.3375   22.3735 N   0  0  0  0  0  0  0  0  0131  0  0
  -26.4706  -37.3372   23.9061 N   0  0  0  0  0  0  0  0  0132  0  0
  -24.6674  -31.0544   22.1178 N   0  0  0  0  0  0  0  0  0133  0  0
  -23.4259  -28.8150   23.2971 O   0  0  0  0  0  0  0  0  0134  0  0
  -28.3948  -26.7345   20.0089 O   0  0  0  0  0  0  0  0  0135  0  0
  -26.5870  -34.9065   22.4671 O   0  0  0  0  0  0  0  0  0136  0  0
  -23.5365  -32.1254   23.7833 O   0  0  0  0  0  0  0  0  0137  0  0
  -31.1421  -19.0182   21.3994 C   0  0  0  0  0  0  0  0  0  0  0  0
  -30.7367  -20.0184   22.2830 C   0  0  0  0  0  0  0  0  0  0  0  0
  -28.8654  -18.7774   20.6274 C   0  0  0  0  0  0  0  0  0  0  0  0
  -30.2064  -18.3977   20.5715 C   0  0  0  0  0  0  0  0  0  0  0  0
  -29.3957  -20.3981   22.3389 C   0  0  0  0  0  0  0  0  0  0  0  0
  -28.4600  -19.7777   21.5111 C   0  0  0  0  0  0  0  0  0  0  0  0
  -27.2640  -22.2914   24.7380 C   0  0  0  0  0  0  0  0  0  0  0  0
  -29.2074  -23.7154   24.0613 C   0  0  0  0  0  0  0  0  0  0  0  0
  -28.0088  -21.0492   24.2531 C   0  0  0  0  0  0  0  0  0  0  0  0
  -29.9477  -22.4713   23.5722 C   0  0  0  0  0  0  0  0  0  0  0  0
  -28.2300  -23.3884   25.1928 C   0  0  0  0  0  0  0  0  0  0  0  0
  -30.3607  -17.6807   18.1583 C   0  0  0  0  0  0  0  0  0  0  0  0
  -26.7321  -21.1806   20.6735 C   0  0  0  0  0  0  0  0  0  0  0  0
  -27.4682  -24.6367   25.6317 C   0  0  0  0  0  0  0  0  0  1  0  0
  -30.6404  -17.3286   19.6266 C   0  0  2  0  0  0  0  0  0  0  0  0
  -29.0024  -21.4036   23.2313 N   0  0  0  0  0  0  0  0  0  0  0  0
  -30.0477  -16.0497   19.9490 N   0  0  0  0  0  0  0  0  0  0  0  0
  -27.1454  -20.1349   21.5503 O   0  0  0  0  0  0  0  0  0  0  0  0
  -31.4485  -12.4701   19.0860 H   0  0  0  0  0  0  0  0  0  0  0  0
  -30.3970  -11.2460   19.6950 H   0  0  0  0  0  0  0  0  0  0  0  0
  -29.6870  -11.8204   17.4226 H   0  0  0  0  0  0  0  0  0  0  0  0
  -29.6375  -13.5326   17.8649 H   0  0  0  0  0  0  0  0  0  0  0  0
  -27.7830  -11.3650   18.7904 H   0  0  0  0  0  0  0  0  0  0  0  0
  -27.4028  -12.7801   17.8021 H   0  0  0  0  0  0  0  0  0  0  0  0
  -27.7353  -14.2503   19.6136 H   0  0  0  0  0  0  0  0  0  0  0  0
  -28.5890  -11.9550   21.3832 H   0  0  0  0  0  0  0  0  0  0  0  0
  -28.5005  -13.6134   21.8562 H   0  0  0  0  0  0  0  0  0  0  0  0
  -25.2399   -9.5495   22.4318 H   0  0  0  0  0  0  0  0  0  0  0  0
  -23.9663   -7.5070   22.7297 H   0  0  0  0  0  0  0  0  0  0  0  0
  -21.1515   -8.8641   19.9162 H   0  0  0  0  0  0  0  0  0  0  0  0
  -22.4016  -10.9115   19.6476 H   0  0  0  0  0  0  0  0  0  0  0  0
  -21.2319   -7.5552   23.9750 H   0  0  0  0  0  0  0  0  0  0  0  0
  -21.1589   -6.0228   25.8556 H   0  0  0  0  0  0  0  0  0  0  0  0
  -22.0396   -2.8212   23.2809 H   0  0  0  0  0  0  0  0  0  0  0  0
  -22.4401  -11.9703   22.4008 H   0  0  0  0  0  0  0  0  0  0  0  0
  -21.1493  -13.0679   22.2082 H   0  0  0  0  0  0  0  0  0  0  0  0
  -24.6538  -15.7807   20.5848 H   0  0  0  0  0  0  0  0  0  0  0  0
  -26.2762  -15.5453   20.1156 H   0  0  0  0  0  0  0  0  0  0  0  0
  -26.6778  -32.4663   23.1464 H   0  0  0  0  0  0  0  0  0  0  0  0
  -25.0747  -34.0282   25.0566 H   0  0  0  0  0  0  0  0  0  0  0  0
  -22.7881  -31.3489   21.4131 H   0  0  0  0  0  0  0  0  0  0  0  0
  -23.3854  -35.9823   23.3648 H   0  0  0  0  0  0  0  0  0  0  0  0
  -24.3696  -36.8624   22.2204 H   0  0  0  0  0  0  0  0  0  0  0  0
  -23.7669  -37.6632   23.6516 H   0  0  0  0  0  0  0  0  0  0  0  0
  -25.9445  -31.6237   20.5691 H   0  0  0  0  0  0  0  0  0  0  0  0
  -26.7436  -31.0079   22.0108 H   0  0  0  0  0  0  0  0  0  0  0  0
  -28.0090  -29.1452   21.2057 H   0  0  0  0  0  0  0  0  0  0  0  0
  -26.1369  -26.0560   19.0719 H   0  0  0  0  0  0  0  0  0  0  0  0
  -24.0652  -27.2961   19.0997 H   0  0  0  0  0  0  0  0  0  0  0  0
  -23.6156  -30.5365   19.3930 H   0  0  0  0  0  0  0  0  0  0  0  0
  -22.7355  -29.1425   19.9945 H   0  0  0  0  0  0  0  0  0  0  0  0
  -25.1353  -36.2335   25.0565 H   0  0  0  0  0  0  0  0  0  0  0  0
  -21.0070  -28.3206   24.0793 H   0  0  0  0  0  0  0  0  0  0  0  0
  -20.5555  -26.2518   23.3550 H   0  0  0  0  0  0  0  0  0  0  0  0
  -21.5974  -26.8362   22.0454 H   0  0  0  0  0  0  0  0  0  0  0  0
  -19.6810  -25.6422   21.1488 H   0  0  0  0  0  0  0  0  0  0  0  0
  -19.6406  -27.3343   20.7034 H   0  0  0  0  0  0  0  0  0  0  0  0
  -17.4282  -26.6888   21.4113 H   0  0  0  0  0  0  0  0  0  0  0  0
  -18.0803  -26.0130   22.9049 H   0  0  0  0  0  0  0  0  0  0  0  0
  -19.7265  -30.6774   24.2204 H   0  0  0  0  0  0  0  0  0  0  0  0
  -17.5064  -31.5856   24.4483 H   0  0  0  0  0  0  0  0  0  0  0  0
  -15.5878  -30.2839   23.7407 H   0  0  0  0  0  0  0  0  0  0  0  0
  -15.9120  -28.0941   22.7766 H   0  0  0  0  0  0  0  0  0  0  0  0
  -24.5787  -30.7757   25.6817 H   0  0  0  0  0  0  0  0  0  0  0  0
  -25.0041  -32.2289   26.5536 H   0  0  0  0  0  0  0  0  0  0  0  0
  -25.8166  -30.7245   26.9138 H   0  0  0  0  0  0  0  0  0  0  0  0
  -26.2892  -29.7335   24.0803 H   0  0  0  0  0  0  0  0  0  0  0  0
  -27.4336  -29.7484   25.4006 H   0  0  0  0  0  0  0  0  0  0  0  0
  -27.8466  -30.4994   23.8779 H   0  0  0  0  0  0  0  0  0  0  0  0
  -27.2251  -33.3632   26.1242 H   0  0  0  0  0  0  0  0  0  0  0  0
  -28.3902  -32.6065   25.0645 H   0  0  0  0  0  0  0  0  0  0  0  0
  -27.9772  -31.8555   26.5872 H   0  0  0  0  0  0  0  0  0  0  0  0
  -28.2744  -38.0016   24.6863 H   0  0  0  0  0  0  0  0  0  0  0  0
  -28.0396  -36.2711   24.7461 H   0  0  0  0  0  0  0  0  0  0  0  0
  -27.1773  -37.3087   25.8564 H   0  0  0  0  0  0  0  0  0  0  0  0
  -20.9627  -29.9365   21.7352 H   0  0  0  0  0  0  0  0  0  0  0  0
  -26.0447  -38.2561   24.0273 H   0  0  0  0  0  0  0  0  0  0  0  0
  -32.1343  -18.7372   21.3581 H   0  0  0  0  0  0  0  0  0  0  0  0
  -31.4289  -20.4775   22.8954 H   0  0  0  0  0  0  0  0  0  0  0  0
  -28.1732  -18.3183   20.0150 H   0  0  0  0  0  0  0  0  0  0  0  0
  -26.6354  -22.0200   25.5602 H   0  0  0  0  0  0  0  0  0  0  0  0
  -26.6853  -22.6731   23.9229 H   0  0  0  0  0  0  0  0  0  0  0  0
  -28.6615  -24.1373   23.2434 H   0  0  0  0  0  0  0  0  0  0  0  0
  -29.9322  -24.4066   24.4379 H   0  0  0  0  0  0  0  0  0  0  0  0
  -27.3058  -20.3595   23.8347 H   0  0  0  0  0  0  0  0  0  0  0  0
  -28.5150  -20.6058   25.0850 H   0  0  0  0  0  0  0  0  0  0  0  0
  -30.6028  -22.1264   24.3448 H   0  0  0  0  0  0  0  0  0  0  0  0
  -30.5069  -22.7269   22.6965 H   0  0  0  0  0  0  0  0  0  0  0  0
  -28.7838  -23.0338   26.0369 H   0  0  0  0  0  0  0  0  0  0  0  0
  -30.8024  -18.6277   17.9282 H   0  0  0  0  0  0  0  0  0  0  0  0
  -29.3039  -17.7319   17.9989 H   0  0  0  0  0  0  0  0  0  0  0  0
  -30.7809  -16.9278   17.5247 H   0  0  0  0  0  0  0  0  0  0  0  0
  -25.6855  -21.3618   20.8030 H   0  0  0  0  0  0  0  0  0  0  0  0
  -26.9216  -20.8925   19.6606 H   0  0  0  0  0  0  0  0  0  0  0  0
  -27.2790  -22.0722   20.8990 H   0  0  0  0  0  0  0  0  0  0  0  0
  -27.9412  -25.2030   26.4066 H   0  0  0  0  0  0  0  0  0  0  0  0
  -26.4926  -24.5857   26.0681 H   0  0  0  0  0  0  0  0  0  0  0  0
  -31.7011  -17.2545   19.7463 H   0  0  0  0  0  0  0  0  0  0  0  0
  -29.0795  -16.0162   19.7740 H   0  0  0  0  0  0  0  0  0  0  0  0
  1 25  1  0
  1 30  2  0
  1 87  1  0
  2  3  1  0
  2 25  1  0
  2 89  1  0
  2 90  1  0
  3  4  1  0
  3 91  1  0
  3 92  1  0
  4  5  1  0
  4 93  1  0
  4 94  1  0
  5  6  1  0
  5 26  1  0
  5 95  1  6
  6 25  1  0
  6 96  1  0
  6 97  1  0
  7  8  2  0
  7 26  1  0
  7 29  1  0
  8  9  1  0
  8 22  1  0
  9 10  1  0
  9 27  2  0
 10 11  2  0
 10 15  1  0
 11 12  1  0
 11 98  1  0
 12 13  2  0
 12 99  1  0
 13 14  1  0
 13 31  1  0
 14 15  2  0
 14100  1  0
 15101  1  0
 16 17  2  0
 16 21  1  0
 16 31  1  0
 17 18  1  0
 17102  1  0
 18 19  2  0
 18103  1  0
 19 20  1  0
 19 24  1  0
 20 21  2  0
 20104  1  0
 21 23  1  0
 22 28  1  0
 22 32  2  0
 26 27  1  0
 28105  1  0
 28106  1  0
 29107  1  0
 29108  1  0
 33 34  1  0
 33 66  1  0
 33 70  2  0
 34 36  1  0
 34 59  1  0
 34109  1  6
 35 44  2  0
 35 45  1  0
 35 68  1  0
 36 56  1  0
 36110  1  0
 37 39  1  0
 37 47  1  0
 37 66  1  0
 37111  1  6
 38 43  2  0
 38 46  1  0
 38 47  1  0
 39 64  1  0
 39 67  2  0
 40 52  1  0
 40 53  2  0
 40 58  1  0
 41112  1  0
 41113  1  0
 41114  1  0
 42 43  1  0
 42 66  1  0
 42115  1  0
 42116  1  0
 43 44  1  0
 44117  1  0
 45 46  2  0
 45118  1  0
 46119  1  0
 47120  1  0
 47121  1  0
 48 41  1  0
 48 56  1  0
 48 65  1  0
 48122  1  1
 49 50  1  0
 49 53  1  0
 49 64  1  0
 49123  1  1
 50 51  1  0
 50124  1  0
 50125  1  0
 51 52  1  0
 51126  1  0
 51127  1  0
 52128  1  0
 52129  1  0
 53 54  1  0
 54 55  2  0
 54130  1  0
 55 57  1  0
 55131  1  0
 56 69  2  0
 57 58  2  0
 57132  1  0
 58133  1  0
 59 60  1  0
 59 61  1  0
 59 62  1  0
 60134  1  0
 60135  1  0
 60136  1  0
 61137  1  0
 61138  1  0
 61139  1  0
 62140  1  0
 62141  1  0
 62142  1  0
 63 65  1  0
 63143  1  0
 63144  1  0
 63145  1  0
 64146  1  0
 65147  1  0
 68 84  1  0
 71 72  2  0
 71 74  1  0
 71148  1  0
 72 75  1  0
 72149  1  0
 73 74  2  0
 73 76  1  0
 73150  1  0
 74 85  1  0
 75 76  2  0
 75 86  1  0
 76 88  1  0
 77 79  1  0
 77 81  1  0
 77151  1  0
 77152  1  0
 78 80  1  0
 78 81  1  0
 78153  1  0
 78154  1  0
 79 86  1  0
 79155  1  0
 79156  1  0
 80 86  1  0
 80157  1  0
 80158  1  0
 81 84  1  0
 81159  1  0
 82160  1  0
 82161  1  0
 82162  1  0
 83 88  1  0
 83163  1  0
 83164  1  0
 83165  1  0
 84166  1  0
 84167  1  0
 85 82  1  0
 85 87  1  0
 85168  1  6
 87169  1  0
M  ISO  4   1 100  68 101  84 101  87 100
M  END
$$$$
69
     RDKit          3D

160169  0  0  0  0  0  0  0  0999 V2000
  -30.7652  -14.3608   20.6636 C   0  0  0  0  0  0  0  0  0100  0  0
  -30.4392  -12.2669   19.3775 C   0  0  0  0  0  0  0  0  0101  0  0
  -29.4791  -12.5281   18.1977 C   0  0  0  0  0  0  0  0  0102  0  0
  -27.9985  -12.3963   18.6038 C   0  0  0  0  0  0  0  0  0103  0  0
  -27.6639  -13.2170   19.8820 C   0  0  2  0  0  0  0  0  0104  0  0
  -28.6795  -12.9602   21.0279 C   0  0  0  0  0  0  0  0  0105  0  0
  -25.2633  -13.8245   20.5754 C   0  0  0  0  0  0  0  0  0106  0  0
  -24.1645  -13.0409   20.9408 C   0  0  0  0  0  0  0  0  0107  0  0
  -24.6400  -11.7009   20.8697 C   0  0  0  0  0  0  0  0  0108  0  0
  -23.9005  -10.4085   21.0420 C   0  0  0  0  0  0  0  0  0109  0  0
  -24.3588   -9.4123   21.9123 C   0  0  0  0  0  0  0  0  0110  0  0
  -23.6296   -8.2350   22.0803 C   0  0  0  0  0  0  0  0  0111  0  0
  -22.4385   -8.0419   21.3657 C   0  0  0  0  0  0  0  0  0112  0  0
  -22.0103   -9.0167   20.4678 C   0  0  0  0  0  0  0  0  0113  0  0
  -22.7317  -10.1925   20.3102 C   0  0  0  0  0  0  0  0  0114  0  0
  -21.6857   -6.0709   22.5391 C   0  0  0  0  0  0  0  0  0115  0  0
  -21.4064   -6.5490   23.8264 C   0  0  0  0  0  0  0  0  0116  0  0
  -21.3635   -5.6677   24.9085 C   0  0  0  0  0  0  0  0  0117  0  0
  -21.5973   -4.3067   24.7088 C   0  0  0  0  0  0  0  0  0118  0  0
  -21.8700   -3.8284   23.4282 C   0  0  0  0  0  0  0  0  0119  0  0
  -21.9144   -4.7056   22.3460 C   0  0  0  0  0  0  0  0  0120  0  0
  -22.8194  -13.5263   21.1763 C   0  0  0  0  0  0  0  0  0121  0  0
  -22.1559   -4.2206   21.1063 F   0  0  0  0  0  0  0  0  0122  0  0
  -21.5628   -3.4510   25.7555 F   0  0  0  0  0  0  0  0  0123  0  0
  -30.0261  -13.1803   20.4553 N   0  0  0  0  0  0  0  0  0124  0  0
  -26.2911  -12.9356   20.3443 N   0  0  0  0  0  0  0  0  0125  0  0
  -25.9236  -11.6675   20.5847 N   0  0  0  0  0  0  0  0  0126  0  0
  -22.0708  -12.7905   22.0005 N   0  0  0  0  0  0  0  0  0127  0  0
  -25.4117  -15.1773   20.4097 N   0  0  0  0  0  0  0  0  0128  0  0
  -31.7916  -14.6724   20.0536 O   0  0  0  0  0  0  0  0  0129  0  0
  -21.6670   -6.9022   21.4423 O   0  0  0  0  0  0  0  0  0130  0  0
  -22.3946  -14.5564   20.6568 O   0  0  0  0  0  0  0  0  0131  0  0
  -24.6048  -31.8614   23.2223 C   0  0  0  0  0  0  0  0  0100  0  0
  -25.8822  -32.4841   23.8616 C   0  0  1  0  0  0  0  0  0101  0  0
  -27.2536  -27.5042   20.1156 C   0  0  0  0  0  0  0  0  0102  0  0
  -25.5726  -33.8762   24.2210 N   0  0  0  0  0  0  0  0  0103  0  0
  -23.4066  -30.4859   21.5461 C   0  0  2  0  0  0  0  0  0104  0  0
  -24.8467  -28.9636   20.1247 C   0  0  0  0  0  0  0  0  0105  0  0
  -22.7412  -29.4652   22.5052 C   0  0  0  0  0  0  0  0  0106  0  0
  -18.0167  -28.1302   22.8626 C   0  0  0  0  0  0  0  0  0107  0  0
  -24.1342  -36.7390   23.2568 C   0  0  0  0  0  0  0  0  0108  0  0
  -25.9141  -30.8882   21.3456 C   0  0  0  0  0  0  0  0  0109  0  0
  -25.9930  -29.5029   20.7208 C   0  0  0  0  0  0  0  0  0110  0  0
  -27.1758  -28.7612   20.7331 C   0  0  0  0  0  0  0  0  0111  0  0
  -26.1032  -26.9836   19.5230 C   0  0  0  0  0  0  0  0  0112  0  0
  -24.9097  -27.7011   19.5331 C   0  0  0  0  0  0  0  0  0113  0  0
  -23.5715  -29.7899   20.1582 C   0  0  0  0  0  0  0  0  0114  0  0
  -25.3990  -36.3212   24.0232 C   0  0  1  0  0  0  0  0  0115  0  0
  -20.5793  -28.3813   23.1004 C   0  0  2  0  0  0  0  0  0116  0  0
  -20.6548  -26.9392   22.5411 C   0  0  0  0  0  0  0  0  0117  0  0
  -19.5615  -26.6407   21.5143 C   0  0  0  0  0  0  0  0  0118  0  0
  -18.1797  -26.7818   22.1673 C   0  0  0  0  0  0  0  0  0119  0  0
  -19.1385  -28.8769   23.2988 C   0  0  0  0  0  0  0  0  0120  0  0
  -18.9183  -30.1286   23.8878 C   0  0  0  0  0  0  0  0  0121  0  0
  -17.6396  -30.6493   24.0352 C   0  0  0  0  0  0  0  0  0122  0  0
  -25.9153  -34.9582   23.4993 C   0  0  0  0  0  0  0  0  0123  0  0
  -16.5415  -29.9068   23.6254 C   0  0  0  0  0  0  0  0  0124  0  0
  -16.7331  -28.6521   23.0586 C   0  0  0  0  0  0  0  0  0125  0  0
  -26.4583  -31.6439   25.0683 C   0  0  0  0  0  0  0  0  0126  0  0
  -25.3807  -31.3179   26.1374 C   0  0  0  0  0  0  0  0  0127  0  0
  -27.0530  -30.3024   24.5680 C   0  0  0  0  0  0  0  0  0128  0  0
  -27.6014  -32.4281   25.7651 C   0  0  0  0  0  0  0  0  0129  0  0
  -27.5629  -37.2220   24.8621 C   0  0  0  0  0  0  0  0  0130  0  0
  -21.4133  -29.3375   22.3735 N   0  0  0  0  0  0  0  0  0131  0  0
  -26.4706  -37.3372   23.9061 N   0  0  0  0  0  0  0  0  0132  0  0
  -24.6674  -31.0544   22.1178 N   0  0  0  0  0  0  0  0  0133  0  0
  -23.4259  -28.8150   23.2971 O   0  0  0  0  0  0  0  0  0134  0  0
  -28.3948  -26.7345   20.0089 O   0  0  0  0  0  0  0  0  0135  0  0
  -26.5870  -34.9065   22.4671 O   0  0  0  0  0  0  0  0  0136  0  0
  -23.5365  -32.1254   23.7833 O   0  0  0  0  0  0  0  0  0137  0  0
  -26.6211  -18.9357   18.2588 C   0  0  0  0  0  0  0  0  0  0  0  0
  -25.4539  -19.6567   18.0070 C   0  0  0  0  0  0  0  0  0  0  0  0
  -27.5350  -20.8302   19.4475 C   0  0  0  0  0  0  0  0  0  0  0  0
  -27.6617  -19.5224   18.9791 C   0  0  0  0  0  0  0  0  0  0  0  0
  -25.3272  -20.9644   18.4754 C   0  0  0  0  0  0  0  0  0  0  0  0
  -26.3678  -21.5512   19.1956 C   0  0  0  0  0  0  0  0  0  0  0  0
  -23.3592  -21.4659   17.0523 C   0  0  0  0  0  0  0  0  0  0  0  0
  -28.9048  -18.7545   19.2470 C   0  0  0  0  0  0  0  0  0  0  0  0
  -21.9641  -22.0609   17.0189 C   0  0  0  0  0  0  0  0  0  0  0  0
  -21.8416  -23.4042   17.7042 C   0  0  0  0  0  0  0  0  0  0  0  0
  -23.8270  -22.8623   19.0854 C   0  0  0  0  0  0  0  0  0  0  0  0
  -22.3572  -23.2778   19.1282 C   0  0  1  0  0  0  0  0  0  0  0  0
  -22.1860  -24.5893   19.8918 C   0  0  0  0  0  0  0  0  0  1  0  0
  -24.1150  -21.7101   18.2119 N   0  0  0  0  0  0  0  0  0  0  0  0
  -28.7584  -17.3678   19.2907 N   0  0  0  0  0  0  0  0  0  0  0  0
  -23.7140  -20.7664   16.0996 O   0  0  0  0  0  0  0  0  0  0  0  0
  -29.9662  -19.3594   19.3717 O   0  0  0  0  0  0  0  0  0  0  0  0
  -26.2575  -22.8078   19.6503 F   0  0  0  0  0  0  0  0  0  0  0  0
  -31.4485  -12.4701   19.0860 H   0  0  0  0  0  0  0  0  0  0  0  0
  -30.3970  -11.2460   19.6950 H   0  0  0  0  0  0  0  0  0  0  0  0
  -29.6870  -11.8204   17.4226 H   0  0  0  0  0  0  0  0  0  0  0  0
  -29.6375  -13.5326   17.8649 H   0  0  0  0  0  0  0  0  0  0  0  0
  -27.7830  -11.3650   18.7904 H   0  0  0  0  0  0  0  0  0  0  0  0
  -27.4028  -12.7801   17.8021 H   0  0  0  0  0  0  0  0  0  0  0  0
  -27.7353  -14.2503   19.6136 H   0  0  0  0  0  0  0  0  0  0  0  0
  -28.5890  -11.9550   21.3832 H   0  0  0  0  0  0  0  0  0  0  0  0
  -28.5005  -13.6134   21.8562 H   0  0  0  0  0  0  0  0  0  0  0  0
  -25.2399   -9.5495   22.4318 H   0  0  0  0  0  0  0  0  0  0  0  0
  -23.9663   -7.5070   22.7297 H   0  0  0  0  0  0  0  0  0  0  0  0
  -21.1515   -8.8641   19.9162 H   0  0  0  0  0  0  0  0  0  0  0  0
  -22.4016  -10.9115   19.6476 H   0  0  0  0  0  0  0  0  0  0  0  0
  -21.2319   -7.5552   23.9750 H   0  0  0  0  0  0  0  0  0  0  0  0
  -21.1589   -6.0228   25.8556 H   0  0  0  0  0  0  0  0  0  0  0  0
  -22.0396   -2.8212   23.2809 H   0  0  0  0  0  0  0  0  0  0  0  0
  -22.4401  -11.9703   22.4008 H   0  0  0  0  0  0  0  0  0  0  0  0
  -21.1493  -13.0679   22.2082 H   0  0  0  0  0  0  0  0  0  0  0  0
  -24.6538  -15.7807   20.5848 H   0  0  0  0  0  0  0  0  0  0  0  0
  -26.2762  -15.5453   20.1156 H   0  0  0  0  0  0  0  0  0  0  0  0
  -26.6778  -32.4663   23.1464 H   0  0  0  0  0  0  0  0  0  0  0  0
  -25.0747  -34.0282   25.0566 H   0  0  0  0  0  0  0  0  0  0  0  0
  -22.7881  -31.3489   21.4131 H   0  0  0  0  0  0  0  0  0  0  0  0
  -23.3854  -35.9823   23.3648 H   0  0  0  0  0  0  0  0  0  0  0  0
  -24.3696  -36.8624   22.2204 H   0  0  0  0  0  0  0  0  0  0  0  0
  -23.7669  -37.6632   23.6516 H   0  0  0  0  0  0  0  0  0  0  0  0
  -25.9445  -31.6237   20.5691 H   0  0  0  0  0  0  0  0  0  0  0  0
  -26.7436  -31.0079   22.0108 H   0  0  0  0  0  0  0  0  0  0  0  0
  -28.0090  -29.1452   21.2057 H   0  0  0  0  0  0  0  0  0  0  0  0
  -26.1369  -26.0560   19.0719 H   0  0  0  0  0  0  0  0  0  0  0  0
  -24.0652  -27.2961   19.0997 H   0  0  0  0  0  0  0  0  0  0  0  0
  -23.6156  -30.5365   19.3930 H   0  0  0  0  0  0  0  0  0  0  0  0
  -22.7355  -29.1425   19.9945 H   0  0  0  0  0  0  0  0  0  0  0  0
  -25.1353  -36.2335   25.0565 H   0  0  0  0  0  0  0  0  0  0  0  0
  -21.0070  -28.3206   24.0793 H   0  0  0  0  0  0  0  0  0  0  0  0
  -20.5555  -26.2518   23.3550 H   0  0  0  0  0  0  0  0  0  0  0  0
  -21.5974  -26.8362   22.0454 H   0  0  0  0  0  0  0  0  0  0  0  0
  -19.6810  -25.6422   21.1488 H   0  0  0  0  0  0  0  0  0  0  0  0
  -19.6406  -27.3343   20.7034 H   0  0  0  0  0  0  0  0  0  0  0  0
  -17.4282  -26.6888   21.4113 H   0  0  0  0  0  0  0  0  0  0  0  0
  -18.0803  -26.0130   22.9049 H   0  0  0  0  0  0  0  0  0  0  0  0
  -19.7265  -30.6774   24.2204 H   0  0  0  0  0  0  0  0  0  0  0  0
  -17.5064  -31.5856   24.4483 H   0  0  0  0  0  0  0  0  0  0  0  0
  -15.5878  -30.2839   23.7407 H   0  0  0  0  0  0  0  0  0  0  0  0
  -15.9120  -28.0941   22.7766 H   0  0  0  0  0  0  0  0  0  0  0  0
  -24.5787  -30.7757   25.6817 H   0  0  0  0  0  0  0  0  0  0  0  0
  -25.0041  -32.2289   26.5536 H   0  0  0  0  0  0  0  0  0  0  0  0
  -25.8166  -30.7245   26.9138 H   0  0  0  0  0  0  0  0  0  0  0  0
  -26.2892  -29.7335   24.0803 H   0  0  0  0  0  0  0  0  0  0  0  0
  -27.4336  -29.7484   25.4006 H   0  0  0  0  0  0  0  0  0  0  0  0
  -27.8466  -30.4994   23.8779 H   0  0  0  0  0  0  0  0  0  0  0  0
  -27.2251  -33.3632   26.1242 H   0  0  0  0  0  0  0  0  0  0  0  0
  -28.3902  -32.6065   25.0645 H   0  0  0  0  0  0  0  0  0  0  0  0
  -27.9772  -31.8555   26.5872 H   0  0  0  0  0  0  0  0  0  0  0  0
  -28.2744  -38.0016   24.6863 H   0  0  0  0  0  0  0  0  0  0  0  0
  -28.0396  -36.2711   24.7461 H   0  0  0  0  0  0  0  0  0  0  0  0
  -27.1773  -37.3087   25.8564 H   0  0  0  0  0  0  0  0  0  0  0  0
  -20.9627  -29.9365   21.7352 H   0  0  0  0  0  0  0  0  0  0  0  0
  -26.0447  -38.2561   24.0273 H   0  0  0  0  0  0  0  0  0  0  0  0
  -26.7148  -17.9682   17.9122 H   0  0  0  0  0  0  0  0  0  0  0  0
  -24.6841  -19.2226   17.4741 H   0  0  0  0  0  0  0  0  0  0  0  0
  -28.3048  -21.2643   19.9804 H   0  0  0  0  0  0  0  0  0  0  0  0
  -21.2969  -21.3771   17.5008 H   0  0  0  0  0  0  0  0  0  0  0  0
  -21.7245  -22.2206   15.9884 H   0  0  0  0  0  0  0  0  0  0  0  0
  -20.8157  -23.7079   17.7191 H   0  0  0  0  0  0  0  0  0  0  0  0
  -22.4149  -24.1358   17.1741 H   0  0  0  0  0  0  0  0  0  0  0  0
  -24.1317  -22.6113   20.0799 H   0  0  0  0  0  0  0  0  0  0  0  0
  -24.3647  -23.6929   18.6781 H   0  0  0  0  0  0  0  0  0  0  0  0
  -21.7894  -22.5327   19.6453 H   0  0  0  0  0  0  0  0  0  0  0  0
  -21.8065  -24.4249   20.8786 H   0  0  0  0  0  0  0  0  0  0  0  0
  -21.4874  -25.2714   19.4541 H   0  0  0  0  0  0  0  0  0  0  0  0
  -27.9232  -17.0781   18.8574 H   0  0  0  0  0  0  0  0  0  0  0  0
  1 25  1  0
  1 30  2  0
  1 85  1  0
  2  3  1  0
  2 25  1  0
  2 89  1  0
  2 90  1  0
  3  4  1  0
  3 91  1  0
  3 92  1  0
  4  5  1  0
  4 93  1  0
  4 94  1  0
  5  6  1  0
  5 26  1  0
  5 95  1  6
  6 25  1  0
  6 96  1  0
  6 97  1  0
  7  8  2  0
  7 26  1  0
  7 29  1  0
  8  9  1  0
  8 22  1  0
  9 10  1  0
  9 27  2  0
 10 11  2  0
 10 15  1  0
 11 12  1  0
 11 98  1  0
 12 13  2  0
 12 99  1  0
 13 14  1  0
 13 31  1  0
 14 15  2  0
 14100  1  0
 15101  1  0
 16 17  2  0
 16 21  1  0
 16 31  1  0
 17 18  1  0
 17102  1  0
 18 19  2  0
 18103  1  0
 19 20  1  0
 19 24  1  0
 20 21  2  0
 20104  1  0
 21 23  1  0
 22 28  1  0
 22 32  2  0
 26 27  1  0
 28105  1  0
 28106  1  0
 29107  1  0
 29108  1  0
 33 34  1  0
 33 66  1  0
 33 70  2  0
 34 36  1  0
 34 59  1  0
 34109  1  6
 35 44  2  0
 35 45  1  0
 35 68  1  0
 36 56  1  0
 36110  1  0
 37 39  1  0
 37 47  1  0
 37 66  1  0
 37111  1  6
 38 43  2  0
 38 46  1  0
 38 47  1  0
 39 64  1  0
 39 67  2  0
 40 52  1  0
 40 53  2  0
 40 58  1  0
 41112  1  0
 41113  1  0
 41114  1  0
 42 43  1  0
 42 66  1  0
 42115  1  0
 42116  1  0
 43 44  1  0
 44117  1  0
 45 46  2  0
 45118  1  0
 46119  1  0
 47120  1  0
 47121  1  0
 48 41  1  0
 48 56  1  0
 48 65  1  0
 48122  1  1
 49 50  1  0
 49 53  1  0
 49 64  1  0
 49123  1  1
 50 51  1  0
 50124  1  0
 50125  1  0
 51 52  1  0
 51126  1  0
 51127  1  0
 52128  1  0
 52129  1  0
 53 54  1  0
 54 55  2  0
 54130  1  0
 55 57  1  0
 55131  1  0
 56 69  2  0
 57 58  2  0
 57132  1  0
 58133  1  0
 59 60  1  0
 59 61  1  0
 59 62  1  0
 60134  1  0
 60135  1  0
 60136  1  0
 61137  1  0
 61138  1  0
 61139  1  0
 62140  1  0
 62141  1  0
 62142  1  0
 63 65  1  0
 63143  1  0
 63144  1  0
 63145  1  0
 64146  1  0
 65147  1  0
 68 83  1  0
 71 72  2  0
 71 74  1  0
 71148  1  0
 72 75  1  0
 72149  1  0
 73 74  2  0
 73 76  1  0
 73150  1  0
 74 78  1  0
 75 76  2  0
 75 84  1  0
 76 88  1  0
 77 79  1  0
 77 84  1  0
 77 86  2  0
 78 85  1  0
 78 87  2  0
 79 80  1  0
 79151  1  0
 79152  1  0
 80 82  1  0
 80153  1  0
 80154  1  0
 81 82  1  0
 81 84  1  0
 81155  1  0
 81156  1  0
 82 83  1  0
 82157  1  1
 83158  1  0
 83159  1  0
 85160  1  0
M  ISO  4   1 100  68 101  83 101  85 100
M  END
$$$$
70
     RDKit          3D

160169  0  0  0  0  0  0  0  0999 V2000
  -30.7652  -14.3608   20.6636 C   0  0  0  0  0  0  0  0  0100  0  0
  -30.4392  -12.2669   19.3775 C   0  0  0  0  0  0  0  0  0101  0  0
  -29.4791  -12.5281   18.1977 C   0  0  0  0  0  0  0  0  0102  0  0
  -27.9985  -12.3963   18.6038 C   0  0  0  0  0  0  0  0  0103  0  0
  -27.6639  -13.2170   19.8820 C   0  0  2  0  0  0  0  0  0104  0  0
  -28.6795  -12.9602   21.0279 C   0  0  0  0  0  0  0  0  0105  0  0
  -25.2633  -13.8245   20.5754 C   0  0  0  0  0  0  0  0  0106  0  0
  -24.1645  -13.0409   20.9408 C   0  0  0  0  0  0  0  0  0107  0  0
  -24.6400  -11.7009   20.8697 C   0  0  0  0  0  0  0  0  0108  0  0
  -23.9005  -10.4085   21.0420 C   0  0  0  0  0  0  0  0  0109  0  0
  -24.3588   -9.4123   21.9123 C   0  0  0  0  0  0  0  0  0110  0  0
  -23.6296   -8.2350   22.0803 C   0  0  0  0  0  0  0  0  0111  0  0
  -22.4385   -8.0419   21.3657 C   0  0  0  0  0  0  0  0  0112  0  0
  -22.0103   -9.0167   20.4678 C   0  0  0  0  0  0  0  0  0113  0  0
  -22.7317  -10.1925   20.3102 C   0  0  0  0  0  0  0  0  0114  0  0
  -21.6857   -6.0709   22.5391 C   0  0  0  0  0  0  0  0  0115  0  0
  -21.4064   -6.5490   23.8264 C   0  0  0  0  0  0  0  0  0116  0  0
  -21.3635   -5.6677   24.9085 C   0  0  0  0  0  0  0  0  0117  0  0
  -21.5973   -4.3067   24.7088 C   0  0  0  0  0  0  0  0  0118  0  0
  -21.8700   -3.8284   23.4282 C   0  0  0  0  0  0  0  0  0119  0  0
  -21.9144   -4.7056   22.3460 C   0  0  0  0  0  0  0  0  0120  0  0
  -22.8194  -13.5263   21.1763 C   0  0  0  0  0  0  0  0  0121  0  0
  -22.1559   -4.2206   21.1063 F   0  0  0  0  0  0  0  0  0122  0  0
  -21.5628   -3.4510   25.7555 F   0  0  0  0  0  0  0  0  0123  0  0
  -30.0261  -13.1803   20.4553 N   0  0  0  0  0  0  0  0  0124  0  0
  -26.2911  -12.9356   20.3443 N   0  0  0  0  0  0  0  0  0125  0  0
  -25.9236  -11.6675   20.5847 N   0  0  0  0  0  0  0  0  0126  0  0
  -22.0708  -12.7905   22.0005 N   0  0  0  0  0  0  0  0  0127  0  0
  -25.4117  -15.1773   20.4097 N   0  0  0  0  0  0  0  0  0128  0  0
  -31.7916  -14.6724   20.0536 O   0  0  0  0  0  0  0  0  0129  0  0
  -21.6670   -6.9022   21.4423 O   0  0  0  0  0  0  0  0  0130  0  0
  -22.3946  -14.5564   20.6568 O   0  0  0  0  0  0  0  0  0131  0  0
  -24.6048  -31.8614   23.2223 C   0  0  0  0  0  0  0  0  0100  0  0
  -25.8822  -32.4841   23.8616 C   0  0  1  0  0  0  0  0  0101  0  0
  -27.2536  -27.5042   20.1156 C   0  0  0  0  0  0  0  0  0102  0  0
  -25.5726  -33.8762   24.2210 N   0  0  0  0  0  0  0  0  0103  0  0
  -23.4066  -30.4859   21.5461 C   0  0  2  0  0  0  0  0  0104  0  0
  -24.8467  -28.9636   20.1247 C   0  0  0  0  0  0  0  0  0105  0  0
  -22.7412  -29.4652   22.5052 C   0  0  0  0  0  0  0  0  0106  0  0
  -18.0167  -28.1302   22.8626 C   0  0  0  0  0  0  0  0  0107  0  0
  -24.1342  -36.7390   23.2568 C   0  0  0  0  0  0  0  0  0108  0  0
  -25.9141  -30.8882   21.3456 C   0  0  0  0  0  0  0  0  0109  0  0
  -25.9930  -29.5029   20.7208 C   0  0  0  0  0  0  0  0  0110  0  0
  -27.1758  -28.7612   20.7331 C   0  0  0  0  0  0  0  0  0111  0  0
  -26.1032  -26.9836   19.5230 C   0  0  0  0  0  0  0  0  0112  0  0
  -24.9097  -27.7011   19.5331 C   0  0  0  0  0  0  0  0  0113  0  0
  -23.5715  -29.7899   20.1582 C   0  0  0  0  0  0  0  0  0114  0  0
  -25.3990  -36.3212   24.0232 C   0  0  1  0  0  0  0  0  0115  0  0
  -20.5793  -28.3813   23.1004 C   0  0  2  0  0  0  0  0  0116  0  0
  -20.6548  -26.9392   22.5411 C   0  0  0  0  0  0  0  0  0117  0  0
  -19.5615  -26.6407   21.5143 C   0  0  0  0  0  0  0  0  0118  0  0
  -18.1797  -26.7818   22.1673 C   0  0  0  0  0  0  0  0  0119  0  0
  -19.1385  -28.8769   23.2988 C   0  0  0  0  0  0  0  0  0120  0  0
  -18.9183  -30.1286   23.8878 C   0  0  0  0  0  0  0  0  0121  0  0
  -17.6396  -30.6493   24.0352 C   0  0  0  0  0  0  0  0  0122  0  0
  -25.9153  -34.9582   23.4993 C   0  0  0  0  0  0  0  0  0123  0  0
  -16.5415  -29.9068   23.6254 C   0  0  0  0  0  0  0  0  0124  0  0
  -16.7331  -28.6521   23.0586 C   0  0  0  0  0  0  0  0  0125  0  0
  -26.4583  -31.6439   25.0683 C   0  0  0  0  0  0  0  0  0126  0  0
  -25.3807  -31.3179   26.1374 C   0  0  0  0  0  0  0  0  0127  0  0
  -27.0530  -30.3024   24.5680 C   0  0  0  0  0  0  0  0  0128  0  0
  -27.6014  -32.4281   25.7651 C   0  0  0  0  0  0  0  0  0129  0  0
  -27.5629  -37.2220   24.8621 C   0  0  0  0  0  0  0  0  0130  0  0
  -21.4133  -29.3375   22.3735 N   0  0  0  0  0  0  0  0  0131  0  0
  -26.4706  -37.3372   23.9061 N   0  0  0  0  0  0  0  0  0132  0  0
  -24.6674  -31.0544   22.1178 N   0  0  0  0  0  0  0  0  0133  0  0
  -23.4259  -28.8150   23.2971 O   0  0  0  0  0  0  0  0  0134  0  0
  -28.3948  -26.7345   20.0089 O   0  0  0  0  0  0  0  0  0135  0  0
  -26.5870  -34.9065   22.4671 O   0  0  0  0  0  0  0  0  0136  0  0
  -23.5365  -32.1254   23.7833 O   0  0  0  0  0  0  0  0  0137  0  0
  -26.6211  -18.9357   18.2588 C   0  0  0  0  0  0  0  0  0  0  0  0
  -25.4539  -19.6567   18.0070 C   0  0  0  0  0  0  0  0  0  0  0  0
  -27.5350  -20.8302   19.4475 C   0  0  0  0  0  0  0  0  0  0  0  0
  -27.6617  -19.5224   18.9791 C   0  0  0  0  0  0  0  0  0  0  0  0
  -25.3272  -20.9644   18.4754 C   0  0  0  0  0  0  0  0  0  0  0  0
  -26.3678  -21.5512   19.1956 C   0  0  0  0  0  0  0  0  0  0  0  0
  -23.3592  -21.4659   17.0523 C   0  0  0  0  0  0  0  0  0  0  0  0
  -28.9048  -18.7545   19.2470 C   0  0  0  0  0  0  0  0  0  0  0  0
  -21.9641  -22.0609   17.0189 C   0  0  0  0  0  0  0  0  0  0  0  0
  -21.8416  -23.4042   17.7042 C   0  0  0  0  0  0  0  0  0  0  0  0
  -23.8270  -22.8623   19.0854 C   0  0  0  0  0  0  0  0  0  0  0  0
  -22.3572  -23.2778   19.1282 C   0  0  1  0  0  0  0  0  0  0  0  0
  -22.1860  -24.5893   19.8918 C   0  0  0  0  0  0  0  0  0  1  0  0
  -24.1150  -21.7101   18.2119 N   0  0  0  0  0  0  0  0  0  0  0  0
  -28.7584  -17.3678   19.2907 N   0  0  0  0  0  0  0  0  0  0  0  0
  -23.7140  -20.7664   16.0996 O   0  0  0  0  0  0  0  0  0  0  0  0
  -29.9662  -19.3594   19.3717 O   0  0  0  0  0  0  0  0  0  0  0  0
  -26.2575  -22.8078   19.6503 F   0  0  0  0  0  0  0  0  0  0  0  0
  -31.4485  -12.4701   19.0860 H   0  0  0  0  0  0  0  0  0  0  0  0
  -30.3970  -11.2460   19.6950 H   0  0  0  0  0  0  0  0  0  0  0  0
  -29.6870  -11.8204   17.4226 H   0  0  0  0  0  0  0  0  0  0  0  0
  -29.6375  -13.5326   17.8649 H   0  0  0  0  0  0  0  0  0  0  0  0
  -27.7830  -11.3650   18.7904 H   0  0  0  0  0  0  0  0  0  0  0  0
  -27.4028  -12.7801   17.8021 H   0  0  0  0  0  0  0  0  0  0  0  0
  -27.7353  -14.2503   19.6136 H   0  0  0  0  0  0  0  0  0  0  0  0
  -28.5890  -11.9550   21.3832 H   0  0  0  0  0  0  0  0  0  0  0  0
  -28.5005  -13.6134   21.8562 H   0  0  0  0  0  0  0  0  0  0  0  0
  -25.2399   -9.5495   22.4318 H   0  0  0  0  0  0  0  0  0  0  0  0
  -23.9663   -7.5070   22.7297 H   0  0  0  0  0  0  0  0  0  0  0  0
  -21.1515   -8.8641   19.9162 H   0  0  0  0  0  0  0  0  0  0  0  0
  -22.4016  -10.9115   19.6476 H   0  0  0  0  0  0  0  0  0  0  0  0
  -21.2319   -7.5552   23.9750 H   0  0  0  0  0  0  0  0  0  0  0  0
  -21.1589   -6.0228   25.8556 H   0  0  0  0  0  0  0  0  0  0  0  0
  -22.0396   -2.8212   23.2809 H   0  0  0  0  0  0  0  0  0  0  0  0
  -22.4401  -11.9703   22.4008 H   0  0  0  0  0  0  0  0  0  0  0  0
  -21.1493  -13.0679   22.2082 H   0  0  0  0  0  0  0  0  0  0  0  0
  -24.6538  -15.7807   20.5848 H   0  0  0  0  0  0  0  0  0  0  0  0
  -26.2762  -15.5453   20.1156 H   0  0  0  0  0  0  0  0  0  0  0  0
  -26.6778  -32.4663   23.1464 H   0  0  0  0  0  0  0  0  0  0  0  0
  -25.0747  -34.0282   25.0566 H   0  0  0  0  0  0  0  0  0  0  0  0
  -22.7881  -31.3489   21.4131 H   0  0  0  0  0  0  0  0  0  0  0  0
  -23.3854  -35.9823   23.3648 H   0  0  0  0  0  0  0  0  0  0  0  0
  -24.3696  -36.8624   22.2204 H   0  0  0  0  0  0  0  0  0  0  0  0
  -23.7669  -37.6632   23.6516 H   0  0  0  0  0  0  0  0  0  0  0  0
  -25.9445  -31.6237   20.5691 H   0  0  0  0  0  0  0  0  0  0  0  0
  -26.7436  -31.0079   22.0108 H   0  0  0  0  0  0  0  0  0  0  0  0
  -28.0090  -29.1452   21.2057 H   0  0  0  0  0  0  0  0  0  0  0  0
  -26.1369  -26.0560   19.0719 H   0  0  0  0  0  0  0  0  0  0  0  0
  -24.0652  -27.2961   19.0997 H   0  0  0  0  0  0  0  0  0  0  0  0
  -23.6156  -30.5365   19.3930 H   0  0  0  0  0  0  0  0  0  0  0  0
  -22.7355  -29.1425   19.9945 H   0  0  0  0  0  0  0  0  0  0  0  0
  -25.1353  -36.2335   25.0565 H   0  0  0  0  0  0  0  0  0  0  0  0
  -21.0070  -28.3206   24.0793 H   0  0  0  0  0  0  0  0  0  0  0  0
  -20.5555  -26.2518   23.3550 H   0  0  0  0  0  0  0  0  0  0  0  0
  -21.5974  -26.8362   22.0454 H   0  0  0  0  0  0  0  0  0  0  0  0
  -19.6810  -25.6422   21.1488 H   0  0  0  0  0  0  0  0  0  0  0  0
  -19.6406  -27.3343   20.7034 H   0  0  0  0  0  0  0  0  0  0  0  0
  -17.4282  -26.6888   21.4113 H   0  0  0  0  0  0  0  0  0  0  0  0
  -18.0803  -26.0130   22.9049 H   0  0  0  0  0  0  0  0  0  0  0  0
  -19.7265  -30.6774   24.2204 H   0  0  0  0  0  0  0  0  0  0  0  0
  -17.5064  -31.5856   24.4483 H   0  0  0  0  0  0  0  0  0  0  0  0
  -15.5878  -30.2839   23.7407 H   0  0  0  0  0  0  0  0  0  0  0  0
  -15.9120  -28.0941   22.7766 H   0  0  0  0  0  0  0  0  0  0  0  0
  -24.5787  -30.7757   25.6817 H   0  0  0  0  0  0  0  0  0  0  0  0
  -25.0041  -32.2289   26.5536 H   0  0  0  0  0  0  0  0  0  0  0  0
  -25.8166  -30.7245   26.9138 H   0  0  0  0  0  0  0  0  0  0  0  0
  -26.2892  -29.7335   24.0803 H   0  0  0  0  0  0  0  0  0  0  0  0
  -27.4336  -29.7484   25.4006 H   0  0  0  0  0  0  0  0  0  0  0  0
  -27.8466  -30.4994   23.8779 H   0  0  0  0  0  0  0  0  0  0  0  0
  -27.2251  -33.3632   26.1242 H   0  0  0  0  0  0  0  0  0  0  0  0
  -28.3902  -32.6065   25.0645 H   0  0  0  0  0  0  0  0  0  0  0  0
  -27.9772  -31.8555   26.5872 H   0  0  0  0  0  0  0  0  0  0  0  0
  -28.2744  -38.0016   24.6863 H   0  0  0  0  0  0  0  0  0  0  0  0
  -28.0396  -36.2711   24.7461 H   0  0  0  0  0  0  0  0  0  0  0  0
  -27.1773  -37.3087   25.8564 H   0  0  0  0  0  0  0  0  0  0  0  0
  -20.9627  -29.9365   21.7352 H   0  0  0  0  0  0  0  0  0  0  0  0
  -26.0447  -38.2561   24.0273 H   0  0  0  0  0  0  0  0  0  0  0  0
  -26.7148  -17.9682   17.9122 H   0  0  0  0  0  0  0  0  0  0  0  0
  -24.6841  -19.2226   17.4741 H   0  0  0  0  0  0  0  0  0  0  0  0
  -28.3048  -21.2643   19.9804 H   0  0  0  0  0  0  0  0  0  0  0  0
  -21.2969  -21.3771   17.5008 H   0  0  0  0  0  0  0  0  0  0  0  0
  -21.7245  -22.2206   15.9884 H   0  0  0  0  0  0  0  0  0  0  0  0
  -20.8157  -23.7079   17.7191 H   0  0  0  0  0  0  0  0  0  0  0  0
  -22.4149  -24.1358   17.1741 H   0  0  0  0  0  0  0  0  0  0  0  0
  -24.1317  -22.6113   20.0799 H   0  0  0  0  0  0  0  0  0  0  0  0
  -24.3647  -23.6929   18.6781 H   0  0  0  0  0  0  0  0  0  0  0  0
  -21.7894  -22.5327   19.6453 H   0  0  0  0  0  0  0  0  0  0  0  0
  -21.8065  -24.4249   20.8786 H   0  0  0  0  0  0  0  0  0  0  0  0
  -21.4874  -25.2714   19.4541 H   0  0  0  0  0  0  0  0  0  0  0  0
  -27.9232  -17.0781   18.8574 H   0  0  0  0  0  0  0  0  0  0  0  0
  1 25  1  0
  1 30  2  0
  1 85  1  0
  2  3  1  0
  2 25  1  0
  2 89  1  0
  2 90  1  0
  3  4  1  0
  3 91  1  0
  3 92  1  0
  4  5  1  0
  4 93  1  0
  4 94  1  0
  5  6  1  0
  5 26  1  0
  5 95  1  6
  6 25  1  0
  6 96  1  0
  6 97  1  0
  7  8  2  0
  7 26  1  0
  7 29  1  0
  8  9  1  0
  8 22  1  0
  9 10  1  0
  9 27  2  0
 10 11  2  0
 10 15  1  0
 11 12  1  0
 11 98  1  0
 12 13  2  0
 12 99  1  0
 13 14  1  0
 13 31  1  0
 14 15  2  0
 14100  1  0
 15101  1  0
 16 17  2  0
 16 21  1  0
 16 31  1  0
 17 18  1  0
 17102  1  0
 18 19  2  0
 18103  1  0
 19 20  1  0
 19 24  1  0
 20 21  2  0
 20104  1  0
 21 23  1  0
 22 28  1  0
 22 32  2  0
 26 27  1  0
 28105  1  0
 28106  1  0
 29107  1  0
 29108  1  0
 33 34  1  0
 33 66  1  0
 33 70  2  0
 34 36  1  0
 34 59  1  0
 34109  1  6
 35 44  2  0
 35 45  1  0
 35 68  1  0
 36 56  1  0
 36110  1  0
 37 39  1  0
 37 47  1  0
 37 66  1  0
 37111  1  6
 38 43  2  0
 38 46  1  0
 38 47  1  0
 39 64  1  0
 39 67  2  0
 40 52  1  0
 40 53  2  0
 40 58  1  0
 41112  1  0
 41113  1  0
 41114  1  0
 42 43  1  0
 42 66  1  0
 42115  1  0
 42116  1  0
 43 44  1  0
 44117  1  0
 45 46  2  0
 45118  1  0
 46119  1  0
 47120  1  0
 47121  1  0
 48 41  1  0
 48 56  1  0
 48 65  1  0
 48122  1  1
 49 50  1  0
 49 53  1  0
 49 64  1  0
 49123  1  1
 50 51  1  0
 50124  1  0
 50125  1  0
 51 52  1  0
 51126  1  0
 51127  1  0
 52128  1  0
 52129  1  0
 53 54  1  0
 54 55  2  0
 54130  1  0
 55 57  1  0
 55131  1  0
 56 69  2  0
 57 58  2  0
 57132  1  0
 58133  1  0
 59 60  1  0
 59 61  1  0
 59 62  1  0
 60134  1  0
 60135  1  0
 60136  1  0
 61137  1  0
 61138  1  0
 61139  1  0
 62140  1  0
 62141  1  0
 62142  1  0
 63 65  1  0
 63143  1  0
 63144  1  0
 63145  1  0
 64146  1  0
 65147  1  0
 68 83  1  0
 71 72  2  0
 71 74  1  0
 71148  1  0
 72 75  1  0
 72149  1  0
 73 74  2  0
 73 76  1  0
 73150  1  0
 74 78  1  0
 75 76  2  0
 75 84  1  0
 76 88  1  0
 77 79  1  0
 77 84  1  0
 77 86  2  0
 78 85  1  0
 78 87  2  0
 79 80  1  0
 79151  1  0
 79152  1  0
 80 82  1  0
 80153  1  0
 80154  1  0
 81 82  1  0
 81 84  1  0
 81155  1  0
 81156  1  0
 82 83  1  0
 82157  1  1
 83158  1  0
 83159  1  0
 85160  1  0
M  ISO  4   1 100  68 101  83 101  85 100
M  END
$$$$
71
     RDKit          3D

163172  0  0  0  0  0  0  0  0999 V2000
  -30.7652  -14.3608   20.6636 C   0  0  0  0  0  0  0  0  0100  0  0
  -30.4392  -12.2669   19.3775 C   0  0  0  0  0  0  0  0  0101  0  0
  -29.4791  -12.5281   18.1977 C   0  0  0  0  0  0  0  0  0102  0  0
  -27.9985  -12.3963   18.6038 C   0  0  0  0  0  0  0  0  0103  0  0
  -27.6639  -13.2170   19.8820 C   0  0  2  0  0  0  0  0  0104  0  0
  -28.6795  -12.9602   21.0279 C   0  0  0  0  0  0  0  0  0105  0  0
  -25.2633  -13.8245   20.5754 C   0  0  0  0  0  0  0  0  0106  0  0
  -24.1645  -13.0409   20.9408 C   0  0  0  0  0  0  0  0  0107  0  0
  -24.6400  -11.7009   20.8697 C   0  0  0  0  0  0  0  0  0108  0  0
  -23.9005  -10.4085   21.0420 C   0  0  0  0  0  0  0  0  0109  0  0
  -24.3588   -9.4123   21.9123 C   0  0  0  0  0  0  0  0  0110  0  0
  -23.6296   -8.2350   22.0803 C   0  0  0  0  0  0  0  0  0111  0  0
  -22.4385   -8.0419   21.3657 C   0  0  0  0  0  0  0  0  0112  0  0
  -22.0103   -9.0167   20.4678 C   0  0  0  0  0  0  0  0  0113  0  0
  -22.7317  -10.1925   20.3102 C   0  0  0  0  0  0  0  0  0114  0  0
  -21.6857   -6.0709   22.5391 C   0  0  0  0  0  0  0  0  0115  0  0
  -21.4064   -6.5490   23.8264 C   0  0  0  0  0  0  0  0  0116  0  0
  -21.3635   -5.6677   24.9085 C   0  0  0  0  0  0  0  0  0117  0  0
  -21.5973   -4.3067   24.7088 C   0  0  0  0  0  0  0  0  0118  0  0
  -21.8700   -3.8284   23.4282 C   0  0  0  0  0  0  0  0  0119  0  0
  -21.9144   -4.7056   22.3460 C   0  0  0  0  0  0  0  0  0120  0  0
  -22.8194  -13.5263   21.1763 C   0  0  0  0  0  0  0  0  0121  0  0
  -22.1559   -4.2206   21.1063 F   0  0  0  0  0  0  0  0  0122  0  0
  -21.5628   -3.4510   25.7555 F   0  0  0  0  0  0  0  0  0123  0  0
  -30.0261  -13.1803   20.4553 N   0  0  0  0  0  0  0  0  0124  0  0
  -26.2911  -12.9356   20.3443 N   0  0  0  0  0  0  0  0  0125  0  0
  -25.9236  -11.6675   20.5847 N   0  0  0  0  0  0  0  0  0126  0  0
  -22.0708  -12.7905   22.0005 N   0  0  0  0  0  0  0  0  0127  0  0
  -25.4117  -15.1773   20.4097 N   0  0  0  0  0  0  0  0  0128  0  0
  -31.7916  -14.6724   20.0536 O   0  0  0  0  0  0  0  0  0129  0  0
  -21.6670   -6.9022   21.4423 O   0  0  0  0  0  0  0  0  0130  0  0
  -22.3946  -14.5564   20.6568 O   0  0  0  0  0  0  0  0  0131  0  0
  -24.6048  -31.8614   23.2223 C   0  0  0  0  0  0  0  0  0100  0  0
  -25.8822  -32.4841   23.8616 C   0  0  1  0  0  0  0  0  0101  0  0
  -27.2536  -27.5042   20.1156 C   0  0  0  0  0  0  0  0  0102  0  0
  -25.5726  -33.8762   24.2210 N   0  0  0  0  0  0  0  0  0103  0  0
  -23.4066  -30.4859   21.5461 C   0  0  2  0  0  0  0  0  0104  0  0
  -24.8467  -28.9636   20.1247 C   0  0  0  0  0  0  0  0  0105  0  0
  -22.7412  -29.4652   22.5052 C   0  0  0  0  0  0  0  0  0106  0  0
  -18.0167  -28.1302   22.8626 C   0  0  0  0  0  0  0  0  0107  0  0
  -24.1342  -36.7390   23.2568 C   0  0  0  0  0  0  0  0  0108  0  0
  -25.9141  -30.8882   21.3456 C   0  0  0  0  0  0  0  0  0109  0  0
  -25.9930  -29.5029   20.7208 C   0  0  0  0  0  0  0  0  0110  0  0
  -27.1758  -28.7612   20.7331 C   0  0  0  0  0  0  0  0  0111  0  0
  -26.1032  -26.9836   19.5230 C   0  0  0  0  0  0  0  0  0112  0  0
  -24.9097  -27.7011   19.5331 C   0  0  0  0  0  0  0  0  0113  0  0
  -23.5715  -29.7899   20.1582 C   0  0  0  0  0  0  0  0  0114  0  0
  -25.3990  -36.3212   24.0232 C   0  0  1  0  0  0  0  0  0115  0  0
  -20.5793  -28.3813   23.1004 C   0  0  2  0  0  0  0  0  0116  0  0
  -20.6548  -26.9392   22.5411 C   0  0  0  0  0  0  0  0  0117  0  0
  -19.5615  -26.6407   21.5143 C   0  0  0  0  0  0  0  0  0118  0  0
  -18.1797  -26.7818   22.1673 C   0  0  0  0  0  0  0  0  0119  0  0
  -19.1385  -28.8769   23.2988 C   0  0  0  0  0  0  0  0  0120  0  0
  -18.9183  -30.1286   23.8878 C   0  0  0  0  0  0  0  0  0121  0  0
  -17.6396  -30.6493   24.0352 C   0  0  0  0  0  0  0  0  0122  0  0
  -25.9153  -34.9582   23.4993 C   0  0  0  0  0  0  0  0  0123  0  0
  -16.5415  -29.9068   23.6254 C   0  0  0  0  0  0  0  0  0124  0  0
  -16.7331  -28.6521   23.0586 C   0  0  0  0  0  0  0  0  0125  0  0
  -26.4583  -31.6439   25.0683 C   0  0  0  0  0  0  0  0  0126  0  0
  -25.3807  -31.3179   26.1374 C   0  0  0  0  0  0  0  0  0127  0  0
  -27.0530  -30.3024   24.5680 C   0  0  0  0  0  0  0  0  0128  0  0
  -27.6014  -32.4281   25.7651 C   0  0  0  0  0  0  0  0  0129  0  0
  -27.5629  -37.2220   24.8621 C   0  0  0  0  0  0  0  0  0130  0  0
  -21.4133  -29.3375   22.3735 N   0  0  0  0  0  0  0  0  0131  0  0
  -26.4706  -37.3372   23.9061 N   0  0  0  0  0  0  0  0  0132  0  0
  -24.6674  -31.0544   22.1178 N   0  0  0  0  0  0  0  0  0133  0  0
  -23.4259  -28.8150   23.2971 O   0  0  0  0  0  0  0  0  0134  0  0
  -28.3948  -26.7345   20.0089 O   0  0  0  0  0  0  0  0  0135  0  0
  -26.5870  -34.9065   22.4671 O   0  0  0  0  0  0  0  0  0136  0  0
  -23.5365  -32.1254   23.7833 O   0  0  0  0  0  0  0  0  0137  0  0
  -28.1897  -18.2354   17.5028 C   0  0  0  0  0  0  0  0  0  0  0  0
  -27.2620  -19.2765   17.5361 C   0  0  0  0  0  0  0  0  0  0  0  0
  -29.2221  -18.1910   18.4397 C   0  0  0  0  0  0  0  0  0  0  0  0
  -28.3992  -20.2288   19.4432 C   0  0  0  0  0  0  0  0  0  0  0  0
  -27.3667  -20.2732   18.5063 C   0  0  0  0  0  0  0  0  0  0  0  0
  -29.3269  -19.1877   19.4099 C   0  0  0  0  0  0  0  0  0  0  0  0
  -25.5839  -21.6275   19.5400 C   0  0  0  0  0  0  0  0  0  0  0  0
  -24.8106  -22.6747   19.2318 C   0  0  0  0  0  0  0  0  0  0  0  0
  -30.1980  -17.0723   18.3842 C   0  0  0  0  0  0  0  0  0  0  0  0
  -25.1350  -23.1577   17.8460 C   0  0  0  0  0  0  0  0  0  0  0  0
  -26.2530  -22.1963   17.3807 C   0  0  0  0  0  0  0  0  0  0  0  0
  -28.5182  -21.2943   20.4871 C   0  0  0  0  0  0  0  0  0  0  0  0
  -30.0780  -18.4433   21.5401 C   0  0  0  0  0  0  0  0  0  0  0  0
  -23.7696  -23.3210   20.0712 C   0  0  0  0  0  0  0  0  0  1  0  0
  -26.4448  -21.2891   18.5229 N   0  0  0  0  0  0  0  0  0  0  0  0
  -29.6584  -15.7945   18.5339 N   0  0  0  0  0  0  0  0  0  0  0  0
  -31.3823  -17.3216   18.1764 O   0  0  0  0  0  0  0  0  0  0  0  0
  -30.3367  -19.1448   20.3268 O   0  0  0  0  0  0  0  0  0  0  0  0
  -31.4485  -12.4701   19.0860 H   0  0  0  0  0  0  0  0  0  0  0  0
  -30.3970  -11.2460   19.6950 H   0  0  0  0  0  0  0  0  0  0  0  0
  -29.6870  -11.8204   17.4226 H   0  0  0  0  0  0  0  0  0  0  0  0
  -29.6375  -13.5326   17.8649 H   0  0  0  0  0  0  0  0  0  0  0  0
  -27.7830  -11.3650   18.7904 H   0  0  0  0  0  0  0  0  0  0  0  0
  -27.4028  -12.7801   17.8021 H   0  0  0  0  0  0  0  0  0  0  0  0
  -27.7353  -14.2503   19.6136 H   0  0  0  0  0  0  0  0  0  0  0  0
  -28.5890  -11.9550   21.3832 H   0  0  0  0  0  0  0  0  0  0  0  0
  -28.5005  -13.6134   21.8562 H   0  0  0  0  0  0  0  0  0  0  0  0
  -25.2399   -9.5495   22.4318 H   0  0  0  0  0  0  0  0  0  0  0  0
  -23.9663   -7.5070   22.7297 H   0  0  0  0  0  0  0  0  0  0  0  0
  -21.1515   -8.8641   19.9162 H   0  0  0  0  0  0  0  0  0  0  0  0
  -22.4016  -10.9115   19.6476 H   0  0  0  0  0  0  0  0  0  0  0  0
  -21.2319   -7.5552   23.9750 H   0  0  0  0  0  0  0  0  0  0  0  0
  -21.1589   -6.0228   25.8556 H   0  0  0  0  0  0  0  0  0  0  0  0
  -22.0396   -2.8212   23.2809 H   0  0  0  0  0  0  0  0  0  0  0  0
  -22.4401  -11.9703   22.4008 H   0  0  0  0  0  0  0  0  0  0  0  0
  -21.1493  -13.0679   22.2082 H   0  0  0  0  0  0  0  0  0  0  0  0
  -24.6538  -15.7807   20.5848 H   0  0  0  0  0  0  0  0  0  0  0  0
  -26.2762  -15.5453   20.1156 H   0  0  0  0  0  0  0  0  0  0  0  0
  -26.6778  -32.4663   23.1464 H   0  0  0  0  0  0  0  0  0  0  0  0
  -25.0747  -34.0282   25.0566 H   0  0  0  0  0  0  0  0  0  0  0  0
  -22.7881  -31.3489   21.4131 H   0  0  0  0  0  0  0  0  0  0  0  0
  -23.3854  -35.9823   23.3648 H   0  0  0  0  0  0  0  0  0  0  0  0
  -24.3696  -36.8624   22.2204 H   0  0  0  0  0  0  0  0  0  0  0  0
  -23.7669  -37.6632   23.6516 H   0  0  0  0  0  0  0  0  0  0  0  0
  -25.9445  -31.6237   20.5691 H   0  0  0  0  0  0  0  0  0  0  0  0
  -26.7436  -31.0079   22.0108 H   0  0  0  0  0  0  0  0  0  0  0  0
  -28.0090  -29.1452   21.2057 H   0  0  0  0  0  0  0  0  0  0  0  0
  -26.1369  -26.0560   19.0719 H   0  0  0  0  0  0  0  0  0  0  0  0
  -24.0652  -27.2961   19.0997 H   0  0  0  0  0  0  0  0  0  0  0  0
  -23.6156  -30.5365   19.3930 H   0  0  0  0  0  0  0  0  0  0  0  0
  -22.7355  -29.1425   19.9945 H   0  0  0  0  0  0  0  0  0  0  0  0
  -25.1353  -36.2335   25.0565 H   0  0  0  0  0  0  0  0  0  0  0  0
  -21.0070  -28.3206   24.0793 H   0  0  0  0  0  0  0  0  0  0  0  0
  -20.5555  -26.2518   23.3550 H   0  0  0  0  0  0  0  0  0  0  0  0
  -21.5974  -26.8362   22.0454 H   0  0  0  0  0  0  0  0  0  0  0  0
  -19.6810  -25.6422   21.1488 H   0  0  0  0  0  0  0  0  0  0  0  0
  -19.6406  -27.3343   20.7034 H   0  0  0  0  0  0  0  0  0  0  0  0
  -17.4282  -26.6888   21.4113 H   0  0  0  0  0  0  0  0  0  0  0  0
  -18.0803  -26.0130   22.9049 H   0  0  0  0  0  0  0  0  0  0  0  0
  -19.7265  -30.6774   24.2204 H   0  0  0  0  0  0  0  0  0  0  0  0
  -17.5064  -31.5856   24.4483 H   0  0  0  0  0  0  0  0  0  0  0  0
  -15.5878  -30.2839   23.7407 H   0  0  0  0  0  0  0  0  0  0  0  0
  -15.9120  -28.0941   22.7766 H   0  0  0  0  0  0  0  0  0  0  0  0
  -24.5787  -30.7757   25.6817 H   0  0  0  0  0  0  0  0  0  0  0  0
  -25.0041  -32.2289   26.5536 H   0  0  0  0  0  0  0  0  0  0  0  0
  -25.8166  -30.7245   26.9138 H   0  0  0  0  0  0  0  0  0  0  0  0
  -26.2892  -29.7335   24.0803 H   0  0  0  0  0  0  0  0  0  0  0  0
  -27.4336  -29.7484   25.4006 H   0  0  0  0  0  0  0  0  0  0  0  0
  -27.8466  -30.4994   23.8779 H   0  0  0  0  0  0  0  0  0  0  0  0
  -27.2251  -33.3632   26.1242 H   0  0  0  0  0  0  0  0  0  0  0  0
  -28.3902  -32.6065   25.0645 H   0  0  0  0  0  0  0  0  0  0  0  0
  -27.9772  -31.8555   26.5872 H   0  0  0  0  0  0  0  0  0  0  0  0
  -28.2744  -38.0016   24.6863 H   0  0  0  0  0  0  0  0  0  0  0  0
  -28.0396  -36.2711   24.7461 H   0  0  0  0  0  0  0  0  0  0  0  0
  -27.1773  -37.3087   25.8564 H   0  0  0  0  0  0  0  0  0  0  0  0
  -20.9627  -29.9365   21.7352 H   0  0  0  0  0  0  0  0  0  0  0  0
  -26.0447  -38.2561   24.0273 H   0  0  0  0  0  0  0  0  0  0  0  0
  -28.1122  -17.4980   16.7850 H   0  0  0  0  0  0  0  0  0  0  0  0
  -26.4982  -19.3094   16.8429 H   0  0  0  0  0  0  0  0  0  0  0  0
  -25.5391  -21.1284   20.4422 H   0  0  0  0  0  0  0  0  0  0  0  0
  -25.4839  -24.1690   17.8654 H   0  0  0  0  0  0  0  0  0  0  0  0
  -24.2860  -23.1556   17.1947 H   0  0  0  0  0  0  0  0  0  0  0  0
  -27.1528  -22.7348   17.1681 H   0  0  0  0  0  0  0  0  0  0  0  0
  -25.9988  -21.6757   16.4811 H   0  0  0  0  0  0  0  0  0  0  0  0
  -27.7285  -22.0055   20.3625 H   0  0  0  0  0  0  0  0  0  0  0  0
  -29.4621  -21.7881   20.3867 H   0  0  0  0  0  0  0  0  0  0  0  0
  -28.4491  -20.8512   21.4586 H   0  0  0  0  0  0  0  0  0  0  0  0
  -30.9438  -18.4846   22.1675 H   0  0  0  0  0  0  0  0  0  0  0  0
  -29.8459  -17.4224   21.3193 H   0  0  0  0  0  0  0  0  0  0  0  0
  -29.2501  -18.8962   22.0444 H   0  0  0  0  0  0  0  0  0  0  0  0
  -23.5083  -22.8494   20.9954 H   0  0  0  0  0  0  0  0  0  0  0  0
  -22.7504  -23.5490   19.8386 H   0  0  0  0  0  0  0  0  0  0  0  0
  -28.9560  -15.4327   17.9465 H   0  0  0  0  0  0  0  0  0  0  0  0
  1 25  1  0
  1 30  2  0
  1 86  1  0
  2  3  1  0
  2 25  1  0
  2 89  1  0
  2 90  1  0
  3  4  1  0
  3 91  1  0
  3 92  1  0
  4  5  1  0
  4 93  1  0
  4 94  1  0
  5  6  1  0
  5 26  1  0
  5 95  1  6
  6 25  1  0
  6 96  1  0
  6 97  1  0
  7  8  2  0
  7 26  1  0
  7 29  1  0
  8  9  1  0
  8 22  1  0
  9 10  1  0
  9 27  2  0
 10 11  2  0
 10 15  1  0
 11 12  1  0
 11 98  1  0
 12 13  2  0
 12 99  1  0
 13 14  1  0
 13 31  1  0
 14 15  2  0
 14100  1  0
 15101  1  0
 16 17  2  0
 16 21  1  0
 16 31  1  0
 17 18  1  0
 17102  1  0
 18 19  2  0
 18103  1  0
 19 20  1  0
 19 24  1  0
 20 21  2  0
 20104  1  0
 21 23  1  0
 22 28  1  0
 22 32  2  0
 26 27  1  0
 28105  1  0
 28106  1  0
 29107  1  0
 29108  1  0
 33 34  1  0
 33 66  1  0
 33 70  2  0
 34 36  1  0
 34 59  1  0
 34109  1  6
 35 44  2  0
 35 45  1  0
 35 68  1  0
 36 56  1  0
 36110  1  0
 37 39  1  0
 37 47  1  0
 37 66  1  0
 37111  1  6
 38 43  2  0
 38 46  1  0
 38 47  1  0
 39 64  1  0
 39 67  2  0
 40 52  1  0
 40 53  2  0
 40 58  1  0
 41112  1  0
 41113  1  0
 41114  1  0
 42 43  1  0
 42 66  1  0
 42115  1  0
 42116  1  0
 43 44  1  0
 44117  1  0
 45 46  2  0
 45118  1  0
 46119  1  0
 47120  1  0
 47121  1  0
 48 41  1  0
 48 56  1  0
 48 65  1  0
 48122  1  1
 49 50  1  0
 49 53  1  0
 49 64  1  0
 49123  1  1
 50 51  1  0
 50124  1  0
 50125  1  0
 51 52  1  0
 51126  1  0
 51127  1  0
 52128  1  0
 52129  1  0
 53 54  1  0
 54 55  2  0
 54130  1  0
 55 57  1  0
 55131  1  0
 56 69  2  0
 57 58  2  0
 57132  1  0
 58133  1  0
 59 60  1  0
 59 61  1  0
 59 62  1  0
 60134  1  0
 60135  1  0
 60136  1  0
 61137  1  0
 61138  1  0
 61139  1  0
 62140  1  0
 62141  1  0
 62142  1  0
 63 65  1  0
 63143  1  0
 63144  1  0
 63145  1  0
 64146  1  0
 65147  1  0
 68 84  1  0
 71 72  2  0
 71 73  1  0
 71148  1  0
 72 75  1  0
 72149  1  0
 73 76  2  0
 73 79  1  0
 74 75  2  0
 74 76  1  0
 74 82  1  0
 75 85  1  0
 76 88  1  0
 77 78  2  0
 77 85  1  0
 77150  1  0
 78 80  1  0
 78 84  1  0
 79 86  1  0
 79 87  2  0
 80 81  1  0
 80151  1  0
 80152  1  0
 81 85  1  0
 81153  1  0
 81154  1  0
 82155  1  0
 82156  1  0
 82157  1  0
 83 88  1  0
 83158  1  0
 83159  1  0
 83160  1  0
 84161  1  0
 84162  1  0
 86163  1  0
M  ISO  4   1 100  68 101  84 101  86 100
M  END
$$$$
72
     RDKit          3D

152160  0  0  0  0  0  0  0  0999 V2000
  -30.7652  -14.3608   20.6636 C   0  0  0  0  0  0  0  0  0100  0  0
  -30.4392  -12.2669   19.3775 C   0  0  0  0  0  0  0  0  0101  0  0
  -29.4791  -12.5281   18.1977 C   0  0  0  0  0  0  0  0  0102  0  0
  -27.9985  -12.3963   18.6038 C   0  0  0  0  0  0  0  0  0103  0  0
  -27.6639  -13.2170   19.8820 C   0  0  2  0  0  0  0  0  0104  0  0
  -28.6795  -12.9602   21.0279 C   0  0  0  0  0  0  0  0  0105  0  0
  -25.2633  -13.8245   20.5754 C   0  0  0  0  0  0  0  0  0106  0  0
  -24.1645  -13.0409   20.9408 C   0  0  0  0  0  0  0  0  0107  0  0
  -24.6400  -11.7009   20.8697 C   0  0  0  0  0  0  0  0  0108  0  0
  -23.9005  -10.4085   21.0420 C   0  0  0  0  0  0  0  0  0109  0  0
  -24.3588   -9.4123   21.9123 C   0  0  0  0  0  0  0  0  0110  0  0
  -23.6296   -8.2350   22.0803 C   0  0  0  0  0  0  0  0  0111  0  0
  -22.4385   -8.0419   21.3657 C   0  0  0  0  0  0  0  0  0112  0  0
  -22.0103   -9.0167   20.4678 C   0  0  0  0  0  0  0  0  0113  0  0
  -22.7317  -10.1925   20.3102 C   0  0  0  0  0  0  0  0  0114  0  0
  -21.6857   -6.0709   22.5391 C   0  0  0  0  0  0  0  0  0115  0  0
  -21.4064   -6.5490   23.8264 C   0  0  0  0  0  0  0  0  0116  0  0
  -21.3635   -5.6677   24.9085 C   0  0  0  0  0  0  0  0  0117  0  0
  -21.5973   -4.3067   24.7088 C   0  0  0  0  0  0  0  0  0118  0  0
  -21.8700   -3.8284   23.4282 C   0  0  0  0  0  0  0  0  0119  0  0
  -21.9144   -4.7056   22.3460 C   0  0  0  0  0  0  0  0  0120  0  0
  -22.8194  -13.5263   21.1763 C   0  0  0  0  0  0  0  0  0121  0  0
  -22.1559   -4.2206   21.1063 F   0  0  0  0  0  0  0  0  0122  0  0
  -21.5628   -3.4510   25.7555 F   0  0  0  0  0  0  0  0  0123  0  0
  -30.0261  -13.1803   20.4553 N   0  0  0  0  0  0  0  0  0124  0  0
  -26.2911  -12.9356   20.3443 N   0  0  0  0  0  0  0  0  0125  0  0
  -25.9236  -11.6675   20.5847 N   0  0  0  0  0  0  0  0  0126  0  0
  -22.0708  -12.7905   22.0005 N   0  0  0  0  0  0  0  0  0127  0  0
  -25.4117  -15.1773   20.4097 N   0  0  0  0  0  0  0  0  0128  0  0
  -31.7916  -14.6724   20.0536 O   0  0  0  0  0  0  0  0  0129  0  0
  -21.6670   -6.9022   21.4423 O   0  0  0  0  0  0  0  0  0130  0  0
  -22.3946  -14.5564   20.6568 O   0  0  0  0  0  0  0  0  0131  0  0
  -24.6048  -31.8614   23.2223 C   0  0  0  0  0  0  0  0  0100  0  0
  -25.8822  -32.4841   23.8616 C   0  0  1  0  0  0  0  0  0101  0  0
  -27.2536  -27.5042   20.1156 C   0  0  0  0  0  0  0  0  0102  0  0
  -25.5726  -33.8762   24.2210 N   0  0  0  0  0  0  0  0  0103  0  0
  -23.4066  -30.4859   21.5461 C   0  0  2  0  0  0  0  0  0104  0  0
  -24.8467  -28.9636   20.1247 C   0  0  0  0  0  0  0  0  0105  0  0
  -22.7412  -29.4652   22.5052 C   0  0  0  0  0  0  0  0  0106  0  0
  -18.0167  -28.1302   22.8626 C   0  0  0  0  0  0  0  0  0107  0  0
  -24.1342  -36.7390   23.2568 C   0  0  0  0  0  0  0  0  0108  0  0
  -25.9141  -30.8882   21.3456 C   0  0  0  0  0  0  0  0  0109  0  0
  -25.9930  -29.5029   20.7208 C   0  0  0  0  0  0  0  0  0110  0  0
  -27.1758  -28.7612   20.7331 C   0  0  0  0  0  0  0  0  0111  0  0
  -26.1032  -26.9836   19.5230 C   0  0  0  0  0  0  0  0  0112  0  0
  -24.9097  -27.7011   19.5331 C   0  0  0  0  0  0  0  0  0113  0  0
  -23.5715  -29.7899   20.1582 C   0  0  0  0  0  0  0  0  0114  0  0
  -25.3990  -36.3212   24.0232 C   0  0  1  0  0  0  0  0  0115  0  0
  -20.5793  -28.3813   23.1004 C   0  0  2  0  0  0  0  0  0116  0  0
  -20.6548  -26.9392   22.5411 C   0  0  0  0  0  0  0  0  0117  0  0
  -19.5615  -26.6407   21.5143 C   0  0  0  0  0  0  0  0  0118  0  0
  -18.1797  -26.7818   22.1673 C   0  0  0  0  0  0  0  0  0119  0  0
  -19.1385  -28.8769   23.2988 C   0  0  0  0  0  0  0  0  0120  0  0
  -18.9183  -30.1286   23.8878 C   0  0  0  0  0  0  0  0  0121  0  0
  -17.6396  -30.6493   24.0352 C   0  0  0  0  0  0  0  0  0122  0  0
  -25.9153  -34.9582   23.4993 C   0  0  0  0  0  0  0  0  0123  0  0
  -16.5415  -29.9068   23.6254 C   0  0  0  0  0  0  0  0  0124  0  0
  -16.7331  -28.6521   23.0586 C   0  0  0  0  0  0  0  0  0125  0  0
  -26.4583  -31.6439   25.0683 C   0  0  0  0  0  0  0  0  0126  0  0
  -25.3807  -31.3179   26.1374 C   0  0  0  0  0  0  0  0  0127  0  0
  -27.0530  -30.3024   24.5680 C   0  0  0  0  0  0  0  0  0128  0  0
  -27.6014  -32.4281   25.7651 C   0  0  0  0  0  0  0  0  0129  0  0
  -27.5629  -37.2220   24.8621 C   0  0  0  0  0  0  0  0  0130  0  0
  -21.4133  -29.3375   22.3735 N   0  0  0  0  0  0  0  0  0131  0  0
  -26.4706  -37.3372   23.9061 N   0  0  0  0  0  0  0  0  0132  0  0
  -24.6674  -31.0544   22.1178 N   0  0  0  0  0  0  0  0  0133  0  0
  -23.4259  -28.8150   23.2971 O   0  0  0  0  0  0  0  0  0134  0  0
  -28.3948  -26.7345   20.0089 O   0  0  0  0  0  0  0  0  0135  0  0
  -26.5870  -34.9065   22.4671 O   0  0  0  0  0  0  0  0  0136  0  0
  -23.5365  -32.1254   23.7833 O   0  0  0  0  0  0  0  0  0137  0  0
  -24.4634  -29.1777   21.3658 C   0  0  0  0  0  0  0  0  0  0  0  0
  -25.7944  -29.3554   20.8895 C   0  0  0  0  0  0  0  0  0  0  0  0
  -23.8649  -30.3759   21.6881 C   0  0  0  0  0  0  0  0  0  0  0  0
  -26.1625  -30.6827   20.8657 C   0  0  0  0  0  0  0  0  0  0  0  0
  -22.4980  -30.6226   22.2150 C   0  0  0  0  0  0  0  0  0  0  0  0
  -27.4490  -26.0755   20.5601 C   0  0  0  0  0  0  0  0  0  0  0  0
  -27.4473  -31.2822   20.4408 C   0  0  0  0  0  0  0  0  0  0  0  0
  -27.3633  -24.6800   21.1435 C   0  0  0  0  0  0  0  0  0  1  0  0
  -26.4696  -27.0867   21.1197 C   0  0  0  0  0  0  0  0  0  0  0  0
  -21.7134  -29.4856   22.4101 N   0  0  0  0  0  0  0  0  0  0  0  0
  -22.1576  -31.7724   22.4795 O   0  0  0  0  0  0  0  0  0  0  0  0
  -28.2630  -26.3690   19.6858 O   0  0  0  0  0  0  0  0  0  0  0  0
  -26.6343  -28.3415   20.4936 O   0  0  0  0  0  0  0  0  0  0  0  0
  -24.9062  -31.7078   21.4162 S   0  0  0  0  0  0  0  0  0  0  0  0
  -31.4485  -12.4701   19.0860 H   0  0  0  0  0  0  0  0  0  0  0  0
  -30.3970  -11.2460   19.6950 H   0  0  0  0  0  0  0  0  0  0  0  0
  -29.6870  -11.8204   17.4226 H   0  0  0  0  0  0  0  0  0  0  0  0
  -29.6375  -13.5326   17.8649 H   0  0  0  0  0  0  0  0  0  0  0  0
  -27.7830  -11.3650   18.7904 H   0  0  0  0  0  0  0  0  0  0  0  0
  -27.4028  -12.7801   17.8021 H   0  0  0  0  0  0  0  0  0  0  0  0
  -27.7353  -14.2503   19.6136 H   0  0  0  0  0  0  0  0  0  0  0  0
  -28.5890  -11.9550   21.3832 H   0  0  0  0  0  0  0  0  0  0  0  0
  -28.5005  -13.6134   21.8562 H   0  0  0  0  0  0  0  0  0  0  0  0
  -25.2399   -9.5495   22.4318 H   0  0  0  0  0  0  0  0  0  0  0  0
  -23.9663   -7.5070   22.7297 H   0  0  0  0  0  0  0  0  0  0  0  0
  -21.1515   -8.8641   19.9162 H   0  0  0  0  0  0  0  0  0  0  0  0
  -22.4016  -10.9115   19.6476 H   0  0  0  0  0  0  0  0  0  0  0  0
  -21.2319   -7.5552   23.9750 H   0  0  0  0  0  0  0  0  0  0  0  0
  -21.1589   -6.0228   25.8556 H   0  0  0  0  0  0  0  0  0  0  0  0
  -22.0396   -2.8212   23.2809 H   0  0  0  0  0  0  0  0  0  0  0  0
  -22.4401  -11.9703   22.4008 H   0  0  0  0  0  0  0  0  0  0  0  0
  -21.1493  -13.0679   22.2082 H   0  0  0  0  0  0  0  0  0  0  0  0
  -24.6538  -15.7807   20.5848 H   0  0  0  0  0  0  0  0  0  0  0  0
  -26.2762  -15.5453   20.1156 H   0  0  0  0  0  0  0  0  0  0  0  0
  -26.6778  -32.4663   23.1464 H   0  0  0  0  0  0  0  0  0  0  0  0
  -25.0747  -34.0282   25.0566 H   0  0  0  0  0  0  0  0  0  0  0  0
  -22.7881  -31.3489   21.4131 H   0  0  0  0  0  0  0  0  0  0  0  0
  -23.3854  -35.9823   23.3648 H   0  0  0  0  0  0  0  0  0  0  0  0
  -24.3696  -36.8624   22.2204 H   0  0  0  0  0  0  0  0  0  0  0  0
  -23.7669  -37.6632   23.6516 H   0  0  0  0  0  0  0  0  0  0  0  0
  -25.9445  -31.6237   20.5691 H   0  0  0  0  0  0  0  0  0  0  0  0
  -26.7436  -31.0079   22.0108 H   0  0  0  0  0  0  0  0  0  0  0  0
  -28.0090  -29.1452   21.2057 H   0  0  0  0  0  0  0  0  0  0  0  0
  -26.1369  -26.0560   19.0719 H   0  0  0  0  0  0  0  0  0  0  0  0
  -24.0652  -27.2961   19.0997 H   0  0  0  0  0  0  0  0  0  0  0  0
  -23.6156  -30.5365   19.3930 H   0  0  0  0  0  0  0  0  0  0  0  0
  -22.7355  -29.1425   19.9945 H   0  0  0  0  0  0  0  0  0  0  0  0
  -25.1353  -36.2335   25.0565 H   0  0  0  0  0  0  0  0  0  0  0  0
  -21.0070  -28.3206   24.0793 H   0  0  0  0  0  0  0  0  0  0  0  0
  -20.5555  -26.2518   23.3550 H   0  0  0  0  0  0  0  0  0  0  0  0
  -21.5974  -26.8362   22.0454 H   0  0  0  0  0  0  0  0  0  0  0  0
  -19.6810  -25.6422   21.1488 H   0  0  0  0  0  0  0  0  0  0  0  0
  -19.6406  -27.3343   20.7034 H   0  0  0  0  0  0  0  0  0  0  0  0
  -17.4282  -26.6888   21.4113 H   0  0  0  0  0  0  0  0  0  0  0  0
  -18.0803  -26.0130   22.9049 H   0  0  0  0  0  0  0  0  0  0  0  0
  -19.7265  -30.6774   24.2204 H   0  0  0  0  0  0  0  0  0  0  0  0
  -17.5064  -31.5856   24.4483 H   0  0  0  0  0  0  0  0  0  0  0  0
  -15.5878  -30.2839   23.7407 H   0  0  0  0  0  0  0  0  0  0  0  0
  -15.9120  -28.0941   22.7766 H   0  0  0  0  0  0  0  0  0  0  0  0
  -24.5787  -30.7757   25.6817 H   0  0  0  0  0  0  0  0  0  0  0  0
  -25.0041  -32.2289   26.5536 H   0  0  0  0  0  0  0  0  0  0  0  0
  -25.8166  -30.7245   26.9138 H   0  0  0  0  0  0  0  0  0  0  0  0
  -26.2892  -29.7335   24.0803 H   0  0  0  0  0  0  0  0  0  0  0  0
  -27.4336  -29.7484   25.4006 H   0  0  0  0  0  0  0  0  0  0  0  0
  -27.8466  -30.4994   23.8779 H   0  0  0  0  0  0  0  0  0  0  0  0
  -27.2251  -33.3632   26.1242 H   0  0  0  0  0  0  0  0  0  0  0  0
  -28.3902  -32.6065   25.0645 H   0  0  0  0  0  0  0  0  0  0  0  0
  -27.9772  -31.8555   26.5872 H   0  0  0  0  0  0  0  0  0  0  0  0
  -28.2744  -38.0016   24.6863 H   0  0  0  0  0  0  0  0  0  0  0  0
  -28.0396  -36.2711   24.7461 H   0  0  0  0  0  0  0  0  0  0  0  0
  -27.1773  -37.3087   25.8564 H   0  0  0  0  0  0  0  0  0  0  0  0
  -20.9627  -29.9365   21.7352 H   0  0  0  0  0  0  0  0  0  0  0  0
  -26.0447  -38.2561   24.0273 H   0  0  0  0  0  0  0  0  0  0  0  0
  -24.0019  -28.2593   21.4585 H   0  0  0  0  0  0  0  0  0  0  0  0
  -28.1163  -30.5077   20.1285 H   0  0  0  0  0  0  0  0  0  0  0  0
  -27.8793  -31.8177   21.2603 H   0  0  0  0  0  0  0  0  0  0  0  0
  -27.2751  -31.9546   19.6265 H   0  0  0  0  0  0  0  0  0  0  0  0
  -26.9813  -23.8268   20.6229 H   0  0  0  0  0  0  0  0  0  0  0  0
  -27.2956  -24.0653   22.0167 H   0  0  0  0  0  0  0  0  0  0  0  0
  -26.6380  -27.1940   22.1709 H   0  0  0  0  0  0  0  0  0  0  0  0
  -25.4744  -26.7391   20.9363 H   0  0  0  0  0  0  0  0  0  0  0  0
  -20.7529  -29.5204   22.6235 H   0  0  0  0  0  0  0  0  0  0  0  0
  1 25  1  0
  1 30  2  0
  1 80  1  0
  2  3  1  0
  2 25  1  0
  2 85  1  0
  2 86  1  0
  3  4  1  0
  3 87  1  0
  3 88  1  0
  4  5  1  0
  4 89  1  0
  4 90  1  0
  5  6  1  0
  5 26  1  0
  5 91  1  6
  6 25  1  0
  6 92  1  0
  6 93  1  0
  7  8  2  0
  7 26  1  0
  7 29  1  0
  8  9  1  0
  8 22  1  0
  9 10  1  0
  9 27  2  0
 10 11  2  0
 10 15  1  0
 11 12  1  0
 11 94  1  0
 12 13  2  0
 12 95  1  0
 13 14  1  0
 13 31  1  0
 14 15  2  0
 14 96  1  0
 15 97  1  0
 16 17  2  0
 16 21  1  0
 16 31  1  0
 17 18  1  0
 17 98  1  0
 18 19  2  0
 18 99  1  0
 19 20  1  0
 19 24  1  0
 20 21  2  0
 20100  1  0
 21 23  1  0
 22 28  1  0
 22 32  2  0
 26 27  1  0
 28101  1  0
 28102  1  0
 29103  1  0
 29104  1  0
 33 34  1  0
 33 66  1  0
 33 70  2  0
 34 36  1  0
 34 59  1  0
 34105  1  6
 35 44  2  0
 35 45  1  0
 35 68  1  0
 36 56  1  0
 36106  1  0
 37 39  1  0
 37 47  1  0
 37 66  1  0
 37107  1  6
 38 43  2  0
 38 46  1  0
 38 47  1  0
 39 64  1  0
 39 67  2  0
 40 52  1  0
 40 53  2  0
 40 58  1  0
 41108  1  0
 41109  1  0
 41110  1  0
 42 43  1  0
 42 66  1  0
 42111  1  0
 42112  1  0
 43 44  1  0
 44113  1  0
 45 46  2  0
 45114  1  0
 46115  1  0
 47116  1  0
 47117  1  0
 48 41  1  0
 48 56  1  0
 48 65  1  0
 48118  1  1
 49 50  1  0
 49 53  1  0
 49 64  1  0
 49119  1  1
 50 51  1  0
 50120  1  0
 50121  1  0
 51 52  1  0
 51122  1  0
 51123  1  0
 52124  1  0
 52125  1  0
 53 54  1  0
 54 55  2  0
 54126  1  0
 55 57  1  0
 55127  1  0
 56 69  2  0
 57 58  2  0
 57128  1  0
 58129  1  0
 59 60  1  0
 59 61  1  0
 59 62  1  0
 60130  1  0
 60131  1  0
 60132  1  0
 61133  1  0
 61134  1  0
 61135  1  0
 62136  1  0
 62137  1  0
 62138  1  0
 63 65  1  0
 63139  1  0
 63140  1  0
 63141  1  0
 64142  1  0
 65143  1  0
 68 78  1  0
 71 72  1  0
 71 73  2  0
 71144  1  0
 72 74  2  0
 72 83  1  0
 73 75  1  0
 73 84  1  0
 74 77  1  0
 74 84  1  0
 75 80  1  0
 75 81  2  0
 76 78  1  0
 76 79  1  0
 76 82  2  0
 77145  1  0
 77146  1  0
 77147  1  0
 78148  1  0
 78149  1  0
 79 83  1  0
 79150  1  0
 79151  1  0
 80152  1  0
M  ISO  4   1 100  68 101  78 101  80 100
M  END
$$$$
73
     RDKit          3D

168177  0  0  0  0  0  0  0  0999 V2000
  -30.7652  -14.3608   20.6636 C   0  0  0  0  0  0  0  0  0100  0  0
  -30.4392  -12.2669   19.3775 C   0  0  0  0  0  0  0  0  0101  0  0
  -29.4791  -12.5281   18.1977 C   0  0  0  0  0  0  0  0  0102  0  0
  -27.9985  -12.3963   18.6038 C   0  0  0  0  0  0  0  0  0103  0  0
  -27.6639  -13.2170   19.8820 C   0  0  2  0  0  0  0  0  0104  0  0
  -28.6795  -12.9602   21.0279 C   0  0  0  0  0  0  0  0  0105  0  0
  -25.2633  -13.8245   20.5754 C   0  0  0  0  0  0  0  0  0106  0  0
  -24.1645  -13.0409   20.9408 C   0  0  0  0  0  0  0  0  0107  0  0
  -24.6400  -11.7009   20.8697 C   0  0  0  0  0  0  0  0  0108  0  0
  -23.9005  -10.4085   21.0420 C   0  0  0  0  0  0  0  0  0109  0  0
  -24.3588   -9.4123   21.9123 C   0  0  0  0  0  0  0  0  0110  0  0
  -23.6296   -8.2350   22.0803 C   0  0  0  0  0  0  0  0  0111  0  0
  -22.4385   -8.0419   21.3657 C   0  0  0  0  0  0  0  0  0112  0  0
  -22.0103   -9.0167   20.4678 C   0  0  0  0  0  0  0  0  0113  0  0
  -22.7317  -10.1925   20.3102 C   0  0  0  0  0  0  0  0  0114  0  0
  -21.6857   -6.0709   22.5391 C   0  0  0  0  0  0  0  0  0115  0  0
  -21.4064   -6.5490   23.8264 C   0  0  0  0  0  0  0  0  0116  0  0
  -21.3635   -5.6677   24.9085 C   0  0  0  0  0  0  0  0  0117  0  0
  -21.5973   -4.3067   24.7088 C   0  0  0  0  0  0  0  0  0118  0  0
  -21.8700   -3.8284   23.4282 C   0  0  0  0  0  0  0  0  0119  0  0
  -21.9144   -4.7056   22.3460 C   0  0  0  0  0  0  0  0  0120  0  0
  -22.8194  -13.5263   21.1763 C   0  0  0  0  0  0  0  0  0121  0  0
  -22.1559   -4.2206   21.1063 F   0  0  0  0  0  0  0  0  0122  0  0
  -21.5628   -3.4510   25.7555 F   0  0  0  0  0  0  0  0  0123  0  0
  -30.0261  -13.1803   20.4553 N   0  0  0  0  0  0  0  0  0124  0  0
  -26.2911  -12.9356   20.3443 N   0  0  0  0  0  0  0  0  0125  0  0
  -25.9236  -11.6675   20.5847 N   0  0  0  0  0  0  0  0  0126  0  0
  -22.0708  -12.7905   22.0005 N   0  0  0  0  0  0  0  0  0127  0  0
  -25.4117  -15.1773   20.4097 N   0  0  0  0  0  0  0  0  0128  0  0
  -31.7916  -14.6724   20.0536 O   0  0  0  0  0  0  0  0  0129  0  0
  -21.6670   -6.9022   21.4423 O   0  0  0  0  0  0  0  0  0130  0  0
  -22.3946  -14.5564   20.6568 O   0  0  0  0  0  0  0  0  0131  0  0
  -24.6048  -31.8614   23.2223 C   0  0  0  0  0  0  0  0  0100  0  0
  -25.8822  -32.4841   23.8616 C   0  0  1  0  0  0  0  0  0101  0  0
  -27.2536  -27.5042   20.1156 C   0  0  0  0  0  0  0  0  0102  0  0
  -25.5726  -33.8762   24.2210 N   0  0  0  0  0  0  0  0  0103  0  0
  -23.4066  -30.4859   21.5461 C   0  0  2  0  0  0  0  0  0104  0  0
  -24.8467  -28.9636   20.1247 C   0  0  0  0  0  0  0  0  0105  0  0
  -22.7412  -29.4652   22.5052 C   0  0  0  0  0  0  0  0  0106  0  0
  -18.0167  -28.1302   22.8626 C   0  0  0  0  0  0  0  0  0107  0  0
  -24.1342  -36.7390   23.2568 C   0  0  0  0  0  0  0  0  0108  0  0
  -25.9141  -30.8882   21.3456 C   0  0  0  0  0  0  0  0  0109  0  0
  -25.9930  -29.5029   20.7208 C   0  0  0  0  0  0  0  0  0110  0  0
  -27.1758  -28.7612   20.7331 C   0  0  0  0  0  0  0  0  0111  0  0
  -26.1032  -26.9836   19.5230 C   0  0  0  0  0  0  0  0  0112  0  0
  -24.9097  -27.7011   19.5331 C   0  0  0  0  0  0  0  0  0113  0  0
  -23.5715  -29.7899   20.1582 C   0  0  0  0  0  0  0  0  0114  0  0
  -25.3990  -36.3212   24.0232 C   0  0  1  0  0  0  0  0  0115  0  0
  -20.5793  -28.3813   23.1004 C   0  0  2  0  0  0  0  0  0116  0  0
  -20.6548  -26.9392   22.5411 C   0  0  0  0  0  0  0  0  0117  0  0
  -19.5615  -26.6407   21.5143 C   0  0  0  0  0  0  0  0  0118  0  0
  -18.1797  -26.7818   22.1673 C   0  0  0  0  0  0  0  0  0119  0  0
  -19.1385  -28.8769   23.2988 C   0  0  0  0  0  0  0  0  0120  0  0
  -18.9183  -30.1286   23.8878 C   0  0  0  0  0  0  0  0  0121  0  0
  -17.6396  -30.6493   24.0352 C   0  0  0  0  0  0  0  0  0122  0  0
  -25.9153  -34.9582   23.4993 C   0  0  0  0  0  0  0  0  0123  0  0
  -16.5415  -29.9068   23.6254 C   0  0  0  0  0  0  0  0  0124  0  0
  -16.7331  -28.6521   23.0586 C   0  0  0  0  0  0  0  0  0125  0  0
  -26.4583  -31.6439   25.0683 C   0  0  0  0  0  0  0  0  0126  0  0
  -25.3807  -31.3179   26.1374 C   0  0  0  0  0  0  0  0  0127  0  0
  -27.0530  -30.3024   24.5680 C   0  0  0  0  0  0  0  0  0128  0  0
  -27.6014  -32.4281   25.7651 C   0  0  0  0  0  0  0  0  0129  0  0
  -27.5629  -37.2220   24.8621 C   0  0  0  0  0  0  0  0  0130  0  0
  -21.4133  -29.3375   22.3735 N   0  0  0  0  0  0  0  0  0131  0  0
  -26.4706  -37.3372   23.9061 N   0  0  0  0  0  0  0  0  0132  0  0
  -24.6674  -31.0544   22.1178 N   0  0  0  0  0  0  0  0  0133  0  0
  -23.4259  -28.8150   23.2971 O   0  0  0  0  0  0  0  0  0134  0  0
  -28.3948  -26.7345   20.0089 O   0  0  0  0  0  0  0  0  0135  0  0
  -26.5870  -34.9065   22.4671 O   0  0  0  0  0  0  0  0  0136  0  0
  -23.5365  -32.1254   23.7833 O   0  0  0  0  0  0  0  0  0137  0  0
  -26.8731  -17.0240   15.9696 C   0  0  0  0  0  0  0  0  0  0  0  0
  -25.7561  -17.7464   15.5500 C   0  0  0  0  0  0  0  0  0  0  0  0
  -28.1128  -19.0832   16.2146 C   0  0  0  0  0  0  0  0  0  0  0  0
  -28.0515  -17.6924   16.3020 C   0  0  0  0  0  0  0  0  0  0  0  0
  -25.8174  -19.1372   15.4627 C   0  0  0  0  0  0  0  0  0  0  0  0
  -26.9957  -19.8056   15.7950 C   0  0  0  0  0  0  0  0  0  0  0  0
  -22.6124  -18.5760   15.6296 C   0  0  0  0  0  0  0  0  0  0  0  0
  -29.2411  -16.9229   16.7483 C   0  0  0  0  0  0  0  0  0  0  0  0
  -21.3987  -18.4391   16.5280 C   0  0  0  0  0  0  0  0  0  0  0  0
  -21.5750  -19.0163   17.9187 C   0  0  0  0  0  0  0  0  0  0  0  0
  -23.4159  -20.4575   17.1004 C   0  0  0  0  0  0  0  0  0  0  0  0
  -22.0649  -20.4540   17.8089 C   0  0  2  0  0  0  0  0  0  0  0  0
  -27.9217  -21.9933   16.5581 C   0  0  0  0  0  0  0  0  0  0  0  0
  -24.6011  -19.8888   15.0048 C   0  0  0  0  0  0  0  0  0  0  0  0
  -22.1725  -21.1055   19.1854 C   0  0  0  0  0  0  0  0  0  1  0  0
  -23.4566  -19.6566   15.8760 N   0  0  0  0  0  0  0  0  0  0  0  0
  -27.0761  -21.2131   15.7103 N   0  0  0  0  0  0  0  0  0  0  0  0
  -28.9716  -15.6971   17.3576 N   0  0  0  0  0  0  0  0  0  0  0  0
  -22.7520  -17.7886   14.6895 O   0  0  0  0  0  0  0  0  0  0  0  0
  -30.3620  -17.3736   16.5283 O   0  0  0  0  0  0  0  0  0  0  0  0
  -31.4485  -12.4701   19.0860 H   0  0  0  0  0  0  0  0  0  0  0  0
  -30.3970  -11.2460   19.6950 H   0  0  0  0  0  0  0  0  0  0  0  0
  -29.6870  -11.8204   17.4226 H   0  0  0  0  0  0  0  0  0  0  0  0
  -29.6375  -13.5326   17.8649 H   0  0  0  0  0  0  0  0  0  0  0  0
  -27.7830  -11.3650   18.7904 H   0  0  0  0  0  0  0  0  0  0  0  0
  -27.4028  -12.7801   17.8021 H   0  0  0  0  0  0  0  0  0  0  0  0
  -27.7353  -14.2503   19.6136 H   0  0  0  0  0  0  0  0  0  0  0  0
  -28.5890  -11.9550   21.3832 H   0  0  0  0  0  0  0  0  0  0  0  0
  -28.5005  -13.6134   21.8562 H   0  0  0  0  0  0  0  0  0  0  0  0
  -25.2399   -9.5495   22.4318 H   0  0  0  0  0  0  0  0  0  0  0  0
  -23.9663   -7.5070   22.7297 H   0  0  0  0  0  0  0  0  0  0  0  0
  -21.1515   -8.8641   19.9162 H   0  0  0  0  0  0  0  0  0  0  0  0
  -22.4016  -10.9115   19.6476 H   0  0  0  0  0  0  0  0  0  0  0  0
  -21.2319   -7.5552   23.9750 H   0  0  0  0  0  0  0  0  0  0  0  0
  -21.1589   -6.0228   25.8556 H   0  0  0  0  0  0  0  0  0  0  0  0
  -22.0396   -2.8212   23.2809 H   0  0  0  0  0  0  0  0  0  0  0  0
  -22.4401  -11.9703   22.4008 H   0  0  0  0  0  0  0  0  0  0  0  0
  -21.1493  -13.0679   22.2082 H   0  0  0  0  0  0  0  0  0  0  0  0
  -24.6538  -15.7807   20.5848 H   0  0  0  0  0  0  0  0  0  0  0  0
  -26.2762  -15.5453   20.1156 H   0  0  0  0  0  0  0  0  0  0  0  0
  -26.6778  -32.4663   23.1464 H   0  0  0  0  0  0  0  0  0  0  0  0
  -25.0747  -34.0282   25.0566 H   0  0  0  0  0  0  0  0  0  0  0  0
  -22.7881  -31.3489   21.4131 H   0  0  0  0  0  0  0  0  0  0  0  0
  -23.3854  -35.9823   23.3648 H   0  0  0  0  0  0  0  0  0  0  0  0
  -24.3696  -36.8624   22.2204 H   0  0  0  0  0  0  0  0  0  0  0  0
  -23.7669  -37.6632   23.6516 H   0  0  0  0  0  0  0  0  0  0  0  0
  -25.9445  -31.6237   20.5691 H   0  0  0  0  0  0  0  0  0  0  0  0
  -26.7436  -31.0079   22.0108 H   0  0  0  0  0  0  0  0  0  0  0  0
  -28.0090  -29.1452   21.2057 H   0  0  0  0  0  0  0  0  0  0  0  0
  -26.1369  -26.0560   19.0719 H   0  0  0  0  0  0  0  0  0  0  0  0
  -24.0652  -27.2961   19.0997 H   0  0  0  0  0  0  0  0  0  0  0  0
  -23.6156  -30.5365   19.3930 H   0  0  0  0  0  0  0  0  0  0  0  0
  -22.7355  -29.1425   19.9945 H   0  0  0  0  0  0  0  0  0  0  0  0
  -25.1353  -36.2335   25.0565 H   0  0  0  0  0  0  0  0  0  0  0  0
  -21.0070  -28.3206   24.0793 H   0  0  0  0  0  0  0  0  0  0  0  0
  -20.5555  -26.2518   23.3550 H   0  0  0  0  0  0  0  0  0  0  0  0
  -21.5974  -26.8362   22.0454 H   0  0  0  0  0  0  0  0  0  0  0  0
  -19.6810  -25.6422   21.1488 H   0  0  0  0  0  0  0  0  0  0  0  0
  -19.6406  -27.3343   20.7034 H   0  0  0  0  0  0  0  0  0  0  0  0
  -17.4282  -26.6888   21.4113 H   0  0  0  0  0  0  0  0  0  0  0  0
  -18.0803  -26.0130   22.9049 H   0  0  0  0  0  0  0  0  0  0  0  0
  -19.7265  -30.6774   24.2204 H   0  0  0  0  0  0  0  0  0  0  0  0
  -17.5064  -31.5856   24.4483 H   0  0  0  0  0  0  0  0  0  0  0  0
  -15.5878  -30.2839   23.7407 H   0  0  0  0  0  0  0  0  0  0  0  0
  -15.9120  -28.0941   22.7766 H   0  0  0  0  0  0  0  0  0  0  0  0
  -24.5787  -30.7757   25.6817 H   0  0  0  0  0  0  0  0  0  0  0  0
  -25.0041  -32.2289   26.5536 H   0  0  0  0  0  0  0  0  0  0  0  0
  -25.8166  -30.7245   26.9138 H   0  0  0  0  0  0  0  0  0  0  0  0
  -26.2892  -29.7335   24.0803 H   0  0  0  0  0  0  0  0  0  0  0  0
  -27.4336  -29.7484   25.4006 H   0  0  0  0  0  0  0  0  0  0  0  0
  -27.8466  -30.4994   23.8779 H   0  0  0  0  0  0  0  0  0  0  0  0
  -27.2251  -33.3632   26.1242 H   0  0  0  0  0  0  0  0  0  0  0  0
  -28.3902  -32.6065   25.0645 H   0  0  0  0  0  0  0  0  0  0  0  0
  -27.9772  -31.8555   26.5872 H   0  0  0  0  0  0  0  0  0  0  0  0
  -28.2744  -38.0016   24.6863 H   0  0  0  0  0  0  0  0  0  0  0  0
  -28.0396  -36.2711   24.7461 H   0  0  0  0  0  0  0  0  0  0  0  0
  -27.1773  -37.3087   25.8564 H   0  0  0  0  0  0  0  0  0  0  0  0
  -20.9627  -29.9365   21.7352 H   0  0  0  0  0  0  0  0  0  0  0  0
  -26.0447  -38.2561   24.0273 H   0  0  0  0  0  0  0  0  0  0  0  0
  -26.8277  -15.9950   16.0341 H   0  0  0  0  0  0  0  0  0  0  0  0
  -24.8843  -17.2519   15.3041 H   0  0  0  0  0  0  0  0  0  0  0  0
  -28.9846  -19.5777   16.4604 H   0  0  0  0  0  0  0  0  0  0  0  0
  -21.1709  -17.3981   16.6250 H   0  0  0  0  0  0  0  0  0  0  0  0
  -20.6134  -18.9989   16.0645 H   0  0  0  0  0  0  0  0  0  0  0  0
  -22.2925  -18.4345   18.4588 H   0  0  0  0  0  0  0  0  0  0  0  0
  -20.6390  -18.9953   18.4367 H   0  0  0  0  0  0  0  0  0  0  0  0
  -24.1500  -20.0726   17.7770 H   0  0  0  0  0  0  0  0  0  0  0  0
  -23.6071  -21.4696   16.8107 H   0  0  0  0  0  0  0  0  0  0  0  0
  -21.3599  -21.0264   17.2429 H   0  0  0  0  0  0  0  0  0  0  0  0
  -27.8160  -23.0291   16.3116 H   0  0  0  0  0  0  0  0  0  0  0  0
  -28.9398  -21.6954   16.4180 H   0  0  0  0  0  0  0  0  0  0  0  0
  -27.6424  -21.8395   17.5795 H   0  0  0  0  0  0  0  0  0  0  0  0
  -24.3513  -19.5712   14.0140 H   0  0  0  0  0  0  0  0  0  0  0  0
  -24.8292  -20.9339   15.0299 H   0  0  0  0  0  0  0  0  0  0  0  0
  -22.3287  -20.3311   19.9071 H   0  0  0  0  0  0  0  0  0  0  0  0
  -21.2608  -21.6465   19.3305 H   0  0  0  0  0  0  0  0  0  0  0  0
  -26.5259  -21.6768   15.0383 H   0  0  0  0  0  0  0  0  0  0  0  0
  -28.2902  -15.1204   16.9424 H   0  0  0  0  0  0  0  0  0  0  0  0
  1 25  1  0
  1 30  2  0
  1 88  1  0
  2  3  1  0
  2 25  1  0
  2 91  1  0
  2 92  1  0
  3  4  1  0
  3 93  1  0
  3 94  1  0
  4  5  1  0
  4 95  1  0
  4 96  1  0
  5  6  1  0
  5 26  1  0
  5 97  1  6
  6 25  1  0
  6 98  1  0
  6 99  1  0
  7  8  2  0
  7 26  1  0
  7 29  1  0
  8  9  1  0
  8 22  1  0
  9 10  1  0
  9 27  2  0
 10 11  2  0
 10 15  1  0
 11 12  1  0
 11100  1  0
 12 13  2  0
 12101  1  0
 13 14  1  0
 13 31  1  0
 14 15  2  0
 14102  1  0
 15103  1  0
 16 17  2  0
 16 21  1  0
 16 31  1  0
 17 18  1  0
 17104  1  0
 18 19  2  0
 18105  1  0
 19 20  1  0
 19 24  1  0
 20 21  2  0
 20106  1  0
 21 23  1  0
 22 28  1  0
 22 32  2  0
 26 27  1  0
 28107  1  0
 28108  1  0
 29109  1  0
 29110  1  0
 33 34  1  0
 33 66  1  0
 33 70  2  0
 34 36  1  0
 34 59  1  0
 34111  1  6
 35 44  2  0
 35 45  1  0
 35 68  1  0
 36 56  1  0
 36112  1  0
 37 39  1  0
 37 47  1  0
 37 66  1  0
 37113  1  6
 38 43  2  0
 38 46  1  0
 38 47  1  0
 39 64  1  0
 39 67  2  0
 40 52  1  0
 40 53  2  0
 40 58  1  0
 41114  1  0
 41115  1  0
 41116  1  0
 42 43  1  0
 42 66  1  0
 42117  1  0
 42118  1  0
 43 44  1  0
 44119  1  0
 45 46  2  0
 45120  1  0
 46121  1  0
 47122  1  0
 47123  1  0
 48 41  1  0
 48 56  1  0
 48 65  1  0
 48124  1  1
 49 50  1  0
 49 53  1  0
 49 64  1  0
 49125  1  1
 50 51  1  0
 50126  1  0
 50127  1  0
 51 52  1  0
 51128  1  0
 51129  1  0
 52130  1  0
 52131  1  0
 53 54  1  0
 54 55  2  0
 54132  1  0
 55 57  1  0
 55133  1  0
 56 69  2  0
 57 58  2  0
 57134  1  0
 58135  1  0
 59 60  1  0
 59 61  1  0
 59 62  1  0
 60136  1  0
 60137  1  0
 60138  1  0
 61139  1  0
 61140  1  0
 61141  1  0
 62142  1  0
 62143  1  0
 62144  1  0
 63 65  1  0
 63145  1  0
 63146  1  0
 63147  1  0
 64148  1  0
 65149  1  0
 68 85  1  0
 71 72  2  0
 71 74  1  0
 71150  1  0
 72 75  1  0
 72151  1  0
 73 74  2  0
 73 76  1  0
 73152  1  0
 74 78  1  0
 75 76  2  0
 75 84  1  0
 76 87  1  0
 77 79  1  0
 77 86  1  0
 77 89  2  0
 78 88  1  0
 78 90  2  0
 79 80  1  0
 79153  1  0
 79154  1  0
 80 82  1  0
 80155  1  0
 80156  1  0
 81 82  1  0
 81 86  1  0
 81157  1  0
 81158  1  0
 82 85  1  0
 82159  1  6
 83 87  1  0
 83160  1  0
 83161  1  0
 83162  1  0
 84 86  1  0
 84163  1  0
 84164  1  0
 85165  1  0
 85166  1  0
 87167  1  0
 88168  1  0
M  ISO  4   1 100  68 101  85 101  88 100
M  END
$$$$
74
     RDKit          3D

147155  0  0  0  0  0  0  0  0999 V2000
  -30.7652  -14.3608   20.6636 C   0  0  0  0  0  0  0  0  0100  0  0
  -30.4392  -12.2669   19.3775 C   0  0  0  0  0  0  0  0  0101  0  0
  -29.4791  -12.5281   18.1977 C   0  0  0  0  0  0  0  0  0102  0  0
  -27.9985  -12.3963   18.6038 C   0  0  0  0  0  0  0  0  0103  0  0
  -27.6639  -13.2170   19.8820 C   0  0  2  0  0  0  0  0  0104  0  0
  -28.6795  -12.9602   21.0279 C   0  0  0  0  0  0  0  0  0105  0  0
  -25.2633  -13.8245   20.5754 C   0  0  0  0  0  0  0  0  0106  0  0
  -24.1645  -13.0409   20.9408 C   0  0  0  0  0  0  0  0  0107  0  0
  -24.6400  -11.7009   20.8697 C   0  0  0  0  0  0  0  0  0108  0  0
  -23.9005  -10.4085   21.0420 C   0  0  0  0  0  0  0  0  0109  0  0
  -24.3588   -9.4123   21.9123 C   0  0  0  0  0  0  0  0  0110  0  0
  -23.6296   -8.2350   22.0803 C   0  0  0  0  0  0  0  0  0111  0  0
  -22.4385   -8.0419   21.3657 C   0  0  0  0  0  0  0  0  0112  0  0
  -22.0103   -9.0167   20.4678 C   0  0  0  0  0  0  0  0  0113  0  0
  -22.7317  -10.1925   20.3102 C   0  0  0  0  0  0  0  0  0114  0  0
  -21.6857   -6.0709   22.5391 C   0  0  0  0  0  0  0  0  0115  0  0
  -21.4064   -6.5490   23.8264 C   0  0  0  0  0  0  0  0  0116  0  0
  -21.3635   -5.6677   24.9085 C   0  0  0  0  0  0  0  0  0117  0  0
  -21.5973   -4.3067   24.7088 C   0  0  0  0  0  0  0  0  0118  0  0
  -21.8700   -3.8284   23.4282 C   0  0  0  0  0  0  0  0  0119  0  0
  -21.9144   -4.7056   22.3460 C   0  0  0  0  0  0  0  0  0120  0  0
  -22.8194  -13.5263   21.1763 C   0  0  0  0  0  0  0  0  0121  0  0
  -22.1559   -4.2206   21.1063 F   0  0  0  0  0  0  0  0  0122  0  0
  -21.5628   -3.4510   25.7555 F   0  0  0  0  0  0  0  0  0123  0  0
  -30.0261  -13.1803   20.4553 N   0  0  0  0  0  0  0  0  0124  0  0
  -26.2911  -12.9356   20.3443 N   0  0  0  0  0  0  0  0  0125  0  0
  -25.9236  -11.6675   20.5847 N   0  0  0  0  0  0  0  0  0126  0  0
  -22.0708  -12.7905   22.0005 N   0  0  0  0  0  0  0  0  0127  0  0
  -25.4117  -15.1773   20.4097 N   0  0  0  0  0  0  0  0  0128  0  0
  -31.7916  -14.6724   20.0536 O   0  0  0  0  0  0  0  0  0129  0  0
  -21.6670   -6.9022   21.4423 O   0  0  0  0  0  0  0  0  0130  0  0
  -22.3946  -14.5564   20.6568 O   0  0  0  0  0  0  0  0  0131  0  0
  -24.6048  -31.8614   23.2223 C   0  0  0  0  0  0  0  0  0100  0  0
  -25.8822  -32.4841   23.8616 C   0  0  1  0  0  0  0  0  0101  0  0
  -27.2536  -27.5042   20.1156 C   0  0  0  0  0  0  0  0  0102  0  0
  -25.5726  -33.8762   24.2210 N   0  0  0  0  0  0  0  0  0103  0  0
  -23.4066  -30.4859   21.5461 C   0  0  2  0  0  0  0  0  0104  0  0
  -24.8467  -28.9636   20.1247 C   0  0  0  0  0  0  0  0  0105  0  0
  -22.7412  -29.4652   22.5052 C   0  0  0  0  0  0  0  0  0106  0  0
  -18.0167  -28.1302   22.8626 C   0  0  0  0  0  0  0  0  0107  0  0
  -24.1342  -36.7390   23.2568 C   0  0  0  0  0  0  0  0  0108  0  0
  -25.9141  -30.8882   21.3456 C   0  0  0  0  0  0  0  0  0109  0  0
  -25.9930  -29.5029   20.7208 C   0  0  0  0  0  0  0  0  0110  0  0
  -27.1758  -28.7612   20.7331 C   0  0  0  0  0  0  0  0  0111  0  0
  -26.1032  -26.9836   19.5230 C   0  0  0  0  0  0  0  0  0112  0  0
  -24.9097  -27.7011   19.5331 C   0  0  0  0  0  0  0  0  0113  0  0
  -23.5715  -29.7899   20.1582 C   0  0  0  0  0  0  0  0  0114  0  0
  -25.3990  -36.3212   24.0232 C   0  0  1  0  0  0  0  0  0115  0  0
  -20.5793  -28.3813   23.1004 C   0  0  2  0  0  0  0  0  0116  0  0
  -20.6548  -26.9392   22.5411 C   0  0  0  0  0  0  0  0  0117  0  0
  -19.5615  -26.6407   21.5143 C   0  0  0  0  0  0  0  0  0118  0  0
  -18.1797  -26.7818   22.1673 C   0  0  0  0  0  0  0  0  0119  0  0
  -19.1385  -28.8769   23.2988 C   0  0  0  0  0  0  0  0  0120  0  0
  -18.9183  -30.1286   23.8878 C   0  0  0  0  0  0  0  0  0121  0  0
  -17.6396  -30.6493   24.0352 C   0  0  0  0  0  0  0  0  0122  0  0
  -25.9153  -34.9582   23.4993 C   0  0  0  0  0  0  0  0  0123  0  0
  -16.5415  -29.9068   23.6254 C   0  0  0  0  0  0  0  0  0124  0  0
  -16.7331  -28.6521   23.0586 C   0  0  0  0  0  0  0  0  0125  0  0
  -26.4583  -31.6439   25.0683 C   0  0  0  0  0  0  0  0  0126  0  0
  -25.3807  -31.3179   26.1374 C   0  0  0  0  0  0  0  0  0127  0  0
  -27.0530  -30.3024   24.5680 C   0  0  0  0  0  0  0  0  0128  0  0
  -27.6014  -32.4281   25.7651 C   0  0  0  0  0  0  0  0  0129  0  0
  -27.5629  -37.2220   24.8621 C   0  0  0  0  0  0  0  0  0130  0  0
  -21.4133  -29.3375   22.3735 N   0  0  0  0  0  0  0  0  0131  0  0
  -26.4706  -37.3372   23.9061 N   0  0  0  0  0  0  0  0  0132  0  0
  -24.6674  -31.0544   22.1178 N   0  0  0  0  0  0  0  0  0133  0  0
  -23.4259  -28.8150   23.2971 O   0  0  0  0  0  0  0  0  0134  0  0
  -28.3948  -26.7345   20.0089 O   0  0  0  0  0  0  0  0  0135  0  0
  -26.5870  -34.9065   22.4671 O   0  0  0  0  0  0  0  0  0136  0  0
  -23.5365  -32.1254   23.7833 O   0  0  0  0  0  0  0  0  0137  0  0
  -26.5219  -18.4569   15.3879 C   0  0  0  0  0  0  0  0  0  0  0  0
  -27.2694  -18.0195   16.4813 C   0  0  0  0  0  0  0  0  0  0  0  0
  -26.2443  -19.8149   15.2313 C   0  0  0  0  0  0  0  0  0  0  0  0
  -27.4615  -20.2980   17.2615 C   0  0  0  0  0  0  0  0  0  0  0  0
  -27.7392  -18.9400   17.4181 C   0  0  0  0  0  0  0  0  0  0  0  0
  -26.7140  -20.7354   16.1681 C   0  0  0  0  0  0  0  0  0  0  0  0
  -28.5358  -18.4741   18.5829 C   0  0  0  0  0  0  0  0  0  0  0  0
  -28.4457  -19.2736   19.8741 C   0  0  0  0  0  0  0  0  0  1  0  0
  -29.2558  -17.4002   18.4370 N   0  0  0  0  0  0  0  0  0  0  0  0
  -26.4331  -22.1083   16.0097 N   0  0  0  0  0  0  0  0  0  0  0  0
  -31.4485  -12.4701   19.0860 H   0  0  0  0  0  0  0  0  0  0  0  0
  -30.3970  -11.2460   19.6950 H   0  0  0  0  0  0  0  0  0  0  0  0
  -29.6870  -11.8204   17.4226 H   0  0  0  0  0  0  0  0  0  0  0  0
  -29.6375  -13.5326   17.8649 H   0  0  0  0  0  0  0  0  0  0  0  0
  -27.7830  -11.3650   18.7904 H   0  0  0  0  0  0  0  0  0  0  0  0
  -27.4028  -12.7801   17.8021 H   0  0  0  0  0  0  0  0  0  0  0  0
  -27.7353  -14.2503   19.6136 H   0  0  0  0  0  0  0  0  0  0  0  0
  -28.5890  -11.9550   21.3832 H   0  0  0  0  0  0  0  0  0  0  0  0
  -28.5005  -13.6134   21.8562 H   0  0  0  0  0  0  0  0  0  0  0  0
  -25.2399   -9.5495   22.4318 H   0  0  0  0  0  0  0  0  0  0  0  0
  -23.9663   -7.5070   22.7297 H   0  0  0  0  0  0  0  0  0  0  0  0
  -21.1515   -8.8641   19.9162 H   0  0  0  0  0  0  0  0  0  0  0  0
  -22.4016  -10.9115   19.6476 H   0  0  0  0  0  0  0  0  0  0  0  0
  -21.2319   -7.5552   23.9750 H   0  0  0  0  0  0  0  0  0  0  0  0
  -21.1589   -6.0228   25.8556 H   0  0  0  0  0  0  0  0  0  0  0  0
  -22.0396   -2.8212   23.2809 H   0  0  0  0  0  0  0  0  0  0  0  0
  -22.4401  -11.9703   22.4008 H   0  0  0  0  0  0  0  0  0  0  0  0
  -21.1493  -13.0679   22.2082 H   0  0  0  0  0  0  0  0  0  0  0  0
  -24.6538  -15.7807   20.5848 H   0  0  0  0  0  0  0  0  0  0  0  0
  -26.2762  -15.5453   20.1156 H   0  0  0  0  0  0  0  0  0  0  0  0
  -26.6778  -32.4663   23.1464 H   0  0  0  0  0  0  0  0  0  0  0  0
  -25.0747  -34.0282   25.0566 H   0  0  0  0  0  0  0  0  0  0  0  0
  -22.7881  -31.3489   21.4131 H   0  0  0  0  0  0  0  0  0  0  0  0
  -23.3854  -35.9823   23.3648 H   0  0  0  0  0  0  0  0  0  0  0  0
  -24.3696  -36.8624   22.2204 H   0  0  0  0  0  0  0  0  0  0  0  0
  -23.7669  -37.6632   23.6516 H   0  0  0  0  0  0  0  0  0  0  0  0
  -25.9445  -31.6237   20.5691 H   0  0  0  0  0  0  0  0  0  0  0  0
  -26.7436  -31.0079   22.0108 H   0  0  0  0  0  0  0  0  0  0  0  0
  -28.0090  -29.1452   21.2057 H   0  0  0  0  0  0  0  0  0  0  0  0
  -26.1369  -26.0560   19.0719 H   0  0  0  0  0  0  0  0  0  0  0  0
  -24.0652  -27.2961   19.0997 H   0  0  0  0  0  0  0  0  0  0  0  0
  -23.6156  -30.5365   19.3930 H   0  0  0  0  0  0  0  0  0  0  0  0
  -22.7355  -29.1425   19.9945 H   0  0  0  0  0  0  0  0  0  0  0  0
  -25.1353  -36.2335   25.0565 H   0  0  0  0  0  0  0  0  0  0  0  0
  -21.0070  -28.3206   24.0793 H   0  0  0  0  0  0  0  0  0  0  0  0
  -20.5555  -26.2518   23.3550 H   0  0  0  0  0  0  0  0  0  0  0  0
  -21.5974  -26.8362   22.0454 H   0  0  0  0  0  0  0  0  0  0  0  0
  -19.6810  -25.6422   21.1488 H   0  0  0  0  0  0  0  0  0  0  0  0
  -19.6406  -27.3343   20.7034 H   0  0  0  0  0  0  0  0  0  0  0  0
  -17.4282  -26.6888   21.4113 H   0  0  0  0  0  0  0  0  0  0  0  0
  -18.0803  -26.0130   22.9049 H   0  0  0  0  0  0  0  0  0  0  0  0
  -19.7265  -30.6774   24.2204 H   0  0  0  0  0  0  0  0  0  0  0  0
  -17.5064  -31.5856   24.4483 H   0  0  0  0  0  0  0  0  0  0  0  0
  -15.5878  -30.2839   23.7407 H   0  0  0  0  0  0  0  0  0  0  0  0
  -15.9120  -28.0941   22.7766 H   0  0  0  0  0  0  0  0  0  0  0  0
  -24.5787  -30.7757   25.6817 H   0  0  0  0  0  0  0  0  0  0  0  0
  -25.0041  -32.2289   26.5536 H   0  0  0  0  0  0  0  0  0  0  0  0
  -25.8166  -30.7245   26.9138 H   0  0  0  0  0  0  0  0  0  0  0  0
  -26.2892  -29.7335   24.0803 H   0  0  0  0  0  0  0  0  0  0  0  0
  -27.4336  -29.7484   25.4006 H   0  0  0  0  0  0  0  0  0  0  0  0
  -27.8466  -30.4994   23.8779 H   0  0  0  0  0  0  0  0  0  0  0  0
  -27.2251  -33.3632   26.1242 H   0  0  0  0  0  0  0  0  0  0  0  0
  -28.3902  -32.6065   25.0645 H   0  0  0  0  0  0  0  0  0  0  0  0
  -27.9772  -31.8555   26.5872 H   0  0  0  0  0  0  0  0  0  0  0  0
  -28.2744  -38.0016   24.6863 H   0  0  0  0  0  0  0  0  0  0  0  0
  -28.0396  -36.2711   24.7461 H   0  0  0  0  0  0  0  0  0  0  0  0
  -27.1773  -37.3087   25.8564 H   0  0  0  0  0  0  0  0  0  0  0  0
  -20.9627  -29.9365   21.7352 H   0  0  0  0  0  0  0  0  0  0  0  0
  -26.0447  -38.2561   24.0273 H   0  0  0  0  0  0  0  0  0  0  0  0
  -26.1742  -17.7759   14.6948 H   0  0  0  0  0  0  0  0  0  0  0  0
  -27.4749  -17.0148   16.5972 H   0  0  0  0  0  0  0  0  0  0  0  0
  -25.6914  -20.1386   14.4223 H   0  0  0  0  0  0  0  0  0  0  0  0
  -27.8091  -20.9790   17.9546 H   0  0  0  0  0  0  0  0  0  0  0  0
  -29.2836  -18.9726   20.4676 H   0  0  0  0  0  0  0  0  0  0  0  0
  -27.4533  -19.0443   20.2019 H   0  0  0  0  0  0  0  0  0  0  0  0
  -25.9055  -22.4170   15.2379 H   0  0  0  0  0  0  0  0  0  0  0  0
  -26.7646  -22.7581   16.6709 H   0  0  0  0  0  0  0  0  0  0  0  0
  1 25  1  0
  1 30  2  0
  1 79  1  0
  2  3  1  0
  2 25  1  0
  2 81  1  0
  2 82  1  0
  3  4  1  0
  3 83  1  0
  3 84  1  0
  4  5  1  0
  4 85  1  0
  4 86  1  0
  5  6  1  0
  5 26  1  0
  5 87  1  6
  6 25  1  0
  6 88  1  0
  6 89  1  0
  7  8  2  0
  7 26  1  0
  7 29  1  0
  8  9  1  0
  8 22  1  0
  9 10  1  0
  9 27  2  0
 10 11  2  0
 10 15  1  0
 11 12  1  0
 11 90  1  0
 12 13  2  0
 12 91  1  0
 13 14  1  0
 13 31  1  0
 14 15  2  0
 14 92  1  0
 15 93  1  0
 16 17  2  0
 16 21  1  0
 16 31  1  0
 17 18  1  0
 17 94  1  0
 18 19  2  0
 18 95  1  0
 19 20  1  0
 19 24  1  0
 20 21  2  0
 20 96  1  0
 21 23  1  0
 22 28  1  0
 22 32  2  0
 26 27  1  0
 28 97  1  0
 28 98  1  0
 29 99  1  0
 29100  1  0
 33 34  1  0
 33 66  1  0
 33 70  2  0
 34 36  1  0
 34 59  1  0
 34101  1  6
 35 44  2  0
 35 45  1  0
 35 68  1  0
 36 56  1  0
 36102  1  0
 37 39  1  0
 37 47  1  0
 37 66  1  0
 37103  1  6
 38 43  2  0
 38 46  1  0
 38 47  1  0
 39 64  1  0
 39 67  2  0
 40 52  1  0
 40 53  2  0
 40 58  1  0
 41104  1  0
 41105  1  0
 41106  1  0
 42 43  1  0
 42 66  1  0
 42107  1  0
 42108  1  0
 43 44  1  0
 44109  1  0
 45 46  2  0
 45110  1  0
 46111  1  0
 47112  1  0
 47113  1  0
 48 41  1  0
 48 56  1  0
 48 65  1  0
 48114  1  1
 49 50  1  0
 49 53  1  0
 49 64  1  0
 49115  1  1
 50 51  1  0
 50116  1  0
 50117  1  0
 51 52  1  0
 51118  1  0
 51119  1  0
 52120  1  0
 52121  1  0
 53 54  1  0
 54 55  2  0
 54122  1  0
 55 57  1  0
 55123  1  0
 56 69  2  0
 57 58  2  0
 57124  1  0
 58125  1  0
 59 60  1  0
 59 61  1  0
 59 62  1  0
 60126  1  0
 60127  1  0
 60128  1  0
 61129  1  0
 61130  1  0
 61131  1  0
 62132  1  0
 62133  1  0
 62134  1  0
 63 65  1  0
 63135  1  0
 63136  1  0
 63137  1  0
 64138  1  0
 65139  1  0
 68 78  1  0
 71 72  2  0
 71 73  1  0
 71140  1  0
 72 75  1  0
 72141  1  0
 73 76  2  0
 73142  1  0
 74 75  2  0
 74 76  1  0
 74143  1  0
 75 77  1  0
 76 80  1  0
 77 78  1  0
 77 79  2  0
 78144  1  0
 78145  1  0
 80146  1  0
 80147  1  0
M  ISO  4   1 100  68 101  78 101  79 100
M  END
$$$$
75
     RDKit          3D

156165  0  0  0  0  0  0  0  0999 V2000
  -30.7652  -14.3608   20.6636 C   0  0  0  0  0  0  0  0  0100  0  0
  -30.4392  -12.2669   19.3775 C   0  0  0  0  0  0  0  0  0101  0  0
  -29.4791  -12.5281   18.1977 C   0  0  0  0  0  0  0  0  0102  0  0
  -27.9985  -12.3963   18.6038 C   0  0  0  0  0  0  0  0  0103  0  0
  -27.6639  -13.2170   19.8820 C   0  0  2  0  0  0  0  0  0104  0  0
  -28.6795  -12.9602   21.0279 C   0  0  0  0  0  0  0  0  0105  0  0
  -25.2633  -13.8245   20.5754 C   0  0  0  0  0  0  0  0  0106  0  0
  -24.1645  -13.0409   20.9408 C   0  0  0  0  0  0  0  0  0107  0  0
  -24.6400  -11.7009   20.8697 C   0  0  0  0  0  0  0  0  0108  0  0
  -23.9005  -10.4085   21.0420 C   0  0  0  0  0  0  0  0  0109  0  0
  -24.3588   -9.4123   21.9123 C   0  0  0  0  0  0  0  0  0110  0  0
  -23.6296   -8.2350   22.0803 C   0  0  0  0  0  0  0  0  0111  0  0
  -22.4385   -8.0419   21.3657 C   0  0  0  0  0  0  0  0  0112  0  0
  -22.0103   -9.0167   20.4678 C   0  0  0  0  0  0  0  0  0113  0  0
  -22.7317  -10.1925   20.3102 C   0  0  0  0  0  0  0  0  0114  0  0
  -21.6857   -6.0709   22.5391 C   0  0  0  0  0  0  0  0  0115  0  0
  -21.4064   -6.5490   23.8264 C   0  0  0  0  0  0  0  0  0116  0  0
  -21.3635   -5.6677   24.9085 C   0  0  0  0  0  0  0  0  0117  0  0
  -21.5973   -4.3067   24.7088 C   0  0  0  0  0  0  0  0  0118  0  0
  -21.8700   -3.8284   23.4282 C   0  0  0  0  0  0  0  0  0119  0  0
  -21.9144   -4.7056   22.3460 C   0  0  0  0  0  0  0  0  0120  0  0
  -22.8194  -13.5263   21.1763 C   0  0  0  0  0  0  0  0  0121  0  0
  -22.1559   -4.2206   21.1063 F   0  0  0  0  0  0  0  0  0122  0  0
  -21.5628   -3.4510   25.7555 F   0  0  0  0  0  0  0  0  0123  0  0
  -30.0261  -13.1803   20.4553 N   0  0  0  0  0  0  0  0  0124  0  0
  -26.2911  -12.9356   20.3443 N   0  0  0  0  0  0  0  0  0125  0  0
  -25.9236  -11.6675   20.5847 N   0  0  0  0  0  0  0  0  0126  0  0
  -22.0708  -12.7905   22.0005 N   0  0  0  0  0  0  0  0  0127  0  0
  -25.4117  -15.1773   20.4097 N   0  0  0  0  0  0  0  0  0128  0  0
  -31.7916  -14.6724   20.0536 O   0  0  0  0  0  0  0  0  0129  0  0
  -21.6670   -6.9022   21.4423 O   0  0  0  0  0  0  0  0  0130  0  0
  -22.3946  -14.5564   20.6568 O   0  0  0  0  0  0  0  0  0131  0  0
  -24.6048  -31.8614   23.2223 C   0  0  0  0  0  0  0  0  0100  0  0
  -25.8822  -32.4841   23.8616 C   0  0  1  0  0  0  0  0  0101  0  0
  -27.2536  -27.5042   20.1156 C   0  0  0  0  0  0  0  0  0102  0  0
  -25.5726  -33.8762   24.2210 N   0  0  0  0  0  0  0  0  0103  0  0
  -23.4066  -30.4859   21.5461 C   0  0  2  0  0  0  0  0  0104  0  0
  -24.8467  -28.9636   20.1247 C   0  0  0  0  0  0  0  0  0105  0  0
  -22.7412  -29.4652   22.5052 C   0  0  0  0  0  0  0  0  0106  0  0
  -18.0167  -28.1302   22.8626 C   0  0  0  0  0  0  0  0  0107  0  0
  -24.1342  -36.7390   23.2568 C   0  0  0  0  0  0  0  0  0108  0  0
  -25.9141  -30.8882   21.3456 C   0  0  0  0  0  0  0  0  0109  0  0
  -25.9930  -29.5029   20.7208 C   0  0  0  0  0  0  0  0  0110  0  0
  -27.1758  -28.7612   20.7331 C   0  0  0  0  0  0  0  0  0111  0  0
  -26.1032  -26.9836   19.5230 C   0  0  0  0  0  0  0  0  0112  0  0
  -24.9097  -27.7011   19.5331 C   0  0  0  0  0  0  0  0  0113  0  0
  -23.5715  -29.7899   20.1582 C   0  0  0  0  0  0  0  0  0114  0  0
  -25.3990  -36.3212   24.0232 C   0  0  1  0  0  0  0  0  0115  0  0
  -20.5793  -28.3813   23.1004 C   0  0  2  0  0  0  0  0  0116  0  0
  -20.6548  -26.9392   22.5411 C   0  0  0  0  0  0  0  0  0117  0  0
  -19.5615  -26.6407   21.5143 C   0  0  0  0  0  0  0  0  0118  0  0
  -18.1797  -26.7818   22.1673 C   0  0  0  0  0  0  0  0  0119  0  0
  -19.1385  -28.8769   23.2988 C   0  0  0  0  0  0  0  0  0120  0  0
  -18.9183  -30.1286   23.8878 C   0  0  0  0  0  0  0  0  0121  0  0
  -17.6396  -30.6493   24.0352 C   0  0  0  0  0  0  0  0  0122  0  0
  -25.9153  -34.9582   23.4993 C   0  0  0  0  0  0  0  0  0123  0  0
  -16.5415  -29.9068   23.6254 C   0  0  0  0  0  0  0  0  0124  0  0
  -16.7331  -28.6521   23.0586 C   0  0  0  0  0  0  0  0  0125  0  0
  -26.4583  -31.6439   25.0683 C   0  0  0  0  0  0  0  0  0126  0  0
  -25.3807  -31.3179   26.1374 C   0  0  0  0  0  0  0  0  0127  0  0
  -27.0530  -30.3024   24.5680 C   0  0  0  0  0  0  0  0  0128  0  0
  -27.6014  -32.4281   25.7651 C   0  0  0  0  0  0  0  0  0129  0  0
  -27.5629  -37.2220   24.8621 C   0  0  0  0  0  0  0  0  0130  0  0
  -21.4133  -29.3375   22.3735 N   0  0  0  0  0  0  0  0  0131  0  0
  -26.4706  -37.3372   23.9061 N   0  0  0  0  0  0  0  0  0132  0  0
  -24.6674  -31.0544   22.1178 N   0  0  0  0  0  0  0  0  0133  0  0
  -23.4259  -28.8150   23.2971 O   0  0  0  0  0  0  0  0  0134  0  0
  -28.3948  -26.7345   20.0089 O   0  0  0  0  0  0  0  0  0135  0  0
  -26.5870  -34.9065   22.4671 O   0  0  0  0  0  0  0  0  0136  0  0
  -23.5365  -32.1254   23.7833 O   0  0  0  0  0  0  0  0  0137  0  0
  -22.2003  -27.8959   24.9977 C   0  0  0  0  0  0  0  0  0  0  0  0
  -23.1296  -28.9100   24.7643 C   0  0  0  0  0  0  0  0  0  0  0  0
  -24.8744  -27.2585   24.5283 C   0  0  0  0  0  0  0  0  0  0  0  0
  -24.3480  -24.8772   24.7634 C   0  0  0  0  0  0  0  0  0  0  0  0
  -21.6740  -25.5146   25.2329 C   0  0  0  0  0  0  0  0  0  0  0  0
  -22.5957  -26.5483   24.9997 C   0  0  0  0  0  0  0  0  0  0  0  0
  -23.9527  -26.2248   24.7614 C   0  0  0  0  0  0  0  0  0  0  0  0
  -24.4640  -28.5919   24.5300 C   0  0  0  0  0  0  0  0  0  0  0  0
  -23.4188  -23.8631   24.9969 C   0  0  0  0  0  0  0  0  0  0  0  0
  -22.0843  -24.1812   25.2312 C   0  0  0  0  0  0  0  0  0  0  0  0
  -25.5797  -30.6659   25.4498 C   0  0  0  0  0  0  0  0  0  0  0  0
  -23.8865  -22.4374   24.9895 C   0  0  0  0  0  0  0  0  0  1  0  0
  -25.4564  -29.6773   24.2821 C   0  0  1  0  0  0  0  0  0  0  0  0
  -21.1307  -23.1669   25.4696 N   0  0  0  0  0  0  0  0  0  0  0  0
  -31.4485  -12.4701   19.0860 H   0  0  0  0  0  0  0  0  0  0  0  0
  -30.3970  -11.2460   19.6950 H   0  0  0  0  0  0  0  0  0  0  0  0
  -29.6870  -11.8204   17.4226 H   0  0  0  0  0  0  0  0  0  0  0  0
  -29.6375  -13.5326   17.8649 H   0  0  0  0  0  0  0  0  0  0  0  0
  -27.7830  -11.3650   18.7904 H   0  0  0  0  0  0  0  0  0  0  0  0
  -27.4028  -12.7801   17.8021 H   0  0  0  0  0  0  0  0  0  0  0  0
  -27.7353  -14.2503   19.6136 H   0  0  0  0  0  0  0  0  0  0  0  0
  -28.5890  -11.9550   21.3832 H   0  0  0  0  0  0  0  0  0  0  0  0
  -28.5005  -13.6134   21.8562 H   0  0  0  0  0  0  0  0  0  0  0  0
  -25.2399   -9.5495   22.4318 H   0  0  0  0  0  0  0  0  0  0  0  0
  -23.9663   -7.5070   22.7297 H   0  0  0  0  0  0  0  0  0  0  0  0
  -21.1515   -8.8641   19.9162 H   0  0  0  0  0  0  0  0  0  0  0  0
  -22.4016  -10.9115   19.6476 H   0  0  0  0  0  0  0  0  0  0  0  0
  -21.2319   -7.5552   23.9750 H   0  0  0  0  0  0  0  0  0  0  0  0
  -21.1589   -6.0228   25.8556 H   0  0  0  0  0  0  0  0  0  0  0  0
  -22.0396   -2.8212   23.2809 H   0  0  0  0  0  0  0  0  0  0  0  0
  -22.4401  -11.9703   22.4008 H   0  0  0  0  0  0  0  0  0  0  0  0
  -21.1493  -13.0679   22.2082 H   0  0  0  0  0  0  0  0  0  0  0  0
  -24.6538  -15.7807   20.5848 H   0  0  0  0  0  0  0  0  0  0  0  0
  -26.2762  -15.5453   20.1156 H   0  0  0  0  0  0  0  0  0  0  0  0
  -26.6778  -32.4663   23.1464 H   0  0  0  0  0  0  0  0  0  0  0  0
  -25.0747  -34.0282   25.0566 H   0  0  0  0  0  0  0  0  0  0  0  0
  -22.7881  -31.3489   21.4131 H   0  0  0  0  0  0  0  0  0  0  0  0
  -23.3854  -35.9823   23.3648 H   0  0  0  0  0  0  0  0  0  0  0  0
  -24.3696  -36.8624   22.2204 H   0  0  0  0  0  0  0  0  0  0  0  0
  -23.7669  -37.6632   23.6516 H   0  0  0  0  0  0  0  0  0  0  0  0
  -25.9445  -31.6237   20.5691 H   0  0  0  0  0  0  0  0  0  0  0  0
  -26.7436  -31.0079   22.0108 H   0  0  0  0  0  0  0  0  0  0  0  0
  -28.0090  -29.1452   21.2057 H   0  0  0  0  0  0  0  0  0  0  0  0
  -26.1369  -26.0560   19.0719 H   0  0  0  0  0  0  0  0  0  0  0  0
  -24.0652  -27.2961   19.0997 H   0  0  0  0  0  0  0  0  0  0  0  0
  -23.6156  -30.5365   19.3930 H   0  0  0  0  0  0  0  0  0  0  0  0
  -22.7355  -29.1425   19.9945 H   0  0  0  0  0  0  0  0  0  0  0  0
  -25.1353  -36.2335   25.0565 H   0  0  0  0  0  0  0  0  0  0  0  0
  -21.0070  -28.3206   24.0793 H   0  0  0  0  0  0  0  0  0  0  0  0
  -20.5555  -26.2518   23.3550 H   0  0  0  0  0  0  0  0  0  0  0  0
  -21.5974  -26.8362   22.0454 H   0  0  0  0  0  0  0  0  0  0  0  0
  -19.6810  -25.6422   21.1488 H   0  0  0  0  0  0  0  0  0  0  0  0
  -19.6406  -27.3343   20.7034 H   0  0  0  0  0  0  0  0  0  0  0  0
  -17.4282  -26.6888   21.4113 H   0  0  0  0  0  0  0  0  0  0  0  0
  -18.0803  -26.0130   22.9049 H   0  0  0  0  0  0  0  0  0  0  0  0
  -19.7265  -30.6774   24.2204 H   0  0  0  0  0  0  0  0  0  0  0  0
  -17.5064  -31.5856   24.4483 H   0  0  0  0  0  0  0  0  0  0  0  0
  -15.5878  -30.2839   23.7407 H   0  0  0  0  0  0  0  0  0  0  0  0
  -15.9120  -28.0941   22.7766 H   0  0  0  0  0  0  0  0  0  0  0  0
  -24.5787  -30.7757   25.6817 H   0  0  0  0  0  0  0  0  0  0  0  0
  -25.0041  -32.2289   26.5536 H   0  0  0  0  0  0  0  0  0  0  0  0
  -25.8166  -30.7245   26.9138 H   0  0  0  0  0  0  0  0  0  0  0  0
  -26.2892  -29.7335   24.0803 H   0  0  0  0  0  0  0  0  0  0  0  0
  -27.4336  -29.7484   25.4006 H   0  0  0  0  0  0  0  0  0  0  0  0
  -27.8466  -30.4994   23.8779 H   0  0  0  0  0  0  0  0  0  0  0  0
  -27.2251  -33.3632   26.1242 H   0  0  0  0  0  0  0  0  0  0  0  0
  -28.3902  -32.6065   25.0645 H   0  0  0  0  0  0  0  0  0  0  0  0
  -27.9772  -31.8555   26.5872 H   0  0  0  0  0  0  0  0  0  0  0  0
  -28.2744  -38.0016   24.6863 H   0  0  0  0  0  0  0  0  0  0  0  0
  -28.0396  -36.2711   24.7461 H   0  0  0  0  0  0  0  0  0  0  0  0
  -27.1773  -37.3087   25.8564 H   0  0  0  0  0  0  0  0  0  0  0  0
  -20.9627  -29.9365   21.7352 H   0  0  0  0  0  0  0  0  0  0  0  0
  -26.0447  -38.2561   24.0273 H   0  0  0  0  0  0  0  0  0  0  0  0
  -21.2122  -28.1385   25.1706 H   0  0  0  0  0  0  0  0  0  0  0  0
  -22.8272  -29.8967   24.7654 H   0  0  0  0  0  0  0  0  0  0  0  0
  -25.8654  -27.0294   24.3540 H   0  0  0  0  0  0  0  0  0  0  0  0
  -25.3360  -24.6346   24.5904 H   0  0  0  0  0  0  0  0  0  0  0  0
  -20.6830  -25.7437   25.4073 H   0  0  0  0  0  0  0  0  0  0  0  0
  -25.0460  -31.5632   25.2153 H   0  0  0  0  0  0  0  0  0  0  0  0
  -26.6114  -30.8971   25.6139 H   0  0  0  0  0  0  0  0  0  0  0  0
  -25.1676  -30.2265   26.3341 H   0  0  0  0  0  0  0  0  0  0  0  0
  -23.2383  -21.6962   24.5707 H   0  0  0  0  0  0  0  0  0  0  0  0
  -24.1689  -21.7988   25.8003 H   0  0  0  0  0  0  0  0  0  0  0  0
  -25.6820  -30.5322   23.6794 H   0  0  0  0  0  0  0  0  0  0  0  0
  -20.1896  -23.4048   25.6340 H   0  0  0  0  0  0  0  0  0  0  0  0
  -21.4071  -22.2220   25.4713 H   0  0  0  0  0  0  0  0  0  0  0  0
  1 25  1  0
  1 30  2  0
  1 83  1  0
  2  3  1  0
  2 25  1  0
  2 85  1  0
  2 86  1  0
  3  4  1  0
  3 87  1  0
  3 88  1  0
  4  5  1  0
  4 89  1  0
  4 90  1  0
  5  6  1  0
  5 26  1  0
  5 91  1  6
  6 25  1  0
  6 92  1  0
  6 93  1  0
  7  8  2  0
  7 26  1  0
  7 29  1  0
  8  9  1  0
  8 22  1  0
  9 10  1  0
  9 27  2  0
 10 11  2  0
 10 15  1  0
 11 12  1  0
 11 94  1  0
 12 13  2  0
 12 95  1  0
 13 14  1  0
 13 31  1  0
 14 15  2  0
 14 96  1  0
 15 97  1  0
 16 17  2  0
 16 21  1  0
 16 31  1  0
 17 18  1  0
 17 98  1  0
 18 19  2  0
 18 99  1  0
 19 20  1  0
 19 24  1  0
 20 21  2  0
 20100  1  0
 21 23  1  0
 22 28  1  0
 22 32  2  0
 26 27  1  0
 28101  1  0
 28102  1  0
 29103  1  0
 29104  1  0
 33 34  1  0
 33 66  1  0
 33 70  2  0
 34 36  1  0
 34 59  1  0
 34105  1  6
 35 44  2  0
 35 45  1  0
 35 68  1  0
 36 56  1  0
 36106  1  0
 37 39  1  0
 37 47  1  0
 37 66  1  0
 37107  1  6
 38 43  2  0
 38 46  1  0
 38 47  1  0
 39 64  1  0
 39 67  2  0
 40 52  1  0
 40 53  2  0
 40 58  1  0
 41108  1  0
 41109  1  0
 41110  1  0
 42 43  1  0
 42 66  1  0
 42111  1  0
 42112  1  0
 43 44  1  0
 44113  1  0
 45 46  2  0
 45114  1  0
 46115  1  0
 47116  1  0
 47117  1  0
 48 41  1  0
 48 56  1  0
 48 65  1  0
 48118  1  1
 49 50  1  0
 49 53  1  0
 49 64  1  0
 49119  1  1
 50 51  1  0
 50120  1  0
 50121  1  0
 51 52  1  0
 51122  1  0
 51123  1  0
 52124  1  0
 52125  1  0
 53 54  1  0
 54 55  2  0
 54126  1  0
 55 57  1  0
 55127  1  0
 56 69  2  0
 57 58  2  0
 57128  1  0
 58129  1  0
 59 60  1  0
 59 61  1  0
 59 62  1  0
 60130  1  0
 60131  1  0
 60132  1  0
 61133  1  0
 61134  1  0
 61135  1  0
 62136  1  0
 62137  1  0
 62138  1  0
 63 65  1  0
 63139  1  0
 63140  1  0
 63141  1  0
 64142  1  0
 65143  1  0
 68 82  1  0
 71 72  2  0
 71 76  1  0
 71144  1  0
 72 78  1  0
 72145  1  0
 73 77  1  0
 73 78  2  0
 73146  1  0
 74 77  2  0
 74 79  1  0
 74147  1  0
 75 76  2  0
 75 80  1  0
 75148  1  0
 76 77  1  0
 78 83  1  0
 79 80  2  0
 79 82  1  0
 80 84  1  0
 81149  1  0
 81150  1  0
 81151  1  0
 82152  1  0
 82153  1  0
 83 81  1  0
 83154  1  6
 84155  1  0
 84156  1  0
M  ISO  4   1 100  68 101  82 101  83 100
M  END
$$$$
76
     RDKit          3D

165174  0  0  0  0  0  0  0  0999 V2000
  -30.7652  -14.3608   20.6636 C   0  0  0  0  0  0  0  0  0100  0  0
  -30.4392  -12.2669   19.3775 C   0  0  0  0  0  0  0  0  0101  0  0
  -29.4791  -12.5281   18.1977 C   0  0  0  0  0  0  0  0  0102  0  0
  -27.9985  -12.3963   18.6038 C   0  0  0  0  0  0  0  0  0103  0  0
  -27.6639  -13.2170   19.8820 C   0  0  2  0  0  0  0  0  0104  0  0
  -28.6795  -12.9602   21.0279 C   0  0  0  0  0  0  0  0  0105  0  0
  -25.2633  -13.8245   20.5754 C   0  0  0  0  0  0  0  0  0106  0  0
  -24.1645  -13.0409   20.9408 C   0  0  0  0  0  0  0  0  0107  0  0
  -24.6400  -11.7009   20.8697 C   0  0  0  0  0  0  0  0  0108  0  0
  -23.9005  -10.4085   21.0420 C   0  0  0  0  0  0  0  0  0109  0  0
  -24.3588   -9.4123   21.9123 C   0  0  0  0  0  0  0  0  0110  0  0
  -23.6296   -8.2350   22.0803 C   0  0  0  0  0  0  0  0  0111  0  0
  -22.4385   -8.0419   21.3657 C   0  0  0  0  0  0  0  0  0112  0  0
  -22.0103   -9.0167   20.4678 C   0  0  0  0  0  0  0  0  0113  0  0
  -22.7317  -10.1925   20.3102 C   0  0  0  0  0  0  0  0  0114  0  0
  -21.6857   -6.0709   22.5391 C   0  0  0  0  0  0  0  0  0115  0  0
  -21.4064   -6.5490   23.8264 C   0  0  0  0  0  0  0  0  0116  0  0
  -21.3635   -5.6677   24.9085 C   0  0  0  0  0  0  0  0  0117  0  0
  -21.5973   -4.3067   24.7088 C   0  0  0  0  0  0  0  0  0118  0  0
  -21.8700   -3.8284   23.4282 C   0  0  0  0  0  0  0  0  0119  0  0
  -21.9144   -4.7056   22.3460 C   0  0  0  0  0  0  0  0  0120  0  0
  -22.8194  -13.5263   21.1763 C   0  0  0  0  0  0  0  0  0121  0  0
  -22.1559   -4.2206   21.1063 F   0  0  0  0  0  0  0  0  0122  0  0
  -21.5628   -3.4510   25.7555 F   0  0  0  0  0  0  0  0  0123  0  0
  -30.0261  -13.1803   20.4553 N   0  0  0  0  0  0  0  0  0124  0  0
  -26.2911  -12.9356   20.3443 N   0  0  0  0  0  0  0  0  0125  0  0
  -25.9236  -11.6675   20.5847 N   0  0  0  0  0  0  0  0  0126  0  0
  -22.0708  -12.7905   22.0005 N   0  0  0  0  0  0  0  0  0127  0  0
  -25.4117  -15.1773   20.4097 N   0  0  0  0  0  0  0  0  0128  0  0
  -31.7916  -14.6724   20.0536 O   0  0  0  0  0  0  0  0  0129  0  0
  -21.6670   -6.9022   21.4423 O   0  0  0  0  0  0  0  0  0130  0  0
  -22.3946  -14.5564   20.6568 O   0  0  0  0  0  0  0  0  0131  0  0
  -24.6048  -31.8614   23.2223 C   0  0  0  0  0  0  0  0  0100  0  0
  -25.8822  -32.4841   23.8616 C   0  0  1  0  0  0  0  0  0101  0  0
  -27.2536  -27.5042   20.1156 C   0  0  0  0  0  0  0  0  0102  0  0
  -25.5726  -33.8762   24.2210 N   0  0  0  0  0  0  0  0  0103  0  0
  -23.4066  -30.4859   21.5461 C   0  0  2  0  0  0  0  0  0104  0  0
  -24.8467  -28.9636   20.1247 C   0  0  0  0  0  0  0  0  0105  0  0
  -22.7412  -29.4652   22.5052 C   0  0  0  0  0  0  0  0  0106  0  0
  -18.0167  -28.1302   22.8626 C   0  0  0  0  0  0  0  0  0107  0  0
  -24.1342  -36.7390   23.2568 C   0  0  0  0  0  0  0  0  0108  0  0
  -25.9141  -30.8882   21.3456 C   0  0  0  0  0  0  0  0  0109  0  0
  -25.9930  -29.5029   20.7208 C   0  0  0  0  0  0  0  0  0110  0  0
  -27.1758  -28.7612   20.7331 C   0  0  0  0  0  0  0  0  0111  0  0
  -26.1032  -26.9836   19.5230 C   0  0  0  0  0  0  0  0  0112  0  0
  -24.9097  -27.7011   19.5331 C   0  0  0  0  0  0  0  0  0113  0  0
  -23.5715  -29.7899   20.1582 C   0  0  0  0  0  0  0  0  0114  0  0
  -25.3990  -36.3212   24.0232 C   0  0  1  0  0  0  0  0  0115  0  0
  -20.5793  -28.3813   23.1004 C   0  0  2  0  0  0  0  0  0116  0  0
  -20.6548  -26.9392   22.5411 C   0  0  0  0  0  0  0  0  0117  0  0
  -19.5615  -26.6407   21.5143 C   0  0  0  0  0  0  0  0  0118  0  0
  -18.1797  -26.7818   22.1673 C   0  0  0  0  0  0  0  0  0119  0  0
  -19.1385  -28.8769   23.2988 C   0  0  0  0  0  0  0  0  0120  0  0
  -18.9183  -30.1286   23.8878 C   0  0  0  0  0  0  0  0  0121  0  0
  -17.6396  -30.6493   24.0352 C   0  0  0  0  0  0  0  0  0122  0  0
  -25.9153  -34.9582   23.4993 C   0  0  0  0  0  0  0  0  0123  0  0
  -16.5415  -29.9068   23.6254 C   0  0  0  0  0  0  0  0  0124  0  0
  -16.7331  -28.6521   23.0586 C   0  0  0  0  0  0  0  0  0125  0  0
  -26.4583  -31.6439   25.0683 C   0  0  0  0  0  0  0  0  0126  0  0
  -25.3807  -31.3179   26.1374 C   0  0  0  0  0  0  0  0  0127  0  0
  -27.0530  -30.3024   24.5680 C   0  0  0  0  0  0  0  0  0128  0  0
  -27.6014  -32.4281   25.7651 C   0  0  0  0  0  0  0  0  0129  0  0
  -27.5629  -37.2220   24.8621 C   0  0  0  0  0  0  0  0  0130  0  0
  -21.4133  -29.3375   22.3735 N   0  0  0  0  0  0  0  0  0131  0  0
  -26.4706  -37.3372   23.9061 N   0  0  0  0  0  0  0  0  0132  0  0
  -24.6674  -31.0544   22.1178 N   0  0  0  0  0  0  0  0  0133  0  0
  -23.4259  -28.8150   23.2971 O   0  0  0  0  0  0  0  0  0134  0  0
  -28.3948  -26.7345   20.0089 O   0  0  0  0  0  0  0  0  0135  0  0
  -26.5870  -34.9065   22.4671 O   0  0  0  0  0  0  0  0  0136  0  0
  -23.5365  -32.1254   23.7833 O   0  0  0  0  0  0  0  0  0137  0  0
  -25.2551  -29.4208   22.1576 C   0  0  0  0  0  0  0  0  0  0  0  0
  -24.4634  -28.3959   20.1181 C   0  0  0  0  0  0  0  0  0  0  0  0
  -24.8768  -28.2827   21.4455 C   0  0  0  0  0  0  0  0  0  0  0  0
  -25.2200  -30.6722   21.5424 C   0  0  0  0  0  0  0  0  0  0  0  0
  -24.8066  -30.7854   20.2150 C   0  0  0  0  0  0  0  0  0  0  0  0
  -24.4283  -29.6473   19.5029 C   0  0  0  0  0  0  0  0  0  0  0  0
  -26.9479  -26.1293   20.7831 C   0  0  0  0  0  0  0  0  0  0  0  0
  -24.8968  -32.2225   23.5697 C   0  0  0  0  0  0  0  0  0  0  0  0
  -25.6286  -31.8599   22.3227 C   0  0  0  0  0  0  0  0  0  0  0  0
  -24.9135  -26.9624   22.0951 C   0  0  0  0  0  0  0  0  0  0  0  0
  -27.4978  -24.7451   20.5278 C   0  0  0  0  0  0  0  0  0  0  0  0
  -25.5152  -24.5821   21.8340 C   0  0  0  0  0  0  0  0  0  0  0  0
  -26.3025  -23.8324   20.7760 C   0  0  2  0  0  0  0  0  0  0  0  0
  -24.7686  -32.1285   19.5549 C   0  0  0  0  0  0  0  0  0  0  0  0
  -26.6996  -22.4316   21.2077 C   0  0  0  0  0  0  0  0  0  1  0  0
  -23.6517  -31.9116   23.6486 N   0  0  0  0  0  0  0  0  0  0  0  0
  -25.7449  -25.9811   21.5278 N   0  0  0  0  0  0  0  0  0  0  0  0
  -24.0068  -29.7409   18.1579 N   0  0  0  0  0  0  0  0  0  0  0  0
  -27.5099  -27.1571   20.4330 O   0  0  0  0  0  0  0  0  0  0  0  0
  -26.5603  -32.5838   22.0049 O   0  0  0  0  0  0  0  0  0  0  0  0
  -24.2338  -26.8068   23.1080 O   0  0  0  0  0  0  0  0  0  0  0  0
  -31.4485  -12.4701   19.0860 H   0  0  0  0  0  0  0  0  0  0  0  0
  -30.3970  -11.2460   19.6950 H   0  0  0  0  0  0  0  0  0  0  0  0
  -29.6870  -11.8204   17.4226 H   0  0  0  0  0  0  0  0  0  0  0  0
  -29.6375  -13.5326   17.8649 H   0  0  0  0  0  0  0  0  0  0  0  0
  -27.7830  -11.3650   18.7904 H   0  0  0  0  0  0  0  0  0  0  0  0
  -27.4028  -12.7801   17.8021 H   0  0  0  0  0  0  0  0  0  0  0  0
  -27.7353  -14.2503   19.6136 H   0  0  0  0  0  0  0  0  0  0  0  0
  -28.5890  -11.9550   21.3832 H   0  0  0  0  0  0  0  0  0  0  0  0
  -28.5005  -13.6134   21.8562 H   0  0  0  0  0  0  0  0  0  0  0  0
  -25.2399   -9.5495   22.4318 H   0  0  0  0  0  0  0  0  0  0  0  0
  -23.9663   -7.5070   22.7297 H   0  0  0  0  0  0  0  0  0  0  0  0
  -21.1515   -8.8641   19.9162 H   0  0  0  0  0  0  0  0  0  0  0  0
  -22.4016  -10.9115   19.6476 H   0  0  0  0  0  0  0  0  0  0  0  0
  -21.2319   -7.5552   23.9750 H   0  0  0  0  0  0  0  0  0  0  0  0
  -21.1589   -6.0228   25.8556 H   0  0  0  0  0  0  0  0  0  0  0  0
  -22.0396   -2.8212   23.2809 H   0  0  0  0  0  0  0  0  0  0  0  0
  -22.4401  -11.9703   22.4008 H   0  0  0  0  0  0  0  0  0  0  0  0
  -21.1493  -13.0679   22.2082 H   0  0  0  0  0  0  0  0  0  0  0  0
  -24.6538  -15.7807   20.5848 H   0  0  0  0  0  0  0  0  0  0  0  0
  -26.2762  -15.5453   20.1156 H   0  0  0  0  0  0  0  0  0  0  0  0
  -26.6778  -32.4663   23.1464 H   0  0  0  0  0  0  0  0  0  0  0  0
  -25.0747  -34.0282   25.0566 H   0  0  0  0  0  0  0  0  0  0  0  0
  -22.7881  -31.3489   21.4131 H   0  0  0  0  0  0  0  0  0  0  0  0
  -23.3854  -35.9823   23.3648 H   0  0  0  0  0  0  0  0  0  0  0  0
  -24.3696  -36.8624   22.2204 H   0  0  0  0  0  0  0  0  0  0  0  0
  -23.7669  -37.6632   23.6516 H   0  0  0  0  0  0  0  0  0  0  0  0
  -25.9445  -31.6237   20.5691 H   0  0  0  0  0  0  0  0  0  0  0  0
  -26.7436  -31.0079   22.0108 H   0  0  0  0  0  0  0  0  0  0  0  0
  -28.0090  -29.1452   21.2057 H   0  0  0  0  0  0  0  0  0  0  0  0
  -26.1369  -26.0560   19.0719 H   0  0  0  0  0  0  0  0  0  0  0  0
  -24.0652  -27.2961   19.0997 H   0  0  0  0  0  0  0  0  0  0  0  0
  -23.6156  -30.5365   19.3930 H   0  0  0  0  0  0  0  0  0  0  0  0
  -22.7355  -29.1425   19.9945 H   0  0  0  0  0  0  0  0  0  0  0  0
  -25.1353  -36.2335   25.0565 H   0  0  0  0  0  0  0  0  0  0  0  0
  -21.0070  -28.3206   24.0793 H   0  0  0  0  0  0  0  0  0  0  0  0
  -20.5555  -26.2518   23.3550 H   0  0  0  0  0  0  0  0  0  0  0  0
  -21.5974  -26.8362   22.0454 H   0  0  0  0  0  0  0  0  0  0  0  0
  -19.6810  -25.6422   21.1488 H   0  0  0  0  0  0  0  0  0  0  0  0
  -19.6406  -27.3343   20.7034 H   0  0  0  0  0  0  0  0  0  0  0  0
  -17.4282  -26.6888   21.4113 H   0  0  0  0  0  0  0  0  0  0  0  0
  -18.0803  -26.0130   22.9049 H   0  0  0  0  0  0  0  0  0  0  0  0
  -19.7265  -30.6774   24.2204 H   0  0  0  0  0  0  0  0  0  0  0  0
  -17.5064  -31.5856   24.4483 H   0  0  0  0  0  0  0  0  0  0  0  0
  -15.5878  -30.2839   23.7407 H   0  0  0  0  0  0  0  0  0  0  0  0
  -15.9120  -28.0941   22.7766 H   0  0  0  0  0  0  0  0  0  0  0  0
  -24.5787  -30.7757   25.6817 H   0  0  0  0  0  0  0  0  0  0  0  0
  -25.0041  -32.2289   26.5536 H   0  0  0  0  0  0  0  0  0  0  0  0
  -25.8166  -30.7245   26.9138 H   0  0  0  0  0  0  0  0  0  0  0  0
  -26.2892  -29.7335   24.0803 H   0  0  0  0  0  0  0  0  0  0  0  0
  -27.4336  -29.7484   25.4006 H   0  0  0  0  0  0  0  0  0  0  0  0
  -27.8466  -30.4994   23.8779 H   0  0  0  0  0  0  0  0  0  0  0  0
  -27.2251  -33.3632   26.1242 H   0  0  0  0  0  0  0  0  0  0  0  0
  -28.3902  -32.6065   25.0645 H   0  0  0  0  0  0  0  0  0  0  0  0
  -27.9772  -31.8555   26.5872 H   0  0  0  0  0  0  0  0  0  0  0  0
  -28.2744  -38.0016   24.6863 H   0  0  0  0  0  0  0  0  0  0  0  0
  -28.0396  -36.2711   24.7461 H   0  0  0  0  0  0  0  0  0  0  0  0
  -27.1773  -37.3087   25.8564 H   0  0  0  0  0  0  0  0  0  0  0  0
  -20.9627  -29.9365   21.7352 H   0  0  0  0  0  0  0  0  0  0  0  0
  -26.0447  -38.2561   24.0273 H   0  0  0  0  0  0  0  0  0  0  0  0
  -25.5610  -29.3370   23.1397 H   0  0  0  0  0  0  0  0  0  0  0  0
  -24.1835  -27.5538   19.5912 H   0  0  0  0  0  0  0  0  0  0  0  0
  -25.3744  -32.7078   24.3452 H   0  0  0  0  0  0  0  0  0  0  0  0
  -28.2964  -24.5208   21.2036 H   0  0  0  0  0  0  0  0  0  0  0  0
  -27.9074  -24.6354   19.5454 H   0  0  0  0  0  0  0  0  0  0  0  0
  -25.8748  -24.3445   22.8134 H   0  0  0  0  0  0  0  0  0  0  0  0
  -24.4760  -24.3275   21.8271 H   0  0  0  0  0  0  0  0  0  0  0  0
  -25.7324  -23.6477   19.8896 H   0  0  0  0  0  0  0  0  0  0  0  0
  -25.0903  -32.8764   20.2492 H   0  0  0  0  0  0  0  0  0  0  0  0
  -23.7691  -32.3421   19.2382 H   0  0  0  0  0  0  0  0  0  0  0  0
  -25.4192  -32.1270   18.7055 H   0  0  0  0  0  0  0  0  0  0  0  0
  -26.7058  -21.5920   20.5445 H   0  0  0  0  0  0  0  0  0  0  0  0
  -26.6314  -21.7177   22.0018 H   0  0  0  0  0  0  0  0  0  0  0  0
  -23.7426  -28.9293   17.6672 H   0  0  0  0  0  0  0  0  0  0  0  0
  -23.9773  -30.6177   17.7112 H   0  0  0  0  0  0  0  0  0  0  0  0
  1 25  1  0
  1 30  2  0
  1 86  1  0
  2  3  1  0
  2 25  1  0
  2 92  1  0
  2 93  1  0
  3  4  1  0
  3 94  1  0
  3 95  1  0
  4  5  1  0
  4 96  1  0
  4 97  1  0
  5  6  1  0
  5 26  1  0
  5 98  1  6
  6 25  1  0
  6 99  1  0
  6100  1  0
  7  8  2  0
  7 26  1  0
  7 29  1  0
  8  9  1  0
  8 22  1  0
  9 10  1  0
  9 27  2  0
 10 11  2  0
 10 15  1  0
 11 12  1  0
 11101  1  0
 12 13  2  0
 12102  1  0
 13 14  1  0
 13 31  1  0
 14 15  2  0
 14103  1  0
 15104  1  0
 16 17  2  0
 16 21  1  0
 16 31  1  0
 17 18  1  0
 17105  1  0
 18 19  2  0
 18106  1  0
 19 20  1  0
 19 24  1  0
 20 21  2  0
 20107  1  0
 21 23  1  0
 22 28  1  0
 22 32  2  0
 26 27  1  0
 28108  1  0
 28109  1  0
 29110  1  0
 29111  1  0
 33 34  1  0
 33 66  1  0
 33 70  2  0
 34 36  1  0
 34 59  1  0
 34112  1  6
 35 44  2  0
 35 45  1  0
 35 68  1  0
 36 56  1  0
 36113  1  0
 37 39  1  0
 37 47  1  0
 37 66  1  0
 37114  1  6
 38 43  2  0
 38 46  1  0
 38 47  1  0
 39 64  1  0
 39 67  2  0
 40 52  1  0
 40 53  2  0
 40 58  1  0
 41115  1  0
 41116  1  0
 41117  1  0
 42 43  1  0
 42 66  1  0
 42118  1  0
 42119  1  0
 43 44  1  0
 44120  1  0
 45 46  2  0
 45121  1  0
 46122  1  0
 47123  1  0
 47124  1  0
 48 41  1  0
 48 56  1  0
 48 65  1  0
 48125  1  1
 49 50  1  0
 49 53  1  0
 49 64  1  0
 49126  1  1
 50 51  1  0
 50127  1  0
 50128  1  0
 51 52  1  0
 51129  1  0
 51130  1  0
 52131  1  0
 52132  1  0
 53 54  1  0
 54 55  2  0
 54133  1  0
 55 57  1  0
 55134  1  0
 56 69  2  0
 57 58  2  0
 57135  1  0
 58136  1  0
 59 60  1  0
 59 61  1  0
 59 62  1  0
 60137  1  0
 60138  1  0
 60139  1  0
 61140  1  0
 61141  1  0
 61142  1  0
 62143  1  0
 62144  1  0
 62145  1  0
 63 65  1  0
 63146  1  0
 63147  1  0
 63148  1  0
 64149  1  0
 65150  1  0
 68 85  1  0
 71 73  2  0
 71 74  1  0
 71151  1  0
 72 73  1  0
 72 76  2  0
 72152  1  0
 73 80  1  0
 74 75  2  0
 74 79  1  0
 75 76  1  0
 75 84  1  0
 76 88  1  0
 77 81  1  0
 77 87  1  0
 77 89  2  0
 78 79  1  0
 78 86  2  0
 78153  1  0
 79 90  2  0
 80 87  1  0
 80 91  2  0
 81 83  1  0
 81154  1  0
 81155  1  0
 82 83  1  0
 82 87  1  0
 82156  1  0
 82157  1  0
 83 85  1  0
 83158  1  6
 84159  1  0
 84160  1  0
 84161  1  0
 85162  1  0
 85163  1  0
 88164  1  0
 88165  1  0
M  ISO  4   1 100  68 101  85 101  86 100
M  END
$$$$
77
     RDKit          3D

154162  0  0  0  0  0  0  0  0999 V2000
  -30.7652  -14.3608   20.6636 C   0  0  0  0  0  0  0  0  0100  0  0
  -30.4392  -12.2669   19.3775 C   0  0  0  0  0  0  0  0  0101  0  0
  -29.4791  -12.5281   18.1977 C   0  0  0  0  0  0  0  0  0102  0  0
  -27.9985  -12.3963   18.6038 C   0  0  0  0  0  0  0  0  0103  0  0
  -27.6639  -13.2170   19.8820 C   0  0  2  0  0  0  0  0  0104  0  0
  -28.6795  -12.9602   21.0279 C   0  0  0  0  0  0  0  0  0105  0  0
  -25.2633  -13.8245   20.5754 C   0  0  0  0  0  0  0  0  0106  0  0
  -24.1645  -13.0409   20.9408 C   0  0  0  0  0  0  0  0  0107  0  0
  -24.6400  -11.7009   20.8697 C   0  0  0  0  0  0  0  0  0108  0  0
  -23.9005  -10.4085   21.0420 C   0  0  0  0  0  0  0  0  0109  0  0
  -24.3588   -9.4123   21.9123 C   0  0  0  0  0  0  0  0  0110  0  0
  -23.6296   -8.2350   22.0803 C   0  0  0  0  0  0  0  0  0111  0  0
  -22.4385   -8.0419   21.3657 C   0  0  0  0  0  0  0  0  0112  0  0
  -22.0103   -9.0167   20.4678 C   0  0  0  0  0  0  0  0  0113  0  0
  -22.7317  -10.1925   20.3102 C   0  0  0  0  0  0  0  0  0114  0  0
  -21.6857   -6.0709   22.5391 C   0  0  0  0  0  0  0  0  0115  0  0
  -21.4064   -6.5490   23.8264 C   0  0  0  0  0  0  0  0  0116  0  0
  -21.3635   -5.6677   24.9085 C   0  0  0  0  0  0  0  0  0117  0  0
  -21.5973   -4.3067   24.7088 C   0  0  0  0  0  0  0  0  0118  0  0
  -21.8700   -3.8284   23.4282 C   0  0  0  0  0  0  0  0  0119  0  0
  -21.9144   -4.7056   22.3460 C   0  0  0  0  0  0  0  0  0120  0  0
  -22.8194  -13.5263   21.1763 C   0  0  0  0  0  0  0  0  0121  0  0
  -22.1559   -4.2206   21.1063 F   0  0  0  0  0  0  0  0  0122  0  0
  -21.5628   -3.4510   25.7555 F   0  0  0  0  0  0  0  0  0123  0  0
  -30.0261  -13.1803   20.4553 N   0  0  0  0  0  0  0  0  0124  0  0
  -26.2911  -12.9356   20.3443 N   0  0  0  0  0  0  0  0  0125  0  0
  -25.9236  -11.6675   20.5847 N   0  0  0  0  0  0  0  0  0126  0  0
  -22.0708  -12.7905   22.0005 N   0  0  0  0  0  0  0  0  0127  0  0
  -25.4117  -15.1773   20.4097 N   0  0  0  0  0  0  0  0  0128  0  0
  -31.7916  -14.6724   20.0536 O   0  0  0  0  0  0  0  0  0129  0  0
  -21.6670   -6.9022   21.4423 O   0  0  0  0  0  0  0  0  0130  0  0
  -22.3946  -14.5564   20.6568 O   0  0  0  0  0  0  0  0  0131  0  0
  -24.6048  -31.8614   23.2223 C   0  0  0  0  0  0  0  0  0100  0  0
  -25.8822  -32.4841   23.8616 C   0  0  1  0  0  0  0  0  0101  0  0
  -27.2536  -27.5042   20.1156 C   0  0  0  0  0  0  0  0  0102  0  0
  -25.5726  -33.8762   24.2210 N   0  0  0  0  0  0  0  0  0103  0  0
  -23.4066  -30.4859   21.5461 C   0  0  2  0  0  0  0  0  0104  0  0
  -24.8467  -28.9636   20.1247 C   0  0  0  0  0  0  0  0  0105  0  0
  -22.7412  -29.4652   22.5052 C   0  0  0  0  0  0  0  0  0106  0  0
  -18.0167  -28.1302   22.8626 C   0  0  0  0  0  0  0  0  0107  0  0
  -24.1342  -36.7390   23.2568 C   0  0  0  0  0  0  0  0  0108  0  0
  -25.9141  -30.8882   21.3456 C   0  0  0  0  0  0  0  0  0109  0  0
  -25.9930  -29.5029   20.7208 C   0  0  0  0  0  0  0  0  0110  0  0
  -27.1758  -28.7612   20.7331 C   0  0  0  0  0  0  0  0  0111  0  0
  -26.1032  -26.9836   19.5230 C   0  0  0  0  0  0  0  0  0112  0  0
  -24.9097  -27.7011   19.5331 C   0  0  0  0  0  0  0  0  0113  0  0
  -23.5715  -29.7899   20.1582 C   0  0  0  0  0  0  0  0  0114  0  0
  -25.3990  -36.3212   24.0232 C   0  0  1  0  0  0  0  0  0115  0  0
  -20.5793  -28.3813   23.1004 C   0  0  2  0  0  0  0  0  0116  0  0
  -20.6548  -26.9392   22.5411 C   0  0  0  0  0  0  0  0  0117  0  0
  -19.5615  -26.6407   21.5143 C   0  0  0  0  0  0  0  0  0118  0  0
  -18.1797  -26.7818   22.1673 C   0  0  0  0  0  0  0  0  0119  0  0
  -19.1385  -28.8769   23.2988 C   0  0  0  0  0  0  0  0  0120  0  0
  -18.9183  -30.1286   23.8878 C   0  0  0  0  0  0  0  0  0121  0  0
  -17.6396  -30.6493   24.0352 C   0  0  0  0  0  0  0  0  0122  0  0
  -25.9153  -34.9582   23.4993 C   0  0  0  0  0  0  0  0  0123  0  0
  -16.5415  -29.9068   23.6254 C   0  0  0  0  0  0  0  0  0124  0  0
  -16.7331  -28.6521   23.0586 C   0  0  0  0  0  0  0  0  0125  0  0
  -26.4583  -31.6439   25.0683 C   0  0  0  0  0  0  0  0  0126  0  0
  -25.3807  -31.3179   26.1374 C   0  0  0  0  0  0  0  0  0127  0  0
  -27.0530  -30.3024   24.5680 C   0  0  0  0  0  0  0  0  0128  0  0
  -27.6014  -32.4281   25.7651 C   0  0  0  0  0  0  0  0  0129  0  0
  -27.5629  -37.2220   24.8621 C   0  0  0  0  0  0  0  0  0130  0  0
  -21.4133  -29.3375   22.3735 N   0  0  0  0  0  0  0  0  0131  0  0
  -26.4706  -37.3372   23.9061 N   0  0  0  0  0  0  0  0  0132  0  0
  -24.6674  -31.0544   22.1178 N   0  0  0  0  0  0  0  0  0133  0  0
  -23.4259  -28.8150   23.2971 O   0  0  0  0  0  0  0  0  0134  0  0
  -28.3948  -26.7345   20.0089 O   0  0  0  0  0  0  0  0  0135  0  0
  -26.5870  -34.9065   22.4671 O   0  0  0  0  0  0  0  0  0136  0  0
  -23.5365  -32.1254   23.7833 O   0  0  0  0  0  0  0  0  0137  0  0
  -27.0438  -17.1172   16.5588 C   0  0  0  0  0  0  0  0  0  0  0  0
  -25.9551  -17.8414   16.0732 C   0  0  0  0  0  0  0  0  0  0  0  0
  -28.4249  -18.0048   14.7863 C   0  0  0  0  0  0  0  0  0  0  0  0
  -28.2787  -17.1990   15.9154 C   0  0  0  0  0  0  0  0  0  0  0  0
  -26.1012  -18.6473   14.9441 C   0  0  0  0  0  0  0  0  0  0  0  0
  -27.3361  -18.7290   14.3006 C   0  0  0  0  0  0  0  0  0  0  0  0
  -29.4389  -16.4281   16.4318 C   0  0  0  0  0  0  0  0  0  0  0  0
  -22.7267  -20.1856   14.2632 C   0  0  0  0  0  0  0  0  0  0  0  0
  -23.7068  -19.3386   15.0657 C   0  0  0  0  0  0  0  0  0  0  0  0
  -23.1199  -21.6571   14.2062 C   0  0  0  0  0  0  0  0  0  1  0  0
  -25.0176  -19.3655   14.4630 N   0  0  0  0  0  0  0  0  0  0  0  0
  -29.1244  -15.2624   17.1307 N   0  0  0  0  0  0  0  0  0  0  0  0
  -30.5757  -16.8241   16.1893 O   0  0  0  0  0  0  0  0  0  0  0  0
  -27.4879  -19.5002   13.2146 F   0  0  0  0  0  0  0  0  0  0  0  0
  -31.4485  -12.4701   19.0860 H   0  0  0  0  0  0  0  0  0  0  0  0
  -30.3970  -11.2460   19.6950 H   0  0  0  0  0  0  0  0  0  0  0  0
  -29.6870  -11.8204   17.4226 H   0  0  0  0  0  0  0  0  0  0  0  0
  -29.6375  -13.5326   17.8649 H   0  0  0  0  0  0  0  0  0  0  0  0
  -27.7830  -11.3650   18.7904 H   0  0  0  0  0  0  0  0  0  0  0  0
  -27.4028  -12.7801   17.8021 H   0  0  0  0  0  0  0  0  0  0  0  0
  -27.7353  -14.2503   19.6136 H   0  0  0  0  0  0  0  0  0  0  0  0
  -28.5890  -11.9550   21.3832 H   0  0  0  0  0  0  0  0  0  0  0  0
  -28.5005  -13.6134   21.8562 H   0  0  0  0  0  0  0  0  0  0  0  0
  -25.2399   -9.5495   22.4318 H   0  0  0  0  0  0  0  0  0  0  0  0
  -23.9663   -7.5070   22.7297 H   0  0  0  0  0  0  0  0  0  0  0  0
  -21.1515   -8.8641   19.9162 H   0  0  0  0  0  0  0  0  0  0  0  0
  -22.4016  -10.9115   19.6476 H   0  0  0  0  0  0  0  0  0  0  0  0
  -21.2319   -7.5552   23.9750 H   0  0  0  0  0  0  0  0  0  0  0  0
  -21.1589   -6.0228   25.8556 H   0  0  0  0  0  0  0  0  0  0  0  0
  -22.0396   -2.8212   23.2809 H   0  0  0  0  0  0  0  0  0  0  0  0
  -22.4401  -11.9703   22.4008 H   0  0  0  0  0  0  0  0  0  0  0  0
  -21.1493  -13.0679   22.2082 H   0  0  0  0  0  0  0  0  0  0  0  0
  -24.6538  -15.7807   20.5848 H   0  0  0  0  0  0  0  0  0  0  0  0
  -26.2762  -15.5453   20.1156 H   0  0  0  0  0  0  0  0  0  0  0  0
  -26.6778  -32.4663   23.1464 H   0  0  0  0  0  0  0  0  0  0  0  0
  -25.0747  -34.0282   25.0566 H   0  0  0  0  0  0  0  0  0  0  0  0
  -22.7881  -31.3489   21.4131 H   0  0  0  0  0  0  0  0  0  0  0  0
  -23.3854  -35.9823   23.3648 H   0  0  0  0  0  0  0  0  0  0  0  0
  -24.3696  -36.8624   22.2204 H   0  0  0  0  0  0  0  0  0  0  0  0
  -23.7669  -37.6632   23.6516 H   0  0  0  0  0  0  0  0  0  0  0  0
  -25.9445  -31.6237   20.5691 H   0  0  0  0  0  0  0  0  0  0  0  0
  -26.7436  -31.0079   22.0108 H   0  0  0  0  0  0  0  0  0  0  0  0
  -28.0090  -29.1452   21.2057 H   0  0  0  0  0  0  0  0  0  0  0  0
  -26.1369  -26.0560   19.0719 H   0  0  0  0  0  0  0  0  0  0  0  0
  -24.0652  -27.2961   19.0997 H   0  0  0  0  0  0  0  0  0  0  0  0
  -23.6156  -30.5365   19.3930 H   0  0  0  0  0  0  0  0  0  0  0  0
  -22.7355  -29.1425   19.9945 H   0  0  0  0  0  0  0  0  0  0  0  0
  -25.1353  -36.2335   25.0565 H   0  0  0  0  0  0  0  0  0  0  0  0
  -21.0070  -28.3206   24.0793 H   0  0  0  0  0  0  0  0  0  0  0  0
  -20.5555  -26.2518   23.3550 H   0  0  0  0  0  0  0  0  0  0  0  0
  -21.5974  -26.8362   22.0454 H   0  0  0  0  0  0  0  0  0  0  0  0
  -19.6810  -25.6422   21.1488 H   0  0  0  0  0  0  0  0  0  0  0  0
  -19.6406  -27.3343   20.7034 H   0  0  0  0  0  0  0  0  0  0  0  0
  -17.4282  -26.6888   21.4113 H   0  0  0  0  0  0  0  0  0  0  0  0
  -18.0803  -26.0130   22.9049 H   0  0  0  0  0  0  0  0  0  0  0  0
  -19.7265  -30.6774   24.2204 H   0  0  0  0  0  0  0  0  0  0  0  0
  -17.5064  -31.5856   24.4483 H   0  0  0  0  0  0  0  0  0  0  0  0
  -15.5878  -30.2839   23.7407 H   0  0  0  0  0  0  0  0  0  0  0  0
  -15.9120  -28.0941   22.7766 H   0  0  0  0  0  0  0  0  0  0  0  0
  -24.5787  -30.7757   25.6817 H   0  0  0  0  0  0  0  0  0  0  0  0
  -25.0041  -32.2289   26.5536 H   0  0  0  0  0  0  0  0  0  0  0  0
  -25.8166  -30.7245   26.9138 H   0  0  0  0  0  0  0  0  0  0  0  0
  -26.2892  -29.7335   24.0803 H   0  0  0  0  0  0  0  0  0  0  0  0
  -27.4336  -29.7484   25.4006 H   0  0  0  0  0  0  0  0  0  0  0  0
  -27.8466  -30.4994   23.8779 H   0  0  0  0  0  0  0  0  0  0  0  0
  -27.2251  -33.3632   26.1242 H   0  0  0  0  0  0  0  0  0  0  0  0
  -28.3902  -32.6065   25.0645 H   0  0  0  0  0  0  0  0  0  0  0  0
  -27.9772  -31.8555   26.5872 H   0  0  0  0  0  0  0  0  0  0  0  0
  -28.2744  -38.0016   24.6863 H   0  0  0  0  0  0  0  0  0  0  0  0
  -28.0396  -36.2711   24.7461 H   0  0  0  0  0  0  0  0  0  0  0  0
  -27.1773  -37.3087   25.8564 H   0  0  0  0  0  0  0  0  0  0  0  0
  -20.9627  -29.9365   21.7352 H   0  0  0  0  0  0  0  0  0  0  0  0
  -26.0447  -38.2561   24.0273 H   0  0  0  0  0  0  0  0  0  0  0  0
  -26.9357  -16.5209   17.3941 H   0  0  0  0  0  0  0  0  0  0  0  0
  -25.0415  -17.7810   16.5493 H   0  0  0  0  0  0  0  0  0  0  0  0
  -29.3385  -18.0652   14.3103 H   0  0  0  0  0  0  0  0  0  0  0  0
  -21.7598  -20.1082   14.7148 H   0  0  0  0  0  0  0  0  0  0  0  0
  -22.7295  -19.8142   13.2597 H   0  0  0  0  0  0  0  0  0  0  0  0
  -23.3550  -18.3286   15.0960 H   0  0  0  0  0  0  0  0  0  0  0  0
  -23.7756  -19.7381   16.0560 H   0  0  0  0  0  0  0  0  0  0  0  0
  -22.1839  -22.1752   14.1859 H   0  0  0  0  0  0  0  0  0  0  0  0
  -23.8286  -21.5794   13.4083 H   0  0  0  0  0  0  0  0  0  0  0  0
  -25.1499  -19.9260   13.6645 H   0  0  0  0  0  0  0  0  0  0  0  0
  -28.4728  -14.6372   16.7386 H   0  0  0  0  0  0  0  0  0  0  0  0
  1 25  1  0
  1 30  2  0
  1 82  1  0
  2  3  1  0
  2 25  1  0
  2 85  1  0
  2 86  1  0
  3  4  1  0
  3 87  1  0
  3 88  1  0
  4  5  1  0
  4 89  1  0
  4 90  1  0
  5  6  1  0
  5 26  1  0
  5 91  1  6
  6 25  1  0
  6 92  1  0
  6 93  1  0
  7  8  2  0
  7 26  1  0
  7 29  1  0
  8  9  1  0
  8 22  1  0
  9 10  1  0
  9 27  2  0
 10 11  2  0
 10 15  1  0
 11 12  1  0
 11 94  1  0
 12 13  2  0
 12 95  1  0
 13 14  1  0
 13 31  1  0
 14 15  2  0
 14 96  1  0
 15 97  1  0
 16 17  2  0
 16 21  1  0
 16 31  1  0
 17 18  1  0
 17 98  1  0
 18 19  2  0
 18 99  1  0
 19 20  1  0
 19 24  1  0
 20 21  2  0
 20100  1  0
 21 23  1  0
 22 28  1  0
 22 32  2  0
 26 27  1  0
 28101  1  0
 28102  1  0
 29103  1  0
 29104  1  0
 33 34  1  0
 33 66  1  0
 33 70  2  0
 34 36  1  0
 34 59  1  0
 34105  1  6
 35 44  2  0
 35 45  1  0
 35 68  1  0
 36 56  1  0
 36106  1  0
 37 39  1  0
 37 47  1  0
 37 66  1  0
 37107  1  6
 38 43  2  0
 38 46  1  0
 38 47  1  0
 39 64  1  0
 39 67  2  0
 40 52  1  0
 40 53  2  0
 40 58  1  0
 41108  1  0
 41109  1  0
 41110  1  0
 42 43  1  0
 42 66  1  0
 42111  1  0
 42112  1  0
 43 44  1  0
 44113  1  0
 45 46  2  0
 45114  1  0
 46115  1  0
 47116  1  0
 47117  1  0
 48 41  1  0
 48 56  1  0
 48 65  1  0
 48118  1  1
 49 50  1  0
 49 53  1  0
 49 64  1  0
 49119  1  1
 50 51  1  0
 50120  1  0
 50121  1  0
 51 52  1  0
 51122  1  0
 51123  1  0
 52124  1  0
 52125  1  0
 53 54  1  0
 54 55  2  0
 54126  1  0
 55 57  1  0
 55127  1  0
 56 69  2  0
 57 58  2  0
 57128  1  0
 58129  1  0
 59 60  1  0
 59 61  1  0
 59 62  1  0
 60130  1  0
 60131  1  0
 60132  1  0
 61133  1  0
 61134  1  0
 61135  1  0
 62136  1  0
 62137  1  0
 62138  1  0
 63 65  1  0
 63139  1  0
 63140  1  0
 63141  1  0
 64142  1  0
 65143  1  0
 68 80  1  0
 71 72  2  0
 71 74  1  0
 71144  1  0
 72 75  1  0
 72145  1  0
 73 74  2  0
 73 76  1  0
 73146  1  0
 74 77  1  0
 75 76  2  0
 75 81  1  0
 76 84  1  0
 77 82  1  0
 77 83  2  0
 78 79  1  0
 78 80  1  0
 78147  1  0
 78148  1  0
 79 81  1  0
 79149  1  0
 79150  1  0
 80151  1  0
 80152  1  0
 81153  1  0
 82154  1  0
M  ISO  4   1 100  68 101  80 101  82 100
M  END
$$$$
78
     RDKit          3D

160169  0  0  0  0  0  0  0  0999 V2000
  -30.7652  -14.3608   20.6636 C   0  0  0  0  0  0  0  0  0100  0  0
  -30.4392  -12.2669   19.3775 C   0  0  0  0  0  0  0  0  0101  0  0
  -29.4791  -12.5281   18.1977 C   0  0  0  0  0  0  0  0  0102  0  0
  -27.9985  -12.3963   18.6038 C   0  0  0  0  0  0  0  0  0103  0  0
  -27.6639  -13.2170   19.8820 C   0  0  2  0  0  0  0  0  0104  0  0
  -28.6795  -12.9602   21.0279 C   0  0  0  0  0  0  0  0  0105  0  0
  -25.2633  -13.8245   20.5754 C   0  0  0  0  0  0  0  0  0106  0  0
  -24.1645  -13.0409   20.9408 C   0  0  0  0  0  0  0  0  0107  0  0
  -24.6400  -11.7009   20.8697 C   0  0  0  0  0  0  0  0  0108  0  0
  -23.9005  -10.4085   21.0420 C   0  0  0  0  0  0  0  0  0109  0  0
  -24.3588   -9.4123   21.9123 C   0  0  0  0  0  0  0  0  0110  0  0
  -23.6296   -8.2350   22.0803 C   0  0  0  0  0  0  0  0  0111  0  0
  -22.4385   -8.0419   21.3657 C   0  0  0  0  0  0  0  0  0112  0  0
  -22.0103   -9.0167   20.4678 C   0  0  0  0  0  0  0  0  0113  0  0
  -22.7317  -10.1925   20.3102 C   0  0  0  0  0  0  0  0  0114  0  0
  -21.6857   -6.0709   22.5391 C   0  0  0  0  0  0  0  0  0115  0  0
  -21.4064   -6.5490   23.8264 C   0  0  0  0  0  0  0  0  0116  0  0
  -21.3635   -5.6677   24.9085 C   0  0  0  0  0  0  0  0  0117  0  0
  -21.5973   -4.3067   24.7088 C   0  0  0  0  0  0  0  0  0118  0  0
  -21.8700   -3.8284   23.4282 C   0  0  0  0  0  0  0  0  0119  0  0
  -21.9144   -4.7056   22.3460 C   0  0  0  0  0  0  0  0  0120  0  0
  -22.8194  -13.5263   21.1763 C   0  0  0  0  0  0  0  0  0121  0  0
  -22.1559   -4.2206   21.1063 F   0  0  0  0  0  0  0  0  0122  0  0
  -21.5628   -3.4510   25.7555 F   0  0  0  0  0  0  0  0  0123  0  0
  -30.0261  -13.1803   20.4553 N   0  0  0  0  0  0  0  0  0124  0  0
  -26.2911  -12.9356   20.3443 N   0  0  0  0  0  0  0  0  0125  0  0
  -25.9236  -11.6675   20.5847 N   0  0  0  0  0  0  0  0  0126  0  0
  -22.0708  -12.7905   22.0005 N   0  0  0  0  0  0  0  0  0127  0  0
  -25.4117  -15.1773   20.4097 N   0  0  0  0  0  0  0  0  0128  0  0
  -31.7916  -14.6724   20.0536 O   0  0  0  0  0  0  0  0  0129  0  0
  -21.6670   -6.9022   21.4423 O   0  0  0  0  0  0  0  0  0130  0  0
  -22.3946  -14.5564   20.6568 O   0  0  0  0  0  0  0  0  0131  0  0
  -24.6048  -31.8614   23.2223 C   0  0  0  0  0  0  0  0  0100  0  0
  -25.8822  -32.4841   23.8616 C   0  0  1  0  0  0  0  0  0101  0  0
  -27.2536  -27.5042   20.1156 C   0  0  0  0  0  0  0  0  0102  0  0
  -25.5726  -33.8762   24.2210 N   0  0  0  0  0  0  0  0  0103  0  0
  -23.4066  -30.4859   21.5461 C   0  0  2  0  0  0  0  0  0104  0  0
  -24.8467  -28.9636   20.1247 C   0  0  0  0  0  0  0  0  0105  0  0
  -22.7412  -29.4652   22.5052 C   0  0  0  0  0  0  0  0  0106  0  0
  -18.0167  -28.1302   22.8626 C   0  0  0  0  0  0  0  0  0107  0  0
  -24.1342  -36.7390   23.2568 C   0  0  0  0  0  0  0  0  0108  0  0
  -25.9141  -30.8882   21.3456 C   0  0  0  0  0  0  0  0  0109  0  0
  -25.9930  -29.5029   20.7208 C   0  0  0  0  0  0  0  0  0110  0  0
  -27.1758  -28.7612   20.7331 C   0  0  0  0  0  0  0  0  0111  0  0
  -26.1032  -26.9836   19.5230 C   0  0  0  0  0  0  0  0  0112  0  0
  -24.9097  -27.7011   19.5331 C   0  0  0  0  0  0  0  0  0113  0  0
  -23.5715  -29.7899   20.1582 C   0  0  0  0  0  0  0  0  0114  0  0
  -25.3990  -36.3212   24.0232 C   0  0  1  0  0  0  0  0  0115  0  0
  -20.5793  -28.3813   23.1004 C   0  0  2  0  0  0  0  0  0116  0  0
  -20.6548  -26.9392   22.5411 C   0  0  0  0  0  0  0  0  0117  0  0
  -19.5615  -26.6407   21.5143 C   0  0  0  0  0  0  0  0  0118  0  0
  -18.1797  -26.7818   22.1673 C   0  0  0  0  0  0  0  0  0119  0  0
  -19.1385  -28.8769   23.2988 C   0  0  0  0  0  0  0  0  0120  0  0
  -18.9183  -30.1286   23.8878 C   0  0  0  0  0  0  0  0  0121  0  0
  -17.6396  -30.6493   24.0352 C   0  0  0  0  0  0  0  0  0122  0  0
  -25.9153  -34.9582   23.4993 C   0  0  0  0  0  0  0  0  0123  0  0
  -16.5415  -29.9068   23.6254 C   0  0  0  0  0  0  0  0  0124  0  0
  -16.7331  -28.6521   23.0586 C   0  0  0  0  0  0  0  0  0125  0  0
  -26.4583  -31.6439   25.0683 C   0  0  0  0  0  0  0  0  0126  0  0
  -25.3807  -31.3179   26.1374 C   0  0  0  0  0  0  0  0  0127  0  0
  -27.0530  -30.3024   24.5680 C   0  0  0  0  0  0  0  0  0128  0  0
  -27.6014  -32.4281   25.7651 C   0  0  0  0  0  0  0  0  0129  0  0
  -27.5629  -37.2220   24.8621 C   0  0  0  0  0  0  0  0  0130  0  0
  -21.4133  -29.3375   22.3735 N   0  0  0  0  0  0  0  0  0131  0  0
  -26.4706  -37.3372   23.9061 N   0  0  0  0  0  0  0  0  0132  0  0
  -24.6674  -31.0544   22.1178 N   0  0  0  0  0  0  0  0  0133  0  0
  -23.4259  -28.8150   23.2971 O   0  0  0  0  0  0  0  0  0134  0  0
  -28.3948  -26.7345   20.0089 O   0  0  0  0  0  0  0  0  0135  0  0
  -26.5870  -34.9065   22.4671 O   0  0  0  0  0  0  0  0  0136  0  0
  -23.5365  -32.1254   23.7833 O   0  0  0  0  0  0  0  0  0137  0  0
  -32.4404  -18.3513   21.7647 C   0  0  0  0  0  0  0  0  0  0  0  0
  -31.9054  -17.1609   21.2723 C   0  0  0  0  0  0  0  0  0  0  0  0
  -30.2760  -19.4063   21.5663 C   0  0  0  0  0  0  0  0  0  0  0  0
  -31.6257  -19.4740   21.9117 C   0  0  0  0  0  0  0  0  0  0  0  0
  -30.5556  -17.0933   20.9269 C   0  0  0  0  0  0  0  0  0  0  0  0
  -29.7409  -18.2160   21.0739 C   0  0  0  0  0  0  0  0  0  0  0  0
  -33.2587  -20.6927   23.3254 C   0  0  0  0  0  0  0  0  0  0  0  0
  -33.9651  -22.0152   23.5561 C   0  0  0  0  0  0  0  0  0  0  0  0
  -33.0550  -23.2234   23.5230 C   0  0  0  0  0  0  0  0  0  0  0  0
  -31.4461  -21.9528   22.1300 C   0  0  0  0  0  0  0  0  0  0  0  0
  -32.2886  -23.2250   22.2106 C   0  0  1  0  0  0  0  0  0  0  0  0
  -31.4084  -24.4673   22.0911 C   0  0  0  0  0  0  0  0  0  1  0  0
  -32.1813  -20.7089   22.4229 N   0  0  0  0  0  0  0  0  0  0  0  0
  -28.3711  -18.1694   20.7304 N   0  0  0  0  0  0  0  0  0  0  0  0
  -30.0350  -15.8731   20.4292 N   0  0  0  0  0  0  0  0  0  0  0  0
  -33.7054  -19.6906   23.8902 O   0  0  0  0  0  0  0  0  0  0  0  0
  -31.4485  -12.4701   19.0860 H   0  0  0  0  0  0  0  0  0  0  0  0
  -30.3970  -11.2460   19.6950 H   0  0  0  0  0  0  0  0  0  0  0  0
  -29.6870  -11.8204   17.4226 H   0  0  0  0  0  0  0  0  0  0  0  0
  -29.6375  -13.5326   17.8649 H   0  0  0  0  0  0  0  0  0  0  0  0
  -27.7830  -11.3650   18.7904 H   0  0  0  0  0  0  0  0  0  0  0  0
  -27.4028  -12.7801   17.8021 H   0  0  0  0  0  0  0  0  0  0  0  0
  -27.7353  -14.2503   19.6136 H   0  0  0  0  0  0  0  0  0  0  0  0
  -28.5890  -11.9550   21.3832 H   0  0  0  0  0  0  0  0  0  0  0  0
  -28.5005  -13.6134   21.8562 H   0  0  0  0  0  0  0  0  0  0  0  0
  -25.2399   -9.5495   22.4318 H   0  0  0  0  0  0  0  0  0  0  0  0
  -23.9663   -7.5070   22.7297 H   0  0  0  0  0  0  0  0  0  0  0  0
  -21.1515   -8.8641   19.9162 H   0  0  0  0  0  0  0  0  0  0  0  0
  -22.4016  -10.9115   19.6476 H   0  0  0  0  0  0  0  0  0  0  0  0
  -21.2319   -7.5552   23.9750 H   0  0  0  0  0  0  0  0  0  0  0  0
  -21.1589   -6.0228   25.8556 H   0  0  0  0  0  0  0  0  0  0  0  0
  -22.0396   -2.8212   23.2809 H   0  0  0  0  0  0  0  0  0  0  0  0
  -22.4401  -11.9703   22.4008 H   0  0  0  0  0  0  0  0  0  0  0  0
  -21.1493  -13.0679   22.2082 H   0  0  0  0  0  0  0  0  0  0  0  0
  -24.6538  -15.7807   20.5848 H   0  0  0  0  0  0  0  0  0  0  0  0
  -26.2762  -15.5453   20.1156 H   0  0  0  0  0  0  0  0  0  0  0  0
  -26.6778  -32.4663   23.1464 H   0  0  0  0  0  0  0  0  0  0  0  0
  -25.0747  -34.0282   25.0566 H   0  0  0  0  0  0  0  0  0  0  0  0
  -22.7881  -31.3489   21.4131 H   0  0  0  0  0  0  0  0  0  0  0  0
  -23.3854  -35.9823   23.3648 H   0  0  0  0  0  0  0  0  0  0  0  0
  -24.3696  -36.8624   22.2204 H   0  0  0  0  0  0  0  0  0  0  0  0
  -23.7669  -37.6632   23.6516 H   0  0  0  0  0  0  0  0  0  0  0  0
  -25.9445  -31.6237   20.5691 H   0  0  0  0  0  0  0  0  0  0  0  0
  -26.7436  -31.0079   22.0108 H   0  0  0  0  0  0  0  0  0  0  0  0
  -28.0090  -29.1452   21.2057 H   0  0  0  0  0  0  0  0  0  0  0  0
  -26.1369  -26.0560   19.0719 H   0  0  0  0  0  0  0  0  0  0  0  0
  -24.0652  -27.2961   19.0997 H   0  0  0  0  0  0  0  0  0  0  0  0
  -23.6156  -30.5365   19.3930 H   0  0  0  0  0  0  0  0  0  0  0  0
  -22.7355  -29.1425   19.9945 H   0  0  0  0  0  0  0  0  0  0  0  0
  -25.1353  -36.2335   25.0565 H   0  0  0  0  0  0  0  0  0  0  0  0
  -21.0070  -28.3206   24.0793 H   0  0  0  0  0  0  0  0  0  0  0  0
  -20.5555  -26.2518   23.3550 H   0  0  0  0  0  0  0  0  0  0  0  0
  -21.5974  -26.8362   22.0454 H   0  0  0  0  0  0  0  0  0  0  0  0
  -19.6810  -25.6422   21.1488 H   0  0  0  0  0  0  0  0  0  0  0  0
  -19.6406  -27.3343   20.7034 H   0  0  0  0  0  0  0  0  0  0  0  0
  -17.4282  -26.6888   21.4113 H   0  0  0  0  0  0  0  0  0  0  0  0
  -18.0803  -26.0130   22.9049 H   0  0  0  0  0  0  0  0  0  0  0  0
  -19.7265  -30.6774   24.2204 H   0  0  0  0  0  0  0  0  0  0  0  0
  -17.5064  -31.5856   24.4483 H   0  0  0  0  0  0  0  0  0  0  0  0
  -15.5878  -30.2839   23.7407 H   0  0  0  0  0  0  0  0  0  0  0  0
  -15.9120  -28.0941   22.7766 H   0  0  0  0  0  0  0  0  0  0  0  0
  -24.5787  -30.7757   25.6817 H   0  0  0  0  0  0  0  0  0  0  0  0
  -25.0041  -32.2289   26.5536 H   0  0  0  0  0  0  0  0  0  0  0  0
  -25.8166  -30.7245   26.9138 H   0  0  0  0  0  0  0  0  0  0  0  0
  -26.2892  -29.7335   24.0803 H   0  0  0  0  0  0  0  0  0  0  0  0
  -27.4336  -29.7484   25.4006 H   0  0  0  0  0  0  0  0  0  0  0  0
  -27.8466  -30.4994   23.8779 H   0  0  0  0  0  0  0  0  0  0  0  0
  -27.2251  -33.3632   26.1242 H   0  0  0  0  0  0  0  0  0  0  0  0
  -28.3902  -32.6065   25.0645 H   0  0  0  0  0  0  0  0  0  0  0  0
  -27.9772  -31.8555   26.5872 H   0  0  0  0  0  0  0  0  0  0  0  0
  -28.2744  -38.0016   24.6863 H   0  0  0  0  0  0  0  0  0  0  0  0
  -28.0396  -36.2711   24.7461 H   0  0  0  0  0  0  0  0  0  0  0  0
  -27.1773  -37.3087   25.8564 H   0  0  0  0  0  0  0  0  0  0  0  0
  -20.9627  -29.9365   21.7352 H   0  0  0  0  0  0  0  0  0  0  0  0
  -26.0447  -38.2561   24.0273 H   0  0  0  0  0  0  0  0  0  0  0  0
  -33.4390  -18.4014   22.0203 H   0  0  0  0  0  0  0  0  0  0  0  0
  -32.5081  -16.3303   21.1635 H   0  0  0  0  0  0  0  0  0  0  0  0
  -29.6733  -20.2369   21.6751 H   0  0  0  0  0  0  0  0  0  0  0  0
  -34.7082  -22.1349   22.7956 H   0  0  0  0  0  0  0  0  0  0  0  0
  -34.3802  -21.9722   24.5414 H   0  0  0  0  0  0  0  0  0  0  0  0
  -33.6399  -24.1162   23.5987 H   0  0  0  0  0  0  0  0  0  0  0  0
  -32.3695  -23.1842   24.3437 H   0  0  0  0  0  0  0  0  0  0  0  0
  -31.0471  -21.8792   21.1399 H   0  0  0  0  0  0  0  0  0  0  0  0
  -30.6903  -22.0420   22.8821 H   0  0  0  0  0  0  0  0  0  0  0  0
  -32.9819  -23.2475   21.3959 H   0  0  0  0  0  0  0  0  0  0  0  0
  -32.1790  -25.2094   22.1109 H   0  0  0  0  0  0  0  0  0  0  0  0
  -30.6287  -23.9364   22.5961 H   0  0  0  0  0  0  0  0  0  0  0  0
  -27.8087  -18.9700   20.8397 H   0  0  0  0  0  0  0  0  0  0  0  0
  -27.9791  -17.3363   20.3818 H   0  0  0  0  0  0  0  0  0  0  0  0
  -29.1962  -15.9054   19.9147 H   0  0  0  0  0  0  0  0  0  0  0  0
  1 25  1  0
  1 30  2  0
  1 85  1  0
  2  3  1  0
  2 25  1  0
  2 87  1  0
  2 88  1  0
  3  4  1  0
  3 89  1  0
  3 90  1  0
  4  5  1  0
  4 91  1  0
  4 92  1  0
  5  6  1  0
  5 26  1  0
  5 93  1  6
  6 25  1  0
  6 94  1  0
  6 95  1  0
  7  8  2  0
  7 26  1  0
  7 29  1  0
  8  9  1  0
  8 22  1  0
  9 10  1  0
  9 27  2  0
 10 11  2  0
 10 15  1  0
 11 12  1  0
 11 96  1  0
 12 13  2  0
 12 97  1  0
 13 14  1  0
 13 31  1  0
 14 15  2  0
 14 98  1  0
 15 99  1  0
 16 17  2  0
 16 21  1  0
 16 31  1  0
 17 18  1  0
 17100  1  0
 18 19  2  0
 18101  1  0
 19 20  1  0
 19 24  1  0
 20 21  2  0
 20102  1  0
 21 23  1  0
 22 28  1  0
 22 32  2  0
 26 27  1  0
 28103  1  0
 28104  1  0
 29105  1  0
 29106  1  0
 33 34  1  0
 33 66  1  0
 33 70  2  0
 34 36  1  0
 34 59  1  0
 34107  1  6
 35 44  2  0
 35 45  1  0
 35 68  1  0
 36 56  1  0
 36108  1  0
 37 39  1  0
 37 47  1  0
 37 66  1  0
 37109  1  6
 38 43  2  0
 38 46  1  0
 38 47  1  0
 39 64  1  0
 39 67  2  0
 40 52  1  0
 40 53  2  0
 40 58  1  0
 41110  1  0
 41111  1  0
 41112  1  0
 42 43  1  0
 42 66  1  0
 42113  1  0
 42114  1  0
 43 44  1  0
 44115  1  0
 45 46  2  0
 45116  1  0
 46117  1  0
 47118  1  0
 47119  1  0
 48 41  1  0
 48 56  1  0
 48 65  1  0
 48120  1  1
 49 50  1  0
 49 53  1  0
 49 64  1  0
 49121  1  1
 50 51  1  0
 50122  1  0
 50123  1  0
 51 52  1  0
 51124  1  0
 51125  1  0
 52126  1  0
 52127  1  0
 53 54  1  0
 54 55  2  0
 54128  1  0
 55 57  1  0
 55129  1  0
 56 69  2  0
 57 58  2  0
 57130  1  0
 58131  1  0
 59 60  1  0
 59 61  1  0
 59 62  1  0
 60132  1  0
 60133  1  0
 60134  1  0
 61135  1  0
 61136  1  0
 61137  1  0
 62138  1  0
 62139  1  0
 62140  1  0
 63 65  1  0
 63141  1  0
 63142  1  0
 63143  1  0
 64144  1  0
 65145  1  0
 68 82  1  0
 71 72  2  0
 71 74  1  0
 71146  1  0
 72 75  1  0
 72147  1  0
 73 74  2  0
 73 76  1  0
 73148  1  0
 74 83  1  0
 75 76  2  0
 75 85  1  0
 76 84  1  0
 77 78  1  0
 77 83  1  0
 77 86  2  0
 78 79  1  0
 78149  1  0
 78150  1  0
 79 81  1  0
 79151  1  0
 79152  1  0
 80 81  1  0
 80 83  1  0
 80153  1  0
 80154  1  0
 81 82  1  0
 81155  1  6
 82156  1  0
 82157  1  0
 84158  1  0
 84159  1  0
 85160  1  0
M  ISO  4   1 100  68 101  82 101  85 100
M  END
$$$$
79
     RDKit          3D

154162  0  0  0  0  0  0  0  0999 V2000
  -30.7652  -14.3608   20.6636 C   0  0  0  0  0  0  0  0  0100  0  0
  -30.4392  -12.2669   19.3775 C   0  0  0  0  0  0  0  0  0101  0  0
  -29.4791  -12.5281   18.1977 C   0  0  0  0  0  0  0  0  0102  0  0
  -27.9985  -12.3963   18.6038 C   0  0  0  0  0  0  0  0  0103  0  0
  -27.6639  -13.2170   19.8820 C   0  0  2  0  0  0  0  0  0104  0  0
  -28.6795  -12.9602   21.0279 C   0  0  0  0  0  0  0  0  0105  0  0
  -25.2633  -13.8245   20.5754 C   0  0  0  0  0  0  0  0  0106  0  0
  -24.1645  -13.0409   20.9408 C   0  0  0  0  0  0  0  0  0107  0  0
  -24.6400  -11.7009   20.8697 C   0  0  0  0  0  0  0  0  0108  0  0
  -23.9005  -10.4085   21.0420 C   0  0  0  0  0  0  0  0  0109  0  0
  -24.3588   -9.4123   21.9123 C   0  0  0  0  0  0  0  0  0110  0  0
  -23.6296   -8.2350   22.0803 C   0  0  0  0  0  0  0  0  0111  0  0
  -22.4385   -8.0419   21.3657 C   0  0  0  0  0  0  0  0  0112  0  0
  -22.0103   -9.0167   20.4678 C   0  0  0  0  0  0  0  0  0113  0  0
  -22.7317  -10.1925   20.3102 C   0  0  0  0  0  0  0  0  0114  0  0
  -21.6857   -6.0709   22.5391 C   0  0  0  0  0  0  0  0  0115  0  0
  -21.4064   -6.5490   23.8264 C   0  0  0  0  0  0  0  0  0116  0  0
  -21.3635   -5.6677   24.9085 C   0  0  0  0  0  0  0  0  0117  0  0
  -21.5973   -4.3067   24.7088 C   0  0  0  0  0  0  0  0  0118  0  0
  -21.8700   -3.8284   23.4282 C   0  0  0  0  0  0  0  0  0119  0  0
  -21.9144   -4.7056   22.3460 C   0  0  0  0  0  0  0  0  0120  0  0
  -22.8194  -13.5263   21.1763 C   0  0  0  0  0  0  0  0  0121  0  0
  -22.1559   -4.2206   21.1063 F   0  0  0  0  0  0  0  0  0122  0  0
  -21.5628   -3.4510   25.7555 F   0  0  0  0  0  0  0  0  0123  0  0
  -30.0261  -13.1803   20.4553 N   0  0  0  0  0  0  0  0  0124  0  0
  -26.2911  -12.9356   20.3443 N   0  0  0  0  0  0  0  0  0125  0  0
  -25.9236  -11.6675   20.5847 N   0  0  0  0  0  0  0  0  0126  0  0
  -22.0708  -12.7905   22.0005 N   0  0  0  0  0  0  0  0  0127  0  0
  -25.4117  -15.1773   20.4097 N   0  0  0  0  0  0  0  0  0128  0  0
  -31.7916  -14.6724   20.0536 O   0  0  0  0  0  0  0  0  0129  0  0
  -21.6670   -6.9022   21.4423 O   0  0  0  0  0  0  0  0  0130  0  0
  -22.3946  -14.5564   20.6568 O   0  0  0  0  0  0  0  0  0131  0  0
  -24.6048  -31.8614   23.2223 C   0  0  0  0  0  0  0  0  0100  0  0
  -25.8822  -32.4841   23.8616 C   0  0  1  0  0  0  0  0  0101  0  0
  -27.2536  -27.5042   20.1156 C   0  0  0  0  0  0  0  0  0102  0  0
  -25.5726  -33.8762   24.2210 N   0  0  0  0  0  0  0  0  0103  0  0
  -23.4066  -30.4859   21.5461 C   0  0  2  0  0  0  0  0  0104  0  0
  -24.8467  -28.9636   20.1247 C   0  0  0  0  0  0  0  0  0105  0  0
  -22.7412  -29.4652   22.5052 C   0  0  0  0  0  0  0  0  0106  0  0
  -18.0167  -28.1302   22.8626 C   0  0  0  0  0  0  0  0  0107  0  0
  -24.1342  -36.7390   23.2568 C   0  0  0  0  0  0  0  0  0108  0  0
  -25.9141  -30.8882   21.3456 C   0  0  0  0  0  0  0  0  0109  0  0
  -25.9930  -29.5029   20.7208 C   0  0  0  0  0  0  0  0  0110  0  0
  -27.1758  -28.7612   20.7331 C   0  0  0  0  0  0  0  0  0111  0  0
  -26.1032  -26.9836   19.5230 C   0  0  0  0  0  0  0  0  0112  0  0
  -24.9097  -27.7011   19.5331 C   0  0  0  0  0  0  0  0  0113  0  0
  -23.5715  -29.7899   20.1582 C   0  0  0  0  0  0  0  0  0114  0  0
  -25.3990  -36.3212   24.0232 C   0  0  1  0  0  0  0  0  0115  0  0
  -20.5793  -28.3813   23.1004 C   0  0  2  0  0  0  0  0  0116  0  0
  -20.6548  -26.9392   22.5411 C   0  0  0  0  0  0  0  0  0117  0  0
  -19.5615  -26.6407   21.5143 C   0  0  0  0  0  0  0  0  0118  0  0
  -18.1797  -26.7818   22.1673 C   0  0  0  0  0  0  0  0  0119  0  0
  -19.1385  -28.8769   23.2988 C   0  0  0  0  0  0  0  0  0120  0  0
  -18.9183  -30.1286   23.8878 C   0  0  0  0  0  0  0  0  0121  0  0
  -17.6396  -30.6493   24.0352 C   0  0  0  0  0  0  0  0  0122  0  0
  -25.9153  -34.9582   23.4993 C   0  0  0  0  0  0  0  0  0123  0  0
  -16.5415  -29.9068   23.6254 C   0  0  0  0  0  0  0  0  0124  0  0
  -16.7331  -28.6521   23.0586 C   0  0  0  0  0  0  0  0  0125  0  0
  -26.4583  -31.6439   25.0683 C   0  0  0  0  0  0  0  0  0126  0  0
  -25.3807  -31.3179   26.1374 C   0  0  0  0  0  0  0  0  0127  0  0
  -27.0530  -30.3024   24.5680 C   0  0  0  0  0  0  0  0  0128  0  0
  -27.6014  -32.4281   25.7651 C   0  0  0  0  0  0  0  0  0129  0  0
  -27.5629  -37.2220   24.8621 C   0  0  0  0  0  0  0  0  0130  0  0
  -21.4133  -29.3375   22.3735 N   0  0  0  0  0  0  0  0  0131  0  0
  -26.4706  -37.3372   23.9061 N   0  0  0  0  0  0  0  0  0132  0  0
  -24.6674  -31.0544   22.1178 N   0  0  0  0  0  0  0  0  0133  0  0
  -23.4259  -28.8150   23.2971 O   0  0  0  0  0  0  0  0  0134  0  0
  -28.3948  -26.7345   20.0089 O   0  0  0  0  0  0  0  0  0135  0  0
  -26.5870  -34.9065   22.4671 O   0  0  0  0  0  0  0  0  0136  0  0
  -23.5365  -32.1254   23.7833 O   0  0  0  0  0  0  0  0  0137  0  0
  -30.7714  -21.0292   21.0962 C   0  0  0  0  0  0  0  0  0  0  0  0
  -30.3903  -21.8033   20.0003 C   0  0  0  0  0  0  0  0  0  0  0  0
  -28.7878  -21.7325   22.2828 C   0  0  0  0  0  0  0  0  0  0  0  0
  -29.9701  -20.9937   22.2375 C   0  0  0  0  0  0  0  0  0  0  0  0
  -28.4068  -22.5067   21.1868 C   0  0  0  0  0  0  0  0  0  0  0  0
  -29.2081  -22.5421   20.0456 C   0  0  0  0  0  0  0  0  0  0  0  0
  -30.3681  -20.1860   23.3796 C   0  0  0  0  0  0  0  0  0  0  0  0
  -28.9991  -25.4414   17.8749 C   0  0  0  0  0  0  0  0  0  0  0  0
  -27.9670  -26.0722   18.7964 C   0  0  0  0  0  0  0  0  0  1  0  0
  -29.7576  -24.3139   18.5575 C   0  0  0  0  0  0  0  0  0  0  0  0
  -29.6693  -20.1070   24.4797 N   0  0  0  0  0  0  0  0  0  0  0  0
  -27.2070  -23.2489   21.2457 N   0  0  0  0  0  0  0  0  0  0  0  0
  -28.8507  -23.2956   18.9578 O   0  0  0  0  0  0  0  0  0  0  0  0
  -31.4485  -12.4701   19.0860 H   0  0  0  0  0  0  0  0  0  0  0  0
  -30.3970  -11.2460   19.6950 H   0  0  0  0  0  0  0  0  0  0  0  0
  -29.6870  -11.8204   17.4226 H   0  0  0  0  0  0  0  0  0  0  0  0
  -29.6375  -13.5326   17.8649 H   0  0  0  0  0  0  0  0  0  0  0  0
  -27.7830  -11.3650   18.7904 H   0  0  0  0  0  0  0  0  0  0  0  0
  -27.4028  -12.7801   17.8021 H   0  0  0  0  0  0  0  0  0  0  0  0
  -27.7353  -14.2503   19.6136 H   0  0  0  0  0  0  0  0  0  0  0  0
  -28.5890  -11.9550   21.3832 H   0  0  0  0  0  0  0  0  0  0  0  0
  -28.5005  -13.6134   21.8562 H   0  0  0  0  0  0  0  0  0  0  0  0
  -25.2399   -9.5495   22.4318 H   0  0  0  0  0  0  0  0  0  0  0  0
  -23.9663   -7.5070   22.7297 H   0  0  0  0  0  0  0  0  0  0  0  0
  -21.1515   -8.8641   19.9162 H   0  0  0  0  0  0  0  0  0  0  0  0
  -22.4016  -10.9115   19.6476 H   0  0  0  0  0  0  0  0  0  0  0  0
  -21.2319   -7.5552   23.9750 H   0  0  0  0  0  0  0  0  0  0  0  0
  -21.1589   -6.0228   25.8556 H   0  0  0  0  0  0  0  0  0  0  0  0
  -22.0396   -2.8212   23.2809 H   0  0  0  0  0  0  0  0  0  0  0  0
  -22.4401  -11.9703   22.4008 H   0  0  0  0  0  0  0  0  0  0  0  0
  -21.1493  -13.0679   22.2082 H   0  0  0  0  0  0  0  0  0  0  0  0
  -24.6538  -15.7807   20.5848 H   0  0  0  0  0  0  0  0  0  0  0  0
  -26.2762  -15.5453   20.1156 H   0  0  0  0  0  0  0  0  0  0  0  0
  -26.6778  -32.4663   23.1464 H   0  0  0  0  0  0  0  0  0  0  0  0
  -25.0747  -34.0282   25.0566 H   0  0  0  0  0  0  0  0  0  0  0  0
  -22.7881  -31.3489   21.4131 H   0  0  0  0  0  0  0  0  0  0  0  0
  -23.3854  -35.9823   23.3648 H   0  0  0  0  0  0  0  0  0  0  0  0
  -24.3696  -36.8624   22.2204 H   0  0  0  0  0  0  0  0  0  0  0  0
  -23.7669  -37.6632   23.6516 H   0  0  0  0  0  0  0  0  0  0  0  0
  -25.9445  -31.6237   20.5691 H   0  0  0  0  0  0  0  0  0  0  0  0
  -26.7436  -31.0079   22.0108 H   0  0  0  0  0  0  0  0  0  0  0  0
  -28.0090  -29.1452   21.2057 H   0  0  0  0  0  0  0  0  0  0  0  0
  -26.1369  -26.0560   19.0719 H   0  0  0  0  0  0  0  0  0  0  0  0
  -24.0652  -27.2961   19.0997 H   0  0  0  0  0  0  0  0  0  0  0  0
  -23.6156  -30.5365   19.3930 H   0  0  0  0  0  0  0  0  0  0  0  0
  -22.7355  -29.1425   19.9945 H   0  0  0  0  0  0  0  0  0  0  0  0
  -25.1353  -36.2335   25.0565 H   0  0  0  0  0  0  0  0  0  0  0  0
  -21.0070  -28.3206   24.0793 H   0  0  0  0  0  0  0  0  0  0  0  0
  -20.5555  -26.2518   23.3550 H   0  0  0  0  0  0  0  0  0  0  0  0
  -21.5974  -26.8362   22.0454 H   0  0  0  0  0  0  0  0  0  0  0  0
  -19.6810  -25.6422   21.1488 H   0  0  0  0  0  0  0  0  0  0  0  0
  -19.6406  -27.3343   20.7034 H   0  0  0  0  0  0  0  0  0  0  0  0
  -17.4282  -26.6888   21.4113 H   0  0  0  0  0  0  0  0  0  0  0  0
  -18.0803  -26.0130   22.9049 H   0  0  0  0  0  0  0  0  0  0  0  0
  -19.7265  -30.6774   24.2204 H   0  0  0  0  0  0  0  0  0  0  0  0
  -17.5064  -31.5856   24.4483 H   0  0  0  0  0  0  0  0  0  0  0  0
  -15.5878  -30.2839   23.7407 H   0  0  0  0  0  0  0  0  0  0  0  0
  -15.9120  -28.0941   22.7766 H   0  0  0  0  0  0  0  0  0  0  0  0
  -24.5787  -30.7757   25.6817 H   0  0  0  0  0  0  0  0  0  0  0  0
  -25.0041  -32.2289   26.5536 H   0  0  0  0  0  0  0  0  0  0  0  0
  -25.8166  -30.7245   26.9138 H   0  0  0  0  0  0  0  0  0  0  0  0
  -26.2892  -29.7335   24.0803 H   0  0  0  0  0  0  0  0  0  0  0  0
  -27.4336  -29.7484   25.4006 H   0  0  0  0  0  0  0  0  0  0  0  0
  -27.8466  -30.4994   23.8779 H   0  0  0  0  0  0  0  0  0  0  0  0
  -27.2251  -33.3632   26.1242 H   0  0  0  0  0  0  0  0  0  0  0  0
  -28.3902  -32.6065   25.0645 H   0  0  0  0  0  0  0  0  0  0  0  0
  -27.9772  -31.8555   26.5872 H   0  0  0  0  0  0  0  0  0  0  0  0
  -28.2744  -38.0016   24.6863 H   0  0  0  0  0  0  0  0  0  0  0  0
  -28.0396  -36.2711   24.7461 H   0  0  0  0  0  0  0  0  0  0  0  0
  -27.1773  -37.3087   25.8564 H   0  0  0  0  0  0  0  0  0  0  0  0
  -20.9627  -29.9365   21.7352 H   0  0  0  0  0  0  0  0  0  0  0  0
  -26.0447  -38.2561   24.0273 H   0  0  0  0  0  0  0  0  0  0  0  0
  -31.6462  -20.4827   21.0627 H   0  0  0  0  0  0  0  0  0  0  0  0
  -30.9830  -21.8294   19.1559 H   0  0  0  0  0  0  0  0  0  0  0  0
  -28.1950  -21.7063   23.1271 H   0  0  0  0  0  0  0  0  0  0  0  0
  -29.6971  -26.1935   17.5716 H   0  0  0  0  0  0  0  0  0  0  0  0
  -28.4831  -25.0304   17.0324 H   0  0  0  0  0  0  0  0  0  0  0  0
  -27.2959  -25.2922   19.0898 H   0  0  0  0  0  0  0  0  0  0  0  0
  -27.5634  -26.8693   18.2077 H   0  0  0  0  0  0  0  0  0  0  0  0
  -30.2639  -24.6971   19.4188 H   0  0  0  0  0  0  0  0  0  0  0  0
  -30.4700  -23.9029   17.8731 H   0  0  0  0  0  0  0  0  0  0  0  0
  -29.5116  -20.9136   25.0217 H   0  0  0  0  0  0  0  0  0  0  0  0
  -26.6480  -23.2176   22.0555 H   0  0  0  0  0  0  0  0  0  0  0  0
  -26.9294  -23.7977   20.4769 H   0  0  0  0  0  0  0  0  0  0  0  0
  1 25  1  0
  1 30  2  0
  1 77  1  0
  2  3  1  0
  2 25  1  0
  2 84  1  0
  2 85  1  0
  3  4  1  0
  3 86  1  0
  3 87  1  0
  4  5  1  0
  4 88  1  0
  4 89  1  0
  5  6  1  0
  5 26  1  0
  5 90  1  6
  6 25  1  0
  6 91  1  0
  6 92  1  0
  7  8  2  0
  7 26  1  0
  7 29  1  0
  8  9  1  0
  8 22  1  0
  9 10  1  0
  9 27  2  0
 10 11  2  0
 10 15  1  0
 11 12  1  0
 11 93  1  0
 12 13  2  0
 12 94  1  0
 13 14  1  0
 13 31  1  0
 14 15  2  0
 14 95  1  0
 15 96  1  0
 16 17  2  0
 16 21  1  0
 16 31  1  0
 17 18  1  0
 17 97  1  0
 18 19  2  0
 18 98  1  0
 19 20  1  0
 19 24  1  0
 20 21  2  0
 20 99  1  0
 21 23  1  0
 22 28  1  0
 22 32  2  0
 26 27  1  0
 28100  1  0
 28101  1  0
 29102  1  0
 29103  1  0
 33 34  1  0
 33 66  1  0
 33 70  2  0
 34 36  1  0
 34 59  1  0
 34104  1  6
 35 44  2  0
 35 45  1  0
 35 68  1  0
 36 56  1  0
 36105  1  0
 37 39  1  0
 37 47  1  0
 37 66  1  0
 37106  1  6
 38 43  2  0
 38 46  1  0
 38 47  1  0
 39 64  1  0
 39 67  2  0
 40 52  1  0
 40 53  2  0
 40 58  1  0
 41107  1  0
 41108  1  0
 41109  1  0
 42 43  1  0
 42 66  1  0
 42110  1  0
 42111  1  0
 43 44  1  0
 44112  1  0
 45 46  2  0
 45113  1  0
 46114  1  0
 47115  1  0
 47116  1  0
 48 41  1  0
 48 56  1  0
 48 65  1  0
 48117  1  1
 49 50  1  0
 49 53  1  0
 49 64  1  0
 49118  1  1
 50 51  1  0
 50119  1  0
 50120  1  0
 51 52  1  0
 51121  1  0
 51122  1  0
 52123  1  0
 52124  1  0
 53 54  1  0
 54 55  2  0
 54125  1  0
 55 57  1  0
 55126  1  0
 56 69  2  0
 57 58  2  0
 57127  1  0
 58128  1  0
 59 60  1  0
 59 61  1  0
 59 62  1  0
 60129  1  0
 60130  1  0
 60131  1  0
 61132  1  0
 61133  1  0
 61134  1  0
 62135  1  0
 62136  1  0
 62137  1  0
 63 65  1  0
 63138  1  0
 63139  1  0
 63140  1  0
 64141  1  0
 65142  1  0
 68 79  1  0
 71 72  2  0
 71 74  1  0
 71143  1  0
 72 76  1  0
 72144  1  0
 73 74  2  0
 73 75  1  0
 73145  1  0
 74 77  1  0
 75 76  2  0
 75 82  1  0
 76 83  1  0
 77 81  2  0
 78 79  1  0
 78 80  1  0
 78146  1  0
 78147  1  0
 79148  1  0
 79149  1  0
 80 83  1  0
 80150  1  0
 80151  1  0
 81152  1  0
 82153  1  0
 82154  1  0
M  ISO  4   1 100  68 101  77 100  79 101
M  END
$$$$
80
     RDKit          3D

160168  0  0  0  0  0  0  0  0999 V2000
  -30.7652  -14.3608   20.6636 C   0  0  0  0  0  0  0  0  0100  0  0
  -30.4392  -12.2669   19.3775 C   0  0  0  0  0  0  0  0  0101  0  0
  -29.4791  -12.5281   18.1977 C   0  0  0  0  0  0  0  0  0102  0  0
  -27.9985  -12.3963   18.6038 C   0  0  0  0  0  0  0  0  0103  0  0
  -27.6639  -13.2170   19.8820 C   0  0  2  0  0  0  0  0  0104  0  0
  -28.6795  -12.9602   21.0279 C   0  0  0  0  0  0  0  0  0105  0  0
  -25.2633  -13.8245   20.5754 C   0  0  0  0  0  0  0  0  0106  0  0
  -24.1645  -13.0409   20.9408 C   0  0  0  0  0  0  0  0  0107  0  0
  -24.6400  -11.7009   20.8697 C   0  0  0  0  0  0  0  0  0108  0  0
  -23.9005  -10.4085   21.0420 C   0  0  0  0  0  0  0  0  0109  0  0
  -24.3588   -9.4123   21.9123 C   0  0  0  0  0  0  0  0  0110  0  0
  -23.6296   -8.2350   22.0803 C   0  0  0  0  0  0  0  0  0111  0  0
  -22.4385   -8.0419   21.3657 C   0  0  0  0  0  0  0  0  0112  0  0
  -22.0103   -9.0167   20.4678 C   0  0  0  0  0  0  0  0  0113  0  0
  -22.7317  -10.1925   20.3102 C   0  0  0  0  0  0  0  0  0114  0  0
  -21.6857   -6.0709   22.5391 C   0  0  0  0  0  0  0  0  0115  0  0
  -21.4064   -6.5490   23.8264 C   0  0  0  0  0  0  0  0  0116  0  0
  -21.3635   -5.6677   24.9085 C   0  0  0  0  0  0  0  0  0117  0  0
  -21.5973   -4.3067   24.7088 C   0  0  0  0  0  0  0  0  0118  0  0
  -21.8700   -3.8284   23.4282 C   0  0  0  0  0  0  0  0  0119  0  0
  -21.9144   -4.7056   22.3460 C   0  0  0  0  0  0  0  0  0120  0  0
  -22.8194  -13.5263   21.1763 C   0  0  0  0  0  0  0  0  0121  0  0
  -22.1559   -4.2206   21.1063 F   0  0  0  0  0  0  0  0  0122  0  0
  -21.5628   -3.4510   25.7555 F   0  0  0  0  0  0  0  0  0123  0  0
  -30.0261  -13.1803   20.4553 N   0  0  0  0  0  0  0  0  0124  0  0
  -26.2911  -12.9356   20.3443 N   0  0  0  0  0  0  0  0  0125  0  0
  -25.9236  -11.6675   20.5847 N   0  0  0  0  0  0  0  0  0126  0  0
  -22.0708  -12.7905   22.0005 N   0  0  0  0  0  0  0  0  0127  0  0
  -25.4117  -15.1773   20.4097 N   0  0  0  0  0  0  0  0  0128  0  0
  -31.7916  -14.6724   20.0536 O   0  0  0  0  0  0  0  0  0129  0  0
  -21.6670   -6.9022   21.4423 O   0  0  0  0  0  0  0  0  0130  0  0
  -22.3946  -14.5564   20.6568 O   0  0  0  0  0  0  0  0  0131  0  0
  -24.6048  -31.8614   23.2223 C   0  0  0  0  0  0  0  0  0100  0  0
  -25.8822  -32.4841   23.8616 C   0  0  1  0  0  0  0  0  0101  0  0
  -27.2536  -27.5042   20.1156 C   0  0  0  0  0  0  0  0  0102  0  0
  -25.5726  -33.8762   24.2210 N   0  0  0  0  0  0  0  0  0103  0  0
  -23.4066  -30.4859   21.5461 C   0  0  2  0  0  0  0  0  0104  0  0
  -24.8467  -28.9636   20.1247 C   0  0  0  0  0  0  0  0  0105  0  0
  -22.7412  -29.4652   22.5052 C   0  0  0  0  0  0  0  0  0106  0  0
  -18.0167  -28.1302   22.8626 C   0  0  0  0  0  0  0  0  0107  0  0
  -24.1342  -36.7390   23.2568 C   0  0  0  0  0  0  0  0  0108  0  0
  -25.9141  -30.8882   21.3456 C   0  0  0  0  0  0  0  0  0109  0  0
  -25.9930  -29.5029   20.7208 C   0  0  0  0  0  0  0  0  0110  0  0
  -27.1758  -28.7612   20.7331 C   0  0  0  0  0  0  0  0  0111  0  0
  -26.1032  -26.9836   19.5230 C   0  0  0  0  0  0  0  0  0112  0  0
  -24.9097  -27.7011   19.5331 C   0  0  0  0  0  0  0  0  0113  0  0
  -23.5715  -29.7899   20.1582 C   0  0  0  0  0  0  0  0  0114  0  0
  -25.3990  -36.3212   24.0232 C   0  0  1  0  0  0  0  0  0115  0  0
  -20.5793  -28.3813   23.1004 C   0  0  2  0  0  0  0  0  0116  0  0
  -20.6548  -26.9392   22.5411 C   0  0  0  0  0  0  0  0  0117  0  0
  -19.5615  -26.6407   21.5143 C   0  0  0  0  0  0  0  0  0118  0  0
  -18.1797  -26.7818   22.1673 C   0  0  0  0  0  0  0  0  0119  0  0
  -19.1385  -28.8769   23.2988 C   0  0  0  0  0  0  0  0  0120  0  0
  -18.9183  -30.1286   23.8878 C   0  0  0  0  0  0  0  0  0121  0  0
  -17.6396  -30.6493   24.0352 C   0  0  0  0  0  0  0  0  0122  0  0
  -25.9153  -34.9582   23.4993 C   0  0  0  0  0  0  0  0  0123  0  0
  -16.5415  -29.9068   23.6254 C   0  0  0  0  0  0  0  0  0124  0  0
  -16.7331  -28.6521   23.0586 C   0  0  0  0  0  0  0  0  0125  0  0
  -26.4583  -31.6439   25.0683 C   0  0  0  0  0  0  0  0  0126  0  0
  -25.3807  -31.3179   26.1374 C   0  0  0  0  0  0  0  0  0127  0  0
  -27.0530  -30.3024   24.5680 C   0  0  0  0  0  0  0  0  0128  0  0
  -27.6014  -32.4281   25.7651 C   0  0  0  0  0  0  0  0  0129  0  0
  -27.5629  -37.2220   24.8621 C   0  0  0  0  0  0  0  0  0130  0  0
  -21.4133  -29.3375   22.3735 N   0  0  0  0  0  0  0  0  0131  0  0
  -26.4706  -37.3372   23.9061 N   0  0  0  0  0  0  0  0  0132  0  0
  -24.6674  -31.0544   22.1178 N   0  0  0  0  0  0  0  0  0133  0  0
  -23.4259  -28.8150   23.2971 O   0  0  0  0  0  0  0  0  0134  0  0
  -28.3948  -26.7345   20.0089 O   0  0  0  0  0  0  0  0  0135  0  0
  -26.5870  -34.9065   22.4671 O   0  0  0  0  0  0  0  0  0136  0  0
  -23.5365  -32.1254   23.7833 O   0  0  0  0  0  0  0  0  0137  0  0
  -30.5431  -18.5866   19.0327 C   0  0  0  0  0  0  0  0  0  0  0  0
  -28.0643  -19.0924   18.0102 C   0  0  0  0  0  0  0  0  0  0  0  0
  -30.3252  -18.4387   17.6674 C   0  0  0  0  0  0  0  0  0  0  0  0
  -29.0651  -18.6944   17.1384 C   0  0  0  0  0  0  0  0  0  0  0  0
  -29.4763  -18.9896   19.8196 C   0  0  0  0  0  0  0  0  0  0  0  0
  -28.5071  -21.0554   22.0201 C   0  0  0  0  0  0  0  0  0  0  0  0
  -29.1214  -19.1524   23.5265 C   0  0  0  0  0  0  0  0  0  0  0  0
  -32.7455  -18.5842   17.0517 C   0  0  0  0  0  0  0  0  0  0  0  0
  -27.4731  -18.8525   15.3788 C   0  0  0  0  0  0  0  0  0  0  0  0
  -27.1095  -21.5786   22.2960 C   0  0  0  0  0  0  0  0  0  1  0  0
  -28.6956  -19.5483   22.1227 C   0  0  2  0  0  0  0  0  0  0  0  0
  -28.2381  -19.2471   19.3419 N   0  0  0  0  0  0  0  0  0  0  0  0
  -29.7082  -19.1337   21.1766 N   0  0  0  0  0  0  0  0  0  0  0  0
  -31.4125  -18.0198   16.8143 N   0  0  0  0  0  0  0  0  0  0  0  0
  -29.4343  -21.8156   21.7394 O   0  0  0  0  0  0  0  0  0  0  0  0
  -28.8029  -18.5639   15.8126 O   0  0  0  0  0  0  0  0  0  0  0  0
  -31.4485  -12.4701   19.0860 H   0  0  0  0  0  0  0  0  0  0  0  0
  -30.3970  -11.2460   19.6950 H   0  0  0  0  0  0  0  0  0  0  0  0
  -29.6870  -11.8204   17.4226 H   0  0  0  0  0  0  0  0  0  0  0  0
  -29.6375  -13.5326   17.8649 H   0  0  0  0  0  0  0  0  0  0  0  0
  -27.7830  -11.3650   18.7904 H   0  0  0  0  0  0  0  0  0  0  0  0
  -27.4028  -12.7801   17.8021 H   0  0  0  0  0  0  0  0  0  0  0  0
  -27.7353  -14.2503   19.6136 H   0  0  0  0  0  0  0  0  0  0  0  0
  -28.5890  -11.9550   21.3832 H   0  0  0  0  0  0  0  0  0  0  0  0
  -28.5005  -13.6134   21.8562 H   0  0  0  0  0  0  0  0  0  0  0  0
  -25.2399   -9.5495   22.4318 H   0  0  0  0  0  0  0  0  0  0  0  0
  -23.9663   -7.5070   22.7297 H   0  0  0  0  0  0  0  0  0  0  0  0
  -21.1515   -8.8641   19.9162 H   0  0  0  0  0  0  0  0  0  0  0  0
  -22.4016  -10.9115   19.6476 H   0  0  0  0  0  0  0  0  0  0  0  0
  -21.2319   -7.5552   23.9750 H   0  0  0  0  0  0  0  0  0  0  0  0
  -21.1589   -6.0228   25.8556 H   0  0  0  0  0  0  0  0  0  0  0  0
  -22.0396   -2.8212   23.2809 H   0  0  0  0  0  0  0  0  0  0  0  0
  -22.4401  -11.9703   22.4008 H   0  0  0  0  0  0  0  0  0  0  0  0
  -21.1493  -13.0679   22.2082 H   0  0  0  0  0  0  0  0  0  0  0  0
  -24.6538  -15.7807   20.5848 H   0  0  0  0  0  0  0  0  0  0  0  0
  -26.2762  -15.5453   20.1156 H   0  0  0  0  0  0  0  0  0  0  0  0
  -26.6778  -32.4663   23.1464 H   0  0  0  0  0  0  0  0  0  0  0  0
  -25.0747  -34.0282   25.0566 H   0  0  0  0  0  0  0  0  0  0  0  0
  -22.7881  -31.3489   21.4131 H   0  0  0  0  0  0  0  0  0  0  0  0
  -23.3854  -35.9823   23.3648 H   0  0  0  0  0  0  0  0  0  0  0  0
  -24.3696  -36.8624   22.2204 H   0  0  0  0  0  0  0  0  0  0  0  0
  -23.7669  -37.6632   23.6516 H   0  0  0  0  0  0  0  0  0  0  0  0
  -25.9445  -31.6237   20.5691 H   0  0  0  0  0  0  0  0  0  0  0  0
  -26.7436  -31.0079   22.0108 H   0  0  0  0  0  0  0  0  0  0  0  0
  -28.0090  -29.1452   21.2057 H   0  0  0  0  0  0  0  0  0  0  0  0
  -26.1369  -26.0560   19.0719 H   0  0  0  0  0  0  0  0  0  0  0  0
  -24.0652  -27.2961   19.0997 H   0  0  0  0  0  0  0  0  0  0  0  0
  -23.6156  -30.5365   19.3930 H   0  0  0  0  0  0  0  0  0  0  0  0
  -22.7355  -29.1425   19.9945 H   0  0  0  0  0  0  0  0  0  0  0  0
  -25.1353  -36.2335   25.0565 H   0  0  0  0  0  0  0  0  0  0  0  0
  -21.0070  -28.3206   24.0793 H   0  0  0  0  0  0  0  0  0  0  0  0
  -20.5555  -26.2518   23.3550 H   0  0  0  0  0  0  0  0  0  0  0  0
  -21.5974  -26.8362   22.0454 H   0  0  0  0  0  0  0  0  0  0  0  0
  -19.6810  -25.6422   21.1488 H   0  0  0  0  0  0  0  0  0  0  0  0
  -19.6406  -27.3343   20.7034 H   0  0  0  0  0  0  0  0  0  0  0  0
  -17.4282  -26.6888   21.4113 H   0  0  0  0  0  0  0  0  0  0  0  0
  -18.0803  -26.0130   22.9049 H   0  0  0  0  0  0  0  0  0  0  0  0
  -19.7265  -30.6774   24.2204 H   0  0  0  0  0  0  0  0  0  0  0  0
  -17.5064  -31.5856   24.4483 H   0  0  0  0  0  0  0  0  0  0  0  0
  -15.5878  -30.2839   23.7407 H   0  0  0  0  0  0  0  0  0  0  0  0
  -15.9120  -28.0941   22.7766 H   0  0  0  0  0  0  0  0  0  0  0  0
  -24.5787  -30.7757   25.6817 H   0  0  0  0  0  0  0  0  0  0  0  0
  -25.0041  -32.2289   26.5536 H   0  0  0  0  0  0  0  0  0  0  0  0
  -25.8166  -30.7245   26.9138 H   0  0  0  0  0  0  0  0  0  0  0  0
  -26.2892  -29.7335   24.0803 H   0  0  0  0  0  0  0  0  0  0  0  0
  -27.4336  -29.7484   25.4006 H   0  0  0  0  0  0  0  0  0  0  0  0
  -27.8466  -30.4994   23.8779 H   0  0  0  0  0  0  0  0  0  0  0  0
  -27.2251  -33.3632   26.1242 H   0  0  0  0  0  0  0  0  0  0  0  0
  -28.3902  -32.6065   25.0645 H   0  0  0  0  0  0  0  0  0  0  0  0
  -27.9772  -31.8555   26.5872 H   0  0  0  0  0  0  0  0  0  0  0  0
  -28.2744  -38.0016   24.6863 H   0  0  0  0  0  0  0  0  0  0  0  0
  -28.0396  -36.2711   24.7461 H   0  0  0  0  0  0  0  0  0  0  0  0
  -27.1773  -37.3087   25.8564 H   0  0  0  0  0  0  0  0  0  0  0  0
  -20.9627  -29.9365   21.7352 H   0  0  0  0  0  0  0  0  0  0  0  0
  -26.0447  -38.2561   24.0273 H   0  0  0  0  0  0  0  0  0  0  0  0
  -31.4702  -18.4020   19.4468 H   0  0  0  0  0  0  0  0  0  0  0  0
  -27.1285  -19.2824   17.6187 H   0  0  0  0  0  0  0  0  0  0  0  0
  -28.3723  -19.4591   24.2263 H   0  0  0  0  0  0  0  0  0  0  0  0
  -30.0492  -19.6288   23.7655 H   0  0  0  0  0  0  0  0  0  0  0  0
  -29.2426  -18.0904   23.5763 H   0  0  0  0  0  0  0  0  0  0  0  0
  -32.9525  -19.3322   16.3151 H   0  0  0  0  0  0  0  0  0  0  0  0
  -33.4785  -17.8074   16.9869 H   0  0  0  0  0  0  0  0  0  0  0  0
  -32.7779  -19.0247   18.0263 H   0  0  0  0  0  0  0  0  0  0  0  0
  -27.4045  -18.7108   14.3204 H   0  0  0  0  0  0  0  0  0  0  0  0
  -27.2317  -19.8668   15.6193 H   0  0  0  0  0  0  0  0  0  0  0  0
  -26.7868  -18.1961   15.8717 H   0  0  0  0  0  0  0  0  0  0  0  0
  -26.8631  -21.6190   23.3364 H   0  0  0  0  0  0  0  0  0  0  0  0
  -26.2629  -21.0366   21.9294 H   0  0  0  0  0  0  0  0  0  0  0  0
  -27.7654  -19.0673   21.9028 H   0  0  0  0  0  0  0  0  0  0  0  0
  -30.6123  -18.9435   21.5166 H   0  0  0  0  0  0  0  0  0  0  0  0
  1 25  1  0
  1 30  2  0
  1 84  1  0
  2  3  1  0
  2 25  1  0
  2 87  1  0
  2 88  1  0
  3  4  1  0
  3 89  1  0
  3 90  1  0
  4  5  1  0
  4 91  1  0
  4 92  1  0
  5  6  1  0
  5 26  1  0
  5 93  1  6
  6 25  1  0
  6 94  1  0
  6 95  1  0
  7  8  2  0
  7 26  1  0
  7 29  1  0
  8  9  1  0
  8 22  1  0
  9 10  1  0
  9 27  2  0
 10 11  2  0
 10 15  1  0
 11 12  1  0
 11 96  1  0
 12 13  2  0
 12 97  1  0
 13 14  1  0
 13 31  1  0
 14 15  2  0
 14 98  1  0
 15 99  1  0
 16 17  2  0
 16 21  1  0
 16 31  1  0
 17 18  1  0
 17100  1  0
 18 19  2  0
 18101  1  0
 19 20  1  0
 19 24  1  0
 20 21  2  0
 20102  1  0
 21 23  1  0
 22 28  1  0
 22 32  2  0
 26 27  1  0
 28103  1  0
 28104  1  0
 29105  1  0
 29106  1  0
 33 34  1  0
 33 66  1  0
 33 70  2  0
 34 36  1  0
 34 59  1  0
 34107  1  6
 35 44  2  0
 35 45  1  0
 35 68  1  0
 36 56  1  0
 36108  1  0
 37 39  1  0
 37 47  1  0
 37 66  1  0
 37109  1  6
 38 43  2  0
 38 46  1  0
 38 47  1  0
 39 64  1  0
 39 67  2  0
 40 52  1  0
 40 53  2  0
 40 58  1  0
 41110  1  0
 41111  1  0
 41112  1  0
 42 43  1  0
 42 66  1  0
 42113  1  0
 42114  1  0
 43 44  1  0
 44115  1  0
 45 46  2  0
 45116  1  0
 46117  1  0
 47118  1  0
 47119  1  0
 48 41  1  0
 48 56  1  0
 48 65  1  0
 48120  1  1
 49 50  1  0
 49 53  1  0
 49 64  1  0
 49121  1  1
 50 51  1  0
 50122  1  0
 50123  1  0
 51 52  1  0
 51124  1  0
 51125  1  0
 52126  1  0
 52127  1  0
 53 54  1  0
 54 55  2  0
 54128  1  0
 55 57  1  0
 55129  1  0
 56 69  2  0
 57 58  2  0
 57130  1  0
 58131  1  0
 59 60  1  0
 59 61  1  0
 59 62  1  0
 60132  1  0
 60133  1  0
 60134  1  0
 61135  1  0
 61136  1  0
 61137  1  0
 62138  1  0
 62139  1  0
 62140  1  0
 63 65  1  0
 63141  1  0
 63142  1  0
 63143  1  0
 64144  1  0
 65145  1  0
 68 80  1  0
 71 73  2  0
 71 75  1  0
 71146  1  0
 72 74  2  0
 72 82  1  0
 72147  1  0
 73 74  1  0
 73 84  1  0
 74 86  1  0
 75 82  2  0
 75 83  1  0
 76 80  1  0
 76 81  1  0
 76 85  2  0
 77148  1  0
 77149  1  0
 77150  1  0
 78 84  1  0
 78151  1  0
 78152  1  0
 78153  1  0
 79 86  1  0
 79154  1  0
 79155  1  0
 79156  1  0
 80157  1  0
 80158  1  0
 81 77  1  0
 81 83  1  0
 81159  1  6
 83160  1  0
M  ISO  4   1 100  68 101  80 101  84 100
M  END
$$$$
81
     RDKit          3D

159167  0  0  0  0  0  0  0  0999 V2000
  -30.7652  -14.3608   20.6636 C   0  0  0  0  0  0  0  0  0100  0  0
  -30.4392  -12.2669   19.3775 C   0  0  0  0  0  0  0  0  0101  0  0
  -29.4791  -12.5281   18.1977 C   0  0  0  0  0  0  0  0  0102  0  0
  -27.9985  -12.3963   18.6038 C   0  0  0  0  0  0  0  0  0103  0  0
  -27.6639  -13.2170   19.8820 C   0  0  2  0  0  0  0  0  0104  0  0
  -28.6795  -12.9602   21.0279 C   0  0  0  0  0  0  0  0  0105  0  0
  -25.2633  -13.8245   20.5754 C   0  0  0  0  0  0  0  0  0106  0  0
  -24.1645  -13.0409   20.9408 C   0  0  0  0  0  0  0  0  0107  0  0
  -24.6400  -11.7009   20.8697 C   0  0  0  0  0  0  0  0  0108  0  0
  -23.9005  -10.4085   21.0420 C   0  0  0  0  0  0  0  0  0109  0  0
  -24.3588   -9.4123   21.9123 C   0  0  0  0  0  0  0  0  0110  0  0
  -23.6296   -8.2350   22.0803 C   0  0  0  0  0  0  0  0  0111  0  0
  -22.4385   -8.0419   21.3657 C   0  0  0  0  0  0  0  0  0112  0  0
  -22.0103   -9.0167   20.4678 C   0  0  0  0  0  0  0  0  0113  0  0
  -22.7317  -10.1925   20.3102 C   0  0  0  0  0  0  0  0  0114  0  0
  -21.6857   -6.0709   22.5391 C   0  0  0  0  0  0  0  0  0115  0  0
  -21.4064   -6.5490   23.8264 C   0  0  0  0  0  0  0  0  0116  0  0
  -21.3635   -5.6677   24.9085 C   0  0  0  0  0  0  0  0  0117  0  0
  -21.5973   -4.3067   24.7088 C   0  0  0  0  0  0  0  0  0118  0  0
  -21.8700   -3.8284   23.4282 C   0  0  0  0  0  0  0  0  0119  0  0
  -21.9144   -4.7056   22.3460 C   0  0  0  0  0  0  0  0  0120  0  0
  -22.8194  -13.5263   21.1763 C   0  0  0  0  0  0  0  0  0121  0  0
  -22.1559   -4.2206   21.1063 F   0  0  0  0  0  0  0  0  0122  0  0
  -21.5628   -3.4510   25.7555 F   0  0  0  0  0  0  0  0  0123  0  0
  -30.0261  -13.1803   20.4553 N   0  0  0  0  0  0  0  0  0124  0  0
  -26.2911  -12.9356   20.3443 N   0  0  0  0  0  0  0  0  0125  0  0
  -25.9236  -11.6675   20.5847 N   0  0  0  0  0  0  0  0  0126  0  0
  -22.0708  -12.7905   22.0005 N   0  0  0  0  0  0  0  0  0127  0  0
  -25.4117  -15.1773   20.4097 N   0  0  0  0  0  0  0  0  0128  0  0
  -31.7916  -14.6724   20.0536 O   0  0  0  0  0  0  0  0  0129  0  0
  -21.6670   -6.9022   21.4423 O   0  0  0  0  0  0  0  0  0130  0  0
  -22.3946  -14.5564   20.6568 O   0  0  0  0  0  0  0  0  0131  0  0
  -24.6048  -31.8614   23.2223 C   0  0  0  0  0  0  0  0  0100  0  0
  -25.8822  -32.4841   23.8616 C   0  0  1  0  0  0  0  0  0101  0  0
  -27.2536  -27.5042   20.1156 C   0  0  0  0  0  0  0  0  0102  0  0
  -25.5726  -33.8762   24.2210 N   0  0  0  0  0  0  0  0  0103  0  0
  -23.4066  -30.4859   21.5461 C   0  0  2  0  0  0  0  0  0104  0  0
  -24.8467  -28.9636   20.1247 C   0  0  0  0  0  0  0  0  0105  0  0
  -22.7412  -29.4652   22.5052 C   0  0  0  0  0  0  0  0  0106  0  0
  -18.0167  -28.1302   22.8626 C   0  0  0  0  0  0  0  0  0107  0  0
  -24.1342  -36.7390   23.2568 C   0  0  0  0  0  0  0  0  0108  0  0
  -25.9141  -30.8882   21.3456 C   0  0  0  0  0  0  0  0  0109  0  0
  -25.9930  -29.5029   20.7208 C   0  0  0  0  0  0  0  0  0110  0  0
  -27.1758  -28.7612   20.7331 C   0  0  0  0  0  0  0  0  0111  0  0
  -26.1032  -26.9836   19.5230 C   0  0  0  0  0  0  0  0  0112  0  0
  -24.9097  -27.7011   19.5331 C   0  0  0  0  0  0  0  0  0113  0  0
  -23.5715  -29.7899   20.1582 C   0  0  0  0  0  0  0  0  0114  0  0
  -25.3990  -36.3212   24.0232 C   0  0  1  0  0  0  0  0  0115  0  0
  -20.5793  -28.3813   23.1004 C   0  0  2  0  0  0  0  0  0116  0  0
  -20.6548  -26.9392   22.5411 C   0  0  0  0  0  0  0  0  0117  0  0
  -19.5615  -26.6407   21.5143 C   0  0  0  0  0  0  0  0  0118  0  0
  -18.1797  -26.7818   22.1673 C   0  0  0  0  0  0  0  0  0119  0  0
  -19.1385  -28.8769   23.2988 C   0  0  0  0  0  0  0  0  0120  0  0
  -18.9183  -30.1286   23.8878 C   0  0  0  0  0  0  0  0  0121  0  0
  -17.6396  -30.6493   24.0352 C   0  0  0  0  0  0  0  0  0122  0  0
  -25.9153  -34.9582   23.4993 C   0  0  0  0  0  0  0  0  0123  0  0
  -16.5415  -29.9068   23.6254 C   0  0  0  0  0  0  0  0  0124  0  0
  -16.7331  -28.6521   23.0586 C   0  0  0  0  0  0  0  0  0125  0  0
  -26.4583  -31.6439   25.0683 C   0  0  0  0  0  0  0  0  0126  0  0
  -25.3807  -31.3179   26.1374 C   0  0  0  0  0  0  0  0  0127  0  0
  -27.0530  -30.3024   24.5680 C   0  0  0  0  0  0  0  0  0128  0  0
  -27.6014  -32.4281   25.7651 C   0  0  0  0  0  0  0  0  0129  0  0
  -27.5629  -37.2220   24.8621 C   0  0  0  0  0  0  0  0  0130  0  0
  -21.4133  -29.3375   22.3735 N   0  0  0  0  0  0  0  0  0131  0  0
  -26.4706  -37.3372   23.9061 N   0  0  0  0  0  0  0  0  0132  0  0
  -24.6674  -31.0544   22.1178 N   0  0  0  0  0  0  0  0  0133  0  0
  -23.4259  -28.8150   23.2971 O   0  0  0  0  0  0  0  0  0134  0  0
  -28.3948  -26.7345   20.0089 O   0  0  0  0  0  0  0  0  0135  0  0
  -26.5870  -34.9065   22.4671 O   0  0  0  0  0  0  0  0  0136  0  0
  -23.5365  -32.1254   23.7833 O   0  0  0  0  0  0  0  0  0137  0  0
  -32.7298  -20.7821   20.7046 C   0  0  0  0  0  0  0  0  0  0  0  0
  -33.1816  -19.5940   21.2791 C   0  0  0  0  0  0  0  0  0  0  0  0
  -30.5372  -19.8090   20.4166 C   0  0  0  0  0  0  0  0  0  0  0  0
  -31.4075  -20.8896   20.2735 C   0  0  0  0  0  0  0  0  0  0  0  0
  -30.9890  -18.6209   20.9910 C   0  0  0  0  0  0  0  0  0  0  0  0
  -32.3113  -18.5135   21.4223 C   0  0  0  0  0  0  0  0  0  0  0  0
  -27.7763  -22.7838   21.4488 C   0  0  0  0  0  0  0  0  0  0  0  0
  -29.0487  -22.4552   21.2087 C   0  0  0  0  0  0  0  0  0  0  0  0
  -29.5863  -22.4890   19.8218 C   0  0  0  0  0  0  0  0  0  0  0  0
  -33.8072  -15.2134   21.6042 C   0  0  0  0  0  0  0  0  0  0  0  0
  -32.5164  -14.5870   21.1006 C   0  0  0  0  0  0  0  0  0  1  0  0
  -33.8576  -16.7088   21.3329 C   0  0  0  0  0  0  0  0  0  0  0  0
  -30.0974  -17.5350   21.1300 N   0  0  0  0  0  0  0  0  0  0  0  0
  -30.9383  -22.1251   19.6774 N   0  0  0  0  0  0  0  0  0  0  0  0
  -28.8584  -22.9373   18.9357 O   0  0  0  0  0  0  0  0  0  0  0  0
  -32.7749  -17.3548   21.9890 O   0  0  0  0  0  0  0  0  0  0  0  0
  -31.4485  -12.4701   19.0860 H   0  0  0  0  0  0  0  0  0  0  0  0
  -30.3970  -11.2460   19.6950 H   0  0  0  0  0  0  0  0  0  0  0  0
  -29.6870  -11.8204   17.4226 H   0  0  0  0  0  0  0  0  0  0  0  0
  -29.6375  -13.5326   17.8649 H   0  0  0  0  0  0  0  0  0  0  0  0
  -27.7830  -11.3650   18.7904 H   0  0  0  0  0  0  0  0  0  0  0  0
  -27.4028  -12.7801   17.8021 H   0  0  0  0  0  0  0  0  0  0  0  0
  -27.7353  -14.2503   19.6136 H   0  0  0  0  0  0  0  0  0  0  0  0
  -28.5890  -11.9550   21.3832 H   0  0  0  0  0  0  0  0  0  0  0  0
  -28.5005  -13.6134   21.8562 H   0  0  0  0  0  0  0  0  0  0  0  0
  -25.2399   -9.5495   22.4318 H   0  0  0  0  0  0  0  0  0  0  0  0
  -23.9663   -7.5070   22.7297 H   0  0  0  0  0  0  0  0  0  0  0  0
  -21.1515   -8.8641   19.9162 H   0  0  0  0  0  0  0  0  0  0  0  0
  -22.4016  -10.9115   19.6476 H   0  0  0  0  0  0  0  0  0  0  0  0
  -21.2319   -7.5552   23.9750 H   0  0  0  0  0  0  0  0  0  0  0  0
  -21.1589   -6.0228   25.8556 H   0  0  0  0  0  0  0  0  0  0  0  0
  -22.0396   -2.8212   23.2809 H   0  0  0  0  0  0  0  0  0  0  0  0
  -22.4401  -11.9703   22.4008 H   0  0  0  0  0  0  0  0  0  0  0  0
  -21.1493  -13.0679   22.2082 H   0  0  0  0  0  0  0  0  0  0  0  0
  -24.6538  -15.7807   20.5848 H   0  0  0  0  0  0  0  0  0  0  0  0
  -26.2762  -15.5453   20.1156 H   0  0  0  0  0  0  0  0  0  0  0  0
  -26.6778  -32.4663   23.1464 H   0  0  0  0  0  0  0  0  0  0  0  0
  -25.0747  -34.0282   25.0566 H   0  0  0  0  0  0  0  0  0  0  0  0
  -22.7881  -31.3489   21.4131 H   0  0  0  0  0  0  0  0  0  0  0  0
  -23.3854  -35.9823   23.3648 H   0  0  0  0  0  0  0  0  0  0  0  0
  -24.3696  -36.8624   22.2204 H   0  0  0  0  0  0  0  0  0  0  0  0
  -23.7669  -37.6632   23.6516 H   0  0  0  0  0  0  0  0  0  0  0  0
  -25.9445  -31.6237   20.5691 H   0  0  0  0  0  0  0  0  0  0  0  0
  -26.7436  -31.0079   22.0108 H   0  0  0  0  0  0  0  0  0  0  0  0
  -28.0090  -29.1452   21.2057 H   0  0  0  0  0  0  0  0  0  0  0  0
  -26.1369  -26.0560   19.0719 H   0  0  0  0  0  0  0  0  0  0  0  0
  -24.0652  -27.2961   19.0997 H   0  0  0  0  0  0  0  0  0  0  0  0
  -23.6156  -30.5365   19.3930 H   0  0  0  0  0  0  0  0  0  0  0  0
  -22.7355  -29.1425   19.9945 H   0  0  0  0  0  0  0  0  0  0  0  0
  -25.1353  -36.2335   25.0565 H   0  0  0  0  0  0  0  0  0  0  0  0
  -21.0070  -28.3206   24.0793 H   0  0  0  0  0  0  0  0  0  0  0  0
  -20.5555  -26.2518   23.3550 H   0  0  0  0  0  0  0  0  0  0  0  0
  -21.5974  -26.8362   22.0454 H   0  0  0  0  0  0  0  0  0  0  0  0
  -19.6810  -25.6422   21.1488 H   0  0  0  0  0  0  0  0  0  0  0  0
  -19.6406  -27.3343   20.7034 H   0  0  0  0  0  0  0  0  0  0  0  0
  -17.4282  -26.6888   21.4113 H   0  0  0  0  0  0  0  0  0  0  0  0
  -18.0803  -26.0130   22.9049 H   0  0  0  0  0  0  0  0  0  0  0  0
  -19.7265  -30.6774   24.2204 H   0  0  0  0  0  0  0  0  0  0  0  0
  -17.5064  -31.5856   24.4483 H   0  0  0  0  0  0  0  0  0  0  0  0
  -15.5878  -30.2839   23.7407 H   0  0  0  0  0  0  0  0  0  0  0  0
  -15.9120  -28.0941   22.7766 H   0  0  0  0  0  0  0  0  0  0  0  0
  -24.5787  -30.7757   25.6817 H   0  0  0  0  0  0  0  0  0  0  0  0
  -25.0041  -32.2289   26.5536 H   0  0  0  0  0  0  0  0  0  0  0  0
  -25.8166  -30.7245   26.9138 H   0  0  0  0  0  0  0  0  0  0  0  0
  -26.2892  -29.7335   24.0803 H   0  0  0  0  0  0  0  0  0  0  0  0
  -27.4336  -29.7484   25.4006 H   0  0  0  0  0  0  0  0  0  0  0  0
  -27.8466  -30.4994   23.8779 H   0  0  0  0  0  0  0  0  0  0  0  0
  -27.2251  -33.3632   26.1242 H   0  0  0  0  0  0  0  0  0  0  0  0
  -28.3902  -32.6065   25.0645 H   0  0  0  0  0  0  0  0  0  0  0  0
  -27.9772  -31.8555   26.5872 H   0  0  0  0  0  0  0  0  0  0  0  0
  -28.2744  -38.0016   24.6863 H   0  0  0  0  0  0  0  0  0  0  0  0
  -28.0396  -36.2711   24.7461 H   0  0  0  0  0  0  0  0  0  0  0  0
  -27.1773  -37.3087   25.8564 H   0  0  0  0  0  0  0  0  0  0  0  0
  -20.9627  -29.9365   21.7352 H   0  0  0  0  0  0  0  0  0  0  0  0
  -26.0447  -38.2561   24.0273 H   0  0  0  0  0  0  0  0  0  0  0  0
  -33.3738  -21.5815   20.5985 H   0  0  0  0  0  0  0  0  0  0  0  0
  -34.1598  -19.5145   21.5982 H   0  0  0  0  0  0  0  0  0  0  0  0
  -29.5590  -19.8885   20.0975 H   0  0  0  0  0  0  0  0  0  0  0  0
  -27.4099  -22.7582   22.4132 H   0  0  0  0  0  0  0  0  0  0  0  0
  -27.1597  -23.0633   20.6698 H   0  0  0  0  0  0  0  0  0  0  0  0
  -29.6625  -22.1762   21.9900 H   0  0  0  0  0  0  0  0  0  0  0  0
  -34.6337  -14.7448   21.1120 H   0  0  0  0  0  0  0  0  0  0  0  0
  -33.8545  -15.0675   22.6632 H   0  0  0  0  0  0  0  0  0  0  0  0
  -31.9903  -13.9897   21.8157 H   0  0  0  0  0  0  0  0  0  0  0  0
  -32.4837  -13.8843   20.2944 H   0  0  0  0  0  0  0  0  0  0  0  0
  -33.7879  -16.8810   20.2792 H   0  0  0  0  0  0  0  0  0  0  0  0
  -34.7807  -17.1037   21.7029 H   0  0  0  0  0  0  0  0  0  0  0  0
  -29.1660  -17.6204   20.8226 H   0  0  0  0  0  0  0  0  0  0  0  0
  -30.4071  -16.6925   21.5343 H   0  0  0  0  0  0  0  0  0  0  0  0
  1 25  1  0
  1 30  2  0
  1 84  1  0
  2  3  1  0
  2 25  1  0
  2 87  1  0
  2 88  1  0
  3  4  1  0
  3 89  1  0
  3 90  1  0
  4  5  1  0
  4 91  1  0
  4 92  1  0
  5  6  1  0
  5 26  1  0
  5 93  1  6
  6 25  1  0
  6 94  1  0
  6 95  1  0
  7  8  2  0
  7 26  1  0
  7 29  1  0
  8  9  1  0
  8 22  1  0
  9 10  1  0
  9 27  2  0
 10 11  2  0
 10 15  1  0
 11 12  1  0
 11 96  1  0
 12 13  2  0
 12 97  1  0
 13 14  1  0
 13 31  1  0
 14 15  2  0
 14 98  1  0
 15 99  1  0
 16 17  2  0
 16 21  1  0
 16 31  1  0
 17 18  1  0
 17100  1  0
 18 19  2  0
 18101  1  0
 19 20  1  0
 19 24  1  0
 20 21  2  0
 20102  1  0
 21 23  1  0
 22 28  1  0
 22 32  2  0
 26 27  1  0
 28103  1  0
 28104  1  0
 29105  1  0
 29106  1  0
 33 34  1  0
 33 66  1  0
 33 70  2  0
 34 36  1  0
 34 59  1  0
 34107  1  6
 35 44  2  0
 35 45  1  0
 35 68  1  0
 36 56  1  0
 36108  1  0
 37 39  1  0
 37 47  1  0
 37 66  1  0
 37109  1  6
 38 43  2  0
 38 46  1  0
 38 47  1  0
 39 64  1  0
 39 67  2  0
 40 52  1  0
 40 53  2  0
 40 58  1  0
 41110  1  0
 41111  1  0
 41112  1  0
 42 43  1  0
 42 66  1  0
 42113  1  0
 42114  1  0
 43 44  1  0
 44115  1  0
 45 46  2  0
 45116  1  0
 46117  1  0
 47118  1  0
 47119  1  0
 48 41  1  0
 48 56  1  0
 48 65  1  0
 48120  1  1
 49 50  1  0
 49 53  1  0
 49 64  1  0
 49121  1  1
 50 51  1  0
 50122  1  0
 50123  1  0
 51 52  1  0
 51124  1  0
 51125  1  0
 52126  1  0
 52127  1  0
 53 54  1  0
 54 55  2  0
 54128  1  0
 55 57  1  0
 55129  1  0
 56 69  2  0
 57 58  2  0
 57130  1  0
 58131  1  0
 59 60  1  0
 59 61  1  0
 59 62  1  0
 60132  1  0
 60133  1  0
 60134  1  0
 61135  1  0
 61136  1  0
 61137  1  0
 62138  1  0
 62139  1  0
 62140  1  0
 63 65  1  0
 63141  1  0
 63142  1  0
 63143  1  0
 64144  1  0
 65145  1  0
 68 81  1  0
 71 72  2  0
 71 74  1  0
 71146  1  0
 72 76  1  0
 72147  1  0
 73 74  2  0
 73 75  1  0
 73148  1  0
 74 84  1  0
 75 76  2  0
 75 83  1  0
 76 86  1  0
 77 78  2  0
 77149  1  0
 77150  1  0
 78 79  1  0
 78151  1  0
 79 84  1  0
 79 85  2  0
 80 81  1  0
 80 82  1  0
 80152  1  0
 80153  1  0
 81154  1  0
 81155  1  0
 82 86  1  0
 82156  1  0
 82157  1  0
 83158  1  0
 83159  1  0
M  ISO  4   1 100  68 101  81 101  84 100
M  END
$$$$
82
     RDKit          3D

162171  0  0  0  0  0  0  0  0999 V2000
  -30.7652  -14.3608   20.6636 C   0  0  0  0  0  0  0  0  0100  0  0
  -30.4392  -12.2669   19.3775 C   0  0  0  0  0  0  0  0  0101  0  0
  -29.4791  -12.5281   18.1977 C   0  0  0  0  0  0  0  0  0102  0  0
  -27.9985  -12.3963   18.6038 C   0  0  0  0  0  0  0  0  0103  0  0
  -27.6639  -13.2170   19.8820 C   0  0  2  0  0  0  0  0  0104  0  0
  -28.6795  -12.9602   21.0279 C   0  0  0  0  0  0  0  0  0105  0  0
  -25.2633  -13.8245   20.5754 C   0  0  0  0  0  0  0  0  0106  0  0
  -24.1645  -13.0409   20.9408 C   0  0  0  0  0  0  0  0  0107  0  0
  -24.6400  -11.7009   20.8697 C   0  0  0  0  0  0  0  0  0108  0  0
  -23.9005  -10.4085   21.0420 C   0  0  0  0  0  0  0  0  0109  0  0
  -24.3588   -9.4123   21.9123 C   0  0  0  0  0  0  0  0  0110  0  0
  -23.6296   -8.2350   22.0803 C   0  0  0  0  0  0  0  0  0111  0  0
  -22.4385   -8.0419   21.3657 C   0  0  0  0  0  0  0  0  0112  0  0
  -22.0103   -9.0167   20.4678 C   0  0  0  0  0  0  0  0  0113  0  0
  -22.7317  -10.1925   20.3102 C   0  0  0  0  0  0  0  0  0114  0  0
  -21.6857   -6.0709   22.5391 C   0  0  0  0  0  0  0  0  0115  0  0
  -21.4064   -6.5490   23.8264 C   0  0  0  0  0  0  0  0  0116  0  0
  -21.3635   -5.6677   24.9085 C   0  0  0  0  0  0  0  0  0117  0  0
  -21.5973   -4.3067   24.7088 C   0  0  0  0  0  0  0  0  0118  0  0
  -21.8700   -3.8284   23.4282 C   0  0  0  0  0  0  0  0  0119  0  0
  -21.9144   -4.7056   22.3460 C   0  0  0  0  0  0  0  0  0120  0  0
  -22.8194  -13.5263   21.1763 C   0  0  0  0  0  0  0  0  0121  0  0
  -22.1559   -4.2206   21.1063 F   0  0  0  0  0  0  0  0  0122  0  0
  -21.5628   -3.4510   25.7555 F   0  0  0  0  0  0  0  0  0123  0  0
  -30.0261  -13.1803   20.4553 N   0  0  0  0  0  0  0  0  0124  0  0
  -26.2911  -12.9356   20.3443 N   0  0  0  0  0  0  0  0  0125  0  0
  -25.9236  -11.6675   20.5847 N   0  0  0  0  0  0  0  0  0126  0  0
  -22.0708  -12.7905   22.0005 N   0  0  0  0  0  0  0  0  0127  0  0
  -25.4117  -15.1773   20.4097 N   0  0  0  0  0  0  0  0  0128  0  0
  -31.7916  -14.6724   20.0536 O   0  0  0  0  0  0  0  0  0129  0  0
  -21.6670   -6.9022   21.4423 O   0  0  0  0  0  0  0  0  0130  0  0
  -22.3946  -14.5564   20.6568 O   0  0  0  0  0  0  0  0  0131  0  0
  -24.6048  -31.8614   23.2223 C   0  0  0  0  0  0  0  0  0100  0  0
  -25.8822  -32.4841   23.8616 C   0  0  1  0  0  0  0  0  0101  0  0
  -27.2536  -27.5042   20.1156 C   0  0  0  0  0  0  0  0  0102  0  0
  -25.5726  -33.8762   24.2210 N   0  0  0  0  0  0  0  0  0103  0  0
  -23.4066  -30.4859   21.5461 C   0  0  2  0  0  0  0  0  0104  0  0
  -24.8467  -28.9636   20.1247 C   0  0  0  0  0  0  0  0  0105  0  0
  -22.7412  -29.4652   22.5052 C   0  0  0  0  0  0  0  0  0106  0  0
  -18.0167  -28.1302   22.8626 C   0  0  0  0  0  0  0  0  0107  0  0
  -24.1342  -36.7390   23.2568 C   0  0  0  0  0  0  0  0  0108  0  0
  -25.9141  -30.8882   21.3456 C   0  0  0  0  0  0  0  0  0109  0  0
  -25.9930  -29.5029   20.7208 C   0  0  0  0  0  0  0  0  0110  0  0
  -27.1758  -28.7612   20.7331 C   0  0  0  0  0  0  0  0  0111  0  0
  -26.1032  -26.9836   19.5230 C   0  0  0  0  0  0  0  0  0112  0  0
  -24.9097  -27.7011   19.5331 C   0  0  0  0  0  0  0  0  0113  0  0
  -23.5715  -29.7899   20.1582 C   0  0  0  0  0  0  0  0  0114  0  0
  -25.3990  -36.3212   24.0232 C   0  0  1  0  0  0  0  0  0115  0  0
  -20.5793  -28.3813   23.1004 C   0  0  2  0  0  0  0  0  0116  0  0
  -20.6548  -26.9392   22.5411 C   0  0  0  0  0  0  0  0  0117  0  0
  -19.5615  -26.6407   21.5143 C   0  0  0  0  0  0  0  0  0118  0  0
  -18.1797  -26.7818   22.1673 C   0  0  0  0  0  0  0  0  0119  0  0
  -19.1385  -28.8769   23.2988 C   0  0  0  0  0  0  0  0  0120  0  0
  -18.9183  -30.1286   23.8878 C   0  0  0  0  0  0  0  0  0121  0  0
  -17.6396  -30.6493   24.0352 C   0  0  0  0  0  0  0  0  0122  0  0
  -25.9153  -34.9582   23.4993 C   0  0  0  0  0  0  0  0  0123  0  0
  -16.5415  -29.9068   23.6254 C   0  0  0  0  0  0  0  0  0124  0  0
  -16.7331  -28.6521   23.0586 C   0  0  0  0  0  0  0  0  0125  0  0
  -26.4583  -31.6439   25.0683 C   0  0  0  0  0  0  0  0  0126  0  0
  -25.3807  -31.3179   26.1374 C   0  0  0  0  0  0  0  0  0127  0  0
  -27.0530  -30.3024   24.5680 C   0  0  0  0  0  0  0  0  0128  0  0
  -27.6014  -32.4281   25.7651 C   0  0  0  0  0  0  0  0  0129  0  0
  -27.5629  -37.2220   24.8621 C   0  0  0  0  0  0  0  0  0130  0  0
  -21.4133  -29.3375   22.3735 N   0  0  0  0  0  0  0  0  0131  0  0
  -26.4706  -37.3372   23.9061 N   0  0  0  0  0  0  0  0  0132  0  0
  -24.6674  -31.0544   22.1178 N   0  0  0  0  0  0  0  0  0133  0  0
  -23.4259  -28.8150   23.2971 O   0  0  0  0  0  0  0  0  0134  0  0
  -28.3948  -26.7345   20.0089 O   0  0  0  0  0  0  0  0  0135  0  0
  -26.5870  -34.9065   22.4671 O   0  0  0  0  0  0  0  0  0136  0  0
  -23.5365  -32.1254   23.7833 O   0  0  0  0  0  0  0  0  0137  0  0
  -31.7746  -21.6089   17.6385 C   0  0  0  0  0  0  0  0  0  0  0  0
  -29.3872  -21.2438   17.7016 C   0  0  0  0  0  0  0  0  0  0  0  0
  -31.9869  -20.2318   17.7015 C   0  0  0  0  0  0  0  0  0  0  0  0
  -29.5995  -19.8666   17.7645 C   0  0  0  0  0  0  0  0  0  0  0  0
  -30.4747  -22.1150   17.6386 C   0  0  0  0  0  0  0  0  0  0  0  0
  -30.8993  -19.3606   17.7644 C   0  0  0  0  0  0  0  0  0  0  0  0
  -31.2148  -24.3290   16.8899 C   0  0  0  0  0  0  0  0  0  0  0  0
  -29.0941  -24.0624   18.2117 C   0  0  0  0  0  0  0  0  0  0  0  0
  -32.2161  -17.2971   17.2599 C   0  0  0  0  0  0  0  0  0  0  0  0
  -31.0599  -25.8334   16.9738 C   0  0  0  0  0  0  0  0  0  0  0  0
  -30.1128  -26.2963   18.0561 C   0  0  0  0  0  0  0  0  0  0  0  0
  -28.8113  -25.5278   17.9128 C   0  0  2  0  0  0  0  0  0  0  0  0
  -32.6547  -15.9792   17.8576 C   0  0  0  0  0  0  0  0  0  0  0  0
  -27.7416  -26.0988   18.8407 C   0  0  0  0  0  0  0  0  0  1  0  0
  -30.2540  -23.5460   17.5736 N   0  0  0  0  0  0  0  0  0  0  0  0
  -31.1181  -17.9389   17.8294 N   0  0  0  0  0  0  0  0  0  0  0  0
  -32.1113  -23.8809   16.1678 O   0  0  0  0  0  0  0  0  0  0  0  0
  -28.3564  -23.4248   18.9659 O   0  0  0  0  0  0  0  0  0  0  0  0
  -32.8540  -17.7682   16.3123 O   0  0  0  0  0  0  0  0  0  0  0  0
  -31.4485  -12.4701   19.0860 H   0  0  0  0  0  0  0  0  0  0  0  0
  -30.3970  -11.2460   19.6950 H   0  0  0  0  0  0  0  0  0  0  0  0
  -29.6870  -11.8204   17.4226 H   0  0  0  0  0  0  0  0  0  0  0  0
  -29.6375  -13.5326   17.8649 H   0  0  0  0  0  0  0  0  0  0  0  0
  -27.7830  -11.3650   18.7904 H   0  0  0  0  0  0  0  0  0  0  0  0
  -27.4028  -12.7801   17.8021 H   0  0  0  0  0  0  0  0  0  0  0  0
  -27.7353  -14.2503   19.6136 H   0  0  0  0  0  0  0  0  0  0  0  0
  -28.5890  -11.9550   21.3832 H   0  0  0  0  0  0  0  0  0  0  0  0
  -28.5005  -13.6134   21.8562 H   0  0  0  0  0  0  0  0  0  0  0  0
  -25.2399   -9.5495   22.4318 H   0  0  0  0  0  0  0  0  0  0  0  0
  -23.9663   -7.5070   22.7297 H   0  0  0  0  0  0  0  0  0  0  0  0
  -21.1515   -8.8641   19.9162 H   0  0  0  0  0  0  0  0  0  0  0  0
  -22.4016  -10.9115   19.6476 H   0  0  0  0  0  0  0  0  0  0  0  0
  -21.2319   -7.5552   23.9750 H   0  0  0  0  0  0  0  0  0  0  0  0
  -21.1589   -6.0228   25.8556 H   0  0  0  0  0  0  0  0  0  0  0  0
  -22.0396   -2.8212   23.2809 H   0  0  0  0  0  0  0  0  0  0  0  0
  -22.4401  -11.9703   22.4008 H   0  0  0  0  0  0  0  0  0  0  0  0
  -21.1493  -13.0679   22.2082 H   0  0  0  0  0  0  0  0  0  0  0  0
  -24.6538  -15.7807   20.5848 H   0  0  0  0  0  0  0  0  0  0  0  0
  -26.2762  -15.5453   20.1156 H   0  0  0  0  0  0  0  0  0  0  0  0
  -26.6778  -32.4663   23.1464 H   0  0  0  0  0  0  0  0  0  0  0  0
  -25.0747  -34.0282   25.0566 H   0  0  0  0  0  0  0  0  0  0  0  0
  -22.7881  -31.3489   21.4131 H   0  0  0  0  0  0  0  0  0  0  0  0
  -23.3854  -35.9823   23.3648 H   0  0  0  0  0  0  0  0  0  0  0  0
  -24.3696  -36.8624   22.2204 H   0  0  0  0  0  0  0  0  0  0  0  0
  -23.7669  -37.6632   23.6516 H   0  0  0  0  0  0  0  0  0  0  0  0
  -25.9445  -31.6237   20.5691 H   0  0  0  0  0  0  0  0  0  0  0  0
  -26.7436  -31.0079   22.0108 H   0  0  0  0  0  0  0  0  0  0  0  0
  -28.0090  -29.1452   21.2057 H   0  0  0  0  0  0  0  0  0  0  0  0
  -26.1369  -26.0560   19.0719 H   0  0  0  0  0  0  0  0  0  0  0  0
  -24.0652  -27.2961   19.0997 H   0  0  0  0  0  0  0  0  0  0  0  0
  -23.6156  -30.5365   19.3930 H   0  0  0  0  0  0  0  0  0  0  0  0
  -22.7355  -29.1425   19.9945 H   0  0  0  0  0  0  0  0  0  0  0  0
  -25.1353  -36.2335   25.0565 H   0  0  0  0  0  0  0  0  0  0  0  0
  -21.0070  -28.3206   24.0793 H   0  0  0  0  0  0  0  0  0  0  0  0
  -20.5555  -26.2518   23.3550 H   0  0  0  0  0  0  0  0  0  0  0  0
  -21.5974  -26.8362   22.0454 H   0  0  0  0  0  0  0  0  0  0  0  0
  -19.6810  -25.6422   21.1488 H   0  0  0  0  0  0  0  0  0  0  0  0
  -19.6406  -27.3343   20.7034 H   0  0  0  0  0  0  0  0  0  0  0  0
  -17.4282  -26.6888   21.4113 H   0  0  0  0  0  0  0  0  0  0  0  0
  -18.0803  -26.0130   22.9049 H   0  0  0  0  0  0  0  0  0  0  0  0
  -19.7265  -30.6774   24.2204 H   0  0  0  0  0  0  0  0  0  0  0  0
  -17.5064  -31.5856   24.4483 H   0  0  0  0  0  0  0  0  0  0  0  0
  -15.5878  -30.2839   23.7407 H   0  0  0  0  0  0  0  0  0  0  0  0
  -15.9120  -28.0941   22.7766 H   0  0  0  0  0  0  0  0  0  0  0  0
  -24.5787  -30.7757   25.6817 H   0  0  0  0  0  0  0  0  0  0  0  0
  -25.0041  -32.2289   26.5536 H   0  0  0  0  0  0  0  0  0  0  0  0
  -25.8166  -30.7245   26.9138 H   0  0  0  0  0  0  0  0  0  0  0  0
  -26.2892  -29.7335   24.0803 H   0  0  0  0  0  0  0  0  0  0  0  0
  -27.4336  -29.7484   25.4006 H   0  0  0  0  0  0  0  0  0  0  0  0
  -27.8466  -30.4994   23.8779 H   0  0  0  0  0  0  0  0  0  0  0  0
  -27.2251  -33.3632   26.1242 H   0  0  0  0  0  0  0  0  0  0  0  0
  -28.3902  -32.6065   25.0645 H   0  0  0  0  0  0  0  0  0  0  0  0
  -27.9772  -31.8555   26.5872 H   0  0  0  0  0  0  0  0  0  0  0  0
  -28.2744  -38.0016   24.6863 H   0  0  0  0  0  0  0  0  0  0  0  0
  -28.0396  -36.2711   24.7461 H   0  0  0  0  0  0  0  0  0  0  0  0
  -27.1773  -37.3087   25.8564 H   0  0  0  0  0  0  0  0  0  0  0  0
  -20.9627  -29.9365   21.7352 H   0  0  0  0  0  0  0  0  0  0  0  0
  -26.0447  -38.2561   24.0273 H   0  0  0  0  0  0  0  0  0  0  0  0
  -32.5792  -22.2534   17.5918 H   0  0  0  0  0  0  0  0  0  0  0  0
  -28.4255  -21.6182   17.7017 H   0  0  0  0  0  0  0  0  0  0  0  0
  -32.9486  -19.8574   17.7016 H   0  0  0  0  0  0  0  0  0  0  0  0
  -28.7949  -19.2221   17.8111 H   0  0  0  0  0  0  0  0  0  0  0  0
  -30.6931  -26.1865   16.0327 H   0  0  0  0  0  0  0  0  0  0  0  0
  -32.0236  -26.2299   17.2167 H   0  0  0  0  0  0  0  0  0  0  0  0
  -29.9272  -27.3447   17.9501 H   0  0  0  0  0  0  0  0  0  0  0  0
  -30.5409  -26.1190   19.0206 H   0  0  0  0  0  0  0  0  0  0  0  0
  -28.4316  -25.6194   16.9166 H   0  0  0  0  0  0  0  0  0  0  0  0
  -31.9998  -15.7169   18.6621 H   0  0  0  0  0  0  0  0  0  0  0  0
  -33.6547  -16.0704   18.2271 H   0  0  0  0  0  0  0  0  0  0  0  0
  -32.6199  -15.2178   17.1066 H   0  0  0  0  0  0  0  0  0  0  0  0
  -27.1005  -25.3100   19.1751 H   0  0  0  0  0  0  0  0  0  0  0  0
  -27.1621  -26.8277   18.3137 H   0  0  0  0  0  0  0  0  0  0  0  0
  1 25  1  0
  1 30  2  0
  1 86  1  0
  2  3  1  0
  2 25  1  0
  2 90  1  0
  2 91  1  0
  3  4  1  0
  3 92  1  0
  3 93  1  0
  4  5  1  0
  4 94  1  0
  4 95  1  0
  5  6  1  0
  5 26  1  0
  5 96  1  6
  6 25  1  0
  6 97  1  0
  6 98  1  0
  7  8  2  0
  7 26  1  0
  7 29  1  0
  8  9  1  0
  8 22  1  0
  9 10  1  0
  9 27  2  0
 10 11  2  0
 10 15  1  0
 11 12  1  0
 11 99  1  0
 12 13  2  0
 12100  1  0
 13 14  1  0
 13 31  1  0
 14 15  2  0
 14101  1  0
 15102  1  0
 16 17  2  0
 16 21  1  0
 16 31  1  0
 17 18  1  0
 17103  1  0
 18 19  2  0
 18104  1  0
 19 20  1  0
 19 24  1  0
 20 21  2  0
 20105  1  0
 21 23  1  0
 22 28  1  0
 22 32  2  0
 26 27  1  0
 28106  1  0
 28107  1  0
 29108  1  0
 29109  1  0
 33 34  1  0
 33 66  1  0
 33 70  2  0
 34 36  1  0
 34 59  1  0
 34110  1  6
 35 44  2  0
 35 45  1  0
 35 68  1  0
 36 56  1  0
 36111  1  0
 37 39  1  0
 37 47  1  0
 37 66  1  0
 37112  1  6
 38 43  2  0
 38 46  1  0
 38 47  1  0
 39 64  1  0
 39 67  2  0
 40 52  1  0
 40 53  2  0
 40 58  1  0
 41113  1  0
 41114  1  0
 41115  1  0
 42 43  1  0
 42 66  1  0
 42116  1  0
 42117  1  0
 43 44  1  0
 44118  1  0
 45 46  2  0
 45119  1  0
 46120  1  0
 47121  1  0
 47122  1  0
 48 41  1  0
 48 56  1  0
 48 65  1  0
 48123  1  1
 49 50  1  0
 49 53  1  0
 49 64  1  0
 49124  1  1
 50 51  1  0
 50125  1  0
 50126  1  0
 51 52  1  0
 51127  1  0
 51128  1  0
 52129  1  0
 52130  1  0
 53 54  1  0
 54 55  2  0
 54131  1  0
 55 57  1  0
 55132  1  0
 56 69  2  0
 57 58  2  0
 57133  1  0
 58134  1  0
 59 60  1  0
 59 61  1  0
 59 62  1  0
 60135  1  0
 60136  1  0
 60137  1  0
 61138  1  0
 61139  1  0
 61140  1  0
 62141  1  0
 62142  1  0
 62143  1  0
 63 65  1  0
 63144  1  0
 63145  1  0
 63146  1  0
 64147  1  0
 65148  1  0
 68 84  1  0
 71 73  2  0
 71 75  1  0
 71149  1  0
 72 74  1  0
 72 75  2  0
 72150  1  0
 73 76  1  0
 73151  1  0
 74 76  2  0
 74152  1  0
 75 85  1  0
 76 86  1  0
 77 80  1  0
 77 85  1  0
 77 87  2  0
 78 82  1  0
 78 85  1  0
 78 88  2  0
 79 83  1  0
 79 86  1  0
 79 89  2  0
 80 81  1  0
 80153  1  0
 80154  1  0
 81 82  1  0
 81155  1  0
 81156  1  0
 82 84  1  0
 82157  1  6
 83158  1  0
 83159  1  0
 83160  1  0
 84161  1  0
 84162  1  0
M  ISO  4   1 100  68 101  84 101  86 100
M  END
$$$$
83
     RDKit          3D

160169  0  0  0  0  0  0  0  0999 V2000
  -30.7652  -14.3608   20.6636 C   0  0  0  0  0  0  0  0  0100  0  0
  -30.4392  -12.2669   19.3775 C   0  0  0  0  0  0  0  0  0101  0  0
  -29.4791  -12.5281   18.1977 C   0  0  0  0  0  0  0  0  0102  0  0
  -27.9985  -12.3963   18.6038 C   0  0  0  0  0  0  0  0  0103  0  0
  -27.6639  -13.2170   19.8820 C   0  0  2  0  0  0  0  0  0104  0  0
  -28.6795  -12.9602   21.0279 C   0  0  0  0  0  0  0  0  0105  0  0
  -25.2633  -13.8245   20.5754 C   0  0  0  0  0  0  0  0  0106  0  0
  -24.1645  -13.0409   20.9408 C   0  0  0  0  0  0  0  0  0107  0  0
  -24.6400  -11.7009   20.8697 C   0  0  0  0  0  0  0  0  0108  0  0
  -23.9005  -10.4085   21.0420 C   0  0  0  0  0  0  0  0  0109  0  0
  -24.3588   -9.4123   21.9123 C   0  0  0  0  0  0  0  0  0110  0  0
  -23.6296   -8.2350   22.0803 C   0  0  0  0  0  0  0  0  0111  0  0
  -22.4385   -8.0419   21.3657 C   0  0  0  0  0  0  0  0  0112  0  0
  -22.0103   -9.0167   20.4678 C   0  0  0  0  0  0  0  0  0113  0  0
  -22.7317  -10.1925   20.3102 C   0  0  0  0  0  0  0  0  0114  0  0
  -21.6857   -6.0709   22.5391 C   0  0  0  0  0  0  0  0  0115  0  0
  -21.4064   -6.5490   23.8264 C   0  0  0  0  0  0  0  0  0116  0  0
  -21.3635   -5.6677   24.9085 C   0  0  0  0  0  0  0  0  0117  0  0
  -21.5973   -4.3067   24.7088 C   0  0  0  0  0  0  0  0  0118  0  0
  -21.8700   -3.8284   23.4282 C   0  0  0  0  0  0  0  0  0119  0  0
  -21.9144   -4.7056   22.3460 C   0  0  0  0  0  0  0  0  0120  0  0
  -22.8194  -13.5263   21.1763 C   0  0  0  0  0  0  0  0  0121  0  0
  -22.1559   -4.2206   21.1063 F   0  0  0  0  0  0  0  0  0122  0  0
  -21.5628   -3.4510   25.7555 F   0  0  0  0  0  0  0  0  0123  0  0
  -30.0261  -13.1803   20.4553 N   0  0  0  0  0  0  0  0  0124  0  0
  -26.2911  -12.9356   20.3443 N   0  0  0  0  0  0  0  0  0125  0  0
  -25.9236  -11.6675   20.5847 N   0  0  0  0  0  0  0  0  0126  0  0
  -22.0708  -12.7905   22.0005 N   0  0  0  0  0  0  0  0  0127  0  0
  -25.4117  -15.1773   20.4097 N   0  0  0  0  0  0  0  0  0128  0  0
  -31.7916  -14.6724   20.0536 O   0  0  0  0  0  0  0  0  0129  0  0
  -21.6670   -6.9022   21.4423 O   0  0  0  0  0  0  0  0  0130  0  0
  -22.3946  -14.5564   20.6568 O   0  0  0  0  0  0  0  0  0131  0  0
  -24.6048  -31.8614   23.2223 C   0  0  0  0  0  0  0  0  0100  0  0
  -25.8822  -32.4841   23.8616 C   0  0  1  0  0  0  0  0  0101  0  0
  -27.2536  -27.5042   20.1156 C   0  0  0  0  0  0  0  0  0102  0  0
  -25.5726  -33.8762   24.2210 N   0  0  0  0  0  0  0  0  0103  0  0
  -23.4066  -30.4859   21.5461 C   0  0  2  0  0  0  0  0  0104  0  0
  -24.8467  -28.9636   20.1247 C   0  0  0  0  0  0  0  0  0105  0  0
  -22.7412  -29.4652   22.5052 C   0  0  0  0  0  0  0  0  0106  0  0
  -18.0167  -28.1302   22.8626 C   0  0  0  0  0  0  0  0  0107  0  0
  -24.1342  -36.7390   23.2568 C   0  0  0  0  0  0  0  0  0108  0  0
  -25.9141  -30.8882   21.3456 C   0  0  0  0  0  0  0  0  0109  0  0
  -25.9930  -29.5029   20.7208 C   0  0  0  0  0  0  0  0  0110  0  0
  -27.1758  -28.7612   20.7331 C   0  0  0  0  0  0  0  0  0111  0  0
  -26.1032  -26.9836   19.5230 C   0  0  0  0  0  0  0  0  0112  0  0
  -24.9097  -27.7011   19.5331 C   0  0  0  0  0  0  0  0  0113  0  0
  -23.5715  -29.7899   20.1582 C   0  0  0  0  0  0  0  0  0114  0  0
  -25.3990  -36.3212   24.0232 C   0  0  1  0  0  0  0  0  0115  0  0
  -20.5793  -28.3813   23.1004 C   0  0  2  0  0  0  0  0  0116  0  0
  -20.6548  -26.9392   22.5411 C   0  0  0  0  0  0  0  0  0117  0  0
  -19.5615  -26.6407   21.5143 C   0  0  0  0  0  0  0  0  0118  0  0
  -18.1797  -26.7818   22.1673 C   0  0  0  0  0  0  0  0  0119  0  0
  -19.1385  -28.8769   23.2988 C   0  0  0  0  0  0  0  0  0120  0  0
  -18.9183  -30.1286   23.8878 C   0  0  0  0  0  0  0  0  0121  0  0
  -17.6396  -30.6493   24.0352 C   0  0  0  0  0  0  0  0  0122  0  0
  -25.9153  -34.9582   23.4993 C   0  0  0  0  0  0  0  0  0123  0  0
  -16.5415  -29.9068   23.6254 C   0  0  0  0  0  0  0  0  0124  0  0
  -16.7331  -28.6521   23.0586 C   0  0  0  0  0  0  0  0  0125  0  0
  -26.4583  -31.6439   25.0683 C   0  0  0  0  0  0  0  0  0126  0  0
  -25.3807  -31.3179   26.1374 C   0  0  0  0  0  0  0  0  0127  0  0
  -27.0530  -30.3024   24.5680 C   0  0  0  0  0  0  0  0  0128  0  0
  -27.6014  -32.4281   25.7651 C   0  0  0  0  0  0  0  0  0129  0  0
  -27.5629  -37.2220   24.8621 C   0  0  0  0  0  0  0  0  0130  0  0
  -21.4133  -29.3375   22.3735 N   0  0  0  0  0  0  0  0  0131  0  0
  -26.4706  -37.3372   23.9061 N   0  0  0  0  0  0  0  0  0132  0  0
  -24.6674  -31.0544   22.1178 N   0  0  0  0  0  0  0  0  0133  0  0
  -23.4259  -28.8150   23.2971 O   0  0  0  0  0  0  0  0  0134  0  0
  -28.3948  -26.7345   20.0089 O   0  0  0  0  0  0  0  0  0135  0  0
  -26.5870  -34.9065   22.4671 O   0  0  0  0  0  0  0  0  0136  0  0
  -23.5365  -32.1254   23.7833 O   0  0  0  0  0  0  0  0  0137  0  0
  -29.0768  -19.9981   17.3657 C   0  0  0  0  0  0  0  0  0  0  0  0
  -26.8862  -20.1275   18.3765 C   0  0  0  0  0  0  0  0  0  0  0  0
  -29.2148  -18.6908   17.8321 C   0  0  0  0  0  0  0  0  0  0  0  0
  -27.0241  -18.8202   18.8428 C   0  0  0  0  0  0  0  0  0  0  0  0
  -27.9125  -20.7165   17.6380 C   0  0  0  0  0  0  0  0  0  0  0  0
  -28.1885  -18.1018   18.5706 C   0  0  0  0  0  0  0  0  0  0  0  0
  -28.4315  -22.4176   15.9507 C   0  0  0  0  0  0  0  0  0  0  0  0
  -26.9830  -22.9702   17.9285 C   0  0  0  0  0  0  0  0  0  0  0  0
  -28.4111  -23.8774   15.5472 C   0  0  0  0  0  0  0  0  0  0  0  0
  -27.9907  -24.8169   16.6532 C   0  0  0  0  0  0  0  0  0  0  0  0
  -26.6934  -24.3017   17.2504 C   0  0  2  0  0  0  0  0  0  0  0  0
  -27.4464  -16.3108   20.1301 C   0  0  0  0  0  0  0  0  0  0  0  0
  -26.1066  -25.3185   18.2266 C   0  0  0  0  0  0  0  0  0  1  0  0
  -27.7691  -22.0752   17.1538 N   0  0  0  0  0  0  0  0  0  0  0  0
  -28.3308  -16.7498   19.0530 N   0  0  0  0  0  0  0  0  0  0  0  0
  -28.9469  -21.6107   15.1700 O   0  0  0  0  0  0  0  0  0  0  0  0
  -26.5618  -22.7427   19.0645 O   0  0  0  0  0  0  0  0  0  0  0  0
  -31.4485  -12.4701   19.0860 H   0  0  0  0  0  0  0  0  0  0  0  0
  -30.3970  -11.2460   19.6950 H   0  0  0  0  0  0  0  0  0  0  0  0
  -29.6870  -11.8204   17.4226 H   0  0  0  0  0  0  0  0  0  0  0  0
  -29.6375  -13.5326   17.8649 H   0  0  0  0  0  0  0  0  0  0  0  0
  -27.7830  -11.3650   18.7904 H   0  0  0  0  0  0  0  0  0  0  0  0
  -27.4028  -12.7801   17.8021 H   0  0  0  0  0  0  0  0  0  0  0  0
  -27.7353  -14.2503   19.6136 H   0  0  0  0  0  0  0  0  0  0  0  0
  -28.5890  -11.9550   21.3832 H   0  0  0  0  0  0  0  0  0  0  0  0
  -28.5005  -13.6134   21.8562 H   0  0  0  0  0  0  0  0  0  0  0  0
  -25.2399   -9.5495   22.4318 H   0  0  0  0  0  0  0  0  0  0  0  0
  -23.9663   -7.5070   22.7297 H   0  0  0  0  0  0  0  0  0  0  0  0
  -21.1515   -8.8641   19.9162 H   0  0  0  0  0  0  0  0  0  0  0  0
  -22.4016  -10.9115   19.6476 H   0  0  0  0  0  0  0  0  0  0  0  0
  -21.2319   -7.5552   23.9750 H   0  0  0  0  0  0  0  0  0  0  0  0
  -21.1589   -6.0228   25.8556 H   0  0  0  0  0  0  0  0  0  0  0  0
  -22.0396   -2.8212   23.2809 H   0  0  0  0  0  0  0  0  0  0  0  0
  -22.4401  -11.9703   22.4008 H   0  0  0  0  0  0  0  0  0  0  0  0
  -21.1493  -13.0679   22.2082 H   0  0  0  0  0  0  0  0  0  0  0  0
  -24.6538  -15.7807   20.5848 H   0  0  0  0  0  0  0  0  0  0  0  0
  -26.2762  -15.5453   20.1156 H   0  0  0  0  0  0  0  0  0  0  0  0
  -26.6778  -32.4663   23.1464 H   0  0  0  0  0  0  0  0  0  0  0  0
  -25.0747  -34.0282   25.0566 H   0  0  0  0  0  0  0  0  0  0  0  0
  -22.7881  -31.3489   21.4131 H   0  0  0  0  0  0  0  0  0  0  0  0
  -23.3854  -35.9823   23.3648 H   0  0  0  0  0  0  0  0  0  0  0  0
  -24.3696  -36.8624   22.2204 H   0  0  0  0  0  0  0  0  0  0  0  0
  -23.7669  -37.6632   23.6516 H   0  0  0  0  0  0  0  0  0  0  0  0
  -25.9445  -31.6237   20.5691 H   0  0  0  0  0  0  0  0  0  0  0  0
  -26.7436  -31.0079   22.0108 H   0  0  0  0  0  0  0  0  0  0  0  0
  -28.0090  -29.1452   21.2057 H   0  0  0  0  0  0  0  0  0  0  0  0
  -26.1369  -26.0560   19.0719 H   0  0  0  0  0  0  0  0  0  0  0  0
  -24.0652  -27.2961   19.0997 H   0  0  0  0  0  0  0  0  0  0  0  0
  -23.6156  -30.5365   19.3930 H   0  0  0  0  0  0  0  0  0  0  0  0
  -22.7355  -29.1425   19.9945 H   0  0  0  0  0  0  0  0  0  0  0  0
  -25.1353  -36.2335   25.0565 H   0  0  0  0  0  0  0  0  0  0  0  0
  -21.0070  -28.3206   24.0793 H   0  0  0  0  0  0  0  0  0  0  0  0
  -20.5555  -26.2518   23.3550 H   0  0  0  0  0  0  0  0  0  0  0  0
  -21.5974  -26.8362   22.0454 H   0  0  0  0  0  0  0  0  0  0  0  0
  -19.6810  -25.6422   21.1488 H   0  0  0  0  0  0  0  0  0  0  0  0
  -19.6406  -27.3343   20.7034 H   0  0  0  0  0  0  0  0  0  0  0  0
  -17.4282  -26.6888   21.4113 H   0  0  0  0  0  0  0  0  0  0  0  0
  -18.0803  -26.0130   22.9049 H   0  0  0  0  0  0  0  0  0  0  0  0
  -19.7265  -30.6774   24.2204 H   0  0  0  0  0  0  0  0  0  0  0  0
  -17.5064  -31.5856   24.4483 H   0  0  0  0  0  0  0  0  0  0  0  0
  -15.5878  -30.2839   23.7407 H   0  0  0  0  0  0  0  0  0  0  0  0
  -15.9120  -28.0941   22.7766 H   0  0  0  0  0  0  0  0  0  0  0  0
  -24.5787  -30.7757   25.6817 H   0  0  0  0  0  0  0  0  0  0  0  0
  -25.0041  -32.2289   26.5536 H   0  0  0  0  0  0  0  0  0  0  0  0
  -25.8166  -30.7245   26.9138 H   0  0  0  0  0  0  0  0  0  0  0  0
  -26.2892  -29.7335   24.0803 H   0  0  0  0  0  0  0  0  0  0  0  0
  -27.4336  -29.7484   25.4006 H   0  0  0  0  0  0  0  0  0  0  0  0
  -27.8466  -30.4994   23.8779 H   0  0  0  0  0  0  0  0  0  0  0  0
  -27.2251  -33.3632   26.1242 H   0  0  0  0  0  0  0  0  0  0  0  0
  -28.3902  -32.6065   25.0645 H   0  0  0  0  0  0  0  0  0  0  0  0
  -27.9772  -31.8555   26.5872 H   0  0  0  0  0  0  0  0  0  0  0  0
  -28.2744  -38.0016   24.6863 H   0  0  0  0  0  0  0  0  0  0  0  0
  -28.0396  -36.2711   24.7461 H   0  0  0  0  0  0  0  0  0  0  0  0
  -27.1773  -37.3087   25.8564 H   0  0  0  0  0  0  0  0  0  0  0  0
  -20.9627  -29.9365   21.7352 H   0  0  0  0  0  0  0  0  0  0  0  0
  -26.0447  -38.2561   24.0273 H   0  0  0  0  0  0  0  0  0  0  0  0
  -29.8361  -20.4338   16.8192 H   0  0  0  0  0  0  0  0  0  0  0  0
  -26.0248  -20.6590   18.5779 H   0  0  0  0  0  0  0  0  0  0  0  0
  -30.0762  -18.1594   17.6308 H   0  0  0  0  0  0  0  0  0  0  0  0
  -26.2647  -18.3844   19.3892 H   0  0  0  0  0  0  0  0  0  0  0  0
  -27.7278  -23.9912   14.7317 H   0  0  0  0  0  0  0  0  0  0  0  0
  -29.4148  -24.1392   15.2847 H   0  0  0  0  0  0  0  0  0  0  0  0
  -27.8410  -25.7991   16.2560 H   0  0  0  0  0  0  0  0  0  0  0  0
  -28.7499  -24.8628   17.4058 H   0  0  0  0  0  0  0  0  0  0  0  0
  -25.9612  -24.1570   16.4837 H   0  0  0  0  0  0  0  0  0  0  0  0
  -26.5048  -16.8119   20.0451 H   0  0  0  0  0  0  0  0  0  0  0  0
  -27.8911  -16.5452   21.0746 H   0  0  0  0  0  0  0  0  0  0  0  0
  -27.2956  -15.2538   20.0593 H   0  0  0  0  0  0  0  0  0  0  0  0
  -25.4215  -24.8173   18.8779 H   0  0  0  0  0  0  0  0  0  0  0  0
  -25.6123  -26.0778   17.6574 H   0  0  0  0  0  0  0  0  0  0  0  0
  1 25  1  0
  1 30  2  0
  1 85  1  0
  2  3  1  0
  2 25  1  0
  2 88  1  0
  2 89  1  0
  3  4  1  0
  3 90  1  0
  3 91  1  0
  4  5  1  0
  4 92  1  0
  4 93  1  0
  5  6  1  0
  5 26  1  0
  5 94  1  6
  6 25  1  0
  6 95  1  0
  6 96  1  0
  7  8  2  0
  7 26  1  0
  7 29  1  0
  8  9  1  0
  8 22  1  0
  9 10  1  0
  9 27  2  0
 10 11  2  0
 10 15  1  0
 11 12  1  0
 11 97  1  0
 12 13  2  0
 12 98  1  0
 13 14  1  0
 13 31  1  0
 14 15  2  0
 14 99  1  0
 15100  1  0
 16 17  2  0
 16 21  1  0
 16 31  1  0
 17 18  1  0
 17101  1  0
 18 19  2  0
 18102  1  0
 19 20  1  0
 19 24  1  0
 20 21  2  0
 20103  1  0
 21 23  1  0
 22 28  1  0
 22 32  2  0
 26 27  1  0
 28104  1  0
 28105  1  0
 29106  1  0
 29107  1  0
 33 34  1  0
 33 66  1  0
 33 70  2  0
 34 36  1  0
 34 59  1  0
 34108  1  6
 35 44  2  0
 35 45  1  0
 35 68  1  0
 36 56  1  0
 36109  1  0
 37 39  1  0
 37 47  1  0
 37 66  1  0
 37110  1  6
 38 43  2  0
 38 46  1  0
 38 47  1  0
 39 64  1  0
 39 67  2  0
 40 52  1  0
 40 53  2  0
 40 58  1  0
 41111  1  0
 41112  1  0
 41113  1  0
 42 43  1  0
 42 66  1  0
 42114  1  0
 42115  1  0
 43 44  1  0
 44116  1  0
 45 46  2  0
 45117  1  0
 46118  1  0
 47119  1  0
 47120  1  0
 48 41  1  0
 48 56  1  0
 48 65  1  0
 48121  1  1
 49 50  1  0
 49 53  1  0
 49 64  1  0
 49122  1  1
 50 51  1  0
 50123  1  0
 50124  1  0
 51 52  1  0
 51125  1  0
 51126  1  0
 52127  1  0
 52128  1  0
 53 54  1  0
 54 55  2  0
 54129  1  0
 55 57  1  0
 55130  1  0
 56 69  2  0
 57 58  2  0
 57131  1  0
 58132  1  0
 59 60  1  0
 59 61  1  0
 59 62  1  0
 60133  1  0
 60134  1  0
 60135  1  0
 61136  1  0
 61137  1  0
 61138  1  0
 62139  1  0
 62140  1  0
 62141  1  0
 63 65  1  0
 63142  1  0
 63143  1  0
 63144  1  0
 64145  1  0
 65146  1  0
 68 83  1  0
 71 73  2  0
 71 75  1  0
 71147  1  0
 72 74  1  0
 72 75  2  0
 72148  1  0
 73 76  1  0
 73149  1  0
 74 76  2  0
 74150  1  0
 75 84  1  0
 76 85  1  0
 77 79  1  0
 77 84  1  0
 77 86  2  0
 78 81  1  0
 78 84  1  0
 78 87  2  0
 79 80  1  0
 79151  1  0
 79152  1  0
 80 81  1  0
 80153  1  0
 80154  1  0
 81 83  1  0
 81155  1  6
 82 85  1  0
 82156  1  0
 82157  1  0
 82158  1  0
 83159  1  0
 83160  1  0
M  ISO  4   1 100  68 101  83 101  85 100
M  END
$$$$
84
     RDKit          3D

154162  0  0  0  0  0  0  0  0999 V2000
  -30.7652  -14.3608   20.6636 C   0  0  0  0  0  0  0  0  0100  0  0
  -30.4392  -12.2669   19.3775 C   0  0  0  0  0  0  0  0  0101  0  0
  -29.4791  -12.5281   18.1977 C   0  0  0  0  0  0  0  0  0102  0  0
  -27.9985  -12.3963   18.6038 C   0  0  0  0  0  0  0  0  0103  0  0
  -27.6639  -13.2170   19.8820 C   0  0  2  0  0  0  0  0  0104  0  0
  -28.6795  -12.9602   21.0279 C   0  0  0  0  0  0  0  0  0105  0  0
  -25.2633  -13.8245   20.5754 C   0  0  0  0  0  0  0  0  0106  0  0
  -24.1645  -13.0409   20.9408 C   0  0  0  0  0  0  0  0  0107  0  0
  -24.6400  -11.7009   20.8697 C   0  0  0  0  0  0  0  0  0108  0  0
  -23.9005  -10.4085   21.0420 C   0  0  0  0  0  0  0  0  0109  0  0
  -24.3588   -9.4123   21.9123 C   0  0  0  0  0  0  0  0  0110  0  0
  -23.6296   -8.2350   22.0803 C   0  0  0  0  0  0  0  0  0111  0  0
  -22.4385   -8.0419   21.3657 C   0  0  0  0  0  0  0  0  0112  0  0
  -22.0103   -9.0167   20.4678 C   0  0  0  0  0  0  0  0  0113  0  0
  -22.7317  -10.1925   20.3102 C   0  0  0  0  0  0  0  0  0114  0  0
  -21.6857   -6.0709   22.5391 C   0  0  0  0  0  0  0  0  0115  0  0
  -21.4064   -6.5490   23.8264 C   0  0  0  0  0  0  0  0  0116  0  0
  -21.3635   -5.6677   24.9085 C   0  0  0  0  0  0  0  0  0117  0  0
  -21.5973   -4.3067   24.7088 C   0  0  0  0  0  0  0  0  0118  0  0
  -21.8700   -3.8284   23.4282 C   0  0  0  0  0  0  0  0  0119  0  0
  -21.9144   -4.7056   22.3460 C   0  0  0  0  0  0  0  0  0120  0  0
  -22.8194  -13.5263   21.1763 C   0  0  0  0  0  0  0  0  0121  0  0
  -22.1559   -4.2206   21.1063 F   0  0  0  0  0  0  0  0  0122  0  0
  -21.5628   -3.4510   25.7555 F   0  0  0  0  0  0  0  0  0123  0  0
  -30.0261  -13.1803   20.4553 N   0  0  0  0  0  0  0  0  0124  0  0
  -26.2911  -12.9356   20.3443 N   0  0  0  0  0  0  0  0  0125  0  0
  -25.9236  -11.6675   20.5847 N   0  0  0  0  0  0  0  0  0126  0  0
  -22.0708  -12.7905   22.0005 N   0  0  0  0  0  0  0  0  0127  0  0
  -25.4117  -15.1773   20.4097 N   0  0  0  0  0  0  0  0  0128  0  0
  -31.7916  -14.6724   20.0536 O   0  0  0  0  0  0  0  0  0129  0  0
  -21.6670   -6.9022   21.4423 O   0  0  0  0  0  0  0  0  0130  0  0
  -22.3946  -14.5564   20.6568 O   0  0  0  0  0  0  0  0  0131  0  0
  -24.6048  -31.8614   23.2223 C   0  0  0  0  0  0  0  0  0100  0  0
  -25.8822  -32.4841   23.8616 C   0  0  1  0  0  0  0  0  0101  0  0
  -27.2536  -27.5042   20.1156 C   0  0  0  0  0  0  0  0  0102  0  0
  -25.5726  -33.8762   24.2210 N   0  0  0  0  0  0  0  0  0103  0  0
  -23.4066  -30.4859   21.5461 C   0  0  2  0  0  0  0  0  0104  0  0
  -24.8467  -28.9636   20.1247 C   0  0  0  0  0  0  0  0  0105  0  0
  -22.7412  -29.4652   22.5052 C   0  0  0  0  0  0  0  0  0106  0  0
  -18.0167  -28.1302   22.8626 C   0  0  0  0  0  0  0  0  0107  0  0
  -24.1342  -36.7390   23.2568 C   0  0  0  0  0  0  0  0  0108  0  0
  -25.9141  -30.8882   21.3456 C   0  0  0  0  0  0  0  0  0109  0  0
  -25.9930  -29.5029   20.7208 C   0  0  0  0  0  0  0  0  0110  0  0
  -27.1758  -28.7612   20.7331 C   0  0  0  0  0  0  0  0  0111  0  0
  -26.1032  -26.9836   19.5230 C   0  0  0  0  0  0  0  0  0112  0  0
  -24.9097  -27.7011   19.5331 C   0  0  0  0  0  0  0  0  0113  0  0
  -23.5715  -29.7899   20.1582 C   0  0  0  0  0  0  0  0  0114  0  0
  -25.3990  -36.3212   24.0232 C   0  0  1  0  0  0  0  0  0115  0  0
  -20.5793  -28.3813   23.1004 C   0  0  2  0  0  0  0  0  0116  0  0
  -20.6548  -26.9392   22.5411 C   0  0  0  0  0  0  0  0  0117  0  0
  -19.5615  -26.6407   21.5143 C   0  0  0  0  0  0  0  0  0118  0  0
  -18.1797  -26.7818   22.1673 C   0  0  0  0  0  0  0  0  0119  0  0
  -19.1385  -28.8769   23.2988 C   0  0  0  0  0  0  0  0  0120  0  0
  -18.9183  -30.1286   23.8878 C   0  0  0  0  0  0  0  0  0121  0  0
  -17.6396  -30.6493   24.0352 C   0  0  0  0  0  0  0  0  0122  0  0
  -25.9153  -34.9582   23.4993 C   0  0  0  0  0  0  0  0  0123  0  0
  -16.5415  -29.9068   23.6254 C   0  0  0  0  0  0  0  0  0124  0  0
  -16.7331  -28.6521   23.0586 C   0  0  0  0  0  0  0  0  0125  0  0
  -26.4583  -31.6439   25.0683 C   0  0  0  0  0  0  0  0  0126  0  0
  -25.3807  -31.3179   26.1374 C   0  0  0  0  0  0  0  0  0127  0  0
  -27.0530  -30.3024   24.5680 C   0  0  0  0  0  0  0  0  0128  0  0
  -27.6014  -32.4281   25.7651 C   0  0  0  0  0  0  0  0  0129  0  0
  -27.5629  -37.2220   24.8621 C   0  0  0  0  0  0  0  0  0130  0  0
  -21.4133  -29.3375   22.3735 N   0  0  0  0  0  0  0  0  0131  0  0
  -26.4706  -37.3372   23.9061 N   0  0  0  0  0  0  0  0  0132  0  0
  -24.6674  -31.0544   22.1178 N   0  0  0  0  0  0  0  0  0133  0  0
  -23.4259  -28.8150   23.2971 O   0  0  0  0  0  0  0  0  0134  0  0
  -28.3948  -26.7345   20.0089 O   0  0  0  0  0  0  0  0  0135  0  0
  -26.5870  -34.9065   22.4671 O   0  0  0  0  0  0  0  0  0136  0  0
  -23.5365  -32.1254   23.7833 O   0  0  0  0  0  0  0  0  0137  0  0
  -29.5938  -24.8692   21.0324 C   0  0  0  0  0  0  0  0  0  0  0  0
  -29.3230  -26.2315   21.1607 C   0  0  0  0  0  0  0  0  0  0  0  0
  -30.0106  -26.5838   18.8715 C   0  0  0  0  0  0  0  0  0  0  0  0
  -30.0731  -24.3642   19.8236 C   0  0  0  0  0  0  0  0  0  0  0  0
  -29.5314  -27.0888   20.0803 C   0  0  0  0  0  0  0  0  0  0  0  0
  -30.2815  -25.2215   18.7432 C   0  0  0  0  0  0  0  0  0  0  0  0
  -30.3526  -22.9031   19.7199 C   0  0  0  0  0  0  0  0  0  0  0  0
  -30.0829  -29.2201   21.3111 C   0  0  0  0  0  0  0  0  0  0  0  0
  -29.2162  -21.9257   19.9476 C   0  0  0  0  0  0  0  0  0  1  0  0
  -29.2416  -28.5452   20.2180 C   0  0  2  0  0  0  0  0  0  0  0  0
  -30.7662  -24.7302   17.5106 N   0  0  0  0  0  0  0  0  0  0  0  0
  -27.8368  -28.7967   20.4506 N   0  0  0  0  0  0  0  0  0  0  0  0
  -31.4895  -22.5202   19.4530 O   0  0  0  0  0  0  0  0  0  0  0  0
  -31.4485  -12.4701   19.0860 H   0  0  0  0  0  0  0  0  0  0  0  0
  -30.3970  -11.2460   19.6950 H   0  0  0  0  0  0  0  0  0  0  0  0
  -29.6870  -11.8204   17.4226 H   0  0  0  0  0  0  0  0  0  0  0  0
  -29.6375  -13.5326   17.8649 H   0  0  0  0  0  0  0  0  0  0  0  0
  -27.7830  -11.3650   18.7904 H   0  0  0  0  0  0  0  0  0  0  0  0
  -27.4028  -12.7801   17.8021 H   0  0  0  0  0  0  0  0  0  0  0  0
  -27.7353  -14.2503   19.6136 H   0  0  0  0  0  0  0  0  0  0  0  0
  -28.5890  -11.9550   21.3832 H   0  0  0  0  0  0  0  0  0  0  0  0
  -28.5005  -13.6134   21.8562 H   0  0  0  0  0  0  0  0  0  0  0  0
  -25.2399   -9.5495   22.4318 H   0  0  0  0  0  0  0  0  0  0  0  0
  -23.9663   -7.5070   22.7297 H   0  0  0  0  0  0  0  0  0  0  0  0
  -21.1515   -8.8641   19.9162 H   0  0  0  0  0  0  0  0  0  0  0  0
  -22.4016  -10.9115   19.6476 H   0  0  0  0  0  0  0  0  0  0  0  0
  -21.2319   -7.5552   23.9750 H   0  0  0  0  0  0  0  0  0  0  0  0
  -21.1589   -6.0228   25.8556 H   0  0  0  0  0  0  0  0  0  0  0  0
  -22.0396   -2.8212   23.2809 H   0  0  0  0  0  0  0  0  0  0  0  0
  -22.4401  -11.9703   22.4008 H   0  0  0  0  0  0  0  0  0  0  0  0
  -21.1493  -13.0679   22.2082 H   0  0  0  0  0  0  0  0  0  0  0  0
  -24.6538  -15.7807   20.5848 H   0  0  0  0  0  0  0  0  0  0  0  0
  -26.2762  -15.5453   20.1156 H   0  0  0  0  0  0  0  0  0  0  0  0
  -26.6778  -32.4663   23.1464 H   0  0  0  0  0  0  0  0  0  0  0  0
  -25.0747  -34.0282   25.0566 H   0  0  0  0  0  0  0  0  0  0  0  0
  -22.7881  -31.3489   21.4131 H   0  0  0  0  0  0  0  0  0  0  0  0
  -23.3854  -35.9823   23.3648 H   0  0  0  0  0  0  0  0  0  0  0  0
  -24.3696  -36.8624   22.2204 H   0  0  0  0  0  0  0  0  0  0  0  0
  -23.7669  -37.6632   23.6516 H   0  0  0  0  0  0  0  0  0  0  0  0
  -25.9445  -31.6237   20.5691 H   0  0  0  0  0  0  0  0  0  0  0  0
  -26.7436  -31.0079   22.0108 H   0  0  0  0  0  0  0  0  0  0  0  0
  -28.0090  -29.1452   21.2057 H   0  0  0  0  0  0  0  0  0  0  0  0
  -26.1369  -26.0560   19.0719 H   0  0  0  0  0  0  0  0  0  0  0  0
  -24.0652  -27.2961   19.0997 H   0  0  0  0  0  0  0  0  0  0  0  0
  -23.6156  -30.5365   19.3930 H   0  0  0  0  0  0  0  0  0  0  0  0
  -22.7355  -29.1425   19.9945 H   0  0  0  0  0  0  0  0  0  0  0  0
  -25.1353  -36.2335   25.0565 H   0  0  0  0  0  0  0  0  0  0  0  0
  -21.0070  -28.3206   24.0793 H   0  0  0  0  0  0  0  0  0  0  0  0
  -20.5555  -26.2518   23.3550 H   0  0  0  0  0  0  0  0  0  0  0  0
  -21.5974  -26.8362   22.0454 H   0  0  0  0  0  0  0  0  0  0  0  0
  -19.6810  -25.6422   21.1488 H   0  0  0  0  0  0  0  0  0  0  0  0
  -19.6406  -27.3343   20.7034 H   0  0  0  0  0  0  0  0  0  0  0  0
  -17.4282  -26.6888   21.4113 H   0  0  0  0  0  0  0  0  0  0  0  0
  -18.0803  -26.0130   22.9049 H   0  0  0  0  0  0  0  0  0  0  0  0
  -19.7265  -30.6774   24.2204 H   0  0  0  0  0  0  0  0  0  0  0  0
  -17.5064  -31.5856   24.4483 H   0  0  0  0  0  0  0  0  0  0  0  0
  -15.5878  -30.2839   23.7407 H   0  0  0  0  0  0  0  0  0  0  0  0
  -15.9120  -28.0941   22.7766 H   0  0  0  0  0  0  0  0  0  0  0  0
  -24.5787  -30.7757   25.6817 H   0  0  0  0  0  0  0  0  0  0  0  0
  -25.0041  -32.2289   26.5536 H   0  0  0  0  0  0  0  0  0  0  0  0
  -25.8166  -30.7245   26.9138 H   0  0  0  0  0  0  0  0  0  0  0  0
  -26.2892  -29.7335   24.0803 H   0  0  0  0  0  0  0  0  0  0  0  0
  -27.4336  -29.7484   25.4006 H   0  0  0  0  0  0  0  0  0  0  0  0
  -27.8466  -30.4994   23.8779 H   0  0  0  0  0  0  0  0  0  0  0  0
  -27.2251  -33.3632   26.1242 H   0  0  0  0  0  0  0  0  0  0  0  0
  -28.3902  -32.6065   25.0645 H   0  0  0  0  0  0  0  0  0  0  0  0
  -27.9772  -31.8555   26.5872 H   0  0  0  0  0  0  0  0  0  0  0  0
  -28.2744  -38.0016   24.6863 H   0  0  0  0  0  0  0  0  0  0  0  0
  -28.0396  -36.2711   24.7461 H   0  0  0  0  0  0  0  0  0  0  0  0
  -27.1773  -37.3087   25.8564 H   0  0  0  0  0  0  0  0  0  0  0  0
  -20.9627  -29.9365   21.7352 H   0  0  0  0  0  0  0  0  0  0  0  0
  -26.0447  -38.2561   24.0273 H   0  0  0  0  0  0  0  0  0  0  0  0
  -29.4396  -24.2349   21.8317 H   0  0  0  0  0  0  0  0  0  0  0  0
  -28.9685  -26.6051   22.0550 H   0  0  0  0  0  0  0  0  0  0  0  0
  -30.1647  -27.2181   18.0721 H   0  0  0  0  0  0  0  0  0  0  0  0
  -31.1203  -29.0292   21.1316 H   0  0  0  0  0  0  0  0  0  0  0  0
  -29.8079  -28.8260   22.2671 H   0  0  0  0  0  0  0  0  0  0  0  0
  -29.9067  -30.2754   21.2963 H   0  0  0  0  0  0  0  0  0  0  0  0
  -29.1677  -21.3617   20.8556 H   0  0  0  0  0  0  0  0  0  0  0  0
  -28.8117  -21.0930   19.4110 H   0  0  0  0  0  0  0  0  0  0  0  0
  -29.5171  -28.9814   19.2806 H   0  0  0  0  0  0  0  0  0  0  0  0
  -30.9085  -25.3470   16.7566 H   0  0  0  0  0  0  0  0  0  0  0  0
  -30.9616  -23.7710   17.4056 H   0  0  0  0  0  0  0  0  0  0  0  0
  -27.1385  -29.4852   20.5380 H   0  0  0  0  0  0  0  0  0  0  0  0
  1 25  1  0
  1 30  2  0
  1 82  1  0
  2  3  1  0
  2 25  1  0
  2 84  1  0
  2 85  1  0
  3  4  1  0
  3 86  1  0
  3 87  1  0
  4  5  1  0
  4 88  1  0
  4 89  1  0
  5  6  1  0
  5 26  1  0
  5 90  1  6
  6 25  1  0
  6 91  1  0
  6 92  1  0
  7  8  2  0
  7 26  1  0
  7 29  1  0
  8  9  1  0
  8 22  1  0
  9 10  1  0
  9 27  2  0
 10 11  2  0
 10 15  1  0
 11 12  1  0
 11 93  1  0
 12 13  2  0
 12 94  1  0
 13 14  1  0
 13 31  1  0
 14 15  2  0
 14 95  1  0
 15 96  1  0
 16 17  2  0
 16 21  1  0
 16 31  1  0
 17 18  1  0
 17 97  1  0
 18 19  2  0
 18 98  1  0
 19 20  1  0
 19 24  1  0
 20 21  2  0
 20 99  1  0
 21 23  1  0
 22 28  1  0
 22 32  2  0
 26 27  1  0
 28100  1  0
 28101  1  0
 29102  1  0
 29103  1  0
 33 34  1  0
 33 66  1  0
 33 70  2  0
 34 36  1  0
 34 59  1  0
 34104  1  6
 35 44  2  0
 35 45  1  0
 35 68  1  0
 36 56  1  0
 36105  1  0
 37 39  1  0
 37 47  1  0
 37 66  1  0
 37106  1  6
 38 43  2  0
 38 46  1  0
 38 47  1  0
 39 64  1  0
 39 67  2  0
 40 52  1  0
 40 53  2  0
 40 58  1  0
 41107  1  0
 41108  1  0
 41109  1  0
 42 43  1  0
 42 66  1  0
 42110  1  0
 42111  1  0
 43 44  1  0
 44112  1  0
 45 46  2  0
 45113  1  0
 46114  1  0
 47115  1  0
 47116  1  0
 48 41  1  0
 48 56  1  0
 48 65  1  0
 48117  1  1
 49 50  1  0
 49 53  1  0
 49 64  1  0
 49118  1  1
 50 51  1  0
 50119  1  0
 50120  1  0
 51 52  1  0
 51121  1  0
 51122  1  0
 52123  1  0
 52124  1  0
 53 54  1  0
 54 55  2  0
 54125  1  0
 55 57  1  0
 55126  1  0
 56 69  2  0
 57 58  2  0
 57127  1  0
 58128  1  0
 59 60  1  0
 59 61  1  0
 59 62  1  0
 60129  1  0
 60130  1  0
 60131  1  0
 61132  1  0
 61133  1  0
 61134  1  0
 62135  1  0
 62136  1  0
 62137  1  0
 63 65  1  0
 63138  1  0
 63139  1  0
 63140  1  0
 64141  1  0
 65142  1  0
 68 79  1  0
 71 72  2  0
 71 74  1  0
 71143  1  0
 72 75  1  0
 72144  1  0
 73 75  2  0
 73 76  1  0
 73145  1  0
 74 76  2  0
 74 77  1  0
 75 80  1  0
 76 81  1  0
 77 79  1  0
 77 83  2  0
 78146  1  0
 78147  1  0
 78148  1  0
 79149  1  0
 79150  1  0
 80 78  1  0
 80 82  1  0
 80151  1  6
 81152  1  0
 81153  1  0
 82154  1  0
M  ISO  4   1 100  68 101  79 101  82 100
M  END
$$$$
85
     RDKit          3D

158167  0  0  0  0  0  0  0  0999 V2000
  -30.7652  -14.3608   20.6636 C   0  0  0  0  0  0  0  0  0100  0  0
  -30.4392  -12.2669   19.3775 C   0  0  0  0  0  0  0  0  0101  0  0
  -29.4791  -12.5281   18.1977 C   0  0  0  0  0  0  0  0  0102  0  0
  -27.9985  -12.3963   18.6038 C   0  0  0  0  0  0  0  0  0103  0  0
  -27.6639  -13.2170   19.8820 C   0  0  2  0  0  0  0  0  0104  0  0
  -28.6795  -12.9602   21.0279 C   0  0  0  0  0  0  0  0  0105  0  0
  -25.2633  -13.8245   20.5754 C   0  0  0  0  0  0  0  0  0106  0  0
  -24.1645  -13.0409   20.9408 C   0  0  0  0  0  0  0  0  0107  0  0
  -24.6400  -11.7009   20.8697 C   0  0  0  0  0  0  0  0  0108  0  0
  -23.9005  -10.4085   21.0420 C   0  0  0  0  0  0  0  0  0109  0  0
  -24.3588   -9.4123   21.9123 C   0  0  0  0  0  0  0  0  0110  0  0
  -23.6296   -8.2350   22.0803 C   0  0  0  0  0  0  0  0  0111  0  0
  -22.4385   -8.0419   21.3657 C   0  0  0  0  0  0  0  0  0112  0  0
  -22.0103   -9.0167   20.4678 C   0  0  0  0  0  0  0  0  0113  0  0
  -22.7317  -10.1925   20.3102 C   0  0  0  0  0  0  0  0  0114  0  0
  -21.6857   -6.0709   22.5391 C   0  0  0  0  0  0  0  0  0115  0  0
  -21.4064   -6.5490   23.8264 C   0  0  0  0  0  0  0  0  0116  0  0
  -21.3635   -5.6677   24.9085 C   0  0  0  0  0  0  0  0  0117  0  0
  -21.5973   -4.3067   24.7088 C   0  0  0  0  0  0  0  0  0118  0  0
  -21.8700   -3.8284   23.4282 C   0  0  0  0  0  0  0  0  0119  0  0
  -21.9144   -4.7056   22.3460 C   0  0  0  0  0  0  0  0  0120  0  0
  -22.8194  -13.5263   21.1763 C   0  0  0  0  0  0  0  0  0121  0  0
  -22.1559   -4.2206   21.1063 F   0  0  0  0  0  0  0  0  0122  0  0
  -21.5628   -3.4510   25.7555 F   0  0  0  0  0  0  0  0  0123  0  0
  -30.0261  -13.1803   20.4553 N   0  0  0  0  0  0  0  0  0124  0  0
  -26.2911  -12.9356   20.3443 N   0  0  0  0  0  0  0  0  0125  0  0
  -25.9236  -11.6675   20.5847 N   0  0  0  0  0  0  0  0  0126  0  0
  -22.0708  -12.7905   22.0005 N   0  0  0  0  0  0  0  0  0127  0  0
  -25.4117  -15.1773   20.4097 N   0  0  0  0  0  0  0  0  0128  0  0
  -31.7916  -14.6724   20.0536 O   0  0  0  0  0  0  0  0  0129  0  0
  -21.6670   -6.9022   21.4423 O   0  0  0  0  0  0  0  0  0130  0  0
  -22.3946  -14.5564   20.6568 O   0  0  0  0  0  0  0  0  0131  0  0
  -24.6048  -31.8614   23.2223 C   0  0  0  0  0  0  0  0  0100  0  0
  -25.8822  -32.4841   23.8616 C   0  0  1  0  0  0  0  0  0101  0  0
  -27.2536  -27.5042   20.1156 C   0  0  0  0  0  0  0  0  0102  0  0
  -25.5726  -33.8762   24.2210 N   0  0  0  0  0  0  0  0  0103  0  0
  -23.4066  -30.4859   21.5461 C   0  0  2  0  0  0  0  0  0104  0  0
  -24.8467  -28.9636   20.1247 C   0  0  0  0  0  0  0  0  0105  0  0
  -22.7412  -29.4652   22.5052 C   0  0  0  0  0  0  0  0  0106  0  0
  -18.0167  -28.1302   22.8626 C   0  0  0  0  0  0  0  0  0107  0  0
  -24.1342  -36.7390   23.2568 C   0  0  0  0  0  0  0  0  0108  0  0
  -25.9141  -30.8882   21.3456 C   0  0  0  0  0  0  0  0  0109  0  0
  -25.9930  -29.5029   20.7208 C   0  0  0  0  0  0  0  0  0110  0  0
  -27.1758  -28.7612   20.7331 C   0  0  0  0  0  0  0  0  0111  0  0
  -26.1032  -26.9836   19.5230 C   0  0  0  0  0  0  0  0  0112  0  0
  -24.9097  -27.7011   19.5331 C   0  0  0  0  0  0  0  0  0113  0  0
  -23.5715  -29.7899   20.1582 C   0  0  0  0  0  0  0  0  0114  0  0
  -25.3990  -36.3212   24.0232 C   0  0  1  0  0  0  0  0  0115  0  0
  -20.5793  -28.3813   23.1004 C   0  0  2  0  0  0  0  0  0116  0  0
  -20.6548  -26.9392   22.5411 C   0  0  0  0  0  0  0  0  0117  0  0
  -19.5615  -26.6407   21.5143 C   0  0  0  0  0  0  0  0  0118  0  0
  -18.1797  -26.7818   22.1673 C   0  0  0  0  0  0  0  0  0119  0  0
  -19.1385  -28.8769   23.2988 C   0  0  0  0  0  0  0  0  0120  0  0
  -18.9183  -30.1286   23.8878 C   0  0  0  0  0  0  0  0  0121  0  0
  -17.6396  -30.6493   24.0352 C   0  0  0  0  0  0  0  0  0122  0  0
  -25.9153  -34.9582   23.4993 C   0  0  0  0  0  0  0  0  0123  0  0
  -16.5415  -29.9068   23.6254 C   0  0  0  0  0  0  0  0  0124  0  0
  -16.7331  -28.6521   23.0586 C   0  0  0  0  0  0  0  0  0125  0  0
  -26.4583  -31.6439   25.0683 C   0  0  0  0  0  0  0  0  0126  0  0
  -25.3807  -31.3179   26.1374 C   0  0  0  0  0  0  0  0  0127  0  0
  -27.0530  -30.3024   24.5680 C   0  0  0  0  0  0  0  0  0128  0  0
  -27.6014  -32.4281   25.7651 C   0  0  0  0  0  0  0  0  0129  0  0
  -27.5629  -37.2220   24.8621 C   0  0  0  0  0  0  0  0  0130  0  0
  -21.4133  -29.3375   22.3735 N   0  0  0  0  0  0  0  0  0131  0  0
  -26.4706  -37.3372   23.9061 N   0  0  0  0  0  0  0  0  0132  0  0
  -24.6674  -31.0544   22.1178 N   0  0  0  0  0  0  0  0  0133  0  0
  -23.4259  -28.8150   23.2971 O   0  0  0  0  0  0  0  0  0134  0  0
  -28.3948  -26.7345   20.0089 O   0  0  0  0  0  0  0  0  0135  0  0
  -26.5870  -34.9065   22.4671 O   0  0  0  0  0  0  0  0  0136  0  0
  -23.5365  -32.1254   23.7833 O   0  0  0  0  0  0  0  0  0137  0  0
  -27.0281  -21.9592   20.6592 C   0  0  0  0  0  0  0  0  0  0  0  0
  -27.1214  -20.5702   20.5726 C   0  0  0  0  0  0  0  0  0  0  0  0
  -29.5154  -20.7127   20.8651 C   0  0  0  0  0  0  0  0  0  0  0  0
  -28.1785  -22.7250   20.8487 C   0  0  0  0  0  0  0  0  0  0  0  0
  -28.3650  -19.9469   20.6756 C   0  0  0  0  0  0  0  0  0  0  0  0
  -29.4221  -22.1017   20.9517 C   0  0  0  0  0  0  0  0  0  0  0  0
  -29.9157  -25.7435   20.1452 C   0  0  0  0  0  0  0  0  0  0  0  0
  -30.3981  -26.2278   18.7998 C   0  0  0  0  0  0  0  0  0  0  0  0
  -29.8082  -25.2136   17.8242 C   0  0  0  0  0  0  0  0  0  0  0  0
  -28.5273  -24.7377   18.5027 C   0  0  2  0  0  0  0  0  0  0  0  0
  -28.0735  -24.2197   20.9434 C   0  0  0  0  0  0  0  0  0  0  0  0
  -27.3197  -25.5778   18.0999 C   0  0  0  0  0  0  0  0  0  1  0  0
  -28.8445  -24.8837   19.9121 N   0  0  0  0  0  0  0  0  0  0  0  0
  -28.4599  -18.5360   20.5856 N   0  0  0  0  0  0  0  0  0  0  0  0
  -30.3839  -26.0952   21.2178 O   0  0  0  0  0  0  0  0  0  0  0  0
  -30.5331  -22.8290   21.1340 F   0  0  0  0  0  0  0  0  0  0  0  0
  -31.4485  -12.4701   19.0860 H   0  0  0  0  0  0  0  0  0  0  0  0
  -30.3970  -11.2460   19.6950 H   0  0  0  0  0  0  0  0  0  0  0  0
  -29.6870  -11.8204   17.4226 H   0  0  0  0  0  0  0  0  0  0  0  0
  -29.6375  -13.5326   17.8649 H   0  0  0  0  0  0  0  0  0  0  0  0
  -27.7830  -11.3650   18.7904 H   0  0  0  0  0  0  0  0  0  0  0  0
  -27.4028  -12.7801   17.8021 H   0  0  0  0  0  0  0  0  0  0  0  0
  -27.7353  -14.2503   19.6136 H   0  0  0  0  0  0  0  0  0  0  0  0
  -28.5890  -11.9550   21.3832 H   0  0  0  0  0  0  0  0  0  0  0  0
  -28.5005  -13.6134   21.8562 H   0  0  0  0  0  0  0  0  0  0  0  0
  -25.2399   -9.5495   22.4318 H   0  0  0  0  0  0  0  0  0  0  0  0
  -23.9663   -7.5070   22.7297 H   0  0  0  0  0  0  0  0  0  0  0  0
  -21.1515   -8.8641   19.9162 H   0  0  0  0  0  0  0  0  0  0  0  0
  -22.4016  -10.9115   19.6476 H   0  0  0  0  0  0  0  0  0  0  0  0
  -21.2319   -7.5552   23.9750 H   0  0  0  0  0  0  0  0  0  0  0  0
  -21.1589   -6.0228   25.8556 H   0  0  0  0  0  0  0  0  0  0  0  0
  -22.0396   -2.8212   23.2809 H   0  0  0  0  0  0  0  0  0  0  0  0
  -22.4401  -11.9703   22.4008 H   0  0  0  0  0  0  0  0  0  0  0  0
  -21.1493  -13.0679   22.2082 H   0  0  0  0  0  0  0  0  0  0  0  0
  -24.6538  -15.7807   20.5848 H   0  0  0  0  0  0  0  0  0  0  0  0
  -26.2762  -15.5453   20.1156 H   0  0  0  0  0  0  0  0  0  0  0  0
  -26.6778  -32.4663   23.1464 H   0  0  0  0  0  0  0  0  0  0  0  0
  -25.0747  -34.0282   25.0566 H   0  0  0  0  0  0  0  0  0  0  0  0
  -22.7881  -31.3489   21.4131 H   0  0  0  0  0  0  0  0  0  0  0  0
  -23.3854  -35.9823   23.3648 H   0  0  0  0  0  0  0  0  0  0  0  0
  -24.3696  -36.8624   22.2204 H   0  0  0  0  0  0  0  0  0  0  0  0
  -23.7669  -37.6632   23.6516 H   0  0  0  0  0  0  0  0  0  0  0  0
  -25.9445  -31.6237   20.5691 H   0  0  0  0  0  0  0  0  0  0  0  0
  -26.7436  -31.0079   22.0108 H   0  0  0  0  0  0  0  0  0  0  0  0
  -28.0090  -29.1452   21.2057 H   0  0  0  0  0  0  0  0  0  0  0  0
  -26.1369  -26.0560   19.0719 H   0  0  0  0  0  0  0  0  0  0  0  0
  -24.0652  -27.2961   19.0997 H   0  0  0  0  0  0  0  0  0  0  0  0
  -23.6156  -30.5365   19.3930 H   0  0  0  0  0  0  0  0  0  0  0  0
  -22.7355  -29.1425   19.9945 H   0  0  0  0  0  0  0  0  0  0  0  0
  -25.1353  -36.2335   25.0565 H   0  0  0  0  0  0  0  0  0  0  0  0
  -21.0070  -28.3206   24.0793 H   0  0  0  0  0  0  0  0  0  0  0  0
  -20.5555  -26.2518   23.3550 H   0  0  0  0  0  0  0  0  0  0  0  0
  -21.5974  -26.8362   22.0454 H   0  0  0  0  0  0  0  0  0  0  0  0
  -19.6810  -25.6422   21.1488 H   0  0  0  0  0  0  0  0  0  0  0  0
  -19.6406  -27.3343   20.7034 H   0  0  0  0  0  0  0  0  0  0  0  0
  -17.4282  -26.6888   21.4113 H   0  0  0  0  0  0  0  0  0  0  0  0
  -18.0803  -26.0130   22.9049 H   0  0  0  0  0  0  0  0  0  0  0  0
  -19.7265  -30.6774   24.2204 H   0  0  0  0  0  0  0  0  0  0  0  0
  -17.5064  -31.5856   24.4483 H   0  0  0  0  0  0  0  0  0  0  0  0
  -15.5878  -30.2839   23.7407 H   0  0  0  0  0  0  0  0  0  0  0  0
  -15.9120  -28.0941   22.7766 H   0  0  0  0  0  0  0  0  0  0  0  0
  -24.5787  -30.7757   25.6817 H   0  0  0  0  0  0  0  0  0  0  0  0
  -25.0041  -32.2289   26.5536 H   0  0  0  0  0  0  0  0  0  0  0  0
  -25.8166  -30.7245   26.9138 H   0  0  0  0  0  0  0  0  0  0  0  0
  -26.2892  -29.7335   24.0803 H   0  0  0  0  0  0  0  0  0  0  0  0
  -27.4336  -29.7484   25.4006 H   0  0  0  0  0  0  0  0  0  0  0  0
  -27.8466  -30.4994   23.8779 H   0  0  0  0  0  0  0  0  0  0  0  0
  -27.2251  -33.3632   26.1242 H   0  0  0  0  0  0  0  0  0  0  0  0
  -28.3902  -32.6065   25.0645 H   0  0  0  0  0  0  0  0  0  0  0  0
  -27.9772  -31.8555   26.5872 H   0  0  0  0  0  0  0  0  0  0  0  0
  -28.2744  -38.0016   24.6863 H   0  0  0  0  0  0  0  0  0  0  0  0
  -28.0396  -36.2711   24.7461 H   0  0  0  0  0  0  0  0  0  0  0  0
  -27.1773  -37.3087   25.8564 H   0  0  0  0  0  0  0  0  0  0  0  0
  -20.9627  -29.9365   21.7352 H   0  0  0  0  0  0  0  0  0  0  0  0
  -26.0447  -38.2561   24.0273 H   0  0  0  0  0  0  0  0  0  0  0  0
  -26.1080  -22.4203   20.5831 H   0  0  0  0  0  0  0  0  0  0  0  0
  -26.2703  -20.0036   20.4323 H   0  0  0  0  0  0  0  0  0  0  0  0
  -30.4355  -20.2516   20.9412 H   0  0  0  0  0  0  0  0  0  0  0  0
  -31.4671  -26.2262   18.7534 H   0  0  0  0  0  0  0  0  0  0  0  0
  -30.0999  -27.2331   18.5871 H   0  0  0  0  0  0  0  0  0  0  0  0
  -30.4827  -24.3969   17.6727 H   0  0  0  0  0  0  0  0  0  0  0  0
  -29.6263  -25.6347   16.8575 H   0  0  0  0  0  0  0  0  0  0  0  0
  -28.2515  -23.7400   18.2315 H   0  0  0  0  0  0  0  0  0  0  0  0
  -28.4359  -24.5316   21.9006 H   0  0  0  0  0  0  0  0  0  0  0  0
  -27.0460  -24.4881   20.8127 H   0  0  0  0  0  0  0  0  0  0  0  0
  -26.3483  -25.1578   18.2576 H   0  0  0  0  0  0  0  0  0  0  0  0
  -27.0608  -25.9659   17.1370 H   0  0  0  0  0  0  0  0  0  0  0  0
  -27.5298  -18.2670   20.4072 H   0  0  0  0  0  0  0  0  0  0  0  0
  1 25  1  0
  1 30  2  0
  1 84  1  0
  2  3  1  0
  2 25  1  0
  2 87  1  0
  2 88  1  0
  3  4  1  0
  3 89  1  0
  3 90  1  0
  4  5  1  0
  4 91  1  0
  4 92  1  0
  5  6  1  0
  5 26  1  0
  5 93  1  6
  6 25  1  0
  6 94  1  0
  6 95  1  0
  7  8  2  0
  7 26  1  0
  7 29  1  0
  8  9  1  0
  8 22  1  0
  9 10  1  0
  9 27  2  0
 10 11  2  0
 10 15  1  0
 11 12  1  0
 11 96  1  0
 12 13  2  0
 12 97  1  0
 13 14  1  0
 13 31  1  0
 14 15  2  0
 14 98  1  0
 15 99  1  0
 16 17  2  0
 16 21  1  0
 16 31  1  0
 17 18  1  0
 17100  1  0
 18 19  2  0
 18101  1  0
 19 20  1  0
 19 24  1  0
 20 21  2  0
 20102  1  0
 21 23  1  0
 22 28  1  0
 22 32  2  0
 26 27  1  0
 28103  1  0
 28104  1  0
 29105  1  0
 29106  1  0
 33 34  1  0
 33 66  1  0
 33 70  2  0
 34 36  1  0
 34 59  1  0
 34107  1  6
 35 44  2  0
 35 45  1  0
 35 68  1  0
 36 56  1  0
 36108  1  0
 37 39  1  0
 37 47  1  0
 37 66  1  0
 37109  1  6
 38 43  2  0
 38 46  1  0
 38 47  1  0
 39 64  1  0
 39 67  2  0
 40 52  1  0
 40 53  2  0
 40 58  1  0
 41110  1  0
 41111  1  0
 41112  1  0
 42 43  1  0
 42 66  1  0
 42113  1  0
 42114  1  0
 43 44  1  0
 44115  1  0
 45 46  2  0
 45116  1  0
 46117  1  0
 47118  1  0
 47119  1  0
 48 41  1  0
 48 56  1  0
 48 65  1  0
 48120  1  1
 49 50  1  0
 49 53  1  0
 49 64  1  0
 49121  1  1
 50 51  1  0
 50122  1  0
 50123  1  0
 51 52  1  0
 51124  1  0
 51125  1  0
 52126  1  0
 52127  1  0
 53 54  1  0
 54 55  2  0
 54128  1  0
 55 57  1  0
 55129  1  0
 56 69  2  0
 57 58  2  0
 57130  1  0
 58131  1  0
 59 60  1  0
 59 61  1  0
 59 62  1  0
 60132  1  0
 60133  1  0
 60134  1  0
 61135  1  0
 61136  1  0
 61137  1  0
 62138  1  0
 62139  1  0
 62140  1  0
 63 65  1  0
 63141  1  0
 63142  1  0
 63143  1  0
 64144  1  0
 65145  1  0
 68 82  1  0
 71 72  2  0
 71 74  1  0
 71146  1  0
 72 75  1  0
 72147  1  0
 73 75  2  0
 73 76  1  0
 73148  1  0
 74 76  2  0
 74 81  1  0
 75 84  1  0
 76 86  1  0
 77 78  1  0
 77 83  1  0
 77 85  2  0
 78 79  1  0
 78149  1  0
 78150  1  0
 79 80  1  0
 79151  1  0
 79152  1  0
 80 82  1  0
 80 83  1  0
 80153  1  1
 81 83  1  0
 81154  1  0
 81155  1  0
 82156  1  0
 82157  1  0
 84158  1  0
M  ISO  4   1 100  68 101  82 101  84 100
M  END
$$$$
86
     RDKit          3D

154162  0  0  0  0  0  0  0  0999 V2000
  -30.7652  -14.3608   20.6636 C   0  0  0  0  0  0  0  0  0100  0  0
  -30.4392  -12.2669   19.3775 C   0  0  0  0  0  0  0  0  0101  0  0
  -29.4791  -12.5281   18.1977 C   0  0  0  0  0  0  0  0  0102  0  0
  -27.9985  -12.3963   18.6038 C   0  0  0  0  0  0  0  0  0103  0  0
  -27.6639  -13.2170   19.8820 C   0  0  2  0  0  0  0  0  0104  0  0
  -28.6795  -12.9602   21.0279 C   0  0  0  0  0  0  0  0  0105  0  0
  -25.2633  -13.8245   20.5754 C   0  0  0  0  0  0  0  0  0106  0  0
  -24.1645  -13.0409   20.9408 C   0  0  0  0  0  0  0  0  0107  0  0
  -24.6400  -11.7009   20.8697 C   0  0  0  0  0  0  0  0  0108  0  0
  -23.9005  -10.4085   21.0420 C   0  0  0  0  0  0  0  0  0109  0  0
  -24.3588   -9.4123   21.9123 C   0  0  0  0  0  0  0  0  0110  0  0
  -23.6296   -8.2350   22.0803 C   0  0  0  0  0  0  0  0  0111  0  0
  -22.4385   -8.0419   21.3657 C   0  0  0  0  0  0  0  0  0112  0  0
  -22.0103   -9.0167   20.4678 C   0  0  0  0  0  0  0  0  0113  0  0
  -22.7317  -10.1925   20.3102 C   0  0  0  0  0  0  0  0  0114  0  0
  -21.6857   -6.0709   22.5391 C   0  0  0  0  0  0  0  0  0115  0  0
  -21.4064   -6.5490   23.8264 C   0  0  0  0  0  0  0  0  0116  0  0
  -21.3635   -5.6677   24.9085 C   0  0  0  0  0  0  0  0  0117  0  0
  -21.5973   -4.3067   24.7088 C   0  0  0  0  0  0  0  0  0118  0  0
  -21.8700   -3.8284   23.4282 C   0  0  0  0  0  0  0  0  0119  0  0
  -21.9144   -4.7056   22.3460 C   0  0  0  0  0  0  0  0  0120  0  0
  -22.8194  -13.5263   21.1763 C   0  0  0  0  0  0  0  0  0121  0  0
  -22.1559   -4.2206   21.1063 F   0  0  0  0  0  0  0  0  0122  0  0
  -21.5628   -3.4510   25.7555 F   0  0  0  0  0  0  0  0  0123  0  0
  -30.0261  -13.1803   20.4553 N   0  0  0  0  0  0  0  0  0124  0  0
  -26.2911  -12.9356   20.3443 N   0  0  0  0  0  0  0  0  0125  0  0
  -25.9236  -11.6675   20.5847 N   0  0  0  0  0  0  0  0  0126  0  0
  -22.0708  -12.7905   22.0005 N   0  0  0  0  0  0  0  0  0127  0  0
  -25.4117  -15.1773   20.4097 N   0  0  0  0  0  0  0  0  0128  0  0
  -31.7916  -14.6724   20.0536 O   0  0  0  0  0  0  0  0  0129  0  0
  -21.6670   -6.9022   21.4423 O   0  0  0  0  0  0  0  0  0130  0  0
  -22.3946  -14.5564   20.6568 O   0  0  0  0  0  0  0  0  0131  0  0
  -24.6048  -31.8614   23.2223 C   0  0  0  0  0  0  0  0  0100  0  0
  -25.8822  -32.4841   23.8616 C   0  0  1  0  0  0  0  0  0101  0  0
  -27.2536  -27.5042   20.1156 C   0  0  0  0  0  0  0  0  0102  0  0
  -25.5726  -33.8762   24.2210 N   0  0  0  0  0  0  0  0  0103  0  0
  -23.4066  -30.4859   21.5461 C   0  0  2  0  0  0  0  0  0104  0  0
  -24.8467  -28.9636   20.1247 C   0  0  0  0  0  0  0  0  0105  0  0
  -22.7412  -29.4652   22.5052 C   0  0  0  0  0  0  0  0  0106  0  0
  -18.0167  -28.1302   22.8626 C   0  0  0  0  0  0  0  0  0107  0  0
  -24.1342  -36.7390   23.2568 C   0  0  0  0  0  0  0  0  0108  0  0
  -25.9141  -30.8882   21.3456 C   0  0  0  0  0  0  0  0  0109  0  0
  -25.9930  -29.5029   20.7208 C   0  0  0  0  0  0  0  0  0110  0  0
  -27.1758  -28.7612   20.7331 C   0  0  0  0  0  0  0  0  0111  0  0
  -26.1032  -26.9836   19.5230 C   0  0  0  0  0  0  0  0  0112  0  0
  -24.9097  -27.7011   19.5331 C   0  0  0  0  0  0  0  0  0113  0  0
  -23.5715  -29.7899   20.1582 C   0  0  0  0  0  0  0  0  0114  0  0
  -25.3990  -36.3212   24.0232 C   0  0  1  0  0  0  0  0  0115  0  0
  -20.5793  -28.3813   23.1004 C   0  0  2  0  0  0  0  0  0116  0  0
  -20.6548  -26.9392   22.5411 C   0  0  0  0  0  0  0  0  0117  0  0
  -19.5615  -26.6407   21.5143 C   0  0  0  0  0  0  0  0  0118  0  0
  -18.1797  -26.7818   22.1673 C   0  0  0  0  0  0  0  0  0119  0  0
  -19.1385  -28.8769   23.2988 C   0  0  0  0  0  0  0  0  0120  0  0
  -18.9183  -30.1286   23.8878 C   0  0  0  0  0  0  0  0  0121  0  0
  -17.6396  -30.6493   24.0352 C   0  0  0  0  0  0  0  0  0122  0  0
  -25.9153  -34.9582   23.4993 C   0  0  0  0  0  0  0  0  0123  0  0
  -16.5415  -29.9068   23.6254 C   0  0  0  0  0  0  0  0  0124  0  0
  -16.7331  -28.6521   23.0586 C   0  0  0  0  0  0  0  0  0125  0  0
  -26.4583  -31.6439   25.0683 C   0  0  0  0  0  0  0  0  0126  0  0
  -25.3807  -31.3179   26.1374 C   0  0  0  0  0  0  0  0  0127  0  0
  -27.0530  -30.3024   24.5680 C   0  0  0  0  0  0  0  0  0128  0  0
  -27.6014  -32.4281   25.7651 C   0  0  0  0  0  0  0  0  0129  0  0
  -27.5629  -37.2220   24.8621 C   0  0  0  0  0  0  0  0  0130  0  0
  -21.4133  -29.3375   22.3735 N   0  0  0  0  0  0  0  0  0131  0  0
  -26.4706  -37.3372   23.9061 N   0  0  0  0  0  0  0  0  0132  0  0
  -24.6674  -31.0544   22.1178 N   0  0  0  0  0  0  0  0  0133  0  0
  -23.4259  -28.8150   23.2971 O   0  0  0  0  0  0  0  0  0134  0  0
  -28.3948  -26.7345   20.0089 O   0  0  0  0  0  0  0  0  0135  0  0
  -26.5870  -34.9065   22.4671 O   0  0  0  0  0  0  0  0  0136  0  0
  -23.5365  -32.1254   23.7833 O   0  0  0  0  0  0  0  0  0137  0  0
  -31.1293  -18.0164   22.0650 C   0  0  0  0  0  0  0  0  0  0  0  0
  -32.7855  -19.7533   21.8995 C   0  0  0  0  0  0  0  0  0  0  0  0
  -31.8610  -17.1785   21.3139 C   0  0  0  0  0  0  0  0  0  0  0  0
  -31.5994  -19.3498   22.3732 C   0  0  0  0  0  0  0  0  0  0  0  0
  -33.1891  -17.6282   20.7835 C   0  0  0  0  0  0  0  0  0  0  0  0
  -30.7999  -21.5448   23.0326 C   0  0  0  0  0  0  0  0  0  0  0  0
  -29.8264  -22.1666   24.0198 C   0  0  0  0  0  0  0  0  0  0  0  0
  -29.7889  -23.6876   23.9233 C   0  0  0  0  0  0  0  0  0  0  0  0
  -28.7736  -24.2873   24.8852 C   0  0  0  0  0  0  0  0  0  1  0  0
  -33.5575  -18.9200   21.1286 N   0  0  0  0  0  0  0  0  0  0  0  0
  -30.8152  -20.1598   23.1407 N   0  0  0  0  0  0  0  0  0  0  0  0
  -31.4433  -15.9143   21.0057 N   0  0  0  0  0  0  0  0  0  0  0  0
  -33.8852  -16.8869   20.0933 O   0  0  0  0  0  0  0  0  0  0  0  0
  -31.4751  -22.2082   22.2495 O   0  0  0  0  0  0  0  0  0  0  0  0
  -31.4485  -12.4701   19.0860 H   0  0  0  0  0  0  0  0  0  0  0  0
  -30.3970  -11.2460   19.6950 H   0  0  0  0  0  0  0  0  0  0  0  0
  -29.6870  -11.8204   17.4226 H   0  0  0  0  0  0  0  0  0  0  0  0
  -29.6375  -13.5326   17.8649 H   0  0  0  0  0  0  0  0  0  0  0  0
  -27.7830  -11.3650   18.7904 H   0  0  0  0  0  0  0  0  0  0  0  0
  -27.4028  -12.7801   17.8021 H   0  0  0  0  0  0  0  0  0  0  0  0
  -27.7353  -14.2503   19.6136 H   0  0  0  0  0  0  0  0  0  0  0  0
  -28.5890  -11.9550   21.3832 H   0  0  0  0  0  0  0  0  0  0  0  0
  -28.5005  -13.6134   21.8562 H   0  0  0  0  0  0  0  0  0  0  0  0
  -25.2399   -9.5495   22.4318 H   0  0  0  0  0  0  0  0  0  0  0  0
  -23.9663   -7.5070   22.7297 H   0  0  0  0  0  0  0  0  0  0  0  0
  -21.1515   -8.8641   19.9162 H   0  0  0  0  0  0  0  0  0  0  0  0
  -22.4016  -10.9115   19.6476 H   0  0  0  0  0  0  0  0  0  0  0  0
  -21.2319   -7.5552   23.9750 H   0  0  0  0  0  0  0  0  0  0  0  0
  -21.1589   -6.0228   25.8556 H   0  0  0  0  0  0  0  0  0  0  0  0
  -22.0396   -2.8212   23.2809 H   0  0  0  0  0  0  0  0  0  0  0  0
  -22.4401  -11.9703   22.4008 H   0  0  0  0  0  0  0  0  0  0  0  0
  -21.1493  -13.0679   22.2082 H   0  0  0  0  0  0  0  0  0  0  0  0
  -24.6538  -15.7807   20.5848 H   0  0  0  0  0  0  0  0  0  0  0  0
  -26.2762  -15.5453   20.1156 H   0  0  0  0  0  0  0  0  0  0  0  0
  -26.6778  -32.4663   23.1464 H   0  0  0  0  0  0  0  0  0  0  0  0
  -25.0747  -34.0282   25.0566 H   0  0  0  0  0  0  0  0  0  0  0  0
  -22.7881  -31.3489   21.4131 H   0  0  0  0  0  0  0  0  0  0  0  0
  -23.3854  -35.9823   23.3648 H   0  0  0  0  0  0  0  0  0  0  0  0
  -24.3696  -36.8624   22.2204 H   0  0  0  0  0  0  0  0  0  0  0  0
  -23.7669  -37.6632   23.6516 H   0  0  0  0  0  0  0  0  0  0  0  0
  -25.9445  -31.6237   20.5691 H   0  0  0  0  0  0  0  0  0  0  0  0
  -26.7436  -31.0079   22.0108 H   0  0  0  0  0  0  0  0  0  0  0  0
  -28.0090  -29.1452   21.2057 H   0  0  0  0  0  0  0  0  0  0  0  0
  -26.1369  -26.0560   19.0719 H   0  0  0  0  0  0  0  0  0  0  0  0
  -24.0652  -27.2961   19.0997 H   0  0  0  0  0  0  0  0  0  0  0  0
  -23.6156  -30.5365   19.3930 H   0  0  0  0  0  0  0  0  0  0  0  0
  -22.7355  -29.1425   19.9945 H   0  0  0  0  0  0  0  0  0  0  0  0
  -25.1353  -36.2335   25.0565 H   0  0  0  0  0  0  0  0  0  0  0  0
  -21.0070  -28.3206   24.0793 H   0  0  0  0  0  0  0  0  0  0  0  0
  -20.5555  -26.2518   23.3550 H   0  0  0  0  0  0  0  0  0  0  0  0
  -21.5974  -26.8362   22.0454 H   0  0  0  0  0  0  0  0  0  0  0  0
  -19.6810  -25.6422   21.1488 H   0  0  0  0  0  0  0  0  0  0  0  0
  -19.6406  -27.3343   20.7034 H   0  0  0  0  0  0  0  0  0  0  0  0
  -17.4282  -26.6888   21.4113 H   0  0  0  0  0  0  0  0  0  0  0  0
  -18.0803  -26.0130   22.9049 H   0  0  0  0  0  0  0  0  0  0  0  0
  -19.7265  -30.6774   24.2204 H   0  0  0  0  0  0  0  0  0  0  0  0
  -17.5064  -31.5856   24.4483 H   0  0  0  0  0  0  0  0  0  0  0  0
  -15.5878  -30.2839   23.7407 H   0  0  0  0  0  0  0  0  0  0  0  0
  -15.9120  -28.0941   22.7766 H   0  0  0  0  0  0  0  0  0  0  0  0
  -24.5787  -30.7757   25.6817 H   0  0  0  0  0  0  0  0  0  0  0  0
  -25.0041  -32.2289   26.5536 H   0  0  0  0  0  0  0  0  0  0  0  0
  -25.8166  -30.7245   26.9138 H   0  0  0  0  0  0  0  0  0  0  0  0
  -26.2892  -29.7335   24.0803 H   0  0  0  0  0  0  0  0  0  0  0  0
  -27.4336  -29.7484   25.4006 H   0  0  0  0  0  0  0  0  0  0  0  0
  -27.8466  -30.4994   23.8779 H   0  0  0  0  0  0  0  0  0  0  0  0
  -27.2251  -33.3632   26.1242 H   0  0  0  0  0  0  0  0  0  0  0  0
  -28.3902  -32.6065   25.0645 H   0  0  0  0  0  0  0  0  0  0  0  0
  -27.9772  -31.8555   26.5872 H   0  0  0  0  0  0  0  0  0  0  0  0
  -28.2744  -38.0016   24.6863 H   0  0  0  0  0  0  0  0  0  0  0  0
  -28.0396  -36.2711   24.7461 H   0  0  0  0  0  0  0  0  0  0  0  0
  -27.1773  -37.3087   25.8564 H   0  0  0  0  0  0  0  0  0  0  0  0
  -20.9627  -29.9365   21.7352 H   0  0  0  0  0  0  0  0  0  0  0  0
  -26.0447  -38.2561   24.0273 H   0  0  0  0  0  0  0  0  0  0  0  0
  -30.2155  -17.7042   22.4291 H   0  0  0  0  0  0  0  0  0  0  0  0
  -33.1237  -20.7037   22.1170 H   0  0  0  0  0  0  0  0  0  0  0  0
  -30.1213  -21.8928   25.0112 H   0  0  0  0  0  0  0  0  0  0  0  0
  -28.8482  -21.8017   23.7855 H   0  0  0  0  0  0  0  0  0  0  0  0
  -29.5260  -23.9654   22.9240 H   0  0  0  0  0  0  0  0  0  0  0  0
  -30.7568  -24.0625   24.1832 H   0  0  0  0  0  0  0  0  0  0  0  0
  -29.1375  -24.8607   25.7121 H   0  0  0  0  0  0  0  0  0  0  0  0
  -28.0236  -23.8162   25.4856 H   0  0  0  0  0  0  0  0  0  0  0  0
  -34.4222  -19.2588   20.8020 H   0  0  0  0  0  0  0  0  0  0  0  0
  -30.2269  -19.7394   23.8089 H   0  0  0  0  0  0  0  0  0  0  0  0
  -32.3429  -15.6369   20.7178 H   0  0  0  0  0  0  0  0  0  0  0  0
  1 25  1  0
  1 30  2  0
  1 82  1  0
  2  3  1  0
  2 25  1  0
  2 85  1  0
  2 86  1  0
  3  4  1  0
  3 87  1  0
  3 88  1  0
  4  5  1  0
  4 89  1  0
  4 90  1  0
  5  6  1  0
  5 26  1  0
  5 91  1  6
  6 25  1  0
  6 92  1  0
  6 93  1  0
  7  8  2  0
  7 26  1  0
  7 29  1  0
  8  9  1  0
  8 22  1  0
  9 10  1  0
  9 27  2  0
 10 11  2  0
 10 15  1  0
 11 12  1  0
 11 94  1  0
 12 13  2  0
 12 95  1  0
 13 14  1  0
 13 31  1  0
 14 15  2  0
 14 96  1  0
 15 97  1  0
 16 17  2  0
 16 21  1  0
 16 31  1  0
 17 18  1  0
 17 98  1  0
 18 19  2  0
 18 99  1  0
 19 20  1  0
 19 24  1  0
 20 21  2  0
 20100  1  0
 21 23  1  0
 22 28  1  0
 22 32  2  0
 26 27  1  0
 28101  1  0
 28102  1  0
 29103  1  0
 29104  1  0
 33 34  1  0
 33 66  1  0
 33 70  2  0
 34 36  1  0
 34 59  1  0
 34105  1  6
 35 44  2  0
 35 45  1  0
 35 68  1  0
 36 56  1  0
 36106  1  0
 37 39  1  0
 37 47  1  0
 37 66  1  0
 37107  1  6
 38 43  2  0
 38 46  1  0
 38 47  1  0
 39 64  1  0
 39 67  2  0
 40 52  1  0
 40 53  2  0
 40 58  1  0
 41108  1  0
 41109  1  0
 41110  1  0
 42 43  1  0
 42 66  1  0
 42111  1  0
 42112  1  0
 43 44  1  0
 44113  1  0
 45 46  2  0
 45114  1  0
 46115  1  0
 47116  1  0
 47117  1  0
 48 41  1  0
 48 56  1  0
 48 65  1  0
 48118  1  1
 49 50  1  0
 49 53  1  0
 49 64  1  0
 49119  1  1
 50 51  1  0
 50120  1  0
 50121  1  0
 51 52  1  0
 51122  1  0
 51123  1  0
 52124  1  0
 52125  1  0
 53 54  1  0
 54 55  2  0
 54126  1  0
 55 57  1  0
 55127  1  0
 56 69  2  0
 57 58  2  0
 57128  1  0
 58129  1  0
 59 60  1  0
 59 61  1  0
 59 62  1  0
 60130  1  0
 60131  1  0
 60132  1  0
 61133  1  0
 61134  1  0
 61135  1  0
 62136  1  0
 62137  1  0
 62138  1  0
 63 65  1  0
 63139  1  0
 63140  1  0
 63141  1  0
 64142  1  0
 65143  1  0
 68 79  1  0
 71 73  2  0
 71 74  1  0
 71144  1  0
 72 74  2  0
 72 80  1  0
 72145  1  0
 73 75  1  0
 73 82  1  0
 74 81  1  0
 75 80  1  0
 75 83  2  0
 76 77  1  0
 76 81  1  0
 76 84  2  0
 77 78  1  0
 77146  1  0
 77147  1  0
 78 79  1  0
 78148  1  0
 78149  1  0
 79150  1  0
 79151  1  0
 80152  1  0
 81153  1  0
 82154  1  0
M  ISO  4   1 100  68 101  79 101  82 100
M  END
$$$$
87
     RDKit          3D

161170  0  0  0  0  0  0  0  0999 V2000
  -30.7652  -14.3608   20.6636 C   0  0  0  0  0  0  0  0  0100  0  0
  -30.4392  -12.2669   19.3775 C   0  0  0  0  0  0  0  0  0101  0  0
  -29.4791  -12.5281   18.1977 C   0  0  0  0  0  0  0  0  0102  0  0
  -27.9985  -12.3963   18.6038 C   0  0  0  0  0  0  0  0  0103  0  0
  -27.6639  -13.2170   19.8820 C   0  0  2  0  0  0  0  0  0104  0  0
  -28.6795  -12.9602   21.0279 C   0  0  0  0  0  0  0  0  0105  0  0
  -25.2633  -13.8245   20.5754 C   0  0  0  0  0  0  0  0  0106  0  0
  -24.1645  -13.0409   20.9408 C   0  0  0  0  0  0  0  0  0107  0  0
  -24.6400  -11.7009   20.8697 C   0  0  0  0  0  0  0  0  0108  0  0
  -23.9005  -10.4085   21.0420 C   0  0  0  0  0  0  0  0  0109  0  0
  -24.3588   -9.4123   21.9123 C   0  0  0  0  0  0  0  0  0110  0  0
  -23.6296   -8.2350   22.0803 C   0  0  0  0  0  0  0  0  0111  0  0
  -22.4385   -8.0419   21.3657 C   0  0  0  0  0  0  0  0  0112  0  0
  -22.0103   -9.0167   20.4678 C   0  0  0  0  0  0  0  0  0113  0  0
  -22.7317  -10.1925   20.3102 C   0  0  0  0  0  0  0  0  0114  0  0
  -21.6857   -6.0709   22.5391 C   0  0  0  0  0  0  0  0  0115  0  0
  -21.4064   -6.5490   23.8264 C   0  0  0  0  0  0  0  0  0116  0  0
  -21.3635   -5.6677   24.9085 C   0  0  0  0  0  0  0  0  0117  0  0
  -21.5973   -4.3067   24.7088 C   0  0  0  0  0  0  0  0  0118  0  0
  -21.8700   -3.8284   23.4282 C   0  0  0  0  0  0  0  0  0119  0  0
  -21.9144   -4.7056   22.3460 C   0  0  0  0  0  0  0  0  0120  0  0
  -22.8194  -13.5263   21.1763 C   0  0  0  0  0  0  0  0  0121  0  0
  -22.1559   -4.2206   21.1063 F   0  0  0  0  0  0  0  0  0122  0  0
  -21.5628   -3.4510   25.7555 F   0  0  0  0  0  0  0  0  0123  0  0
  -30.0261  -13.1803   20.4553 N   0  0  0  0  0  0  0  0  0124  0  0
  -26.2911  -12.9356   20.3443 N   0  0  0  0  0  0  0  0  0125  0  0
  -25.9236  -11.6675   20.5847 N   0  0  0  0  0  0  0  0  0126  0  0
  -22.0708  -12.7905   22.0005 N   0  0  0  0  0  0  0  0  0127  0  0
  -25.4117  -15.1773   20.4097 N   0  0  0  0  0  0  0  0  0128  0  0
  -31.7916  -14.6724   20.0536 O   0  0  0  0  0  0  0  0  0129  0  0
  -21.6670   -6.9022   21.4423 O   0  0  0  0  0  0  0  0  0130  0  0
  -22.3946  -14.5564   20.6568 O   0  0  0  0  0  0  0  0  0131  0  0
  -24.6048  -31.8614   23.2223 C   0  0  0  0  0  0  0  0  0100  0  0
  -25.8822  -32.4841   23.8616 C   0  0  1  0  0  0  0  0  0101  0  0
  -27.2536  -27.5042   20.1156 C   0  0  0  0  0  0  0  0  0102  0  0
  -25.5726  -33.8762   24.2210 N   0  0  0  0  0  0  0  0  0103  0  0
  -23.4066  -30.4859   21.5461 C   0  0  2  0  0  0  0  0  0104  0  0
  -24.8467  -28.9636   20.1247 C   0  0  0  0  0  0  0  0  0105  0  0
  -22.7412  -29.4652   22.5052 C   0  0  0  0  0  0  0  0  0106  0  0
  -18.0167  -28.1302   22.8626 C   0  0  0  0  0  0  0  0  0107  0  0
  -24.1342  -36.7390   23.2568 C   0  0  0  0  0  0  0  0  0108  0  0
  -25.9141  -30.8882   21.3456 C   0  0  0  0  0  0  0  0  0109  0  0
  -25.9930  -29.5029   20.7208 C   0  0  0  0  0  0  0  0  0110  0  0
  -27.1758  -28.7612   20.7331 C   0  0  0  0  0  0  0  0  0111  0  0
  -26.1032  -26.9836   19.5230 C   0  0  0  0  0  0  0  0  0112  0  0
  -24.9097  -27.7011   19.5331 C   0  0  0  0  0  0  0  0  0113  0  0
  -23.5715  -29.7899   20.1582 C   0  0  0  0  0  0  0  0  0114  0  0
  -25.3990  -36.3212   24.0232 C   0  0  1  0  0  0  0  0  0115  0  0
  -20.5793  -28.3813   23.1004 C   0  0  2  0  0  0  0  0  0116  0  0
  -20.6548  -26.9392   22.5411 C   0  0  0  0  0  0  0  0  0117  0  0
  -19.5615  -26.6407   21.5143 C   0  0  0  0  0  0  0  0  0118  0  0
  -18.1797  -26.7818   22.1673 C   0  0  0  0  0  0  0  0  0119  0  0
  -19.1385  -28.8769   23.2988 C   0  0  0  0  0  0  0  0  0120  0  0
  -18.9183  -30.1286   23.8878 C   0  0  0  0  0  0  0  0  0121  0  0
  -17.6396  -30.6493   24.0352 C   0  0  0  0  0  0  0  0  0122  0  0
  -25.9153  -34.9582   23.4993 C   0  0  0  0  0  0  0  0  0123  0  0
  -16.5415  -29.9068   23.6254 C   0  0  0  0  0  0  0  0  0124  0  0
  -16.7331  -28.6521   23.0586 C   0  0  0  0  0  0  0  0  0125  0  0
  -26.4583  -31.6439   25.0683 C   0  0  0  0  0  0  0  0  0126  0  0
  -25.3807  -31.3179   26.1374 C   0  0  0  0  0  0  0  0  0127  0  0
  -27.0530  -30.3024   24.5680 C   0  0  0  0  0  0  0  0  0128  0  0
  -27.6014  -32.4281   25.7651 C   0  0  0  0  0  0  0  0  0129  0  0
  -27.5629  -37.2220   24.8621 C   0  0  0  0  0  0  0  0  0130  0  0
  -21.4133  -29.3375   22.3735 N   0  0  0  0  0  0  0  0  0131  0  0
  -26.4706  -37.3372   23.9061 N   0  0  0  0  0  0  0  0  0132  0  0
  -24.6674  -31.0544   22.1178 N   0  0  0  0  0  0  0  0  0133  0  0
  -23.4259  -28.8150   23.2971 O   0  0  0  0  0  0  0  0  0134  0  0
  -28.3948  -26.7345   20.0089 O   0  0  0  0  0  0  0  0  0135  0  0
  -26.5870  -34.9065   22.4671 O   0  0  0  0  0  0  0  0  0136  0  0
  -23.5365  -32.1254   23.7833 O   0  0  0  0  0  0  0  0  0137  0  0
  -31.9041  -18.9236   22.5036 C   0  0  0  0  0  0  0  0  0  0  0  0
  -31.4453  -17.8008   21.8150 C   0  0  0  0  0  0  0  0  0  0  0  0
  -29.6235  -19.6371   22.8597 C   0  0  0  0  0  0  0  0  0  0  0  0
  -30.9932  -19.8418   23.0260 C   0  0  0  0  0  0  0  0  0  0  0  0
  -30.0756  -17.5961   21.6487 C   0  0  0  0  0  0  0  0  0  0  0  0
  -29.1647  -18.5142   22.1711 C   0  0  0  0  0  0  0  0  0  0  0  0
  -32.7016  -21.5829   23.4259 C   0  0  0  0  0  0  0  0  0  0  0  0
  -33.2828  -22.5559   24.1443 C   0  0  0  0  0  0  0  0  0  0  0  0
  -30.6989  -21.5426   24.8016 C   0  0  0  0  0  0  0  0  0  0  0  0
  -32.5987  -23.1209   25.3489 C   0  0  0  0  0  0  0  0  0  0  0  0
  -31.0964  -22.9410   25.2392 C   0  0  0  0  0  0  0  0  0  0  0  0
  -34.6330  -23.1103   23.8060 C   0  0  0  0  0  0  0  0  0  0  0  0
  -34.5486  -24.3175   22.8816 C   0  0  0  0  0  0  0  0  0  1  0  0
  -31.4705  -21.0087   23.7420 N   0  0  0  0  0  0  0  0  0  0  0  0
  -27.7730  -18.3262   22.0144 N   0  0  0  0  0  0  0  0  0  0  0  0
  -29.6337  -16.4479   20.9457 N   0  0  0  0  0  0  0  0  0  0  0  0
  -29.7365  -20.9984   25.3460 O   0  0  0  0  0  0  0  0  0  0  0  0
  -31.4485  -12.4701   19.0860 H   0  0  0  0  0  0  0  0  0  0  0  0
  -30.3970  -11.2460   19.6950 H   0  0  0  0  0  0  0  0  0  0  0  0
  -29.6870  -11.8204   17.4226 H   0  0  0  0  0  0  0  0  0  0  0  0
  -29.6375  -13.5326   17.8649 H   0  0  0  0  0  0  0  0  0  0  0  0
  -27.7830  -11.3650   18.7904 H   0  0  0  0  0  0  0  0  0  0  0  0
  -27.4028  -12.7801   17.8021 H   0  0  0  0  0  0  0  0  0  0  0  0
  -27.7353  -14.2503   19.6136 H   0  0  0  0  0  0  0  0  0  0  0  0
  -28.5890  -11.9550   21.3832 H   0  0  0  0  0  0  0  0  0  0  0  0
  -28.5005  -13.6134   21.8562 H   0  0  0  0  0  0  0  0  0  0  0  0
  -25.2399   -9.5495   22.4318 H   0  0  0  0  0  0  0  0  0  0  0  0
  -23.9663   -7.5070   22.7297 H   0  0  0  0  0  0  0  0  0  0  0  0
  -21.1515   -8.8641   19.9162 H   0  0  0  0  0  0  0  0  0  0  0  0
  -22.4016  -10.9115   19.6476 H   0  0  0  0  0  0  0  0  0  0  0  0
  -21.2319   -7.5552   23.9750 H   0  0  0  0  0  0  0  0  0  0  0  0
  -21.1589   -6.0228   25.8556 H   0  0  0  0  0  0  0  0  0  0  0  0
  -22.0396   -2.8212   23.2809 H   0  0  0  0  0  0  0  0  0  0  0  0
  -22.4401  -11.9703   22.4008 H   0  0  0  0  0  0  0  0  0  0  0  0
  -21.1493  -13.0679   22.2082 H   0  0  0  0  0  0  0  0  0  0  0  0
  -24.6538  -15.7807   20.5848 H   0  0  0  0  0  0  0  0  0  0  0  0
  -26.2762  -15.5453   20.1156 H   0  0  0  0  0  0  0  0  0  0  0  0
  -26.6778  -32.4663   23.1464 H   0  0  0  0  0  0  0  0  0  0  0  0
  -25.0747  -34.0282   25.0566 H   0  0  0  0  0  0  0  0  0  0  0  0
  -22.7881  -31.3489   21.4131 H   0  0  0  0  0  0  0  0  0  0  0  0
  -23.3854  -35.9823   23.3648 H   0  0  0  0  0  0  0  0  0  0  0  0
  -24.3696  -36.8624   22.2204 H   0  0  0  0  0  0  0  0  0  0  0  0
  -23.7669  -37.6632   23.6516 H   0  0  0  0  0  0  0  0  0  0  0  0
  -25.9445  -31.6237   20.5691 H   0  0  0  0  0  0  0  0  0  0  0  0
  -26.7436  -31.0079   22.0108 H   0  0  0  0  0  0  0  0  0  0  0  0
  -28.0090  -29.1452   21.2057 H   0  0  0  0  0  0  0  0  0  0  0  0
  -26.1369  -26.0560   19.0719 H   0  0  0  0  0  0  0  0  0  0  0  0
  -24.0652  -27.2961   19.0997 H   0  0  0  0  0  0  0  0  0  0  0  0
  -23.6156  -30.5365   19.3930 H   0  0  0  0  0  0  0  0  0  0  0  0
  -22.7355  -29.1425   19.9945 H   0  0  0  0  0  0  0  0  0  0  0  0
  -25.1353  -36.2335   25.0565 H   0  0  0  0  0  0  0  0  0  0  0  0
  -21.0070  -28.3206   24.0793 H   0  0  0  0  0  0  0  0  0  0  0  0
  -20.5555  -26.2518   23.3550 H   0  0  0  0  0  0  0  0  0  0  0  0
  -21.5974  -26.8362   22.0454 H   0  0  0  0  0  0  0  0  0  0  0  0
  -19.6810  -25.6422   21.1488 H   0  0  0  0  0  0  0  0  0  0  0  0
  -19.6406  -27.3343   20.7034 H   0  0  0  0  0  0  0  0  0  0  0  0
  -17.4282  -26.6888   21.4113 H   0  0  0  0  0  0  0  0  0  0  0  0
  -18.0803  -26.0130   22.9049 H   0  0  0  0  0  0  0  0  0  0  0  0
  -19.7265  -30.6774   24.2204 H   0  0  0  0  0  0  0  0  0  0  0  0
  -17.5064  -31.5856   24.4483 H   0  0  0  0  0  0  0  0  0  0  0  0
  -15.5878  -30.2839   23.7407 H   0  0  0  0  0  0  0  0  0  0  0  0
  -15.9120  -28.0941   22.7766 H   0  0  0  0  0  0  0  0  0  0  0  0
  -24.5787  -30.7757   25.6817 H   0  0  0  0  0  0  0  0  0  0  0  0
  -25.0041  -32.2289   26.5536 H   0  0  0  0  0  0  0  0  0  0  0  0
  -25.8166  -30.7245   26.9138 H   0  0  0  0  0  0  0  0  0  0  0  0
  -26.2892  -29.7335   24.0803 H   0  0  0  0  0  0  0  0  0  0  0  0
  -27.4336  -29.7484   25.4006 H   0  0  0  0  0  0  0  0  0  0  0  0
  -27.8466  -30.4994   23.8779 H   0  0  0  0  0  0  0  0  0  0  0  0
  -27.2251  -33.3632   26.1242 H   0  0  0  0  0  0  0  0  0  0  0  0
  -28.3902  -32.6065   25.0645 H   0  0  0  0  0  0  0  0  0  0  0  0
  -27.9772  -31.8555   26.5872 H   0  0  0  0  0  0  0  0  0  0  0  0
  -28.2744  -38.0016   24.6863 H   0  0  0  0  0  0  0  0  0  0  0  0
  -28.0396  -36.2711   24.7461 H   0  0  0  0  0  0  0  0  0  0  0  0
  -27.1773  -37.3087   25.8564 H   0  0  0  0  0  0  0  0  0  0  0  0
  -20.9627  -29.9365   21.7352 H   0  0  0  0  0  0  0  0  0  0  0  0
  -26.0447  -38.2561   24.0273 H   0  0  0  0  0  0  0  0  0  0  0  0
  -32.9175  -19.0751   22.6266 H   0  0  0  0  0  0  0  0  0  0  0  0
  -32.1192  -17.1215   21.4285 H   0  0  0  0  0  0  0  0  0  0  0  0
  -28.9496  -20.3164   23.2461 H   0  0  0  0  0  0  0  0  0  0  0  0
  -33.1959  -21.2383   22.5881 H   0  0  0  0  0  0  0  0  0  0  0  0
  -32.8239  -24.1642   25.4249 H   0  0  0  0  0  0  0  0  0  0  0  0
  -32.9467  -22.6044   26.2189 H   0  0  0  0  0  0  0  0  0  0  0  0
  -30.6584  -23.1368   26.1956 H   0  0  0  0  0  0  0  0  0  0  0  0
  -30.7451  -23.6228   24.4931 H   0  0  0  0  0  0  0  0  0  0  0  0
  -35.2070  -22.3471   23.3233 H   0  0  0  0  0  0  0  0  0  0  0  0
  -35.0933  -23.4286   24.7179 H   0  0  0  0  0  0  0  0  0  0  0  0
  -35.1894  -24.0960   22.0538 H   0  0  0  0  0  0  0  0  0  0  0  0
  -34.7871  -25.1121   23.5574 H   0  0  0  0  0  0  0  0  0  0  0  0
  -27.1423  -18.9830   22.3888 H   0  0  0  0  0  0  0  0  0  0  0  0
  -27.4341  -17.5385   21.5309 H   0  0  0  0  0  0  0  0  0  0  0  0
  -28.7490  -16.5185   20.5196 H   0  0  0  0  0  0  0  0  0  0  0  0
  1 25  1  0
  1 30  2  0
  1 86  1  0
  2  3  1  0
  2 25  1  0
  2 88  1  0
  2 89  1  0
  3  4  1  0
  3 90  1  0
  3 91  1  0
  4  5  1  0
  4 92  1  0
  4 93  1  0
  5  6  1  0
  5 26  1  0
  5 94  1  6
  6 25  1  0
  6 95  1  0
  6 96  1  0
  7  8  2  0
  7 26  1  0
  7 29  1  0
  8  9  1  0
  8 22  1  0
  9 10  1  0
  9 27  2  0
 10 11  2  0
 10 15  1  0
 11 12  1  0
 11 97  1  0
 12 13  2  0
 12 98  1  0
 13 14  1  0
 13 31  1  0
 14 15  2  0
 14 99  1  0
 15100  1  0
 16 17  2  0
 16 21  1  0
 16 31  1  0
 17 18  1  0
 17101  1  0
 18 19  2  0
 18102  1  0
 19 20  1  0
 19 24  1  0
 20 21  2  0
 20103  1  0
 21 23  1  0
 22 28  1  0
 22 32  2  0
 26 27  1  0
 28104  1  0
 28105  1  0
 29106  1  0
 29107  1  0
 33 34  1  0
 33 66  1  0
 33 70  2  0
 34 36  1  0
 34 59  1  0
 34108  1  6
 35 44  2  0
 35 45  1  0
 35 68  1  0
 36 56  1  0
 36109  1  0
 37 39  1  0
 37 47  1  0
 37 66  1  0
 37110  1  6
 38 43  2  0
 38 46  1  0
 38 47  1  0
 39 64  1  0
 39 67  2  0
 40 52  1  0
 40 53  2  0
 40 58  1  0
 41111  1  0
 41112  1  0
 41113  1  0
 42 43  1  0
 42 66  1  0
 42114  1  0
 42115  1  0
 43 44  1  0
 44116  1  0
 45 46  2  0
 45117  1  0
 46118  1  0
 47119  1  0
 47120  1  0
 48 41  1  0
 48 56  1  0
 48 65  1  0
 48121  1  1
 49 50  1  0
 49 53  1  0
 49 64  1  0
 49122  1  1
 50 51  1  0
 50123  1  0
 50124  1  0
 51 52  1  0
 51125  1  0
 51126  1  0
 52127  1  0
 52128  1  0
 53 54  1  0
 54 55  2  0
 54129  1  0
 55 57  1  0
 55130  1  0
 56 69  2  0
 57 58  2  0
 57131  1  0
 58132  1  0
 59 60  1  0
 59 61  1  0
 59 62  1  0
 60133  1  0
 60134  1  0
 60135  1  0
 61136  1  0
 61137  1  0
 61138  1  0
 62139  1  0
 62140  1  0
 62141  1  0
 63 65  1  0
 63142  1  0
 63143  1  0
 63144  1  0
 64145  1  0
 65146  1  0
 68 83  1  0
 71 72  2  0
 71 74  1  0
 71147  1  0
 72 75  1  0
 72148  1  0
 73 74  2  0
 73 76  1  0
 73149  1  0
 74 84  1  0
 75 76  2  0
 75 86  1  0
 76 85  1  0
 77 78  2  0
 77 84  1  0
 77150  1  0
 78 80  1  0
 78 82  1  0
 79 81  1  0
 79 84  1  0
 79 87  2  0
 80 81  1  0
 80151  1  0
 80152  1  0
 81153  1  0
 81154  1  0
 82 83  1  0
 82155  1  0
 82156  1  0
 83157  1  0
 83158  1  0
 85159  1  0
 85160  1  0
 86161  1  0
M  ISO  4   1 100  68 101  83 101  86 100
M  END
$$$$
88
     RDKit          3D

161170  0  0  0  0  0  0  0  0999 V2000
  -30.7652  -14.3608   20.6636 C   0  0  0  0  0  0  0  0  0100  0  0
  -30.4392  -12.2669   19.3775 C   0  0  0  0  0  0  0  0  0101  0  0
  -29.4791  -12.5281   18.1977 C   0  0  0  0  0  0  0  0  0102  0  0
  -27.9985  -12.3963   18.6038 C   0  0  0  0  0  0  0  0  0103  0  0
  -27.6639  -13.2170   19.8820 C   0  0  2  0  0  0  0  0  0104  0  0
  -28.6795  -12.9602   21.0279 C   0  0  0  0  0  0  0  0  0105  0  0
  -25.2633  -13.8245   20.5754 C   0  0  0  0  0  0  0  0  0106  0  0
  -24.1645  -13.0409   20.9408 C   0  0  0  0  0  0  0  0  0107  0  0
  -24.6400  -11.7009   20.8697 C   0  0  0  0  0  0  0  0  0108  0  0
  -23.9005  -10.4085   21.0420 C   0  0  0  0  0  0  0  0  0109  0  0
  -24.3588   -9.4123   21.9123 C   0  0  0  0  0  0  0  0  0110  0  0
  -23.6296   -8.2350   22.0803 C   0  0  0  0  0  0  0  0  0111  0  0
  -22.4385   -8.0419   21.3657 C   0  0  0  0  0  0  0  0  0112  0  0
  -22.0103   -9.0167   20.4678 C   0  0  0  0  0  0  0  0  0113  0  0
  -22.7317  -10.1925   20.3102 C   0  0  0  0  0  0  0  0  0114  0  0
  -21.6857   -6.0709   22.5391 C   0  0  0  0  0  0  0  0  0115  0  0
  -21.4064   -6.5490   23.8264 C   0  0  0  0  0  0  0  0  0116  0  0
  -21.3635   -5.6677   24.9085 C   0  0  0  0  0  0  0  0  0117  0  0
  -21.5973   -4.3067   24.7088 C   0  0  0  0  0  0  0  0  0118  0  0
  -21.8700   -3.8284   23.4282 C   0  0  0  0  0  0  0  0  0119  0  0
  -21.9144   -4.7056   22.3460 C   0  0  0  0  0  0  0  0  0120  0  0
  -22.8194  -13.5263   21.1763 C   0  0  0  0  0  0  0  0  0121  0  0
  -22.1559   -4.2206   21.1063 F   0  0  0  0  0  0  0  0  0122  0  0
  -21.5628   -3.4510   25.7555 F   0  0  0  0  0  0  0  0  0123  0  0
  -30.0261  -13.1803   20.4553 N   0  0  0  0  0  0  0  0  0124  0  0
  -26.2911  -12.9356   20.3443 N   0  0  0  0  0  0  0  0  0125  0  0
  -25.9236  -11.6675   20.5847 N   0  0  0  0  0  0  0  0  0126  0  0
  -22.0708  -12.7905   22.0005 N   0  0  0  0  0  0  0  0  0127  0  0
  -25.4117  -15.1773   20.4097 N   0  0  0  0  0  0  0  0  0128  0  0
  -31.7916  -14.6724   20.0536 O   0  0  0  0  0  0  0  0  0129  0  0
  -21.6670   -6.9022   21.4423 O   0  0  0  0  0  0  0  0  0130  0  0
  -22.3946  -14.5564   20.6568 O   0  0  0  0  0  0  0  0  0131  0  0
  -24.6048  -31.8614   23.2223 C   0  0  0  0  0  0  0  0  0100  0  0
  -25.8822  -32.4841   23.8616 C   0  0  1  0  0  0  0  0  0101  0  0
  -27.2536  -27.5042   20.1156 C   0  0  0  0  0  0  0  0  0102  0  0
  -25.5726  -33.8762   24.2210 N   0  0  0  0  0  0  0  0  0103  0  0
  -23.4066  -30.4859   21.5461 C   0  0  2  0  0  0  0  0  0104  0  0
  -24.8467  -28.9636   20.1247 C   0  0  0  0  0  0  0  0  0105  0  0
  -22.7412  -29.4652   22.5052 C   0  0  0  0  0  0  0  0  0106  0  0
  -18.0167  -28.1302   22.8626 C   0  0  0  0  0  0  0  0  0107  0  0
  -24.1342  -36.7390   23.2568 C   0  0  0  0  0  0  0  0  0108  0  0
  -25.9141  -30.8882   21.3456 C   0  0  0  0  0  0  0  0  0109  0  0
  -25.9930  -29.5029   20.7208 C   0  0  0  0  0  0  0  0  0110  0  0
  -27.1758  -28.7612   20.7331 C   0  0  0  0  0  0  0  0  0111  0  0
  -26.1032  -26.9836   19.5230 C   0  0  0  0  0  0  0  0  0112  0  0
  -24.9097  -27.7011   19.5331 C   0  0  0  0  0  0  0  0  0113  0  0
  -23.5715  -29.7899   20.1582 C   0  0  0  0  0  0  0  0  0114  0  0
  -25.3990  -36.3212   24.0232 C   0  0  1  0  0  0  0  0  0115  0  0
  -20.5793  -28.3813   23.1004 C   0  0  2  0  0  0  0  0  0116  0  0
  -20.6548  -26.9392   22.5411 C   0  0  0  0  0  0  0  0  0117  0  0
  -19.5615  -26.6407   21.5143 C   0  0  0  0  0  0  0  0  0118  0  0
  -18.1797  -26.7818   22.1673 C   0  0  0  0  0  0  0  0  0119  0  0
  -19.1385  -28.8769   23.2988 C   0  0  0  0  0  0  0  0  0120  0  0
  -18.9183  -30.1286   23.8878 C   0  0  0  0  0  0  0  0  0121  0  0
  -17.6396  -30.6493   24.0352 C   0  0  0  0  0  0  0  0  0122  0  0
  -25.9153  -34.9582   23.4993 C   0  0  0  0  0  0  0  0  0123  0  0
  -16.5415  -29.9068   23.6254 C   0  0  0  0  0  0  0  0  0124  0  0
  -16.7331  -28.6521   23.0586 C   0  0  0  0  0  0  0  0  0125  0  0
  -26.4583  -31.6439   25.0683 C   0  0  0  0  0  0  0  0  0126  0  0
  -25.3807  -31.3179   26.1374 C   0  0  0  0  0  0  0  0  0127  0  0
  -27.0530  -30.3024   24.5680 C   0  0  0  0  0  0  0  0  0128  0  0
  -27.6014  -32.4281   25.7651 C   0  0  0  0  0  0  0  0  0129  0  0
  -27.5629  -37.2220   24.8621 C   0  0  0  0  0  0  0  0  0130  0  0
  -21.4133  -29.3375   22.3735 N   0  0  0  0  0  0  0  0  0131  0  0
  -26.4706  -37.3372   23.9061 N   0  0  0  0  0  0  0  0  0132  0  0
  -24.6674  -31.0544   22.1178 N   0  0  0  0  0  0  0  0  0133  0  0
  -23.4259  -28.8150   23.2971 O   0  0  0  0  0  0  0  0  0134  0  0
  -28.3948  -26.7345   20.0089 O   0  0  0  0  0  0  0  0  0135  0  0
  -26.5870  -34.9065   22.4671 O   0  0  0  0  0  0  0  0  0136  0  0
  -23.5365  -32.1254   23.7833 O   0  0  0  0  0  0  0  0  0137  0  0
  -28.7188  -19.7978   19.7513 C   0  0  0  0  0  0  0  0  0  0  0  0
  -29.6541  -18.8104   22.1871 C   0  0  0  0  0  0  0  0  0  0  0  0
  -28.7262  -18.4236   19.9902 C   0  0  0  0  0  0  0  0  0  0  0  0
  -29.1791  -20.6783   20.7304 C   0  0  0  0  0  0  0  0  0  0  0  0
  -29.1939  -17.9299   21.2080 C   0  0  0  0  0  0  0  0  0  0  0  0
  -29.6467  -20.1846   21.9482 C   0  0  0  0  0  0  0  0  0  0  0  0
  -29.9007  -24.2310   20.0616 C   0  0  0  0  0  0  0  0  0  0  0  0
  -30.2713  -22.7628   19.8633 C   0  0  0  0  0  0  0  0  0  0  0  0
  -28.0400  -22.9134   20.7885 C   0  0  0  0  0  0  0  0  0  0  0  0
  -28.3750  -24.2109   20.0443 C   0  0  1  0  0  0  0  0  0  0  0  0
  -28.2270  -17.5035   18.9236 C   0  0  0  0  0  0  0  0  0  0  0  0
  -27.7525  -25.4433   20.6769 C   0  0  0  0  0  0  0  0  0  1  0  0
  -29.1633  -22.0330   20.4743 N   0  0  0  0  0  0  0  0  0  0  0  0
  -30.1167  -21.0590   22.9537 N   0  0  0  0  0  0  0  0  0  0  0  0
  -29.2077  -16.5374   21.4701 N   0  0  0  0  0  0  0  0  0  0  0  0
  -31.4485  -12.4701   19.0860 H   0  0  0  0  0  0  0  0  0  0  0  0
  -30.3970  -11.2460   19.6950 H   0  0  0  0  0  0  0  0  0  0  0  0
  -29.6870  -11.8204   17.4226 H   0  0  0  0  0  0  0  0  0  0  0  0
  -29.6375  -13.5326   17.8649 H   0  0  0  0  0  0  0  0  0  0  0  0
  -27.7830  -11.3650   18.7904 H   0  0  0  0  0  0  0  0  0  0  0  0
  -27.4028  -12.7801   17.8021 H   0  0  0  0  0  0  0  0  0  0  0  0
  -27.7353  -14.2503   19.6136 H   0  0  0  0  0  0  0  0  0  0  0  0
  -28.5890  -11.9550   21.3832 H   0  0  0  0  0  0  0  0  0  0  0  0
  -28.5005  -13.6134   21.8562 H   0  0  0  0  0  0  0  0  0  0  0  0
  -25.2399   -9.5495   22.4318 H   0  0  0  0  0  0  0  0  0  0  0  0
  -23.9663   -7.5070   22.7297 H   0  0  0  0  0  0  0  0  0  0  0  0
  -21.1515   -8.8641   19.9162 H   0  0  0  0  0  0  0  0  0  0  0  0
  -22.4016  -10.9115   19.6476 H   0  0  0  0  0  0  0  0  0  0  0  0
  -21.2319   -7.5552   23.9750 H   0  0  0  0  0  0  0  0  0  0  0  0
  -21.1589   -6.0228   25.8556 H   0  0  0  0  0  0  0  0  0  0  0  0
  -22.0396   -2.8212   23.2809 H   0  0  0  0  0  0  0  0  0  0  0  0
  -22.4401  -11.9703   22.4008 H   0  0  0  0  0  0  0  0  0  0  0  0
  -21.1493  -13.0679   22.2082 H   0  0  0  0  0  0  0  0  0  0  0  0
  -24.6538  -15.7807   20.5848 H   0  0  0  0  0  0  0  0  0  0  0  0
  -26.2762  -15.5453   20.1156 H   0  0  0  0  0  0  0  0  0  0  0  0
  -26.6778  -32.4663   23.1464 H   0  0  0  0  0  0  0  0  0  0  0  0
  -25.0747  -34.0282   25.0566 H   0  0  0  0  0  0  0  0  0  0  0  0
  -22.7881  -31.3489   21.4131 H   0  0  0  0  0  0  0  0  0  0  0  0
  -23.3854  -35.9823   23.3648 H   0  0  0  0  0  0  0  0  0  0  0  0
  -24.3696  -36.8624   22.2204 H   0  0  0  0  0  0  0  0  0  0  0  0
  -23.7669  -37.6632   23.6516 H   0  0  0  0  0  0  0  0  0  0  0  0
  -25.9445  -31.6237   20.5691 H   0  0  0  0  0  0  0  0  0  0  0  0
  -26.7436  -31.0079   22.0108 H   0  0  0  0  0  0  0  0  0  0  0  0
  -28.0090  -29.1452   21.2057 H   0  0  0  0  0  0  0  0  0  0  0  0
  -26.1369  -26.0560   19.0719 H   0  0  0  0  0  0  0  0  0  0  0  0
  -24.0652  -27.2961   19.0997 H   0  0  0  0  0  0  0  0  0  0  0  0
  -23.6156  -30.5365   19.3930 H   0  0  0  0  0  0  0  0  0  0  0  0
  -22.7355  -29.1425   19.9945 H   0  0  0  0  0  0  0  0  0  0  0  0
  -25.1353  -36.2335   25.0565 H   0  0  0  0  0  0  0  0  0  0  0  0
  -21.0070  -28.3206   24.0793 H   0  0  0  0  0  0  0  0  0  0  0  0
  -20.5555  -26.2518   23.3550 H   0  0  0  0  0  0  0  0  0  0  0  0
  -21.5974  -26.8362   22.0454 H   0  0  0  0  0  0  0  0  0  0  0  0
  -19.6810  -25.6422   21.1488 H   0  0  0  0  0  0  0  0  0  0  0  0
  -19.6406  -27.3343   20.7034 H   0  0  0  0  0  0  0  0  0  0  0  0
  -17.4282  -26.6888   21.4113 H   0  0  0  0  0  0  0  0  0  0  0  0
  -18.0803  -26.0130   22.9049 H   0  0  0  0  0  0  0  0  0  0  0  0
  -19.7265  -30.6774   24.2204 H   0  0  0  0  0  0  0  0  0  0  0  0
  -17.5064  -31.5856   24.4483 H   0  0  0  0  0  0  0  0  0  0  0  0
  -15.5878  -30.2839   23.7407 H   0  0  0  0  0  0  0  0  0  0  0  0
  -15.9120  -28.0941   22.7766 H   0  0  0  0  0  0  0  0  0  0  0  0
  -24.5787  -30.7757   25.6817 H   0  0  0  0  0  0  0  0  0  0  0  0
  -25.0041  -32.2289   26.5536 H   0  0  0  0  0  0  0  0  0  0  0  0
  -25.8166  -30.7245   26.9138 H   0  0  0  0  0  0  0  0  0  0  0  0
  -26.2892  -29.7335   24.0803 H   0  0  0  0  0  0  0  0  0  0  0  0
  -27.4336  -29.7484   25.4006 H   0  0  0  0  0  0  0  0  0  0  0  0
  -27.8466  -30.4994   23.8779 H   0  0  0  0  0  0  0  0  0  0  0  0
  -27.2251  -33.3632   26.1242 H   0  0  0  0  0  0  0  0  0  0  0  0
  -28.3902  -32.6065   25.0645 H   0  0  0  0  0  0  0  0  0  0  0  0
  -27.9772  -31.8555   26.5872 H   0  0  0  0  0  0  0  0  0  0  0  0
  -28.2744  -38.0016   24.6863 H   0  0  0  0  0  0  0  0  0  0  0  0
  -28.0396  -36.2711   24.7461 H   0  0  0  0  0  0  0  0  0  0  0  0
  -27.1773  -37.3087   25.8564 H   0  0  0  0  0  0  0  0  0  0  0  0
  -20.9627  -29.9365   21.7352 H   0  0  0  0  0  0  0  0  0  0  0  0
  -26.0447  -38.2561   24.0273 H   0  0  0  0  0  0  0  0  0  0  0  0
  -28.3728  -20.1631   18.8503 H   0  0  0  0  0  0  0  0  0  0  0  0
  -30.0000  -18.4451   23.0882 H   0  0  0  0  0  0  0  0  0  0  0  0
  -30.2855  -24.8346   19.2663 H   0  0  0  0  0  0  0  0  0  0  0  0
  -30.3047  -24.6481   20.9604 H   0  0  0  0  0  0  0  0  0  0  0  0
  -31.1941  -22.5338   20.3541 H   0  0  0  0  0  0  0  0  0  0  0  0
  -30.4132  -22.5094   18.8335 H   0  0  0  0  0  0  0  0  0  0  0  0
  -27.1194  -22.4979   20.4353 H   0  0  0  0  0  0  0  0  0  0  0  0
  -27.9106  -23.0606   21.8404 H   0  0  0  0  0  0  0  0  0  0  0  0
  -27.9720  -24.2346   19.0534 H   0  0  0  0  0  0  0  0  0  0  0  0
  -27.9163  -18.0765   18.0750 H   0  0  0  0  0  0  0  0  0  0  0  0
  -27.3971  -16.9411   19.2975 H   0  0  0  0  0  0  0  0  0  0  0  0
  -29.0102  -16.8342   18.6346 H   0  0  0  0  0  0  0  0  0  0  0  0
  -27.9480  -25.4464   21.7289 H   0  0  0  0  0  0  0  0  0  0  0  0
  -26.6939  -25.4392   20.5215 H   0  0  0  0  0  0  0  0  0  0  0  0
  -30.4438  -20.6959   23.8083 H   0  0  0  0  0  0  0  0  0  0  0  0
  -30.1171  -22.0314   22.7997 H   0  0  0  0  0  0  0  0  0  0  0  0
  -28.4910  -16.2703   22.0900 H   0  0  0  0  0  0  0  0  0  0  0  0
  1 25  1  0
  1 30  2  0
  1 85  1  0
  2  3  1  0
  2 25  1  0
  2 86  1  0
  2 87  1  0
  3  4  1  0
  3 88  1  0
  3 89  1  0
  4  5  1  0
  4 90  1  0
  4 91  1  0
  5  6  1  0
  5 26  1  0
  5 92  1  6
  6 25  1  0
  6 93  1  0
  6 94  1  0
  7  8  2  0
  7 26  1  0
  7 29  1  0
  8  9  1  0
  8 22  1  0
  9 10  1  0
  9 27  2  0
 10 11  2  0
 10 15  1  0
 11 12  1  0
 11 95  1  0
 12 13  2  0
 12 96  1  0
 13 14  1  0
 13 31  1  0
 14 15  2  0
 14 97  1  0
 15 98  1  0
 16 17  2  0
 16 21  1  0
 16 31  1  0
 17 18  1  0
 17 99  1  0
 18 19  2  0
 18100  1  0
 19 20  1  0
 19 24  1  0
 20 21  2  0
 20101  1  0
 21 23  1  0
 22 28  1  0
 22 32  2  0
 26 27  1  0
 28102  1  0
 28103  1  0
 29104  1  0
 29105  1  0
 33 34  1  0
 33 66  1  0
 33 70  2  0
 34 36  1  0
 34 59  1  0
 34106  1  6
 35 44  2  0
 35 45  1  0
 35 68  1  0
 36 56  1  0
 36107  1  0
 37 39  1  0
 37 47  1  0
 37 66  1  0
 37108  1  6
 38 43  2  0
 38 46  1  0
 38 47  1  0
 39 64  1  0
 39 67  2  0
 40 52  1  0
 40 53  2  0
 40 58  1  0
 41109  1  0
 41110  1  0
 41111  1  0
 42 43  1  0
 42 66  1  0
 42112  1  0
 42113  1  0
 43 44  1  0
 44114  1  0
 45 46  2  0
 45115  1  0
 46116  1  0
 47117  1  0
 47118  1  0
 48 41  1  0
 48 56  1  0
 48 65  1  0
 48119  1  1
 49 50  1  0
 49 53  1  0
 49 64  1  0
 49120  1  1
 50 51  1  0
 50121  1  0
 50122  1  0
 51 52  1  0
 51123  1  0
 51124  1  0
 52125  1  0
 52126  1  0
 53 54  1  0
 54 55  2  0
 54127  1  0
 55 57  1  0
 55128  1  0
 56 69  2  0
 57 58  2  0
 57129  1  0
 58130  1  0
 59 60  1  0
 59 61  1  0
 59 62  1  0
 60131  1  0
 60132  1  0
 60133  1  0
 61134  1  0
 61135  1  0
 61136  1  0
 62137  1  0
 62138  1  0
 62139  1  0
 63 65  1  0
 63140  1  0
 63141  1  0
 63142  1  0
 64143  1  0
 65144  1  0
 68 82  1  0
 71 73  2  0
 71 74  1  0
 71145  1  0
 72 75  2  0
 72 76  1  0
 72146  1  0
 73 75  1  0
 73 81  1  0
 74 76  2  0
 74 83  1  0
 75 85  1  0
 76 84  1  0
 77 78  1  0
 77 80  1  0
 77147  1  0
 77148  1  0
 78 83  1  0
 78149  1  0
 78150  1  0
 79 80  1  0
 79 83  1  0
 79151  1  0
 79152  1  0
 80 82  1  0
 80153  1  6
 81154  1  0
 81155  1  0
 81156  1  0
 82157  1  0
 82158  1  0
 84159  1  0
 84160  1  0
 85161  1  0
M  ISO  4   1 100  68 101  82 101  85 100
M  END
$$$$
89
     RDKit          3D

159167  0  0  0  0  0  0  0  0999 V2000
  -30.7652  -14.3608   20.6636 C   0  0  0  0  0  0  0  0  0100  0  0
  -30.4392  -12.2669   19.3775 C   0  0  0  0  0  0  0  0  0101  0  0
  -29.4791  -12.5281   18.1977 C   0  0  0  0  0  0  0  0  0102  0  0
  -27.9985  -12.3963   18.6038 C   0  0  0  0  0  0  0  0  0103  0  0
  -27.6639  -13.2170   19.8820 C   0  0  2  0  0  0  0  0  0104  0  0
  -28.6795  -12.9602   21.0279 C   0  0  0  0  0  0  0  0  0105  0  0
  -25.2633  -13.8245   20.5754 C   0  0  0  0  0  0  0  0  0106  0  0
  -24.1645  -13.0409   20.9408 C   0  0  0  0  0  0  0  0  0107  0  0
  -24.6400  -11.7009   20.8697 C   0  0  0  0  0  0  0  0  0108  0  0
  -23.9005  -10.4085   21.0420 C   0  0  0  0  0  0  0  0  0109  0  0
  -24.3588   -9.4123   21.9123 C   0  0  0  0  0  0  0  0  0110  0  0
  -23.6296   -8.2350   22.0803 C   0  0  0  0  0  0  0  0  0111  0  0
  -22.4385   -8.0419   21.3657 C   0  0  0  0  0  0  0  0  0112  0  0
  -22.0103   -9.0167   20.4678 C   0  0  0  0  0  0  0  0  0113  0  0
  -22.7317  -10.1925   20.3102 C   0  0  0  0  0  0  0  0  0114  0  0
  -21.6857   -6.0709   22.5391 C   0  0  0  0  0  0  0  0  0115  0  0
  -21.4064   -6.5490   23.8264 C   0  0  0  0  0  0  0  0  0116  0  0
  -21.3635   -5.6677   24.9085 C   0  0  0  0  0  0  0  0  0117  0  0
  -21.5973   -4.3067   24.7088 C   0  0  0  0  0  0  0  0  0118  0  0
  -21.8700   -3.8284   23.4282 C   0  0  0  0  0  0  0  0  0119  0  0
  -21.9144   -4.7056   22.3460 C   0  0  0  0  0  0  0  0  0120  0  0
  -22.8194  -13.5263   21.1763 C   0  0  0  0  0  0  0  0  0121  0  0
  -22.1559   -4.2206   21.1063 F   0  0  0  0  0  0  0  0  0122  0  0
  -21.5628   -3.4510   25.7555 F   0  0  0  0  0  0  0  0  0123  0  0
  -30.0261  -13.1803   20.4553 N   0  0  0  0  0  0  0  0  0124  0  0
  -26.2911  -12.9356   20.3443 N   0  0  0  0  0  0  0  0  0125  0  0
  -25.9236  -11.6675   20.5847 N   0  0  0  0  0  0  0  0  0126  0  0
  -22.0708  -12.7905   22.0005 N   0  0  0  0  0  0  0  0  0127  0  0
  -25.4117  -15.1773   20.4097 N   0  0  0  0  0  0  0  0  0128  0  0
  -31.7916  -14.6724   20.0536 O   0  0  0  0  0  0  0  0  0129  0  0
  -21.6670   -6.9022   21.4423 O   0  0  0  0  0  0  0  0  0130  0  0
  -22.3946  -14.5564   20.6568 O   0  0  0  0  0  0  0  0  0131  0  0
  -24.6048  -31.8614   23.2223 C   0  0  0  0  0  0  0  0  0100  0  0
  -25.8822  -32.4841   23.8616 C   0  0  1  0  0  0  0  0  0101  0  0
  -27.2536  -27.5042   20.1156 C   0  0  0  0  0  0  0  0  0102  0  0
  -25.5726  -33.8762   24.2210 N   0  0  0  0  0  0  0  0  0103  0  0
  -23.4066  -30.4859   21.5461 C   0  0  2  0  0  0  0  0  0104  0  0
  -24.8467  -28.9636   20.1247 C   0  0  0  0  0  0  0  0  0105  0  0
  -22.7412  -29.4652   22.5052 C   0  0  0  0  0  0  0  0  0106  0  0
  -18.0167  -28.1302   22.8626 C   0  0  0  0  0  0  0  0  0107  0  0
  -24.1342  -36.7390   23.2568 C   0  0  0  0  0  0  0  0  0108  0  0
  -25.9141  -30.8882   21.3456 C   0  0  0  0  0  0  0  0  0109  0  0
  -25.9930  -29.5029   20.7208 C   0  0  0  0  0  0  0  0  0110  0  0
  -27.1758  -28.7612   20.7331 C   0  0  0  0  0  0  0  0  0111  0  0
  -26.1032  -26.9836   19.5230 C   0  0  0  0  0  0  0  0  0112  0  0
  -24.9097  -27.7011   19.5331 C   0  0  0  0  0  0  0  0  0113  0  0
  -23.5715  -29.7899   20.1582 C   0  0  0  0  0  0  0  0  0114  0  0
  -25.3990  -36.3212   24.0232 C   0  0  1  0  0  0  0  0  0115  0  0
  -20.5793  -28.3813   23.1004 C   0  0  2  0  0  0  0  0  0116  0  0
  -20.6548  -26.9392   22.5411 C   0  0  0  0  0  0  0  0  0117  0  0
  -19.5615  -26.6407   21.5143 C   0  0  0  0  0  0  0  0  0118  0  0
  -18.1797  -26.7818   22.1673 C   0  0  0  0  0  0  0  0  0119  0  0
  -19.1385  -28.8769   23.2988 C   0  0  0  0  0  0  0  0  0120  0  0
  -18.9183  -30.1286   23.8878 C   0  0  0  0  0  0  0  0  0121  0  0
  -17.6396  -30.6493   24.0352 C   0  0  0  0  0  0  0  0  0122  0  0
  -25.9153  -34.9582   23.4993 C   0  0  0  0  0  0  0  0  0123  0  0
  -16.5415  -29.9068   23.6254 C   0  0  0  0  0  0  0  0  0124  0  0
  -16.7331  -28.6521   23.0586 C   0  0  0  0  0  0  0  0  0125  0  0
  -26.4583  -31.6439   25.0683 C   0  0  0  0  0  0  0  0  0126  0  0
  -25.3807  -31.3179   26.1374 C   0  0  0  0  0  0  0  0  0127  0  0
  -27.0530  -30.3024   24.5680 C   0  0  0  0  0  0  0  0  0128  0  0
  -27.6014  -32.4281   25.7651 C   0  0  0  0  0  0  0  0  0129  0  0
  -27.5629  -37.2220   24.8621 C   0  0  0  0  0  0  0  0  0130  0  0
  -21.4133  -29.3375   22.3735 N   0  0  0  0  0  0  0  0  0131  0  0
  -26.4706  -37.3372   23.9061 N   0  0  0  0  0  0  0  0  0132  0  0
  -24.6674  -31.0544   22.1178 N   0  0  0  0  0  0  0  0  0133  0  0
  -23.4259  -28.8150   23.2971 O   0  0  0  0  0  0  0  0  0134  0  0
  -28.3948  -26.7345   20.0089 O   0  0  0  0  0  0  0  0  0135  0  0
  -26.5870  -34.9065   22.4671 O   0  0  0  0  0  0  0  0  0136  0  0
  -23.5365  -32.1254   23.7833 O   0  0  0  0  0  0  0  0  0137  0  0
  -20.1266  -23.3792   22.7571 C   0  0  0  0  0  0  0  0  0  0  0  0
  -19.2183  -22.8979   20.1636 C   0  0  0  0  0  0  0  0  0  0  0  0
  -19.4139  -24.3644   22.0737 C   0  0  0  0  0  0  0  0  0  0  0  0
  -20.3852  -22.1533   22.1437 C   0  0  0  0  0  0  0  0  0  0  0  0
  -18.9597  -24.1238   20.7770 C   0  0  0  0  0  0  0  0  0  0  0  0
  -19.9310  -21.9127   20.8470 C   0  0  0  0  0  0  0  0  0  0  0  0
  -18.0514  -25.8294   23.4995 C   0  0  0  0  0  0  0  0  0  0  0  0
  -19.1591  -25.6559   22.7585 C   0  0  0  0  0  0  0  0  0  0  0  0
  -22.6690  -21.2271   22.7085 C   0  0  0  0  0  0  0  0  0  0  0  0
  -20.1853  -26.7522   22.6411 C   0  0  0  0  0  0  0  0  0  1  0  0
  -21.1516  -21.1160   22.8983 C   0  0  1  0  0  0  0  0  0  0  0  0
  -18.2366  -25.1050   20.0613 N   0  0  0  0  0  0  0  0  0  0  0  0
  -20.1842  -20.6743   20.2068 N   0  0  0  0  0  0  0  0  0  0  0  0
  -20.8809  -21.1349   24.3757 N   0  0  0  0  0  0  0  0  0  0  0  0
  -31.4485  -12.4701   19.0860 H   0  0  0  0  0  0  0  0  0  0  0  0
  -30.3970  -11.2460   19.6950 H   0  0  0  0  0  0  0  0  0  0  0  0
  -29.6870  -11.8204   17.4226 H   0  0  0  0  0  0  0  0  0  0  0  0
  -29.6375  -13.5326   17.8649 H   0  0  0  0  0  0  0  0  0  0  0  0
  -27.7830  -11.3650   18.7904 H   0  0  0  0  0  0  0  0  0  0  0  0
  -27.4028  -12.7801   17.8021 H   0  0  0  0  0  0  0  0  0  0  0  0
  -27.7353  -14.2503   19.6136 H   0  0  0  0  0  0  0  0  0  0  0  0
  -28.5890  -11.9550   21.3832 H   0  0  0  0  0  0  0  0  0  0  0  0
  -28.5005  -13.6134   21.8562 H   0  0  0  0  0  0  0  0  0  0  0  0
  -25.2399   -9.5495   22.4318 H   0  0  0  0  0  0  0  0  0  0  0  0
  -23.9663   -7.5070   22.7297 H   0  0  0  0  0  0  0  0  0  0  0  0
  -21.1515   -8.8641   19.9162 H   0  0  0  0  0  0  0  0  0  0  0  0
  -22.4016  -10.9115   19.6476 H   0  0  0  0  0  0  0  0  0  0  0  0
  -21.2319   -7.5552   23.9750 H   0  0  0  0  0  0  0  0  0  0  0  0
  -21.1589   -6.0228   25.8556 H   0  0  0  0  0  0  0  0  0  0  0  0
  -22.0396   -2.8212   23.2809 H   0  0  0  0  0  0  0  0  0  0  0  0
  -22.4401  -11.9703   22.4008 H   0  0  0  0  0  0  0  0  0  0  0  0
  -21.1493  -13.0679   22.2082 H   0  0  0  0  0  0  0  0  0  0  0  0
  -24.6538  -15.7807   20.5848 H   0  0  0  0  0  0  0  0  0  0  0  0
  -26.2762  -15.5453   20.1156 H   0  0  0  0  0  0  0  0  0  0  0  0
  -26.6778  -32.4663   23.1464 H   0  0  0  0  0  0  0  0  0  0  0  0
  -25.0747  -34.0282   25.0566 H   0  0  0  0  0  0  0  0  0  0  0  0
  -22.7881  -31.3489   21.4131 H   0  0  0  0  0  0  0  0  0  0  0  0
  -23.3854  -35.9823   23.3648 H   0  0  0  0  0  0  0  0  0  0  0  0
  -24.3696  -36.8624   22.2204 H   0  0  0  0  0  0  0  0  0  0  0  0
  -23.7669  -37.6632   23.6516 H   0  0  0  0  0  0  0  0  0  0  0  0
  -25.9445  -31.6237   20.5691 H   0  0  0  0  0  0  0  0  0  0  0  0
  -26.7436  -31.0079   22.0108 H   0  0  0  0  0  0  0  0  0  0  0  0
  -28.0090  -29.1452   21.2057 H   0  0  0  0  0  0  0  0  0  0  0  0
  -26.1369  -26.0560   19.0719 H   0  0  0  0  0  0  0  0  0  0  0  0
  -24.0652  -27.2961   19.0997 H   0  0  0  0  0  0  0  0  0  0  0  0
  -23.6156  -30.5365   19.3930 H   0  0  0  0  0  0  0  0  0  0  0  0
  -22.7355  -29.1425   19.9945 H   0  0  0  0  0  0  0  0  0  0  0  0
  -25.1353  -36.2335   25.0565 H   0  0  0  0  0  0  0  0  0  0  0  0
  -21.0070  -28.3206   24.0793 H   0  0  0  0  0  0  0  0  0  0  0  0
  -20.5555  -26.2518   23.3550 H   0  0  0  0  0  0  0  0  0  0  0  0
  -21.5974  -26.8362   22.0454 H   0  0  0  0  0  0  0  0  0  0  0  0
  -19.6810  -25.6422   21.1488 H   0  0  0  0  0  0  0  0  0  0  0  0
  -19.6406  -27.3343   20.7034 H   0  0  0  0  0  0  0  0  0  0  0  0
  -17.4282  -26.6888   21.4113 H   0  0  0  0  0  0  0  0  0  0  0  0
  -18.0803  -26.0130   22.9049 H   0  0  0  0  0  0  0  0  0  0  0  0
  -19.7265  -30.6774   24.2204 H   0  0  0  0  0  0  0  0  0  0  0  0
  -17.5064  -31.5856   24.4483 H   0  0  0  0  0  0  0  0  0  0  0  0
  -15.5878  -30.2839   23.7407 H   0  0  0  0  0  0  0  0  0  0  0  0
  -15.9120  -28.0941   22.7766 H   0  0  0  0  0  0  0  0  0  0  0  0
  -24.5787  -30.7757   25.6817 H   0  0  0  0  0  0  0  0  0  0  0  0
  -25.0041  -32.2289   26.5536 H   0  0  0  0  0  0  0  0  0  0  0  0
  -25.8166  -30.7245   26.9138 H   0  0  0  0  0  0  0  0  0  0  0  0
  -26.2892  -29.7335   24.0803 H   0  0  0  0  0  0  0  0  0  0  0  0
  -27.4336  -29.7484   25.4006 H   0  0  0  0  0  0  0  0  0  0  0  0
  -27.8466  -30.4994   23.8779 H   0  0  0  0  0  0  0  0  0  0  0  0
  -27.2251  -33.3632   26.1242 H   0  0  0  0  0  0  0  0  0  0  0  0
  -28.3902  -32.6065   25.0645 H   0  0  0  0  0  0  0  0  0  0  0  0
  -27.9772  -31.8555   26.5872 H   0  0  0  0  0  0  0  0  0  0  0  0
  -28.2744  -38.0016   24.6863 H   0  0  0  0  0  0  0  0  0  0  0  0
  -28.0396  -36.2711   24.7461 H   0  0  0  0  0  0  0  0  0  0  0  0
  -27.1773  -37.3087   25.8564 H   0  0  0  0  0  0  0  0  0  0  0  0
  -20.9627  -29.9365   21.7352 H   0  0  0  0  0  0  0  0  0  0  0  0
  -26.0447  -38.2561   24.0273 H   0  0  0  0  0  0  0  0  0  0  0  0
  -20.4626  -23.5572   23.7165 H   0  0  0  0  0  0  0  0  0  0  0  0
  -18.8823  -22.7199   19.2042 H   0  0  0  0  0  0  0  0  0  0  0  0
  -17.3553  -25.0710   23.5724 H   0  0  0  0  0  0  0  0  0  0  0  0
  -17.8969  -26.7211   23.9956 H   0  0  0  0  0  0  0  0  0  0  0  0
  -22.8995  -21.2167   21.6637 H   0  0  0  0  0  0  0  0  0  0  0  0
  -23.1499  -20.4003   23.1880 H   0  0  0  0  0  0  0  0  0  0  0  0
  -23.0166  -22.1418   23.1413 H   0  0  0  0  0  0  0  0  0  0  0  0
  -20.2410  -27.1505   23.6327 H   0  0  0  0  0  0  0  0  0  0  0  0
  -19.7784  -27.2028   21.7601 H   0  0  0  0  0  0  0  0  0  0  0  0
  -20.8014  -20.1958   22.4794 H   0  0  0  0  0  0  0  0  0  0  0  0
  -17.9241  -24.9168   19.1469 H   0  0  0  0  0  0  0  0  0  0  0  0
  -18.0454  -25.9766   20.4772 H   0  0  0  0  0  0  0  0  0  0  0  0
  -19.4507  -20.2835   19.6790 H   0  0  0  0  0  0  0  0  0  0  0  0
  -21.2159  -22.0132   24.7715 H   0  0  0  0  0  0  0  0  0  0  0  0
  -21.3653  -20.3550   24.8201 H   0  0  0  0  0  0  0  0  0  0  0  0
  -19.8776  -21.0493   24.5387 H   0  0  0  0  0  0  0  0  0  0  0  0
  1 25  1  0
  1 30  2  0
  1 83  1  0
  2  3  1  0
  2 25  1  0
  2 85  1  0
  2 86  1  0
  3  4  1  0
  3 87  1  0
  3 88  1  0
  4  5  1  0
  4 89  1  0
  4 90  1  0
  5  6  1  0
  5 26  1  0
  5 91  1  6
  6 25  1  0
  6 92  1  0
  6 93  1  0
  7  8  2  0
  7 26  1  0
  7 29  1  0
  8  9  1  0
  8 22  1  0
  9 10  1  0
  9 27  2  0
 10 11  2  0
 10 15  1  0
 11 12  1  0
 11 94  1  0
 12 13  2  0
 12 95  1  0
 13 14  1  0
 13 31  1  0
 14 15  2  0
 14 96  1  0
 15 97  1  0
 16 17  2  0
 16 21  1  0
 16 31  1  0
 17 18  1  0
 17 98  1  0
 18 19  2  0
 18 99  1  0
 19 20  1  0
 19 24  1  0
 20 21  2  0
 20100  1  0
 21 23  1  0
 22 28  1  0
 22 32  2  0
 26 27  1  0
 28101  1  0
 28102  1  0
 29103  1  0
 29104  1  0
 33 34  1  0
 33 66  1  0
 33 70  2  0
 34 36  1  0
 34 59  1  0
 34105  1  6
 35 44  2  0
 35 45  1  0
 35 68  1  0
 36 56  1  0
 36106  1  0
 37 39  1  0
 37 47  1  0
 37 66  1  0
 37107  1  6
 38 43  2  0
 38 46  1  0
 38 47  1  0
 39 64  1  0
 39 67  2  0
 40 52  1  0
 40 53  2  0
 40 58  1  0
 41108  1  0
 41109  1  0
 41110  1  0
 42 43  1  0
 42 66  1  0
 42111  1  0
 42112  1  0
 43 44  1  0
 44113  1  0
 45 46  2  0
 45114  1  0
 46115  1  0
 47116  1  0
 47117  1  0
 48 41  1  0
 48 56  1  0
 48 65  1  0
 48118  1  1
 49 50  1  0
 49 53  1  0
 49 64  1  0
 49119  1  1
 50 51  1  0
 50120  1  0
 50121  1  0
 51 52  1  0
 51122  1  0
 51123  1  0
 52124  1  0
 52125  1  0
 53 54  1  0
 54 55  2  0
 54126  1  0
 55 57  1  0
 55127  1  0
 56 69  2  0
 57 58  2  0
 57128  1  0
 58129  1  0
 59 60  1  0
 59 61  1  0
 59 62  1  0
 60130  1  0
 60131  1  0
 60132  1  0
 61133  1  0
 61134  1  0
 61135  1  0
 62136  1  0
 62137  1  0
 62138  1  0
 63 65  1  0
 63139  1  0
 63140  1  0
 63141  1  0
 64142  1  0
 65143  1  0
 68 80  1  0
 71 73  2  0
 71 74  1  0
 71144  1  0
 72 75  2  0
 72 76  1  0
 72145  1  0
 73 75  1  0
 73 78  1  0
 74 76  2  0
 74 81  1  0
 75 82  1  0
 76 83  1  0
 77 78  2  0
 77146  1  0
 77147  1  0
 78 80  1  0
 79148  1  0
 79149  1  0
 79150  1  0
 80151  1  0
 80152  1  0
 81 79  1  0
 81 84  1  0
 81153  1  6
 82154  1  0
 82155  1  0
 83156  1  0
 84157  1  0
 84158  1  0
 84159  1  0
M  CHG  1  84   1
M  ISO  4   1 100  68 101  80 101  83 100
M  END
$$$$
90
     RDKit          3D

158166  0  0  0  0  0  0  0  0999 V2000
  -30.7652  -14.3608   20.6636 C   0  0  0  0  0  0  0  0  0100  0  0
  -30.4392  -12.2669   19.3775 C   0  0  0  0  0  0  0  0  0101  0  0
  -29.4791  -12.5281   18.1977 C   0  0  0  0  0  0  0  0  0102  0  0
  -27.9985  -12.3963   18.6038 C   0  0  0  0  0  0  0  0  0103  0  0
  -27.6639  -13.2170   19.8820 C   0  0  2  0  0  0  0  0  0104  0  0
  -28.6795  -12.9602   21.0279 C   0  0  0  0  0  0  0  0  0105  0  0
  -25.2633  -13.8245   20.5754 C   0  0  0  0  0  0  0  0  0106  0  0
  -24.1645  -13.0409   20.9408 C   0  0  0  0  0  0  0  0  0107  0  0
  -24.6400  -11.7009   20.8697 C   0  0  0  0  0  0  0  0  0108  0  0
  -23.9005  -10.4085   21.0420 C   0  0  0  0  0  0  0  0  0109  0  0
  -24.3588   -9.4123   21.9123 C   0  0  0  0  0  0  0  0  0110  0  0
  -23.6296   -8.2350   22.0803 C   0  0  0  0  0  0  0  0  0111  0  0
  -22.4385   -8.0419   21.3657 C   0  0  0  0  0  0  0  0  0112  0  0
  -22.0103   -9.0167   20.4678 C   0  0  0  0  0  0  0  0  0113  0  0
  -22.7317  -10.1925   20.3102 C   0  0  0  0  0  0  0  0  0114  0  0
  -21.6857   -6.0709   22.5391 C   0  0  0  0  0  0  0  0  0115  0  0
  -21.4064   -6.5490   23.8264 C   0  0  0  0  0  0  0  0  0116  0  0
  -21.3635   -5.6677   24.9085 C   0  0  0  0  0  0  0  0  0117  0  0
  -21.5973   -4.3067   24.7088 C   0  0  0  0  0  0  0  0  0118  0  0
  -21.8700   -3.8284   23.4282 C   0  0  0  0  0  0  0  0  0119  0  0
  -21.9144   -4.7056   22.3460 C   0  0  0  0  0  0  0  0  0120  0  0
  -22.8194  -13.5263   21.1763 C   0  0  0  0  0  0  0  0  0121  0  0
  -22.1559   -4.2206   21.1063 F   0  0  0  0  0  0  0  0  0122  0  0
  -21.5628   -3.4510   25.7555 F   0  0  0  0  0  0  0  0  0123  0  0
  -30.0261  -13.1803   20.4553 N   0  0  0  0  0  0  0  0  0124  0  0
  -26.2911  -12.9356   20.3443 N   0  0  0  0  0  0  0  0  0125  0  0
  -25.9236  -11.6675   20.5847 N   0  0  0  0  0  0  0  0  0126  0  0
  -22.0708  -12.7905   22.0005 N   0  0  0  0  0  0  0  0  0127  0  0
  -25.4117  -15.1773   20.4097 N   0  0  0  0  0  0  0  0  0128  0  0
  -31.7916  -14.6724   20.0536 O   0  0  0  0  0  0  0  0  0129  0  0
  -21.6670   -6.9022   21.4423 O   0  0  0  0  0  0  0  0  0130  0  0
  -22.3946  -14.5564   20.6568 O   0  0  0  0  0  0  0  0  0131  0  0
  -24.6048  -31.8614   23.2223 C   0  0  0  0  0  0  0  0  0100  0  0
  -25.8822  -32.4841   23.8616 C   0  0  1  0  0  0  0  0  0101  0  0
  -27.2536  -27.5042   20.1156 C   0  0  0  0  0  0  0  0  0102  0  0
  -25.5726  -33.8762   24.2210 N   0  0  0  0  0  0  0  0  0103  0  0
  -23.4066  -30.4859   21.5461 C   0  0  2  0  0  0  0  0  0104  0  0
  -24.8467  -28.9636   20.1247 C   0  0  0  0  0  0  0  0  0105  0  0
  -22.7412  -29.4652   22.5052 C   0  0  0  0  0  0  0  0  0106  0  0
  -18.0167  -28.1302   22.8626 C   0  0  0  0  0  0  0  0  0107  0  0
  -24.1342  -36.7390   23.2568 C   0  0  0  0  0  0  0  0  0108  0  0
  -25.9141  -30.8882   21.3456 C   0  0  0  0  0  0  0  0  0109  0  0
  -25.9930  -29.5029   20.7208 C   0  0  0  0  0  0  0  0  0110  0  0
  -27.1758  -28.7612   20.7331 C   0  0  0  0  0  0  0  0  0111  0  0
  -26.1032  -26.9836   19.5230 C   0  0  0  0  0  0  0  0  0112  0  0
  -24.9097  -27.7011   19.5331 C   0  0  0  0  0  0  0  0  0113  0  0
  -23.5715  -29.7899   20.1582 C   0  0  0  0  0  0  0  0  0114  0  0
  -25.3990  -36.3212   24.0232 C   0  0  1  0  0  0  0  0  0115  0  0
  -20.5793  -28.3813   23.1004 C   0  0  2  0  0  0  0  0  0116  0  0
  -20.6548  -26.9392   22.5411 C   0  0  0  0  0  0  0  0  0117  0  0
  -19.5615  -26.6407   21.5143 C   0  0  0  0  0  0  0  0  0118  0  0
  -18.1797  -26.7818   22.1673 C   0  0  0  0  0  0  0  0  0119  0  0
  -19.1385  -28.8769   23.2988 C   0  0  0  0  0  0  0  0  0120  0  0
  -18.9183  -30.1286   23.8878 C   0  0  0  0  0  0  0  0  0121  0  0
  -17.6396  -30.6493   24.0352 C   0  0  0  0  0  0  0  0  0122  0  0
  -25.9153  -34.9582   23.4993 C   0  0  0  0  0  0  0  0  0123  0  0
  -16.5415  -29.9068   23.6254 C   0  0  0  0  0  0  0  0  0124  0  0
  -16.7331  -28.6521   23.0586 C   0  0  0  0  0  0  0  0  0125  0  0
  -26.4583  -31.6439   25.0683 C   0  0  0  0  0  0  0  0  0126  0  0
  -25.3807  -31.3179   26.1374 C   0  0  0  0  0  0  0  0  0127  0  0
  -27.0530  -30.3024   24.5680 C   0  0  0  0  0  0  0  0  0128  0  0
  -27.6014  -32.4281   25.7651 C   0  0  0  0  0  0  0  0  0129  0  0
  -27.5629  -37.2220   24.8621 C   0  0  0  0  0  0  0  0  0130  0  0
  -21.4133  -29.3375   22.3735 N   0  0  0  0  0  0  0  0  0131  0  0
  -26.4706  -37.3372   23.9061 N   0  0  0  0  0  0  0  0  0132  0  0
  -24.6674  -31.0544   22.1178 N   0  0  0  0  0  0  0  0  0133  0  0
  -23.4259  -28.8150   23.2971 O   0  0  0  0  0  0  0  0  0134  0  0
  -28.3948  -26.7345   20.0089 O   0  0  0  0  0  0  0  0  0135  0  0
  -26.5870  -34.9065   22.4671 O   0  0  0  0  0  0  0  0  0136  0  0
  -23.5365  -32.1254   23.7833 O   0  0  0  0  0  0  0  0  0137  0  0
  -29.5564  -18.8132   22.0874 C   0  0  0  0  0  0  0  0  0  0  0  0
  -29.0573  -18.2763   24.7792 C   0  0  0  0  0  0  0  0  0  0  0  0
  -30.0907  -17.6698   22.6812 C   0  0  0  0  0  0  0  0  0  0  0  0
  -29.8412  -17.4013   24.0270 C   0  0  0  0  0  0  0  0  0  0  0  0
  -28.5231  -19.4198   24.1854 C   0  0  0  0  0  0  0  0  0  0  0  0
  -28.7726  -19.6883   22.8395 C   0  0  0  0  0  0  0  0  0  0  0  0
  -29.0591  -21.9822   22.2811 C   0  0  0  0  0  0  0  0  0  0  0  0
  -30.9270  -16.7501   21.8519 C   0  0  0  0  0  0  0  0  0  0  0  0
  -27.4489  -20.0695   26.3417 C   0  0  0  0  0  0  0  0  0  0  0  0
  -26.5929  -21.2056   26.8761 C   0  0  0  0  0  0  0  0  0  1  0  0
  -30.3747  -16.2487   24.6448 N   0  0  0  0  0  0  0  0  0  0  0  0
  -27.7479  -20.2813   24.9439 N   0  0  0  0  0  0  0  0  0  0  0  0
  -30.2154  -15.5467   21.4828 N   0  0  0  0  0  0  0  0  0  0  0  0
  -28.2610  -20.8013   22.2418 O   0  0  0  0  0  0  0  0  0  0  0  0
  -31.4485  -12.4701   19.0860 H   0  0  0  0  0  0  0  0  0  0  0  0
  -30.3970  -11.2460   19.6950 H   0  0  0  0  0  0  0  0  0  0  0  0
  -29.6870  -11.8204   17.4226 H   0  0  0  0  0  0  0  0  0  0  0  0
  -29.6375  -13.5326   17.8649 H   0  0  0  0  0  0  0  0  0  0  0  0
  -27.7830  -11.3650   18.7904 H   0  0  0  0  0  0  0  0  0  0  0  0
  -27.4028  -12.7801   17.8021 H   0  0  0  0  0  0  0  0  0  0  0  0
  -27.7353  -14.2503   19.6136 H   0  0  0  0  0  0  0  0  0  0  0  0
  -28.5890  -11.9550   21.3832 H   0  0  0  0  0  0  0  0  0  0  0  0
  -28.5005  -13.6134   21.8562 H   0  0  0  0  0  0  0  0  0  0  0  0
  -25.2399   -9.5495   22.4318 H   0  0  0  0  0  0  0  0  0  0  0  0
  -23.9663   -7.5070   22.7297 H   0  0  0  0  0  0  0  0  0  0  0  0
  -21.1515   -8.8641   19.9162 H   0  0  0  0  0  0  0  0  0  0  0  0
  -22.4016  -10.9115   19.6476 H   0  0  0  0  0  0  0  0  0  0  0  0
  -21.2319   -7.5552   23.9750 H   0  0  0  0  0  0  0  0  0  0  0  0
  -21.1589   -6.0228   25.8556 H   0  0  0  0  0  0  0  0  0  0  0  0
  -22.0396   -2.8212   23.2809 H   0  0  0  0  0  0  0  0  0  0  0  0
  -22.4401  -11.9703   22.4008 H   0  0  0  0  0  0  0  0  0  0  0  0
  -21.1493  -13.0679   22.2082 H   0  0  0  0  0  0  0  0  0  0  0  0
  -24.6538  -15.7807   20.5848 H   0  0  0  0  0  0  0  0  0  0  0  0
  -26.2762  -15.5453   20.1156 H   0  0  0  0  0  0  0  0  0  0  0  0
  -26.6778  -32.4663   23.1464 H   0  0  0  0  0  0  0  0  0  0  0  0
  -25.0747  -34.0282   25.0566 H   0  0  0  0  0  0  0  0  0  0  0  0
  -22.7881  -31.3489   21.4131 H   0  0  0  0  0  0  0  0  0  0  0  0
  -23.3854  -35.9823   23.3648 H   0  0  0  0  0  0  0  0  0  0  0  0
  -24.3696  -36.8624   22.2204 H   0  0  0  0  0  0  0  0  0  0  0  0
  -23.7669  -37.6632   23.6516 H   0  0  0  0  0  0  0  0  0  0  0  0
  -25.9445  -31.6237   20.5691 H   0  0  0  0  0  0  0  0  0  0  0  0
  -26.7436  -31.0079   22.0108 H   0  0  0  0  0  0  0  0  0  0  0  0
  -28.0090  -29.1452   21.2057 H   0  0  0  0  0  0  0  0  0  0  0  0
  -26.1369  -26.0560   19.0719 H   0  0  0  0  0  0  0  0  0  0  0  0
  -24.0652  -27.2961   19.0997 H   0  0  0  0  0  0  0  0  0  0  0  0
  -23.6156  -30.5365   19.3930 H   0  0  0  0  0  0  0  0  0  0  0  0
  -22.7355  -29.1425   19.9945 H   0  0  0  0  0  0  0  0  0  0  0  0
  -25.1353  -36.2335   25.0565 H   0  0  0  0  0  0  0  0  0  0  0  0
  -21.0070  -28.3206   24.0793 H   0  0  0  0  0  0  0  0  0  0  0  0
  -20.5555  -26.2518   23.3550 H   0  0  0  0  0  0  0  0  0  0  0  0
  -21.5974  -26.8362   22.0454 H   0  0  0  0  0  0  0  0  0  0  0  0
  -19.6810  -25.6422   21.1488 H   0  0  0  0  0  0  0  0  0  0  0  0
  -19.6406  -27.3343   20.7034 H   0  0  0  0  0  0  0  0  0  0  0  0
  -17.4282  -26.6888   21.4113 H   0  0  0  0  0  0  0  0  0  0  0  0
  -18.0803  -26.0130   22.9049 H   0  0  0  0  0  0  0  0  0  0  0  0
  -19.7265  -30.6774   24.2204 H   0  0  0  0  0  0  0  0  0  0  0  0
  -17.5064  -31.5856   24.4483 H   0  0  0  0  0  0  0  0  0  0  0  0
  -15.5878  -30.2839   23.7407 H   0  0  0  0  0  0  0  0  0  0  0  0
  -15.9120  -28.0941   22.7766 H   0  0  0  0  0  0  0  0  0  0  0  0
  -24.5787  -30.7757   25.6817 H   0  0  0  0  0  0  0  0  0  0  0  0
  -25.0041  -32.2289   26.5536 H   0  0  0  0  0  0  0  0  0  0  0  0
  -25.8166  -30.7245   26.9138 H   0  0  0  0  0  0  0  0  0  0  0  0
  -26.2892  -29.7335   24.0803 H   0  0  0  0  0  0  0  0  0  0  0  0
  -27.4336  -29.7484   25.4006 H   0  0  0  0  0  0  0  0  0  0  0  0
  -27.8466  -30.4994   23.8779 H   0  0  0  0  0  0  0  0  0  0  0  0
  -27.2251  -33.3632   26.1242 H   0  0  0  0  0  0  0  0  0  0  0  0
  -28.3902  -32.6065   25.0645 H   0  0  0  0  0  0  0  0  0  0  0  0
  -27.9772  -31.8555   26.5872 H   0  0  0  0  0  0  0  0  0  0  0  0
  -28.2744  -38.0016   24.6863 H   0  0  0  0  0  0  0  0  0  0  0  0
  -28.0396  -36.2711   24.7461 H   0  0  0  0  0  0  0  0  0  0  0  0
  -27.1773  -37.3087   25.8564 H   0  0  0  0  0  0  0  0  0  0  0  0
  -20.9627  -29.9365   21.7352 H   0  0  0  0  0  0  0  0  0  0  0  0
  -26.0447  -38.2561   24.0273 H   0  0  0  0  0  0  0  0  0  0  0  0
  -29.7409  -19.0118   21.0916 H   0  0  0  0  0  0  0  0  0  0  0  0
  -28.8726  -18.0776   25.7749 H   0  0  0  0  0  0  0  0  0  0  0  0
  -28.5459  -22.7763   21.7802 H   0  0  0  0  0  0  0  0  0  0  0  0
  -29.9934  -21.7977   21.7932 H   0  0  0  0  0  0  0  0  0  0  0  0
  -29.2369  -22.2588   23.2993 H   0  0  0  0  0  0  0  0  0  0  0  0
  -31.7974  -16.4776   22.4113 H   0  0  0  0  0  0  0  0  0  0  0  0
  -31.1878  -17.2661   20.9516 H   0  0  0  0  0  0  0  0  0  0  0  0
  -26.9198  -19.1462   26.4535 H   0  0  0  0  0  0  0  0  0  0  0  0
  -28.3657  -20.0357   26.8924 H   0  0  0  0  0  0  0  0  0  0  0  0
  -26.9349  -21.5812   27.8178 H   0  0  0  0  0  0  0  0  0  0  0  0
  -25.5668  -20.9992   27.0984 H   0  0  0  0  0  0  0  0  0  0  0  0
  -30.1914  -16.0702   25.5955 H   0  0  0  0  0  0  0  0  0  0  0  0
  -30.9299  -15.6237   24.1248 H   0  0  0  0  0  0  0  0  0  0  0  0
  -27.3800  -21.0828   24.5062 H   0  0  0  0  0  0  0  0  0  0  0  0
  -29.2815  -15.4768   21.7863 H   0  0  0  0  0  0  0  0  0  0  0  0
  1 25  1  0
  1 30  2  0
  1 83  1  0
  2  3  1  0
  2 25  1  0
  2 85  1  0
  2 86  1  0
  3  4  1  0
  3 87  1  0
  3 88  1  0
  4  5  1  0
  4 89  1  0
  4 90  1  0
  5  6  1  0
  5 26  1  0
  5 91  1  6
  6 25  1  0
  6 92  1  0
  6 93  1  0
  7  8  2  0
  7 26  1  0
  7 29  1  0
  8  9  1  0
  8 22  1  0
  9 10  1  0
  9 27  2  0
 10 11  2  0
 10 15  1  0
 11 12  1  0
 11 94  1  0
 12 13  2  0
 12 95  1  0
 13 14  1  0
 13 31  1  0
 14 15  2  0
 14 96  1  0
 15 97  1  0
 16 17  2  0
 16 21  1  0
 16 31  1  0
 17 18  1  0
 17 98  1  0
 18 19  2  0
 18 99  1  0
 19 20  1  0
 19 24  1  0
 20 21  2  0
 20100  1  0
 21 23  1  0
 22 28  1  0
 22 32  2  0
 26 27  1  0
 28101  1  0
 28102  1  0
 29103  1  0
 29104  1  0
 33 34  1  0
 33 66  1  0
 33 70  2  0
 34 36  1  0
 34 59  1  0
 34105  1  6
 35 44  2  0
 35 45  1  0
 35 68  1  0
 36 56  1  0
 36106  1  0
 37 39  1  0
 37 47  1  0
 37 66  1  0
 37107  1  6
 38 43  2  0
 38 46  1  0
 38 47  1  0
 39 64  1  0
 39 67  2  0
 40 52  1  0
 40 53  2  0
 40 58  1  0
 41108  1  0
 41109  1  0
 41110  1  0
 42 43  1  0
 42 66  1  0
 42111  1  0
 42112  1  0
 43 44  1  0
 44113  1  0
 45 46  2  0
 45114  1  0
 46115  1  0
 47116  1  0
 47117  1  0
 48 41  1  0
 48 56  1  0
 48 65  1  0
 48118  1  1
 49 50  1  0
 49 53  1  0
 49 64  1  0
 49119  1  1
 50 51  1  0
 50120  1  0
 50121  1  0
 51 52  1  0
 51122  1  0
 51123  1  0
 52124  1  0
 52125  1  0
 53 54  1  0
 54 55  2  0
 54126  1  0
 55 57  1  0
 55127  1  0
 56 69  2  0
 57 58  2  0
 57128  1  0
 58129  1  0
 59 60  1  0
 59 61  1  0
 59 62  1  0
 60130  1  0
 60131  1  0
 60132  1  0
 61133  1  0
 61134  1  0
 61135  1  0
 62136  1  0
 62137  1  0
 62138  1  0
 63 65  1  0
 63139  1  0
 63140  1  0
 63141  1  0
 64142  1  0
 65143  1  0
 68 80  1  0
 71 73  2  0
 71 76  1  0
 71144  1  0
 72 74  2  0
 72 75  1  0
 72145  1  0
 73 74  1  0
 73 78  1  0
 74 81  1  0
 75 76  2  0
 75 82  1  0
 76 84  1  0
 77 84  1  0
 77146  1  0
 77147  1  0
 77148  1  0
 78 83  1  0
 78149  1  0
 78150  1  0
 79 80  1  0
 79 82  1  0
 79151  1  0
 79152  1  0
 80153  1  0
 80154  1  0
 81155  1  0
 81156  1  0
 82157  1  0
 83158  1  0
M  ISO  4   1 100  68 101  80 101  83 100
M  END
$$$$
