0
                    3D
 Structure written by MMmdl.
150158  0  0  1  0            999 V2000
  -30.5581  -14.8855   20.4391 C   0  0  0  0  0  0
  -30.4376  -12.5469   19.4899 C   0  0  0  0  0  0
  -29.5158  -12.5187   18.2484 C   0  0  0  0  0  0
  -28.0480  -12.3126   18.6688 C   0  0  0  0  0  0
  -27.6309  -13.2400   19.8395 C   0  0  2  0  0  0
  -28.6730  -13.2393   20.9779 C   0  0  0  0  0  0
  -25.2464  -13.8205   20.5703 C   0  0  0  0  0  0
  -24.1772  -13.0438   20.9233 C   0  0  0  0  0  0
  -24.6377  -11.6920   20.8765 C   0  0  0  0  0  0
  -23.9068  -10.4291   21.0415 C   0  0  0  0  0  0
  -24.3615   -9.4208   21.9188 C   0  0  0  0  0  0
  -23.6290   -8.2239   22.0752 C   0  0  0  0  0  0
  -22.4278   -8.0270   21.3537 C   0  0  0  0  0  0
  -21.9914   -9.0252   20.4643 C   0  0  0  0  0  0
  -22.7250  -10.2129   20.3056 C   0  0  0  0  0  0
  -21.6850   -6.0733   22.5288 C   0  0  0  0  0  0
  -21.4010   -6.5637   23.8216 C   0  0  0  0  0  0
  -21.3664   -5.6796   24.9178 C   0  0  0  0  0  0
  -21.6044   -4.3055   24.7234 C   0  0  0  0  0  0
  -21.8821   -3.8149   23.4354 C   0  0  0  0  0  0
  -21.9191   -4.6959   22.3409 C   0  0  0  0  0  0
  -22.7798  -13.5206   21.1909 C   0  0  0  0  0  0
  -22.1662   -4.2144   21.0985 F   0  0  0  0  0  0
  -21.5631   -3.4541   25.7744 F   0  0  0  0  0  0
  -29.9583  -13.6333   20.3877 N   0  0  0  0  0  0
  -26.2878  -12.9419   20.3233 N   0  0  0  0  0  0
  -25.9299  -11.6563   20.5743 N   0  0  0  0  0  0
  -22.0437  -12.8179   22.0442 N   0  0  0  0  0  0
  -25.4150  -15.1930   20.4090 N   0  0  0  0  0  0
  -31.7605  -14.9476   20.1541 O   0  0  0  0  0  0
  -21.6637   -6.8874   21.4242 O   0  0  0  0  0  0
  -22.3487  -14.5522   20.6760 O   0  0  0  0  0  0
  -24.6393  -31.8493   23.1910 C   0  0  0  0  0  0
  -25.9181  -32.4725   23.8287 C   0  0  1  0  0  0
  -27.2104  -27.1775   20.1600 C   0  0  0  0  0  0
  -25.5936  -33.8518   24.2206 N   0  0  0  0  0  0
  -23.4394  -30.4723   21.5352 C   0  0  2  0  0  0
  -24.8873  -28.9025   20.1115 C   0  0  0  0  0  0
  -22.7556  -29.4582   22.4863 C   0  0  0  0  0  0
  -18.0309  -28.1409   22.8495 C   0  0  0  0  0  0
  -24.1482  -36.7264   23.2642 C   0  0  0  0  0  0
  -25.9928  -30.7358   21.3844 C   0  0  0  0  0  0
  -26.0617  -29.3484   20.7340 C   0  0  0  0  0  0
  -27.2255  -28.4990   20.7468 C   0  0  0  0  0  0
  -26.0197  -26.8262   19.4897 C   0  0  0  0  0  0
  -24.8764  -27.6522   19.4743 C   0  0  0  0  0  0
  -23.6642  -29.8042   20.1526 C   0  0  0  0  0  0
  -25.4115  -36.3054   24.0325 C   0  0  1  0  0  0
  -20.5930  -28.3726   23.1256 C   0  0  2  0  0  0
  -20.6802  -26.9439   22.5402 C   0  0  0  0  0  0
  -19.5759  -26.6404   21.5217 C   0  0  0  0  0  0
  -18.1943  -26.7948   22.1635 C   0  0  0  0  0  0
  -19.1568  -28.8886   23.2870 C   0  0  0  0  0  0
  -18.9485  -30.1490   23.8890 C   0  0  0  0  0  0
  -17.6482  -30.6604   24.0593 C   0  0  0  0  0  0
  -25.9062  -34.9427   23.5078 C   0  0  0  0  0  0
  -16.5375  -29.9101   23.6360 C   0  0  0  0  0  0
  -16.7293  -28.6528   23.0361 C   0  0  0  0  0  0
  -26.4515  -31.6567   25.0703 C   0  0  0  0  0  0
  -25.3703  -31.3759   26.1410 C   0  0  0  0  0  0
  -27.0391  -30.2979   24.6235 C   0  0  0  0  0  0
  -27.6053  -32.4323   25.7489 C   0  0  0  0  0  0
  -27.5573  -37.1811   24.8482 C   0  0  0  0  0  0
  -21.4258  -29.3050   22.3619 N   0  0  0  0  0  0
  -26.4292  -37.3762   23.9402 N   0  0  0  0  0  0
  -24.7103  -31.0405   22.0914 N   0  0  0  0  0  0
  -23.4231  -28.8146   23.3001 O   0  0  0  0  0  0
  -28.2693  -26.2138   20.1968 O   0  0  0  0  0  0
  -26.5653  -34.8932   22.4659 O   0  0  0  0  0  0
  -23.5518  -32.1329   23.7168 O   0  0  0  0  0  0
  -29.0666  -18.6744   20.5593 C   0  0  0  0  0  0
  -30.0238  -17.5357   20.5269 C   0  0  0  0  0  0
  -29.8089  -19.8697   20.4277 C   0  0  0  0  0  0
  -28.0104  -24.7932   20.3877 C   0  0  0  0  0  0
  -28.8746  -23.6897   20.2452 C   0  0  0  0  0  0
  -28.5216  -22.2048   20.4780 C   0  0  0  0  0  0
  -32.3308  -20.2085   20.2351 C   0  0  0  0  0  0
  -31.2453  -18.0508   20.4167 N   0  0  0  0  0  0
  -31.1214  -19.4148   20.3604 N   0  0  0  0  0  0
  -29.7585  -16.0422   20.6047 N   0  0  0  0  0  0
  -29.5589  -21.2770   20.3331 N   0  0  0  0  0  0
  -27.3870  -21.8253   20.7751 O   0  0  0  0  0  0
  -30.1347  -23.9460   19.8657 O   0  0  0  0  0  0
  -31.4727  -12.6984   19.1771 H   0  0  0  0  0  0
  -30.4185  -11.5870   20.0099 H   0  0  0  0  0  0
  -29.8233  -11.7218   17.5691 H   0  0  0  0  0  0
  -29.6130  -13.4524   17.6920 H   0  0  0  0  0  0
  -27.9417  -11.2713   18.9733 H   0  0  0  0  0  0
  -27.3823  -12.4485   17.8163 H   0  0  0  0  0  0
  -27.6043  -14.2461   19.4201 H   0  0  0  0  0  0
  -28.7432  -12.2555   21.4443 H   0  0  0  0  0  0
  -28.3803  -13.9350   21.7666 H   0  0  0  0  0  0
  -25.2753   -9.5684   22.4771 H   0  0  0  0  0  0
  -24.0008   -7.4627   22.7460 H   0  0  0  0  0  0
  -21.0855   -8.8767   19.8945 H   0  0  0  0  0  0
  -22.3711  -10.9658   19.6163 H   0  0  0  0  0  0
  -21.1998   -7.6145   23.9720 H   0  0  0  0  0  0
  -21.1485   -6.0519   25.9079 H   0  0  0  0  0  0
  -22.0592   -2.7607   23.2858 H   0  0  0  0  0  0
  -22.4048  -11.9815   22.4794 H   0  0  0  0  0  0
  -21.1051  -13.1189   22.2656 H   0  0  0  0  0  0
  -24.6419  -15.8433   20.5020 H   0  0  0  0  0  0
  -26.2474  -15.6251   20.0305 H   0  0  0  0  0  0
  -26.7259  -32.5362   23.1028 H   0  0  0  0  0  0
  -25.0090  -33.9610   25.0366 H   0  0  0  0  0  0
  -22.7397  -31.2987   21.3867 H   0  0  0  0  0  0
  -23.3738  -35.9609   23.3340 H   0  0  0  0  0  0
  -24.3564  -36.8842   22.2051 H   0  0  0  0  0  0
  -23.7248  -37.6480   23.6641 H   0  0  0  0  0  0
  -26.1429  -31.4879   20.6092 H   0  0  0  0  0  0
  -26.8680  -30.7898   22.0209 H   0  0  0  0  0  0
  -28.1213  -28.8338   21.2510 H   0  0  0  0  0  0
  -25.9545  -25.8690   18.9930 H   0  0  0  0  0  0
  -23.9809  -27.3063   18.9753 H   0  0  0  0  0  0
  -23.8033  -30.5810   19.3990 H   0  0  0  0  0  0
  -22.7788  -29.2471   19.8423 H   0  0  0  0  0  0
  -25.1305  -36.1898   25.0822 H   0  0  0  0  0  0
  -21.0042  -28.3312   24.1375 H   0  0  0  0  0  0
  -20.5717  -26.2345   23.3618 H   0  0  0  0  0  0
  -21.6669  -26.7453   22.1200 H   0  0  0  0  0  0
  -19.6910  -25.6314   21.1244 H   0  0  0  0  0  0
  -19.6678  -27.3247   20.6771 H   0  0  0  0  0  0
  -17.4220  -26.6736   21.4023 H   0  0  0  0  0  0
  -18.0316  -26.0080   22.9020 H   0  0  0  0  0  0
  -19.7953  -30.7331   24.2230 H   0  0  0  0  0  0
  -17.5025  -31.6270   24.5213 H   0  0  0  0  0  0
  -15.5378  -30.3009   23.7652 H   0  0  0  0  0  0
  -15.8703  -28.0852   22.7051 H   0  0  0  0  0  0
  -24.5880  -30.7099   25.7752 H   0  0  0  0  0  0
  -24.8889  -32.2949   26.4765 H   0  0  0  0  0  0
  -25.7982  -30.8987   27.0232 H   0  0  0  0  0  0
  -26.3012  -29.6700   24.1229 H   0  0  0  0  0  0
  -27.4052  -29.7259   25.4768 H   0  0  0  0  0  0
  -27.8893  -30.4265   23.9531 H   0  0  0  0  0  0
  -27.2655  -33.3654   26.2001 H   0  0  0  0  0  0
  -28.3902  -32.6823   25.0336 H   0  0  0  0  0  0
  -28.0682  -31.8480   26.5452 H   0  0  0  0  0  0
  -28.2640  -38.0063   24.7482 H   0  0  0  0  0  0
  -28.1015  -36.2590   24.6370 H   0  0  0  0  0  0
  -27.2291  -37.1568   25.8890 H   0  0  0  0  0  0
  -20.9459  -29.8774   21.6822 H   0  0  0  0  0  0
  -26.0157  -38.2843   24.1353 H   0  0  0  0  0  0
  -27.9909  -18.6144   20.6493 H   0  0  0  0  0  0
  -26.9854  -24.6263   20.6925 H   0  0  0  0  0  0
  -32.3330  -21.0026   20.9833 H   0  0  0  0  0  0
  -32.3782  -20.6586   19.2428 H   0  0  0  0  0  0
  -33.2146  -19.5883   20.3885 H   0  0  0  0  0  0
  -28.7924  -15.8135   20.7729 H   0  0  0  0  0  0
  -30.3977  -21.7981   20.1166 H   0  0  0  0  0  0
  -30.2040  -24.8860   19.7533 H   0  0  0  0  0  0
  1 25  1  0  0  0
  1 30  2  0  0  0
  1 80  1  0  0  0
  2  3  1  0  0  0
  2 25  1  0  0  0
  2 84  1  0  0  0
  2 85  1  0  0  0
  3  4  1  0  0  0
  3 86  1  0  0  0
  3 87  1  0  0  0
  4  5  1  0  0  0
  4 88  1  0  0  0
  4 89  1  0  0  0
  5  6  1  0  0  0
  5 26  1  0  0  0
  5 90  1  0  0  0
  6 25  1  0  0  0
  6 91  1  0  0  0
  6 92  1  0  0  0
  7  8  2  0  0  0
  7 26  1  0  0  0
  7 29  1  0  0  0
  8  9  1  0  0  0
  8 22  1  0  0  0
  9 10  1  0  0  0
  9 27  2  0  0  0
 10 11  2  0  0  0
 10 15  1  0  0  0
 11 12  1  0  0  0
 11 93  1  0  0  0
 12 13  2  0  0  0
 12 94  1  0  0  0
 13 14  1  0  0  0
 13 31  1  0  0  0
 14 15  2  0  0  0
 14 95  1  0  0  0
 15 96  1  0  0  0
 16 17  2  0  0  0
 16 21  1  0  0  0
 16 31  1  0  0  0
 17 18  1  0  0  0
 17 97  1  0  0  0
 18 19  2  0  0  0
 18 98  1  0  0  0
 19 20  1  0  0  0
 19 24  1  0  0  0
 20 21  2  0  0  0
 20 99  1  0  0  0
 21 23  1  0  0  0
 22 28  1  0  0  0
 22 32  2  0  0  0
 26 27  1  0  0  0
 28100  1  0  0  0
 28101  1  0  0  0
 29102  1  0  0  0
 29103  1  0  0  0
 33 34  1  0  0  0
 33 66  1  0  0  0
 33 70  2  0  0  0
 34 36  1  0  0  0
 34 59  1  0  0  0
 34104  1  0  0  0
 35 44  2  0  0  0
 35 45  1  0  0  0
 35 68  1  0  0  0
 36 56  1  0  0  0
 36105  1  0  0  0
 37 39  1  0  0  0
 37 47  1  0  0  0
 37 66  1  0  0  0
 37106  1  0  0  0
 38 43  2  0  0  0
 38 46  1  0  0  0
 38 47  1  0  0  0
 39 64  1  0  0  0
 39 67  2  0  0  0
 40 52  1  0  0  0
 40 53  2  0  0  0
 40 58  1  0  0  0
 41107  1  0  0  0
 41108  1  0  0  0
 41109  1  0  0  0
 41 48  1  0  0  0
 42 43  1  0  0  0
 42 66  1  0  0  0
 42110  1  0  0  0
 42111  1  0  0  0
 43 44  1  0  0  0
 44112  1  0  0  0
 45 46  2  0  0  0
 45113  1  0  0  0
 46114  1  0  0  0
 47115  1  0  0  0
 47116  1  0  0  0
 48 56  1  0  0  0
 48 65  1  0  0  0
 48117  1  0  0  0
 49 50  1  0  0  0
 49 53  1  0  0  0
 49 64  1  0  0  0
 49118  1  0  0  0
 50 51  1  0  0  0
 50119  1  0  0  0
 50120  1  0  0  0
 51 52  1  0  0  0
 51121  1  0  0  0
 51122  1  0  0  0
 52123  1  0  0  0
 52124  1  0  0  0
 53 54  1  0  0  0
 54 55  2  0  0  0
 54125  1  0  0  0
 55 57  1  0  0  0
 55126  1  0  0  0
 56 69  2  0  0  0
 57 58  2  0  0  0
 57127  1  0  0  0
 58128  1  0  0  0
 59 60  1  0  0  0
 59 61  1  0  0  0
 59 62  1  0  0  0
 60129  1  0  0  0
 60130  1  0  0  0
 60131  1  0  0  0
 61132  1  0  0  0
 61133  1  0  0  0
 61134  1  0  0  0
 62135  1  0  0  0
 62136  1  0  0  0
 62137  1  0  0  0
 63 65  1  0  0  0
 63138  1  0  0  0
 63139  1  0  0  0
 63140  1  0  0  0
 64141  1  0  0  0
 65142  1  0  0  0
 68 74  1  0  0  0
 71 72  1  0  0  0
 71 73  2  0  0  0
 71143  1  0  0  0
 72 78  2  0  0  0
 72 80  1  0  0  0
 73 79  1  0  0  0
 73 81  1  0  0  0
 74 75  2  0  0  0
 74144  1  0  0  0
 75 76  1  0  0  0
 75 83  1  0  0  0
 76 81  1  0  0  0
 76 82  2  0  0  0
 77 79  1  0  0  0
 77145  1  0  0  0
 77146  1  0  0  0
 77147  1  0  0  0
 78 79  1  0  0  0
 80148  1  0  0  0
 81149  1  0  0  0
 83150  1  0  0  0
M  ISO  4   1 100  68 101  74 101  80 100
M  END
> <chiral flag>
0

> <version>
0

> <s_m_source_file>
/data/baiqing/PycharmProjects/Reinvent-master-3.2/result/LINK_invent/BTK/process_docking_weight1_custom_product_contain_oxygen_bond_distance_aromatic_linkinvent_7_9_3/rearranged_h_0183.sdf

> <i_m_source_file_index>
1

> <r_mmod_Potential_Energy-OPLS-2005>
161.456146240234

> <r_mmod_Stretch_Energy-OPLS-2005>
171.271575927734

> <r_mmod_Bend_Energy-OPLS-2005>
233.370880126953

> <r_mmod_Torsional_Energy-OPLS-2005>
198.473983764648

> <r_mmod_Improper_Torsional_Energy-OPLS-2005>
4.56840801239014

> <r_mmod_Van_der_Waal_Energy-OPLS-2005>
116.117080688477

> <r_mmod_Electrostatic_Energy-OPLS-2005>
-463.093597412109

> <r_mmod_Solvation_Energy-OPLS-2005>
-252.554580688477

> <b_mmod_Minimization_Converged-OPLS-2005>
0

> <r_mmod_RMS_Derivative-OPLS-2005>
2.34129095077515

$$$$
1
                    3D
 Structure written by MMmdl.
153161  0  0  1  0            999 V2000
  -30.6018  -14.7550   20.4476 C   0  0  0  0  0  0
  -30.4419  -12.4561   19.4964 C   0  0  0  0  0  0
  -29.5244  -12.5113   18.2527 C   0  0  0  0  0  0
  -28.0475  -12.3446   18.6574 C   0  0  0  0  0  0
  -27.6513  -13.2343   19.8652 C   0  0  2  0  0  0
  -28.6925  -13.1521   21.0042 C   0  0  0  0  0  0
  -25.2532  -13.8192   20.5710 C   0  0  0  0  0  0
  -24.1808  -13.0448   20.9227 C   0  0  0  0  0  0
  -24.6401  -11.6917   20.8763 C   0  0  0  0  0  0
  -23.9074  -10.4299   21.0419 C   0  0  0  0  0  0
  -24.3632   -9.4200   21.9179 C   0  0  0  0  0  0
  -23.6309   -8.2231   22.0733 C   0  0  0  0  0  0
  -22.4286   -8.0280   21.3532 C   0  0  0  0  0  0
  -21.9921   -9.0270   20.4643 C   0  0  0  0  0  0
  -22.7250  -10.2149   20.3067 C   0  0  0  0  0  0
  -21.6857   -6.0744   22.5280 C   0  0  0  0  0  0
  -21.4029   -6.5652   23.8213 C   0  0  0  0  0  0
  -21.3660   -5.6794   24.9166 C   0  0  0  0  0  0
  -21.6039   -4.3059   24.7216 C   0  0  0  0  0  0
  -21.8809   -3.8155   23.4335 C   0  0  0  0  0  0
  -21.9189   -4.6973   22.3395 C   0  0  0  0  0  0
  -22.7818  -13.5237   21.1850 C   0  0  0  0  0  0
  -22.1639   -4.2158   21.0973 F   0  0  0  0  0  0
  -21.5628   -3.4536   25.7727 F   0  0  0  0  0  0
  -29.9961  -13.5148   20.4338 N   0  0  0  0  0  0
  -26.2984  -12.9409   20.3334 N   0  0  0  0  0  0
  -25.9350  -11.6541   20.5791 N   0  0  0  0  0  0
  -22.0442  -12.8259   22.0409 N   0  0  0  0  0  0
  -25.4232  -15.1902   20.4102 N   0  0  0  0  0  0
  -31.7780  -14.8515   20.0780 O   0  0  0  0  0  0
  -21.6625   -6.8897   21.4245 O   0  0  0  0  0  0
  -22.3516  -14.5526   20.6653 O   0  0  0  0  0  0
  -24.6331  -31.8535   23.1966 C   0  0  0  0  0  0
  -25.9152  -32.4734   23.8310 C   0  0  1  0  0  0
  -27.2149  -27.2268   20.1134 C   0  0  0  0  0  0
  -25.5956  -33.8546   24.2227 N   0  0  0  0  0  0
  -23.4309  -30.4783   21.5395 C   0  0  2  0  0  0
  -24.8765  -28.9223   20.1044 C   0  0  0  0  0  0
  -22.7530  -29.4587   22.4871 C   0  0  0  0  0  0
  -18.0305  -28.1360   22.8478 C   0  0  0  0  0  0
  -24.1508  -36.7282   23.2642 C   0  0  0  0  0  0
  -25.9812  -30.7500   21.3888 C   0  0  0  0  0  0
  -26.0482  -29.3713   20.7243 C   0  0  0  0  0  0
  -27.2136  -28.5333   20.7222 C   0  0  0  0  0  0
  -26.0153  -26.8567   19.4614 C   0  0  0  0  0  0
  -24.8667  -27.6746   19.4642 C   0  0  0  0  0  0
  -23.6531  -29.8191   20.1529 C   0  0  0  0  0  0
  -25.4131  -36.3059   24.0324 C   0  0  1  0  0  0
  -20.5912  -28.3688   23.1250 C   0  0  2  0  0  0
  -20.6791  -26.9401   22.5401 C   0  0  0  0  0  0
  -19.5766  -26.6347   21.5209 C   0  0  0  0  0  0
  -18.1943  -26.7901   22.1618 C   0  0  0  0  0  0
  -19.1559  -28.8838   23.2857 C   0  0  0  0  0  0
  -18.9475  -30.1441   23.8877 C   0  0  0  0  0  0
  -17.6479  -30.6572   24.0545 C   0  0  0  0  0  0
  -25.9063  -34.9435   23.5073 C   0  0  0  0  0  0
  -16.5369  -29.9061   23.6321 C   0  0  0  0  0  0
  -16.7299  -28.6467   23.0355 C   0  0  0  0  0  0
  -26.4508  -31.6578   25.0730 C   0  0  0  0  0  0
  -25.3710  -31.3759   26.1442 C   0  0  0  0  0  0
  -27.0359  -30.2980   24.6251 C   0  0  0  0  0  0
  -27.6030  -32.4356   25.7510 C   0  0  0  0  0  0
  -27.5581  -37.1818   24.8463 C   0  0  0  0  0  0
  -21.4225  -29.3043   22.3638 N   0  0  0  0  0  0
  -26.4301  -37.3752   23.9391 N   0  0  0  0  0  0
  -24.7002  -31.0465   22.0965 N   0  0  0  0  0  0
  -23.4225  -28.8105   23.2957 O   0  0  0  0  0  0
  -28.3163  -26.3293   20.2017 O   0  0  0  0  0  0
  -26.5625  -34.8921   22.4637 O   0  0  0  0  0  0
  -23.5481  -32.1381   23.7241 O   0  0  0  0  0  0
  -29.9620  -17.1656   18.6463 C   0  0  0  0  0  0
  -29.5954  -19.5674   18.4851 C   0  0  0  0  0  0
  -29.8527  -18.3307   17.8742 C   0  0  0  0  0  0
  -29.8099  -17.2104   20.0466 C   0  0  0  0  0  0
  -29.4466  -19.6449   19.8805 C   0  0  0  0  0  0
  -28.6852  -23.6422   20.4706 C   0  0  0  0  0  0
  -28.3551  -24.9461   19.5681 C   0  0  0  0  0  0
  -29.3988  -22.3048   19.8363 C   0  0  1  0  0  0
  -30.9306  -22.5793   19.7342 C   0  0  0  0  0  0
  -29.5302  -18.4634   20.6258 N   0  0  0  0  0  0
  -29.8416  -15.8893   20.7326 N   0  0  0  0  0  0
  -29.1672  -20.9341   20.4887 N   0  0  0  0  0  0
  -28.3517  -23.6609   21.6612 O   0  0  0  0  0  0
  -29.9872  -18.2610   16.5281 F   0  0  0  0  0  0
  -31.1759  -23.7194   19.0863 F   0  0  0  0  0  0
  -31.5755  -21.6069   19.0867 F   0  0  0  0  0  0
  -31.4576  -22.6783   20.9563 F   0  0  0  0  0  0
  -31.4845  -12.5783   19.1977 H   0  0  0  0  0  0
  -30.3873  -11.4788   19.9789 H   0  0  0  0  0  0
  -29.8085  -11.7352   17.5418 H   0  0  0  0  0  0
  -29.6629  -13.4606   17.7321 H   0  0  0  0  0  0
  -27.8912  -11.2963   18.9090 H   0  0  0  0  0  0
  -27.3962  -12.5496   17.8075 H   0  0  0  0  0  0
  -27.6557  -14.2610   19.4992 H   0  0  0  0  0  0
  -28.7237  -12.1472   21.4304 H   0  0  0  0  0  0
  -28.4255  -13.8188   21.8227 H   0  0  0  0  0  0
  -25.2787   -9.5662   22.4741 H   0  0  0  0  0  0
  -24.0008   -7.4624   22.7455 H   0  0  0  0  0  0
  -21.0833   -8.8819   19.8975 H   0  0  0  0  0  0
  -22.3710  -10.9696   19.6179 H   0  0  0  0  0  0
  -21.2027   -7.6156   23.9728 H   0  0  0  0  0  0
  -21.1491   -6.0510   25.9069 H   0  0  0  0  0  0
  -22.0587   -2.7617   23.2822 H   0  0  0  0  0  0
  -22.4076  -12.0016   22.4946 H   0  0  0  0  0  0
  -21.1049  -13.1308   22.2565 H   0  0  0  0  0  0
  -24.6602  -15.8444   20.5386 H   0  0  0  0  0  0
  -26.2598  -15.6283   20.0498 H   0  0  0  0  0  0
  -26.7207  -32.5353   23.1033 H   0  0  0  0  0  0
  -25.0167  -33.9664   25.0418 H   0  0  0  0  0  0
  -22.7284  -31.3014   21.3947 H   0  0  0  0  0  0
  -23.3753  -35.9632   23.3323 H   0  0  0  0  0  0
  -24.3576  -36.8882   22.2044 H   0  0  0  0  0  0
  -23.7294  -37.6508   23.6650 H   0  0  0  0  0  0
  -26.1412  -31.5138   20.6260 H   0  0  0  0  0  0
  -26.8513  -30.7851   22.0327 H   0  0  0  0  0  0
  -28.1069  -28.8685   21.2315 H   0  0  0  0  0  0
  -25.9094  -25.9140   18.9525 H   0  0  0  0  0  0
  -23.9684  -27.3327   18.9683 H   0  0  0  0  0  0
  -23.7904  -30.6008   19.4049 H   0  0  0  0  0  0
  -22.7677  -29.2651   19.8366 H   0  0  0  0  0  0
  -25.1327  -36.1897   25.0813 H   0  0  0  0  0  0
  -21.0020  -28.3257   24.1367 H   0  0  0  0  0  0
  -20.5670  -26.2310   23.3608 H   0  0  0  0  0  0
  -21.6655  -26.7392   22.1207 H   0  0  0  0  0  0
  -19.6924  -25.6240   21.1266 H   0  0  0  0  0  0
  -19.6704  -27.3127   20.6706 H   0  0  0  0  0  0
  -17.4223  -26.6666   21.4006 H   0  0  0  0  0  0
  -18.0336  -26.0030   22.8997 H   0  0  0  0  0  0
  -19.7949  -30.7248   24.2243 H   0  0  0  0  0  0
  -17.5031  -31.6249   24.5145 H   0  0  0  0  0  0
  -15.5366  -30.2959   23.7627 H   0  0  0  0  0  0
  -15.8701  -28.0768   22.7098 H   0  0  0  0  0  0
  -24.5848  -30.7160   25.7766 H   0  0  0  0  0  0
  -24.8958  -32.2953   26.4865 H   0  0  0  0  0  0
  -25.8011  -30.8913   27.0212 H   0  0  0  0  0  0
  -26.2949  -29.6725   24.1265 H   0  0  0  0  0  0
  -27.4009  -29.7257   25.4785 H   0  0  0  0  0  0
  -27.8850  -30.4236   23.9530 H   0  0  0  0  0  0
  -27.2581  -33.3639   26.2069 H   0  0  0  0  0  0
  -28.3842  -32.6948   25.0356 H   0  0  0  0  0  0
  -28.0699  -31.8512   26.5442 H   0  0  0  0  0  0
  -28.2617  -38.0096   24.7452 H   0  0  0  0  0  0
  -28.1067  -36.2619   24.6367 H   0  0  0  0  0  0
  -27.2291  -37.1561   25.8869 H   0  0  0  0  0  0
  -20.9404  -29.8837   21.6908 H   0  0  0  0  0  0
  -26.0183  -38.2840   24.1342 H   0  0  0  0  0  0
  -30.1414  -16.2340   18.1286 H   0  0  0  0  0  0
  -29.5176  -20.4294   17.8405 H   0  0  0  0  0  0
  -27.4392  -24.7017   19.0330 H   0  0  0  0  0  0
  -29.1173  -24.9912   18.7900 H   0  0  0  0  0  0
  -29.0160  -22.2312   18.8194 H   0  0  0  0  0  0
  -29.0381  -15.7150   21.3127 H   0  0  0  0  0  0
  -29.0705  -20.9558   21.4962 H   0  0  0  0  0  0
  1 25  1  0  0  0
  1 30  2  0  0  0
  1 81  1  0  0  0
  2  3  1  0  0  0
  2 25  1  0  0  0
  2 88  1  0  0  0
  2 89  1  0  0  0
  3  4  1  0  0  0
  3 90  1  0  0  0
  3 91  1  0  0  0
  4  5  1  0  0  0
  4 92  1  0  0  0
  4 93  1  0  0  0
  5  6  1  0  0  0
  5 26  1  0  0  0
  5 94  1  0  0  0
  6 25  1  0  0  0
  6 95  1  0  0  0
  6 96  1  0  0  0
  7  8  2  0  0  0
  7 26  1  0  0  0
  7 29  1  0  0  0
  8  9  1  0  0  0
  8 22  1  0  0  0
  9 10  1  0  0  0
  9 27  2  0  0  0
 10 11  2  0  0  0
 10 15  1  0  0  0
 11 12  1  0  0  0
 11 97  1  0  0  0
 12 13  2  0  0  0
 12 98  1  0  0  0
 13 14  1  0  0  0
 13 31  1  0  0  0
 14 15  2  0  0  0
 14 99  1  0  0  0
 15100  1  0  0  0
 16 17  2  0  0  0
 16 21  1  0  0  0
 16 31  1  0  0  0
 17 18  1  0  0  0
 17101  1  0  0  0
 18 19  2  0  0  0
 18102  1  0  0  0
 19 20  1  0  0  0
 19 24  1  0  0  0
 20 21  2  0  0  0
 20103  1  0  0  0
 21 23  1  0  0  0
 22 28  1  0  0  0
 22 32  2  0  0  0
 26 27  1  0  0  0
 28104  1  0  0  0
 28105  1  0  0  0
 29106  1  0  0  0
 29107  1  0  0  0
 33 34  1  0  0  0
 33 66  1  0  0  0
 33 70  2  0  0  0
 34 36  1  0  0  0
 34 59  1  0  0  0
 34108  1  0  0  0
 35 44  2  0  0  0
 35 45  1  0  0  0
 35 68  1  0  0  0
 36 56  1  0  0  0
 36109  1  0  0  0
 37 39  1  0  0  0
 37 47  1  0  0  0
 37 66  1  0  0  0
 37110  1  0  0  0
 38 43  2  0  0  0
 38 46  1  0  0  0
 38 47  1  0  0  0
 39 64  1  0  0  0
 39 67  2  0  0  0
 40 52  1  0  0  0
 40 53  2  0  0  0
 40 58  1  0  0  0
 41111  1  0  0  0
 41112  1  0  0  0
 41113  1  0  0  0
 41 48  1  0  0  0
 42 43  1  0  0  0
 42 66  1  0  0  0
 42114  1  0  0  0
 42115  1  0  0  0
 43 44  1  0  0  0
 44116  1  0  0  0
 45 46  2  0  0  0
 45117  1  0  0  0
 46118  1  0  0  0
 47119  1  0  0  0
 47120  1  0  0  0
 48 56  1  0  0  0
 48 65  1  0  0  0
 48121  1  0  0  0
 49 50  1  0  0  0
 49 53  1  0  0  0
 49 64  1  0  0  0
 49122  1  0  0  0
 50 51  1  0  0  0
 50123  1  0  0  0
 50124  1  0  0  0
 51 52  1  0  0  0
 51125  1  0  0  0
 51126  1  0  0  0
 52127  1  0  0  0
 52128  1  0  0  0
 53 54  1  0  0  0
 54 55  2  0  0  0
 54129  1  0  0  0
 55 57  1  0  0  0
 55130  1  0  0  0
 56 69  2  0  0  0
 57 58  2  0  0  0
 57131  1  0  0  0
 58132  1  0  0  0
 59 60  1  0  0  0
 59 61  1  0  0  0
 59 62  1  0  0  0
 60133  1  0  0  0
 60134  1  0  0  0
 60135  1  0  0  0
 61136  1  0  0  0
 61137  1  0  0  0
 61138  1  0  0  0
 62139  1  0  0  0
 62140  1  0  0  0
 62141  1  0  0  0
 63 65  1  0  0  0
 63142  1  0  0  0
 63143  1  0  0  0
 63144  1  0  0  0
 64145  1  0  0  0
 65146  1  0  0  0
 68 77  1  0  0  0
 71 73  2  0  0  0
 71 74  1  0  0  0
 71147  1  0  0  0
 72 73  1  0  0  0
 72 75  2  0  0  0
 72148  1  0  0  0
 73 84  1  0  0  0
 74 80  2  0  0  0
 74 81  1  0  0  0
 75 80  1  0  0  0
 75 82  1  0  0  0
 76 77  1  0  0  0
 76 78  1  0  0  0
 76 83  2  0  0  0
 77149  1  0  0  0
 77150  1  0  0  0
 78 79  1  0  0  0
 78 82  1  0  0  0
 78151  1  0  0  0
 79 85  1  0  0  0
 79 86  1  0  0  0
 79 87  1  0  0  0
 81152  1  0  0  0
 82153  1  0  0  0
M  ISO  4   1 100  68 101  77 101  81 100
M  END
> <chiral flag>
0

> <version>
0

> <s_m_source_file>
/data/baiqing/PycharmProjects/Reinvent-master-3.2/result/LINK_invent/BTK/process_docking_weight1_custom_product_contain_oxygen_bond_distance_aromatic_linkinvent_7_9_3/rearranged_h_0183.sdf

> <i_m_source_file_index>
2

> <r_mmod_Potential_Energy-OPLS-2005>
-95.8981018066406

> <r_mmod_Stretch_Energy-OPLS-2005>
148.600006103516

> <r_mmod_Bend_Energy-OPLS-2005>
182.571548461914

> <r_mmod_Torsional_Energy-OPLS-2005>
215.975372314453

> <r_mmod_Improper_Torsional_Energy-OPLS-2005>
5.6776556968689

> <r_mmod_Van_der_Waal_Energy-OPLS-2005>
143.886871337891

> <r_mmod_Electrostatic_Energy-OPLS-2005>
-645.540832519531

> <r_mmod_Solvation_Energy-OPLS-2005>
-242.474578857422

> <b_mmod_Minimization_Converged-OPLS-2005>
0

> <r_mmod_RMS_Derivative-OPLS-2005>
3.91631531715393

$$$$
2
                    3D
 Structure written by MMmdl.
150158  0  0  1  0            999 V2000
  -30.5037  -15.0234   20.3958 C   0  0  0  0  0  0
  -30.4446  -12.6368   19.4954 C   0  0  0  0  0  0
  -29.5198  -12.5190   18.2595 C   0  0  0  0  0  0
  -28.0601  -12.2814   18.6916 C   0  0  0  0  0  0
  -27.6218  -13.2433   19.8268 C   0  0  2  0  0  0
  -28.6659  -13.3102   20.9620 C   0  0  0  0  0  0
  -25.2442  -13.8199   20.5704 C   0  0  0  0  0  0
  -24.1772  -13.0439   20.9231 C   0  0  0  0  0  0
  -24.6367  -11.6915   20.8784 C   0  0  0  0  0  0
  -23.9064  -10.4289   21.0420 C   0  0  0  0  0  0
  -24.3614   -9.4201   21.9187 C   0  0  0  0  0  0
  -23.6292   -8.2234   22.0748 C   0  0  0  0  0  0
  -22.4280   -8.0270   21.3530 C   0  0  0  0  0  0
  -21.9911   -9.0249   20.4640 C   0  0  0  0  0  0
  -22.7238  -10.2126   20.3060 C   0  0  0  0  0  0
  -21.6856   -6.0736   22.5276 C   0  0  0  0  0  0
  -21.4008   -6.5640   23.8209 C   0  0  0  0  0  0
  -21.3658   -5.6792   24.9175 C   0  0  0  0  0  0
  -21.6049   -4.3057   24.7226 C   0  0  0  0  0  0
  -21.8817   -3.8146   23.4350 C   0  0  0  0  0  0
  -21.9188   -4.6962   22.3407 C   0  0  0  0  0  0
  -22.7788  -13.5203   21.1903 C   0  0  0  0  0  0
  -22.1660   -4.2155   21.0984 F   0  0  0  0  0  0
  -21.5631   -3.4535   25.7736 F   0  0  0  0  0  0
  -29.9279  -13.7465   20.3493 N   0  0  0  0  0  0
  -26.2861  -12.9416   20.3226 N   0  0  0  0  0  0
  -25.9291  -11.6550   20.5731 N   0  0  0  0  0  0
  -22.0442  -12.8185   22.0448 N   0  0  0  0  0  0
  -25.4124  -15.1924   20.4087 N   0  0  0  0  0  0
  -31.7237  -15.0776   20.2001 O   0  0  0  0  0  0
  -21.6634   -6.8877   21.4241 O   0  0  0  0  0  0
  -22.3473  -14.5514   20.6746 O   0  0  0  0  0  0
  -24.6507  -31.8432   23.1855 C   0  0  0  0  0  0
  -25.9264  -32.4694   23.8242 C   0  0  1  0  0  0
  -27.2003  -27.0815   20.1336 C   0  0  0  0  0  0
  -25.5988  -33.8494   24.2180 N   0  0  0  0  0  0
  -23.4539  -30.4646   21.5347 C   0  0  2  0  0  0
  -24.8949  -28.8887   20.1106 C   0  0  0  0  0  0
  -22.7584  -29.4561   22.4852 C   0  0  0  0  0  0
  -18.0323  -28.1411   22.8469 C   0  0  0  0  0  0
  -24.1509  -36.7232   23.2646 C   0  0  0  0  0  0
  -26.0171  -30.7014   21.3882 C   0  0  0  0  0  0
  -26.0835  -29.3110   20.7198 C   0  0  0  0  0  0
  -27.2389  -28.4279   20.7056 C   0  0  0  0  0  0
  -25.9666  -26.7691   19.5160 C   0  0  0  0  0  0
  -24.8520  -27.6336   19.4916 C   0  0  0  0  0  0
  -23.6797  -29.8000   20.1539 C   0  0  0  0  0  0
  -25.4142  -36.3024   24.0326 C   0  0  1  0  0  0
  -20.5945  -28.3731   23.1224 C   0  0  2  0  0  0
  -20.6806  -26.9439   22.5374 C   0  0  0  0  0  0
  -19.5772  -26.6414   21.5193 C   0  0  0  0  0  0
  -18.1962  -26.7959   22.1618 C   0  0  0  0  0  0
  -19.1578  -28.8890   23.2856 C   0  0  0  0  0  0
  -18.9494  -30.1493   23.8878 C   0  0  0  0  0  0
  -17.6485  -30.6598   24.0586 C   0  0  0  0  0  0
  -25.9096  -34.9405   23.5069 C   0  0  0  0  0  0
  -16.5383  -29.9091   23.6351 C   0  0  0  0  0  0
  -16.7312  -28.6514   23.0358 C   0  0  0  0  0  0
  -26.4549  -31.6563   25.0704 C   0  0  0  0  0  0
  -25.3717  -31.3748   26.1392 C   0  0  0  0  0  0
  -27.0405  -30.2953   24.6305 C   0  0  0  0  0  0
  -27.6123  -32.4286   25.7446 C   0  0  0  0  0  0
  -27.5586  -37.1767   24.8472 C   0  0  0  0  0  0
  -21.4268  -29.3072   22.3589 N   0  0  0  0  0  0
  -26.4302  -37.3731   23.9423 N   0  0  0  0  0  0
  -24.7283  -31.0237   22.0922 N   0  0  0  0  0  0
  -23.4228  -28.8110   23.3013 O   0  0  0  0  0  0
  -28.2449  -26.0647   20.1930 O   0  0  0  0  0  0
  -26.5648  -34.8911   22.4637 O   0  0  0  0  0  0
  -23.5608  -32.1336   23.7048 O   0  0  0  0  0  0
  -29.4088  -20.2130   20.3949 C   0  0  0  0  0  0
  -30.7288  -20.1568   20.8370 C   0  0  0  0  0  0
  -29.9052  -17.7305   20.4601 C   0  0  0  0  0  0
  -28.5489  -21.5482   20.1302 C   0  0  0  0  0  0
  -27.9970  -24.4492   18.3188 C   0  0  0  0  0  0
  -28.9563  -23.1647   20.3710 C   0  0  0  0  0  0
  -28.0366  -24.5248   19.8610 C   0  0  1  0  0  0
  -28.9942  -18.7825   20.2241 N   0  0  0  0  0  0
  -31.5800  -21.1945   21.2168 N   0  0  0  0  0  0
  -29.6776  -16.1993   20.4135 N   0  0  0  0  0  0
  -27.3988  -21.4085   19.6965 O   0  0  0  0  0  0
  -31.4129  -18.5057   20.9420 S   0  0  0  0  0  0
  -31.4716  -12.8193   19.1738 H   0  0  0  0  0  0
  -30.4675  -11.7002   20.0535 H   0  0  0  0  0  0
  -29.8522  -11.7098   17.6066 H   0  0  0  0  0  0
  -29.5804  -13.4339   17.6694 H   0  0  0  0  0  0
  -27.9836  -11.2506   19.0404 H   0  0  0  0  0  0
  -27.3868  -12.3580   17.8369 H   0  0  0  0  0  0
  -27.5692  -14.2305   19.3649 H   0  0  0  0  0  0
  -28.7763  -12.3421   21.4538 H   0  0  0  0  0  0
  -28.3510  -14.0131   21.7361 H   0  0  0  0  0  0
  -25.2746   -9.5685   22.4766 H   0  0  0  0  0  0
  -24.0007   -7.4620   22.7453 H   0  0  0  0  0  0
  -21.0847   -8.8761   19.8935 H   0  0  0  0  0  0
  -22.3690  -10.9665   19.6178 H   0  0  0  0  0  0
  -21.1996   -7.6146   23.9720 H   0  0  0  0  0  0
  -21.1486   -6.0518   25.9078 H   0  0  0  0  0  0
  -22.0597   -2.7613   23.2844 H   0  0  0  0  0  0
  -22.4048  -11.9848   22.4845 H   0  0  0  0  0  0
  -21.1053  -13.1197   22.2646 H   0  0  0  0  0  0
  -24.6402  -15.8407   20.5148 H   0  0  0  0  0  0
  -26.2372  -15.6282   20.0173 H   0  0  0  0  0  0
  -26.7346  -32.5263   23.0963 H   0  0  0  0  0  0
  -25.0144  -33.9609   25.0330 H   0  0  0  0  0  0
  -22.7632  -31.2973   21.3828 H   0  0  0  0  0  0
  -23.3785  -35.9542   23.3268 H   0  0  0  0  0  0
  -24.3589  -36.8892   22.2064 H   0  0  0  0  0  0
  -23.7231  -37.6422   23.6674 H   0  0  0  0  0  0
  -26.1842  -31.4608   20.6240 H   0  0  0  0  0  0
  -26.8844  -30.7423   22.0355 H   0  0  0  0  0  0
  -28.1469  -28.7498   21.1964 H   0  0  0  0  0  0
  -25.7919  -25.7990   19.0761 H   0  0  0  0  0  0
  -23.9383  -27.3001   19.0144 H   0  0  0  0  0  0
  -23.8222  -30.5821   19.4037 H   0  0  0  0  0  0
  -22.7889  -29.2574   19.8336 H   0  0  0  0  0  0
  -25.1312  -36.1854   25.0804 H   0  0  0  0  0  0
  -21.0066  -28.3332   24.1351 H   0  0  0  0  0  0
  -20.5713  -26.2354   23.3594 H   0  0  0  0  0  0
  -21.6661  -26.7464   22.1167 H   0  0  0  0  0  0
  -19.6933  -25.6331   21.1219 H   0  0  0  0  0  0
  -19.6707  -27.3231   20.6727 H   0  0  0  0  0  0
  -17.4228  -26.6737   21.4026 H   0  0  0  0  0  0
  -18.0367  -26.0101   22.9011 H   0  0  0  0  0  0
  -19.7956  -30.7317   24.2252 H   0  0  0  0  0  0
  -17.5032  -31.6276   24.5184 H   0  0  0  0  0  0
  -15.5374  -30.2987   23.7680 H   0  0  0  0  0  0
  -15.8718  -28.0831   22.7076 H   0  0  0  0  0  0
  -24.5945  -30.7044   25.7685 H   0  0  0  0  0  0
  -24.8840  -32.2927   26.4698 H   0  0  0  0  0  0
  -25.8006  -30.9001   27.0232 H   0  0  0  0  0  0
  -26.3012  -29.6662   24.1339 H   0  0  0  0  0  0
  -27.4045  -29.7266   25.4868 H   0  0  0  0  0  0
  -27.8911  -30.4166   23.9592 H   0  0  0  0  0  0
  -27.2809  -33.3653   26.1913 H   0  0  0  0  0  0
  -28.3967  -32.6725   25.0268 H   0  0  0  0  0  0
  -28.0746  -31.8463   26.5430 H   0  0  0  0  0  0
  -28.2590  -38.0070   24.7545 H   0  0  0  0  0  0
  -28.1105  -36.2619   24.6271 H   0  0  0  0  0  0
  -27.2315  -37.1369   25.8874 H   0  0  0  0  0  0
  -20.9500  -29.8794   21.6752 H   0  0  0  0  0  0
  -26.0180  -38.2802   24.1426 H   0  0  0  0  0  0
  -27.6029  -23.4908   17.9864 H   0  0  0  0  0  0
  -28.9924  -24.5585   17.8908 H   0  0  0  0  0  0
  -27.3690  -25.2055   17.8511 H   0  0  0  0  0  0
  -29.0846  -23.2640   21.4498 H   0  0  0  0  0  0
  -29.9583  -23.2788   19.9534 H   0  0  0  0  0  0
  -27.0329  -24.2988   20.2226 H   0  0  0  0  0  0
  -31.2215  -22.0522   21.6253 H   0  0  0  0  0  0
  -32.4899  -20.9637   21.6053 H   0  0  0  0  0  0
  -28.7011  -15.9607   20.4127 H   0  0  0  0  0  0
  1 25  1  0  0  0
  1 30  2  0  0  0
  1 80  1  0  0  0
  2  3  1  0  0  0
  2 25  1  0  0  0
  2 83  1  0  0  0
  2 84  1  0  0  0
  3  4  1  0  0  0
  3 85  1  0  0  0
  3 86  1  0  0  0
  4  5  1  0  0  0
  4 87  1  0  0  0
  4 88  1  0  0  0
  5  6  1  0  0  0
  5 26  1  0  0  0
  5 89  1  0  0  0
  6 25  1  0  0  0
  6 90  1  0  0  0
  6 91  1  0  0  0
  7  8  2  0  0  0
  7 26  1  0  0  0
  7 29  1  0  0  0
  8  9  1  0  0  0
  8 22  1  0  0  0
  9 10  1  0  0  0
  9 27  2  0  0  0
 10 11  2  0  0  0
 10 15  1  0  0  0
 11 12  1  0  0  0
 11 92  1  0  0  0
 12 13  2  0  0  0
 12 93  1  0  0  0
 13 14  1  0  0  0
 13 31  1  0  0  0
 14 15  2  0  0  0
 14 94  1  0  0  0
 15 95  1  0  0  0
 16 17  2  0  0  0
 16 21  1  0  0  0
 16 31  1  0  0  0
 17 18  1  0  0  0
 17 96  1  0  0  0
 18 19  2  0  0  0
 18 97  1  0  0  0
 19 20  1  0  0  0
 19 24  1  0  0  0
 20 21  2  0  0  0
 20 98  1  0  0  0
 21 23  1  0  0  0
 22 28  1  0  0  0
 22 32  2  0  0  0
 26 27  1  0  0  0
 28 99  1  0  0  0
 28100  1  0  0  0
 29101  1  0  0  0
 29102  1  0  0  0
 33 34  1  0  0  0
 33 66  1  0  0  0
 33 70  2  0  0  0
 34 36  1  0  0  0
 34 59  1  0  0  0
 34103  1  0  0  0
 35 44  2  0  0  0
 35 45  1  0  0  0
 35 68  1  0  0  0
 36 56  1  0  0  0
 36104  1  0  0  0
 37 39  1  0  0  0
 37 47  1  0  0  0
 37 66  1  0  0  0
 37105  1  0  0  0
 38 43  2  0  0  0
 38 46  1  0  0  0
 38 47  1  0  0  0
 39 64  1  0  0  0
 39 67  2  0  0  0
 40 52  1  0  0  0
 40 53  2  0  0  0
 40 58  1  0  0  0
 41106  1  0  0  0
 41107  1  0  0  0
 41108  1  0  0  0
 41 48  1  0  0  0
 42 43  1  0  0  0
 42 66  1  0  0  0
 42109  1  0  0  0
 42110  1  0  0  0
 43 44  1  0  0  0
 44111  1  0  0  0
 45 46  2  0  0  0
 45112  1  0  0  0
 46113  1  0  0  0
 47114  1  0  0  0
 47115  1  0  0  0
 48 56  1  0  0  0
 48 65  1  0  0  0
 48116  1  0  0  0
 49 50  1  0  0  0
 49 53  1  0  0  0
 49 64  1  0  0  0
 49117  1  0  0  0
 50 51  1  0  0  0
 50118  1  0  0  0
 50119  1  0  0  0
 51 52  1  0  0  0
 51120  1  0  0  0
 51121  1  0  0  0
 52122  1  0  0  0
 52123  1  0  0  0
 53 54  1  0  0  0
 54 55  2  0  0  0
 54124  1  0  0  0
 55 57  1  0  0  0
 55125  1  0  0  0
 56 69  2  0  0  0
 57 58  2  0  0  0
 57126  1  0  0  0
 58127  1  0  0  0
 59 60  1  0  0  0
 59 61  1  0  0  0
 59 62  1  0  0  0
 60128  1  0  0  0
 60129  1  0  0  0
 60130  1  0  0  0
 61131  1  0  0  0
 61132  1  0  0  0
 61133  1  0  0  0
 62134  1  0  0  0
 62135  1  0  0  0
 62136  1  0  0  0
 63 65  1  0  0  0
 63137  1  0  0  0
 63138  1  0  0  0
 63139  1  0  0  0
 64140  1  0  0  0
 65141  1  0  0  0
 68 77  1  0  0  0
 71 72  2  0  0  0
 71 74  1  0  0  0
 71 78  1  0  0  0
 72 79  1  0  0  0
 72 82  1  0  0  0
 73 78  2  0  0  0
 73 80  1  0  0  0
 73 82  1  0  0  0
 74 76  1  0  0  0
 74 81  2  0  0  0
 75142  1  0  0  0
 75143  1  0  0  0
 75144  1  0  0  0
 75 77  1  0  0  0
 76 77  1  0  0  0
 76145  1  0  0  0
 76146  1  0  0  0
 77147  1  0  0  0
 79148  1  0  0  0
 79149  1  0  0  0
 80150  1  0  0  0
M  ISO  4   1 100  68 101  77 101  80 100
M  END
> <chiral flag>
0

> <version>
0

> <s_m_source_file>
/data/baiqing/PycharmProjects/Reinvent-master-3.2/result/LINK_invent/BTK/process_docking_weight1_custom_product_contain_oxygen_bond_distance_aromatic_linkinvent_7_9_3/rearranged_h_0183.sdf

> <i_m_source_file_index>
3

> <r_mmod_Potential_Energy-OPLS-2005>
678.831726074219

> <r_mmod_Stretch_Energy-OPLS-2005>
319.622924804688

> <r_mmod_Bend_Energy-OPLS-2005>
279.385406494141

> <r_mmod_Torsional_Energy-OPLS-2005>
216.56510925293

> <r_mmod_Improper_Torsional_Energy-OPLS-2005>
8.70201206207275

> <r_mmod_Van_der_Waal_Energy-OPLS-2005>
111.927436828613

> <r_mmod_Electrostatic_Energy-OPLS-2005>
-270.080688476562

> <r_mmod_Solvation_Energy-OPLS-2005>
-235.061767578125

> <b_mmod_Minimization_Converged-OPLS-2005>
0

> <r_mmod_RMS_Derivative-OPLS-2005>
4.63263177871704

$$$$
3
                    3D
 Structure written by MMmdl.
153161  0  0  1  0            999 V2000
  -30.6892  -14.5062   20.5426 C   0  0  0  0  0  0
  -30.4254  -12.3156   19.4508 C   0  0  0  0  0  0
  -29.5088  -12.5075   18.2244 C   0  0  0  0  0  0
  -28.0277  -12.3675   18.6267 C   0  0  0  0  0  0
  -27.6631  -13.2128   19.8774 C   0  0  2  0  0  0
  -28.7001  -13.0168   21.0078 C   0  0  0  0  0  0
  -25.2592  -13.8172   20.5680 C   0  0  0  0  0  0
  -24.1850  -13.0442   20.9173 C   0  0  0  0  0  0
  -24.6407  -11.6907   20.8724 C   0  0  0  0  0  0
  -23.9077  -10.4291   21.0398 C   0  0  0  0  0  0
  -24.3629   -9.4207   21.9175 C   0  0  0  0  0  0
  -23.6297   -8.2250   22.0748 C   0  0  0  0  0  0
  -22.4278   -8.0289   21.3545 C   0  0  0  0  0  0
  -21.9919   -9.0264   20.4647 C   0  0  0  0  0  0
  -22.7250  -10.2135   20.3050 C   0  0  0  0  0  0
  -21.6853   -6.0742   22.5281 C   0  0  0  0  0  0
  -21.4018   -6.5643   23.8217 C   0  0  0  0  0  0
  -21.3661   -5.6790   24.9174 C   0  0  0  0  0  0
  -21.6050   -4.3056   24.7222 C   0  0  0  0  0  0
  -21.8819   -3.8152   23.4341 C   0  0  0  0  0  0
  -21.9194   -4.6974   22.3400 C   0  0  0  0  0  0
  -22.7872  -13.5237   21.1831 C   0  0  0  0  0  0
  -22.1658   -4.2162   21.0975 F   0  0  0  0  0  0
  -21.5630   -3.4532   25.7731 F   0  0  0  0  0  0
  -30.0355  -13.3127   20.4633 N   0  0  0  0  0  0
  -26.3032  -12.9352   20.3357 N   0  0  0  0  0  0
  -25.9341  -11.6504   20.5758 N   0  0  0  0  0  0
  -22.0509  -12.8235   22.0392 N   0  0  0  0  0  0
  -25.4302  -15.1893   20.4095 N   0  0  0  0  0  0
  -31.8173  -14.6748   20.0692 O   0  0  0  0  0  0
  -21.6643   -6.8889   21.4243 O   0  0  0  0  0  0
  -22.3555  -14.5539   20.6674 O   0  0  0  0  0  0
  -24.6183  -31.8665   23.2091 C   0  0  0  0  0  0
  -25.9060  -32.4817   23.8402 C   0  0  1  0  0  0
  -27.2246  -27.3925   20.1068 C   0  0  0  0  0  0
  -25.5901  -33.8615   24.2328 N   0  0  0  0  0  0
  -23.4088  -30.4908   21.5502 C   0  0  2  0  0  0
  -24.8557  -28.9585   20.1125 C   0  0  0  0  0  0
  -22.7433  -29.4648   22.4972 C   0  0  0  0  0  0
  -18.0274  -28.1379   22.8489 C   0  0  0  0  0  0
  -24.1488  -36.7313   23.2634 C   0  0  0  0  0  0
  -25.9441  -30.8179   21.3730 C   0  0  0  0  0  0
  -26.0202  -29.4515   20.7160 C   0  0  0  0  0  0
  -27.2094  -28.6776   20.7084 C   0  0  0  0  0  0
  -26.0468  -26.9432   19.4659 C   0  0  0  0  0  0
  -24.8668  -27.7064   19.4804 C   0  0  0  0  0  0
  -23.6200  -29.8287   20.1639 C   0  0  0  0  0  0
  -25.4108  -36.3106   24.0334 C   0  0  1  0  0  0
  -20.5866  -28.3667   23.1308 C   0  0  2  0  0  0
  -20.6765  -26.9400   22.5412 C   0  0  0  0  0  0
  -19.5745  -26.6380   21.5209 C   0  0  0  0  0  0
  -18.1923  -26.7921   22.1621 C   0  0  0  0  0  0
  -19.1524  -28.8839   23.2897 C   0  0  0  0  0  0
  -18.9451  -30.1444   23.8913 C   0  0  0  0  0  0
  -17.6450  -30.6583   24.0562 C   0  0  0  0  0  0
  -25.9037  -34.9469   23.5127 C   0  0  0  0  0  0
  -16.5341  -29.9085   23.6322 C   0  0  0  0  0  0
  -16.7260  -28.6501   23.0345 C   0  0  0  0  0  0
  -26.4467  -31.6601   25.0746 C   0  0  0  0  0  0
  -25.3715  -31.3729   26.1485 C   0  0  0  0  0  0
  -27.0293  -30.3028   24.6156 C   0  0  0  0  0  0
  -27.6044  -32.4321   25.7502 C   0  0  0  0  0  0
  -27.5586  -37.1804   24.8459 C   0  0  0  0  0  0
  -21.4153  -29.3035   22.3716 N   0  0  0  0  0  0
  -26.4293  -37.3792   23.9408 N   0  0  0  0  0  0
  -24.6754  -31.0728   22.1018 N   0  0  0  0  0  0
  -23.4189  -28.8176   23.3019 O   0  0  0  0  0  0
  -28.3557  -26.5881   20.1386 O   0  0  0  0  0  0
  -26.5602  -34.8917   22.4694 O   0  0  0  0  0  0
  -23.5365  -32.1429   23.7455 O   0  0  0  0  0  0
  -29.2229  -19.0041   20.0933 C   0  0  0  0  0  0
  -29.3267  -18.5840   18.7898 C   0  0  0  0  0  0
  -29.8282  -16.7925   20.3593 C   0  0  0  0  0  0
  -28.7616  -22.7167   20.0695 C   0  0  0  0  0  0
  -29.2515  -24.1858   20.2348 C   0  0  0  0  0  0
  -28.1320  -25.2181   20.5849 C   0  0  0  0  0  0
  -29.5880  -21.5038   20.6205 C   0  0  2  0  0  0
  -30.9778  -21.4112   19.9272 C   0  0  0  0  0  0
  -29.5086  -17.9474   20.9915 N   0  0  0  0  0  0
  -28.7582  -20.2789   20.5044 N   0  0  0  0  0  0
  -29.9952  -15.5480   21.0480 N   0  0  0  0  0  0
  -27.6964  -22.5073   19.4755 O   0  0  0  0  0  0
  -29.0254  -19.3597   17.7195 F   0  0  0  0  0  0
  -31.6826  -20.3877   20.4136 F   0  0  0  0  0  0
  -31.6844  -22.5200   20.1437 F   0  0  0  0  0  0
  -30.8488  -21.2604   18.6103 F   0  0  0  0  0  0
  -29.8373  -16.9352   18.5967 S   0  0  0  0  0  0
  -31.4739  -12.4023   19.1583 H   0  0  0  0  0  0
  -30.3177  -11.3086   19.8577 H   0  0  0  0  0  0
  -29.7577  -11.7789   17.4522 H   0  0  0  0  0  0
  -29.6824  -13.4909   17.7833 H   0  0  0  0  0  0
  -27.8409  -11.3115   18.8264 H   0  0  0  0  0  0
  -27.3835  -12.6365   17.7885 H   0  0  0  0  0  0
  -27.6997  -14.2585   19.5707 H   0  0  0  0  0  0
  -28.6750  -11.9882   21.3702 H   0  0  0  0  0  0
  -28.4561  -13.6383   21.8700 H   0  0  0  0  0  0
  -25.2774   -9.5686   22.4750 H   0  0  0  0  0  0
  -24.0012   -7.4642   22.7460 H   0  0  0  0  0  0
  -21.0852   -8.8780   19.8950 H   0  0  0  0  0  0
  -22.3704  -10.9678   19.6164 H   0  0  0  0  0  0
  -21.2004   -7.6148   23.9724 H   0  0  0  0  0  0
  -21.1487   -6.0516   25.9078 H   0  0  0  0  0  0
  -22.0597   -2.7616   23.2831 H   0  0  0  0  0  0
  -22.4103  -11.9898   22.4804 H   0  0  0  0  0  0
  -21.1129  -13.1275   22.2583 H   0  0  0  0  0  0
  -24.6621  -15.8430   20.5170 H   0  0  0  0  0  0
  -26.2824  -15.6312   20.0914 H   0  0  0  0  0  0
  -26.7134  -32.5514   23.1165 H   0  0  0  0  0  0
  -25.0036  -33.9786   25.0460 H   0  0  0  0  0  0
  -22.6986  -31.3084   21.4112 H   0  0  0  0  0  0
  -23.3746  -35.9652   23.3299 H   0  0  0  0  0  0
  -24.3583  -36.8925   22.2048 H   0  0  0  0  0  0
  -23.7236  -37.6516   23.6649 H   0  0  0  0  0  0
  -26.0677  -31.5845   20.6070 H   0  0  0  0  0  0
  -26.8275  -30.8662   21.9981 H   0  0  0  0  0  0
  -28.1045  -29.0475   21.1888 H   0  0  0  0  0  0
  -26.0230  -25.9995   18.9415 H   0  0  0  0  0  0
  -23.9774  -27.3277   18.9958 H   0  0  0  0  0  0
  -23.7338  -30.6063   19.4077 H   0  0  0  0  0  0
  -22.7428  -29.2527   19.8640 H   0  0  0  0  0  0
  -25.1280  -36.1973   25.0825 H   0  0  0  0  0  0
  -20.9959  -28.3230   24.1428 H   0  0  0  0  0  0
  -20.5666  -26.2274   23.3600 H   0  0  0  0  0  0
  -21.6635  -26.7440   22.1203 H   0  0  0  0  0  0
  -19.6906  -25.6293   21.1237 H   0  0  0  0  0  0
  -19.6684  -27.3195   20.6746 H   0  0  0  0  0  0
  -17.4186  -26.6661   21.4028 H   0  0  0  0  0  0
  -18.0333  -26.0065   22.9024 H   0  0  0  0  0  0
  -19.7928  -30.7257   24.2291 H   0  0  0  0  0  0
  -17.5004  -31.6265   24.5161 H   0  0  0  0  0  0
  -15.5343  -30.2994   23.7636 H   0  0  0  0  0  0
  -15.8657  -28.0825   22.7053 H   0  0  0  0  0  0
  -24.5876  -30.7095   25.7811 H   0  0  0  0  0  0
  -24.8923  -32.2900   26.4927 H   0  0  0  0  0  0
  -25.8045  -30.8887   27.0247 H   0  0  0  0  0  0
  -26.2861  -29.6805   24.1160 H   0  0  0  0  0  0
  -27.3979  -29.7250   25.4641 H   0  0  0  0  0  0
  -27.8737  -30.4320   23.9380 H   0  0  0  0  0  0
  -27.2663  -33.3601   26.2121 H   0  0  0  0  0  0
  -28.3827  -32.6911   25.0314 H   0  0  0  0  0  0
  -28.0746  -31.8424   26.5379 H   0  0  0  0  0  0
  -28.2591  -38.0113   24.7521 H   0  0  0  0  0  0
  -28.1093  -36.2644   24.6265 H   0  0  0  0  0  0
  -27.2312  -37.1429   25.8863 H   0  0  0  0  0  0
  -20.9315  -29.8778   21.6956 H   0  0  0  0  0  0
  -26.0184  -38.2871   24.1411 H   0  0  0  0  0  0
  -29.7026  -24.4691   19.2840 H   0  0  0  0  0  0
  -30.0454  -24.2339   20.9794 H   0  0  0  0  0  0
  -28.0294  -25.2453   21.6708 H   0  0  0  0  0  0
  -27.1811  -24.8283   20.2329 H   0  0  0  0  0  0
  -29.7595  -21.6724   21.6835 H   0  0  0  0  0  0
  -28.0410  -20.5830   19.8480 H   0  0  0  0  0  0
  -29.2527  -15.3136   21.6880 H   0  0  0  0  0  0
  1 25  1  0  0  0
  1 30  2  0  0  0
  1 81  1  0  0  0
  2  3  1  0  0  0
  2 25  1  0  0  0
  2 88  1  0  0  0
  2 89  1  0  0  0
  3  4  1  0  0  0
  3 90  1  0  0  0
  3 91  1  0  0  0
  4  5  1  0  0  0
  4 92  1  0  0  0
  4 93  1  0  0  0
  5  6  1  0  0  0
  5 26  1  0  0  0
  5 94  1  0  0  0
  6 25  1  0  0  0
  6 95  1  0  0  0
  6 96  1  0  0  0
  7  8  2  0  0  0
  7 26  1  0  0  0
  7 29  1  0  0  0
  8  9  1  0  0  0
  8 22  1  0  0  0
  9 10  1  0  0  0
  9 27  2  0  0  0
 10 11  2  0  0  0
 10 15  1  0  0  0
 11 12  1  0  0  0
 11 97  1  0  0  0
 12 13  2  0  0  0
 12 98  1  0  0  0
 13 14  1  0  0  0
 13 31  1  0  0  0
 14 15  2  0  0  0
 14 99  1  0  0  0
 15100  1  0  0  0
 16 17  2  0  0  0
 16 21  1  0  0  0
 16 31  1  0  0  0
 17 18  1  0  0  0
 17101  1  0  0  0
 18 19  2  0  0  0
 18102  1  0  0  0
 19 20  1  0  0  0
 19 24  1  0  0  0
 20 21  2  0  0  0
 20103  1  0  0  0
 21 23  1  0  0  0
 22 28  1  0  0  0
 22 32  2  0  0  0
 26 27  1  0  0  0
 28104  1  0  0  0
 28105  1  0  0  0
 29106  1  0  0  0
 29107  1  0  0  0
 33 34  1  0  0  0
 33 66  1  0  0  0
 33 70  2  0  0  0
 34 36  1  0  0  0
 34 59  1  0  0  0
 34108  1  0  0  0
 35 44  2  0  0  0
 35 45  1  0  0  0
 35 68  1  0  0  0
 36 56  1  0  0  0
 36109  1  0  0  0
 37 39  1  0  0  0
 37 47  1  0  0  0
 37 66  1  0  0  0
 37110  1  0  0  0
 38 43  2  0  0  0
 38 46  1  0  0  0
 38 47  1  0  0  0
 39 64  1  0  0  0
 39 67  2  0  0  0
 40 52  1  0  0  0
 40 53  2  0  0  0
 40 58  1  0  0  0
 41111  1  0  0  0
 41112  1  0  0  0
 41113  1  0  0  0
 41 48  1  0  0  0
 42 43  1  0  0  0
 42 66  1  0  0  0
 42114  1  0  0  0
 42115  1  0  0  0
 43 44  1  0  0  0
 44116  1  0  0  0
 45 46  2  0  0  0
 45117  1  0  0  0
 46118  1  0  0  0
 47119  1  0  0  0
 47120  1  0  0  0
 48 56  1  0  0  0
 48 65  1  0  0  0
 48121  1  0  0  0
 49 50  1  0  0  0
 49 53  1  0  0  0
 49 64  1  0  0  0
 49122  1  0  0  0
 50 51  1  0  0  0
 50123  1  0  0  0
 50124  1  0  0  0
 51 52  1  0  0  0
 51125  1  0  0  0
 51126  1  0  0  0
 52127  1  0  0  0
 52128  1  0  0  0
 53 54  1  0  0  0
 54 55  2  0  0  0
 54129  1  0  0  0
 55 57  1  0  0  0
 55130  1  0  0  0
 56 69  2  0  0  0
 57 58  2  0  0  0
 57131  1  0  0  0
 58132  1  0  0  0
 59 60  1  0  0  0
 59 61  1  0  0  0
 59 62  1  0  0  0
 60133  1  0  0  0
 60134  1  0  0  0
 60135  1  0  0  0
 61136  1  0  0  0
 61137  1  0  0  0
 61138  1  0  0  0
 62139  1  0  0  0
 62140  1  0  0  0
 62141  1  0  0  0
 63 65  1  0  0  0
 63142  1  0  0  0
 63143  1  0  0  0
 63144  1  0  0  0
 64145  1  0  0  0
 65146  1  0  0  0
 68 76  1  0  0  0
 71 72  2  0  0  0
 71 79  1  0  0  0
 71 80  1  0  0  0
 72 83  1  0  0  0
 72 87  1  0  0  0
 73 79  2  0  0  0
 73 81  1  0  0  0
 73 87  1  0  0  0
 74 75  1  0  0  0
 74 77  1  0  0  0
 74 82  2  0  0  0
 75 76  1  0  0  0
 75147  1  0  0  0
 75148  1  0  0  0
 76149  1  0  0  0
 76150  1  0  0  0
 77 78  1  0  0  0
 77 80  1  0  0  0
 77151  1  0  0  0
 78 84  1  0  0  0
 78 85  1  0  0  0
 78 86  1  0  0  0
 80152  1  0  0  0
 81153  1  0  0  0
M  ISO  4   1 100  68 101  76 101  81 100
M  END
> <chiral flag>
0

> <version>
0

> <s_m_source_file>
/data/baiqing/PycharmProjects/Reinvent-master-3.2/result/LINK_invent/BTK/process_docking_weight1_custom_product_contain_oxygen_bond_distance_aromatic_linkinvent_7_9_3/rearranged_h_0183.sdf

> <i_m_source_file_index>
4

> <r_mmod_Potential_Energy-OPLS-2005>
-98.0607223510742

> <r_mmod_Stretch_Energy-OPLS-2005>
47.1160278320312

> <r_mmod_Bend_Energy-OPLS-2005>
115.712280273438

> <r_mmod_Torsional_Energy-OPLS-2005>
260.668426513672

> <r_mmod_Improper_Torsional_Energy-OPLS-2005>
12.3666896820068

> <r_mmod_Van_der_Waal_Energy-OPLS-2005>
134.882949829102

> <r_mmod_Electrostatic_Energy-OPLS-2005>
-468.590179443359

> <r_mmod_Solvation_Energy-OPLS-2005>
-220.635864257812

> <b_mmod_Minimization_Converged-OPLS-2005>
0

> <r_mmod_RMS_Derivative-OPLS-2005>
1.33427333831787

$$$$
4
                    3D
 Structure written by MMmdl.
162170  0  0  1  0            999 V2000
  -30.6753  -14.5575   20.5098 C   0  0  0  0  0  0
  -30.4165  -12.3375   19.4584 C   0  0  0  0  0  0
  -29.5044  -12.5085   18.2257 C   0  0  0  0  0  0
  -28.0232  -12.3637   18.6274 C   0  0  0  0  0  0
  -27.6550  -13.2218   19.8674 C   0  0  2  0  0  0
  -28.6951  -13.0580   20.9989 C   0  0  0  0  0  0
  -25.2564  -13.8195   20.5675 C   0  0  0  0  0  0
  -24.1840  -13.0449   20.9174 C   0  0  0  0  0  0
  -24.6423  -11.6916   20.8749 C   0  0  0  0  0  0
  -23.9102  -10.4296   21.0412 C   0  0  0  0  0  0
  -24.3647   -9.4200   21.9184 C   0  0  0  0  0  0
  -23.6310   -8.2241   22.0749 C   0  0  0  0  0  0
  -22.4289   -8.0292   21.3540 C   0  0  0  0  0  0
  -21.9933   -9.0268   20.4633 C   0  0  0  0  0  0
  -22.7278  -10.2139   20.3046 C   0  0  0  0  0  0
  -21.6859   -6.0744   22.5285 C   0  0  0  0  0  0
  -21.4017   -6.5639   23.8218 C   0  0  0  0  0  0
  -21.3667   -5.6788   24.9182 C   0  0  0  0  0  0
  -21.6048   -4.3050   24.7232 C   0  0  0  0  0  0
  -21.8824   -3.8148   23.4353 C   0  0  0  0  0  0
  -21.9190   -4.6970   22.3408 C   0  0  0  0  0  0
  -22.7854  -13.5214   21.1848 C   0  0  0  0  0  0
  -22.1655   -4.2152   21.0987 F   0  0  0  0  0  0
  -21.5635   -3.4535   25.7748 F   0  0  0  0  0  0
  -30.0213  -13.3596   20.4447 N   0  0  0  0  0  0
  -26.3000  -12.9386   20.3327 N   0  0  0  0  0  0
  -25.9353  -11.6528   20.5771 N   0  0  0  0  0  0
  -22.0518  -12.8179   22.0401 N   0  0  0  0  0  0
  -25.4288  -15.1922   20.4106 N   0  0  0  0  0  0
  -31.8298  -14.6808   20.0892 O   0  0  0  0  0  0
  -21.6648   -6.8895   21.4247 O   0  0  0  0  0  0
  -22.3517  -14.5520   20.6707 O   0  0  0  0  0  0
  -24.6234  -31.8635   23.2062 C   0  0  0  0  0  0
  -25.9090  -32.4810   23.8389 C   0  0  1  0  0  0
  -27.2236  -27.3691   20.1001 C   0  0  0  0  0  0
  -25.5914  -33.8616   24.2305 N   0  0  0  0  0  0
  -23.4121  -30.4895   21.5485 C   0  0  2  0  0  0
  -24.8536  -28.9495   20.1135 C   0  0  0  0  0  0
  -22.7451  -29.4662   22.4972 C   0  0  0  0  0  0
  -18.0281  -28.1391   22.8487 C   0  0  0  0  0  0
  -24.1473  -36.7307   23.2639 C   0  0  0  0  0  0
  -25.9490  -30.8101   21.3684 C   0  0  0  0  0  0
  -26.0208  -29.4415   20.7114 C   0  0  0  0  0  0
  -27.2075  -28.6612   20.6948 C   0  0  0  0  0  0
  -26.0319  -26.9150   19.4863 C   0  0  0  0  0  0
  -24.8587  -27.6902   19.4957 C   0  0  0  0  0  0
  -23.6205  -29.8240   20.1637 C   0  0  0  0  0  0
  -25.4106  -36.3110   24.0327 C   0  0  1  0  0  0
  -20.5865  -28.3697   23.1290 C   0  0  2  0  0  0
  -20.6762  -26.9431   22.5404 C   0  0  0  0  0  0
  -19.5750  -26.6394   21.5205 C   0  0  0  0  0  0
  -18.1929  -26.7933   22.1619 C   0  0  0  0  0  0
  -19.1524  -28.8864   23.2885 C   0  0  0  0  0  0
  -18.9455  -30.1466   23.8917 C   0  0  0  0  0  0
  -17.6453  -30.6598   24.0569 C   0  0  0  0  0  0
  -25.9046  -34.9475   23.5117 C   0  0  0  0  0  0
  -16.5345  -29.9100   23.6333 C   0  0  0  0  0  0
  -16.7263  -28.6506   23.0369 C   0  0  0  0  0  0
  -26.4487  -31.6614   25.0756 C   0  0  0  0  0  0
  -25.3721  -31.3732   26.1484 C   0  0  0  0  0  0
  -27.0326  -30.3047   24.6185 C   0  0  0  0  0  0
  -27.6047  -32.4360   25.7519 C   0  0  0  0  0  0
  -27.5579  -37.1818   24.8475 C   0  0  0  0  0  0
  -21.4169  -29.3054   22.3694 N   0  0  0  0  0  0
  -26.4292  -37.3802   23.9414 N   0  0  0  0  0  0
  -24.6802  -31.0697   22.0984 N   0  0  0  0  0  0
  -23.4196  -28.8214   23.3047 O   0  0  0  0  0  0
  -28.3767  -26.5854   20.1459 O   0  0  0  0  0  0
  -26.5626  -34.8928   22.4692 O   0  0  0  0  0  0
  -23.5403  -32.1410   23.7409 O   0  0  0  0  0  0
  -30.3653  -19.0508   19.0277 C   0  0  0  0  0  0
  -29.8487  -19.2805   20.2978 C   0  0  0  0  0  0
  -30.0750  -16.9714   20.3955 C   0  0  0  0  0  0
  -28.9344  -21.6625   20.4906 C   0  0  0  0  0  0
  -31.5181  -21.2445   18.2597 C   0  0  0  0  0  0
  -29.6418  -20.1779   16.8687 C   0  0  0  0  0  0
  -28.5460  -24.9107   18.4175 C   0  0  0  0  0  0
  -29.3298  -24.3468   20.7879 C   0  0  0  0  0  0
  -30.7724  -19.9526   17.8840 C   0  0  0  0  0  0
  -28.2928  -25.1406   19.9188 C   0  0  2  0  0  0
  -28.9729  -22.9343   21.3992 C   0  0  0  0  0  0
  -29.6884  -18.0853   21.0560 N   0  0  0  0  0  0
  -29.6554  -20.5792   20.8957 N   0  0  0  0  0  0
  -29.9680  -15.6372   20.9336 N   0  0  0  0  0  0
  -28.2083  -21.6502   19.4971 O   0  0  0  0  0  0
  -27.7953  -23.0376   22.0171 F   0  0  0  0  0  0
  -29.8895  -22.7157   22.3469 F   0  0  0  0  0  0
  -30.6417  -17.3345   18.7707 S   0  0  0  0  0  0
  -31.4661  -12.4092   19.1687 H   0  0  0  0  0  0
  -30.2958  -11.3430   19.8887 H   0  0  0  0  0  0
  -29.7560  -11.7725   17.4608 H   0  0  0  0  0  0
  -29.6693  -13.4888   17.7752 H   0  0  0  0  0  0
  -27.8352  -11.3094   18.8341 H   0  0  0  0  0  0
  -27.3788  -12.6256   17.7878 H   0  0  0  0  0  0
  -27.6811  -14.2626   19.5427 H   0  0  0  0  0  0
  -28.6836  -12.0369   21.3815 H   0  0  0  0  0  0
  -28.4546  -13.6991   21.8483 H   0  0  0  0  0  0
  -25.2808   -9.5658   22.4735 H   0  0  0  0  0  0
  -24.0022   -7.4628   22.7454 H   0  0  0  0  0  0
  -21.0862   -8.8803   19.8927 H   0  0  0  0  0  0
  -22.3768  -10.9679   19.6135 H   0  0  0  0  0  0
  -21.2005   -7.6143   23.9723 H   0  0  0  0  0  0
  -21.1482   -6.0518   25.9081 H   0  0  0  0  0  0
  -22.0595   -2.7604   23.2863 H   0  0  0  0  0  0
  -22.4153  -11.9834   22.4784 H   0  0  0  0  0  0
  -21.1123  -13.1175   22.2620 H   0  0  0  0  0  0
  -24.6660  -15.8526   20.5176 H   0  0  0  0  0  0
  -26.2882  -15.6286   20.1011 H   0  0  0  0  0  0
  -26.7162  -32.5483   23.1144 H   0  0  0  0  0  0
  -25.0067  -33.9786   25.0446 H   0  0  0  0  0  0
  -22.7048  -31.3099   21.4084 H   0  0  0  0  0  0
  -23.3738  -35.9639   23.3323 H   0  0  0  0  0  0
  -24.3552  -36.8924   22.2052 H   0  0  0  0  0  0
  -23.7213  -37.6510   23.6644 H   0  0  0  0  0  0
  -26.0744  -31.5746   20.6000 H   0  0  0  0  0  0
  -26.8312  -30.8574   21.9951 H   0  0  0  0  0  0
  -28.1079  -29.0373   21.1594 H   0  0  0  0  0  0
  -25.9739  -25.9559   18.9935 H   0  0  0  0  0  0
  -23.9620  -27.3083   19.0261 H   0  0  0  0  0  0
  -23.7367  -30.5982   19.4054 H   0  0  0  0  0  0
  -22.7402  -29.2513   19.8673 H   0  0  0  0  0  0
  -25.1275  -36.1979   25.0817 H   0  0  0  0  0  0
  -20.9965  -28.3259   24.1408 H   0  0  0  0  0  0
  -20.5667  -26.2323   23.3601 H   0  0  0  0  0  0
  -21.6633  -26.7473   22.1207 H   0  0  0  0  0  0
  -19.6924  -25.6301   21.1263 H   0  0  0  0  0  0
  -19.6681  -27.3178   20.6712 H   0  0  0  0  0  0
  -17.4197  -26.6687   21.4022 H   0  0  0  0  0  0
  -18.0341  -26.0063   22.9010 H   0  0  0  0  0  0
  -19.7926  -30.7272   24.2301 H   0  0  0  0  0  0
  -17.5009  -31.6277   24.5165 H   0  0  0  0  0  0
  -15.5353  -30.3024   23.7624 H   0  0  0  0  0  0
  -15.8659  -28.0823   22.7110 H   0  0  0  0  0  0
  -24.5877  -30.7117   25.7789 H   0  0  0  0  0  0
  -24.8930  -32.2892   26.4956 H   0  0  0  0  0  0
  -25.8041  -30.8861   27.0237 H   0  0  0  0  0  0
  -26.2894  -29.6823   24.1190 H   0  0  0  0  0  0
  -27.4016  -29.7293   25.4688 H   0  0  0  0  0  0
  -27.8762  -30.4365   23.9405 H   0  0  0  0  0  0
  -27.2655  -33.3656   26.2109 H   0  0  0  0  0  0
  -28.3834  -32.6958   25.0331 H   0  0  0  0  0  0
  -28.0739  -31.8497   26.5433 H   0  0  0  0  0  0
  -28.2614  -38.0103   24.7514 H   0  0  0  0  0  0
  -28.1063  -36.2640   24.6295 H   0  0  0  0  0  0
  -27.2312  -37.1467   25.8887 H   0  0  0  0  0  0
  -20.9361  -29.8765   21.6879 H   0  0  0  0  0  0
  -26.0183  -38.2887   24.1403 H   0  0  0  0  0  0
  -32.3422  -21.0488   18.9456 H   0  0  0  0  0  0
  -30.8707  -21.9975   18.7000 H   0  0  0  0  0  0
  -31.9528  -21.7005   17.3694 H   0  0  0  0  0  0
  -29.2988  -19.2318   16.4483 H   0  0  0  0  0  0
  -29.9729  -20.8024   16.0393 H   0  0  0  0  0  0
  -28.7776  -20.6626   17.3159 H   0  0  0  0  0  0
  -29.5427  -25.2546   18.1400 H   0  0  0  0  0  0
  -27.8329  -25.4469   17.7929 H   0  0  0  0  0  0
  -28.4850  -23.8559   18.1559 H   0  0  0  0  0  0
  -29.5401  -24.9860   21.6461 H   0  0  0  0  0  0
  -30.2808  -24.2827   20.2596 H   0  0  0  0  0  0
  -31.5229  -19.3942   17.3213 H   0  0  0  0  0  0
  -27.3078  -24.7712   20.2015 H   0  0  0  0  0  0
  -30.0825  -20.7036   21.8035 H   0  0  0  0  0  0
  -29.1425  -15.4491   21.4806 H   0  0  0  0  0  0
  1 25  1  0  0  0
  1 30  2  0  0  0
  1 84  1  0  0  0
  2  3  1  0  0  0
  2 25  1  0  0  0
  2 89  1  0  0  0
  2 90  1  0  0  0
  3  4  1  0  0  0
  3 91  1  0  0  0
  3 92  1  0  0  0
  4  5  1  0  0  0
  4 93  1  0  0  0
  4 94  1  0  0  0
  5  6  1  0  0  0
  5 26  1  0  0  0
  5 95  1  0  0  0
  6 25  1  0  0  0
  6 96  1  0  0  0
  6 97  1  0  0  0
  7  8  2  0  0  0
  7 26  1  0  0  0
  7 29  1  0  0  0
  8  9  1  0  0  0
  8 22  1  0  0  0
  9 10  1  0  0  0
  9 27  2  0  0  0
 10 11  2  0  0  0
 10 15  1  0  0  0
 11 12  1  0  0  0
 11 98  1  0  0  0
 12 13  2  0  0  0
 12 99  1  0  0  0
 13 14  1  0  0  0
 13 31  1  0  0  0
 14 15  2  0  0  0
 14100  1  0  0  0
 15101  1  0  0  0
 16 17  2  0  0  0
 16 21  1  0  0  0
 16 31  1  0  0  0
 17 18  1  0  0  0
 17102  1  0  0  0
 18 19  2  0  0  0
 18103  1  0  0  0
 19 20  1  0  0  0
 19 24  1  0  0  0
 20 21  2  0  0  0
 20104  1  0  0  0
 21 23  1  0  0  0
 22 28  1  0  0  0
 22 32  2  0  0  0
 26 27  1  0  0  0
 28105  1  0  0  0
 28106  1  0  0  0
 29107  1  0  0  0
 29108  1  0  0  0
 33 34  1  0  0  0
 33 66  1  0  0  0
 33 70  2  0  0  0
 34 36  1  0  0  0
 34 59  1  0  0  0
 34109  1  0  0  0
 35 44  2  0  0  0
 35 45  1  0  0  0
 35 68  1  0  0  0
 36 56  1  0  0  0
 36110  1  0  0  0
 37 39  1  0  0  0
 37 47  1  0  0  0
 37 66  1  0  0  0
 37111  1  0  0  0
 38 43  2  0  0  0
 38 46  1  0  0  0
 38 47  1  0  0  0
 39 64  1  0  0  0
 39 67  2  0  0  0
 40 52  1  0  0  0
 40 53  2  0  0  0
 40 58  1  0  0  0
 41112  1  0  0  0
 41113  1  0  0  0
 41114  1  0  0  0
 41 48  1  0  0  0
 42 43  1  0  0  0
 42 66  1  0  0  0
 42115  1  0  0  0
 42116  1  0  0  0
 43 44  1  0  0  0
 44117  1  0  0  0
 45 46  2  0  0  0
 45118  1  0  0  0
 46119  1  0  0  0
 47120  1  0  0  0
 47121  1  0  0  0
 48 56  1  0  0  0
 48 65  1  0  0  0
 48122  1  0  0  0
 49 50  1  0  0  0
 49 53  1  0  0  0
 49 64  1  0  0  0
 49123  1  0  0  0
 50 51  1  0  0  0
 50124  1  0  0  0
 50125  1  0  0  0
 51 52  1  0  0  0
 51126  1  0  0  0
 51127  1  0  0  0
 52128  1  0  0  0
 52129  1  0  0  0
 53 54  1  0  0  0
 54 55  2  0  0  0
 54130  1  0  0  0
 55 57  1  0  0  0
 55131  1  0  0  0
 56 69  2  0  0  0
 57 58  2  0  0  0
 57132  1  0  0  0
 58133  1  0  0  0
 59 60  1  0  0  0
 59 61  1  0  0  0
 59 62  1  0  0  0
 60134  1  0  0  0
 60135  1  0  0  0
 60136  1  0  0  0
 61137  1  0  0  0
 61138  1  0  0  0
 61139  1  0  0  0
 62140  1  0  0  0
 62141  1  0  0  0
 62142  1  0  0  0
 63 65  1  0  0  0
 63143  1  0  0  0
 63144  1  0  0  0
 63145  1  0  0  0
 64146  1  0  0  0
 65147  1  0  0  0
 68 80  1  0  0  0
 71 72  2  0  0  0
 71 79  1  0  0  0
 71 88  1  0  0  0
 72 82  1  0  0  0
 72 83  1  0  0  0
 73 82  2  0  0  0
 73 84  1  0  0  0
 73 88  1  0  0  0
 74 81  1  0  0  0
 74 83  1  0  0  0
 74 85  2  0  0  0
 75148  1  0  0  0
 75149  1  0  0  0
 75150  1  0  0  0
 75 79  1  0  0  0
 76 79  1  0  0  0
 76151  1  0  0  0
 76152  1  0  0  0
 76153  1  0  0  0
 77154  1  0  0  0
 77155  1  0  0  0
 77156  1  0  0  0
 77 80  1  0  0  0
 78 80  1  0  0  0
 78 81  1  0  0  0
 78157  1  0  0  0
 78158  1  0  0  0
 79159  1  0  0  0
 80160  1  0  0  0
 81 86  1  0  0  0
 81 87  1  0  0  0
 83161  1  0  0  0
 84162  1  0  0  0
M  ISO  4   1 100  68 101  80 101  84 100
M  END
> <chiral flag>
0

> <version>
0

> <s_m_source_file>
/data/baiqing/PycharmProjects/Reinvent-master-3.2/result/LINK_invent/BTK/process_docking_weight1_custom_product_contain_oxygen_bond_distance_aromatic_linkinvent_7_9_3/rearranged_h_0183.sdf

> <i_m_source_file_index>
5

> <r_mmod_Potential_Energy-OPLS-2005>
-94.0549774169922

> <r_mmod_Stretch_Energy-OPLS-2005>
56.0929489135742

> <r_mmod_Bend_Energy-OPLS-2005>
142.849746704102

> <r_mmod_Torsional_Energy-OPLS-2005>
233.730728149414

> <r_mmod_Improper_Torsional_Energy-OPLS-2005>
5.21800088882446

> <r_mmod_Van_der_Waal_Energy-OPLS-2005>
124.573677062988

> <r_mmod_Electrostatic_Energy-OPLS-2005>
-471.147827148438

> <r_mmod_Solvation_Energy-OPLS-2005>
-213.124084472656

> <b_mmod_Minimization_Converged-OPLS-2005>
0

> <r_mmod_RMS_Derivative-OPLS-2005>
2.51168465614319

$$$$
5
                    3D
 Structure written by MMmdl.
152160  0  0  1  0            999 V2000
  -30.6632  -14.5447   20.5717 C   0  0  0  0  0  0
  -30.4344  -12.3527   19.4321 C   0  0  0  0  0  0
  -29.5001  -12.5247   18.2148 C   0  0  0  0  0  0
  -28.0227  -12.3675   18.6262 C   0  0  0  0  0  0
  -27.6629  -13.2114   19.8779 C   0  0  2  0  0  0
  -28.7057  -13.0013   20.9994 C   0  0  0  0  0  0
  -25.2583  -13.8166   20.5688 C   0  0  0  0  0  0
  -24.1841  -13.0430   20.9170 C   0  0  0  0  0  0
  -24.6404  -11.6904   20.8729 C   0  0  0  0  0  0
  -23.9071  -10.4284   21.0396 C   0  0  0  0  0  0
  -24.3624   -9.4195   21.9175 C   0  0  0  0  0  0
  -23.6296   -8.2232   22.0751 C   0  0  0  0  0  0
  -22.4276   -8.0274   21.3542 C   0  0  0  0  0  0
  -21.9912   -9.0248   20.4646 C   0  0  0  0  0  0
  -22.7238  -10.2126   20.3046 C   0  0  0  0  0  0
  -21.6851   -6.0731   22.5282 C   0  0  0  0  0  0
  -21.4009   -6.5640   23.8214 C   0  0  0  0  0  0
  -21.3658   -5.6799   24.9179 C   0  0  0  0  0  0
  -21.6045   -4.3063   24.7229 C   0  0  0  0  0  0
  -21.8817   -3.8147   23.4353 C   0  0  0  0  0  0
  -21.9189   -4.6961   22.3406 C   0  0  0  0  0  0
  -22.7854  -13.5216   21.1848 C   0  0  0  0  0  0
  -22.1658   -4.2146   21.0984 F   0  0  0  0  0  0
  -21.5628   -3.4547   25.7744 F   0  0  0  0  0  0
  -30.0351  -13.3360   20.4561 N   0  0  0  0  0  0
  -26.3039  -12.9345   20.3384 N   0  0  0  0  0  0
  -25.9336  -11.6498   20.5766 N   0  0  0  0  0  0
  -22.0522  -12.8190   22.0418 N   0  0  0  0  0  0
  -25.4314  -15.1887   20.4112 N   0  0  0  0  0  0
  -31.7583  -14.7720   20.0470 O   0  0  0  0  0  0
  -21.6637   -6.8872   21.4240 O   0  0  0  0  0  0
  -22.3522  -14.5519   20.6709 O   0  0  0  0  0  0
  -24.6206  -31.8642   23.2076 C   0  0  0  0  0  0
  -25.9073  -32.4810   23.8391 C   0  0  1  0  0  0
  -27.2302  -27.3749   20.1178 C   0  0  0  0  0  0
  -25.5905  -33.8611   24.2315 N   0  0  0  0  0  0
  -23.4135  -30.4873   21.5471 C   0  0  2  0  0  0
  -24.8642  -28.9497   20.1132 C   0  0  0  0  0  0
  -22.7443  -29.4640   22.4949 C   0  0  0  0  0  0
  -18.0280  -28.1378   22.8495 C   0  0  0  0  0  0
  -24.1490  -36.7313   23.2639 C   0  0  0  0  0  0
  -25.9499  -30.8093   21.3751 C   0  0  0  0  0  0
  -26.0274  -29.4392   20.7239 C   0  0  0  0  0  0
  -27.2152  -28.6591   20.7270 C   0  0  0  0  0  0
  -26.0624  -26.9394   19.4581 C   0  0  0  0  0  0
  -24.8789  -27.6996   19.4749 C   0  0  0  0  0  0
  -23.6285  -29.8222   20.1622 C   0  0  0  0  0  0
  -25.4110  -36.3108   24.0338 C   0  0  1  0  0  0
  -20.5878  -28.3688   23.1294 C   0  0  2  0  0  0
  -20.6776  -26.9411   22.5423 C   0  0  0  0  0  0
  -19.5758  -26.6375   21.5220 C   0  0  0  0  0  0
  -18.1939  -26.7913   22.1640 C   0  0  0  0  0  0
  -19.1533  -28.8845   23.2898 C   0  0  0  0  0  0
  -18.9453  -30.1444   23.8912 C   0  0  0  0  0  0
  -17.6453  -30.6579   24.0562 C   0  0  0  0  0  0
  -25.9035  -34.9472   23.5122 C   0  0  0  0  0  0
  -16.5342  -29.9080   23.6324 C   0  0  0  0  0  0
  -16.7265  -28.6495   23.0349 C   0  0  0  0  0  0
  -26.4479  -31.6601   25.0739 C   0  0  0  0  0  0
  -25.3729  -31.3717   26.1477 C   0  0  0  0  0  0
  -27.0317  -30.3032   24.6154 C   0  0  0  0  0  0
  -27.6054  -32.4323   25.7503 C   0  0  0  0  0  0
  -27.5582  -37.1810   24.8465 C   0  0  0  0  0  0
  -21.4163  -29.3049   22.3689 N   0  0  0  0  0  0
  -26.4293  -37.3791   23.9406 N   0  0  0  0  0  0
  -24.6791  -31.0694   22.1002 N   0  0  0  0  0  0
  -23.4182  -28.8178   23.3016 O   0  0  0  0  0  0
  -28.3435  -26.5414   20.1162 O   0  0  0  0  0  0
  -26.5609  -34.8923   22.4690 O   0  0  0  0  0  0
  -23.5378  -32.1415   23.7426 O   0  0  0  0  0  0
  -29.8182  -19.1226   21.8981 C   0  0  0  0  0  0
  -29.9233  -17.7356   22.2575 C   0  0  0  0  0  0
  -29.8189  -19.3501   20.5438 C   0  0  0  0  0  0
  -30.0391  -16.8627   21.1976 C   0  0  0  0  0  0
  -29.8138  -22.0382   20.3915 C   0  0  0  0  0  0
  -29.4446  -24.3258   20.6676 C   0  0  0  0  0  0
  -26.9573  -24.6945   21.2622 C   0  0  0  0  0  0
  -29.5577  -20.6432   19.7600 C   0  0  0  0  0  0
  -28.3261  -25.3758   21.0109 C   0  0  2  0  0  0
  -29.0138  -23.0465   20.2610 N   0  0  0  0  0  0
  -29.9937  -15.4909   21.2760 N   0  0  0  0  0  0
  -30.6189  -24.6784   20.8067 O   0  0  0  0  0  0
  -30.0678  -17.8088   19.7080 S   0  0  0  0  0  0
  -31.4758  -12.4708   19.1301 H   0  0  0  0  0  0
  -30.3560  -11.3408   19.8347 H   0  0  0  0  0  0
  -29.7498  -11.8001   17.4398 H   0  0  0  0  0  0
  -29.6521  -13.5095   17.7710 H   0  0  0  0  0  0
  -27.8450  -11.3103   18.8289 H   0  0  0  0  0  0
  -27.3680  -12.6299   17.7944 H   0  0  0  0  0  0
  -27.7039  -14.2582   19.5768 H   0  0  0  0  0  0
  -28.6973  -11.9622   21.3309 H   0  0  0  0  0  0
  -28.4496  -13.5863   21.8827 H   0  0  0  0  0  0
  -25.2769   -9.5662   22.4746 H   0  0  0  0  0  0
  -24.0000   -7.4617   22.7470 H   0  0  0  0  0  0
  -21.0838   -8.8760   19.8962 H   0  0  0  0  0  0
  -22.3692  -10.9658   19.6153 H   0  0  0  0  0  0
  -21.2004   -7.6152   23.9713 H   0  0  0  0  0  0
  -21.1484   -6.0537   25.9084 H   0  0  0  0  0  0
  -22.0599   -2.7611   23.2862 H   0  0  0  0  0  0
  -22.4170  -11.9842   22.4758 H   0  0  0  0  0  0
  -21.1149  -13.1205   22.2682 H   0  0  0  0  0  0
  -24.6692  -15.8476   20.5229 H   0  0  0  0  0  0
  -26.2958  -15.6287   20.1199 H   0  0  0  0  0  0
  -26.7148  -32.5500   23.1157 H   0  0  0  0  0  0
  -25.0042  -33.9767   25.0451 H   0  0  0  0  0  0
  -22.7054  -31.3062   21.4048 H   0  0  0  0  0  0
  -23.3748  -35.9650   23.3312 H   0  0  0  0  0  0
  -24.3584  -36.8915   22.2050 H   0  0  0  0  0  0
  -23.7244  -37.6521   23.6645 H   0  0  0  0  0  0
  -26.0741  -31.5711   20.6040 H   0  0  0  0  0  0
  -26.8338  -30.8620   21.9994 H   0  0  0  0  0  0
  -28.1075  -29.0268   21.2135 H   0  0  0  0  0  0
  -26.0594  -25.9890   18.9448 H   0  0  0  0  0  0
  -23.9908  -27.3206   18.9880 H   0  0  0  0  0  0
  -23.7440  -30.5980   19.4045 H   0  0  0  0  0  0
  -22.7521  -29.2458   19.8618 H   0  0  0  0  0  0
  -25.1291  -36.1969   25.0831 H   0  0  0  0  0  0
  -20.9974  -28.3274   24.1411 H   0  0  0  0  0  0
  -20.5658  -26.2297   23.3625 H   0  0  0  0  0  0
  -21.6657  -26.7424   22.1235 H   0  0  0  0  0  0
  -19.6914  -25.6287   21.1254 H   0  0  0  0  0  0
  -19.6693  -27.3178   20.6745 H   0  0  0  0  0  0
  -17.4198  -26.6639   21.4056 H   0  0  0  0  0  0
  -18.0355  -26.0063   22.9054 H   0  0  0  0  0  0
  -19.7922  -30.7264   24.2295 H   0  0  0  0  0  0
  -17.5006  -31.6266   24.5158 H   0  0  0  0  0  0
  -15.5346  -30.2994   23.7637 H   0  0  0  0  0  0
  -15.8672  -28.0815   22.7058 H   0  0  0  0  0  0
  -24.5907  -30.7064   25.7807 H   0  0  0  0  0  0
  -24.8919  -32.2874   26.4922 H   0  0  0  0  0  0
  -25.8066  -30.8883   27.0238 H   0  0  0  0  0  0
  -26.2875  -29.6792   24.1188 H   0  0  0  0  0  0
  -27.4045  -29.7273   25.4636 H   0  0  0  0  0  0
  -27.8734  -30.4345   23.9351 H   0  0  0  0  0  0
  -27.2679  -33.3615   26.2105 H   0  0  0  0  0  0
  -28.3849  -32.6889   25.0319 H   0  0  0  0  0  0
  -28.0740  -31.8429   26.5393 H   0  0  0  0  0  0
  -28.2613  -38.0098   24.7511 H   0  0  0  0  0  0
  -28.1065  -36.2628   24.6296 H   0  0  0  0  0  0
  -27.2302  -37.1472   25.8871 H   0  0  0  0  0  0
  -20.9320  -29.8763   21.6911 H   0  0  0  0  0  0
  -26.0186  -38.2871   24.1388 H   0  0  0  0  0  0
  -29.6911  -19.8904   22.6494 H   0  0  0  0  0  0
  -29.8749  -17.4274   23.2928 H   0  0  0  0  0  0
  -30.7661  -22.1044   20.9286 H   0  0  0  0  0  0
  -26.2399  -25.3819   21.7094 H   0  0  0  0  0  0
  -27.0577  -23.8659   21.9637 H   0  0  0  0  0  0
  -26.5266  -24.2887   20.3474 H   0  0  0  0  0  0
  -28.5213  -20.6206   19.4233 H   0  0  0  0  0  0
  -30.1468  -20.6115   18.8432 H   0  0  0  0  0  0
  -28.6261  -25.7808   21.9792 H   0  0  0  0  0  0
  -29.2349  -15.1205   21.8285 H   0  0  0  0  0  0
  1 25  1  0  0  0
  1 30  2  0  0  0
  1 81  1  0  0  0
  2  3  1  0  0  0
  2 25  1  0  0  0
  2 84  1  0  0  0
  2 85  1  0  0  0
  3  4  1  0  0  0
  3 86  1  0  0  0
  3 87  1  0  0  0
  4  5  1  0  0  0
  4 88  1  0  0  0
  4 89  1  0  0  0
  5  6  1  0  0  0
  5 26  1  0  0  0
  5 90  1  0  0  0
  6 25  1  0  0  0
  6 91  1  0  0  0
  6 92  1  0  0  0
  7  8  2  0  0  0
  7 26  1  0  0  0
  7 29  1  0  0  0
  8  9  1  0  0  0
  8 22  1  0  0  0
  9 10  1  0  0  0
  9 27  2  0  0  0
 10 11  2  0  0  0
 10 15  1  0  0  0
 11 12  1  0  0  0
 11 93  1  0  0  0
 12 13  2  0  0  0
 12 94  1  0  0  0
 13 14  1  0  0  0
 13 31  1  0  0  0
 14 15  2  0  0  0
 14 95  1  0  0  0
 15 96  1  0  0  0
 16 17  2  0  0  0
 16 21  1  0  0  0
 16 31  1  0  0  0
 17 18  1  0  0  0
 17 97  1  0  0  0
 18 19  2  0  0  0
 18 98  1  0  0  0
 19 20  1  0  0  0
 19 24  1  0  0  0
 20 21  2  0  0  0
 20 99  1  0  0  0
 21 23  1  0  0  0
 22 28  1  0  0  0
 22 32  2  0  0  0
 26 27  1  0  0  0
 28100  1  0  0  0
 28101  1  0  0  0
 29102  1  0  0  0
 29103  1  0  0  0
 33 34  1  0  0  0
 33 66  1  0  0  0
 33 70  2  0  0  0
 34 36  1  0  0  0
 34 59  1  0  0  0
 34104  1  0  0  0
 35 44  2  0  0  0
 35 45  1  0  0  0
 35 68  1  0  0  0
 36 56  1  0  0  0
 36105  1  0  0  0
 37 39  1  0  0  0
 37 47  1  0  0  0
 37 66  1  0  0  0
 37106  1  0  0  0
 38 43  2  0  0  0
 38 46  1  0  0  0
 38 47  1  0  0  0
 39 64  1  0  0  0
 39 67  2  0  0  0
 40 52  1  0  0  0
 40 53  2  0  0  0
 40 58  1  0  0  0
 41107  1  0  0  0
 41108  1  0  0  0
 41109  1  0  0  0
 41 48  1  0  0  0
 42 43  1  0  0  0
 42 66  1  0  0  0
 42110  1  0  0  0
 42111  1  0  0  0
 43 44  1  0  0  0
 44112  1  0  0  0
 45 46  2  0  0  0
 45113  1  0  0  0
 46114  1  0  0  0
 47115  1  0  0  0
 47116  1  0  0  0
 48 56  1  0  0  0
 48 65  1  0  0  0
 48117  1  0  0  0
 49 50  1  0  0  0
 49 53  1  0  0  0
 49 64  1  0  0  0
 49118  1  0  0  0
 50 51  1  0  0  0
 50119  1  0  0  0
 50120  1  0  0  0
 51 52  1  0  0  0
 51121  1  0  0  0
 51122  1  0  0  0
 52123  1  0  0  0
 52124  1  0  0  0
 53 54  1  0  0  0
 54 55  2  0  0  0
 54125  1  0  0  0
 55 57  1  0  0  0
 55126  1  0  0  0
 56 69  2  0  0  0
 57 58  2  0  0  0
 57127  1  0  0  0
 58128  1  0  0  0
 59 60  1  0  0  0
 59 61  1  0  0  0
 59 62  1  0  0  0
 60129  1  0  0  0
 60130  1  0  0  0
 60131  1  0  0  0
 61132  1  0  0  0
 61133  1  0  0  0
 61134  1  0  0  0
 62135  1  0  0  0
 62136  1  0  0  0
 62137  1  0  0  0
 63 65  1  0  0  0
 63138  1  0  0  0
 63139  1  0  0  0
 63140  1  0  0  0
 64141  1  0  0  0
 65142  1  0  0  0
 68 79  1  0  0  0
 71 72  1  0  0  0
 71 73  2  0  0  0
 71143  1  0  0  0
 72 74  2  0  0  0
 72144  1  0  0  0
 73 78  1  0  0  0
 73 83  1  0  0  0
 74 81  1  0  0  0
 74 83  1  0  0  0
 75 78  1  0  0  0
 75 80  2  0  0  0
 75145  1  0  0  0
 76 79  1  0  0  0
 76 80  1  0  0  0
 76 82  2  0  0  0
 77146  1  0  0  0
 77147  1  0  0  0
 77148  1  0  0  0
 77 79  1  0  0  0
 78149  1  0  0  0
 78150  1  0  0  0
 79151  1  0  0  0
 81152  1  0  0  0
M  ISO  4   1 100  68 101  79 101  81 100
M  END
> <chiral flag>
0

> <version>
0

> <s_m_source_file>
/data/baiqing/PycharmProjects/Reinvent-master-3.2/result/LINK_invent/BTK/process_docking_weight1_custom_product_contain_oxygen_bond_distance_aromatic_linkinvent_7_9_3/rearranged_h_0183.sdf

> <i_m_source_file_index>
6

> <r_mmod_Potential_Energy-OPLS-2005>
13.6009902954102

> <r_mmod_Stretch_Energy-OPLS-2005>
56.1760520935059

> <r_mmod_Bend_Energy-OPLS-2005>
130.159591674805

> <r_mmod_Torsional_Energy-OPLS-2005>
248.763519287109

> <r_mmod_Improper_Torsional_Energy-OPLS-2005>
3.27506256103516

> <r_mmod_Van_der_Waal_Energy-OPLS-2005>
135.493911743164

> <r_mmod_Electrostatic_Energy-OPLS-2005>
-371.934234619141

> <r_mmod_Solvation_Energy-OPLS-2005>
-213.864852905273

> <b_mmod_Minimization_Converged-OPLS-2005>
0

> <r_mmod_RMS_Derivative-OPLS-2005>
1.72785592079163

$$$$
6
                    3D
 Structure written by MMmdl.
146154  0  0  1  0            999 V2000
  -30.4883  -15.0778   20.4012 C   0  0  0  0  0  0
  -30.4455  -12.6743   19.5097 C   0  0  0  0  0  0
  -29.5305  -12.5519   18.2672 C   0  0  0  0  0  0
  -28.0685  -12.3104   18.6862 C   0  0  0  0  0  0
  -27.6239  -13.2560   19.8306 C   0  0  2  0  0  0
  -28.6636  -13.3373   20.9689 C   0  0  0  0  0  0
  -25.2437  -13.8226   20.5703 C   0  0  0  0  0  0
  -24.1769  -13.0438   20.9238 C   0  0  0  0  0  0
  -24.6396  -11.6926   20.8752 C   0  0  0  0  0  0
  -23.9085  -10.4295   21.0403 C   0  0  0  0  0  0
  -24.3632   -9.4215   21.9187 C   0  0  0  0  0  0
  -23.6306   -8.2249   22.0760 C   0  0  0  0  0  0
  -22.4287   -8.0284   21.3550 C   0  0  0  0  0  0
  -21.9921   -9.0258   20.4649 C   0  0  0  0  0  0
  -22.7251  -10.2137   20.3058 C   0  0  0  0  0  0
  -21.6863   -6.0735   22.5279 C   0  0  0  0  0  0
  -21.4018   -6.5637   23.8212 C   0  0  0  0  0  0
  -21.3665   -5.6792   24.9177 C   0  0  0  0  0  0
  -21.6048   -4.3057   24.7225 C   0  0  0  0  0  0
  -21.8815   -3.8145   23.4343 C   0  0  0  0  0  0
  -21.9194   -4.6961   22.3400 C   0  0  0  0  0  0
  -22.7787  -13.5204   21.1895 C   0  0  0  0  0  0
  -22.1660   -4.2146   21.0980 F   0  0  0  0  0  0
  -21.5637   -3.4544   25.7739 F   0  0  0  0  0  0
  -29.9248  -13.7892   20.3635 N   0  0  0  0  0  0
  -26.2858  -12.9466   20.3210 N   0  0  0  0  0  0
  -25.9329  -11.6589   20.5714 N   0  0  0  0  0  0
  -22.0442  -12.8198   22.0451 N   0  0  0  0  0  0
  -25.4073  -15.1962   20.4104 N   0  0  0  0  0  0
  -31.7020  -15.1290   20.1606 O   0  0  0  0  0  0
  -21.6648   -6.8880   21.4244 O   0  0  0  0  0  0
  -22.3471  -14.5509   20.6733 O   0  0  0  0  0  0
  -24.6524  -31.8369   23.1816 C   0  0  0  0  0  0
  -25.9256  -32.4658   23.8238 C   0  0  1  0  0  0
  -27.2170  -27.0549   20.1692 C   0  0  0  0  0  0
  -25.5967  -33.8468   24.2147 N   0  0  0  0  0  0
  -23.4604  -30.4531   21.5289 C   0  0  2  0  0  0
  -24.9136  -28.8652   20.1135 C   0  0  0  0  0  0
  -22.7615  -29.4510   22.4836 C   0  0  0  0  0  0
  -18.0310  -28.1410   22.8466 C   0  0  0  0  0  0
  -24.1494  -36.7245   23.2640 C   0  0  0  0  0  0
  -26.0231  -30.6836   21.3948 C   0  0  0  0  0  0
  -26.0947  -29.2853   20.7408 C   0  0  0  0  0  0
  -27.2485  -28.3975   20.7515 C   0  0  0  0  0  0
  -26.0122  -26.7595   19.4964 C   0  0  0  0  0  0
  -24.8892  -27.6169   19.4743 C   0  0  0  0  0  0
  -23.6932  -29.7771   20.1516 C   0  0  0  0  0  0
  -25.4129  -36.3012   24.0303 C   0  0  1  0  0  0
  -20.5931  -28.3744   23.1222 C   0  0  2  0  0  0
  -20.6805  -26.9440   22.5408 C   0  0  0  0  0  0
  -19.5774  -26.6383   21.5224 C   0  0  0  0  0  0
  -18.1952  -26.7941   22.1629 C   0  0  0  0  0  0
  -19.1571  -28.8895   23.2831 C   0  0  0  0  0  0
  -18.9486  -30.1488   23.8857 C   0  0  0  0  0  0
  -17.6480  -30.6599   24.0562 C   0  0  0  0  0  0
  -25.9085  -34.9388   23.5038 C   0  0  0  0  0  0
  -16.5370  -29.9092   23.6339 C   0  0  0  0  0  0
  -16.7294  -28.6519   23.0344 C   0  0  0  0  0  0
  -26.4537  -31.6552   25.0716 C   0  0  0  0  0  0
  -25.3687  -31.3785   26.1387 C   0  0  0  0  0  0
  -27.0395  -30.2924   24.6365 C   0  0  0  0  0  0
  -27.6044  -32.4330   25.7519 C   0  0  0  0  0  0
  -27.5575  -37.1774   24.8458 C   0  0  0  0  0  0
  -21.4298  -29.3049   22.3582 N   0  0  0  0  0  0
  -26.4285  -37.3735   23.9401 N   0  0  0  0  0  0
  -24.7322  -31.0144   22.0896 N   0  0  0  0  0  0
  -23.4215  -28.8068   23.3031 O   0  0  0  0  0  0
  -28.2097  -25.9796   20.1976 O   0  0  0  0  0  0
  -26.5683  -34.8897   22.4625 O   0  0  0  0  0  0
  -23.5624  -32.1282   23.6988 O   0  0  0  0  0  0
  -29.5641  -20.6147   20.2830 C   0  0  0  0  0  0
  -30.8234  -19.9900   20.3611 C   0  0  0  0  0  0
  -29.7768  -17.8226   20.4229 C   0  0  0  0  0  0
  -27.8363  -24.6271   20.6866 C   0  0  0  0  0  0
  -29.2384  -22.2010   20.0077 C   0  0  0  0  0  0
  -28.1733  -23.2087   20.6732 C   0  0  0  0  0  0
  -30.9200  -18.5441   20.4392 N   0  0  0  0  0  0
  -32.0462  -20.6656   20.3569 N   0  0  0  0  0  0
  -29.6590  -16.2591   20.5001 N   0  0  0  0  0  0
  -29.9753  -22.7259   19.1684 O   0  0  0  0  0  0
  -27.3603  -22.4749   21.4489 O   0  0  0  0  0  0
  -28.4442  -19.1487   20.3314 S   0  0  0  0  0  0
  -31.4732  -12.8560   19.1928 H   0  0  0  0  0  0
  -30.4700  -11.7374   20.0684 H   0  0  0  0  0  0
  -29.8735  -11.7447   17.6188 H   0  0  0  0  0  0
  -29.5953  -13.4674   17.6772 H   0  0  0  0  0  0
  -27.9892  -11.2741   19.0151 H   0  0  0  0  0  0
  -27.4047  -12.4094   17.8263 H   0  0  0  0  0  0
  -27.5681  -14.2449   19.3754 H   0  0  0  0  0  0
  -28.7825  -12.3755   21.4696 H   0  0  0  0  0  0
  -28.3369  -14.0455   21.7323 H   0  0  0  0  0  0
  -25.2771   -9.5702   22.4767 H   0  0  0  0  0  0
  -24.0017   -7.4643   22.7476 H   0  0  0  0  0  0
  -21.0856   -8.8768   19.8952 H   0  0  0  0  0  0
  -22.3699  -10.9675   19.6169 H   0  0  0  0  0  0
  -21.2005   -7.6145   23.9717 H   0  0  0  0  0  0
  -21.1499   -6.0524   25.9083 H   0  0  0  0  0  0
  -22.0587   -2.7604   23.2848 H   0  0  0  0  0  0
  -22.4057  -11.9868   22.4848 H   0  0  0  0  0  0
  -21.1053  -13.1218   22.2642 H   0  0  0  0  0  0
  -24.6267  -15.8371   20.5055 H   0  0  0  0  0  0
  -26.2288  -15.6360   20.0177 H   0  0  0  0  0  0
  -26.7322  -32.5237   23.0959 H   0  0  0  0  0  0
  -25.0060  -33.9569   25.0256 H   0  0  0  0  0  0
  -22.7664  -31.2805   21.3672 H   0  0  0  0  0  0
  -23.3757  -35.9577   23.3291 H   0  0  0  0  0  0
  -24.3574  -36.8898   22.2059 H   0  0  0  0  0  0
  -23.7252  -37.6433   23.6696 H   0  0  0  0  0  0
  -26.1880  -31.4312   20.6179 H   0  0  0  0  0  0
  -26.8899  -30.7381   22.0416 H   0  0  0  0  0  0
  -28.1450  -28.7142   21.2657 H   0  0  0  0  0  0
  -25.9179  -25.7991   19.0095 H   0  0  0  0  0  0
  -23.9904  -27.2880   18.9705 H   0  0  0  0  0  0
  -23.8374  -30.5489   19.3948 H   0  0  0  0  0  0
  -22.8060  -29.2237   19.8393 H   0  0  0  0  0  0
  -25.1326  -36.1826   25.0797 H   0  0  0  0  0  0
  -21.0014  -28.3348   24.1347 H   0  0  0  0  0  0
  -20.5724  -26.2358   23.3640 H   0  0  0  0  0  0
  -21.6670  -26.7452   22.1192 H   0  0  0  0  0  0
  -19.6944  -25.6285   21.1278 H   0  0  0  0  0  0
  -19.6718  -27.3178   20.6744 H   0  0  0  0  0  0
  -17.4229  -26.6679   21.4026 H   0  0  0  0  0  0
  -18.0340  -26.0099   22.9042 H   0  0  0  0  0  0
  -19.7961  -30.7320   24.2208 H   0  0  0  0  0  0
  -17.5031  -31.6272   24.5181 H   0  0  0  0  0  0
  -15.5370  -30.2987   23.7685 H   0  0  0  0  0  0
  -15.8693  -28.0839   22.7061 H   0  0  0  0  0  0
  -24.5860  -30.7144   25.7701 H   0  0  0  0  0  0
  -24.8884  -32.2989   26.4723 H   0  0  0  0  0  0
  -25.7936  -30.9005   27.0222 H   0  0  0  0  0  0
  -26.3028  -29.6638   24.1350 H   0  0  0  0  0  0
  -27.3925  -29.7251   25.4986 H   0  0  0  0  0  0
  -27.8980  -30.4110   23.9752 H   0  0  0  0  0  0
  -27.2610  -33.3646   26.2030 H   0  0  0  0  0  0
  -28.3905  -32.6866   25.0395 H   0  0  0  0  0  0
  -28.0653  -31.8497   26.5502 H   0  0  0  0  0  0
  -28.2586  -38.0075   24.7498 H   0  0  0  0  0  0
  -28.1075  -36.2602   24.6291 H   0  0  0  0  0  0
  -27.2291  -37.1431   25.8861 H   0  0  0  0  0  0
  -20.9537  -29.8732   21.6716 H   0  0  0  0  0  0
  -26.0146  -38.2799   24.1404 H   0  0  0  0  0  0
  -26.9798  -24.8236   21.3170 H   0  0  0  0  0  0
  -32.0689  -21.6257   20.0270 H   0  0  0  0  0  0
  -32.8940  -20.1428   20.1658 H   0  0  0  0  0  0
  -28.6990  -15.9810   20.6233 H   0  0  0  0  0  0
  -26.7351  -23.0631   21.8491 H   0  0  0  0  0  0
  1 25  1  0  0  0
  1 30  2  0  0  0
  1 79  1  0  0  0
  2  3  1  0  0  0
  2 25  1  0  0  0
  2 83  1  0  0  0
  2 84  1  0  0  0
  3  4  1  0  0  0
  3 85  1  0  0  0
  3 86  1  0  0  0
  4  5  1  0  0  0
  4 87  1  0  0  0
  4 88  1  0  0  0
  5  6  1  0  0  0
  5 26  1  0  0  0
  5 89  1  0  0  0
  6 25  1  0  0  0
  6 90  1  0  0  0
  6 91  1  0  0  0
  7  8  2  0  0  0
  7 26  1  0  0  0
  7 29  1  0  0  0
  8  9  1  0  0  0
  8 22  1  0  0  0
  9 10  1  0  0  0
  9 27  2  0  0  0
 10 11  2  0  0  0
 10 15  1  0  0  0
 11 12  1  0  0  0
 11 92  1  0  0  0
 12 13  2  0  0  0
 12 93  1  0  0  0
 13 14  1  0  0  0
 13 31  1  0  0  0
 14 15  2  0  0  0
 14 94  1  0  0  0
 15 95  1  0  0  0
 16 17  2  0  0  0
 16 21  1  0  0  0
 16 31  1  0  0  0
 17 18  1  0  0  0
 17 96  1  0  0  0
 18 19  2  0  0  0
 18 97  1  0  0  0
 19 20  1  0  0  0
 19 24  1  0  0  0
 20 21  2  0  0  0
 20 98  1  0  0  0
 21 23  1  0  0  0
 22 28  1  0  0  0
 22 32  2  0  0  0
 26 27  1  0  0  0
 28 99  1  0  0  0
 28100  1  0  0  0
 29101  1  0  0  0
 29102  1  0  0  0
 33 34  1  0  0  0
 33 66  1  0  0  0
 33 70  2  0  0  0
 34 36  1  0  0  0
 34 59  1  0  0  0
 34103  1  0  0  0
 35 44  2  0  0  0
 35 45  1  0  0  0
 35 68  1  0  0  0
 36 56  1  0  0  0
 36104  1  0  0  0
 37 39  1  0  0  0
 37 47  1  0  0  0
 37 66  1  0  0  0
 37105  1  0  0  0
 38 43  2  0  0  0
 38 46  1  0  0  0
 38 47  1  0  0  0
 39 64  1  0  0  0
 39 67  2  0  0  0
 40 52  1  0  0  0
 40 53  2  0  0  0
 40 58  1  0  0  0
 41106  1  0  0  0
 41107  1  0  0  0
 41108  1  0  0  0
 41 48  1  0  0  0
 42 43  1  0  0  0
 42 66  1  0  0  0
 42109  1  0  0  0
 42110  1  0  0  0
 43 44  1  0  0  0
 44111  1  0  0  0
 45 46  2  0  0  0
 45112  1  0  0  0
 46113  1  0  0  0
 47114  1  0  0  0
 47115  1  0  0  0
 48 56  1  0  0  0
 48 65  1  0  0  0
 48116  1  0  0  0
 49 50  1  0  0  0
 49 53  1  0  0  0
 49 64  1  0  0  0
 49117  1  0  0  0
 50 51  1  0  0  0
 50118  1  0  0  0
 50119  1  0  0  0
 51 52  1  0  0  0
 51120  1  0  0  0
 51121  1  0  0  0
 52122  1  0  0  0
 52123  1  0  0  0
 53 54  1  0  0  0
 54 55  2  0  0  0
 54124  1  0  0  0
 55 57  1  0  0  0
 55125  1  0  0  0
 56 69  2  0  0  0
 57 58  2  0  0  0
 57126  1  0  0  0
 58127  1  0  0  0
 59 60  1  0  0  0
 59 61  1  0  0  0
 59 62  1  0  0  0
 60128  1  0  0  0
 60129  1  0  0  0
 60130  1  0  0  0
 61131  1  0  0  0
 61132  1  0  0  0
 61133  1  0  0  0
 62134  1  0  0  0
 62135  1  0  0  0
 62136  1  0  0  0
 63 65  1  0  0  0
 63137  1  0  0  0
 63138  1  0  0  0
 63139  1  0  0  0
 64140  1  0  0  0
 65141  1  0  0  0
 68 74  1  0  0  0
 71 72  2  0  0  0
 71 75  1  0  0  0
 71 82  1  0  0  0
 72 77  1  0  0  0
 72 78  1  0  0  0
 73 77  2  0  0  0
 73 79  1  0  0  0
 73 82  1  0  0  0
 74 76  2  0  0  0
 74142  1  0  0  0
 75 76  1  0  0  0
 75 80  2  0  0  0
 76 81  1  0  0  0
 78143  1  0  0  0
 78144  1  0  0  0
 79145  1  0  0  0
 81146  1  0  0  0
M  ISO  4   1 100  68 101  74 101  79 100
M  END
> <chiral flag>
0

> <version>
0

> <s_m_source_file>
/data/baiqing/PycharmProjects/Reinvent-master-3.2/result/LINK_invent/BTK/process_docking_weight1_custom_product_contain_oxygen_bond_distance_aromatic_linkinvent_7_9_3/rearranged_h_0183.sdf

> <i_m_source_file_index>
7

> <r_mmod_Potential_Energy-OPLS-2005>
718.140014648438

> <r_mmod_Stretch_Energy-OPLS-2005>
323.909973144531

> <r_mmod_Bend_Energy-OPLS-2005>
399.574829101562

> <r_mmod_Torsional_Energy-OPLS-2005>
215.747268676758

> <r_mmod_Improper_Torsional_Energy-OPLS-2005>
8.14681816101074

> <r_mmod_Van_der_Waal_Energy-OPLS-2005>
108.499015808105

> <r_mmod_Electrostatic_Energy-OPLS-2005>
-374.875274658203

> <r_mmod_Solvation_Energy-OPLS-2005>
-253.550384521484

> <b_mmod_Minimization_Converged-OPLS-2005>
0

> <r_mmod_RMS_Derivative-OPLS-2005>
1.06946301460266

$$$$
7
                    3D
 Structure written by MMmdl.
159167  0  0  1  0            999 V2000
  -30.6916  -14.4330   20.6448 C   0  0  0  0  0  0
  -30.4363  -12.3104   19.3988 C   0  0  0  0  0  0
  -29.4957  -12.5335   18.1949 C   0  0  0  0  0  0
  -28.0146  -12.3964   18.6035 C   0  0  0  0  0  0
  -27.6706  -13.2019   19.8846 C   0  0  2  0  0  0
  -28.7088  -12.9168   20.9918 C   0  0  0  0  0  0
  -25.2613  -13.8148   20.5650 C   0  0  0  0  0  0
  -24.1862  -13.0440   20.9155 C   0  0  0  0  0  0
  -24.6408  -11.6903   20.8728 C   0  0  0  0  0  0
  -23.9073  -10.4293   21.0400 C   0  0  0  0  0  0
  -24.3626   -9.4212   21.9180 C   0  0  0  0  0  0
  -23.6300   -8.2252   22.0755 C   0  0  0  0  0  0
  -22.4280   -8.0289   21.3552 C   0  0  0  0  0  0
  -21.9915   -9.0263   20.4652 C   0  0  0  0  0  0
  -22.7243  -10.2142   20.3056 C   0  0  0  0  0  0
  -21.6846   -6.0744   22.5280 C   0  0  0  0  0  0
  -21.4005   -6.5641   23.8214 C   0  0  0  0  0  0
  -21.3662   -5.6791   24.9172 C   0  0  0  0  0  0
  -21.6042   -4.3055   24.7216 C   0  0  0  0  0  0
  -21.8822   -3.8152   23.4336 C   0  0  0  0  0  0
  -21.9189   -4.6972   22.3396 C   0  0  0  0  0  0
  -22.7883  -13.5236   21.1826 C   0  0  0  0  0  0
  -22.1656   -4.2161   21.0973 F   0  0  0  0  0  0
  -21.5639   -3.4538   25.7732 F   0  0  0  0  0  0
  -30.0499  -13.2451   20.4680 N   0  0  0  0  0  0
  -26.3068  -12.9317   20.3387 N   0  0  0  0  0  0
  -25.9338  -11.6477   20.5761 N   0  0  0  0  0  0
  -22.0505  -12.8253   22.0383 N   0  0  0  0  0  0
  -25.4318  -15.1869   20.4042 N   0  0  0  0  0  0
  -31.7403  -14.7266   20.0575 O   0  0  0  0  0  0
  -21.6638   -6.8895   21.4251 O   0  0  0  0  0  0
  -22.3580  -14.5538   20.6658 O   0  0  0  0  0  0
  -24.6155  -31.8687   23.2091 C   0  0  0  0  0  0
  -25.9073  -32.4810   23.8372 C   0  0  1  0  0  0
  -27.2324  -27.4184   20.0727 C   0  0  0  0  0  0
  -25.5970  -33.8608   24.2330 N   0  0  0  0  0  0
  -23.4011  -30.4941   21.5519 C   0  0  2  0  0  0
  -24.8434  -28.9617   20.1123 C   0  0  0  0  0  0
  -22.7407  -29.4682   22.4997 C   0  0  0  0  0  0
  -18.0266  -28.1391   22.8507 C   0  0  0  0  0  0
  -24.1500  -36.7262   23.2631 C   0  0  0  0  0  0
  -25.9336  -30.8230   21.3696 C   0  0  0  0  0  0
  -26.0051  -29.4584   20.7130 C   0  0  0  0  0  0
  -27.1933  -28.6905   20.6993 C   0  0  0  0  0  0
  -26.0438  -26.9474   19.4688 C   0  0  0  0  0  0
  -24.8588  -27.7035   19.4927 C   0  0  0  0  0  0
  -23.6062  -29.8291   20.1654 C   0  0  0  0  0  0
  -25.4129  -36.3096   24.0341 C   0  0  1  0  0  0
  -20.5863  -28.3671   23.1337 C   0  0  2  0  0  0
  -20.6759  -26.9413   22.5433 C   0  0  0  0  0  0
  -19.5738  -26.6412   21.5224 C   0  0  0  0  0  0
  -18.1913  -26.7944   22.1625 C   0  0  0  0  0  0
  -19.1518  -28.8847   23.2923 C   0  0  0  0  0  0
  -18.9455  -30.1455   23.8935 C   0  0  0  0  0  0
  -17.6460  -30.6600   24.0582 C   0  0  0  0  0  0
  -25.9065  -34.9468   23.5122 C   0  0  0  0  0  0
  -16.5348  -29.9109   23.6340 C   0  0  0  0  0  0
  -16.7262  -28.6524   23.0366 C   0  0  0  0  0  0
  -26.4500  -31.6559   25.0688 C   0  0  0  0  0  0
  -25.3765  -31.3647   26.1431 C   0  0  0  0  0  0
  -27.0294  -30.2989   24.6042 C   0  0  0  0  0  0
  -27.6106  -32.4232   25.7455 C   0  0  0  0  0  0
  -27.5585  -37.1784   24.8481 C   0  0  0  0  0  0
  -21.4138  -29.3038   22.3731 N   0  0  0  0  0  0
  -26.4305  -37.3797   23.9420 N   0  0  0  0  0  0
  -24.6681  -31.0772   22.1004 N   0  0  0  0  0  0
  -23.4179  -28.8233   23.3052 O   0  0  0  0  0  0
  -28.4273  -26.7108   20.1096 O   0  0  0  0  0  0
  -26.5611  -34.8923   22.4674 O   0  0  0  0  0  0
  -23.5364  -32.1461   23.7503 O   0  0  0  0  0  0
  -28.5670  -18.7873   21.5375 C   0  0  0  0  0  0
  -29.3943  -18.6390   20.4461 C   0  0  0  0  0  0
  -29.7193  -16.5977   21.4110 C   0  0  0  0  0  0
  -28.1726  -21.3396   21.7840 C   0  0  0  0  0  0
  -28.2823  -23.4524   20.8925 C   0  0  0  0  0  0
  -28.6009  -25.9612   17.7833 C   0  0  0  0  0  0
  -30.2698  -25.3869   19.4910 C   0  0  0  0  0  0
  -27.6337  -19.9168   21.9027 C   0  0  0  0  0  0
  -27.9900  -24.2225   19.5847 C   0  0  0  0  0  0
  -28.7493  -25.5702   19.2746 C   0  0  0  0  0  0
  -30.0508  -17.4020   20.3912 N   0  0  0  0  0  0
  -27.8645  -22.1244   20.8206 N   0  0  0  0  0  0
  -29.5842  -19.5701   19.4294 N   0  0  0  0  0  0
  -30.1143  -15.2381   21.5534 N   0  0  0  0  0  0
  -28.7939  -24.0281   21.8556 O   0  0  0  0  0  0
  -28.6073  -17.3541   22.5433 S   0  0  0  0  0  0
  -31.4752  -12.4419   19.0896 H   0  0  0  0  0  0
  -30.3642  -11.2815   19.7559 H   0  0  0  0  0  0
  -29.7296  -11.8249   17.3996 H   0  0  0  0  0  0
  -29.6695  -13.5263   17.7764 H   0  0  0  0  0  0
  -27.8057  -11.3381   18.7596 H   0  0  0  0  0  0
  -27.3705  -12.7127   17.7823 H   0  0  0  0  0  0
  -27.7344  -14.2607   19.6343 H   0  0  0  0  0  0
  -28.6824  -11.8616   21.2649 H   0  0  0  0  0  0
  -28.4507  -13.4498   21.9068 H   0  0  0  0  0  0
  -25.2777   -9.5673   22.4751 H   0  0  0  0  0  0
  -24.0002   -7.4635   22.7465 H   0  0  0  0  0  0
  -21.0849   -8.8780   19.8957 H   0  0  0  0  0  0
  -22.3704  -10.9684   19.6163 H   0  0  0  0  0  0
  -21.1990   -7.6147   23.9722 H   0  0  0  0  0  0
  -21.1484   -6.0515   25.9079 H   0  0  0  0  0  0
  -22.0601   -2.7616   23.2822 H   0  0  0  0  0  0
  -22.4112  -11.9934   22.4814 H   0  0  0  0  0  0
  -21.1121  -13.1295   22.2559 H   0  0  0  0  0  0
  -24.6590  -15.8362   20.5021 H   0  0  0  0  0  0
  -26.2748  -15.6263   20.0579 H   0  0  0  0  0  0
  -26.7136  -32.5497   23.1120 H   0  0  0  0  0  0
  -25.0177  -33.9776   25.0517 H   0  0  0  0  0  0
  -22.6887  -31.3110   21.4184 H   0  0  0  0  0  0
  -23.3776  -35.9576   23.3333 H   0  0  0  0  0  0
  -24.3587  -36.8820   22.2030 H   0  0  0  0  0  0
  -23.7242  -37.6481   23.6608 H   0  0  0  0  0  0
  -26.0612  -31.5918   20.6067 H   0  0  0  0  0  0
  -26.8163  -30.8654   21.9947 H   0  0  0  0  0  0
  -28.0882  -29.0743   21.1695 H   0  0  0  0  0  0
  -25.9871  -26.0078   18.9525 H   0  0  0  0  0  0
  -23.9678  -27.3137   19.0191 H   0  0  0  0  0  0
  -23.7066  -30.6044   19.4056 H   0  0  0  0  0  0
  -22.7281  -29.2500   19.8745 H   0  0  0  0  0  0
  -25.1302  -36.1941   25.0835 H   0  0  0  0  0  0
  -20.9959  -28.3234   24.1451 H   0  0  0  0  0  0
  -20.5676  -26.2265   23.3610 H   0  0  0  0  0  0
  -21.6624  -26.7467   22.1207 H   0  0  0  0  0  0
  -19.6897  -25.6343   21.1213 H   0  0  0  0  0  0
  -19.6675  -27.3257   20.6785 H   0  0  0  0  0  0
  -17.4185  -26.6729   21.4021 H   0  0  0  0  0  0
  -18.0289  -26.0083   22.9009 H   0  0  0  0  0  0
  -19.7939  -30.7264   24.2303 H   0  0  0  0  0  0
  -17.5026  -31.6281   24.5186 H   0  0  0  0  0  0
  -15.5355  -30.3025   23.7663 H   0  0  0  0  0  0
  -15.8657  -28.0863   22.7064 H   0  0  0  0  0  0
  -24.6037  -30.6879   25.7769 H   0  0  0  0  0  0
  -24.8845  -32.2774   26.4799 H   0  0  0  0  0  0
  -25.8148  -30.8914   27.0229 H   0  0  0  0  0  0
  -26.2843  -29.6818   24.1007 H   0  0  0  0  0  0
  -27.3965  -29.7149   25.4492 H   0  0  0  0  0  0
  -27.8737  -30.4284   23.9258 H   0  0  0  0  0  0
  -27.2791  -33.3565   26.2017 H   0  0  0  0  0  0
  -28.3942  -32.6703   25.0276 H   0  0  0  0  0  0
  -28.0740  -31.8331   26.5377 H   0  0  0  0  0  0
  -28.2615  -38.0069   24.7560 H   0  0  0  0  0  0
  -28.1073  -36.2615   24.6287 H   0  0  0  0  0  0
  -27.2297  -37.1397   25.8879 H   0  0  0  0  0  0
  -20.9281  -29.8719   21.6939 H   0  0  0  0  0  0
  -26.0180  -38.2861   24.1457 H   0  0  0  0  0  0
  -28.8229  -21.6293   22.6160 H   0  0  0  0  0  0
  -27.5740  -26.1312   17.4700 H   0  0  0  0  0  0
  -28.9989  -25.1837   17.1303 H   0  0  0  0  0  0
  -29.1550  -26.8752   17.5625 H   0  0  0  0  0  0
  -30.6536  -24.5373   18.9230 H   0  0  0  0  0  0
  -30.5346  -25.2265   20.5347 H   0  0  0  0  0  0
  -30.8268  -26.2680   19.1714 H   0  0  0  0  0  0
  -27.3073  -19.7870   22.9341 H   0  0  0  0  0  0
  -26.7248  -19.8329   21.3061 H   0  0  0  0  0  0
  -26.9116  -24.3237   19.5336 H   0  0  0  0  0  0
  -28.2329  -23.5315   18.7765 H   0  0  0  0  0  0
  -29.0294  -20.4197   19.3845 H   0  0  0  0  0  0
  -30.1498  -19.3659   18.6131 H   0  0  0  0  0  0
  -29.5374  -14.7309   22.2048 H   0  0  0  0  0  0
  1 25  1  0  0  0
  1 30  2  0  0  0
  1 84  1  0  0  0
  2  3  1  0  0  0
  2 25  1  0  0  0
  2 87  1  0  0  0
  2 88  1  0  0  0
  3  4  1  0  0  0
  3 89  1  0  0  0
  3 90  1  0  0  0
  4  5  1  0  0  0
  4 91  1  0  0  0
  4 92  1  0  0  0
  5  6  1  0  0  0
  5 26  1  0  0  0
  5 93  1  0  0  0
  6 25  1  0  0  0
  6 94  1  0  0  0
  6 95  1  0  0  0
  7  8  2  0  0  0
  7 26  1  0  0  0
  7 29  1  0  0  0
  8  9  1  0  0  0
  8 22  1  0  0  0
  9 10  1  0  0  0
  9 27  2  0  0  0
 10 11  2  0  0  0
 10 15  1  0  0  0
 11 12  1  0  0  0
 11 96  1  0  0  0
 12 13  2  0  0  0
 12 97  1  0  0  0
 13 14  1  0  0  0
 13 31  1  0  0  0
 14 15  2  0  0  0
 14 98  1  0  0  0
 15 99  1  0  0  0
 16 17  2  0  0  0
 16 21  1  0  0  0
 16 31  1  0  0  0
 17 18  1  0  0  0
 17100  1  0  0  0
 18 19  2  0  0  0
 18101  1  0  0  0
 19 20  1  0  0  0
 19 24  1  0  0  0
 20 21  2  0  0  0
 20102  1  0  0  0
 21 23  1  0  0  0
 22 28  1  0  0  0
 22 32  2  0  0  0
 26 27  1  0  0  0
 28103  1  0  0  0
 28104  1  0  0  0
 29105  1  0  0  0
 29106  1  0  0  0
 33 34  1  0  0  0
 33 66  1  0  0  0
 33 70  2  0  0  0
 34 36  1  0  0  0
 34 59  1  0  0  0
 34107  1  0  0  0
 35 44  2  0  0  0
 35 45  1  0  0  0
 35 68  1  0  0  0
 36 56  1  0  0  0
 36108  1  0  0  0
 37 39  1  0  0  0
 37 47  1  0  0  0
 37 66  1  0  0  0
 37109  1  0  0  0
 38 43  2  0  0  0
 38 46  1  0  0  0
 38 47  1  0  0  0
 39 64  1  0  0  0
 39 67  2  0  0  0
 40 52  1  0  0  0
 40 53  2  0  0  0
 40 58  1  0  0  0
 41110  1  0  0  0
 41111  1  0  0  0
 41112  1  0  0  0
 41 48  1  0  0  0
 42 43  1  0  0  0
 42 66  1  0  0  0
 42113  1  0  0  0
 42114  1  0  0  0
 43 44  1  0  0  0
 44115  1  0  0  0
 45 46  2  0  0  0
 45116  1  0  0  0
 46117  1  0  0  0
 47118  1  0  0  0
 47119  1  0  0  0
 48 56  1  0  0  0
 48 65  1  0  0  0
 48120  1  0  0  0
 49 50  1  0  0  0
 49 53  1  0  0  0
 49 64  1  0  0  0
 49121  1  0  0  0
 50 51  1  0  0  0
 50122  1  0  0  0
 50123  1  0  0  0
 51 52  1  0  0  0
 51124  1  0  0  0
 51125  1  0  0  0
 52126  1  0  0  0
 52127  1  0  0  0
 53 54  1  0  0  0
 54 55  2  0  0  0
 54128  1  0  0  0
 55 57  1  0  0  0
 55129  1  0  0  0
 56 69  2  0  0  0
 57 58  2  0  0  0
 57130  1  0  0  0
 58131  1  0  0  0
 59 60  1  0  0  0
 59 61  1  0  0  0
 59 62  1  0  0  0
 60132  1  0  0  0
 60133  1  0  0  0
 60134  1  0  0  0
 61135  1  0  0  0
 61136  1  0  0  0
 61137  1  0  0  0
 62138  1  0  0  0
 62139  1  0  0  0
 62140  1  0  0  0
 63 65  1  0  0  0
 63141  1  0  0  0
 63142  1  0  0  0
 63143  1  0  0  0
 64144  1  0  0  0
 65145  1  0  0  0
 68 80  1  0  0  0
 71 72  2  0  0  0
 71 78  1  0  0  0
 71 86  1  0  0  0
 72 81  1  0  0  0
 72 83  1  0  0  0
 73 81  2  0  0  0
 73 84  1  0  0  0
 73 86  1  0  0  0
 74 78  1  0  0  0
 74 82  2  0  0  0
 74146  1  0  0  0
 75 79  1  0  0  0
 75 82  1  0  0  0
 75 85  2  0  0  0
 76147  1  0  0  0
 76148  1  0  0  0
 76149  1  0  0  0
 76 80  1  0  0  0
 77 80  1  0  0  0
 77150  1  0  0  0
 77151  1  0  0  0
 77152  1  0  0  0
 78153  1  0  0  0
 78154  1  0  0  0
 79 80  1  0  0  0
 79155  1  0  0  0
 79156  1  0  0  0
 83157  1  0  0  0
 83158  1  0  0  0
 84159  1  0  0  0
M  ISO  4   1 100  68 101  80 101  84 100
M  END
> <chiral flag>
0

> <version>
0

> <s_m_source_file>
/data/baiqing/PycharmProjects/Reinvent-master-3.2/result/LINK_invent/BTK/process_docking_weight1_custom_product_contain_oxygen_bond_distance_aromatic_linkinvent_7_9_3/rearranged_h_0183.sdf

> <i_m_source_file_index>
8

> <r_mmod_Potential_Energy-OPLS-2005>
-204.799179077148

> <r_mmod_Stretch_Energy-OPLS-2005>
41.9946136474609

> <r_mmod_Bend_Energy-OPLS-2005>
151.353500366211

> <r_mmod_Torsional_Energy-OPLS-2005>
186.325241088867

> <r_mmod_Improper_Torsional_Energy-OPLS-2005>
5.30486965179443

> <r_mmod_Van_der_Waal_Energy-OPLS-2005>
141.735488891602

> <r_mmod_Electrostatic_Energy-OPLS-2005>
-513.390808105469

> <r_mmod_Solvation_Energy-OPLS-2005>
-229.850082397461

> <b_mmod_Minimization_Converged-OPLS-2005>
0

> <r_mmod_RMS_Derivative-OPLS-2005>
2.40368580818176

$$$$
8
                    3D
 Structure written by MMmdl.
150158  0  0  1  0            999 V2000
  -30.6026  -14.7861   20.4727 C   0  0  0  0  0  0
  -30.4355  -12.4762   19.4955 C   0  0  0  0  0  0
  -29.5205  -12.5188   18.2509 C   0  0  0  0  0  0
  -28.0456  -12.3348   18.6564 C   0  0  0  0  0  0
  -27.6437  -13.2382   19.8524 C   0  0  2  0  0  0
  -28.6835  -13.1873   20.9915 C   0  0  0  0  0  0
  -25.2522  -13.8210   20.5701 C   0  0  0  0  0  0
  -24.1809  -13.0446   20.9189 C   0  0  0  0  0  0
  -24.6404  -11.6926   20.8730 C   0  0  0  0  0  0
  -23.9077  -10.4302   21.0396 C   0  0  0  0  0  0
  -24.3625   -9.4219   21.9178 C   0  0  0  0  0  0
  -23.6302   -8.2254   22.0749 C   0  0  0  0  0  0
  -22.4286   -8.0286   21.3539 C   0  0  0  0  0  0
  -21.9919   -9.0260   20.4641 C   0  0  0  0  0  0
  -22.7245  -10.2141   20.3048 C   0  0  0  0  0  0
  -21.6859   -6.0740   22.5280 C   0  0  0  0  0  0
  -21.4017   -6.5643   23.8213 C   0  0  0  0  0  0
  -21.3659   -5.6793   24.9175 C   0  0  0  0  0  0
  -21.6046   -4.3057   24.7222 C   0  0  0  0  0  0
  -21.8819   -3.8148   23.4343 C   0  0  0  0  0  0
  -21.9195   -4.6967   22.3401 C   0  0  0  0  0  0
  -22.7832  -13.5228   21.1860 C   0  0  0  0  0  0
  -22.1663   -4.2151   21.0978 F   0  0  0  0  0  0
  -21.5628   -3.4539   25.7735 F   0  0  0  0  0  0
  -29.9890  -13.5470   20.4235 N   0  0  0  0  0  0
  -26.2953  -12.9427   20.3285 N   0  0  0  0  0  0
  -25.9338  -11.6559   20.5738 N   0  0  0  0  0  0
  -22.0483  -12.8215   22.0416 N   0  0  0  0  0  0
  -25.4233  -15.1934   20.4163 N   0  0  0  0  0  0
  -31.7634  -14.8607   20.0631 O   0  0  0  0  0  0
  -21.6645   -6.8883   21.4242 O   0  0  0  0  0  0
  -22.3509  -14.5530   20.6708 O   0  0  0  0  0  0
  -24.6357  -31.8520   23.1971 C   0  0  0  0  0  0
  -25.9167  -32.4737   23.8322 C   0  0  1  0  0  0
  -27.2134  -27.2138   20.1199 C   0  0  0  0  0  0
  -25.5945  -33.8541   24.2239 N   0  0  0  0  0  0
  -23.4346  -30.4758   21.5420 C   0  0  2  0  0  0
  -24.8809  -28.9231   20.1061 C   0  0  0  0  0  0
  -22.7524  -29.4584   22.4897 C   0  0  0  0  0  0
  -18.0296  -28.1388   22.8488 C   0  0  0  0  0  0
  -24.1493  -36.7272   23.2642 C   0  0  0  0  0  0
  -25.9863  -30.7459   21.3899 C   0  0  0  0  0  0
  -26.0543  -29.3665   20.7276 C   0  0  0  0  0  0
  -27.2175  -28.5221   20.7310 C   0  0  0  0  0  0
  -26.0199  -26.8710   19.4405 C   0  0  0  0  0  0
  -24.8727  -27.6854   19.4518 C   0  0  0  0  0  0
  -23.6547  -29.8144   20.1570 C   0  0  0  0  0  0
  -25.4123  -36.3058   24.0324 C   0  0  1  0  0  0
  -20.5903  -28.3705   23.1256 C   0  0  2  0  0  0
  -20.6784  -26.9417   22.5405 C   0  0  0  0  0  0
  -19.5757  -26.6383   21.5214 C   0  0  0  0  0  0
  -18.1939  -26.7928   22.1628 C   0  0  0  0  0  0
  -19.1550  -28.8865   23.2866 C   0  0  0  0  0  0
  -18.9469  -30.1465   23.8886 C   0  0  0  0  0  0
  -17.6467  -30.6589   24.0560 C   0  0  0  0  0  0
  -25.9065  -34.9430   23.5084 C   0  0  0  0  0  0
  -16.5358  -29.9084   23.6333 C   0  0  0  0  0  0
  -16.7281  -28.6501   23.0356 C   0  0  0  0  0  0
  -26.4513  -31.6574   25.0733 C   0  0  0  0  0  0
  -25.3714  -31.3744   26.1437 C   0  0  0  0  0  0
  -27.0372  -30.2978   24.6271 C   0  0  0  0  0  0
  -27.6055  -32.4330   25.7508 C   0  0  0  0  0  0
  -27.5577  -37.1796   24.8466 C   0  0  0  0  0  0
  -21.4226  -29.3046   22.3640 N   0  0  0  0  0  0
  -26.4292  -37.3763   23.9403 N   0  0  0  0  0  0
  -24.7047  -31.0438   22.0980 N   0  0  0  0  0  0
  -23.4203  -28.8123   23.3012 O   0  0  0  0  0  0
  -28.2880  -26.2780   20.2258 O   0  0  0  0  0  0
  -26.5641  -34.8910   22.4657 O   0  0  0  0  0  0
  -23.5496  -32.1375   23.7231 O   0  0  0  0  0  0
  -29.5248  -18.5888   20.7767 C   0  0  0  0  0  0
  -28.9472  -18.8474   22.0155 C   0  0  0  0  0  0
  -29.0747  -20.9738   20.6429 C   0  0  0  0  0  0
  -30.0735  -17.1532   20.3864 C   0  0  0  0  0  0
  -28.7168  -23.5969   20.5792 C   0  0  0  0  0  0
  -28.8884  -24.8721   18.3020 C   0  0  0  0  0  0
  -28.2115  -24.8522   19.6812 C   0  0  2  0  0  0
  -29.5518  -19.8380   20.0187 N   0  0  0  0  0  0
  -29.8246  -15.9382   20.8738 N   0  0  0  0  0  0
  -28.6868  -17.9725   23.0715 N   0  0  0  0  0  0
  -28.9234  -22.3270   20.0271 N   0  0  0  0  0  0
  -28.9003  -23.7930   21.7830 O   0  0  0  0  0  0
  -28.5271  -20.5509   22.2624 S   0  0  0  0  0  0
  -31.4791  -12.5864   19.1969 H   0  0  0  0  0  0
  -30.3724  -11.5026   19.9845 H   0  0  0  0  0  0
  -29.8122  -11.7442   17.5398 H   0  0  0  0  0  0
  -29.6443  -13.4724   17.7353 H   0  0  0  0  0  0
  -27.9080  -11.2866   18.9240 H   0  0  0  0  0  0
  -27.3910  -12.5190   17.8042 H   0  0  0  0  0  0
  -27.6366  -14.2593   19.4705 H   0  0  0  0  0  0
  -28.7223  -12.1936   21.4404 H   0  0  0  0  0  0
  -28.4054  -13.8729   21.7934 H   0  0  0  0  0  0
  -25.2769   -9.5703   22.4752 H   0  0  0  0  0  0
  -24.0011   -7.4650   22.7478 H   0  0  0  0  0  0
  -21.0842   -8.8777   19.8956 H   0  0  0  0  0  0
  -22.3693  -10.9678   19.6158 H   0  0  0  0  0  0
  -21.2009   -7.6150   23.9716 H   0  0  0  0  0  0
  -21.1483   -6.0523   25.9078 H   0  0  0  0  0  0
  -22.0596   -2.7609   23.2842 H   0  0  0  0  0  0
  -22.4104  -11.9877   22.4799 H   0  0  0  0  0  0
  -21.1101  -13.1238   22.2627 H   0  0  0  0  0  0
  -24.6690  -15.8584   20.5487 H   0  0  0  0  0  0
  -26.2997  -15.6303   20.1569 H   0  0  0  0  0  0
  -26.7227  -32.5364   23.1051 H   0  0  0  0  0  0
  -25.0072  -33.9673   25.0372 H   0  0  0  0  0  0
  -22.7341  -31.3006   21.3963 H   0  0  0  0  0  0
  -23.3756  -35.9601   23.3310 H   0  0  0  0  0  0
  -24.3575  -36.8893   22.2053 H   0  0  0  0  0  0
  -23.7246  -37.6474   23.6666 H   0  0  0  0  0  0
  -26.1383  -31.5063   20.6229 H   0  0  0  0  0  0
  -26.8587  -30.7878   22.0302 H   0  0  0  0  0  0
  -28.1081  -28.8512   21.2485 H   0  0  0  0  0  0
  -25.9131  -25.9521   18.8900 H   0  0  0  0  0  0
  -23.9811  -27.3476   18.9415 H   0  0  0  0  0  0
  -23.7824  -30.5934   19.4045 H   0  0  0  0  0  0
  -22.7720  -29.2515   19.8482 H   0  0  0  0  0  0
  -25.1309  -36.1901   25.0818 H   0  0  0  0  0  0
  -20.9998  -28.3287   24.1376 H   0  0  0  0  0  0
  -20.5687  -26.2315   23.3615 H   0  0  0  0  0  0
  -21.6649  -26.7439   22.1195 H   0  0  0  0  0  0
  -19.6915  -25.6293   21.1248 H   0  0  0  0  0  0
  -19.6688  -27.3190   20.6741 H   0  0  0  0  0  0
  -17.4205  -26.6677   21.4033 H   0  0  0  0  0  0
  -18.0337  -26.0072   22.9027 H   0  0  0  0  0  0
  -19.7946  -30.7285   24.2250 H   0  0  0  0  0  0
  -17.5020  -31.6268   24.5161 H   0  0  0  0  0  0
  -15.5358  -30.2977   23.7666 H   0  0  0  0  0  0
  -15.8683  -28.0813   22.7076 H   0  0  0  0  0  0
  -24.5894  -30.7093   25.7757 H   0  0  0  0  0  0
  -24.8901  -32.2918   26.4833 H   0  0  0  0  0  0
  -25.8009  -30.8935   27.0234 H   0  0  0  0  0  0
  -26.2979  -29.6714   24.1269 H   0  0  0  0  0  0
  -27.3991  -29.7263   25.4828 H   0  0  0  0  0  0
  -27.8886  -30.4234   23.9580 H   0  0  0  0  0  0
  -27.2653  -33.3639   26.2061 H   0  0  0  0  0  0
  -28.3875  -32.6880   25.0342 H   0  0  0  0  0  0
  -28.0712  -31.8472   26.5446 H   0  0  0  0  0  0
  -28.2601  -38.0088   24.7501 H   0  0  0  0  0  0
  -28.1068  -36.2615   24.6312 H   0  0  0  0  0  0
  -27.2289  -37.1467   25.8869 H   0  0  0  0  0  0
  -20.9418  -29.8763   21.6835 H   0  0  0  0  0  0
  -26.0169  -38.2838   24.1393 H   0  0  0  0  0  0
  -30.8074  -17.2274   19.5788 H   0  0  0  0  0  0
  -28.4180  -25.6086   17.6505 H   0  0  0  0  0  0
  -28.8198  -23.9086   17.7967 H   0  0  0  0  0  0
  -29.9436  -25.1318   18.3876 H   0  0  0  0  0  0
  -27.1775  -24.5586   19.5378 H   0  0  0  0  0  0
  -28.7801  -16.9670   22.9460 H   0  0  0  0  0  0
  -28.0881  -18.2136   23.8562 H   0  0  0  0  0  0
  -28.8967  -22.3136   19.0187 H   0  0  0  0  0  0
  1 25  1  0  0  0
  1 30  2  0  0  0
  1 79  1  0  0  0
  2  3  1  0  0  0
  2 25  1  0  0  0
  2 84  1  0  0  0
  2 85  1  0  0  0
  3  4  1  0  0  0
  3 86  1  0  0  0
  3 87  1  0  0  0
  4  5  1  0  0  0
  4 88  1  0  0  0
  4 89  1  0  0  0
  5  6  1  0  0  0
  5 26  1  0  0  0
  5 90  1  0  0  0
  6 25  1  0  0  0
  6 91  1  0  0  0
  6 92  1  0  0  0
  7  8  2  0  0  0
  7 26  1  0  0  0
  7 29  1  0  0  0
  8  9  1  0  0  0
  8 22  1  0  0  0
  9 10  1  0  0  0
  9 27  2  0  0  0
 10 11  2  0  0  0
 10 15  1  0  0  0
 11 12  1  0  0  0
 11 93  1  0  0  0
 12 13  2  0  0  0
 12 94  1  0  0  0
 13 14  1  0  0  0
 13 31  1  0  0  0
 14 15  2  0  0  0
 14 95  1  0  0  0
 15 96  1  0  0  0
 16 17  2  0  0  0
 16 21  1  0  0  0
 16 31  1  0  0  0
 17 18  1  0  0  0
 17 97  1  0  0  0
 18 19  2  0  0  0
 18 98  1  0  0  0
 19 20  1  0  0  0
 19 24  1  0  0  0
 20 21  2  0  0  0
 20 99  1  0  0  0
 21 23  1  0  0  0
 22 28  1  0  0  0
 22 32  2  0  0  0
 26 27  1  0  0  0
 28100  1  0  0  0
 28101  1  0  0  0
 29102  1  0  0  0
 29103  1  0  0  0
 33 34  1  0  0  0
 33 66  1  0  0  0
 33 70  2  0  0  0
 34 36  1  0  0  0
 34 59  1  0  0  0
 34104  1  0  0  0
 35 44  2  0  0  0
 35 45  1  0  0  0
 35 68  1  0  0  0
 36 56  1  0  0  0
 36105  1  0  0  0
 37 39  1  0  0  0
 37 47  1  0  0  0
 37 66  1  0  0  0
 37106  1  0  0  0
 38 43  2  0  0  0
 38 46  1  0  0  0
 38 47  1  0  0  0
 39 64  1  0  0  0
 39 67  2  0  0  0
 40 52  1  0  0  0
 40 53  2  0  0  0
 40 58  1  0  0  0
 41107  1  0  0  0
 41108  1  0  0  0
 41109  1  0  0  0
 41 48  1  0  0  0
 42 43  1  0  0  0
 42 66  1  0  0  0
 42110  1  0  0  0
 42111  1  0  0  0
 43 44  1  0  0  0
 44112  1  0  0  0
 45 46  2  0  0  0
 45113  1  0  0  0
 46114  1  0  0  0
 47115  1  0  0  0
 47116  1  0  0  0
 48 56  1  0  0  0
 48 65  1  0  0  0
 48117  1  0  0  0
 49 50  1  0  0  0
 49 53  1  0  0  0
 49 64  1  0  0  0
 49118  1  0  0  0
 50 51  1  0  0  0
 50119  1  0  0  0
 50120  1  0  0  0
 51 52  1  0  0  0
 51121  1  0  0  0
 51122  1  0  0  0
 52123  1  0  0  0
 52124  1  0  0  0
 53 54  1  0  0  0
 54 55  2  0  0  0
 54125  1  0  0  0
 55 57  1  0  0  0
 55126  1  0  0  0
 56 69  2  0  0  0
 57 58  2  0  0  0
 57127  1  0  0  0
 58128  1  0  0  0
 59 60  1  0  0  0
 59 61  1  0  0  0
 59 62  1  0  0  0
 60129  1  0  0  0
 60130  1  0  0  0
 60131  1  0  0  0
 61132  1  0  0  0
 61133  1  0  0  0
 61134  1  0  0  0
 62135  1  0  0  0
 62136  1  0  0  0
 62137  1  0  0  0
 63 65  1  0  0  0
 63138  1  0  0  0
 63139  1  0  0  0
 63140  1  0  0  0
 64141  1  0  0  0
 65142  1  0  0  0
 68 77  1  0  0  0
 71 72  2  0  0  0
 71 74  1  0  0  0
 71 78  1  0  0  0
 72 80  1  0  0  0
 72 83  1  0  0  0
 73 78  2  0  0  0
 73 81  1  0  0  0
 73 83  1  0  0  0
 74 79  2  0  0  0
 74143  1  0  0  0
 75 77  1  0  0  0
 75 81  1  0  0  0
 75 82  2  0  0  0
 76144  1  0  0  0
 76145  1  0  0  0
 76146  1  0  0  0
 76 77  1  0  0  0
 77147  1  0  0  0
 80148  1  0  0  0
 80149  1  0  0  0
 81150  1  0  0  0
M  ISO  4   1 100  68 101  77 101  79 100
M  END
> <chiral flag>
0

> <version>
0

> <s_m_source_file>
/data/baiqing/PycharmProjects/Reinvent-master-3.2/result/LINK_invent/BTK/process_docking_weight1_custom_product_contain_oxygen_bond_distance_aromatic_linkinvent_7_9_3/rearranged_h_0183.sdf

> <i_m_source_file_index>
9

> <r_mmod_Potential_Energy-OPLS-2005>
243.293975830078

> <r_mmod_Stretch_Energy-OPLS-2005>
157.575378417969

> <r_mmod_Bend_Energy-OPLS-2005>
185.545486450195

> <r_mmod_Torsional_Energy-OPLS-2005>
181.348724365234

> <r_mmod_Improper_Torsional_Energy-OPLS-2005>
4.55664014816284

> <r_mmod_Van_der_Waal_Energy-OPLS-2005>
126.338966369629

> <r_mmod_Electrostatic_Energy-OPLS-2005>
-295.911743164062

> <r_mmod_Solvation_Energy-OPLS-2005>
-225.944183349609

> <b_mmod_Minimization_Converged-OPLS-2005>
0

> <r_mmod_RMS_Derivative-OPLS-2005>
0.795116662979126

$$$$
9
                    3D
 Structure written by MMmdl.
148156  0  0  1  0            999 V2000
  -30.4930  -15.0295   20.4120 C   0  0  0  0  0  0
  -30.4506  -12.6460   19.4900 C   0  0  0  0  0  0
  -29.5250  -12.5397   18.2535 C   0  0  0  0  0  0
  -28.0629  -12.3072   18.6806 C   0  0  0  0  0  0
  -27.6297  -13.2476   19.8357 C   0  0  2  0  0  0
  -28.6771  -13.3005   20.9693 C   0  0  0  0  0  0
  -25.2480  -13.8199   20.5726 C   0  0  0  0  0  0
  -24.1802  -13.0431   20.9253 C   0  0  0  0  0  0
  -24.6413  -11.6913   20.8784 C   0  0  0  0  0  0
  -23.9091  -10.4292   21.0419 C   0  0  0  0  0  0
  -24.3636   -9.4198   21.9187 C   0  0  0  0  0  0
  -23.6300   -8.2243   22.0763 C   0  0  0  0  0  0
  -22.4279   -8.0298   21.3553 C   0  0  0  0  0  0
  -21.9931   -9.0275   20.4648 C   0  0  0  0  0  0
  -22.7274  -10.2143   20.3052 C   0  0  0  0  0  0
  -21.6862   -6.0745   22.5276 C   0  0  0  0  0  0
  -21.4010   -6.5640   23.8211 C   0  0  0  0  0  0
  -21.3651   -5.6790   24.9166 C   0  0  0  0  0  0
  -21.6052   -4.3061   24.7220 C   0  0  0  0  0  0
  -21.8817   -3.8153   23.4343 C   0  0  0  0  0  0
  -21.9192   -4.6969   22.3395 C   0  0  0  0  0  0
  -22.7822  -13.5210   21.1892 C   0  0  0  0  0  0
  -22.1667   -4.2160   21.0977 F   0  0  0  0  0  0
  -21.5628   -3.4540   25.7726 F   0  0  0  0  0  0
  -29.9365  -13.7452   20.3591 N   0  0  0  0  0  0
  -26.2904  -12.9439   20.3255 N   0  0  0  0  0  0
  -25.9342  -11.6568   20.5751 N   0  0  0  0  0  0
  -22.0449  -12.8198   22.0429 N   0  0  0  0  0  0
  -25.4120  -15.1933   20.4134 N   0  0  0  0  0  0
  -31.7061  -15.1165   20.1826 O   0  0  0  0  0  0
  -21.6653   -6.8892   21.4241 O   0  0  0  0  0  0
  -22.3521  -14.5519   20.6735 O   0  0  0  0  0  0
  -24.6489  -31.8410   23.1835 C   0  0  0  0  0  0
  -25.9231  -32.4683   23.8258 C   0  0  1  0  0  0
  -27.2082  -27.0794   20.1680 C   0  0  0  0  0  0
  -25.5962  -33.8497   24.2190 N   0  0  0  0  0  0
  -23.4553  -30.4613   21.5273 C   0  0  2  0  0  0
  -24.9019  -28.8706   20.1137 C   0  0  0  0  0  0
  -22.7596  -29.4571   22.4809 C   0  0  0  0  0  0
  -18.0325  -28.1400   22.8451 C   0  0  0  0  0  0
  -24.1488  -36.7250   23.2650 C   0  0  0  0  0  0
  -26.0144  -30.6961   21.3877 C   0  0  0  0  0  0
  -26.0820  -29.2995   20.7343 C   0  0  0  0  0  0
  -27.2362  -28.4209   20.7397 C   0  0  0  0  0  0
  -26.0011  -26.7634   19.5072 C   0  0  0  0  0  0
  -24.8759  -27.6169   19.4857 C   0  0  0  0  0  0
  -23.6856  -29.7859   20.1486 C   0  0  0  0  0  0
  -25.4124  -36.3028   24.0324 C   0  0  1  0  0  0
  -20.5942  -28.3763   23.1206 C   0  0  2  0  0  0
  -20.6796  -26.9461   22.5389 C   0  0  0  0  0  0
  -19.5780  -26.6385   21.5192 C   0  0  0  0  0  0
  -18.1964  -26.7939   22.1602 C   0  0  0  0  0  0
  -19.1583  -28.8896   23.2820 C   0  0  0  0  0  0
  -18.9488  -30.1466   23.8875 C   0  0  0  0  0  0
  -17.6490  -30.6590   24.0558 C   0  0  0  0  0  0
  -25.9084  -34.9407   23.5066 C   0  0  0  0  0  0
  -16.5379  -29.9087   23.6314 C   0  0  0  0  0  0
  -16.7311  -28.6501   23.0346 C   0  0  0  0  0  0
  -26.4567  -31.6548   25.0695 C   0  0  0  0  0  0
  -25.3757  -31.3703   26.1388 C   0  0  0  0  0  0
  -27.0470  -30.2955   24.6270 C   0  0  0  0  0  0
  -27.6096  -32.4319   25.7486 C   0  0  0  0  0  0
  -27.5570  -37.1802   24.8488 C   0  0  0  0  0  0
  -21.4280  -29.3108   22.3589 N   0  0  0  0  0  0
  -26.4296  -37.3728   23.9403 N   0  0  0  0  0  0
  -24.7269  -31.0231   22.0877 N   0  0  0  0  0  0
  -23.4230  -28.8128   23.2978 O   0  0  0  0  0  0
  -28.2420  -26.0593   20.2496 O   0  0  0  0  0  0
  -26.5669  -34.8909   22.4642 O   0  0  0  0  0  0
  -23.5596  -32.1301   23.7039 O   0  0  0  0  0  0
  -28.7230  -18.7191   20.2037 C   0  0  0  0  0  0
  -29.7294  -17.7413   20.4869 C   0  0  0  0  0  0
  -30.4445  -19.8751   20.8370 C   0  0  0  0  0  0
  -27.9382  -24.5093   20.1284 C   0  0  0  0  0  0
  -28.9218  -23.1134   20.3494 C   0  0  1  0  0  0
  -28.3677  -21.4924   20.2973 C   0  0  0  0  0  0
  -29.1796  -20.0749   20.4087 N   0  0  0  0  0  0
  -30.7884  -18.5501   20.8661 N   0  3  0  0  0  0
  -29.6371  -16.1817   20.4770 N   0  0  0  0  0  0
  -31.2714  -20.8769   21.2314 F   0  0  0  0  0  0
  -29.9075  -23.2070   19.4545 F   0  0  0  0  0  0
  -27.4659  -21.4604   21.2805 F   0  0  0  0  0  0
  -27.6729  -21.4293   19.1590 F   0  0  0  0  0  0
  -31.4740  -12.8383   19.1666 H   0  0  0  0  0  0
  -30.4798  -11.7033   20.0400 H   0  0  0  0  0  0
  -29.8555  -11.7354   17.5959 H   0  0  0  0  0  0
  -29.5930  -13.4580   17.6669 H   0  0  0  0  0  0
  -27.9802  -11.2703   19.0085 H   0  0  0  0  0  0
  -27.3943  -12.4155   17.8253 H   0  0  0  0  0  0
  -27.5817  -14.2440   19.3958 H   0  0  0  0  0  0
  -28.7911  -12.3289   21.4538 H   0  0  0  0  0  0
  -28.3672  -14.0022   21.7467 H   0  0  0  0  0  0
  -25.2769   -9.5694   22.4782 H   0  0  0  0  0  0
  -24.0011   -7.4641   22.7482 H   0  0  0  0  0  0
  -21.0867   -8.8794   19.8952 H   0  0  0  0  0  0
  -22.3726  -10.9689   19.6178 H   0  0  0  0  0  0
  -21.1998   -7.6149   23.9713 H   0  0  0  0  0  0
  -21.1476   -6.0523   25.9071 H   0  0  0  0  0  0
  -22.0604   -2.7620   23.2836 H   0  0  0  0  0  0
  -22.4060  -11.9851   22.4805 H   0  0  0  0  0  0
  -21.1054  -13.1223   22.2582 H   0  0  0  0  0  0
  -24.6323  -15.8339   20.5161 H   0  0  0  0  0  0
  -26.2226  -15.6274   19.9966 H   0  0  0  0  0  0
  -26.7310  -32.5270   23.0993 H   0  0  0  0  0  0
  -25.0083  -33.9602   25.0327 H   0  0  0  0  0  0
  -22.7603  -31.2889   21.3683 H   0  0  0  0  0  0
  -23.3735  -35.9595   23.3339 H   0  0  0  0  0  0
  -24.3587  -36.8849   22.2060 H   0  0  0  0  0  0
  -23.7261  -37.6468   23.6666 H   0  0  0  0  0  0
  -26.1707  -31.4402   20.6055 H   0  0  0  0  0  0
  -26.8899  -30.7601   22.0234 H   0  0  0  0  0  0
  -28.1353  -28.7375   21.2492 H   0  0  0  0  0  0
  -25.8877  -25.8066   19.0205 H   0  0  0  0  0  0
  -23.9747  -27.2781   18.9929 H   0  0  0  0  0  0
  -23.8443  -30.5575   19.3952 H   0  0  0  0  0  0
  -22.7945  -29.2446   19.8278 H   0  0  0  0  0  0
  -25.1314  -36.1864   25.0818 H   0  0  0  0  0  0
  -21.0031  -28.3361   24.1331 H   0  0  0  0  0  0
  -20.5648  -26.2400   23.3627 H   0  0  0  0  0  0
  -21.6662  -26.7448   22.1213 H   0  0  0  0  0  0
  -19.6957  -25.6283   21.1262 H   0  0  0  0  0  0
  -19.6689  -27.3146   20.6677 H   0  0  0  0  0  0
  -17.4216  -26.6654   21.4017 H   0  0  0  0  0  0
  -18.0378  -26.0102   22.9020 H   0  0  0  0  0  0
  -19.7970  -30.7267   24.2248 H   0  0  0  0  0  0
  -17.5056  -31.6261   24.5161 H   0  0  0  0  0  0
  -15.5381  -30.2988   23.7643 H   0  0  0  0  0  0
  -15.8708  -28.0805   22.7090 H   0  0  0  0  0  0
  -24.5973  -30.7007   25.7723 H   0  0  0  0  0  0
  -24.8902  -32.2855   26.4784 H   0  0  0  0  0  0
  -25.8068  -30.8913   27.0185 H   0  0  0  0  0  0
  -26.3112  -29.6653   24.1267 H   0  0  0  0  0  0
  -27.4127  -29.7278   25.4842 H   0  0  0  0  0  0
  -27.8985  -30.4246   23.9589 H   0  0  0  0  0  0
  -27.2703  -33.3663   26.1966 H   0  0  0  0  0  0
  -28.3950  -32.6812   25.0332 H   0  0  0  0  0  0
  -28.0712  -31.8487   26.5465 H   0  0  0  0  0  0
  -28.2626  -38.0057   24.7442 H   0  0  0  0  0  0
  -28.1017  -36.2582   24.6413 H   0  0  0  0  0  0
  -27.2295  -37.1580   25.8898 H   0  0  0  0  0  0
  -20.9492  -29.8860   21.6797 H   0  0  0  0  0  0
  -26.0161  -38.2811   24.1326 H   0  0  0  0  0  0
  -27.7024  -18.5603   19.8851 H   0  0  0  0  0  0
  -27.0763  -24.3576   20.7801 H   0  0  0  0  0  0
  -27.5400  -24.3863   19.1208 H   0  0  0  0  0  0
  -29.4157  -23.2265   21.3141 H   0  0  0  0  0  0
  -31.6932  -18.2262   21.1768 H   0  0  0  0  0  0
  -28.6782  -15.8724   20.4903 H   0  0  0  0  0  0
  1 25  1  0  0  0
  1 30  2  0  0  0
  1 79  1  0  0  0
  2  3  1  0  0  0
  2 25  1  0  0  0
  2 84  1  0  0  0
  2 85  1  0  0  0
  3  4  1  0  0  0
  3 86  1  0  0  0
  3 87  1  0  0  0
  4  5  1  0  0  0
  4 88  1  0  0  0
  4 89  1  0  0  0
  5  6  1  0  0  0
  5 26  1  0  0  0
  5 90  1  0  0  0
  6 25  1  0  0  0
  6 91  1  0  0  0
  6 92  1  0  0  0
  7  8  2  0  0  0
  7 26  1  0  0  0
  7 29  1  0  0  0
  8  9  1  0  0  0
  8 22  1  0  0  0
  9 10  1  0  0  0
  9 27  2  0  0  0
 10 11  2  0  0  0
 10 15  1  0  0  0
 11 12  1  0  0  0
 11 93  1  0  0  0
 12 13  2  0  0  0
 12 94  1  0  0  0
 13 14  1  0  0  0
 13 31  1  0  0  0
 14 15  2  0  0  0
 14 95  1  0  0  0
 15 96  1  0  0  0
 16 17  2  0  0  0
 16 21  1  0  0  0
 16 31  1  0  0  0
 17 18  1  0  0  0
 17 97  1  0  0  0
 18 19  2  0  0  0
 18 98  1  0  0  0
 19 20  1  0  0  0
 19 24  1  0  0  0
 20 21  2  0  0  0
 20 99  1  0  0  0
 21 23  1  0  0  0
 22 28  1  0  0  0
 22 32  2  0  0  0
 26 27  1  0  0  0
 28100  1  0  0  0
 28101  1  0  0  0
 29102  1  0  0  0
 29103  1  0  0  0
 33 34  1  0  0  0
 33 66  1  0  0  0
 33 70  2  0  0  0
 34 36  1  0  0  0
 34 59  1  0  0  0
 34104  1  0  0  0
 35 44  2  0  0  0
 35 45  1  0  0  0
 35 68  1  0  0  0
 36 56  1  0  0  0
 36105  1  0  0  0
 37 39  1  0  0  0
 37 47  1  0  0  0
 37 66  1  0  0  0
 37106  1  0  0  0
 38 43  2  0  0  0
 38 46  1  0  0  0
 38 47  1  0  0  0
 39 64  1  0  0  0
 39 67  2  0  0  0
 40 52  1  0  0  0
 40 53  2  0  0  0
 40 58  1  0  0  0
 41107  1  0  0  0
 41108  1  0  0  0
 41109  1  0  0  0
 41 48  1  0  0  0
 42 43  1  0  0  0
 42 66  1  0  0  0
 42110  1  0  0  0
 42111  1  0  0  0
 43 44  1  0  0  0
 44112  1  0  0  0
 45 46  2  0  0  0
 45113  1  0  0  0
 46114  1  0  0  0
 47115  1  0  0  0
 47116  1  0  0  0
 48 56  1  0  0  0
 48 65  1  0  0  0
 48117  1  0  0  0
 49 50  1  0  0  0
 49 53  1  0  0  0
 49 64  1  0  0  0
 49118  1  0  0  0
 50 51  1  0  0  0
 50119  1  0  0  0
 50120  1  0  0  0
 51 52  1  0  0  0
 51121  1  0  0  0
 51122  1  0  0  0
 52123  1  0  0  0
 52124  1  0  0  0
 53 54  1  0  0  0
 54 55  2  0  0  0
 54125  1  0  0  0
 55 57  1  0  0  0
 55126  1  0  0  0
 56 69  2  0  0  0
 57 58  2  0  0  0
 57127  1  0  0  0
 58128  1  0  0  0
 59 60  1  0  0  0
 59 61  1  0  0  0
 59 62  1  0  0  0
 60129  1  0  0  0
 60130  1  0  0  0
 60131  1  0  0  0
 61132  1  0  0  0
 61133  1  0  0  0
 61134  1  0  0  0
 62135  1  0  0  0
 62136  1  0  0  0
 62137  1  0  0  0
 63 65  1  0  0  0
 63138  1  0  0  0
 63139  1  0  0  0
 63140  1  0  0  0
 64141  1  0  0  0
 65142  1  0  0  0
 68 74  1  0  0  0
 71 72  2  0  0  0
 71 77  1  0  0  0
 71143  1  0  0  0
 72 78  1  0  0  0
 72 79  1  0  0  0
 73 77  1  0  0  0
 73 78  2  0  0  0
 73 80  1  0  0  0
 74 75  1  0  0  0
 74144  1  0  0  0
 74145  1  0  0  0
 75 76  1  0  0  0
 75 81  1  0  0  0
 75146  1  0  0  0
 76 77  1  0  0  0
 76 82  1  0  0  0
 76 83  1  0  0  0
 78147  1  0  0  0
 79148  1  0  0  0
M  CHG  1  78   1
M  ISO  4   1 100  68 101  74 101  79 100
M  END
> <chiral flag>
0

> <version>
0

> <s_m_source_file>
/data/baiqing/PycharmProjects/Reinvent-master-3.2/result/LINK_invent/BTK/process_docking_weight1_custom_product_contain_oxygen_bond_distance_aromatic_linkinvent_7_9_3/rearranged_h_0183.sdf

> <i_m_source_file_index>
10

> <r_mmod_Potential_Energy-OPLS-2005>
451.858215332031

> <r_mmod_Stretch_Energy-OPLS-2005>
313.88623046875

> <r_mmod_Bend_Energy-OPLS-2005>
309.945068359375

> <r_mmod_Torsional_Energy-OPLS-2005>
234.386810302734

> <r_mmod_Improper_Torsional_Energy-OPLS-2005>
6.54163551330566

> <r_mmod_Van_der_Waal_Energy-OPLS-2005>
106.853675842285

> <r_mmod_Electrostatic_Energy-OPLS-2005>
-321.897552490234

> <r_mmod_Solvation_Energy-OPLS-2005>
-451.926086425781

> <b_mmod_Minimization_Converged-OPLS-2005>
0

> <r_mmod_RMS_Derivative-OPLS-2005>
2.74918007850647

$$$$
10
                    3D
 Structure written by MMmdl.
147155  0  0  1  0            999 V2000
  -30.5921  -14.7103   20.4755 C   0  0  0  0  0  0
  -30.4399  -12.4312   19.4674 C   0  0  0  0  0  0
  -29.5143  -12.5211   18.2326 C   0  0  0  0  0  0
  -28.0365  -12.3505   18.6389 C   0  0  0  0  0  0
  -27.6501  -13.2257   19.8613 C   0  0  2  0  0  0
  -28.6940  -13.1054   20.9950 C   0  0  0  0  0  0
  -25.2536  -13.8187   20.5690 C   0  0  0  0  0  0
  -24.1810  -13.0444   20.9186 C   0  0  0  0  0  0
  -24.6387  -11.6916   20.8727 C   0  0  0  0  0  0
  -23.9054  -10.4295   21.0396 C   0  0  0  0  0  0
  -24.3609   -9.4214   21.9178 C   0  0  0  0  0  0
  -23.6291   -8.2247   22.0752 C   0  0  0  0  0  0
  -22.4271   -8.0281   21.3542 C   0  0  0  0  0  0
  -21.9898   -9.0254   20.4646 C   0  0  0  0  0  0
  -22.7221  -10.2136   20.3051 C   0  0  0  0  0  0
  -21.6850   -6.0728   22.5276 C   0  0  0  0  0  0
  -21.4012   -6.5634   23.8210 C   0  0  0  0  0  0
  -21.3664   -5.6787   24.9172 C   0  0  0  0  0  0
  -21.6052   -4.3049   24.7218 C   0  0  0  0  0  0
  -21.8824   -3.8136   23.4337 C   0  0  0  0  0  0
  -21.9189   -4.6954   22.3394 C   0  0  0  0  0  0
  -22.7830  -13.5232   21.1845 C   0  0  0  0  0  0
  -22.1660   -4.2141   21.0972 F   0  0  0  0  0  0
  -21.5632   -3.4534   25.7731 F   0  0  0  0  0  0
  -30.0040  -13.4661   20.4320 N   0  0  0  0  0  0
  -26.2969  -12.9384   20.3300 N   0  0  0  0  0  0
  -25.9319  -11.6532   20.5737 N   0  0  0  0  0  0
  -22.0467  -12.8245   22.0416 N   0  0  0  0  0  0
  -25.4241  -15.1913   20.4120 N   0  0  0  0  0  0
  -31.7533  -14.8608   20.0784 O   0  0  0  0  0  0
  -21.6640   -6.8872   21.4237 O   0  0  0  0  0  0
  -22.3521  -14.5531   20.6677 O   0  0  0  0  0  0
  -24.6304  -31.8555   23.1982 C   0  0  0  0  0  0
  -25.9138  -32.4754   23.8324 C   0  0  1  0  0  0
  -27.2288  -27.2758   20.1140 C   0  0  0  0  0  0
  -25.5935  -33.8556   24.2248 N   0  0  0  0  0  0
  -23.4261  -30.4776   21.5418 C   0  0  2  0  0  0
  -24.8731  -28.9246   20.1096 C   0  0  0  0  0  0
  -22.7495  -29.4597   22.4914 C   0  0  0  0  0  0
  -18.0286  -28.1387   22.8484 C   0  0  0  0  0  0
  -24.1491  -36.7284   23.2638 C   0  0  0  0  0  0
  -25.9712  -30.7718   21.3765 C   0  0  0  0  0  0
  -26.0428  -29.3959   20.7166 C   0  0  0  0  0  0
  -27.2188  -28.5822   20.7098 C   0  0  0  0  0  0
  -26.0297  -26.8642   19.4878 C   0  0  0  0  0  0
  -24.8707  -27.6666   19.4880 C   0  0  0  0  0  0
  -23.6431  -29.8104   20.1578 C   0  0  0  0  0  0
  -25.4117  -36.3070   24.0324 C   0  0  1  0  0  0
  -20.5888  -28.3695   23.1273 C   0  0  2  0  0  0
  -20.6773  -26.9411   22.5415 C   0  0  0  0  0  0
  -19.5751  -26.6379   21.5215 C   0  0  0  0  0  0
  -18.1932  -26.7929   22.1623 C   0  0  0  0  0  0
  -19.1540  -28.8858   23.2870 C   0  0  0  0  0  0
  -18.9462  -30.1458   23.8885 C   0  0  0  0  0  0
  -17.6463  -30.6588   24.0559 C   0  0  0  0  0  0
  -25.9063  -34.9439   23.5090 C   0  0  0  0  0  0
  -16.5353  -29.9088   23.6328 C   0  0  0  0  0  0
  -16.7273  -28.6504   23.0353 C   0  0  0  0  0  0
  -26.4505  -31.6582   25.0715 C   0  0  0  0  0  0
  -25.3726  -31.3747   26.1435 C   0  0  0  0  0  0
  -27.0337  -30.2987   24.6215 C   0  0  0  0  0  0
  -27.6060  -32.4322   25.7485 C   0  0  0  0  0  0
  -27.5587  -37.1786   24.8456 C   0  0  0  0  0  0
  -21.4201  -29.3040   22.3662 N   0  0  0  0  0  0
  -26.4288  -37.3776   23.9416 N   0  0  0  0  0  0
  -24.6950  -31.0528   22.0954 N   0  0  0  0  0  0
  -23.4202  -28.8142   23.3011 O   0  0  0  0  0  0
  -28.3606  -26.4328   20.1845 O   0  0  0  0  0  0
  -26.5638  -34.8918   22.4661 O   0  0  0  0  0  0
  -23.5455  -32.1375   23.7286 O   0  0  0  0  0  0
  -30.1789  -19.2665   19.5627 C   0  0  0  0  0  0
  -29.4292  -19.8003   20.6012 C   0  0  0  0  0  0
  -29.8262  -17.2236   20.6435 C   0  0  0  0  0  0
  -29.0526  -21.2207   20.9177 C   0  0  0  0  0  0
  -28.9954  -22.3856   20.1514 C   0  0  0  0  0  0
  -28.6445  -23.8295   20.6347 C   0  0  0  0  0  0
  -28.4165  -25.0393   19.6191 C   0  0  0  0  0  0
  -30.4082  -17.8538   19.6058 N   0  0  0  0  0  0
  -29.7947  -15.7648   20.8716 N   0  0  0  0  0  0
  -28.5391  -24.1135   21.8346 O   0  0  0  0  0  0
  -28.7671  -21.3113   22.2266 O   0  0  0  0  0  0
  -29.2782  -22.2448   18.8441 F   0  0  0  0  0  0
  -28.9318  -18.4245   21.6344 S   0  0  0  0  0  0
  -31.4812  -12.5598   19.1675 H   0  0  0  0  0  0
  -30.3820  -11.4402   19.9198 H   0  0  0  0  0  0
  -29.7914  -11.7660   17.4963 H   0  0  0  0  0  0
  -29.6490  -13.4876   17.7436 H   0  0  0  0  0  0
  -27.8766  -11.2971   18.8711 H   0  0  0  0  0  0
  -27.3851  -12.5763   17.7939 H   0  0  0  0  0  0
  -27.6595  -14.2583   19.5112 H   0  0  0  0  0  0
  -28.7197  -12.0875   21.3879 H   0  0  0  0  0  0
  -28.4281  -13.7436   21.8384 H   0  0  0  0  0  0
  -25.2756   -9.5694   22.4747 H   0  0  0  0  0  0
  -23.9998   -7.4640   22.7474 H   0  0  0  0  0  0
  -21.0824   -8.8770   19.8965 H   0  0  0  0  0  0
  -22.3673  -10.9671   19.6159 H   0  0  0  0  0  0
  -21.2009   -7.6145   23.9708 H   0  0  0  0  0  0
  -21.1487   -6.0516   25.9076 H   0  0  0  0  0  0
  -22.0599   -2.7595   23.2835 H   0  0  0  0  0  0
  -22.4056  -11.9911   22.4836 H   0  0  0  0  0  0
  -21.1088  -13.1292   22.2607 H   0  0  0  0  0  0
  -24.6543  -15.8429   20.5204 H   0  0  0  0  0  0
  -26.2666  -15.6311   20.0647 H   0  0  0  0  0  0
  -26.7205  -32.5402   23.1061 H   0  0  0  0  0  0
  -25.0064  -33.9690   25.0381 H   0  0  0  0  0  0
  -22.7225  -31.2996   21.3958 H   0  0  0  0  0  0
  -23.3765  -35.9602   23.3269 H   0  0  0  0  0  0
  -24.3586  -36.8939   22.2056 H   0  0  0  0  0  0
  -23.7224  -37.6466   23.6682 H   0  0  0  0  0  0
  -26.1116  -31.5355   20.6099 H   0  0  0  0  0  0
  -26.8482  -30.8171   22.0112 H   0  0  0  0  0  0
  -28.1165  -28.9405   21.1946 H   0  0  0  0  0  0
  -25.9373  -25.9040   19.0082 H   0  0  0  0  0  0
  -23.9721  -27.2982   19.0121 H   0  0  0  0  0  0
  -23.7660  -30.5867   19.4014 H   0  0  0  0  0  0
  -22.7615  -29.2430   19.8539 H   0  0  0  0  0  0
  -25.1295  -36.1908   25.0815 H   0  0  0  0  0  0
  -20.9978  -28.3276   24.1393 H   0  0  0  0  0  0
  -20.5673  -26.2305   23.3622 H   0  0  0  0  0  0
  -21.6644  -26.7439   22.1209 H   0  0  0  0  0  0
  -19.6917  -25.6288   21.1252 H   0  0  0  0  0  0
  -19.6693  -27.3185   20.6744 H   0  0  0  0  0  0
  -17.4204  -26.6675   21.4023 H   0  0  0  0  0  0
  -18.0325  -26.0070   22.9018 H   0  0  0  0  0  0
  -19.7942  -30.7275   24.2251 H   0  0  0  0  0  0
  -17.5020  -31.6267   24.5163 H   0  0  0  0  0  0
  -15.5354  -30.2993   23.7651 H   0  0  0  0  0  0
  -15.8670  -28.0823   22.7075 H   0  0  0  0  0  0
  -24.5874  -30.7136   25.7758 H   0  0  0  0  0  0
  -24.8955  -32.2927   26.4878 H   0  0  0  0  0  0
  -25.8028  -30.8893   27.0205 H   0  0  0  0  0  0
  -26.2916  -29.6733   24.1242 H   0  0  0  0  0  0
  -27.3998  -29.7257   25.4746 H   0  0  0  0  0  0
  -27.8812  -30.4234   23.9469 H   0  0  0  0  0  0
  -27.2671  -33.3624   26.2059 H   0  0  0  0  0  0
  -28.3874  -32.6884   25.0318 H   0  0  0  0  0  0
  -28.0732  -31.8455   26.5403 H   0  0  0  0  0  0
  -28.2574  -38.0116   24.7551 H   0  0  0  0  0  0
  -28.1112  -36.2647   24.6216 H   0  0  0  0  0  0
  -27.2310  -37.1355   25.8859 H   0  0  0  0  0  0
  -20.9391  -29.8756   21.6860 H   0  0  0  0  0  0
  -26.0161  -38.2840   24.1451 H   0  0  0  0  0  0
  -30.6238  -19.8255   18.7516 H   0  0  0  0  0  0
  -27.5626  -24.7953   18.9949 H   0  0  0  0  0  0
  -29.2668  -25.0280   18.9374 H   0  0  0  0  0  0
  -28.9616  -15.4562   21.3473 H   0  0  0  0  0  0
  -28.8848  -20.4495   22.6044 H   0  0  0  0  0  0
  1 25  1  0  0  0
  1 30  2  0  0  0
  1 79  1  0  0  0
  2  3  1  0  0  0
  2 25  1  0  0  0
  2 84  1  0  0  0
  2 85  1  0  0  0
  3  4  1  0  0  0
  3 86  1  0  0  0
  3 87  1  0  0  0
  4  5  1  0  0  0
  4 88  1  0  0  0
  4 89  1  0  0  0
  5  6  1  0  0  0
  5 26  1  0  0  0
  5 90  1  0  0  0
  6 25  1  0  0  0
  6 91  1  0  0  0
  6 92  1  0  0  0
  7  8  2  0  0  0
  7 26  1  0  0  0
  7 29  1  0  0  0
  8  9  1  0  0  0
  8 22  1  0  0  0
  9 10  1  0  0  0
  9 27  2  0  0  0
 10 11  2  0  0  0
 10 15  1  0  0  0
 11 12  1  0  0  0
 11 93  1  0  0  0
 12 13  2  0  0  0
 12 94  1  0  0  0
 13 14  1  0  0  0
 13 31  1  0  0  0
 14 15  2  0  0  0
 14 95  1  0  0  0
 15 96  1  0  0  0
 16 17  2  0  0  0
 16 21  1  0  0  0
 16 31  1  0  0  0
 17 18  1  0  0  0
 17 97  1  0  0  0
 18 19  2  0  0  0
 18 98  1  0  0  0
 19 20  1  0  0  0
 19 24  1  0  0  0
 20 21  2  0  0  0
 20 99  1  0  0  0
 21 23  1  0  0  0
 22 28  1  0  0  0
 22 32  2  0  0  0
 26 27  1  0  0  0
 28100  1  0  0  0
 28101  1  0  0  0
 29102  1  0  0  0
 29103  1  0  0  0
 33 34  1  0  0  0
 33 66  1  0  0  0
 33 70  2  0  0  0
 34 36  1  0  0  0
 34 59  1  0  0  0
 34104  1  0  0  0
 35 44  2  0  0  0
 35 45  1  0  0  0
 35 68  1  0  0  0
 36 56  1  0  0  0
 36105  1  0  0  0
 37 39  1  0  0  0
 37 47  1  0  0  0
 37 66  1  0  0  0
 37106  1  0  0  0
 38 43  2  0  0  0
 38 46  1  0  0  0
 38 47  1  0  0  0
 39 64  1  0  0  0
 39 67  2  0  0  0
 40 52  1  0  0  0
 40 53  2  0  0  0
 40 58  1  0  0  0
 41107  1  0  0  0
 41108  1  0  0  0
 41109  1  0  0  0
 41 48  1  0  0  0
 42 43  1  0  0  0
 42 66  1  0  0  0
 42110  1  0  0  0
 42111  1  0  0  0
 43 44  1  0  0  0
 44112  1  0  0  0
 45 46  2  0  0  0
 45113  1  0  0  0
 46114  1  0  0  0
 47115  1  0  0  0
 47116  1  0  0  0
 48 56  1  0  0  0
 48 65  1  0  0  0
 48117  1  0  0  0
 49 50  1  0  0  0
 49 53  1  0  0  0
 49 64  1  0  0  0
 49118  1  0  0  0
 50 51  1  0  0  0
 50119  1  0  0  0
 50120  1  0  0  0
 51 52  1  0  0  0
 51121  1  0  0  0
 51122  1  0  0  0
 52123  1  0  0  0
 52124  1  0  0  0
 53 54  1  0  0  0
 54 55  2  0  0  0
 54125  1  0  0  0
 55 57  1  0  0  0
 55126  1  0  0  0
 56 69  2  0  0  0
 57 58  2  0  0  0
 57127  1  0  0  0
 58128  1  0  0  0
 59 60  1  0  0  0
 59 61  1  0  0  0
 59 62  1  0  0  0
 60129  1  0  0  0
 60130  1  0  0  0
 60131  1  0  0  0
 61132  1  0  0  0
 61133  1  0  0  0
 61134  1  0  0  0
 62135  1  0  0  0
 62136  1  0  0  0
 62137  1  0  0  0
 63 65  1  0  0  0
 63138  1  0  0  0
 63139  1  0  0  0
 63140  1  0  0  0
 64141  1  0  0  0
 65142  1  0  0  0
 68 77  1  0  0  0
 71 72  2  0  0  0
 71 78  1  0  0  0
 71143  1  0  0  0
 72 74  1  0  0  0
 72 83  1  0  0  0
 73 78  2  0  0  0
 73 79  1  0  0  0
 73 83  1  0  0  0
 74 75  2  0  0  0
 74 81  1  0  0  0
 75 76  1  0  0  0
 75 82  1  0  0  0
 76 77  1  0  0  0
 76 80  2  0  0  0
 77144  1  0  0  0
 77145  1  0  0  0
 79146  1  0  0  0
 81147  1  0  0  0
M  ISO  4   1 100  68 101  77 101  79 100
M  END
> <chiral flag>
0

> <version>
0

> <s_m_source_file>
/data/baiqing/PycharmProjects/Reinvent-master-3.2/result/LINK_invent/BTK/process_docking_weight1_custom_product_contain_oxygen_bond_distance_aromatic_linkinvent_7_9_3/rearranged_h_0183.sdf

> <i_m_source_file_index>
11

> <r_mmod_Potential_Energy-OPLS-2005>
131.947174072266

> <r_mmod_Stretch_Energy-OPLS-2005>
111.598068237305

> <r_mmod_Bend_Energy-OPLS-2005>
163.727020263672

> <r_mmod_Torsional_Energy-OPLS-2005>
202.981460571289

> <r_mmod_Improper_Torsional_Energy-OPLS-2005>
3.53783345222473

> <r_mmod_Van_der_Waal_Energy-OPLS-2005>
124.816162109375

> <r_mmod_Electrostatic_Energy-OPLS-2005>
-283.269592285156

> <r_mmod_Solvation_Energy-OPLS-2005>
-260.851623535156

> <b_mmod_Minimization_Converged-OPLS-2005>
0

> <r_mmod_RMS_Derivative-OPLS-2005>
1.02208662033081

$$$$
11
                    3D
 Structure written by MMmdl.
150158  0  0  1  0            999 V2000
  -30.5699  -14.7257   20.4758 C   0  0  0  0  0  0
  -30.4231  -12.4293   19.4960 C   0  0  0  0  0  0
  -29.5195  -12.5370   18.2470 C   0  0  0  0  0  0
  -28.0355  -12.3680   18.6330 C   0  0  0  0  0  0
  -27.6426  -13.2353   19.8578 C   0  0  2  0  0  0
  -28.6711  -13.1198   21.0029 C   0  0  0  0  0  0
  -25.2470  -13.8200   20.5644 C   0  0  0  0  0  0
  -24.1750  -13.0448   20.9167 C   0  0  0  0  0  0
  -24.6353  -11.6938   20.8697 C   0  0  0  0  0  0
  -23.9024  -10.4309   21.0389 C   0  0  0  0  0  0
  -24.3582   -9.4231   21.9166 C   0  0  0  0  0  0
  -23.6279   -8.2248   22.0741 C   0  0  0  0  0  0
  -22.4257   -8.0257   21.3528 C   0  0  0  0  0  0
  -21.9895   -9.0236   20.4636 C   0  0  0  0  0  0
  -22.7200  -10.2127   20.3040 C   0  0  0  0  0  0
  -21.6853   -6.0721   22.5277 C   0  0  0  0  0  0
  -21.4016   -6.5613   23.8213 C   0  0  0  0  0  0
  -21.3666   -5.6764   24.9168 C   0  0  0  0  0  0
  -21.6042   -4.3026   24.7214 C   0  0  0  0  0  0
  -21.8806   -3.8129   23.4335 C   0  0  0  0  0  0
  -21.9182   -4.6942   22.3399 C   0  0  0  0  0  0
  -22.7766  -13.5242   21.1839 C   0  0  0  0  0  0
  -22.1657   -4.2124   21.0973 F   0  0  0  0  0  0
  -21.5650   -3.4520   25.7743 F   0  0  0  0  0  0
  -29.9857  -13.4750   20.4522 N   0  0  0  0  0  0
  -26.2906  -12.9429   20.3237 N   0  0  0  0  0  0
  -25.9276  -11.6574   20.5652 N   0  0  0  0  0  0
  -22.0402  -12.8289   22.0422 N   0  0  0  0  0  0
  -25.4211  -15.1924   20.4101 N   0  0  0  0  0  0
  -31.7264  -14.8616   20.0661 O   0  0  0  0  0  0
  -21.6629   -6.8860   21.4238 O   0  0  0  0  0  0
  -22.3449  -14.5520   20.6637 O   0  0  0  0  0  0
  -24.6351  -31.8532   23.1961 C   0  0  0  0  0  0
  -25.9178  -32.4730   23.8308 C   0  0  1  0  0  0
  -27.1990  -27.2197   20.1352 C   0  0  0  0  0  0
  -25.6008  -33.8542   24.2253 N   0  0  0  0  0  0
  -23.4276  -30.4762   21.5436 C   0  0  2  0  0  0
  -24.8678  -28.9151   20.1129 C   0  0  0  0  0  0
  -22.7487  -29.4631   22.4960 C   0  0  0  0  0  0
  -18.0288  -28.1347   22.8476 C   0  0  0  0  0  0
  -24.1510  -36.7247   23.2631 C   0  0  0  0  0  0
  -25.9769  -30.7517   21.3823 C   0  0  0  0  0  0
  -26.0422  -29.3727   20.7208 C   0  0  0  0  0  0
  -27.2081  -28.5361   20.7202 C   0  0  0  0  0  0
  -25.9951  -26.8366   19.5009 C   0  0  0  0  0  0
  -24.8511  -27.6563   19.4943 C   0  0  0  0  0  0
  -23.6377  -29.8009   20.1627 C   0  0  0  0  0  0
  -25.4142  -36.3063   24.0324 C   0  0  1  0  0  0
  -20.5898  -28.3679   23.1258 C   0  0  2  0  0  0
  -20.6805  -26.9404   22.5385 C   0  0  0  0  0  0
  -19.5780  -26.6350   21.5194 C   0  0  0  0  0  0
  -18.1949  -26.7897   22.1591 C   0  0  0  0  0  0
  -19.1541  -28.8826   23.2857 C   0  0  0  0  0  0
  -18.9450  -30.1436   23.8866 C   0  0  0  0  0  0
  -17.6447  -30.6567   24.0517 C   0  0  0  0  0  0
  -25.9077  -34.9427   23.5079 C   0  0  0  0  0  0
  -16.5336  -29.9033   23.6339 C   0  0  0  0  0  0
  -16.7272  -28.6433   23.0394 C   0  0  0  0  0  0
  -26.4528  -31.6558   25.0705 C   0  0  0  0  0  0
  -25.3722  -31.3702   26.1394 C   0  0  0  0  0  0
  -27.0388  -30.2968   24.6245 C   0  0  0  0  0  0
  -27.6102  -32.4281   25.7468 C   0  0  0  0  0  0
  -27.5606  -37.1780   24.8463 C   0  0  0  0  0  0
  -21.4210  -29.3029   22.3659 N   0  0  0  0  0  0
  -26.4321  -37.3759   23.9404 N   0  0  0  0  0  0
  -24.6985  -31.0483   22.0942 N   0  0  0  0  0  0
  -23.4174  -28.8229   23.3124 O   0  0  0  0  0  0
  -28.2978  -26.3250   20.2266 O   0  0  0  0  0  0
  -26.5607  -34.8916   22.4621 O   0  0  0  0  0  0
  -23.5498  -32.1376   23.7263 O   0  0  0  0  0  0
  -30.1405  -17.5552   19.0867 C   0  0  0  0  0  0
  -29.7615  -17.2152   20.3634 C   0  0  0  0  0  0
  -29.2251  -19.5638   20.3326 C   0  0  0  0  0  0
  -28.6372  -22.0930   20.0951 C   0  0  0  0  0  0
  -28.4940  -20.9935   22.2817 C   0  0  0  0  0  0
  -28.2968  -24.8748   19.7609 C   0  0  0  0  0  0
  -28.4660  -23.5733   20.7383 C   0  0  2  0  0  0
  -29.2275  -18.3762   21.0450 N   0  0  0  0  0  0
  -29.7919  -15.8153   20.8576 N   0  0  0  0  0  0
  -28.7989  -20.9111   20.8449 N   0  0  0  0  0  0
  -28.5882  -22.0391   18.8635 O   0  0  0  0  0  0
  -29.5373  -23.8033   21.5036 F   0  0  0  0  0  0
  -29.8720  -19.2562   18.7115 S   0  0  0  0  0  0
  -31.4730  -12.5362   19.2192 H   0  0  0  0  0  0
  -30.3374  -11.4363   19.9433 H   0  0  0  0  0  0
  -29.8099  -11.8001   17.4970 H   0  0  0  0  0  0
  -29.6605  -13.5161   17.7831 H   0  0  0  0  0  0
  -27.8600  -11.3140   18.8542 H   0  0  0  0  0  0
  -27.3937  -12.6095   17.7828 H   0  0  0  0  0  0
  -27.6534  -14.2683   19.5093 H   0  0  0  0  0  0
  -28.6805  -12.1070   21.4075 H   0  0  0  0  0  0
  -28.3933  -13.7692   21.8333 H   0  0  0  0  0  0
  -25.2734   -9.5717   22.4729 H   0  0  0  0  0  0
  -23.9991   -7.4636   22.7463 H   0  0  0  0  0  0
  -21.0831   -8.8738   19.8936 H   0  0  0  0  0  0
  -22.3660  -10.9641   19.6126 H   0  0  0  0  0  0
  -21.2014   -7.6128   23.9709 H   0  0  0  0  0  0
  -21.1516   -6.0499   25.9069 H   0  0  0  0  0  0
  -22.0590   -2.7587   23.2835 H   0  0  0  0  0  0
  -22.3992  -11.9956   22.4859 H   0  0  0  0  0  0
  -21.1000  -13.1322   22.2530 H   0  0  0  0  0  0
  -24.6578  -15.8534   20.5061 H   0  0  0  0  0  0
  -26.2858  -15.6247   20.1072 H   0  0  0  0  0  0
  -26.7239  -32.5356   23.1040 H   0  0  0  0  0  0
  -25.0287  -33.9684   25.0492 H   0  0  0  0  0  0
  -22.7229  -31.2979   21.3993 H   0  0  0  0  0  0
  -23.3814  -35.9537   23.3274 H   0  0  0  0  0  0
  -24.3601  -36.8877   22.2049 H   0  0  0  0  0  0
  -23.7215  -37.6426   23.6646 H   0  0  0  0  0  0
  -26.1335  -31.5136   20.6175 H   0  0  0  0  0  0
  -26.8459  -30.7898   22.0271 H   0  0  0  0  0  0
  -28.1047  -28.8759   21.2205 H   0  0  0  0  0  0
  -25.8764  -25.8751   19.0319 H   0  0  0  0  0  0
  -23.9470  -27.2900   19.0290 H   0  0  0  0  0  0
  -23.7425  -30.5656   19.3927 H   0  0  0  0  0  0
  -22.7552  -29.2232   19.8809 H   0  0  0  0  0  0
  -25.1332  -36.1911   25.0816 H   0  0  0  0  0  0
  -20.9985  -28.3251   24.1380 H   0  0  0  0  0  0
  -20.5751  -26.2277   23.3577 H   0  0  0  0  0  0
  -21.6672  -26.7470   22.1167 H   0  0  0  0  0  0
  -19.6968  -25.6250   21.1248 H   0  0  0  0  0  0
  -19.6744  -27.3126   20.6699 H   0  0  0  0  0  0
  -17.4253  -26.6655   21.3960 H   0  0  0  0  0  0
  -18.0347  -26.0016   22.8958 H   0  0  0  0  0  0
  -19.7926  -30.7261   24.2233 H   0  0  0  0  0  0
  -17.4993  -31.6267   24.5075 H   0  0  0  0  0  0
  -15.5336  -30.2910   23.7692 H   0  0  0  0  0  0
  -15.8673  -28.0712   22.7188 H   0  0  0  0  0  0
  -24.5930  -30.7045   25.7667 H   0  0  0  0  0  0
  -24.8875  -32.2857   26.4788 H   0  0  0  0  0  0
  -25.8000  -30.8864   27.0183 H   0  0  0  0  0  0
  -26.2980  -29.6685   24.1288 H   0  0  0  0  0  0
  -27.4063  -29.7289   25.4806 H   0  0  0  0  0  0
  -27.8870  -30.4232   23.9512 H   0  0  0  0  0  0
  -27.2764  -33.3620   26.2010 H   0  0  0  0  0  0
  -28.3917  -32.6763   25.0266 H   0  0  0  0  0  0
  -28.0760  -31.8402   26.5395 H   0  0  0  0  0  0
  -28.2604  -38.0103   24.7575 H   0  0  0  0  0  0
  -28.1133  -36.2638   24.6230 H   0  0  0  0  0  0
  -27.2317  -37.1353   25.8863 H   0  0  0  0  0  0
  -20.9413  -29.8623   21.6743 H   0  0  0  0  0  0
  -26.0212  -38.2847   24.1366 H   0  0  0  0  0  0
  -30.5360  -16.9083   18.3157 H   0  0  0  0  0  0
  -28.6006  -20.0434   22.8052 H   0  0  0  0  0  0
  -27.4633  -21.3087   22.4437 H   0  0  0  0  0  0
  -29.1519  -21.6936   22.7945 H   0  0  0  0  0  0
  -27.4849  -24.6643   19.0719 H   0  0  0  0  0  0
  -29.1598  -24.8295   19.0975 H   0  0  0  0  0  0
  -27.6142  -23.5390   21.4169 H   0  0  0  0  0  0
  -29.0118  -15.5685   21.4465 H   0  0  0  0  0  0
  1 25  1  0  0  0
  1 30  2  0  0  0
  1 79  1  0  0  0
  2  3  1  0  0  0
  2 25  1  0  0  0
  2 84  1  0  0  0
  2 85  1  0  0  0
  3  4  1  0  0  0
  3 86  1  0  0  0
  3 87  1  0  0  0
  4  5  1  0  0  0
  4 88  1  0  0  0
  4 89  1  0  0  0
  5  6  1  0  0  0
  5 26  1  0  0  0
  5 90  1  0  0  0
  6 25  1  0  0  0
  6 91  1  0  0  0
  6 92  1  0  0  0
  7  8  2  0  0  0
  7 26  1  0  0  0
  7 29  1  0  0  0
  8  9  1  0  0  0
  8 22  1  0  0  0
  9 10  1  0  0  0
  9 27  2  0  0  0
 10 11  2  0  0  0
 10 15  1  0  0  0
 11 12  1  0  0  0
 11 93  1  0  0  0
 12 13  2  0  0  0
 12 94  1  0  0  0
 13 14  1  0  0  0
 13 31  1  0  0  0
 14 15  2  0  0  0
 14 95  1  0  0  0
 15 96  1  0  0  0
 16 17  2  0  0  0
 16 21  1  0  0  0
 16 31  1  0  0  0
 17 18  1  0  0  0
 17 97  1  0  0  0
 18 19  2  0  0  0
 18 98  1  0  0  0
 19 20  1  0  0  0
 19 24  1  0  0  0
 20 21  2  0  0  0
 20 99  1  0  0  0
 21 23  1  0  0  0
 22 28  1  0  0  0
 22 32  2  0  0  0
 26 27  1  0  0  0
 28100  1  0  0  0
 28101  1  0  0  0
 29102  1  0  0  0
 29103  1  0  0  0
 33 34  1  0  0  0
 33 66  1  0  0  0
 33 70  2  0  0  0
 34 36  1  0  0  0
 34 59  1  0  0  0
 34104  1  0  0  0
 35 44  2  0  0  0
 35 45  1  0  0  0
 35 68  1  0  0  0
 36 56  1  0  0  0
 36105  1  0  0  0
 37 39  1  0  0  0
 37 47  1  0  0  0
 37 66  1  0  0  0
 37106  1  0  0  0
 38 43  2  0  0  0
 38 46  1  0  0  0
 38 47  1  0  0  0
 39 64  1  0  0  0
 39 67  2  0  0  0
 40 52  1  0  0  0
 40 53  2  0  0  0
 40 58  1  0  0  0
 41107  1  0  0  0
 41108  1  0  0  0
 41109  1  0  0  0
 41 48  1  0  0  0
 42 43  1  0  0  0
 42 66  1  0  0  0
 42110  1  0  0  0
 42111  1  0  0  0
 43 44  1  0  0  0
 44112  1  0  0  0
 45 46  2  0  0  0
 45113  1  0  0  0
 46114  1  0  0  0
 47115  1  0  0  0
 47116  1  0  0  0
 48 56  1  0  0  0
 48 65  1  0  0  0
 48117  1  0  0  0
 49 50  1  0  0  0
 49 53  1  0  0  0
 49 64  1  0  0  0
 49118  1  0  0  0
 50 51  1  0  0  0
 50119  1  0  0  0
 50120  1  0  0  0
 51 52  1  0  0  0
 51121  1  0  0  0
 51122  1  0  0  0
 52123  1  0  0  0
 52124  1  0  0  0
 53 54  1  0  0  0
 54 55  2  0  0  0
 54125  1  0  0  0
 55 57  1  0  0  0
 55126  1  0  0  0
 56 69  2  0  0  0
 57 58  2  0  0  0
 57127  1  0  0  0
 58128  1  0  0  0
 59 60  1  0  0  0
 59 61  1  0  0  0
 59 62  1  0  0  0
 60129  1  0  0  0
 60130  1  0  0  0
 60131  1  0  0  0
 61132  1  0  0  0
 61133  1  0  0  0
 61134  1  0  0  0
 62135  1  0  0  0
 62136  1  0  0  0
 62137  1  0  0  0
 63 65  1  0  0  0
 63138  1  0  0  0
 63139  1  0  0  0
 63140  1  0  0  0
 64141  1  0  0  0
 65142  1  0  0  0
 68 76  1  0  0  0
 71 72  2  0  0  0
 71 83  1  0  0  0
 71143  1  0  0  0
 72 78  1  0  0  0
 72 79  1  0  0  0
 73 78  2  0  0  0
 73 80  1  0  0  0
 73 83  1  0  0  0
 74 77  1  0  0  0
 74 80  1  0  0  0
 74 81  2  0  0  0
 75 80  1  0  0  0
 75144  1  0  0  0
 75145  1  0  0  0
 75146  1  0  0  0
 76 77  1  0  0  0
 76147  1  0  0  0
 76148  1  0  0  0
 77 82  1  0  0  0
 77149  1  0  0  0
 79150  1  0  0  0
M  ISO  4   1 100  68 101  76 101  79 100
M  END
> <chiral flag>
0

> <version>
0

> <s_m_source_file>
/data/baiqing/PycharmProjects/Reinvent-master-3.2/result/LINK_invent/BTK/process_docking_weight1_custom_product_contain_oxygen_bond_distance_aromatic_linkinvent_7_9_3/rearranged_h_0183.sdf

> <i_m_source_file_index>
12

> <r_mmod_Potential_Energy-OPLS-2005>
202.507217407227

> <r_mmod_Stretch_Energy-OPLS-2005>
143.610488891602

> <r_mmod_Bend_Energy-OPLS-2005>
182.185134887695

> <r_mmod_Torsional_Energy-OPLS-2005>
238.092666625977

> <r_mmod_Improper_Torsional_Energy-OPLS-2005>
4.05058288574219

> <r_mmod_Van_der_Waal_Energy-OPLS-2005>
130.328277587891

> <r_mmod_Electrostatic_Energy-OPLS-2005>
-365.182189941406

> <r_mmod_Solvation_Energy-OPLS-2005>
-221.797561645508

> <b_mmod_Minimization_Converged-OPLS-2005>
0

> <r_mmod_RMS_Derivative-OPLS-2005>
4.30501127243042

$$$$
12
                    3D
 Structure written by MMmdl.
155163  0  0  1  0            999 V2000
  -30.6686  -14.5019   20.5942 C   0  0  0  0  0  0
  -30.4306  -12.3232   19.4356 C   0  0  0  0  0  0
  -29.5033  -12.5163   18.2163 C   0  0  0  0  0  0
  -28.0227  -12.3734   18.6219 C   0  0  0  0  0  0
  -27.6648  -13.2091   19.8786 C   0  0  2  0  0  0
  -28.7012  -12.9792   21.0016 C   0  0  0  0  0  0
  -25.2597  -13.8176   20.5672 C   0  0  0  0  0  0
  -24.1857  -13.0441   20.9169 C   0  0  0  0  0  0
  -24.6419  -11.6911   20.8743 C   0  0  0  0  0  0
  -23.9092  -10.4291   21.0407 C   0  0  0  0  0  0
  -24.3630   -9.4208   21.9193 C   0  0  0  0  0  0
  -23.6292   -8.2251   22.0763 C   0  0  0  0  0  0
  -22.4275   -8.0295   21.3549 C   0  0  0  0  0  0
  -21.9928   -9.0273   20.4646 C   0  0  0  0  0  0
  -22.7272  -10.2143   20.3053 C   0  0  0  0  0  0
  -21.6852   -6.0748   22.5280 C   0  0  0  0  0  0
  -21.4016   -6.5644   23.8218 C   0  0  0  0  0  0
  -21.3660   -5.6794   24.9176 C   0  0  0  0  0  0
  -21.6037   -4.3060   24.7228 C   0  0  0  0  0  0
  -21.8823   -3.8154   23.4348 C   0  0  0  0  0  0
  -21.9192   -4.6972   22.3401 C   0  0  0  0  0  0
  -22.7874  -13.5221   21.1834 C   0  0  0  0  0  0
  -22.1657   -4.2155   21.0980 F   0  0  0  0  0  0
  -21.5628   -3.4544   25.7740 F   0  0  0  0  0  0
  -30.0370  -13.2999   20.4666 N   0  0  0  0  0  0
  -26.3038  -12.9347   20.3365 N   0  0  0  0  0  0
  -25.9348  -11.6507   20.5767 N   0  0  0  0  0  0
  -22.0515  -12.8203   22.0388 N   0  0  0  0  0  0
  -25.4340  -15.1892   20.4090 N   0  0  0  0  0  0
  -31.7634  -14.7307   20.0673 O   0  0  0  0  0  0
  -21.6639   -6.8894   21.4238 O   0  0  0  0  0  0
  -22.3561  -14.5538   20.6698 O   0  0  0  0  0  0
  -24.6134  -31.8679   23.2110 C   0  0  0  0  0  0
  -25.9022  -32.4839   23.8408 C   0  0  1  0  0  0
  -27.2399  -27.4191   20.1217 C   0  0  0  0  0  0
  -25.5865  -33.8633   24.2337 N   0  0  0  0  0  0
  -23.4063  -30.4892   21.5504 C   0  0  2  0  0  0
  -24.8600  -28.9541   20.1168 C   0  0  0  0  0  0
  -22.7421  -29.4639   22.4976 C   0  0  0  0  0  0
  -18.0250  -28.1385   22.8496 C   0  0  0  0  0  0
  -24.1468  -36.7312   23.2642 C   0  0  0  0  0  0
  -25.9354  -30.8317   21.3668 C   0  0  0  0  0  0
  -26.0197  -29.4639   20.7171 C   0  0  0  0  0  0
  -27.2161  -28.7046   20.7159 C   0  0  0  0  0  0
  -26.0678  -26.9269   19.5138 C   0  0  0  0  0  0
  -24.8797  -27.6859   19.5097 C   0  0  0  0  0  0
  -23.6212  -29.8248   20.1641 C   0  0  0  0  0  0
  -25.4100  -36.3130   24.0338 C   0  0  1  0  0  0
  -20.5850  -28.3681   23.1318 C   0  0  2  0  0  0
  -20.6751  -26.9420   22.5422 C   0  0  0  0  0  0
  -19.5732  -26.6397   21.5216 C   0  0  0  0  0  0
  -18.1903  -26.7930   22.1623 C   0  0  0  0  0  0
  -19.1505  -28.8849   23.2906 C   0  0  0  0  0  0
  -18.9444  -30.1442   23.8940 C   0  0  0  0  0  0
  -17.6457  -30.6610   24.0571 C   0  0  0  0  0  0
  -25.9030  -34.9490   23.5150 C   0  0  0  0  0  0
  -16.5344  -29.9125   23.6328 C   0  0  0  0  0  0
  -16.7244  -28.6519   23.0373 C   0  0  0  0  0  0
  -26.4466  -31.6623   25.0732 C   0  0  0  0  0  0
  -25.3718  -31.3692   26.1462 C   0  0  0  0  0  0
  -27.0326  -30.3073   24.6110 C   0  0  0  0  0  0
  -27.6041  -32.4351   25.7490 C   0  0  0  0  0  0
  -27.5582  -37.1808   24.8457 C   0  0  0  0  0  0
  -21.4136  -29.3043   22.3726 N   0  0  0  0  0  0
  -26.4287  -37.3819   23.9409 N   0  0  0  0  0  0
  -24.6699  -31.0759   22.1031 N   0  0  0  0  0  0
  -23.4173  -28.8177   23.3029 O   0  0  0  0  0  0
  -28.3716  -26.6299   20.1311 O   0  0  0  0  0  0
  -26.5637  -34.8942   22.4740 O   0  0  0  0  0  0
  -23.5318  -32.1424   23.7489 O   0  0  0  0  0  0
  -29.3673  -19.2791   21.3808 C   0  0  0  0  0  0
  -30.0362  -18.9205   20.2224 C   0  0  0  0  0  0
  -29.9222  -16.8405   21.1937 C   0  0  0  0  0  0
  -28.8548  -20.5678   21.9710 C   0  0  0  0  0  0
  -28.6109  -24.1829   20.7041 C   0  0  0  0  0  0
  -30.4459  -19.8071   19.0854 C   0  0  0  0  0  0
  -26.7544  -22.9573   21.9070 C   0  0  0  0  0  0
  -28.3845  -25.6442   21.1923 C   0  0  0  0  0  0
  -28.2847  -23.0266   21.6978 C   0  0  1  0  0  0
  -30.3395  -17.5436   20.1332 N   0  0  0  0  0  0
  -29.9997  -15.4189   21.3265 N   0  0  0  0  0  0
  -28.8173  -21.7105   21.2406 N   0  0  0  0  0  0
  -28.4452  -20.5522   23.1354 O   0  0  0  0  0  0
  -29.0283  -23.9393   19.5647 O   0  0  0  0  0  0
  -28.8450  -23.3271   22.8743 F   0  0  0  0  0  0
  -29.1134  -17.8496   22.3857 S   0  0  0  0  0  0
  -31.4759  -12.4292   19.1408 H   0  0  0  0  0  0
  -30.3375  -11.3093   19.8282 H   0  0  0  0  0  0
  -29.7465  -11.7953   17.4349 H   0  0  0  0  0  0
  -29.6737  -13.5042   17.7851 H   0  0  0  0  0  0
  -27.8305  -11.3177   18.8161 H   0  0  0  0  0  0
  -27.3762  -12.6515   17.7896 H   0  0  0  0  0  0
  -27.7118  -14.2582   19.5855 H   0  0  0  0  0  0
  -28.6818  -11.9385   21.3271 H   0  0  0  0  0  0
  -28.4423  -13.5572   21.8892 H   0  0  0  0  0  0
  -25.2771   -9.5678   22.4781 H   0  0  0  0  0  0
  -23.9990   -7.4645   22.7493 H   0  0  0  0  0  0
  -21.0860   -8.8815   19.8949 H   0  0  0  0  0  0
  -22.3752  -10.9689   19.6163 H   0  0  0  0  0  0
  -21.2018   -7.6160   23.9722 H   0  0  0  0  0  0
  -21.1467   -6.0527   25.9077 H   0  0  0  0  0  0
  -22.0600   -2.7617   23.2852 H   0  0  0  0  0  0
  -22.4101  -11.9816   22.4718 H   0  0  0  0  0  0
  -21.1152  -13.1258   22.2622 H   0  0  0  0  0  0
  -24.6703  -15.8483   20.5134 H   0  0  0  0  0  0
  -26.2896  -15.6247   20.0879 H   0  0  0  0  0  0
  -26.7094  -32.5572   23.1177 H   0  0  0  0  0  0
  -24.9954  -33.9789   25.0443 H   0  0  0  0  0  0
  -22.6950  -31.3057   21.4115 H   0  0  0  0  0  0
  -23.3756  -35.9616   23.3284 H   0  0  0  0  0  0
  -24.3545  -36.8966   22.2059 H   0  0  0  0  0  0
  -23.7182  -37.6484   23.6691 H   0  0  0  0  0  0
  -26.0419  -31.5999   20.5988 H   0  0  0  0  0  0
  -26.8221  -30.8896   21.9870 H   0  0  0  0  0  0
  -28.1100  -29.0908   21.1885 H   0  0  0  0  0  0
  -26.0741  -25.9495   19.0528 H   0  0  0  0  0  0
  -23.9903  -27.2871   19.0426 H   0  0  0  0  0  0
  -23.7354  -30.6063   19.4111 H   0  0  0  0  0  0
  -22.7433  -29.2506   19.8618 H   0  0  0  0  0  0
  -25.1267  -36.2007   25.0828 H   0  0  0  0  0  0
  -20.9930  -28.3270   24.1441 H   0  0  0  0  0  0
  -20.5673  -26.2295   23.3611 H   0  0  0  0  0  0
  -21.6624  -26.7486   22.1215 H   0  0  0  0  0  0
  -19.6912  -25.6316   21.1242 H   0  0  0  0  0  0
  -19.6678  -27.3212   20.6754 H   0  0  0  0  0  0
  -17.4176  -26.6683   21.4016 H   0  0  0  0  0  0
  -18.0295  -26.0063   22.9003 H   0  0  0  0  0  0
  -19.7926  -30.7212   24.2373 H   0  0  0  0  0  0
  -17.5030  -31.6300   24.5160 H   0  0  0  0  0  0
  -15.5353  -30.3067   23.7630 H   0  0  0  0  0  0
  -15.8618  -28.0860   22.7117 H   0  0  0  0  0  0
  -24.5893  -30.7073   25.7749 H   0  0  0  0  0  0
  -24.8913  -32.2837   26.4958 H   0  0  0  0  0  0
  -25.8045  -30.8800   27.0199 H   0  0  0  0  0  0
  -26.2889  -29.6803   24.1186 H   0  0  0  0  0  0
  -27.4120  -29.7341   25.4581 H   0  0  0  0  0  0
  -27.8707  -30.4399   23.9261 H   0  0  0  0  0  0
  -27.2685  -33.3676   26.2039 H   0  0  0  0  0  0
  -28.3866  -32.6866   25.0319 H   0  0  0  0  0  0
  -28.0691  -31.8484   26.5423 H   0  0  0  0  0  0
  -28.2583  -38.0130   24.7577 H   0  0  0  0  0  0
  -28.1106  -36.2662   24.6217 H   0  0  0  0  0  0
  -27.2294  -37.1378   25.8859 H   0  0  0  0  0  0
  -20.9291  -29.8773   21.6955 H   0  0  0  0  0  0
  -26.0180  -38.2889   24.1457 H   0  0  0  0  0  0
  -29.5743  -20.2266   18.5818 H   0  0  0  0  0  0
  -31.0183  -19.2582   18.3359 H   0  0  0  0  0  0
  -31.0705  -20.6338   19.4224 H   0  0  0  0  0  0
  -26.2311  -22.8018   20.9625 H   0  0  0  0  0  0
  -26.3631  -23.8728   22.3504 H   0  0  0  0  0  0
  -26.4640  -22.1501   22.5792 H   0  0  0  0  0  0
  -29.1911  -25.8983   21.8811 H   0  0  0  0  0  0
  -27.4606  -25.6842   21.7707 H   0  0  0  0  0  0
  -29.2828  -15.0254   21.9148 H   0  0  0  0  0  0
  -29.1675  -21.6977   20.2944 H   0  0  0  0  0  0
  1 25  1  0  0  0
  1 30  2  0  0  0
  1 81  1  0  0  0
  2  3  1  0  0  0
  2 25  1  0  0  0
  2 87  1  0  0  0
  2 88  1  0  0  0
  3  4  1  0  0  0
  3 89  1  0  0  0
  3 90  1  0  0  0
  4  5  1  0  0  0
  4 91  1  0  0  0
  4 92  1  0  0  0
  5  6  1  0  0  0
  5 26  1  0  0  0
  5 93  1  0  0  0
  6 25  1  0  0  0
  6 94  1  0  0  0
  6 95  1  0  0  0
  7  8  2  0  0  0
  7 26  1  0  0  0
  7 29  1  0  0  0
  8  9  1  0  0  0
  8 22  1  0  0  0
  9 10  1  0  0  0
  9 27  2  0  0  0
 10 11  2  0  0  0
 10 15  1  0  0  0
 11 12  1  0  0  0
 11 96  1  0  0  0
 12 13  2  0  0  0
 12 97  1  0  0  0
 13 14  1  0  0  0
 13 31  1  0  0  0
 14 15  2  0  0  0
 14 98  1  0  0  0
 15 99  1  0  0  0
 16 17  2  0  0  0
 16 21  1  0  0  0
 16 31  1  0  0  0
 17 18  1  0  0  0
 17100  1  0  0  0
 18 19  2  0  0  0
 18101  1  0  0  0
 19 20  1  0  0  0
 19 24  1  0  0  0
 20 21  2  0  0  0
 20102  1  0  0  0
 21 23  1  0  0  0
 22 28  1  0  0  0
 22 32  2  0  0  0
 26 27  1  0  0  0
 28103  1  0  0  0
 28104  1  0  0  0
 29105  1  0  0  0
 29106  1  0  0  0
 33 34  1  0  0  0
 33 66  1  0  0  0
 33 70  2  0  0  0
 34 36  1  0  0  0
 34 59  1  0  0  0
 34107  1  0  0  0
 35 44  2  0  0  0
 35 45  1  0  0  0
 35 68  1  0  0  0
 36 56  1  0  0  0
 36108  1  0  0  0
 37 39  1  0  0  0
 37 47  1  0  0  0
 37 66  1  0  0  0
 37109  1  0  0  0
 38 43  2  0  0  0
 38 46  1  0  0  0
 38 47  1  0  0  0
 39 64  1  0  0  0
 39 67  2  0  0  0
 40 52  1  0  0  0
 40 53  2  0  0  0
 40 58  1  0  0  0
 41110  1  0  0  0
 41111  1  0  0  0
 41112  1  0  0  0
 41 48  1  0  0  0
 42 43  1  0  0  0
 42 66  1  0  0  0
 42113  1  0  0  0
 42114  1  0  0  0
 43 44  1  0  0  0
 44115  1  0  0  0
 45 46  2  0  0  0
 45116  1  0  0  0
 46117  1  0  0  0
 47118  1  0  0  0
 47119  1  0  0  0
 48 56  1  0  0  0
 48 65  1  0  0  0
 48120  1  0  0  0
 49 50  1  0  0  0
 49 53  1  0  0  0
 49 64  1  0  0  0
 49121  1  0  0  0
 50 51  1  0  0  0
 50122  1  0  0  0
 50123  1  0  0  0
 51 52  1  0  0  0
 51124  1  0  0  0
 51125  1  0  0  0
 52126  1  0  0  0
 52127  1  0  0  0
 53 54  1  0  0  0
 54 55  2  0  0  0
 54128  1  0  0  0
 55 57  1  0  0  0
 55129  1  0  0  0
 56 69  2  0  0  0
 57 58  2  0  0  0
 57130  1  0  0  0
 58131  1  0  0  0
 59 60  1  0  0  0
 59 61  1  0  0  0
 59 62  1  0  0  0
 60132  1  0  0  0
 60133  1  0  0  0
 60134  1  0  0  0
 61135  1  0  0  0
 61136  1  0  0  0
 61137  1  0  0  0
 62138  1  0  0  0
 62139  1  0  0  0
 62140  1  0  0  0
 63 65  1  0  0  0
 63141  1  0  0  0
 63142  1  0  0  0
 63143  1  0  0  0
 64144  1  0  0  0
 65145  1  0  0  0
 68 78  1  0  0  0
 71 72  2  0  0  0
 71 74  1  0  0  0
 71 86  1  0  0  0
 72 76  1  0  0  0
 72 80  1  0  0  0
 73 80  2  0  0  0
 73 81  1  0  0  0
 73 86  1  0  0  0
 74 82  1  0  0  0
 74 83  2  0  0  0
 75 78  1  0  0  0
 75 79  1  0  0  0
 75 84  2  0  0  0
 76146  1  0  0  0
 76147  1  0  0  0
 76148  1  0  0  0
 77149  1  0  0  0
 77150  1  0  0  0
 77151  1  0  0  0
 77 79  1  0  0  0
 78152  1  0  0  0
 78153  1  0  0  0
 79 82  1  0  0  0
 79 85  1  0  0  0
 81154  1  0  0  0
 82155  1  0  0  0
M  ISO  4   1 100  68 101  78 101  81 100
M  END
> <chiral flag>
0

> <version>
0

> <s_m_source_file>
/data/baiqing/PycharmProjects/Reinvent-master-3.2/result/LINK_invent/BTK/process_docking_weight1_custom_product_contain_oxygen_bond_distance_aromatic_linkinvent_7_9_3/rearranged_h_0183.sdf

> <i_m_source_file_index>
13

> <r_mmod_Potential_Energy-OPLS-2005>
-164.688674926758

> <r_mmod_Stretch_Energy-OPLS-2005>
45.9775390625

> <r_mmod_Bend_Energy-OPLS-2005>
105.520202636719

> <r_mmod_Torsional_Energy-OPLS-2005>
246.523193359375

> <r_mmod_Improper_Torsional_Energy-OPLS-2005>
3.09883117675781

> <r_mmod_Van_der_Waal_Energy-OPLS-2005>
128.428695678711

> <r_mmod_Electrostatic_Energy-OPLS-2005>
-460.118194580078

> <r_mmod_Solvation_Energy-OPLS-2005>
-249.780807495117

> <b_mmod_Minimization_Converged-OPLS-2005>
0

> <r_mmod_RMS_Derivative-OPLS-2005>
2.2325234413147

$$$$
13
                    3D
 Structure written by MMmdl.
152160  0  0  1  0            999 V2000
  -30.6428  -14.7562   20.4621 C   0  0  0  0  0  0
  -30.4260  -12.4728   19.4606 C   0  0  0  0  0  0
  -29.5038  -12.5012   18.2245 C   0  0  0  0  0  0
  -28.0340  -12.3174   18.6477 C   0  0  0  0  0  0
  -27.6332  -13.2348   19.8343 C   0  0  2  0  0  0
  -28.6820  -13.2112   20.9664 C   0  0  0  0  0  0
  -25.2473  -13.8198   20.5674 C   0  0  0  0  0  0
  -24.1780  -13.0437   20.9203 C   0  0  0  0  0  0
  -24.6375  -11.6916   20.8737 C   0  0  0  0  0  0
  -23.9062  -10.4292   21.0392 C   0  0  0  0  0  0
  -24.3622   -9.4210   21.9166 C   0  0  0  0  0  0
  -23.6298   -8.2242   22.0745 C   0  0  0  0  0  0
  -22.4283   -8.0281   21.3540 C   0  0  0  0  0  0
  -21.9914   -9.0249   20.4638 C   0  0  0  0  0  0
  -22.7235  -10.2130   20.3040 C   0  0  0  0  0  0
  -21.6866   -6.0731   22.5271 C   0  0  0  0  0  0
  -21.4022   -6.5631   23.8200 C   0  0  0  0  0  0
  -21.3660   -5.6787   24.9163 C   0  0  0  0  0  0
  -21.6046   -4.3043   24.7216 C   0  0  0  0  0  0
  -21.8817   -3.8135   23.4338 C   0  0  0  0  0  0
  -21.9195   -4.6955   22.3391 C   0  0  0  0  0  0
  -22.7804  -13.5211   21.1855 C   0  0  0  0  0  0
  -22.1661   -4.2138   21.0976 F   0  0  0  0  0  0
  -21.5629   -3.4528   25.7728 F   0  0  0  0  0  0
  -29.9748  -13.5548   20.3655 N   0  0  0  0  0  0
  -26.2896  -12.9406   20.3218 N   0  0  0  0  0  0
  -25.9306  -11.6548   20.5728 N   0  0  0  0  0  0
  -22.0455  -12.8214   22.0425 N   0  0  0  0  0  0
  -25.4139  -15.1932   20.4101 N   0  0  0  0  0  0
  -31.8532  -14.7678   20.2195 O   0  0  0  0  0  0
  -21.6643   -6.8881   21.4239 O   0  0  0  0  0  0
  -22.3496  -14.5513   20.6693 O   0  0  0  0  0  0
  -24.6284  -31.8553   23.1978 C   0  0  0  0  0  0
  -25.9110  -32.4760   23.8321 C   0  0  1  0  0  0
  -27.2131  -27.2652   20.1371 C   0  0  0  0  0  0
  -25.5901  -33.8562   24.2235 N   0  0  0  0  0  0
  -23.4247  -30.4757   21.5424 C   0  0  2  0  0  0
  -24.8731  -28.9197   20.1121 C   0  0  0  0  0  0
  -22.7481  -29.4583   22.4928 C   0  0  0  0  0  0
  -18.0277  -28.1365   22.8479 C   0  0  0  0  0  0
  -24.1493  -36.7294   23.2647 C   0  0  0  0  0  0
  -25.9694  -30.7687   21.3782 C   0  0  0  0  0  0
  -26.0434  -29.3903   20.7234 C   0  0  0  0  0  0
  -27.2204  -28.5752   20.7236 C   0  0  0  0  0  0
  -26.0288  -26.8610   19.4910 C   0  0  0  0  0  0
  -24.8707  -27.6634   19.4842 C   0  0  0  0  0  0
  -23.6427  -29.8068   20.1588 C   0  0  0  0  0  0
  -25.4124  -36.3082   24.0326 C   0  0  1  0  0  0
  -20.5879  -28.3668   23.1278 C   0  0  2  0  0  0
  -20.6759  -26.9388   22.5410 C   0  0  0  0  0  0
  -19.5745  -26.6362   21.5201 C   0  0  0  0  0  0
  -18.1923  -26.7907   22.1608 C   0  0  0  0  0  0
  -19.1530  -28.8834   23.2877 C   0  0  0  0  0  0
  -18.9459  -30.1435   23.8900 C   0  0  0  0  0  0
  -17.6462  -30.6580   24.0552 C   0  0  0  0  0  0
  -25.9057  -34.9449   23.5097 C   0  0  0  0  0  0
  -16.5351  -29.9078   23.6319 C   0  0  0  0  0  0
  -16.7268  -28.6486   23.0355 C   0  0  0  0  0  0
  -26.4498  -31.6585   25.0703 C   0  0  0  0  0  0
  -25.3723  -31.3767   26.1434 C   0  0  0  0  0  0
  -27.0304  -30.2986   24.6192 C   0  0  0  0  0  0
  -27.6034  -32.4340   25.7478 C   0  0  0  0  0  0
  -27.5590  -37.1804   24.8462 C   0  0  0  0  0  0
  -21.4183  -29.3023   22.3679 N   0  0  0  0  0  0
  -26.4304  -37.3779   23.9408 N   0  0  0  0  0  0
  -24.6932  -31.0513   22.0963 N   0  0  0  0  0  0
  -23.4189  -28.8124   23.3028 O   0  0  0  0  0  0
  -28.3024  -26.3690   20.1440 O   0  0  0  0  0  0
  -26.5651  -34.8927   22.4681 O   0  0  0  0  0  0
  -23.5437  -32.1385   23.7272 O   0  0  0  0  0  0
  -29.6287  -18.5545   20.4957 C   0  0  0  0  0  0
  -28.7572  -19.0033   19.5089 C   0  0  0  0  0  0
  -29.0751  -21.1160   20.4834 C   0  0  0  0  0  0
  -30.4009  -17.2300   20.7816 C   0  0  0  0  0  0
  -28.4053  -23.6659   20.1017 C   0  0  0  0  0  0
  -28.1768  -18.1630   18.4109 C   0  0  0  0  0  0
  -27.0378  -24.9558   21.8562 C   0  0  0  0  0  0
  -28.2418  -25.0583   20.8962 C   0  0  2  0  0  0
  -28.4548  -20.4074   19.5201 N   0  0  0  0  0  0
  -28.9146  -22.5636   20.7741 N   0  0  0  0  0  0
  -29.9143  -15.9431   20.5658 N   0  0  0  0  0  0
  -31.5313  -17.3847   21.2576 O   0  0  0  0  0  0
  -28.0632  -23.6133   18.9171 O   0  0  0  0  0  0
  -30.0790  -19.9931   21.4644 S   0  0  0  0  0  0
  -31.4650  -12.5931   19.1479 H   0  0  0  0  0  0
  -30.3766  -11.5069   19.9644 H   0  0  0  0  0  0
  -29.7919  -11.7214   17.5191 H   0  0  0  0  0  0
  -29.6196  -13.4491   17.6964 H   0  0  0  0  0  0
  -27.9037  -11.2716   18.9289 H   0  0  0  0  0  0
  -27.3725  -12.4835   17.7969 H   0  0  0  0  0  0
  -27.6137  -14.2466   19.4296 H   0  0  0  0  0  0
  -28.7237  -12.2289   21.4384 H   0  0  0  0  0  0
  -28.4186  -13.9257   21.7501 H   0  0  0  0  0  0
  -25.2768   -9.5687   22.4742 H   0  0  0  0  0  0
  -24.0000   -7.4636   22.7468 H   0  0  0  0  0  0
  -21.0837   -8.8763   19.8960 H   0  0  0  0  0  0
  -22.3675  -10.9668   19.6152 H   0  0  0  0  0  0
  -21.2029   -7.6142   23.9700 H   0  0  0  0  0  0
  -21.1486   -6.0514   25.9064 H   0  0  0  0  0  0
  -22.0604   -2.7596   23.2833 H   0  0  0  0  0  0
  -22.4088  -11.9913   22.4872 H   0  0  0  0  0  0
  -21.1059  -13.1220   22.2596 H   0  0  0  0  0  0
  -24.6408  -15.8414   20.5167 H   0  0  0  0  0  0
  -26.2539  -15.6355   20.0652 H   0  0  0  0  0  0
  -26.7158  -32.5423   23.1048 H   0  0  0  0  0  0
  -24.9967  -33.9693   25.0322 H   0  0  0  0  0  0
  -22.7225  -31.2995   21.3962 H   0  0  0  0  0  0
  -23.3757  -35.9625   23.3311 H   0  0  0  0  0  0
  -24.3584  -36.8926   22.2063 H   0  0  0  0  0  0
  -23.7236  -37.6484   23.6685 H   0  0  0  0  0  0
  -26.1090  -31.5293   20.6093 H   0  0  0  0  0  0
  -26.8460  -30.8182   22.0121 H   0  0  0  0  0  0
  -28.1187  -28.9301   21.2103 H   0  0  0  0  0  0
  -25.9947  -25.8945   19.0097 H   0  0  0  0  0  0
  -23.9747  -27.2996   18.9998 H   0  0  0  0  0  0
  -23.7661  -30.5831   19.4024 H   0  0  0  0  0  0
  -22.7611  -29.2387   19.8550 H   0  0  0  0  0  0
  -25.1315  -36.1931   25.0819 H   0  0  0  0  0  0
  -20.9966  -28.3232   24.1401 H   0  0  0  0  0  0
  -20.5608  -26.2286   23.3613 H   0  0  0  0  0  0
  -21.6639  -26.7387   22.1244 H   0  0  0  0  0  0
  -19.6909  -25.6267   21.1251 H   0  0  0  0  0  0
  -19.6694  -27.3154   20.6719 H   0  0  0  0  0  0
  -17.4190  -26.6643   21.4015 H   0  0  0  0  0  0
  -18.0339  -26.0044   22.9003 H   0  0  0  0  0  0
  -19.7940  -30.7237   24.2285 H   0  0  0  0  0  0
  -17.5022  -31.6268   24.5143 H   0  0  0  0  0  0
  -15.5352  -30.2989   23.7641 H   0  0  0  0  0  0
  -15.8662  -28.0807   22.7085 H   0  0  0  0  0  0
  -24.5824  -30.7213   25.7750 H   0  0  0  0  0  0
  -24.9007  -32.2956   26.4919 H   0  0  0  0  0  0
  -25.8015  -30.8852   27.0167 H   0  0  0  0  0  0
  -26.2858  -29.6766   24.1204 H   0  0  0  0  0  0
  -27.3950  -29.7250   25.4719 H   0  0  0  0  0  0
  -27.8782  -30.4242   23.9451 H   0  0  0  0  0  0
  -27.2602  -33.3633   26.2058 H   0  0  0  0  0  0
  -28.3838  -32.6928   25.0310 H   0  0  0  0  0  0
  -28.0704  -31.8466   26.5397 H   0  0  0  0  0  0
  -28.2597  -38.0108   24.7515 H   0  0  0  0  0  0
  -28.1093  -36.2638   24.6283 H   0  0  0  0  0  0
  -27.2315  -37.1453   25.8865 H   0  0  0  0  0  0
  -20.9356  -29.8792   21.6932 H   0  0  0  0  0  0
  -26.0180  -38.2856   24.1398 H   0  0  0  0  0  0
  -27.8624  -17.1864   18.7768 H   0  0  0  0  0  0
  -28.9024  -17.9983   17.6143 H   0  0  0  0  0  0
  -27.3054  -18.6331   17.9562 H   0  0  0  0  0  0
  -26.9738  -25.8218   22.5144 H   0  0  0  0  0  0
  -27.1114  -24.0726   22.4922 H   0  0  0  0  0  0
  -26.0970  -24.8739   21.3140 H   0  0  0  0  0  0
  -29.1229  -25.1072   21.5362 H   0  0  0  0  0  0
  -29.2451  -22.8086   21.6967 H   0  0  0  0  0  0
  -28.9199  -15.8649   20.4437 H   0  0  0  0  0  0
  1 25  1  0  0  0
  1 30  2  0  0  0
  1 81  1  0  0  0
  2  3  1  0  0  0
  2 25  1  0  0  0
  2 85  1  0  0  0
  2 86  1  0  0  0
  3  4  1  0  0  0
  3 87  1  0  0  0
  3 88  1  0  0  0
  4  5  1  0  0  0
  4 89  1  0  0  0
  4 90  1  0  0  0
  5  6  1  0  0  0
  5 26  1  0  0  0
  5 91  1  0  0  0
  6 25  1  0  0  0
  6 92  1  0  0  0
  6 93  1  0  0  0
  7  8  2  0  0  0
  7 26  1  0  0  0
  7 29  1  0  0  0
  8  9  1  0  0  0
  8 22  1  0  0  0
  9 10  1  0  0  0
  9 27  2  0  0  0
 10 11  2  0  0  0
 10 15  1  0  0  0
 11 12  1  0  0  0
 11 94  1  0  0  0
 12 13  2  0  0  0
 12 95  1  0  0  0
 13 14  1  0  0  0
 13 31  1  0  0  0
 14 15  2  0  0  0
 14 96  1  0  0  0
 15 97  1  0  0  0
 16 17  2  0  0  0
 16 21  1  0  0  0
 16 31  1  0  0  0
 17 18  1  0  0  0
 17 98  1  0  0  0
 18 19  2  0  0  0
 18 99  1  0  0  0
 19 20  1  0  0  0
 19 24  1  0  0  0
 20 21  2  0  0  0
 20100  1  0  0  0
 21 23  1  0  0  0
 22 28  1  0  0  0
 22 32  2  0  0  0
 26 27  1  0  0  0
 28101  1  0  0  0
 28102  1  0  0  0
 29103  1  0  0  0
 29104  1  0  0  0
 33 34  1  0  0  0
 33 66  1  0  0  0
 33 70  2  0  0  0
 34 36  1  0  0  0
 34 59  1  0  0  0
 34105  1  0  0  0
 35 44  2  0  0  0
 35 45  1  0  0  0
 35 68  1  0  0  0
 36 56  1  0  0  0
 36106  1  0  0  0
 37 39  1  0  0  0
 37 47  1  0  0  0
 37 66  1  0  0  0
 37107  1  0  0  0
 38 43  2  0  0  0
 38 46  1  0  0  0
 38 47  1  0  0  0
 39 64  1  0  0  0
 39 67  2  0  0  0
 40 52  1  0  0  0
 40 53  2  0  0  0
 40 58  1  0  0  0
 41108  1  0  0  0
 41109  1  0  0  0
 41110  1  0  0  0
 41 48  1  0  0  0
 42 43  1  0  0  0
 42 66  1  0  0  0
 42111  1  0  0  0
 42112  1  0  0  0
 43 44  1  0  0  0
 44113  1  0  0  0
 45 46  2  0  0  0
 45114  1  0  0  0
 46115  1  0  0  0
 47116  1  0  0  0
 47117  1  0  0  0
 48 56  1  0  0  0
 48 65  1  0  0  0
 48118  1  0  0  0
 49 50  1  0  0  0
 49 53  1  0  0  0
 49 64  1  0  0  0
 49119  1  0  0  0
 50 51  1  0  0  0
 50120  1  0  0  0
 50121  1  0  0  0
 51 52  1  0  0  0
 51122  1  0  0  0
 51123  1  0  0  0
 52124  1  0  0  0
 52125  1  0  0  0
 53 54  1  0  0  0
 54 55  2  0  0  0
 54126  1  0  0  0
 55 57  1  0  0  0
 55127  1  0  0  0
 56 69  2  0  0  0
 57 58  2  0  0  0
 57128  1  0  0  0
 58129  1  0  0  0
 59 60  1  0  0  0
 59 61  1  0  0  0
 59 62  1  0  0  0
 60130  1  0  0  0
 60131  1  0  0  0
 60132  1  0  0  0
 61133  1  0  0  0
 61134  1  0  0  0
 61135  1  0  0  0
 62136  1  0  0  0
 62137  1  0  0  0
 62138  1  0  0  0
 63 65  1  0  0  0
 63139  1  0  0  0
 63140  1  0  0  0
 63141  1  0  0  0
 64142  1  0  0  0
 65143  1  0  0  0
 68 78  1  0  0  0
 71 72  2  0  0  0
 71 74  1  0  0  0
 71 84  1  0  0  0
 72 76  1  0  0  0
 72 79  1  0  0  0
 73 79  2  0  0  0
 73 80  1  0  0  0
 73 84  1  0  0  0
 74 81  1  0  0  0
 74 82  2  0  0  0
 75 78  1  0  0  0
 75 80  1  0  0  0
 75 83  2  0  0  0
 76144  1  0  0  0
 76145  1  0  0  0
 76146  1  0  0  0
 77147  1  0  0  0
 77148  1  0  0  0
 77149  1  0  0  0
 77 78  1  0  0  0
 78150  1  0  0  0
 80151  1  0  0  0
 81152  1  0  0  0
M  ISO  4   1 100  68 101  78 101  81 100
M  END
> <chiral flag>
0

> <version>
0

> <s_m_source_file>
/data/baiqing/PycharmProjects/Reinvent-master-3.2/result/LINK_invent/BTK/process_docking_weight1_custom_product_contain_oxygen_bond_distance_aromatic_linkinvent_7_9_3/rearranged_h_0183.sdf

> <i_m_source_file_index>
14

> <r_mmod_Potential_Energy-OPLS-2005>
26.0954856872559

> <r_mmod_Stretch_Energy-OPLS-2005>
116.528198242188

> <r_mmod_Bend_Energy-OPLS-2005>
184.331558227539

> <r_mmod_Torsional_Energy-OPLS-2005>
262.918121337891

> <r_mmod_Improper_Torsional_Energy-OPLS-2005>
6.91080570220947

> <r_mmod_Van_der_Waal_Energy-OPLS-2005>
116.718032836914

> <r_mmod_Electrostatic_Energy-OPLS-2005>
-481.940765380859

> <r_mmod_Solvation_Energy-OPLS-2005>
-269.811798095703

> <b_mmod_Minimization_Converged-OPLS-2005>
0

> <r_mmod_RMS_Derivative-OPLS-2005>
2.1177294254303

$$$$
14
                    3D
 Structure written by MMmdl.
160168  0  0  1  0            999 V2000
  -30.6249  -14.8043   20.4216 C   0  0  0  0  0  0
  -30.4206  -12.4914   19.4761 C   0  0  0  0  0  0
  -29.5013  -12.5018   18.2350 C   0  0  0  0  0  0
  -28.0302  -12.3241   18.6526 C   0  0  0  0  0  0
  -27.6282  -13.2423   19.8360 C   0  0  2  0  0  0
  -28.6766  -13.2324   20.9712 C   0  0  0  0  0  0
  -25.2442  -13.8214   20.5698 C   0  0  0  0  0  0
  -24.1772  -13.0445   20.9262 C   0  0  0  0  0  0
  -24.6379  -11.6924   20.8781 C   0  0  0  0  0  0
  -23.9065  -10.4290   21.0425 C   0  0  0  0  0  0
  -24.3618   -9.4206   21.9197 C   0  0  0  0  0  0
  -23.6301   -8.2240   22.0755 C   0  0  0  0  0  0
  -22.4280   -8.0276   21.3544 C   0  0  0  0  0  0
  -21.9914   -9.0253   20.4647 C   0  0  0  0  0  0
  -22.7240  -10.2136   20.3072 C   0  0  0  0  0  0
  -21.6852   -6.0738   22.5278 C   0  0  0  0  0  0
  -21.4014   -6.5637   23.8216 C   0  0  0  0  0  0
  -21.3661   -5.6784   24.9173 C   0  0  0  0  0  0
  -21.6050   -4.3052   24.7221 C   0  0  0  0  0  0
  -21.8815   -3.8146   23.4340 C   0  0  0  0  0  0
  -21.9193   -4.6964   22.3396 C   0  0  0  0  0  0
  -22.7789  -13.5212   21.1907 C   0  0  0  0  0  0
  -22.1658   -4.2149   21.0974 F   0  0  0  0  0  0
  -21.5630   -3.4538   25.7732 F   0  0  0  0  0  0
  -29.9686  -13.5858   20.3726 N   0  0  0  0  0  0
  -26.2859  -12.9439   20.3233 N   0  0  0  0  0  0
  -25.9308  -11.6576   20.5768 N   0  0  0  0  0  0
  -22.0448  -12.8178   22.0450 N   0  0  0  0  0  0
  -25.4093  -15.1934   20.3989 N   0  0  0  0  0  0
  -31.8294  -14.8198   20.1685 O   0  0  0  0  0  0
  -21.6644   -6.8878   21.4236 O   0  0  0  0  0  0
  -22.3481  -14.5534   20.6775 O   0  0  0  0  0  0
  -24.6345  -31.8521   23.1937 C   0  0  0  0  0  0
  -25.9149  -32.4742   23.8311 C   0  0  1  0  0  0
  -27.2210  -27.2339   20.1522 C   0  0  0  0  0  0
  -25.5927  -33.8544   24.2227 N   0  0  0  0  0  0
  -23.4334  -30.4721   21.5373 C   0  0  2  0  0  0
  -24.8818  -28.9045   20.1200 C   0  0  0  0  0  0
  -22.7516  -29.4573   22.4888 C   0  0  0  0  0  0
  -18.0293  -28.1370   22.8473 C   0  0  0  0  0  0
  -24.1480  -36.7299   23.2640 C   0  0  0  0  0  0
  -25.9793  -30.7609   21.3725 C   0  0  0  0  0  0
  -26.0545  -29.3745   20.7260 C   0  0  0  0  0  0
  -27.2326  -28.5550   20.7235 C   0  0  0  0  0  0
  -26.0247  -26.8259   19.5324 C   0  0  0  0  0  0
  -24.8715  -27.6376   19.5120 C   0  0  0  0  0  0
  -23.6558  -29.7988   20.1565 C   0  0  0  0  0  0
  -25.4106  -36.3063   24.0319 C   0  0  1  0  0  0
  -20.5906  -28.3685   23.1246 C   0  0  2  0  0  0
  -20.6781  -26.9397   22.5395 C   0  0  0  0  0  0
  -19.5755  -26.6364   21.5195 C   0  0  0  0  0  0
  -18.1933  -26.7913   22.1606 C   0  0  0  0  0  0
  -19.1553  -28.8842   23.2857 C   0  0  0  0  0  0
  -18.9477  -30.1448   23.8879 C   0  0  0  0  0  0
  -17.6482  -30.6580   24.0552 C   0  0  0  0  0  0
  -25.9046  -34.9434   23.5072 C   0  0  0  0  0  0
  -16.5367  -29.9072   23.6329 C   0  0  0  0  0  0
  -16.7281  -28.6492   23.0351 C   0  0  0  0  0  0
  -26.4508  -31.6582   25.0721 C   0  0  0  0  0  0
  -25.3713  -31.3742   26.1428 C   0  0  0  0  0  0
  -27.0373  -30.3004   24.6217 C   0  0  0  0  0  0
  -27.6048  -32.4338   25.7502 C   0  0  0  0  0  0
  -27.5573  -37.1799   24.8460 C   0  0  0  0  0  0
  -21.4221  -29.3044   22.3651 N   0  0  0  0  0  0
  -26.4278  -37.3769   23.9415 N   0  0  0  0  0  0
  -24.7022  -31.0474   22.0915 N   0  0  0  0  0  0
  -23.4208  -28.8115   23.2999 O   0  0  0  0  0  0
  -28.3140  -26.3356   20.1109 O   0  0  0  0  0  0
  -26.5621  -34.8907   22.4638 O   0  0  0  0  0  0
  -23.5490  -32.1337   23.7225 O   0  0  0  0  0  0
  -27.8908  -18.6595   20.1816 C   0  0  0  0  0  0
  -29.2430  -18.6808   20.4170 C   0  0  0  0  0  0
  -28.7670  -21.0337   20.4102 C   0  0  0  0  0  0
  -30.2044  -17.4734   20.2957 C   0  0  0  0  0  0
  -28.2628  -23.6058   20.1483 C   0  0  0  0  0  0
  -29.4438  -25.1462   21.9042 C   0  0  0  0  0  0
  -33.6787  -18.5858   19.2192 C   0  0  0  0  0  0
  -32.3672  -16.9525   17.8292 C   0  0  0  0  0  0
  -28.2857  -25.0470   20.8995 C   0  0  1  0  0  0
  -32.6340  -17.4582   19.2584 C   0  0  0  0  0  0
  -29.7266  -20.0488   20.5505 N   0  0  0  0  0  0
  -28.9658  -22.4952   20.6206 N   0  0  0  0  0  0
  -29.8567  -16.1112   20.5131 N   0  0  0  0  0  0
  -31.3905  -17.9692   19.8583 N   0  3  0  0  0  0
  -27.5766  -23.5110   19.1277 O   0  0  0  0  0  0
  -27.1908  -20.2839   20.0988 S   0  0  0  0  0  0
  -31.4622  -12.6037   19.1693 H   0  0  0  0  0  0
  -30.3669  -11.5290   19.9884 H   0  0  0  0  0  0
  -29.7918  -11.7116   17.5412 H   0  0  0  0  0  0
  -29.6190  -13.4413   17.6932 H   0  0  0  0  0  0
  -27.8939  -11.2789   18.9325 H   0  0  0  0  0  0
  -27.3722  -12.4978   17.8004 H   0  0  0  0  0  0
  -27.6005  -14.2512   19.4237 H   0  0  0  0  0  0
  -28.7277  -12.2509   21.4454 H   0  0  0  0  0  0
  -28.4042  -13.9400   21.7559 H   0  0  0  0  0  0
  -25.2752   -9.5678   22.4781 H   0  0  0  0  0  0
  -24.0014   -7.4617   22.7450 H   0  0  0  0  0  0
  -21.0860   -8.8757   19.8939 H   0  0  0  0  0  0
  -22.3691  -10.9675   19.6190 H   0  0  0  0  0  0
  -21.2012   -7.6145   23.9716 H   0  0  0  0  0  0
  -21.1485   -6.0519   25.9078 H   0  0  0  0  0  0
  -22.0599   -2.7606   23.2837 H   0  0  0  0  0  0
  -22.4084  -11.9827   22.4783 H   0  0  0  0  0  0
  -21.1077  -13.1191   22.2713 H   0  0  0  0  0  0
  -24.5964  -15.8000   20.4292 H   0  0  0  0  0  0
  -26.1533  -15.5685   19.8292 H   0  0  0  0  0  0
  -26.7224  -32.5413   23.1074 H   0  0  0  0  0  0
  -25.0103  -33.9679   25.0397 H   0  0  0  0  0  0
  -22.7317  -31.2957   21.3854 H   0  0  0  0  0  0
  -23.3732  -35.9634   23.3280 H   0  0  0  0  0  0
  -24.3586  -36.8953   22.2060 H   0  0  0  0  0  0
  -23.7240  -37.6496   23.6687 H   0  0  0  0  0  0
  -26.1088  -31.5117   20.5923 H   0  0  0  0  0  0
  -26.8605  -30.8259   21.9980 H   0  0  0  0  0  0
  -28.1390  -28.9150   21.1908 H   0  0  0  0  0  0
  -25.9783  -25.8484   19.0716 H   0  0  0  0  0  0
  -23.9725  -27.2700   19.0382 H   0  0  0  0  0  0
  -23.7875  -30.5726   19.3993 H   0  0  0  0  0  0
  -22.7729  -29.2366   19.8495 H   0  0  0  0  0  0
  -25.1281  -36.1908   25.0813 H   0  0  0  0  0  0
  -20.9985  -28.3267   24.1375 H   0  0  0  0  0  0
  -20.5659  -26.2298   23.3602 H   0  0  0  0  0  0
  -21.6654  -26.7398   22.1204 H   0  0  0  0  0  0
  -19.6912  -25.6267   21.1253 H   0  0  0  0  0  0
  -19.6704  -27.3159   20.6721 H   0  0  0  0  0  0
  -17.4200  -26.6651   21.4013 H   0  0  0  0  0  0
  -18.0331  -26.0056   22.9001 H   0  0  0  0  0  0
  -19.7960  -30.7261   24.2234 H   0  0  0  0  0  0
  -17.5041  -31.6260   24.5144 H   0  0  0  0  0  0
  -15.5370  -30.2969   23.7671 H   0  0  0  0  0  0
  -15.8677  -28.0814   22.7060 H   0  0  0  0  0  0
  -24.5888  -30.7090   25.7777 H   0  0  0  0  0  0
  -24.8897  -32.2908   26.4838 H   0  0  0  0  0  0
  -25.8011  -30.8947   27.0228 H   0  0  0  0  0  0
  -26.2976  -29.6743   24.1225 H   0  0  0  0  0  0
  -27.4044  -29.7288   25.4757 H   0  0  0  0  0  0
  -27.8838  -30.4294   23.9468 H   0  0  0  0  0  0
  -27.2649  -33.3655   26.2032 H   0  0  0  0  0  0
  -28.3879  -32.6880   25.0350 H   0  0  0  0  0  0
  -28.0672  -31.8497   26.5466 H   0  0  0  0  0  0
  -28.2562  -38.0122   24.7534 H   0  0  0  0  0  0
  -28.1091  -36.2661   24.6238 H   0  0  0  0  0  0
  -27.2305  -37.1394   25.8862 H   0  0  0  0  0  0
  -20.9386  -29.8819   21.6911 H   0  0  0  0  0  0
  -26.0149  -38.2832   24.1445 H   0  0  0  0  0  0
  -27.2570  -17.8045   19.9988 H   0  0  0  0  0  0
  -30.4093  -25.1172   21.3984 H   0  0  0  0  0  0
  -29.4174  -24.3406   22.6394 H   0  0  0  0  0  0
  -29.3905  -26.0841   22.4569 H   0  0  0  0  0  0
  -34.6119  -18.2355   18.7742 H   0  0  0  0  0  0
  -33.9199  -18.9452   20.2205 H   0  0  0  0  0  0
  -33.3363  -19.4367   18.6285 H   0  0  0  0  0  0
  -33.3009  -16.7948   17.2876 H   0  0  0  0  0  0
  -31.7760  -17.6706   17.2584 H   0  0  0  0  0  0
  -31.8274  -16.0069   17.8257 H   0  0  0  0  0  0
  -27.3650  -25.0577   21.4854 H   0  0  0  0  0  0
  -33.0791  -16.6846   19.8763 H   0  0  0  0  0  0
  -29.6713  -22.7176   21.3067 H   0  0  0  0  0  0
  -28.8790  -16.0576   20.7342 H   0  0  0  0  0  0
  -31.3167  -18.9815   19.8204 H   0  0  0  0  0  0
  1 25  1  0  0  0
  1 30  2  0  0  0
  1 83  1  0  0  0
  2  3  1  0  0  0
  2 25  1  0  0  0
  2 87  1  0  0  0
  2 88  1  0  0  0
  3  4  1  0  0  0
  3 89  1  0  0  0
  3 90  1  0  0  0
  4  5  1  0  0  0
  4 91  1  0  0  0
  4 92  1  0  0  0
  5  6  1  0  0  0
  5 26  1  0  0  0
  5 93  1  0  0  0
  6 25  1  0  0  0
  6 94  1  0  0  0
  6 95  1  0  0  0
  7  8  2  0  0  0
  7 26  1  0  0  0
  7 29  1  0  0  0
  8  9  1  0  0  0
  8 22  1  0  0  0
  9 10  1  0  0  0
  9 27  2  0  0  0
 10 11  2  0  0  0
 10 15  1  0  0  0
 11 12  1  0  0  0
 11 96  1  0  0  0
 12 13  2  0  0  0
 12 97  1  0  0  0
 13 14  1  0  0  0
 13 31  1  0  0  0
 14 15  2  0  0  0
 14 98  1  0  0  0
 15 99  1  0  0  0
 16 17  2  0  0  0
 16 21  1  0  0  0
 16 31  1  0  0  0
 17 18  1  0  0  0
 17100  1  0  0  0
 18 19  2  0  0  0
 18101  1  0  0  0
 19 20  1  0  0  0
 19 24  1  0  0  0
 20 21  2  0  0  0
 20102  1  0  0  0
 21 23  1  0  0  0
 22 28  1  0  0  0
 22 32  2  0  0  0
 26 27  1  0  0  0
 28103  1  0  0  0
 28104  1  0  0  0
 29105  1  0  0  0
 29106  1  0  0  0
 33 34  1  0  0  0
 33 66  1  0  0  0
 33 70  2  0  0  0
 34 36  1  0  0  0
 34 59  1  0  0  0
 34107  1  0  0  0
 35 44  2  0  0  0
 35 45  1  0  0  0
 35 68  1  0  0  0
 36 56  1  0  0  0
 36108  1  0  0  0
 37 39  1  0  0  0
 37 47  1  0  0  0
 37 66  1  0  0  0
 37109  1  0  0  0
 38 43  2  0  0  0
 38 46  1  0  0  0
 38 47  1  0  0  0
 39 64  1  0  0  0
 39 67  2  0  0  0
 40 52  1  0  0  0
 40 53  2  0  0  0
 40 58  1  0  0  0
 41110  1  0  0  0
 41111  1  0  0  0
 41112  1  0  0  0
 41 48  1  0  0  0
 42 43  1  0  0  0
 42 66  1  0  0  0
 42113  1  0  0  0
 42114  1  0  0  0
 43 44  1  0  0  0
 44115  1  0  0  0
 45 46  2  0  0  0
 45116  1  0  0  0
 46117  1  0  0  0
 47118  1  0  0  0
 47119  1  0  0  0
 48 56  1  0  0  0
 48 65  1  0  0  0
 48120  1  0  0  0
 49 50  1  0  0  0
 49 53  1  0  0  0
 49 64  1  0  0  0
 49121  1  0  0  0
 50 51  1  0  0  0
 50122  1  0  0  0
 50123  1  0  0  0
 51 52  1  0  0  0
 51124  1  0  0  0
 51125  1  0  0  0
 52126  1  0  0  0
 52127  1  0  0  0
 53 54  1  0  0  0
 54 55  2  0  0  0
 54128  1  0  0  0
 55 57  1  0  0  0
 55129  1  0  0  0
 56 69  2  0  0  0
 57 58  2  0  0  0
 57130  1  0  0  0
 58131  1  0  0  0
 59 60  1  0  0  0
 59 61  1  0  0  0
 59 62  1  0  0  0
 60132  1  0  0  0
 60133  1  0  0  0
 60134  1  0  0  0
 61135  1  0  0  0
 61136  1  0  0  0
 61137  1  0  0  0
 62138  1  0  0  0
 62139  1  0  0  0
 62140  1  0  0  0
 63 65  1  0  0  0
 63141  1  0  0  0
 63142  1  0  0  0
 63143  1  0  0  0
 64144  1  0  0  0
 65145  1  0  0  0
 68 79  1  0  0  0
 71 72  2  0  0  0
 71 86  1  0  0  0
 71146  1  0  0  0
 72 74  1  0  0  0
 72 81  1  0  0  0
 73 81  2  0  0  0
 73 82  1  0  0  0
 73 86  1  0  0  0
 74 83  1  0  0  0
 74 84  2  0  0  0
 75 79  1  0  0  0
 75 82  1  0  0  0
 75 85  2  0  0  0
 76147  1  0  0  0
 76148  1  0  0  0
 76149  1  0  0  0
 76 79  1  0  0  0
 77150  1  0  0  0
 77151  1  0  0  0
 77152  1  0  0  0
 77 80  1  0  0  0
 78 80  1  0  0  0
 78153  1  0  0  0
 78154  1  0  0  0
 78155  1  0  0  0
 79156  1  0  0  0
 80 84  1  0  0  0
 80157  1  0  0  0
 82158  1  0  0  0
 83159  1  0  0  0
 84160  1  0  0  0
M  CHG  1  84   1
M  ISO  4   1 100  68 101  79 101  83 100
M  END
> <chiral flag>
0

> <version>
0

> <s_m_source_file>
/data/baiqing/PycharmProjects/Reinvent-master-3.2/result/LINK_invent/BTK/process_docking_weight1_custom_product_contain_oxygen_bond_distance_aromatic_linkinvent_7_9_3/rearranged_h_0183.sdf

> <i_m_source_file_index>
15

> <r_mmod_Potential_Energy-OPLS-2005>
-25.0218200683594

> <r_mmod_Stretch_Energy-OPLS-2005>
146.398345947266

> <r_mmod_Bend_Energy-OPLS-2005>
241.967300415039

> <r_mmod_Torsional_Energy-OPLS-2005>
262.276702880859

> <r_mmod_Improper_Torsional_Energy-OPLS-2005>
9.75048637390137

> <r_mmod_Van_der_Waal_Energy-OPLS-2005>
114.178268432617

> <r_mmod_Electrostatic_Energy-OPLS-2005>
-451.005310058594

> <r_mmod_Solvation_Energy-OPLS-2005>
-456.149719238281

> <b_mmod_Minimization_Converged-OPLS-2005>
0

> <r_mmod_RMS_Derivative-OPLS-2005>
2.41773200035095

$$$$
15
                    3D
 Structure written by MMmdl.
151159  0  0  1  0            999 V2000
  -30.6193  -14.8073   20.4591 C   0  0  0  0  0  0
  -30.4361  -12.5043   19.4651 C   0  0  0  0  0  0
  -29.5106  -12.5053   18.2306 C   0  0  0  0  0  0
  -28.0379  -12.3232   18.6500 C   0  0  0  0  0  0
  -27.6348  -13.2376   19.8378 C   0  0  2  0  0  0
  -28.6872  -13.2212   20.9655 C   0  0  0  0  0  0
  -25.2500  -13.8207   20.5701 C   0  0  0  0  0  0
  -24.1805  -13.0441   20.9231 C   0  0  0  0  0  0
  -24.6404  -11.6922   20.8758 C   0  0  0  0  0  0
  -23.9084  -10.4292   21.0401 C   0  0  0  0  0  0
  -24.3635   -9.4203   21.9175 C   0  0  0  0  0  0
  -23.6305   -8.2241   22.0741 C   0  0  0  0  0  0
  -22.4285   -8.0283   21.3533 C   0  0  0  0  0  0
  -21.9926   -9.0258   20.4632 C   0  0  0  0  0  0
  -22.7260  -10.2136   20.3043 C   0  0  0  0  0  0
  -21.6856   -6.0734   22.5268 C   0  0  0  0  0  0
  -21.4019   -6.5635   23.8203 C   0  0  0  0  0  0
  -21.3665   -5.6785   24.9164 C   0  0  0  0  0  0
  -21.6053   -4.3050   24.7208 C   0  0  0  0  0  0
  -21.8827   -3.8146   23.4325 C   0  0  0  0  0  0
  -21.9201   -4.6964   22.3386 C   0  0  0  0  0  0
  -22.7824  -13.5212   21.1891 C   0  0  0  0  0  0
  -22.1664   -4.2149   21.0961 F   0  0  0  0  0  0
  -21.5634   -3.4533   25.7720 F   0  0  0  0  0  0
  -29.9681  -13.5928   20.3539 N   0  0  0  0  0  0
  -26.2923  -12.9419   20.3263 N   0  0  0  0  0  0
  -25.9333  -11.6559   20.5758 N   0  0  0  0  0  0
  -22.0475  -12.8196   22.0442 N   0  0  0  0  0  0
  -25.4182  -15.1933   20.4097 N   0  0  0  0  0  0
  -31.8394  -14.8296   20.2767 O   0  0  0  0  0  0
  -21.6646   -6.8880   21.4230 O   0  0  0  0  0  0
  -22.3505  -14.5515   20.6731 O   0  0  0  0  0  0
  -24.6399  -31.8498   23.1964 C   0  0  0  0  0  0
  -25.9194  -32.4733   23.8324 C   0  0  1  0  0  0
  -27.2097  -27.2035   20.1166 C   0  0  0  0  0  0
  -25.5956  -33.8537   24.2228 N   0  0  0  0  0  0
  -23.4373  -30.4765   21.5441 C   0  0  2  0  0  0
  -24.8779  -28.9211   20.1140 C   0  0  0  0  0  0
  -22.7537  -29.4600   22.4921 C   0  0  0  0  0  0
  -18.0301  -28.1400   22.8483 C   0  0  0  0  0  0
  -24.1483  -36.7268   23.2640 C   0  0  0  0  0  0
  -25.9913  -30.7447   21.3849 C   0  0  0  0  0  0
  -26.0595  -29.3652   20.7214 C   0  0  0  0  0  0
  -27.2271  -28.5221   20.7080 C   0  0  0  0  0  0
  -25.9842  -26.8425   19.5036 C   0  0  0  0  0  0
  -24.8485  -27.6683   19.4954 C   0  0  0  0  0  0
  -23.6540  -29.8140   20.1611 C   0  0  0  0  0  0
  -25.4116  -36.3053   24.0317 C   0  0  1  0  0  0
  -20.5906  -28.3718   23.1251 C   0  0  2  0  0  0
  -20.6792  -26.9432   22.5396 C   0  0  0  0  0  0
  -19.5762  -26.6393   21.5210 C   0  0  0  0  0  0
  -18.1945  -26.7940   22.1627 C   0  0  0  0  0  0
  -19.1551  -28.8880   23.2856 C   0  0  0  0  0  0
  -18.9469  -30.1482   23.8873 C   0  0  0  0  0  0
  -17.6464  -30.6595   24.0564 C   0  0  0  0  0  0
  -25.9067  -34.9433   23.5078 C   0  0  0  0  0  0
  -16.5358  -29.9083   23.6346 C   0  0  0  0  0  0
  -16.7282  -28.6505   23.0361 C   0  0  0  0  0  0
  -26.4521  -31.6588   25.0749 C   0  0  0  0  0  0
  -25.3711  -31.3765   26.1447 C   0  0  0  0  0  0
  -27.0381  -30.2986   24.6309 C   0  0  0  0  0  0
  -27.6054  -32.4350   25.7526 C   0  0  0  0  0  0
  -27.5572  -37.1791   24.8465 C   0  0  0  0  0  0
  -21.4239  -29.3054   22.3641 N   0  0  0  0  0  0
  -26.4284  -37.3759   23.9408 N   0  0  0  0  0  0
  -24.7100  -31.0411   22.0978 N   0  0  0  0  0  0
  -23.4201  -28.8138   23.3046 O   0  0  0  0  0  0
  -28.2880  -26.2595   20.1583 O   0  0  0  0  0  0
  -26.5626  -34.8918   22.4640 O   0  0  0  0  0  0
  -23.5531  -32.1357   23.7212 O   0  0  0  0  0  0
  -29.6597  -18.6093   20.1318 C   0  0  0  0  0  0
  -29.4415  -18.7844   18.7688 C   0  0  0  0  0  0
  -29.1232  -20.9806   20.0022 C   0  0  0  0  0  0
  -30.2888  -17.2926   20.7762 C   0  0  0  0  0  0
  -29.0710  -23.6113   20.1188 C   0  0  0  0  0  0
  -28.1175  -24.8396   18.1588 C   0  0  0  0  0  0
  -28.0604  -24.8152   19.7048 C   0  0  2  0  0  0
  -29.4355  -19.8957   20.8004 N   0  0  0  0  0  0
  -29.5502  -17.8753   17.7136 N   0  0  0  0  0  0
  -28.6104  -22.3253   20.4030 N   0  0  0  0  0  0
  -29.8762  -15.9938   20.4580 N   0  0  0  0  0  0
  -31.1894  -17.4536   21.6104 O   0  0  0  0  0  0
  -30.2808  -23.8569   20.1546 O   0  0  0  0  0  0
  -29.0390  -20.4499   18.3269 S   0  0  0  0  0  0
  -31.4730  -12.6429   19.1546 H   0  0  0  0  0  0
  -30.4014  -11.5426   19.9809 H   0  0  0  0  0  0
  -29.8031  -11.7133   17.5398 H   0  0  0  0  0  0
  -29.6257  -13.4454   17.6895 H   0  0  0  0  0  0
  -27.9048  -11.2776   18.9296 H   0  0  0  0  0  0
  -27.3777  -12.4962   17.7990 H   0  0  0  0  0  0
  -27.6115  -14.2489   19.4337 H   0  0  0  0  0  0
  -28.7477  -12.2359   21.4300 H   0  0  0  0  0  0
  -28.4208  -13.9243   21.7558 H   0  0  0  0  0  0
  -25.2776   -9.5682   22.4757 H   0  0  0  0  0  0
  -24.0013   -7.4633   22.7459 H   0  0  0  0  0  0
  -21.0857   -8.8782   19.8932 H   0  0  0  0  0  0
  -22.3716  -10.9678   19.6158 H   0  0  0  0  0  0
  -21.2003   -7.6143   23.9705 H   0  0  0  0  0  0
  -21.1486   -6.0509   25.9067 H   0  0  0  0  0  0
  -22.0605   -2.7607   23.2820 H   0  0  0  0  0  0
  -22.4093  -11.9849   22.4819 H   0  0  0  0  0  0
  -21.1081  -13.1198   22.2621 H   0  0  0  0  0  0
  -24.6548  -15.8504   20.5269 H   0  0  0  0  0  0
  -26.2604  -15.6302   20.0602 H   0  0  0  0  0  0
  -26.7268  -32.5349   23.1068 H   0  0  0  0  0  0
  -25.0112  -33.9665   25.0381 H   0  0  0  0  0  0
  -22.7396  -31.3029   21.3982 H   0  0  0  0  0  0
  -23.3751  -35.9592   23.3296 H   0  0  0  0  0  0
  -24.3572  -36.8904   22.2058 H   0  0  0  0  0  0
  -23.7240  -37.6469   23.6670 H   0  0  0  0  0  0
  -26.1400  -31.5060   20.6173 H   0  0  0  0  0  0
  -26.8665  -30.7877   22.0228 H   0  0  0  0  0  0
  -28.1309  -28.8580   21.1962 H   0  0  0  0  0  0
  -25.8370  -25.8845   19.0341 H   0  0  0  0  0  0
  -23.9408  -27.3147   19.0253 H   0  0  0  0  0  0
  -23.7805  -30.5898   19.4054 H   0  0  0  0  0  0
  -22.7699  -29.2504   19.8568 H   0  0  0  0  0  0
  -25.1304  -36.1894   25.0810 H   0  0  0  0  0  0
  -20.9992  -28.3298   24.1373 H   0  0  0  0  0  0
  -20.5713  -26.2326   23.3605 H   0  0  0  0  0  0
  -21.6659  -26.7467   22.1175 H   0  0  0  0  0  0
  -19.6925  -25.6297   21.1261 H   0  0  0  0  0  0
  -19.6699  -27.3188   20.6731 H   0  0  0  0  0  0
  -17.4210  -26.6681   21.4035 H   0  0  0  0  0  0
  -18.0347  -26.0083   22.9031 H   0  0  0  0  0  0
  -19.7942  -30.7312   24.2222 H   0  0  0  0  0  0
  -17.5015  -31.6275   24.5167 H   0  0  0  0  0  0
  -15.5356  -30.2976   23.7694 H   0  0  0  0  0  0
  -15.8684  -28.0824   22.7085 H   0  0  0  0  0  0
  -24.5889  -30.7115   25.7768 H   0  0  0  0  0  0
  -24.8903  -32.2946   26.4829 H   0  0  0  0  0  0
  -25.8002  -30.8970   27.0256 H   0  0  0  0  0  0
  -26.2997  -29.6726   24.1284 H   0  0  0  0  0  0
  -27.3967  -29.7271   25.4883 H   0  0  0  0  0  0
  -27.8916  -30.4224   23.9637 H   0  0  0  0  0  0
  -27.2638  -33.3659   26.2059 H   0  0  0  0  0  0
  -28.3879  -32.6905   25.0367 H   0  0  0  0  0  0
  -28.0701  -31.8515   26.5485 H   0  0  0  0  0  0
  -28.2590  -38.0087   24.7510 H   0  0  0  0  0  0
  -28.1073  -36.2626   24.6292 H   0  0  0  0  0  0
  -27.2290  -37.1436   25.8867 H   0  0  0  0  0  0
  -20.9440  -29.8750   21.6813 H   0  0  0  0  0  0
  -26.0162  -38.2832   24.1407 H   0  0  0  0  0  0
  -27.7813  -23.8910   17.7383 H   0  0  0  0  0  0
  -29.1381  -25.0081   17.8117 H   0  0  0  0  0  0
  -27.5122  -25.6209   17.7065 H   0  0  0  0  0  0
  -27.0793  -24.4895   20.0500 H   0  0  0  0  0  0
  -29.9232  -16.9335   17.7883 H   0  0  0  0  0  0
  -29.4499  -18.1624   16.7429 H   0  0  0  0  0  0
  -27.6123  -22.3172   20.5510 H   0  0  0  0  0  0
  -28.9378  -15.9234   20.1054 H   0  0  0  0  0  0
  1 25  1  0  0  0
  1 30  2  0  0  0
  1 81  1  0  0  0
  2  3  1  0  0  0
  2 25  1  0  0  0
  2 85  1  0  0  0
  2 86  1  0  0  0
  3  4  1  0  0  0
  3 87  1  0  0  0
  3 88  1  0  0  0
  4  5  1  0  0  0
  4 89  1  0  0  0
  4 90  1  0  0  0
  5  6  1  0  0  0
  5 26  1  0  0  0
  5 91  1  0  0  0
  6 25  1  0  0  0
  6 92  1  0  0  0
  6 93  1  0  0  0
  7  8  2  0  0  0
  7 26  1  0  0  0
  7 29  1  0  0  0
  8  9  1  0  0  0
  8 22  1  0  0  0
  9 10  1  0  0  0
  9 27  2  0  0  0
 10 11  2  0  0  0
 10 15  1  0  0  0
 11 12  1  0  0  0
 11 94  1  0  0  0
 12 13  2  0  0  0
 12 95  1  0  0  0
 13 14  1  0  0  0
 13 31  1  0  0  0
 14 15  2  0  0  0
 14 96  1  0  0  0
 15 97  1  0  0  0
 16 17  2  0  0  0
 16 21  1  0  0  0
 16 31  1  0  0  0
 17 18  1  0  0  0
 17 98  1  0  0  0
 18 19  2  0  0  0
 18 99  1  0  0  0
 19 20  1  0  0  0
 19 24  1  0  0  0
 20 21  2  0  0  0
 20100  1  0  0  0
 21 23  1  0  0  0
 22 28  1  0  0  0
 22 32  2  0  0  0
 26 27  1  0  0  0
 28101  1  0  0  0
 28102  1  0  0  0
 29103  1  0  0  0
 29104  1  0  0  0
 33 34  1  0  0  0
 33 66  1  0  0  0
 33 70  2  0  0  0
 34 36  1  0  0  0
 34 59  1  0  0  0
 34105  1  0  0  0
 35 44  2  0  0  0
 35 45  1  0  0  0
 35 68  1  0  0  0
 36 56  1  0  0  0
 36106  1  0  0  0
 37 39  1  0  0  0
 37 47  1  0  0  0
 37 66  1  0  0  0
 37107  1  0  0  0
 38 43  2  0  0  0
 38 46  1  0  0  0
 38 47  1  0  0  0
 39 64  1  0  0  0
 39 67  2  0  0  0
 40 52  1  0  0  0
 40 53  2  0  0  0
 40 58  1  0  0  0
 41108  1  0  0  0
 41109  1  0  0  0
 41110  1  0  0  0
 41 48  1  0  0  0
 42 43  1  0  0  0
 42 66  1  0  0  0
 42111  1  0  0  0
 42112  1  0  0  0
 43 44  1  0  0  0
 44113  1  0  0  0
 45 46  2  0  0  0
 45114  1  0  0  0
 46115  1  0  0  0
 47116  1  0  0  0
 47117  1  0  0  0
 48 56  1  0  0  0
 48 65  1  0  0  0
 48118  1  0  0  0
 49 50  1  0  0  0
 49 53  1  0  0  0
 49 64  1  0  0  0
 49119  1  0  0  0
 50 51  1  0  0  0
 50120  1  0  0  0
 50121  1  0  0  0
 51 52  1  0  0  0
 51122  1  0  0  0
 51123  1  0  0  0
 52124  1  0  0  0
 52125  1  0  0  0
 53 54  1  0  0  0
 54 55  2  0  0  0
 54126  1  0  0  0
 55 57  1  0  0  0
 55127  1  0  0  0
 56 69  2  0  0  0
 57 58  2  0  0  0
 57128  1  0  0  0
 58129  1  0  0  0
 59 60  1  0  0  0
 59 61  1  0  0  0
 59 62  1  0  0  0
 60130  1  0  0  0
 60131  1  0  0  0
 60132  1  0  0  0
 61133  1  0  0  0
 61134  1  0  0  0
 61135  1  0  0  0
 62136  1  0  0  0
 62137  1  0  0  0
 62138  1  0  0  0
 63 65  1  0  0  0
 63139  1  0  0  0
 63140  1  0  0  0
 63141  1  0  0  0
 64142  1  0  0  0
 65143  1  0  0  0
 68 77  1  0  0  0
 71 72  2  0  0  0
 71 74  1  0  0  0
 71 78  1  0  0  0
 72 79  1  0  0  0
 72 84  1  0  0  0
 73 78  2  0  0  0
 73 80  1  0  0  0
 73 84  1  0  0  0
 74 81  1  0  0  0
 74 82  2  0  0  0
 75 77  1  0  0  0
 75 80  1  0  0  0
 75 83  2  0  0  0
 76144  1  0  0  0
 76145  1  0  0  0
 76146  1  0  0  0
 76 77  1  0  0  0
 77147  1  0  0  0
 79148  1  0  0  0
 79149  1  0  0  0
 80150  1  0  0  0
 81151  1  0  0  0
M  ISO  4   1 100  68 101  77 101  81 100
M  END
> <chiral flag>
0

> <version>
0

> <s_m_source_file>
/data/baiqing/PycharmProjects/Reinvent-master-3.2/result/LINK_invent/BTK/process_docking_weight1_custom_product_contain_oxygen_bond_distance_aromatic_linkinvent_7_9_3/rearranged_h_0183.sdf

> <i_m_source_file_index>
16

> <r_mmod_Potential_Energy-OPLS-2005>
290.439788818359

> <r_mmod_Stretch_Energy-OPLS-2005>
156.256240844727

> <r_mmod_Bend_Energy-OPLS-2005>
198.322875976562

> <r_mmod_Torsional_Energy-OPLS-2005>
298.385864257812

> <r_mmod_Improper_Torsional_Energy-OPLS-2005>
12.5217885971069

> <r_mmod_Van_der_Waal_Energy-OPLS-2005>
121.872337341309

> <r_mmod_Electrostatic_Energy-OPLS-2005>
-340.180389404297

> <r_mmod_Solvation_Energy-OPLS-2005>
-280.698089599609

> <b_mmod_Minimization_Converged-OPLS-2005>
0

> <r_mmod_RMS_Derivative-OPLS-2005>
1.49921035766602

$$$$
16
                    3D
 Structure written by MMmdl.
150158  0  0  1  0            999 V2000
  -30.5559  -14.7690   20.4973 C   0  0  0  0  0  0
  -30.4594  -12.4764   19.4659 C   0  0  0  0  0  0
  -29.5194  -12.5308   18.2373 C   0  0  0  0  0  0
  -28.0444  -12.3443   18.6497 C   0  0  0  0  0  0
  -27.6529  -13.2228   19.8669 C   0  0  2  0  0  0
  -28.7021  -13.1013   20.9959 C   0  0  0  0  0  0
  -25.2509  -13.8139   20.5635 C   0  0  0  0  0  0
  -24.1794  -13.0398   20.9141 C   0  0  0  0  0  0
  -24.6400  -11.6886   20.8728 C   0  0  0  0  0  0
  -23.9073  -10.4272   21.0399 C   0  0  0  0  0  0
  -24.3620   -9.4192   21.9183 C   0  0  0  0  0  0
  -23.6289   -8.2233   22.0755 C   0  0  0  0  0  0
  -22.4272   -8.0274   21.3544 C   0  0  0  0  0  0
  -21.9909   -9.0246   20.4645 C   0  0  0  0  0  0
  -22.7243  -10.2120   20.3050 C   0  0  0  0  0  0
  -21.6850   -6.0732   22.5280 C   0  0  0  0  0  0
  -21.4012   -6.5637   23.8213 C   0  0  0  0  0  0
  -21.3658   -5.6790   24.9175 C   0  0  0  0  0  0
  -21.6044   -4.3053   24.7227 C   0  0  0  0  0  0
  -21.8820   -3.8145   23.4348 C   0  0  0  0  0  0
  -21.9192   -4.6961   22.3404 C   0  0  0  0  0  0
  -22.7821  -13.5194   21.1827 C   0  0  0  0  0  0
  -22.1661   -4.2147   21.0982 F   0  0  0  0  0  0
  -21.5629   -3.4537   25.7740 F   0  0  0  0  0  0
  -30.0075  -13.5010   20.4359 N   0  0  0  0  0  0
  -26.2992  -12.9357   20.3358 N   0  0  0  0  0  0
  -25.9347  -11.6504   20.5791 N   0  0  0  0  0  0
  -22.0481  -12.8195   22.0407 N   0  0  0  0  0  0
  -25.4118  -15.1849   20.4017 N   0  0  0  0  0  0
  -31.7014  -14.9735   20.0793 O   0  0  0  0  0  0
  -21.6634   -6.8874   21.4242 O   0  0  0  0  0  0
  -22.3496  -14.5507   20.6695 O   0  0  0  0  0  0
  -24.6347  -31.8532   23.1972 C   0  0  0  0  0  0
  -25.9160  -32.4743   23.8324 C   0  0  1  0  0  0
  -27.2268  -27.2380   20.1197 C   0  0  0  0  0  0
  -25.5944  -33.8546   24.2244 N   0  0  0  0  0  0
  -23.4324  -30.4768   21.5417 C   0  0  2  0  0  0
  -24.8796  -28.9226   20.1116 C   0  0  0  0  0  0
  -22.7520  -29.4596   22.4904 C   0  0  0  0  0  0
  -18.0295  -28.1390   22.8482 C   0  0  0  0  0  0
  -24.1490  -36.7276   23.2640 C   0  0  0  0  0  0
  -25.9822  -30.7581   21.3816 C   0  0  0  0  0  0
  -26.0547  -29.3798   20.7203 C   0  0  0  0  0  0
  -27.2279  -28.5519   20.7119 C   0  0  0  0  0  0
  -26.0163  -26.8565   19.4916 C   0  0  0  0  0  0
  -24.8671  -27.6688   19.4874 C   0  0  0  0  0  0
  -23.6522  -29.8126   20.1582 C   0  0  0  0  0  0
  -25.4118  -36.3061   24.0323 C   0  0  1  0  0  0
  -20.5902  -28.3706   23.1259 C   0  0  2  0  0  0
  -20.6784  -26.9420   22.5405 C   0  0  0  0  0  0
  -19.5757  -26.6384   21.5211 C   0  0  0  0  0  0
  -18.1939  -26.7930   22.1624 C   0  0  0  0  0  0
  -19.1549  -28.8865   23.2865 C   0  0  0  0  0  0
  -18.9470  -30.1464   23.8885 C   0  0  0  0  0  0
  -17.6468  -30.6589   24.0562 C   0  0  0  0  0  0
  -25.9063  -34.9433   23.5086 C   0  0  0  0  0  0
  -16.5359  -29.9085   23.6333 C   0  0  0  0  0  0
  -16.7281  -28.6504   23.0354 C   0  0  0  0  0  0
  -26.4513  -31.6578   25.0726 C   0  0  0  0  0  0
  -25.3724  -31.3739   26.1437 C   0  0  0  0  0  0
  -27.0369  -30.2988   24.6242 C   0  0  0  0  0  0
  -27.6057  -32.4329   25.7506 C   0  0  0  0  0  0
  -27.5579  -37.1794   24.8465 C   0  0  0  0  0  0
  -21.4224  -29.3049   22.3646 N   0  0  0  0  0  0
  -26.4289  -37.3765   23.9409 N   0  0  0  0  0  0
  -24.7024  -31.0477   22.0960 N   0  0  0  0  0  0
  -23.4207  -28.8132   23.3011 O   0  0  0  0  0  0
  -28.3303  -26.3353   20.1808 O   0  0  0  0  0  0
  -26.5637  -34.8913   22.4657 O   0  0  0  0  0  0
  -23.5489  -32.1366   23.7250 O   0  0  0  0  0  0
  -29.3880  -17.2021   20.9244 C   0  0  0  0  0  0
  -28.1664  -17.4682   21.4828 C   0  0  0  0  0  0
  -29.1755  -19.5824   20.6775 C   0  0  0  0  0  0
  -28.6337  -22.1215   20.3621 C   0  0  0  0  0  0
  -28.3136  -24.8028   18.2611 C   0  0  0  0  0  0
  -29.1123  -23.6663   20.4421 C   0  0  2  0  0  0
  -28.1934  -24.8676   19.7984 C   0  0  1  0  0  0
  -29.9832  -18.4576   20.4707 N   0  0  0  0  0  0
  -29.7053  -15.7469   20.9789 N   0  0  0  0  0  0
  -29.4948  -21.0192   20.4163 N   0  0  0  0  0  0
  -27.4205  -21.9381   20.2337 O   0  0  0  0  0  0
  -27.3866  -16.5028   22.0280 F   0  0  0  0  0  0
  -30.3589  -23.7436   19.9665 F   0  0  0  0  0  0
  -27.6515  -19.1281   21.4574 S   0  0  0  0  0  0
  -31.4926  -12.6416   19.1558 H   0  0  0  0  0  0
  -30.4402  -11.4859   19.9235 H   0  0  0  0  0  0
  -29.8033  -11.7681   17.5111 H   0  0  0  0  0  0
  -29.6361  -13.4906   17.7318 H   0  0  0  0  0  0
  -27.9004  -11.2915   18.8954 H   0  0  0  0  0  0
  -27.3857  -12.5513   17.8054 H   0  0  0  0  0  0
  -27.6582  -14.2545   19.5144 H   0  0  0  0  0  0
  -28.7469  -12.0758   21.3657 H   0  0  0  0  0  0
  -28.4200  -13.7074   21.8580 H   0  0  0  0  0  0
  -25.2764   -9.5668   22.4758 H   0  0  0  0  0  0
  -23.9994   -7.4625   22.7475 H   0  0  0  0  0  0
  -21.0839   -8.8768   19.8952 H   0  0  0  0  0  0
  -22.3704  -10.9659   19.6158 H   0  0  0  0  0  0
  -21.2004   -7.6145   23.9717 H   0  0  0  0  0  0
  -21.1480   -6.0519   25.9078 H   0  0  0  0  0  0
  -22.0601   -2.7608   23.2849 H   0  0  0  0  0  0
  -22.4105  -11.9855   22.4786 H   0  0  0  0  0  0
  -21.1109  -13.1229   22.2641 H   0  0  0  0  0  0
  -24.6568  -15.8346   20.5879 H   0  0  0  0  0  0
  -26.3048  -15.6445   20.2857 H   0  0  0  0  0  0
  -26.7226  -32.5382   23.1061 H   0  0  0  0  0  0
  -25.0083  -33.9680   25.0384 H   0  0  0  0  0  0
  -22.7301  -31.3002   21.3953 H   0  0  0  0  0  0
  -23.3755  -35.9605   23.3296 H   0  0  0  0  0  0
  -24.3578  -36.8908   22.2055 H   0  0  0  0  0  0
  -23.7242  -37.6473   23.6673 H   0  0  0  0  0  0
  -26.1275  -31.5195   20.6140 H   0  0  0  0  0  0
  -26.8571  -30.8039   22.0186 H   0  0  0  0  0  0
  -28.1262  -28.9004   21.2016 H   0  0  0  0  0  0
  -25.9076  -25.9005   19.0057 H   0  0  0  0  0  0
  -23.9668  -27.3103   19.0075 H   0  0  0  0  0  0
  -23.7803  -30.5900   19.4040 H   0  0  0  0  0  0
  -22.7692  -29.2495   19.8503 H   0  0  0  0  0  0
  -25.1302  -36.1902   25.0815 H   0  0  0  0  0  0
  -20.9994  -28.3287   24.1381 H   0  0  0  0  0  0
  -20.5685  -26.2316   23.3614 H   0  0  0  0  0  0
  -21.6651  -26.7441   22.1198 H   0  0  0  0  0  0
  -19.6920  -25.6292   21.1249 H   0  0  0  0  0  0
  -19.6693  -27.3188   20.6737 H   0  0  0  0  0  0
  -17.4207  -26.6673   21.4030 H   0  0  0  0  0  0
  -18.0341  -26.0076   22.9025 H   0  0  0  0  0  0
  -19.7946  -30.7284   24.2250 H   0  0  0  0  0  0
  -17.5021  -31.6269   24.5165 H   0  0  0  0  0  0
  -15.5359  -30.2984   23.7664 H   0  0  0  0  0  0
  -15.8681  -28.0819   22.7075 H   0  0  0  0  0  0
  -24.5907  -30.7080   25.7763 H   0  0  0  0  0  0
  -24.8907  -32.2911   26.4835 H   0  0  0  0  0  0
  -25.8030  -30.8934   27.0232 H   0  0  0  0  0  0
  -26.2965  -29.6725   24.1251 H   0  0  0  0  0  0
  -27.4018  -29.7265   25.4782 H   0  0  0  0  0  0
  -27.8858  -30.4250   23.9519 H   0  0  0  0  0  0
  -27.2657  -33.3638   26.2057 H   0  0  0  0  0  0
  -28.3883  -32.6875   25.0346 H   0  0  0  0  0  0
  -28.0709  -31.8472   26.5446 H   0  0  0  0  0  0
  -28.2589  -38.0097   24.7517 H   0  0  0  0  0  0
  -28.1081  -36.2628   24.6285 H   0  0  0  0  0  0
  -27.2296  -37.1433   25.8867 H   0  0  0  0  0  0
  -20.9415  -29.8770   21.6846 H   0  0  0  0  0  0
  -26.0163  -38.2835   24.1416 H   0  0  0  0  0  0
  -28.0638  -23.8094   17.8885 H   0  0  0  0  0  0
  -29.3328  -25.0254   17.9453 H   0  0  0  0  0  0
  -27.6645  -25.5120   17.7516 H   0  0  0  0  0  0
  -29.2026  -23.8747   21.5078 H   0  0  0  0  0  0
  -27.1812  -24.5793   20.0789 H   0  0  0  0  0  0
  -28.9180  -15.2761   21.3997 H   0  0  0  0  0  0
  -30.4775  -21.2432   20.3510 H   0  0  0  0  0  0
  1 25  1  0  0  0
  1 30  2  0  0  0
  1 79  1  0  0  0
  2  3  1  0  0  0
  2 25  1  0  0  0
  2 85  1  0  0  0
  2 86  1  0  0  0
  3  4  1  0  0  0
  3 87  1  0  0  0
  3 88  1  0  0  0
  4  5  1  0  0  0
  4 89  1  0  0  0
  4 90  1  0  0  0
  5  6  1  0  0  0
  5 26  1  0  0  0
  5 91  1  0  0  0
  6 25  1  0  0  0
  6 92  1  0  0  0
  6 93  1  0  0  0
  7  8  2  0  0  0
  7 26  1  0  0  0
  7 29  1  0  0  0
  8  9  1  0  0  0
  8 22  1  0  0  0
  9 10  1  0  0  0
  9 27  2  0  0  0
 10 11  2  0  0  0
 10 15  1  0  0  0
 11 12  1  0  0  0
 11 94  1  0  0  0
 12 13  2  0  0  0
 12 95  1  0  0  0
 13 14  1  0  0  0
 13 31  1  0  0  0
 14 15  2  0  0  0
 14 96  1  0  0  0
 15 97  1  0  0  0
 16 17  2  0  0  0
 16 21  1  0  0  0
 16 31  1  0  0  0
 17 18  1  0  0  0
 17 98  1  0  0  0
 18 19  2  0  0  0
 18 99  1  0  0  0
 19 20  1  0  0  0
 19 24  1  0  0  0
 20 21  2  0  0  0
 20100  1  0  0  0
 21 23  1  0  0  0
 22 28  1  0  0  0
 22 32  2  0  0  0
 26 27  1  0  0  0
 28101  1  0  0  0
 28102  1  0  0  0
 29103  1  0  0  0
 29104  1  0  0  0
 33 34  1  0  0  0
 33 66  1  0  0  0
 33 70  2  0  0  0
 34 36  1  0  0  0
 34 59  1  0  0  0
 34105  1  0  0  0
 35 44  2  0  0  0
 35 45  1  0  0  0
 35 68  1  0  0  0
 36 56  1  0  0  0
 36106  1  0  0  0
 37 39  1  0  0  0
 37 47  1  0  0  0
 37 66  1  0  0  0
 37107  1  0  0  0
 38 43  2  0  0  0
 38 46  1  0  0  0
 38 47  1  0  0  0
 39 64  1  0  0  0
 39 67  2  0  0  0
 40 52  1  0  0  0
 40 53  2  0  0  0
 40 58  1  0  0  0
 41108  1  0  0  0
 41109  1  0  0  0
 41110  1  0  0  0
 41 48  1  0  0  0
 42 43  1  0  0  0
 42 66  1  0  0  0
 42111  1  0  0  0
 42112  1  0  0  0
 43 44  1  0  0  0
 44113  1  0  0  0
 45 46  2  0  0  0
 45114  1  0  0  0
 46115  1  0  0  0
 47116  1  0  0  0
 47117  1  0  0  0
 48 56  1  0  0  0
 48 65  1  0  0  0
 48118  1  0  0  0
 49 50  1  0  0  0
 49 53  1  0  0  0
 49 64  1  0  0  0
 49119  1  0  0  0
 50 51  1  0  0  0
 50120  1  0  0  0
 50121  1  0  0  0
 51 52  1  0  0  0
 51122  1  0  0  0
 51123  1  0  0  0
 52124  1  0  0  0
 52125  1  0  0  0
 53 54  1  0  0  0
 54 55  2  0  0  0
 54126  1  0  0  0
 55 57  1  0  0  0
 55127  1  0  0  0
 56 69  2  0  0  0
 57 58  2  0  0  0
 57128  1  0  0  0
 58129  1  0  0  0
 59 60  1  0  0  0
 59 61  1  0  0  0
 59 62  1  0  0  0
 60130  1  0  0  0
 60131  1  0  0  0
 60132  1  0  0  0
 61133  1  0  0  0
 61134  1  0  0  0
 61135  1  0  0  0
 62136  1  0  0  0
 62137  1  0  0  0
 62138  1  0  0  0
 63 65  1  0  0  0
 63139  1  0  0  0
 63140  1  0  0  0
 63141  1  0  0  0
 64142  1  0  0  0
 65143  1  0  0  0
 68 77  1  0  0  0
 71 72  2  0  0  0
 71 78  1  0  0  0
 71 79  1  0  0  0
 72 82  1  0  0  0
 72 84  1  0  0  0
 73 78  2  0  0  0
 73 80  1  0  0  0
 73 84  1  0  0  0
 74 76  1  0  0  0
 74 80  1  0  0  0
 74 81  2  0  0  0
 75144  1  0  0  0
 75145  1  0  0  0
 75146  1  0  0  0
 75 77  1  0  0  0
 76 77  1  0  0  0
 76 83  1  0  0  0
 76147  1  0  0  0
 77148  1  0  0  0
 79149  1  0  0  0
 80150  1  0  0  0
M  ISO  4   1 100  68 101  77 101  79 100
M  END
> <chiral flag>
0

> <version>
0

> <s_m_source_file>
/data/baiqing/PycharmProjects/Reinvent-master-3.2/result/LINK_invent/BTK/process_docking_weight1_custom_product_contain_oxygen_bond_distance_aromatic_linkinvent_7_9_3/rearranged_h_0183.sdf

> <i_m_source_file_index>
17

> <r_mmod_Potential_Energy-OPLS-2005>
161.779937744141

> <r_mmod_Stretch_Energy-OPLS-2005>
147.033172607422

> <r_mmod_Bend_Energy-OPLS-2005>
247.002365112305

> <r_mmod_Torsional_Energy-OPLS-2005>
196.230224609375

> <r_mmod_Improper_Torsional_Energy-OPLS-2005>
3.60894417762756

> <r_mmod_Van_der_Waal_Energy-OPLS-2005>
125.24967956543

> <r_mmod_Electrostatic_Energy-OPLS-2005>
-428.300079345703

> <r_mmod_Solvation_Energy-OPLS-2005>
-225.57763671875

> <b_mmod_Minimization_Converged-OPLS-2005>
0

> <r_mmod_RMS_Derivative-OPLS-2005>
0.266651511192322

$$$$
17
                    3D
 Structure written by MMmdl.
153161  0  0  1  0            999 V2000
  -30.6958  -14.5149   20.5740 C   0  0  0  0  0  0
  -30.4293  -12.3365   19.4295 C   0  0  0  0  0  0
  -29.4962  -12.4910   18.2105 C   0  0  0  0  0  0
  -28.0202  -12.3393   18.6302 C   0  0  0  0  0  0
  -27.6563  -13.2060   19.8655 C   0  0  2  0  0  0
  -28.6997  -13.0270   20.9919 C   0  0  0  0  0  0
  -25.2580  -13.8156   20.5677 C   0  0  0  0  0  0
  -24.1842  -13.0437   20.9192 C   0  0  0  0  0  0
  -24.6400  -11.6906   20.8751 C   0  0  0  0  0  0
  -23.9068  -10.4297   21.0413 C   0  0  0  0  0  0
  -24.3619   -9.4215   21.9191 C   0  0  0  0  0  0
  -23.6298   -8.2248   22.0754 C   0  0  0  0  0  0
  -22.4272   -8.0292   21.3552 C   0  0  0  0  0  0
  -21.9915   -9.0260   20.4644 C   0  0  0  0  0  0
  -22.7242  -10.2143   20.3058 C   0  0  0  0  0  0
  -21.6851   -6.0748   22.5289 C   0  0  0  0  0  0
  -21.4008   -6.5649   23.8225 C   0  0  0  0  0  0
  -21.3655   -5.6799   24.9186 C   0  0  0  0  0  0
  -21.6042   -4.3060   24.7231 C   0  0  0  0  0  0
  -21.8820   -3.8157   23.4345 C   0  0  0  0  0  0
  -21.9190   -4.6978   22.3404 C   0  0  0  0  0  0
  -22.7865  -13.5248   21.1835 C   0  0  0  0  0  0
  -22.1664   -4.2165   21.0979 F   0  0  0  0  0  0
  -21.5624   -3.4538   25.7740 F   0  0  0  0  0  0
  -30.0246  -13.3373   20.4293 N   0  0  0  0  0  0
  -26.3005  -12.9323   20.3333 N   0  0  0  0  0  0
  -25.9318  -11.6487   20.5766 N   0  0  0  0  0  0
  -22.0496  -12.8248   22.0389 N   0  0  0  0  0  0
  -25.4330  -15.1870   20.4089 N   0  0  0  0  0  0
  -31.8378  -14.6783   20.1343 O   0  0  0  0  0  0
  -21.6637   -6.8885   21.4248 O   0  0  0  0  0  0
  -22.3571  -14.5570   20.6698 O   0  0  0  0  0  0
  -24.6179  -31.8683   23.2112 C   0  0  0  0  0  0
  -25.9059  -32.4822   23.8406 C   0  0  1  0  0  0
  -27.2200  -27.3925   20.1045 C   0  0  0  0  0  0
  -25.5919  -33.8622   24.2345 N   0  0  0  0  0  0
  -23.4069  -30.4967   21.5517 C   0  0  2  0  0  0
  -24.8501  -28.9678   20.1071 C   0  0  0  0  0  0
  -22.7437  -29.4657   22.4954 C   0  0  0  0  0  0
  -18.0290  -28.1373   22.8464 C   0  0  0  0  0  0
  -24.1497  -36.7321   23.2641 C   0  0  0  0  0  0
  -25.9410  -30.8220   21.3697 C   0  0  0  0  0  0
  -26.0142  -29.4553   20.7131 C   0  0  0  0  0  0
  -27.2014  -28.6785   20.7047 C   0  0  0  0  0  0
  -26.0338  -26.9441   19.4724 C   0  0  0  0  0  0
  -24.8588  -27.7147   19.4774 C   0  0  0  0  0  0
  -23.6167  -29.8410   20.1619 C   0  0  0  0  0  0
  -25.4114  -36.3109   24.0342 C   0  0  1  0  0  0
  -20.5881  -28.3666   23.1282 C   0  0  2  0  0  0
  -20.6781  -26.9399   22.5392 C   0  0  0  0  0  0
  -19.5770  -26.6377   21.5182 C   0  0  0  0  0  0
  -18.1943  -26.7915   22.1586 C   0  0  0  0  0  0
  -19.1537  -28.8834   23.2869 C   0  0  0  0  0  0
  -18.9458  -30.1435   23.8885 C   0  0  0  0  0  0
  -17.6458  -30.6568   24.0554 C   0  0  0  0  0  0
  -25.9039  -34.9473   23.5141 C   0  0  0  0  0  0
  -16.5351  -29.9075   23.6305 C   0  0  0  0  0  0
  -16.7275  -28.6497   23.0311 C   0  0  0  0  0  0
  -26.4477  -31.6604   25.0740 C   0  0  0  0  0  0
  -25.3722  -31.3717   26.1477 C   0  0  0  0  0  0
  -27.0332  -30.3055   24.6126 C   0  0  0  0  0  0
  -27.6058  -32.4332   25.7491 C   0  0  0  0  0  0
  -27.5592  -37.1817   24.8465 C   0  0  0  0  0  0
  -21.4158  -29.3045   22.3703 N   0  0  0  0  0  0
  -26.4304  -37.3791   23.9411 N   0  0  0  0  0  0
  -24.6740  -31.0768   22.1025 N   0  0  0  0  0  0
  -23.4199  -28.8154   23.2975 O   0  0  0  0  0  0
  -28.3626  -26.5988   20.1620 O   0  0  0  0  0  0
  -26.5580  -34.8916   22.4685 O   0  0  0  0  0  0
  -23.5357  -32.1450   23.7482 O   0  0  0  0  0  0
  -31.7995  -18.1795   22.8992 C   0  0  0  0  0  0
  -31.1918  -19.3420   22.3941 C   0  0  0  0  0  0
  -31.4029  -16.9190   22.4240 C   0  0  0  0  0  0
  -30.2032  -19.2230   21.3837 C   0  0  0  0  0  0
  -30.4076  -16.8471   21.4239 C   0  0  0  0  0  0
  -29.9985  -21.6364   20.6227 C   0  0  0  0  0  0
  -28.9728  -22.7077   20.1653 C   0  0  0  0  0  0
  -28.1706  -25.1698   19.9713 C   0  0  0  0  0  0
  -29.2679  -24.2082   20.5175 C   0  0  1  0  0  0
  -29.8155  -17.9845   20.9465 N   0  0  0  0  0  0
  -29.5247  -20.3941   20.8997 N   0  0  0  0  0  0
  -29.9550  -15.5514   21.0308 N   0  0  0  0  0  0
  -31.1978  -21.9248   20.6313 O   0  0  0  0  0  0
  -31.5318  -20.5411   22.9273 F   0  0  0  0  0  0
  -31.9411  -15.7984   22.9674 F   0  0  0  0  0  0
  -29.3257  -24.3402   21.8468 F   0  0  0  0  0  0
  -31.4711  -12.4502   19.1250 H   0  0  0  0  0  0
  -30.3509  -11.3355   19.8544 H   0  0  0  0  0  0
  -29.7459  -11.7479   17.4507 H   0  0  0  0  0  0
  -29.6507  -13.4663   17.7484 H   0  0  0  0  0  0
  -27.8493  -11.2860   18.8549 H   0  0  0  0  0  0
  -27.3643  -12.5774   17.7921 H   0  0  0  0  0  0
  -27.6853  -14.2448   19.5343 H   0  0  0  0  0  0
  -28.6895  -12.0029   21.3662 H   0  0  0  0  0  0
  -28.4553  -13.6530   21.8522 H   0  0  0  0  0  0
  -25.2757   -9.5695   22.4777 H   0  0  0  0  0  0
  -24.0009   -7.4635   22.7473 H   0  0  0  0  0  0
  -21.0851   -8.8779   19.8944 H   0  0  0  0  0  0
  -22.3700  -10.9687   19.6171 H   0  0  0  0  0  0
  -21.2002   -7.6156   23.9732 H   0  0  0  0  0  0
  -21.1471   -6.0525   25.9089 H   0  0  0  0  0  0
  -22.0599   -2.7617   23.2839 H   0  0  0  0  0  0
  -22.4085  -11.9893   22.4775 H   0  0  0  0  0  0
  -21.1112  -13.1288   22.2582 H   0  0  0  0  0  0
  -24.6654  -15.8409   20.5139 H   0  0  0  0  0  0
  -26.2796  -15.6261   20.0707 H   0  0  0  0  0  0
  -26.7115  -32.5504   23.1150 H   0  0  0  0  0  0
  -25.0112  -33.9788   25.0521 H   0  0  0  0  0  0
  -22.6924  -31.3120   21.4168 H   0  0  0  0  0  0
  -23.3753  -35.9658   23.3307 H   0  0  0  0  0  0
  -24.3593  -36.8931   22.2050 H   0  0  0  0  0  0
  -23.7254  -37.6535   23.6643 H   0  0  0  0  0  0
  -26.0629  -31.5872   20.6014 H   0  0  0  0  0  0
  -26.8275  -30.8718   21.9903 H   0  0  0  0  0  0
  -28.0955  -29.0501   21.1845 H   0  0  0  0  0  0
  -25.9825  -25.9905   18.9681 H   0  0  0  0  0  0
  -23.9685  -27.3404   18.9907 H   0  0  0  0  0  0
  -23.7316  -30.6229   19.4106 H   0  0  0  0  0  0
  -22.7342  -29.2740   19.8581 H   0  0  0  0  0  0
  -25.1290  -36.1985   25.0840 H   0  0  0  0  0  0
  -20.9972  -28.3244   24.1403 H   0  0  0  0  0  0
  -20.5678  -26.2282   23.3596 H   0  0  0  0  0  0
  -21.6651  -26.7439   22.1187 H   0  0  0  0  0  0
  -19.6936  -25.6286   21.1227 H   0  0  0  0  0  0
  -19.6709  -27.3163   20.6694 H   0  0  0  0  0  0
  -17.4213  -26.6635   21.3996 H   0  0  0  0  0  0
  -18.0351  -26.0061   22.8988 H   0  0  0  0  0  0
  -19.7940  -30.7245   24.2256 H   0  0  0  0  0  0
  -17.5020  -31.6237   24.5175 H   0  0  0  0  0  0
  -15.5360  -30.2964   23.7654 H   0  0  0  0  0  0
  -15.8672  -28.0836   22.7000 H   0  0  0  0  0  0
  -24.5873  -30.7096   25.7796 H   0  0  0  0  0  0
  -24.8929  -32.2879   26.4940 H   0  0  0  0  0  0
  -25.8047  -30.8851   27.0230 H   0  0  0  0  0  0
  -26.2898  -29.6794   24.1177 H   0  0  0  0  0  0
  -27.4121  -29.7310   25.4589 H   0  0  0  0  0  0
  -27.8713  -30.4417   23.9293 H   0  0  0  0  0  0
  -27.2695  -33.3631   26.2091 H   0  0  0  0  0  0
  -28.3837  -32.6902   25.0288 H   0  0  0  0  0  0
  -28.0753  -31.8442   26.5378 H   0  0  0  0  0  0
  -28.2606  -38.0120   24.7516 H   0  0  0  0  0  0
  -28.1098  -36.2651   24.6290 H   0  0  0  0  0  0
  -27.2310  -37.1464   25.8869 H   0  0  0  0  0  0
  -20.9311  -29.8833   21.6984 H   0  0  0  0  0  0
  -26.0197  -38.2878   24.1388 H   0  0  0  0  0  0
  -32.5439  -18.2457   23.6772 H   0  0  0  0  0  0
  -28.9031  -22.6191   19.0814 H   0  0  0  0  0  0
  -27.9890  -22.4355   20.5490 H   0  0  0  0  0  0
  -27.2365  -24.8568   20.4419 H   0  0  0  0  0  0
  -28.0651  -24.9997   18.8985 H   0  0  0  0  0  0
  -30.2440  -24.4974   20.1254 H   0  0  0  0  0  0
  -28.5501  -20.2519   20.6869 H   0  0  0  0  0  0
  -28.9717  -15.3757   21.1462 H   0  0  0  0  0  0
  1 25  1  0  0  0
  1 30  2  0  0  0
  1 82  1  0  0  0
  2  3  1  0  0  0
  2 25  1  0  0  0
  2 87  1  0  0  0
  2 88  1  0  0  0
  3  4  1  0  0  0
  3 89  1  0  0  0
  3 90  1  0  0  0
  4  5  1  0  0  0
  4 91  1  0  0  0
  4 92  1  0  0  0
  5  6  1  0  0  0
  5 26  1  0  0  0
  5 93  1  0  0  0
  6 25  1  0  0  0
  6 94  1  0  0  0
  6 95  1  0  0  0
  7  8  2  0  0  0
  7 26  1  0  0  0
  7 29  1  0  0  0
  8  9  1  0  0  0
  8 22  1  0  0  0
  9 10  1  0  0  0
  9 27  2  0  0  0
 10 11  2  0  0  0
 10 15  1  0  0  0
 11 12  1  0  0  0
 11 96  1  0  0  0
 12 13  2  0  0  0
 12 97  1  0  0  0
 13 14  1  0  0  0
 13 31  1  0  0  0
 14 15  2  0  0  0
 14 98  1  0  0  0
 15 99  1  0  0  0
 16 17  2  0  0  0
 16 21  1  0  0  0
 16 31  1  0  0  0
 17 18  1  0  0  0
 17100  1  0  0  0
 18 19  2  0  0  0
 18101  1  0  0  0
 19 20  1  0  0  0
 19 24  1  0  0  0
 20 21  2  0  0  0
 20102  1  0  0  0
 21 23  1  0  0  0
 22 28  1  0  0  0
 22 32  2  0  0  0
 26 27  1  0  0  0
 28103  1  0  0  0
 28104  1  0  0  0
 29105  1  0  0  0
 29106  1  0  0  0
 33 34  1  0  0  0
 33 66  1  0  0  0
 33 70  2  0  0  0
 34 36  1  0  0  0
 34 59  1  0  0  0
 34107  1  0  0  0
 35 44  2  0  0  0
 35 45  1  0  0  0
 35 68  1  0  0  0
 36 56  1  0  0  0
 36108  1  0  0  0
 37 39  1  0  0  0
 37 47  1  0  0  0
 37 66  1  0  0  0
 37109  1  0  0  0
 38 43  2  0  0  0
 38 46  1  0  0  0
 38 47  1  0  0  0
 39 64  1  0  0  0
 39 67  2  0  0  0
 40 52  1  0  0  0
 40 53  2  0  0  0
 40 58  1  0  0  0
 41110  1  0  0  0
 41111  1  0  0  0
 41112  1  0  0  0
 41 48  1  0  0  0
 42 43  1  0  0  0
 42 66  1  0  0  0
 42113  1  0  0  0
 42114  1  0  0  0
 43 44  1  0  0  0
 44115  1  0  0  0
 45 46  2  0  0  0
 45116  1  0  0  0
 46117  1  0  0  0
 47118  1  0  0  0
 47119  1  0  0  0
 48 56  1  0  0  0
 48 65  1  0  0  0
 48120  1  0  0  0
 49 50  1  0  0  0
 49 53  1  0  0  0
 49 64  1  0  0  0
 49121  1  0  0  0
 50 51  1  0  0  0
 50122  1  0  0  0
 50123  1  0  0  0
 51 52  1  0  0  0
 51124  1  0  0  0
 51125  1  0  0  0
 52126  1  0  0  0
 52127  1  0  0  0
 53 54  1  0  0  0
 54 55  2  0  0  0
 54128  1  0  0  0
 55 57  1  0  0  0
 55129  1  0  0  0
 56 69  2  0  0  0
 57 58  2  0  0  0
 57130  1  0  0  0
 58131  1  0  0  0
 59 60  1  0  0  0
 59 61  1  0  0  0
 59 62  1  0  0  0
 60132  1  0  0  0
 60133  1  0  0  0
 60134  1  0  0  0
 61135  1  0  0  0
 61136  1  0  0  0
 61137  1  0  0  0
 62138  1  0  0  0
 62139  1  0  0  0
 62140  1  0  0  0
 63 65  1  0  0  0
 63141  1  0  0  0
 63142  1  0  0  0
 63143  1  0  0  0
 64144  1  0  0  0
 65145  1  0  0  0
 68 78  1  0  0  0
 71 72  2  0  0  0
 71 73  1  0  0  0
 71146  1  0  0  0
 72 74  1  0  0  0
 72 84  1  0  0  0
 73 75  2  0  0  0
 73 85  1  0  0  0
 74 80  2  0  0  0
 74 81  1  0  0  0
 75 80  1  0  0  0
 75 82  1  0  0  0
 76 77  1  0  0  0
 76 81  1  0  0  0
 76 83  2  0  0  0
 77 79  1  0  0  0
 77147  1  0  0  0
 77148  1  0  0  0
 78 79  1  0  0  0
 78149  1  0  0  0
 78150  1  0  0  0
 79 86  1  0  0  0
 79151  1  0  0  0
 81152  1  0  0  0
 82153  1  0  0  0
M  ISO  4   1 100  68 101  78 101  82 100
M  END
> <chiral flag>
0

> <version>
0

> <s_m_source_file>
/data/baiqing/PycharmProjects/Reinvent-master-3.2/result/LINK_invent/BTK/process_docking_weight1_custom_product_contain_oxygen_bond_distance_aromatic_linkinvent_7_9_3/rearranged_h_0183.sdf

> <i_m_source_file_index>
18

> <r_mmod_Potential_Energy-OPLS-2005>
-199.540679931641

> <r_mmod_Stretch_Energy-OPLS-2005>
47.7051963806152

> <r_mmod_Bend_Energy-OPLS-2005>
109.292457580566

> <r_mmod_Torsional_Energy-OPLS-2005>
229.106063842773

> <r_mmod_Improper_Torsional_Energy-OPLS-2005>
6.15693283081055

> <r_mmod_Van_der_Waal_Energy-OPLS-2005>
162.614990234375

> <r_mmod_Electrostatic_Energy-OPLS-2005>
-532.432006835938

> <r_mmod_Solvation_Energy-OPLS-2005>
-244.323837280273

> <b_mmod_Minimization_Converged-OPLS-2005>
0

> <r_mmod_RMS_Derivative-OPLS-2005>
2.44903087615967

$$$$
18
                    3D
 Structure written by MMmdl.
153161  0  0  1  0            999 V2000
  -30.5109  -15.0310   20.4069 C   0  0  0  0  0  0
  -30.4504  -12.6469   19.5038 C   0  0  0  0  0  0
  -29.5278  -12.5358   18.2664 C   0  0  0  0  0  0
  -28.0634  -12.3111   18.6895 C   0  0  0  0  0  0
  -27.6276  -13.2553   19.8391 C   0  0  2  0  0  0
  -28.6697  -13.3181   20.9756 C   0  0  0  0  0  0
  -25.2444  -13.8233   20.5716 C   0  0  0  0  0  0
  -24.1780  -13.0454   20.9243 C   0  0  0  0  0  0
  -24.6404  -11.6937   20.8781 C   0  0  0  0  0  0
  -23.9091  -10.4299   21.0431 C   0  0  0  0  0  0
  -24.3638   -9.4199   21.9199 C   0  0  0  0  0  0
  -23.6311   -8.2239   22.0770 C   0  0  0  0  0  0
  -22.4292   -8.0276   21.3551 C   0  0  0  0  0  0
  -21.9937   -9.0256   20.4654 C   0  0  0  0  0  0
  -22.7266  -10.2137   20.3075 C   0  0  0  0  0  0
  -21.6850   -6.0741   22.5288 C   0  0  0  0  0  0
  -21.3981   -6.5636   23.8217 C   0  0  0  0  0  0
  -21.3678   -5.6790   24.9185 C   0  0  0  0  0  0
  -21.6060   -4.3058   24.7233 C   0  0  0  0  0  0
  -21.8818   -3.8147   23.4354 C   0  0  0  0  0  0
  -21.9182   -4.6967   22.3408 C   0  0  0  0  0  0
  -22.7786  -13.5190   21.1890 C   0  0  0  0  0  0
  -22.1652   -4.2146   21.0990 F   0  0  0  0  0  0
  -21.5671   -3.4546   25.7754 F   0  0  0  0  0  0
  -29.9335  -13.7548   20.3660 N   0  0  0  0  0  0
  -26.2887  -12.9483   20.3256 N   0  0  0  0  0  0
  -25.9346  -11.6611   20.5766 N   0  0  0  0  0  0
  -22.0448  -12.8170   22.0446 N   0  0  0  0  0  0
  -25.4075  -15.1976   20.4104 N   0  0  0  0  0  0
  -31.7258  -15.0802   20.1740 O   0  0  0  0  0  0
  -21.6637   -6.8880   21.4246 O   0  0  0  0  0  0
  -22.3461  -14.5513   20.6751 O   0  0  0  0  0  0
  -24.6442  -31.8419   23.1851 C   0  0  0  0  0  0
  -25.9202  -32.4687   23.8260 C   0  0  1  0  0  0
  -27.2098  -27.0931   20.1613 C   0  0  0  0  0  0
  -25.5953  -33.8503   24.2162 N   0  0  0  0  0  0
  -23.4489  -30.4604   21.5328 C   0  0  2  0  0  0
  -24.8965  -28.8800   20.1125 C   0  0  0  0  0  0
  -22.7579  -29.4520   22.4852 C   0  0  0  0  0  0
  -18.0303  -28.1394   22.8450 C   0  0  0  0  0  0
  -24.1490  -36.7254   23.2634 C   0  0  0  0  0  0
  -26.0077  -30.7024   21.3877 C   0  0  0  0  0  0
  -26.0772  -29.3080   20.7326 C   0  0  0  0  0  0
  -27.2343  -28.4342   20.7352 C   0  0  0  0  0  0
  -26.0017  -26.7762   19.5013 C   0  0  0  0  0  0
  -24.8753  -27.6291   19.4788 C   0  0  0  0  0  0
  -23.6771  -29.7913   20.1522 C   0  0  0  0  0  0
  -25.4131  -36.3013   24.0286 C   0  0  1  0  0  0
  -20.5920  -28.3710   23.1211 C   0  0  2  0  0  0
  -20.6791  -26.9415   22.5395 C   0  0  0  0  0  0
  -19.5778  -26.6371   21.5190 C   0  0  0  0  0  0
  -18.1949  -26.7927   22.1594 C   0  0  0  0  0  0
  -19.1565  -28.8870   23.2819 C   0  0  0  0  0  0
  -18.9489  -30.1461   23.8850 C   0  0  0  0  0  0
  -17.6497  -30.6588   24.0547 C   0  0  0  0  0  0
  -25.9085  -34.9397   23.5028 C   0  0  0  0  0  0
  -16.5378  -29.9078   23.6346 C   0  0  0  0  0  0
  -16.7293  -28.6511   23.0341 C   0  0  0  0  0  0
  -26.4527  -31.6568   25.0718 C   0  0  0  0  0  0
  -25.3719  -31.3756   26.1416 C   0  0  0  0  0  0
  -27.0393  -30.2958   24.6312 C   0  0  0  0  0  0
  -27.6057  -32.4345   25.7508 C   0  0  0  0  0  0
  -27.5566  -37.1772   24.8462 C   0  0  0  0  0  0
  -21.4275  -29.3034   22.3599 N   0  0  0  0  0  0
  -26.4281  -37.3735   23.9402 N   0  0  0  0  0  0
  -24.7207  -31.0238   22.0897 N   0  0  0  0  0  0
  -23.4217  -28.8071   23.3016 O   0  0  0  0  0  0
  -28.2580  -26.0880   20.2183 O   0  0  0  0  0  0
  -26.5700  -34.8889   22.4622 O   0  0  0  0  0  0
  -23.5552  -32.1323   23.7028 O   0  0  0  0  0  0
  -29.5231  -20.2422   20.3313 C   0  0  0  0  0  0
  -30.9176  -20.1395   20.3656 C   0  0  0  0  0  0
  -29.9623  -17.7430   20.4269 C   0  0  0  0  0  0
  -28.6382  -21.5948   20.2154 C   0  0  0  0  0  0
  -29.9374  -23.4402   21.5619 C   0  0  0  0  0  0
  -29.9276  -23.5082   19.0141 C   0  0  0  0  0  0
  -27.9753  -24.5323   20.2416 C   0  0  0  0  0  0
  -29.0911  -23.2307   20.2799 C   0  0  0  0  0  0
  -29.0480  -18.8174   20.3763 N   0  0  0  0  0  0
  -31.9031  -21.1235   20.3471 N   0  0  0  0  0  0
  -29.7031  -16.2177   20.4838 N   0  0  0  0  0  0
  -27.4247  -21.4602   20.0283 O   0  0  0  0  0  0
  -31.5604  -18.4710   20.4255 S   0  0  0  0  0  0
  -31.4747  -12.8383   19.1775 H   0  0  0  0  0  0
  -30.4857  -11.7071   20.0582 H   0  0  0  0  0  0
  -29.8595  -11.7239   17.6169 H   0  0  0  0  0  0
  -29.5997  -13.4491   17.6727 H   0  0  0  0  0  0
  -27.9717  -11.2733   19.0146 H   0  0  0  0  0  0
  -27.3964  -12.4238   17.8339 H   0  0  0  0  0  0
  -27.5792  -14.2481   19.3939 H   0  0  0  0  0  0
  -28.7741  -12.3538   21.4754 H   0  0  0  0  0  0
  -28.3561  -14.0298   21.7411 H   0  0  0  0  0  0
  -25.2801   -9.5670   22.4745 H   0  0  0  0  0  0
  -24.0030   -7.4631   22.7494 H   0  0  0  0  0  0
  -21.0873   -8.8775   19.8955 H   0  0  0  0  0  0
  -22.3736  -10.9677   19.6173 H   0  0  0  0  0  0
  -21.1923   -7.6137   23.9706 H   0  0  0  0  0  0
  -21.1524   -6.0531   25.9088 H   0  0  0  0  0  0
  -22.0579   -2.7604   23.2856 H   0  0  0  0  0  0
  -22.4098  -11.9829   22.4798 H   0  0  0  0  0  0
  -21.1072  -13.1191   22.2695 H   0  0  0  0  0  0
  -24.6346  -15.8430   20.5285 H   0  0  0  0  0  0
  -26.2338  -15.6406   20.0330 H   0  0  0  0  0  0
  -26.7281  -32.5270   23.0997 H   0  0  0  0  0  0
  -25.0072  -33.9659   25.0277 H   0  0  0  0  0  0
  -22.7509  -31.2861   21.3802 H   0  0  0  0  0  0
  -23.3745  -35.9586   23.3285 H   0  0  0  0  0  0
  -24.3572  -36.8923   22.2055 H   0  0  0  0  0  0
  -23.7269  -37.6438   23.6725 H   0  0  0  0  0  0
  -26.1682  -31.4475   20.6072 H   0  0  0  0  0  0
  -26.8754  -30.7585   22.0333 H   0  0  0  0  0  0
  -28.1326  -28.7591   21.2385 H   0  0  0  0  0  0
  -25.8897  -25.8253   19.0045 H   0  0  0  0  0  0
  -23.9762  -27.2988   18.9745 H   0  0  0  0  0  0
  -23.8178  -30.5696   19.4013 H   0  0  0  0  0  0
  -22.7872  -29.2435   19.8356 H   0  0  0  0  0  0
  -25.1320  -36.1818   25.0777 H   0  0  0  0  0  0
  -21.0003  -28.3297   24.1337 H   0  0  0  0  0  0
  -20.5648  -26.2335   23.3622 H   0  0  0  0  0  0
  -21.6663  -26.7398   22.1216 H   0  0  0  0  0  0
  -19.6952  -25.6266   21.1251 H   0  0  0  0  0  0
  -19.6723  -27.3148   20.6693 H   0  0  0  0  0  0
  -17.4222  -26.6628   21.4002 H   0  0  0  0  0  0
  -18.0361  -26.0079   22.9008 H   0  0  0  0  0  0
  -19.7971  -30.7273   24.2191 H   0  0  0  0  0  0
  -17.5060  -31.6262   24.5161 H   0  0  0  0  0  0
  -15.5379  -30.2977   23.7703 H   0  0  0  0  0  0
  -15.8683  -28.0826   22.7075 H   0  0  0  0  0  0
  -24.5921  -30.7081   25.7729 H   0  0  0  0  0  0
  -24.8886  -32.2930   26.4775 H   0  0  0  0  0  0
  -25.7989  -30.8983   27.0244 H   0  0  0  0  0  0
  -26.3001  -29.6693   24.1319 H   0  0  0  0  0  0
  -27.3995  -29.7250   25.4879 H   0  0  0  0  0  0
  -27.8917  -30.4177   23.9633 H   0  0  0  0  0  0
  -27.2671  -33.3705   26.1964 H   0  0  0  0  0  0
  -28.3935  -32.6814   25.0382 H   0  0  0  0  0  0
  -28.0665  -31.8571   26.5532 H   0  0  0  0  0  0
  -28.2548  -38.0091   24.7509 H   0  0  0  0  0  0
  -28.1091  -36.2623   24.6289 H   0  0  0  0  0  0
  -27.2299  -37.1419   25.8864 H   0  0  0  0  0  0
  -20.9491  -29.8794   21.6817 H   0  0  0  0  0  0
  -26.0125  -38.2774   24.1455 H   0  0  0  0  0  0
  -30.8820  -23.9396   21.3523 H   0  0  0  0  0  0
  -30.1699  -22.5068   22.0756 H   0  0  0  0  0  0
  -29.4123  -24.0607   22.2889 H   0  0  0  0  0  0
  -30.8062  -22.8792   18.9195 H   0  0  0  0  0  0
  -30.2661  -24.5443   18.9817 H   0  0  0  0  0  0
  -29.3209  -23.3491   18.1219 H   0  0  0  0  0  0
  -27.3222  -24.3917   21.1032 H   0  0  0  0  0  0
  -27.3359  -24.3179   19.3876 H   0  0  0  0  0  0
  -32.8899  -20.8941   20.2523 H   0  0  0  0  0  0
  -31.7297  -22.1130   20.2071 H   0  0  0  0  0  0
  -28.7252  -15.9989   20.5679 H   0  0  0  0  0  0
  1 25  1  0  0  0
  1 30  2  0  0  0
  1 81  1  0  0  0
  2  3  1  0  0  0
  2 25  1  0  0  0
  2 84  1  0  0  0
  2 85  1  0  0  0
  3  4  1  0  0  0
  3 86  1  0  0  0
  3 87  1  0  0  0
  4  5  1  0  0  0
  4 88  1  0  0  0
  4 89  1  0  0  0
  5  6  1  0  0  0
  5 26  1  0  0  0
  5 90  1  0  0  0
  6 25  1  0  0  0
  6 91  1  0  0  0
  6 92  1  0  0  0
  7  8  2  0  0  0
  7 26  1  0  0  0
  7 29  1  0  0  0
  8  9  1  0  0  0
  8 22  1  0  0  0
  9 10  1  0  0  0
  9 27  2  0  0  0
 10 11  2  0  0  0
 10 15  1  0  0  0
 11 12  1  0  0  0
 11 93  1  0  0  0
 12 13  2  0  0  0
 12 94  1  0  0  0
 13 14  1  0  0  0
 13 31  1  0  0  0
 14 15  2  0  0  0
 14 95  1  0  0  0
 15 96  1  0  0  0
 16 17  2  0  0  0
 16 21  1  0  0  0
 16 31  1  0  0  0
 17 18  1  0  0  0
 17 97  1  0  0  0
 18 19  2  0  0  0
 18 98  1  0  0  0
 19 20  1  0  0  0
 19 24  1  0  0  0
 20 21  2  0  0  0
 20 99  1  0  0  0
 21 23  1  0  0  0
 22 28  1  0  0  0
 22 32  2  0  0  0
 26 27  1  0  0  0
 28100  1  0  0  0
 28101  1  0  0  0
 29102  1  0  0  0
 29103  1  0  0  0
 33 34  1  0  0  0
 33 66  1  0  0  0
 33 70  2  0  0  0
 34 36  1  0  0  0
 34 59  1  0  0  0
 34104  1  0  0  0
 35 44  2  0  0  0
 35 45  1  0  0  0
 35 68  1  0  0  0
 36 56  1  0  0  0
 36105  1  0  0  0
 37 39  1  0  0  0
 37 47  1  0  0  0
 37 66  1  0  0  0
 37106  1  0  0  0
 38 43  2  0  0  0
 38 46  1  0  0  0
 38 47  1  0  0  0
 39 64  1  0  0  0
 39 67  2  0  0  0
 40 52  1  0  0  0
 40 53  2  0  0  0
 40 58  1  0  0  0
 41107  1  0  0  0
 41108  1  0  0  0
 41109  1  0  0  0
 41 48  1  0  0  0
 42 43  1  0  0  0
 42 66  1  0  0  0
 42110  1  0  0  0
 42111  1  0  0  0
 43 44  1  0  0  0
 44112  1  0  0  0
 45 46  2  0  0  0
 45113  1  0  0  0
 46114  1  0  0  0
 47115  1  0  0  0
 47116  1  0  0  0
 48 56  1  0  0  0
 48 65  1  0  0  0
 48117  1  0  0  0
 49 50  1  0  0  0
 49 53  1  0  0  0
 49 64  1  0  0  0
 49118  1  0  0  0
 50 51  1  0  0  0
 50119  1  0  0  0
 50120  1  0  0  0
 51 52  1  0  0  0
 51121  1  0  0  0
 51122  1  0  0  0
 52123  1  0  0  0
 52124  1  0  0  0
 53 54  1  0  0  0
 54 55  2  0  0  0
 54125  1  0  0  0
 55 57  1  0  0  0
 55126  1  0  0  0
 56 69  2  0  0  0
 57 58  2  0  0  0
 57127  1  0  0  0
 58128  1  0  0  0
 59 60  1  0  0  0
 59 61  1  0  0  0
 59 62  1  0  0  0
 60129  1  0  0  0
 60130  1  0  0  0
 60131  1  0  0  0
 61132  1  0  0  0
 61133  1  0  0  0
 61134  1  0  0  0
 62135  1  0  0  0
 62136  1  0  0  0
 62137  1  0  0  0
 63 65  1  0  0  0
 63138  1  0  0  0
 63139  1  0  0  0
 63140  1  0  0  0
 64141  1  0  0  0
 65142  1  0  0  0
 68 77  1  0  0  0
 71 72  2  0  0  0
 71 74  1  0  0  0
 71 79  1  0  0  0
 72 80  1  0  0  0
 72 83  1  0  0  0
 73 79  2  0  0  0
 73 81  1  0  0  0
 73 83  1  0  0  0
 74 78  1  0  0  0
 74 82  2  0  0  0
 75143  1  0  0  0
 75144  1  0  0  0
 75145  1  0  0  0
 75 78  1  0  0  0
 76 78  1  0  0  0
 76146  1  0  0  0
 76147  1  0  0  0
 76148  1  0  0  0
 77 78  1  0  0  0
 77149  1  0  0  0
 77150  1  0  0  0
 80151  1  0  0  0
 80152  1  0  0  0
 81153  1  0  0  0
M  ISO  4   1 100  68 101  77 101  81 100
M  END
> <chiral flag>
0

> <version>
0

> <s_m_source_file>
/data/baiqing/PycharmProjects/Reinvent-master-3.2/result/LINK_invent/BTK/process_docking_weight1_custom_product_contain_oxygen_bond_distance_aromatic_linkinvent_7_9_3/rearranged_h_0183.sdf

> <i_m_source_file_index>
19

> <r_mmod_Potential_Energy-OPLS-2005>
753.554382324219

> <r_mmod_Stretch_Energy-OPLS-2005>
324.099884033203

> <r_mmod_Bend_Energy-OPLS-2005>
289.656311035156

> <r_mmod_Torsional_Energy-OPLS-2005>
238.402587890625

> <r_mmod_Improper_Torsional_Energy-OPLS-2005>
5.49206781387329

> <r_mmod_Van_der_Waal_Energy-OPLS-2005>
112.419250488281

> <r_mmod_Electrostatic_Energy-OPLS-2005>
-234.224990844727

> <r_mmod_Solvation_Energy-OPLS-2005>
-225.578689575195

> <b_mmod_Minimization_Converged-OPLS-2005>
0

> <r_mmod_RMS_Derivative-OPLS-2005>
3.15343952178955

$$$$
19
                    3D
 Structure written by MMmdl.
153161  0  0  1  0            999 V2000
  -30.5731  -14.7466   20.4527 C   0  0  0  0  0  0
  -30.4472  -12.4459   19.4684 C   0  0  0  0  0  0
  -29.5176  -12.5127   18.2343 C   0  0  0  0  0  0
  -28.0410  -12.3440   18.6469 C   0  0  0  0  0  0
  -27.6512  -13.2280   19.8600 C   0  0  2  0  0  0
  -28.6984  -13.1292   20.9942 C   0  0  0  0  0  0
  -25.2572  -13.8192   20.5682 C   0  0  0  0  0  0
  -24.1868  -13.0461   20.9224 C   0  0  0  0  0  0
  -24.6437  -11.6919   20.8761 C   0  0  0  0  0  0
  -23.9099  -10.4310   21.0421 C   0  0  0  0  0  0
  -24.3639   -9.4205   21.9198 C   0  0  0  0  0  0
  -23.6327   -8.2236   22.0743 C   0  0  0  0  0  0
  -22.4317   -8.0296   21.3522 C   0  0  0  0  0  0
  -21.9934   -9.0278   20.4625 C   0  0  0  0  0  0
  -22.7261  -10.2166   20.3058 C   0  0  0  0  0  0
  -21.6879   -6.0749   22.5289 C   0  0  0  0  0  0
  -21.4008   -6.5637   23.8227 C   0  0  0  0  0  0
  -21.3662   -5.6796   24.9191 C   0  0  0  0  0  0
  -21.6037   -4.3058   24.7234 C   0  0  0  0  0  0
  -21.8829   -3.8147   23.4356 C   0  0  0  0  0  0
  -21.9190   -4.6964   22.3401 C   0  0  0  0  0  0
  -22.7859  -13.5199   21.1875 C   0  0  0  0  0  0
  -22.1675   -4.2122   21.0988 F   0  0  0  0  0  0
  -21.5631   -3.4555   25.7757 F   0  0  0  0  0  0
  -30.0041  -13.4919   20.4193 N   0  0  0  0  0  0
  -26.2995  -12.9388   20.3314 N   0  0  0  0  0  0
  -25.9355  -11.6536   20.5772 N   0  0  0  0  0  0
  -22.0514  -12.8186   22.0426 N   0  0  0  0  0  0
  -25.4273  -15.1922   20.4040 N   0  0  0  0  0  0
  -31.7509  -14.8958   20.1061 O   0  0  0  0  0  0
  -21.6670   -6.8895   21.4257 O   0  0  0  0  0  0
  -22.3534  -14.5524   20.6757 O   0  0  0  0  0  0
  -24.6299  -31.8526   23.1969 C   0  0  0  0  0  0
  -25.9113  -32.4748   23.8323 C   0  0  1  0  0  0
  -27.2394  -27.2781   20.1128 C   0  0  0  0  0  0
  -25.5912  -33.8547   24.2239 N   0  0  0  0  0  0
  -23.4281  -30.4699   21.5367 C   0  0  2  0  0  0
  -24.8786  -28.9114   20.1041 C   0  0  0  0  0  0
  -22.7493  -29.4574   22.4916 C   0  0  0  0  0  0
  -18.0286  -28.1372   22.8494 C   0  0  0  0  0  0
  -24.1493  -36.7287   23.2645 C   0  0  0  0  0  0
  -25.9676  -30.7677   21.3740 C   0  0  0  0  0  0
  -26.0426  -29.3908   20.7146 C   0  0  0  0  0  0
  -27.2196  -28.5824   20.7100 C   0  0  0  0  0  0
  -26.0526  -26.8528   19.4786 C   0  0  0  0  0  0
  -24.8874  -27.6516   19.4793 C   0  0  0  0  0  0
  -23.6455  -29.7942   20.1546 C   0  0  0  0  0  0
  -25.4127  -36.3071   24.0323 C   0  0  1  0  0  0
  -20.5879  -28.3676   23.1284 C   0  0  2  0  0  0
  -20.6758  -26.9397   22.5422 C   0  0  0  0  0  0
  -19.5751  -26.6371   21.5208 C   0  0  0  0  0  0
  -18.1926  -26.7923   22.1617 C   0  0  0  0  0  0
  -19.1536  -28.8850   23.2878 C   0  0  0  0  0  0
  -18.9461  -30.1452   23.8893 C   0  0  0  0  0  0
  -17.6455  -30.6578   24.0557 C   0  0  0  0  0  0
  -25.9069  -34.9430   23.5098 C   0  0  0  0  0  0
  -16.5341  -29.9085   23.6317 C   0  0  0  0  0  0
  -16.7271  -28.6497   23.0355 C   0  0  0  0  0  0
  -26.4488  -31.6571   25.0719 C   0  0  0  0  0  0
  -25.3701  -31.3715   26.1438 C   0  0  0  0  0  0
  -27.0348  -30.2986   24.6213 C   0  0  0  0  0  0
  -27.6055  -32.4319   25.7490 C   0  0  0  0  0  0
  -27.5579  -37.1800   24.8465 C   0  0  0  0  0  0
  -21.4188  -29.3030   22.3668 N   0  0  0  0  0  0
  -26.4297  -37.3764   23.9406 N   0  0  0  0  0  0
  -24.6927  -31.0500   22.0921 N   0  0  0  0  0  0
  -23.4200  -28.8132   23.3027 O   0  0  0  0  0  0
  -28.3754  -26.4490   20.2154 O   0  0  0  0  0  0
  -26.5640  -34.8906   22.4667 O   0  0  0  0  0  0
  -23.5448  -32.1344   23.7253 O   0  0  0  0  0  0
  -29.2130  -19.8518   20.4207 C   0  0  0  0  0  0
  -30.5388  -19.4616   20.2236 C   0  0  0  0  0  0
  -29.7347  -17.2769   20.5356 C   0  0  0  0  0  0
  -28.5124  -21.2007   20.5872 C   0  0  0  0  0  0
  -28.1913  -23.7943   20.3338 C   0  0  0  0  0  0
  -30.1168  -25.1548   19.2645 C   0  0  0  0  0  0
  -28.6008  -25.1262   19.5384 C   0  0  2  0  0  0
  -30.8024  -18.0569   20.2753 N   0  0  0  0  0  0
  -31.6363  -20.3037   20.0122 N   0  0  0  0  0  0
  -29.7132  -15.8011   20.7176 N   0  0  0  0  0  0
  -28.8388  -22.4550   20.0407 N   0  0  0  0  0  0
  -27.4241  -21.1465   21.3787 N   0  3  0  0  0  0
  -27.2915  -23.8683   21.1831 O   0  0  0  0  0  0
  -28.2834  -18.3286   20.6567 S   0  0  0  0  0  0
  -31.4878  -12.5795   19.1633 H   0  0  0  0  0  0
  -30.3950  -11.4581   19.9304 H   0  0  0  0  0  0
  -29.7909  -11.7444   17.5068 H   0  0  0  0  0  0
  -29.6506  -13.4683   17.7251 H   0  0  0  0  0  0
  -27.8883  -11.2939   18.8976 H   0  0  0  0  0  0
  -27.3881  -12.5517   17.7993 H   0  0  0  0  0  0
  -27.6511  -14.2551   19.4935 H   0  0  0  0  0  0
  -28.7279  -12.1198   21.4084 H   0  0  0  0  0  0
  -28.4346  -13.7881   21.8237 H   0  0  0  0  0  0
  -25.2798   -9.5699   22.4749 H   0  0  0  0  0  0
  -24.0034   -7.4638   22.7476 H   0  0  0  0  0  0
  -21.0860   -8.8816   19.8928 H   0  0  0  0  0  0
  -22.3752  -10.9708   19.6148 H   0  0  0  0  0  0
  -21.2012   -7.6144   23.9707 H   0  0  0  0  0  0
  -21.1461   -6.0544   25.9095 H   0  0  0  0  0  0
  -22.0598   -2.7593   23.2893 H   0  0  0  0  0  0
  -22.4152  -11.9845   22.4792 H   0  0  0  0  0  0
  -21.1098  -13.1149   22.2605 H   0  0  0  0  0  0
  -24.6513  -15.8389   20.4867 H   0  0  0  0  0  0
  -26.2455  -15.6082   19.9814 H   0  0  0  0  0  0
  -26.7170  -32.5399   23.1059 H   0  0  0  0  0  0
  -25.0008  -33.9669   25.0349 H   0  0  0  0  0  0
  -22.7249  -31.2889   21.3901 H   0  0  0  0  0  0
  -23.3741  -35.9631   23.3310 H   0  0  0  0  0  0
  -24.3559  -36.8910   22.2058 H   0  0  0  0  0  0
  -23.7250  -37.6488   23.6665 H   0  0  0  0  0  0
  -26.1027  -31.5313   20.6044 H   0  0  0  0  0  0
  -26.8462  -30.8193   22.0060 H   0  0  0  0  0  0
  -28.1159  -28.9427   21.1963 H   0  0  0  0  0  0
  -26.0021  -25.8820   19.0081 H   0  0  0  0  0  0
  -23.9914  -27.2795   19.0010 H   0  0  0  0  0  0
  -23.7621  -30.5681   19.3963 H   0  0  0  0  0  0
  -22.7642  -29.2213   19.8587 H   0  0  0  0  0  0
  -25.1298  -36.1914   25.0808 H   0  0  0  0  0  0
  -20.9962  -28.3255   24.1403 H   0  0  0  0  0  0
  -20.5631  -26.2289   23.3621 H   0  0  0  0  0  0
  -21.6634  -26.7400   22.1232 H   0  0  0  0  0  0
  -19.6904  -25.6285   21.1244 H   0  0  0  0  0  0
  -19.6690  -27.3174   20.6739 H   0  0  0  0  0  0
  -17.4184  -26.6662   21.4019 H   0  0  0  0  0  0
  -18.0329  -26.0060   22.9021 H   0  0  0  0  0  0
  -19.7927  -30.7269   24.2252 H   0  0  0  0  0  0
  -17.5007  -31.6258   24.5177 H   0  0  0  0  0  0
  -15.5350  -30.2983   23.7649 H   0  0  0  0  0  0
  -15.8664  -28.0810   22.7079 H   0  0  0  0  0  0
  -24.5891  -30.7059   25.7734 H   0  0  0  0  0  0
  -24.8893  -32.2892   26.4834 H   0  0  0  0  0  0
  -25.8021  -30.8893   27.0215 H   0  0  0  0  0  0
  -26.2943  -29.6724   24.1235 H   0  0  0  0  0  0
  -27.4004  -29.7262   25.4740 H   0  0  0  0  0  0
  -27.8818  -30.4245   23.9473 H   0  0  0  0  0  0
  -27.2658  -33.3611   26.2057 H   0  0  0  0  0  0
  -28.3862  -32.6871   25.0319 H   0  0  0  0  0  0
  -28.0716  -31.8449   26.5404 H   0  0  0  0  0  0
  -28.2597  -38.0097   24.7489 H   0  0  0  0  0  0
  -28.1068  -36.2615   24.6316 H   0  0  0  0  0  0
  -27.2282  -37.1484   25.8864 H   0  0  0  0  0  0
  -20.9366  -29.8764   21.6867 H   0  0  0  0  0  0
  -26.0173  -38.2832   24.1394 H   0  0  0  0  0  0
  -30.4500  -24.3196   18.6522 H   0  0  0  0  0  0
  -30.6878  -25.1464   20.1936 H   0  0  0  0  0  0
  -30.3967  -26.0647   18.7337 H   0  0  0  0  0  0
  -28.0864  -25.1130   18.5765 H   0  0  0  0  0  0
  -31.6069  -21.2525   20.3632 H   0  0  0  0  0  0
  -32.5573  -19.8882   20.1205 H   0  0  0  0  0  0
  -28.8111  -15.4608   21.0118 H   0  0  0  0  0  0
  -29.5655  -22.3917   19.3472 H   0  0  0  0  0  0
  -27.0928  -20.2741   21.7569 H   0  0  0  0  0  0
  -26.9114  -21.9992   21.5826 H   0  0  0  0  0  0
  1 25  1  0  0  0
  1 30  2  0  0  0
  1 80  1  0  0  0
  2  3  1  0  0  0
  2 25  1  0  0  0
  2 85  1  0  0  0
  2 86  1  0  0  0
  3  4  1  0  0  0
  3 87  1  0  0  0
  3 88  1  0  0  0
  4  5  1  0  0  0
  4 89  1  0  0  0
  4 90  1  0  0  0
  5  6  1  0  0  0
  5 26  1  0  0  0
  5 91  1  0  0  0
  6 25  1  0  0  0
  6 92  1  0  0  0
  6 93  1  0  0  0
  7  8  2  0  0  0
  7 26  1  0  0  0
  7 29  1  0  0  0
  8  9  1  0  0  0
  8 22  1  0  0  0
  9 10  1  0  0  0
  9 27  2  0  0  0
 10 11  2  0  0  0
 10 15  1  0  0  0
 11 12  1  0  0  0
 11 94  1  0  0  0
 12 13  2  0  0  0
 12 95  1  0  0  0
 13 14  1  0  0  0
 13 31  1  0  0  0
 14 15  2  0  0  0
 14 96  1  0  0  0
 15 97  1  0  0  0
 16 17  2  0  0  0
 16 21  1  0  0  0
 16 31  1  0  0  0
 17 18  1  0  0  0
 17 98  1  0  0  0
 18 19  2  0  0  0
 18 99  1  0  0  0
 19 20  1  0  0  0
 19 24  1  0  0  0
 20 21  2  0  0  0
 20100  1  0  0  0
 21 23  1  0  0  0
 22 28  1  0  0  0
 22 32  2  0  0  0
 26 27  1  0  0  0
 28101  1  0  0  0
 28102  1  0  0  0
 29103  1  0  0  0
 29104  1  0  0  0
 33 34  1  0  0  0
 33 66  1  0  0  0
 33 70  2  0  0  0
 34 36  1  0  0  0
 34 59  1  0  0  0
 34105  1  0  0  0
 35 44  2  0  0  0
 35 45  1  0  0  0
 35 68  1  0  0  0
 36 56  1  0  0  0
 36106  1  0  0  0
 37 39  1  0  0  0
 37 47  1  0  0  0
 37 66  1  0  0  0
 37107  1  0  0  0
 38 43  2  0  0  0
 38 46  1  0  0  0
 38 47  1  0  0  0
 39 64  1  0  0  0
 39 67  2  0  0  0
 40 52  1  0  0  0
 40 53  2  0  0  0
 40 58  1  0  0  0
 41108  1  0  0  0
 41109  1  0  0  0
 41110  1  0  0  0
 41 48  1  0  0  0
 42 43  1  0  0  0
 42 66  1  0  0  0
 42111  1  0  0  0
 42112  1  0  0  0
 43 44  1  0  0  0
 44113  1  0  0  0
 45 46  2  0  0  0
 45114  1  0  0  0
 46115  1  0  0  0
 47116  1  0  0  0
 47117  1  0  0  0
 48 56  1  0  0  0
 48 65  1  0  0  0
 48118  1  0  0  0
 49 50  1  0  0  0
 49 53  1  0  0  0
 49 64  1  0  0  0
 49119  1  0  0  0
 50 51  1  0  0  0
 50120  1  0  0  0
 50121  1  0  0  0
 51 52  1  0  0  0
 51122  1  0  0  0
 51123  1  0  0  0
 52124  1  0  0  0
 52125  1  0  0  0
 53 54  1  0  0  0
 54 55  2  0  0  0
 54126  1  0  0  0
 55 57  1  0  0  0
 55127  1  0  0  0
 56 69  2  0  0  0
 57 58  2  0  0  0
 57128  1  0  0  0
 58129  1  0  0  0
 59 60  1  0  0  0
 59 61  1  0  0  0
 59 62  1  0  0  0
 60130  1  0  0  0
 60131  1  0  0  0
 60132  1  0  0  0
 61133  1  0  0  0
 61134  1  0  0  0
 61135  1  0  0  0
 62136  1  0  0  0
 62137  1  0  0  0
 62138  1  0  0  0
 63 65  1  0  0  0
 63139  1  0  0  0
 63140  1  0  0  0
 63141  1  0  0  0
 64142  1  0  0  0
 65143  1  0  0  0
 68 77  1  0  0  0
 71 72  2  0  0  0
 71 74  1  0  0  0
 71 84  1  0  0  0
 72 78  1  0  0  0
 72 79  1  0  0  0
 73 78  2  0  0  0
 73 80  1  0  0  0
 73 84  1  0  0  0
 74 81  1  0  0  0
 74 82  2  0  0  0
 75 77  1  0  0  0
 75 81  1  0  0  0
 75 83  2  0  0  0
 76144  1  0  0  0
 76145  1  0  0  0
 76146  1  0  0  0
 76 77  1  0  0  0
 77147  1  0  0  0
 79148  1  0  0  0
 79149  1  0  0  0
 80150  1  0  0  0
 81151  1  0  0  0
 82152  1  0  0  0
 82153  1  0  0  0
M  CHG  1  82   1
M  ISO  4   1 100  68 101  77 101  80 100
M  END
> <chiral flag>
0

> <version>
0

> <s_m_source_file>
/data/baiqing/PycharmProjects/Reinvent-master-3.2/result/LINK_invent/BTK/process_docking_weight1_custom_product_contain_oxygen_bond_distance_aromatic_linkinvent_7_9_3/rearranged_h_0183.sdf

> <i_m_source_file_index>
20

> <r_mmod_Potential_Energy-OPLS-2005>
-75.8203201293945

> <r_mmod_Stretch_Energy-OPLS-2005>
123.103393554688

> <r_mmod_Bend_Energy-OPLS-2005>
204.326782226562

> <r_mmod_Torsional_Energy-OPLS-2005>
213.393798828125

> <r_mmod_Improper_Torsional_Energy-OPLS-2005>
8.80464363098145

> <r_mmod_Van_der_Waal_Energy-OPLS-2005>
122.566993713379

> <r_mmod_Electrostatic_Energy-OPLS-2005>
-306.372955322266

> <r_mmod_Solvation_Energy-OPLS-2005>
-520.627136230469

> <b_mmod_Minimization_Converged-OPLS-2005>
0

> <r_mmod_RMS_Derivative-OPLS-2005>
5.24722766876221

$$$$
20
                    3D
 Structure written by MMmdl.
151159  0  0  1  0            999 V2000
  -30.5615  -14.7672   20.4591 C   0  0  0  0  0  0
  -30.4485  -12.4670   19.4702 C   0  0  0  0  0  0
  -29.5183  -12.5022   18.2361 C   0  0  0  0  0  0
  -28.0443  -12.3165   18.6501 C   0  0  0  0  0  0
  -27.6431  -13.2197   19.8458 C   0  0  2  0  0  0
  -28.6874  -13.1424   20.9819 C   0  0  0  0  0  0
  -25.2524  -13.8169   20.5673 C   0  0  0  0  0  0
  -24.1805  -13.0432   20.9201 C   0  0  0  0  0  0
  -24.6381  -11.6906   20.8736 C   0  0  0  0  0  0
  -23.9059  -10.4290   21.0415 C   0  0  0  0  0  0
  -24.3614   -9.4201   21.9185 C   0  0  0  0  0  0
  -23.6288   -8.2239   22.0754 C   0  0  0  0  0  0
  -22.4268   -8.0277   21.3550 C   0  0  0  0  0  0
  -21.9901   -9.0253   20.4657 C   0  0  0  0  0  0
  -22.7231  -10.2134   20.3063 C   0  0  0  0  0  0
  -21.6853   -6.0726   22.5280 C   0  0  0  0  0  0
  -21.4017   -6.5631   23.8213 C   0  0  0  0  0  0
  -21.3658   -5.6779   24.9167 C   0  0  0  0  0  0
  -21.6043   -4.3046   24.7219 C   0  0  0  0  0  0
  -21.8821   -3.8142   23.4343 C   0  0  0  0  0  0
  -21.9190   -4.6953   22.3398 C   0  0  0  0  0  0
  -22.7832  -13.5242   21.1855 C   0  0  0  0  0  0
  -22.1663   -4.2145   21.0971 F   0  0  0  0  0  0
  -21.5622   -3.4527   25.7733 F   0  0  0  0  0  0
  -29.9878  -13.5146   20.4071 N   0  0  0  0  0  0
  -26.2933  -12.9350   20.3231 N   0  0  0  0  0  0
  -25.9302  -11.6514   20.5730 N   0  0  0  0  0  0
  -22.0463  -12.8257   22.0414 N   0  0  0  0  0  0
  -25.4209  -15.1894   20.4079 N   0  0  0  0  0  0
  -31.7528  -14.9123   20.1657 O   0  0  0  0  0  0
  -21.6634   -6.8876   21.4246 O   0  0  0  0  0  0
  -22.3534  -14.5535   20.6666 O   0  0  0  0  0  0
  -24.6305  -31.8546   23.1942 C   0  0  0  0  0  0
  -25.9137  -32.4739   23.8304 C   0  0  1  0  0  0
  -27.2192  -27.2572   20.1448 C   0  0  0  0  0  0
  -25.5938  -33.8544   24.2234 N   0  0  0  0  0  0
  -23.4269  -30.4743   21.5378 C   0  0  2  0  0  0
  -24.8745  -28.9119   20.1128 C   0  0  0  0  0  0
  -22.7510  -29.4589   22.4895 C   0  0  0  0  0  0
  -18.0296  -28.1397   22.8486 C   0  0  0  0  0  0
  -24.1486  -36.7282   23.2626 C   0  0  0  0  0  0
  -25.9713  -30.7666   21.3731 C   0  0  0  0  0  0
  -26.0441  -29.3860   20.7212 C   0  0  0  0  0  0
  -27.2216  -28.5728   20.7197 C   0  0  0  0  0  0
  -26.0305  -26.8425   19.5132 C   0  0  0  0  0  0
  -24.8723  -27.6491   19.4970 C   0  0  0  0  0  0
  -23.6457  -29.8012   20.1555 C   0  0  0  0  0  0
  -25.4119  -36.3061   24.0313 C   0  0  1  0  0  0
  -20.5903  -28.3705   23.1267 C   0  0  2  0  0  0
  -20.6789  -26.9422   22.5407 C   0  0  0  0  0  0
  -19.5760  -26.6387   21.5213 C   0  0  0  0  0  0
  -18.1939  -26.7933   22.1627 C   0  0  0  0  0  0
  -19.1552  -28.8868   23.2863 C   0  0  0  0  0  0
  -18.9467  -30.1471   23.8870 C   0  0  0  0  0  0
  -17.6466  -30.6587   24.0574 C   0  0  0  0  0  0
  -25.9071  -34.9429   23.5081 C   0  0  0  0  0  0
  -16.5361  -29.9092   23.6334 C   0  0  0  0  0  0
  -16.7280  -28.6520   23.0335 C   0  0  0  0  0  0
  -26.4504  -31.6570   25.0699 C   0  0  0  0  0  0
  -25.3724  -31.3752   26.1425 C   0  0  0  0  0  0
  -27.0344  -30.2977   24.6197 C   0  0  0  0  0  0
  -27.6053  -32.4312   25.7474 C   0  0  0  0  0  0
  -27.5576  -37.1795   24.8467 C   0  0  0  0  0  0
  -21.4217  -29.3044   22.3652 N   0  0  0  0  0  0
  -26.4289  -37.3767   23.9400 N   0  0  0  0  0  0
  -24.6951  -31.0509   22.0918 N   0  0  0  0  0  0
  -23.4208  -28.8135   23.3001 O   0  0  0  0  0  0
  -28.3352  -26.3922   20.1393 O   0  0  0  0  0  0
  -26.5649  -34.8916   22.4653 O   0  0  0  0  0  0
  -23.5457  -32.1373   23.7242 O   0  0  0  0  0  0
  -29.2954  -19.8841   20.2613 C   0  0  0  0  0  0
  -30.4059  -19.5112   21.0163 C   0  0  0  0  0  0
  -29.7668  -17.3103   20.5054 C   0  0  0  0  0  0
  -28.6776  -21.2117   19.7014 C   0  0  0  0  0  0
  -28.3202  -23.7158   19.8454 C   0  0  0  0  0  0
  -27.2721  -24.8941   21.8958 C   0  0  0  0  0  0
  -28.3277  -25.0203   20.7812 C   0  0  2  0  0  0
  -30.6417  -18.1062   21.1517 N   0  0  0  0  0  0
  -31.3124  -20.3754   21.6360 N   0  0  0  0  0  0
  -29.6813  -15.8311   20.6140 N   0  0  0  0  0  0
  -28.7588  -22.4667   20.3081 N   0  0  0  0  0  0
  -28.0586  -21.0827   18.6381 O   0  0  0  0  0  0
  -27.8970  -23.8837   18.6960 O   0  0  0  0  0  0
  -28.5450  -18.3524   19.6960 S   0  0  0  0  0  0
  -31.4863  -12.6188   19.1683 H   0  0  0  0  0  0
  -30.4178  -11.4903   19.9535 H   0  0  0  0  0  0
  -29.8075  -11.7238   17.5279 H   0  0  0  0  0  0
  -29.6343  -13.4507   17.7099 H   0  0  0  0  0  0
  -27.9108  -11.2695   18.9248 H   0  0  0  0  0  0
  -27.3849  -12.4936   17.7997 H   0  0  0  0  0  0
  -27.6363  -14.2387   19.4593 H   0  0  0  0  0  0
  -28.7302  -12.1351   21.3995 H   0  0  0  0  0  0
  -28.4157  -13.7992   21.8100 H   0  0  0  0  0  0
  -25.2765   -9.5664   22.4747 H   0  0  0  0  0  0
  -23.9994   -7.4626   22.7466 H   0  0  0  0  0  0
  -21.0828   -8.8776   19.8971 H   0  0  0  0  0  0
  -22.3697  -10.9664   19.6166 H   0  0  0  0  0  0
  -21.2018   -7.6143   23.9720 H   0  0  0  0  0  0
  -21.1479   -6.0505   25.9073 H   0  0  0  0  0  0
  -22.0605   -2.7606   23.2835 H   0  0  0  0  0  0
  -22.4092  -11.9950   22.4843 H   0  0  0  0  0  0
  -21.1087  -13.1309   22.2608 H   0  0  0  0  0  0
  -24.6399  -15.8301   20.5054 H   0  0  0  0  0  0
  -26.2399  -15.6287   20.0092 H   0  0  0  0  0  0
  -26.7195  -32.5397   23.1038 H   0  0  0  0  0  0
  -25.0101  -33.9689   25.0390 H   0  0  0  0  0  0
  -22.7218  -31.2941   21.3876 H   0  0  0  0  0  0
  -23.3742  -35.9622   23.3309 H   0  0  0  0  0  0
  -24.3560  -36.8896   22.2037 H   0  0  0  0  0  0
  -23.7257  -37.6491   23.6655 H   0  0  0  0  0  0
  -26.1078  -31.5222   20.5981 H   0  0  0  0  0  0
  -26.8478  -30.8192   22.0056 H   0  0  0  0  0  0
  -28.1240  -28.9369   21.1921 H   0  0  0  0  0  0
  -25.9928  -25.8713   19.0405 H   0  0  0  0  0  0
  -23.9787  -27.2829   19.0102 H   0  0  0  0  0  0
  -23.7705  -30.5722   19.3947 H   0  0  0  0  0  0
  -22.7645  -29.2328   19.8525 H   0  0  0  0  0  0
  -25.1294  -36.1901   25.0802 H   0  0  0  0  0  0
  -20.9998  -28.3290   24.1384 H   0  0  0  0  0  0
  -20.5702  -26.2313   23.3614 H   0  0  0  0  0  0
  -21.6656  -26.7451   22.1189 H   0  0  0  0  0  0
  -19.6930  -25.6295   21.1241 H   0  0  0  0  0  0
  -19.6694  -27.3202   20.6742 H   0  0  0  0  0  0
  -17.4215  -26.6668   21.4029 H   0  0  0  0  0  0
  -18.0346  -26.0076   22.9022 H   0  0  0  0  0  0
  -19.7940  -30.7304   24.2212 H   0  0  0  0  0  0
  -17.5018  -31.6256   24.5191 H   0  0  0  0  0  0
  -15.5362  -30.2986   23.7664 H   0  0  0  0  0  0
  -15.8681  -28.0843   22.7032 H   0  0  0  0  0  0
  -24.5873  -30.7128   25.7763 H   0  0  0  0  0  0
  -24.8949  -32.2943   26.4835 H   0  0  0  0  0  0
  -25.8030  -30.8932   27.0212 H   0  0  0  0  0  0
  -26.2935  -29.6718   24.1214 H   0  0  0  0  0  0
  -27.4007  -29.7244   25.4726 H   0  0  0  0  0  0
  -27.8818  -30.4228   23.9453 H   0  0  0  0  0  0
  -27.2652  -33.3603   26.2060 H   0  0  0  0  0  0
  -28.3864  -32.6894   25.0309 H   0  0  0  0  0  0
  -28.0732  -31.8442   26.5386 H   0  0  0  0  0  0
  -28.2608  -38.0077   24.7490 H   0  0  0  0  0  0
  -28.1052  -36.2608   24.6317 H   0  0  0  0  0  0
  -27.2291  -37.1480   25.8870 H   0  0  0  0  0  0
  -20.9411  -29.8759   21.6843 H   0  0  0  0  0  0
  -26.0163  -38.2838   24.1404 H   0  0  0  0  0  0
  -27.3939  -23.9617   22.4490 H   0  0  0  0  0  0
  -26.2564  -24.9035   21.4997 H   0  0  0  0  0  0
  -27.3619  -25.7083   22.6145 H   0  0  0  0  0  0
  -29.2959  -24.9706   21.2805 H   0  0  0  0  0  0
  -31.3732  -21.3479   21.3561 H   0  0  0  0  0  0
  -32.1848  -20.0007   21.9961 H   0  0  0  0  0  0
  -28.7340  -15.5032   20.6943 H   0  0  0  0  0  0
  -29.1597  -22.4701   21.2332 H   0  0  0  0  0  0
  1 25  1  0  0  0
  1 30  2  0  0  0
  1 80  1  0  0  0
  2  3  1  0  0  0
  2 25  1  0  0  0
  2 85  1  0  0  0
  2 86  1  0  0  0
  3  4  1  0  0  0
  3 87  1  0  0  0
  3 88  1  0  0  0
  4  5  1  0  0  0
  4 89  1  0  0  0
  4 90  1  0  0  0
  5  6  1  0  0  0
  5 26  1  0  0  0
  5 91  1  0  0  0
  6 25  1  0  0  0
  6 92  1  0  0  0
  6 93  1  0  0  0
  7  8  2  0  0  0
  7 26  1  0  0  0
  7 29  1  0  0  0
  8  9  1  0  0  0
  8 22  1  0  0  0
  9 10  1  0  0  0
  9 27  2  0  0  0
 10 11  2  0  0  0
 10 15  1  0  0  0
 11 12  1  0  0  0
 11 94  1  0  0  0
 12 13  2  0  0  0
 12 95  1  0  0  0
 13 14  1  0  0  0
 13 31  1  0  0  0
 14 15  2  0  0  0
 14 96  1  0  0  0
 15 97  1  0  0  0
 16 17  2  0  0  0
 16 21  1  0  0  0
 16 31  1  0  0  0
 17 18  1  0  0  0
 17 98  1  0  0  0
 18 19  2  0  0  0
 18 99  1  0  0  0
 19 20  1  0  0  0
 19 24  1  0  0  0
 20 21  2  0  0  0
 20100  1  0  0  0
 21 23  1  0  0  0
 22 28  1  0  0  0
 22 32  2  0  0  0
 26 27  1  0  0  0
 28101  1  0  0  0
 28102  1  0  0  0
 29103  1  0  0  0
 29104  1  0  0  0
 33 34  1  0  0  0
 33 66  1  0  0  0
 33 70  2  0  0  0
 34 36  1  0  0  0
 34 59  1  0  0  0
 34105  1  0  0  0
 35 44  2  0  0  0
 35 45  1  0  0  0
 35 68  1  0  0  0
 36 56  1  0  0  0
 36106  1  0  0  0
 37 39  1  0  0  0
 37 47  1  0  0  0
 37 66  1  0  0  0
 37107  1  0  0  0
 38 43  2  0  0  0
 38 46  1  0  0  0
 38 47  1  0  0  0
 39 64  1  0  0  0
 39 67  2  0  0  0
 40 52  1  0  0  0
 40 53  2  0  0  0
 40 58  1  0  0  0
 41108  1  0  0  0
 41109  1  0  0  0
 41110  1  0  0  0
 41 48  1  0  0  0
 42 43  1  0  0  0
 42 66  1  0  0  0
 42111  1  0  0  0
 42112  1  0  0  0
 43 44  1  0  0  0
 44113  1  0  0  0
 45 46  2  0  0  0
 45114  1  0  0  0
 46115  1  0  0  0
 47116  1  0  0  0
 47117  1  0  0  0
 48 56  1  0  0  0
 48 65  1  0  0  0
 48118  1  0  0  0
 49 50  1  0  0  0
 49 53  1  0  0  0
 49 64  1  0  0  0
 49119  1  0  0  0
 50 51  1  0  0  0
 50120  1  0  0  0
 50121  1  0  0  0
 51 52  1  0  0  0
 51122  1  0  0  0
 51123  1  0  0  0
 52124  1  0  0  0
 52125  1  0  0  0
 53 54  1  0  0  0
 54 55  2  0  0  0
 54126  1  0  0  0
 55 57  1  0  0  0
 55127  1  0  0  0
 56 69  2  0  0  0
 57 58  2  0  0  0
 57128  1  0  0  0
 58129  1  0  0  0
 59 60  1  0  0  0
 59 61  1  0  0  0
 59 62  1  0  0  0
 60130  1  0  0  0
 60131  1  0  0  0
 60132  1  0  0  0
 61133  1  0  0  0
 61134  1  0  0  0
 61135  1  0  0  0
 62136  1  0  0  0
 62137  1  0  0  0
 62138  1  0  0  0
 63 65  1  0  0  0
 63139  1  0  0  0
 63140  1  0  0  0
 63141  1  0  0  0
 64142  1  0  0  0
 65143  1  0  0  0
 68 77  1  0  0  0
 71 72  2  0  0  0
 71 74  1  0  0  0
 71 84  1  0  0  0
 72 78  1  0  0  0
 72 79  1  0  0  0
 73 78  2  0  0  0
 73 80  1  0  0  0
 73 84  1  0  0  0
 74 81  1  0  0  0
 74 82  2  0  0  0
 75 77  1  0  0  0
 75 81  1  0  0  0
 75 83  2  0  0  0
 76144  1  0  0  0
 76145  1  0  0  0
 76146  1  0  0  0
 76 77  1  0  0  0
 77147  1  0  0  0
 79148  1  0  0  0
 79149  1  0  0  0
 80150  1  0  0  0
 81151  1  0  0  0
M  ISO  4   1 100  68 101  77 101  80 100
M  END
> <chiral flag>
0

> <version>
0

> <s_m_source_file>
/data/baiqing/PycharmProjects/Reinvent-master-3.2/result/LINK_invent/BTK/process_docking_weight1_custom_product_contain_oxygen_bond_distance_aromatic_linkinvent_7_9_3/rearranged_h_0183.sdf

> <i_m_source_file_index>
21

> <r_mmod_Potential_Energy-OPLS-2005>
0.92359185218811

> <r_mmod_Stretch_Energy-OPLS-2005>
122.040390014648

> <r_mmod_Bend_Energy-OPLS-2005>
191.870864868164

> <r_mmod_Torsional_Energy-OPLS-2005>
262.6708984375

> <r_mmod_Improper_Torsional_Energy-OPLS-2005>
9.37110996246338

> <r_mmod_Van_der_Waal_Energy-OPLS-2005>
114.513618469238

> <r_mmod_Electrostatic_Energy-OPLS-2005>
-488.959045410156

> <r_mmod_Solvation_Energy-OPLS-2005>
-300.169403076172

> <b_mmod_Minimization_Converged-OPLS-2005>
0

> <r_mmod_RMS_Derivative-OPLS-2005>
2.16533184051514

$$$$
21
                    3D
 Structure written by MMmdl.
152160  0  0  1  0            999 V2000
  -30.5838  -14.7527   20.4455 C   0  0  0  0  0  0
  -30.4392  -12.4580   19.4554 C   0  0  0  0  0  0
  -29.5096  -12.5177   18.2221 C   0  0  0  0  0  0
  -28.0272  -12.3679   18.6220 C   0  0  0  0  0  0
  -27.6412  -13.2327   19.8514 C   0  0  2  0  0  0
  -28.6951  -13.1371   20.9739 C   0  0  0  0  0  0
  -25.2484  -13.8169   20.5670 C   0  0  0  0  0  0
  -24.1803  -13.0424   20.9206 C   0  0  0  0  0  0
  -24.6402  -11.6897   20.8778 C   0  0  0  0  0  0
  -23.9073  -10.4273   21.0395 C   0  0  0  0  0  0
  -24.3647   -9.4191   21.9152 C   0  0  0  0  0  0
  -23.6311   -8.2219   22.0740 C   0  0  0  0  0  0
  -22.4280   -8.0274   21.3550 C   0  0  0  0  0  0
  -21.9894   -9.0247   20.4654 C   0  0  0  0  0  0
  -22.7236  -10.2127   20.3050 C   0  0  0  0  0  0
  -21.6847   -6.0735   22.5283 C   0  0  0  0  0  0
  -21.4028   -6.5635   23.8197 C   0  0  0  0  0  0
  -21.3679   -5.6777   24.9152 C   0  0  0  0  0  0
  -21.6027   -4.3037   24.7190 C   0  0  0  0  0  0
  -21.8823   -3.8144   23.4337 C   0  0  0  0  0  0
  -21.9211   -4.6957   22.3378 C   0  0  0  0  0  0
  -22.7800  -13.5196   21.1835 C   0  0  0  0  0  0
  -22.1652   -4.2148   21.0966 F   0  0  0  0  0  0
  -21.5650   -3.4527   25.7726 F   0  0  0  0  0  0
  -29.9889  -13.5110   20.3878 N   0  0  0  0  0  0
  -26.2945  -12.9403   20.3271 N   0  0  0  0  0  0
  -25.9348  -11.6553   20.5766 N   0  0  0  0  0  0
  -22.0461  -12.8262   22.0460 N   0  0  0  0  0  0
  -25.4123  -15.1887   20.4003 N   0  0  0  0  0  0
  -31.7939  -14.8728   20.2150 O   0  0  0  0  0  0
  -21.6648   -6.8864   21.4233 O   0  0  0  0  0  0
  -22.3488  -14.5468   20.6612 O   0  0  0  0  0  0
  -24.6362  -31.8503   23.1953 C   0  0  0  0  0  0
  -25.9172  -32.4709   23.8280 C   0  0  1  0  0  0
  -27.2323  -27.2404   20.1226 C   0  0  0  0  0  0
  -25.5939  -33.8500   24.2207 N   0  0  0  0  0  0
  -23.4310  -30.4783   21.5301 C   0  0  2  0  0  0
  -24.8803  -28.9091   20.1045 C   0  0  0  0  0  0
  -22.7510  -29.4628   22.4817 C   0  0  0  0  0  0
  -18.0287  -28.1426   22.8448 C   0  0  0  0  0  0
  -24.1443  -36.7341   23.2625 C   0  0  0  0  0  0
  -25.9771  -30.7579   21.3733 C   0  0  0  0  0  0
  -26.0536  -29.3766   20.7128 C   0  0  0  0  0  0
  -27.2301  -28.5564   20.7063 C   0  0  0  0  0  0
  -26.0404  -26.8517   19.4718 C   0  0  0  0  0  0
  -24.8826  -27.6559   19.4689 C   0  0  0  0  0  0
  -23.6548  -29.8037   20.1493 C   0  0  0  0  0  0
  -25.4079  -36.3070   24.0310 C   0  0  1  0  0  0
  -20.5878  -28.3751   23.1239 C   0  0  2  0  0  0
  -20.6736  -26.9450   22.5410 C   0  0  0  0  0  0
  -19.5729  -26.6388   21.5200 C   0  0  0  0  0  0
  -18.1920  -26.7939   22.1629 C   0  0  0  0  0  0
  -19.1537  -28.8915   23.2814 C   0  0  0  0  0  0
  -18.9463  -30.1506   23.8870 C   0  0  0  0  0  0
  -17.6466  -30.6601   24.0599 C   0  0  0  0  0  0
  -25.9060  -34.9436   23.5098 C   0  0  0  0  0  0
  -16.5356  -29.9130   23.6324 C   0  0  0  0  0  0
  -16.7275  -28.6553   23.0310 C   0  0  0  0  0  0
  -26.4470  -31.6570   25.0719 C   0  0  0  0  0  0
  -25.3674  -31.3803   26.1457 C   0  0  0  0  0  0
  -27.0271  -30.2924   24.6338 C   0  0  0  0  0  0
  -27.5949  -32.4363   25.7550 C   0  0  0  0  0  0
  -27.5603  -37.1804   24.8426 C   0  0  0  0  0  0
  -21.4214  -29.3090   22.3609 N   0  0  0  0  0  0
  -26.4241  -37.3818   23.9468 N   0  0  0  0  0  0
  -24.6997  -31.0469   22.0911 N   0  0  0  0  0  0
  -23.4213  -28.8221   23.2942 O   0  0  0  0  0  0
  -28.3247  -26.3361   20.1518 O   0  0  0  0  0  0
  -26.5664  -34.8941   22.4673 O   0  0  0  0  0  0
  -23.5531  -32.1306   23.7307 O   0  0  0  0  0  0
  -29.9675  -19.5513   21.7641 C   0  0  0  0  0  0
  -29.5579  -19.6516   20.4586 C   0  0  0  0  0  0
  -29.9315  -17.2877   20.6869 C   0  0  0  0  0  0
  -29.0325  -20.8990   18.3575 C   0  0  0  0  0  0
  -28.6503  -22.1474   20.5119 C   0  0  0  0  0  0
  -28.1118  -24.9005   20.5855 C   0  0  0  0  0  0
  -29.0633  -23.6687   20.0938 C   0  0  1  0  0  0
  -29.5257  -18.3249   19.8756 N   0  0  0  0  0  0
  -29.7365  -15.8481   20.4275 N   0  0  0  0  0  0
  -29.2361  -20.9315   19.8070 N   0  0  0  0  0  0
  -30.3365  -23.8655   20.6912 O   0  0  0  0  0  0
  -30.3687  -17.9091   22.2742 S   0  0  0  0  0  0
  -31.4764  -12.6110   19.1528 H   0  0  0  0  0  0
  -30.3955  -11.4755   19.9324 H   0  0  0  0  0  0
  -29.7821  -11.7406   17.5064 H   0  0  0  0  0  0
  -29.6522  -13.4682   17.7040 H   0  0  0  0  0  0
  -27.8350  -11.3154   18.8279 H   0  0  0  0  0  0
  -27.3915  -12.6341   17.7765 H   0  0  0  0  0  0
  -27.6330  -14.2613   19.4999 H   0  0  0  0  0  0
  -28.7387  -12.1171   21.3595 H   0  0  0  0  0  0
  -28.4421  -13.7780   21.8196 H   0  0  0  0  0  0
  -25.2804   -9.5671   22.4709 H   0  0  0  0  0  0
  -24.0050   -7.4600   22.7445 H   0  0  0  0  0  0
  -21.0820   -8.8737   19.8994 H   0  0  0  0  0  0
  -22.3633  -10.9664   19.6184 H   0  0  0  0  0  0
  -21.2004   -7.6137   23.9703 H   0  0  0  0  0  0
  -21.1503   -6.0499   25.9044 H   0  0  0  0  0  0
  -22.0603   -2.7614   23.2808 H   0  0  0  0  0  0
  -22.4120  -11.9999   22.4958 H   0  0  0  0  0  0
  -21.1067  -13.1302   22.2603 H   0  0  0  0  0  0
  -24.6324  -15.8300   20.4801 H   0  0  0  0  0  0
  -26.2274  -15.6227   19.9890 H   0  0  0  0  0  0
  -26.7246  -32.5322   23.1024 H   0  0  0  0  0  0
  -24.9843  -33.9531   25.0194 H   0  0  0  0  0  0
  -22.7292  -31.3015   21.3769 H   0  0  0  0  0  0
  -23.3705  -35.9657   23.3139 H   0  0  0  0  0  0
  -24.3549  -36.9157   22.2073 H   0  0  0  0  0  0
  -23.7159  -37.6493   23.6735 H   0  0  0  0  0  0
  -26.1043  -31.5235   20.6076 H   0  0  0  0  0  0
  -26.8573  -30.8109   22.0026 H   0  0  0  0  0  0
  -28.1233  -28.9161   21.1993 H   0  0  0  0  0  0
  -25.9883  -25.8970   18.9695 H   0  0  0  0  0  0
  -23.9898  -27.2935   18.9792 H   0  0  0  0  0  0
  -23.7907  -30.5743   19.3876 H   0  0  0  0  0  0
  -22.7674  -29.2471   19.8462 H   0  0  0  0  0  0
  -25.1222  -36.1850   25.0791 H   0  0  0  0  0  0
  -20.9907  -28.3272   24.1378 H   0  0  0  0  0  0
  -20.5548  -26.2362   23.3608 H   0  0  0  0  0  0
  -21.6620  -26.7413   22.1285 H   0  0  0  0  0  0
  -19.6870  -25.6276   21.1283 H   0  0  0  0  0  0
  -19.6689  -27.3131   20.6671 H   0  0  0  0  0  0
  -17.4168  -26.6669   21.4036 H   0  0  0  0  0  0
  -18.0372  -26.0097   22.9075 H   0  0  0  0  0  0
  -19.7954  -30.7325   24.2190 H   0  0  0  0  0  0
  -17.5052  -31.6266   24.5239 H   0  0  0  0  0  0
  -15.5375  -30.3076   23.7646 H   0  0  0  0  0  0
  -15.8660  -28.0937   22.6981 H   0  0  0  0  0  0
  -24.5713  -30.7291   25.7833 H   0  0  0  0  0  0
  -24.9040  -32.3024   26.4983 H   0  0  0  0  0  0
  -25.7986  -30.8887   27.0190 H   0  0  0  0  0  0
  -26.2885  -29.6720   24.1245 H   0  0  0  0  0  0
  -27.3649  -29.7194   25.4996 H   0  0  0  0  0  0
  -27.8901  -30.4077   23.9771 H   0  0  0  0  0  0
  -27.2384  -33.3577   26.2202 H   0  0  0  0  0  0
  -28.3749  -32.7120   25.0421 H   0  0  0  0  0  0
  -28.0609  -31.8467   26.5477 H   0  0  0  0  0  0
  -28.2495  -38.0232   24.7656 H   0  0  0  0  0  0
  -28.1239  -36.2797   24.5940 H   0  0  0  0  0  0
  -27.2399  -37.1100   25.8842 H   0  0  0  0  0  0
  -20.9368  -29.8905   21.6923 H   0  0  0  0  0  0
  -26.0092  -38.2858   24.1583 H   0  0  0  0  0  0
  -30.0820  -20.3688   22.4613 H   0  0  0  0  0  0
  -28.6926  -19.9231   18.0049 H   0  0  0  0  0  0
  -29.9590  -21.1436   17.8320 H   0  0  0  0  0  0
  -28.2900  -21.6335   18.0406 H   0  0  0  0  0  0
  -27.5685  -22.0730   20.3783 H   0  0  0  0  0  0
  -28.8008  -22.0178   21.5847 H   0  0  0  0  0  0
  -28.1213  -24.8975   21.6792 H   0  0  0  0  0  0
  -27.0925  -24.6032   20.3421 H   0  0  0  0  0  0
  -29.1814  -23.7419   19.0104 H   0  0  0  0  0  0
  -28.7682  -15.5771   20.4027 H   0  0  0  0  0  0
  -30.9346  -23.2255   20.3146 H   0  0  0  0  0  0
  1 25  1  0  0  0
  1 30  2  0  0  0
  1 79  1  0  0  0
  2  3  1  0  0  0
  2 25  1  0  0  0
  2 83  1  0  0  0
  2 84  1  0  0  0
  3  4  1  0  0  0
  3 85  1  0  0  0
  3 86  1  0  0  0
  4  5  1  0  0  0
  4 87  1  0  0  0
  4 88  1  0  0  0
  5  6  1  0  0  0
  5 26  1  0  0  0
  5 89  1  0  0  0
  6 25  1  0  0  0
  6 90  1  0  0  0
  6 91  1  0  0  0
  7  8  2  0  0  0
  7 26  1  0  0  0
  7 29  1  0  0  0
  8  9  1  0  0  0
  8 22  1  0  0  0
  9 10  1  0  0  0
  9 27  2  0  0  0
 10 11  2  0  0  0
 10 15  1  0  0  0
 11 12  1  0  0  0
 11 92  1  0  0  0
 12 13  2  0  0  0
 12 93  1  0  0  0
 13 14  1  0  0  0
 13 31  1  0  0  0
 14 15  2  0  0  0
 14 94  1  0  0  0
 15 95  1  0  0  0
 16 17  2  0  0  0
 16 21  1  0  0  0
 16 31  1  0  0  0
 17 18  1  0  0  0
 17 96  1  0  0  0
 18 19  2  0  0  0
 18 97  1  0  0  0
 19 20  1  0  0  0
 19 24  1  0  0  0
 20 21  2  0  0  0
 20 98  1  0  0  0
 21 23  1  0  0  0
 22 28  1  0  0  0
 22 32  2  0  0  0
 26 27  1  0  0  0
 28 99  1  0  0  0
 28100  1  0  0  0
 29101  1  0  0  0
 29102  1  0  0  0
 33 34  1  0  0  0
 33 66  1  0  0  0
 33 70  2  0  0  0
 34 36  1  0  0  0
 34 59  1  0  0  0
 34103  1  0  0  0
 35 44  2  0  0  0
 35 45  1  0  0  0
 35 68  1  0  0  0
 36 56  1  0  0  0
 36104  1  0  0  0
 37 39  1  0  0  0
 37 47  1  0  0  0
 37 66  1  0  0  0
 37105  1  0  0  0
 38 43  2  0  0  0
 38 46  1  0  0  0
 38 47  1  0  0  0
 39 64  1  0  0  0
 39 67  2  0  0  0
 40 52  1  0  0  0
 40 53  2  0  0  0
 40 58  1  0  0  0
 41106  1  0  0  0
 41107  1  0  0  0
 41108  1  0  0  0
 41 48  1  0  0  0
 42 43  1  0  0  0
 42 66  1  0  0  0
 42109  1  0  0  0
 42110  1  0  0  0
 43 44  1  0  0  0
 44111  1  0  0  0
 45 46  2  0  0  0
 45112  1  0  0  0
 46113  1  0  0  0
 47114  1  0  0  0
 47115  1  0  0  0
 48 56  1  0  0  0
 48 65  1  0  0  0
 48116  1  0  0  0
 49 50  1  0  0  0
 49 53  1  0  0  0
 49 64  1  0  0  0
 49117  1  0  0  0
 50 51  1  0  0  0
 50118  1  0  0  0
 50119  1  0  0  0
 51 52  1  0  0  0
 51120  1  0  0  0
 51121  1  0  0  0
 52122  1  0  0  0
 52123  1  0  0  0
 53 54  1  0  0  0
 54 55  2  0  0  0
 54124  1  0  0  0
 55 57  1  0  0  0
 55125  1  0  0  0
 56 69  2  0  0  0
 57 58  2  0  0  0
 57126  1  0  0  0
 58127  1  0  0  0
 59 60  1  0  0  0
 59 61  1  0  0  0
 59 62  1  0  0  0
 60128  1  0  0  0
 60129  1  0  0  0
 60130  1  0  0  0
 61131  1  0  0  0
 61132  1  0  0  0
 61133  1  0  0  0
 62134  1  0  0  0
 62135  1  0  0  0
 62136  1  0  0  0
 63 65  1  0  0  0
 63137  1  0  0  0
 63138  1  0  0  0
 63139  1  0  0  0
 64140  1  0  0  0
 65141  1  0  0  0
 68 76  1  0  0  0
 71 72  2  0  0  0
 71 82  1  0  0  0
 71142  1  0  0  0
 72 78  1  0  0  0
 72 80  1  0  0  0
 73 78  2  0  0  0
 73 79  1  0  0  0
 73 82  1  0  0  0
 74 80  1  0  0  0
 74143  1  0  0  0
 74144  1  0  0  0
 74145  1  0  0  0
 75 77  1  0  0  0
 75 80  1  0  0  0
 75146  1  0  0  0
 75147  1  0  0  0
 76 77  1  0  0  0
 76148  1  0  0  0
 76149  1  0  0  0
 77 81  1  0  0  0
 77150  1  0  0  0
 79151  1  0  0  0
 81152  1  0  0  0
M  ISO  4   1 100  68 101  76 101  79 100
M  END
> <chiral flag>
0

> <version>
0

> <s_m_source_file>
/data/baiqing/PycharmProjects/Reinvent-master-3.2/result/LINK_invent/BTK/process_docking_weight1_custom_product_contain_oxygen_bond_distance_aromatic_linkinvent_7_9_3/rearranged_h_0183.sdf

> <i_m_source_file_index>
22

> <r_mmod_Potential_Energy-OPLS-2005>
66.033935546875

> <r_mmod_Stretch_Energy-OPLS-2005>
124.404167175293

> <r_mmod_Bend_Energy-OPLS-2005>
165.828079223633

> <r_mmod_Torsional_Energy-OPLS-2005>
277.262145996094

> <r_mmod_Improper_Torsional_Energy-OPLS-2005>
12.4631357192993

> <r_mmod_Van_der_Waal_Energy-OPLS-2005>
114.240951538086

> <r_mmod_Electrostatic_Energy-OPLS-2005>
-466.590423583984

> <r_mmod_Solvation_Energy-OPLS-2005>
-255.00244140625

> <b_mmod_Minimization_Converged-OPLS-2005>
0

> <r_mmod_RMS_Derivative-OPLS-2005>
6.41741943359375

$$$$
22
                    3D
 Structure written by MMmdl.
150158  0  0  1  0            999 V2000
  -30.6269  -14.6963   20.4710 C   0  0  0  0  0  0
  -30.4314  -12.4237   19.4620 C   0  0  0  0  0  0
  -29.5073  -12.5013   18.2279 C   0  0  0  0  0  0
  -28.0325  -12.3315   18.6425 C   0  0  0  0  0  0
  -27.6437  -13.2240   19.8517 C   0  0  2  0  0  0
  -28.6901  -13.1364   20.9846 C   0  0  0  0  0  0
  -25.2525  -13.8185   20.5692 C   0  0  0  0  0  0
  -24.1811  -13.0438   20.9215 C   0  0  0  0  0  0
  -24.6388  -11.6913   20.8741 C   0  0  0  0  0  0
  -23.9062  -10.4291   21.0402 C   0  0  0  0  0  0
  -24.3617   -9.4205   21.9182 C   0  0  0  0  0  0
  -23.6292   -8.2238   22.0753 C   0  0  0  0  0  0
  -22.4272   -8.0274   21.3543 C   0  0  0  0  0  0
  -21.9906   -9.0248   20.4645 C   0  0  0  0  0  0
  -22.7232  -10.2127   20.3054 C   0  0  0  0  0  0
  -21.6851   -6.0732   22.5275 C   0  0  0  0  0  0
  -21.4016   -6.5637   23.8209 C   0  0  0  0  0  0
  -21.3661   -5.6791   24.9173 C   0  0  0  0  0  0
  -21.6047   -4.3056   24.7225 C   0  0  0  0  0  0
  -21.8818   -3.8143   23.4345 C   0  0  0  0  0  0
  -21.9196   -4.6959   22.3401 C   0  0  0  0  0  0
  -22.7831  -13.5225   21.1869 C   0  0  0  0  0  0
  -22.1662   -4.2145   21.0978 F   0  0  0  0  0  0
  -21.5632   -3.4538   25.7737 F   0  0  0  0  0  0
  -29.9947  -13.4773   20.4033 N   0  0  0  0  0  0
  -26.2943  -12.9373   20.3283 N   0  0  0  0  0  0
  -25.9317  -11.6525   20.5750 N   0  0  0  0  0  0
  -22.0477  -12.8215   22.0423 N   0  0  0  0  0  0
  -25.4216  -15.1909   20.4092 N   0  0  0  0  0  0
  -31.8184  -14.7860   20.1604 O   0  0  0  0  0  0
  -21.6639   -6.8867   21.4235 O   0  0  0  0  0  0
  -22.3517  -14.5530   20.6711 O   0  0  0  0  0  0
  -24.6296  -31.8571   23.2008 C   0  0  0  0  0  0
  -25.9129  -32.4766   23.8346 C   0  0  1  0  0  0
  -27.2237  -27.2922   20.1171 C   0  0  0  0  0  0
  -25.5947  -33.8571   24.2282 N   0  0  0  0  0  0
  -23.4252  -30.4813   21.5433 C   0  0  2  0  0  0
  -24.8715  -28.9330   20.1103 C   0  0  0  0  0  0
  -22.7491  -29.4613   22.4921 C   0  0  0  0  0  0
  -18.0294  -28.1371   22.8490 C   0  0  0  0  0  0
  -24.1496  -36.7283   23.2641 C   0  0  0  0  0  0
  -25.9696  -30.7792   21.3768 C   0  0  0  0  0  0
  -26.0425  -29.4055   20.7162 C   0  0  0  0  0  0
  -27.2218  -28.5978   20.7076 C   0  0  0  0  0  0
  -26.0274  -26.8822   19.4827 C   0  0  0  0  0  0
  -24.8673  -27.6791   19.4835 C   0  0  0  0  0  0
  -23.6407  -29.8151   20.1596 C   0  0  0  0  0  0
  -25.4123  -36.3079   24.0333 C   0  0  1  0  0  0
  -20.5893  -28.3683   23.1272 C   0  0  2  0  0  0
  -20.6782  -26.9404   22.5404 C   0  0  0  0  0  0
  -19.5754  -26.6374   21.5213 C   0  0  0  0  0  0
  -18.1938  -26.7916   22.1627 C   0  0  0  0  0  0
  -19.1546  -28.8847   23.2874 C   0  0  0  0  0  0
  -18.9467  -30.1453   23.8885 C   0  0  0  0  0  0
  -17.6463  -30.6576   24.0563 C   0  0  0  0  0  0
  -25.9058  -34.9444   23.5106 C   0  0  0  0  0  0
  -16.5355  -29.9070   23.6331 C   0  0  0  0  0  0
  -16.7282  -28.6486   23.0358 C   0  0  0  0  0  0
  -26.4508  -31.6580   25.0725 C   0  0  0  0  0  0
  -25.3737  -31.3708   26.1448 C   0  0  0  0  0  0
  -27.0359  -30.3006   24.6191 C   0  0  0  0  0  0
  -27.6071  -32.4314   25.7490 C   0  0  0  0  0  0
  -27.5577  -37.1810   24.8478 C   0  0  0  0  0  0
  -21.4200  -29.3041   22.3666 N   0  0  0  0  0  0
  -26.4307  -37.3769   23.9397 N   0  0  0  0  0  0
  -24.6938  -31.0559   22.0972 N   0  0  0  0  0  0
  -23.4203  -28.8148   23.3006 O   0  0  0  0  0  0
  -28.3309  -26.4195   20.1737 O   0  0  0  0  0  0
  -26.5614  -34.8913   22.4667 O   0  0  0  0  0  0
  -23.5449  -32.1377   23.7322 O   0  0  0  0  0  0
  -30.3733  -19.8370   20.6983 C   0  0  0  0  0  0
  -31.5081  -19.0993   21.0303 C   0  0  0  0  0  0
  -30.1639  -17.2501   20.6696 C   0  0  0  0  0  0
  -30.2604  -21.3720   20.6278 C   0  0  0  0  0  0
  -28.0962  -24.9473   20.0336 C   0  0  0  0  0  0
  -29.2267  -23.8895   20.4492 C   0  0  2  0  0  0
  -29.0114  -22.2864   20.2599 C   0  0  0  0  0  0
  -31.3780  -17.6973   21.0035 N   0  0  0  0  0  0
  -32.7659  -19.5874   21.3932 N   0  0  0  0  0  0
  -29.8323  -15.8146   20.6425 N   0  0  0  0  0  0
  -31.2972  -22.0085   20.8525 O   0  0  0  0  0  0
  -29.5273  -24.1283   21.7296 F   0  0  0  0  0  0
  -28.7100  -22.0753   18.9779 F   0  0  0  0  0  0
  -27.9601  -21.9129   20.9918 F   0  0  0  0  0  0
  -29.0641  -18.6637   20.3672 S   0  0  0  0  0  0
  -31.4734  -12.5404   19.1600 H   0  0  0  0  0  0
  -30.3656  -11.4412   19.9329 H   0  0  0  0  0  0
  -29.7814  -11.7351   17.5018 H   0  0  0  0  0  0
  -29.6403  -13.4609   17.7269 H   0  0  0  0  0  0
  -27.8838  -11.2814   18.8977 H   0  0  0  0  0  0
  -27.3738  -12.5331   17.7970 H   0  0  0  0  0  0
  -27.6434  -14.2476   19.4794 H   0  0  0  0  0  0
  -28.7155  -12.1329   21.4130 H   0  0  0  0  0  0
  -28.4341  -13.8102   21.8032 H   0  0  0  0  0  0
  -25.2759   -9.5688   22.4756 H   0  0  0  0  0  0
  -24.0004   -7.4633   22.7468 H   0  0  0  0  0  0
  -21.0838   -8.8761   19.8950 H   0  0  0  0  0  0
  -22.3684  -10.9666   19.6164 H   0  0  0  0  0  0
  -21.2004   -7.6143   23.9711 H   0  0  0  0  0  0
  -21.1488   -6.0521   25.9077 H   0  0  0  0  0  0
  -22.0598   -2.7603   23.2845 H   0  0  0  0  0  0
  -22.4090  -11.9876   22.4817 H   0  0  0  0  0  0
  -21.1093  -13.1232   22.2628 H   0  0  0  0  0  0
  -24.6485  -15.8388   20.5132 H   0  0  0  0  0  0
  -26.2548  -15.6303   20.0421 H   0  0  0  0  0  0
  -26.7202  -32.5419   23.1092 H   0  0  0  0  0  0
  -25.0142  -33.9721   25.0463 H   0  0  0  0  0  0
  -22.7210  -31.3030   21.3978 H   0  0  0  0  0  0
  -23.3750  -35.9627   23.3348 H   0  0  0  0  0  0
  -24.3565  -36.8848   22.2043 H   0  0  0  0  0  0
  -23.7268  -37.6508   23.6628 H   0  0  0  0  0  0
  -26.1078  -31.5433   20.6104 H   0  0  0  0  0  0
  -26.8483  -30.8238   22.0092 H   0  0  0  0  0  0
  -28.1205  -28.9543   21.1918 H   0  0  0  0  0  0
  -25.9557  -25.9253   18.9882 H   0  0  0  0  0  0
  -23.9699  -27.3146   19.0032 H   0  0  0  0  0  0
  -23.7600  -30.5897   19.4014 H   0  0  0  0  0  0
  -22.7610  -29.2438   19.8578 H   0  0  0  0  0  0
  -25.1309  -36.1940   25.0828 H   0  0  0  0  0  0
  -21.0001  -28.3258   24.1385 H   0  0  0  0  0  0
  -20.5685  -26.2292   23.3604 H   0  0  0  0  0  0
  -21.6648  -26.7426   22.1195 H   0  0  0  0  0  0
  -19.6914  -25.6286   21.1240 H   0  0  0  0  0  0
  -19.6688  -27.3187   20.6746 H   0  0  0  0  0  0
  -17.4210  -26.6679   21.4029 H   0  0  0  0  0  0
  -18.0331  -26.0046   22.9009 H   0  0  0  0  0  0
  -19.7941  -30.7283   24.2239 H   0  0  0  0  0  0
  -17.5011  -31.6251   24.5164 H   0  0  0  0  0  0
  -15.5353  -30.2967   23.7649 H   0  0  0  0  0  0
  -15.8683  -28.0797   22.7076 H   0  0  0  0  0  0
  -24.5937  -30.7032   25.7772 H   0  0  0  0  0  0
  -24.8903  -32.2863   26.4863 H   0  0  0  0  0  0
  -25.8065  -30.8897   27.0227 H   0  0  0  0  0  0
  -26.2939  -29.6747   24.1225 H   0  0  0  0  0  0
  -27.4065  -29.7271   25.4694 H   0  0  0  0  0  0
  -27.8802  -30.4291   23.9418 H   0  0  0  0  0  0
  -27.2696  -33.3622   26.2057 H   0  0  0  0  0  0
  -28.3882  -32.6857   25.0316 H   0  0  0  0  0  0
  -28.0741  -31.8443   26.5405 H   0  0  0  0  0  0
  -28.2639  -38.0063   24.7461 H   0  0  0  0  0  0
  -28.1025  -36.2591   24.6391 H   0  0  0  0  0  0
  -27.2271  -37.1566   25.8875 H   0  0  0  0  0  0
  -20.9380  -29.8754   21.6867 H   0  0  0  0  0  0
  -26.0190  -38.2855   24.1343 H   0  0  0  0  0  0
  -27.2016  -24.6916   20.6026 H   0  0  0  0  0  0
  -27.8600  -24.7588   18.9859 H   0  0  0  0  0  0
  -30.1256  -24.1605   19.8961 H   0  0  0  0  0  0
  -32.9550  -20.5860   21.3907 H   0  0  0  0  0  0
  -33.5626  -18.9794   21.5492 H   0  0  0  0  0  0
  -28.8491  -15.6111   20.7180 H   0  0  0  0  0  0
  1 25  1  0  0  0
  1 30  2  0  0  0
  1 80  1  0  0  0
  2  3  1  0  0  0
  2 25  1  0  0  0
  2 86  1  0  0  0
  2 87  1  0  0  0
  3  4  1  0  0  0
  3 88  1  0  0  0
  3 89  1  0  0  0
  4  5  1  0  0  0
  4 90  1  0  0  0
  4 91  1  0  0  0
  5  6  1  0  0  0
  5 26  1  0  0  0
  5 92  1  0  0  0
  6 25  1  0  0  0
  6 93  1  0  0  0
  6 94  1  0  0  0
  7  8  2  0  0  0
  7 26  1  0  0  0
  7 29  1  0  0  0
  8  9  1  0  0  0
  8 22  1  0  0  0
  9 10  1  0  0  0
  9 27  2  0  0  0
 10 11  2  0  0  0
 10 15  1  0  0  0
 11 12  1  0  0  0
 11 95  1  0  0  0
 12 13  2  0  0  0
 12 96  1  0  0  0
 13 14  1  0  0  0
 13 31  1  0  0  0
 14 15  2  0  0  0
 14 97  1  0  0  0
 15 98  1  0  0  0
 16 17  2  0  0  0
 16 21  1  0  0  0
 16 31  1  0  0  0
 17 18  1  0  0  0
 17 99  1  0  0  0
 18 19  2  0  0  0
 18100  1  0  0  0
 19 20  1  0  0  0
 19 24  1  0  0  0
 20 21  2  0  0  0
 20101  1  0  0  0
 21 23  1  0  0  0
 22 28  1  0  0  0
 22 32  2  0  0  0
 26 27  1  0  0  0
 28102  1  0  0  0
 28103  1  0  0  0
 29104  1  0  0  0
 29105  1  0  0  0
 33 34  1  0  0  0
 33 66  1  0  0  0
 33 70  2  0  0  0
 34 36  1  0  0  0
 34 59  1  0  0  0
 34106  1  0  0  0
 35 44  2  0  0  0
 35 45  1  0  0  0
 35 68  1  0  0  0
 36 56  1  0  0  0
 36107  1  0  0  0
 37 39  1  0  0  0
 37 47  1  0  0  0
 37 66  1  0  0  0
 37108  1  0  0  0
 38 43  2  0  0  0
 38 46  1  0  0  0
 38 47  1  0  0  0
 39 64  1  0  0  0
 39 67  2  0  0  0
 40 52  1  0  0  0
 40 53  2  0  0  0
 40 58  1  0  0  0
 41109  1  0  0  0
 41110  1  0  0  0
 41111  1  0  0  0
 41 48  1  0  0  0
 42 43  1  0  0  0
 42 66  1  0  0  0
 42112  1  0  0  0
 42113  1  0  0  0
 43 44  1  0  0  0
 44114  1  0  0  0
 45 46  2  0  0  0
 45115  1  0  0  0
 46116  1  0  0  0
 47117  1  0  0  0
 47118  1  0  0  0
 48 56  1  0  0  0
 48 65  1  0  0  0
 48119  1  0  0  0
 49 50  1  0  0  0
 49 53  1  0  0  0
 49 64  1  0  0  0
 49120  1  0  0  0
 50 51  1  0  0  0
 50121  1  0  0  0
 50122  1  0  0  0
 51 52  1  0  0  0
 51123  1  0  0  0
 51124  1  0  0  0
 52125  1  0  0  0
 52126  1  0  0  0
 53 54  1  0  0  0
 54 55  2  0  0  0
 54127  1  0  0  0
 55 57  1  0  0  0
 55128  1  0  0  0
 56 69  2  0  0  0
 57 58  2  0  0  0
 57129  1  0  0  0
 58130  1  0  0  0
 59 60  1  0  0  0
 59 61  1  0  0  0
 59 62  1  0  0  0
 60131  1  0  0  0
 60132  1  0  0  0
 60133  1  0  0  0
 61134  1  0  0  0
 61135  1  0  0  0
 61136  1  0  0  0
 62137  1  0  0  0
 62138  1  0  0  0
 62139  1  0  0  0
 63 65  1  0  0  0
 63140  1  0  0  0
 63141  1  0  0  0
 63142  1  0  0  0
 64143  1  0  0  0
 65144  1  0  0  0
 68 75  1  0  0  0
 71 72  2  0  0  0
 71 74  1  0  0  0
 71 85  1  0  0  0
 72 78  1  0  0  0
 72 79  1  0  0  0
 73 78  2  0  0  0
 73 80  1  0  0  0
 73 85  1  0  0  0
 74 77  1  0  0  0
 74 81  2  0  0  0
 75 76  1  0  0  0
 75145  1  0  0  0
 75146  1  0  0  0
 76 77  1  0  0  0
 76 82  1  0  0  0
 76147  1  0  0  0
 77 83  1  0  0  0
 77 84  1  0  0  0
 79148  1  0  0  0
 79149  1  0  0  0
 80150  1  0  0  0
M  ISO  4   1 100  68 101  75 101  80 100
M  END
> <chiral flag>
0

> <version>
0

> <s_m_source_file>
/data/baiqing/PycharmProjects/Reinvent-master-3.2/result/LINK_invent/BTK/process_docking_weight1_custom_product_contain_oxygen_bond_distance_aromatic_linkinvent_7_9_3/rearranged_h_0183.sdf

> <i_m_source_file_index>
23

> <r_mmod_Potential_Energy-OPLS-2005>
55.3594779968262

> <r_mmod_Stretch_Energy-OPLS-2005>
104.401924133301

> <r_mmod_Bend_Energy-OPLS-2005>
173.22883605957

> <r_mmod_Torsional_Energy-OPLS-2005>
199.125717163086

> <r_mmod_Improper_Torsional_Energy-OPLS-2005>
6.28549957275391

> <r_mmod_Van_der_Waal_Energy-OPLS-2005>
127.643814086914

> <r_mmod_Electrostatic_Energy-OPLS-2005>
-384.234649658203

> <r_mmod_Solvation_Energy-OPLS-2005>
-237.816284179688

> <b_mmod_Minimization_Converged-OPLS-2005>
0

> <r_mmod_RMS_Derivative-OPLS-2005>
1.37189114093781

$$$$
23
                    3D
 Structure written by MMmdl.
161169  0  0  1  0            999 V2000
  -30.6728  -14.5622   20.5271 C   0  0  0  0  0  0
  -30.4288  -12.3474   19.4509 C   0  0  0  0  0  0
  -29.5089  -12.5141   18.2227 C   0  0  0  0  0  0
  -28.0268  -12.3739   18.6257 C   0  0  0  0  0  0
  -27.6610  -13.2208   19.8742 C   0  0  2  0  0  0
  -28.7038  -13.0434   21.0019 C   0  0  0  0  0  0
  -25.2580  -13.8194   20.5689 C   0  0  0  0  0  0
  -24.1849  -13.0451   20.9185 C   0  0  0  0  0  0
  -24.6425  -11.6925   20.8738 C   0  0  0  0  0  0
  -23.9095  -10.4300   21.0390 C   0  0  0  0  0  0
  -24.3643   -9.4215   21.9173 C   0  0  0  0  0  0
  -23.6312   -8.2254   22.0746 C   0  0  0  0  0  0
  -22.4293   -8.0289   21.3540 C   0  0  0  0  0  0
  -21.9929   -9.0263   20.4642 C   0  0  0  0  0  0
  -22.7261  -10.2141   20.3046 C   0  0  0  0  0  0
  -21.6858   -6.0743   22.5270 C   0  0  0  0  0  0
  -21.4016   -6.5640   23.8206 C   0  0  0  0  0  0
  -21.3663   -5.6787   24.9168 C   0  0  0  0  0  0
  -21.6042   -4.3052   24.7213 C   0  0  0  0  0  0
  -21.8819   -3.8150   23.4334 C   0  0  0  0  0  0
  -21.9193   -4.6971   22.3394 C   0  0  0  0  0  0
  -22.7859  -13.5231   21.1823 C   0  0  0  0  0  0
  -22.1655   -4.2154   21.0969 F   0  0  0  0  0  0
  -21.5637   -3.4539   25.7724 F   0  0  0  0  0  0
  -30.0301  -13.3582   20.4494 N   0  0  0  0  0  0
  -26.3035  -12.9394   20.3367 N   0  0  0  0  0  0
  -25.9363  -11.6541   20.5776 N   0  0  0  0  0  0
  -22.0496  -12.8239   22.0388 N   0  0  0  0  0  0
  -25.4289  -15.1913   20.4089 N   0  0  0  0  0  0
  -31.8040  -14.7266   20.0618 O   0  0  0  0  0  0
  -21.6643   -6.8893   21.4235 O   0  0  0  0  0  0
  -22.3542  -14.5525   20.6651 O   0  0  0  0  0  0
  -24.6195  -31.8653   23.2064 C   0  0  0  0  0  0
  -25.9067  -32.4813   23.8382 C   0  0  1  0  0  0
  -27.2374  -27.3760   20.1083 C   0  0  0  0  0  0
  -25.5917  -33.8613   24.2310 N   0  0  0  0  0  0
  -23.4110  -30.4863   21.5475 C   0  0  2  0  0  0
  -24.8602  -28.9470   20.1135 C   0  0  0  0  0  0
  -22.7442  -29.4640   22.4967 C   0  0  0  0  0  0
  -18.0277  -28.1381   22.8486 C   0  0  0  0  0  0
  -24.1488  -36.7300   23.2633 C   0  0  0  0  0  0
  -25.9459  -30.8119   21.3697 C   0  0  0  0  0  0
  -26.0223  -29.4412   20.7169 C   0  0  0  0  0  0
  -27.2112  -28.6642   20.7090 C   0  0  0  0  0  0
  -26.0543  -26.9210   19.4791 C   0  0  0  0  0  0
  -24.8746  -27.6895   19.4900 C   0  0  0  0  0  0
  -23.6240  -29.8195   20.1625 C   0  0  0  0  0  0
  -25.4114  -36.3101   24.0327 C   0  0  1  0  0  0
  -20.5872  -28.3672   23.1307 C   0  0  2  0  0  0
  -20.6771  -26.9403   22.5417 C   0  0  0  0  0  0
  -19.5751  -26.6383   21.5220 C   0  0  0  0  0  0
  -18.1925  -26.7926   22.1621 C   0  0  0  0  0  0
  -19.1526  -28.8845   23.2893 C   0  0  0  0  0  0
  -18.9455  -30.1445   23.8905 C   0  0  0  0  0  0
  -17.6454  -30.6586   24.0553 C   0  0  0  0  0  0
  -25.9048  -34.9465   23.5116 C   0  0  0  0  0  0
  -16.5343  -29.9079   23.6326 C   0  0  0  0  0  0
  -16.7266  -28.6499   23.0348 C   0  0  0  0  0  0
  -26.4483  -31.6595   25.0721 C   0  0  0  0  0  0
  -25.3731  -31.3708   26.1460 C   0  0  0  0  0  0
  -27.0324  -30.3030   24.6124 C   0  0  0  0  0  0
  -27.6057  -32.4315   25.7493 C   0  0  0  0  0  0
  -27.5580  -37.1805   24.8460 C   0  0  0  0  0  0
  -21.4160  -29.3034   22.3711 N   0  0  0  0  0  0
  -26.4298  -37.3789   23.9400 N   0  0  0  0  0  0
  -24.6770  -31.0710   22.0988 N   0  0  0  0  0  0
  -23.4193  -28.8195   23.3031 O   0  0  0  0  0  0
  -28.3935  -26.5987   20.1647 O   0  0  0  0  0  0
  -26.5608  -34.8913   22.4673 O   0  0  0  0  0  0
  -23.5372  -32.1435   23.7430 O   0  0  0  0  0  0
  -30.0229  -19.2030   20.1912 C   0  0  0  0  0  0
  -29.2993  -18.8771   19.0585 C   0  0  0  0  0  0
  -29.8508  -16.8927   20.4368 C   0  0  0  0  0  0
  -29.5992  -22.8415   19.9921 C   0  0  0  0  0  0
  -31.7043  -20.5081   21.6210 C   0  0  0  0  0  0
  -30.7701  -24.9861   20.5218 C   0  0  0  0  0  0
  -29.0114  -24.1803   22.1173 C   0  0  0  0  0  0
  -28.3262  -25.1641   19.8787 C   0  0  0  0  0  0
  -30.6441  -20.5838   20.5079 C   0  0  2  0  0  0
  -29.4013  -24.2766   20.6256 C   0  0  0  0  0  0
  -30.2854  -18.0486   20.9867 N   0  0  0  0  0  0
  -28.8707  -19.7145   18.0336 N   0  0  0  0  0  0
  -29.9730  -15.5989   21.0518 N   0  0  0  0  0  0
  -29.7547  -21.7500   20.7882 N   0  0  0  0  0  0
  -29.7292  -22.7423   18.7697 O   0  0  0  0  0  0
  -28.9732  -17.1590   18.9365 S   0  0  0  0  0  0
  -31.4746  -12.4425   19.1550 H   0  0  0  0  0  0
  -30.3310  -11.3452   19.8709 H   0  0  0  0  0  0
  -29.7631  -11.7749   17.4617 H   0  0  0  0  0  0
  -29.6755  -13.4917   17.7671 H   0  0  0  0  0  0
  -27.8366  -11.3189   18.8265 H   0  0  0  0  0  0
  -27.3829  -12.6448   17.7876 H   0  0  0  0  0  0
  -27.6902  -14.2633   19.5599 H   0  0  0  0  0  0
  -28.6928  -12.0167   21.3689 H   0  0  0  0  0  0
  -28.4604  -13.6682   21.8615 H   0  0  0  0  0  0
  -25.2786   -9.5694   22.4750 H   0  0  0  0  0  0
  -24.0014   -7.4648   22.7470 H   0  0  0  0  0  0
  -21.0847   -8.8792   19.8957 H   0  0  0  0  0  0
  -22.3710  -10.9688   19.6155 H   0  0  0  0  0  0
  -21.2005   -7.6145   23.9712 H   0  0  0  0  0  0
  -21.1485   -6.0513   25.9064 H   0  0  0  0  0  0
  -22.0598   -2.7613   23.2824 H   0  0  0  0  0  0
  -22.4088  -11.9915   22.4823 H   0  0  0  0  0  0
  -21.1104  -13.1266   22.2544 H   0  0  0  0  0  0
  -24.6661  -15.8507   20.5194 H   0  0  0  0  0  0
  -26.2766  -15.6269   20.0706 H   0  0  0  0  0  0
  -26.7137  -32.5504   23.1140 H   0  0  0  0  0  0
  -25.0072  -33.9785   25.0462 H   0  0  0  0  0  0
  -22.7008  -31.3030   21.4051 H   0  0  0  0  0  0
  -23.3761  -35.9626   23.3305 H   0  0  0  0  0  0
  -24.3575  -36.8914   22.2048 H   0  0  0  0  0  0
  -23.7237  -37.6498   23.6653 H   0  0  0  0  0  0
  -26.0676  -31.5774   20.6014 H   0  0  0  0  0  0
  -26.8298  -30.8662   21.9934 H   0  0  0  0  0  0
  -28.1047  -29.0418   21.1884 H   0  0  0  0  0  0
  -26.0196  -25.9697   18.9697 H   0  0  0  0  0  0
  -23.9845  -27.3083   19.0083 H   0  0  0  0  0  0
  -23.7365  -30.5939   19.4030 H   0  0  0  0  0  0
  -22.7478  -29.2405   19.8643 H   0  0  0  0  0  0
  -25.1298  -36.1964   25.0825 H   0  0  0  0  0  0
  -20.9964  -28.3244   24.1428 H   0  0  0  0  0  0
  -20.5699  -26.2275   23.3611 H   0  0  0  0  0  0
  -21.6636  -26.7458   22.1192 H   0  0  0  0  0  0
  -19.6909  -25.6302   21.1240 H   0  0  0  0  0  0
  -19.6692  -27.3195   20.6757 H   0  0  0  0  0  0
  -17.4203  -26.6684   21.4013 H   0  0  0  0  0  0
  -18.0304  -26.0071   22.9018 H   0  0  0  0  0  0
  -19.7930  -30.7252   24.2286 H   0  0  0  0  0  0
  -17.5010  -31.6271   24.5139 H   0  0  0  0  0  0
  -15.5343  -30.2980   23.7649 H   0  0  0  0  0  0
  -15.8669  -28.0815   22.7067 H   0  0  0  0  0  0
  -24.5904  -30.7072   25.7770 H   0  0  0  0  0  0
  -24.8933  -32.2874   26.4909 H   0  0  0  0  0  0
  -25.8069  -30.8859   27.0218 H   0  0  0  0  0  0
  -26.2884  -29.6796   24.1160 H   0  0  0  0  0  0
  -27.4064  -29.7264   25.4593 H   0  0  0  0  0  0
  -27.8730  -30.4340   23.9306 H   0  0  0  0  0  0
  -27.2682  -33.3610   26.2092 H   0  0  0  0  0  0
  -28.3864  -32.6889   25.0320 H   0  0  0  0  0  0
  -28.0737  -31.8430   26.5398 H   0  0  0  0  0  0
  -28.2599  -38.0100   24.7511 H   0  0  0  0  0  0
  -28.1076  -36.2633   24.6292 H   0  0  0  0  0  0
  -27.2290  -37.1451   25.8860 H   0  0  0  0  0  0
  -20.9342  -29.8749   21.6917 H   0  0  0  0  0  0
  -26.0185  -38.2866   24.1411 H   0  0  0  0  0  0
  -32.4914  -19.7978   21.3634 H   0  0  0  0  0  0
  -31.2672  -20.1927   22.5695 H   0  0  0  0  0  0
  -32.1859  -21.4740   21.7768 H   0  0  0  0  0  0
  -31.5657  -24.3956   20.9804 H   0  0  0  0  0  0
  -30.7594  -25.9542   21.0243 H   0  0  0  0  0  0
  -31.0510  -25.1626   19.4828 H   0  0  0  0  0  0
  -29.8006  -23.7240   22.7165 H   0  0  0  0  0  0
  -28.0970  -23.6029   22.2609 H   0  0  0  0  0  0
  -28.8317  -25.1728   22.5329 H   0  0  0  0  0  0
  -27.3523  -24.7607   20.1570 H   0  0  0  0  0  0
  -28.4133  -25.0423   18.7981 H   0  0  0  0  0  0
  -31.2150  -20.8488   19.6162 H   0  0  0  0  0  0
  -29.0590  -20.7166   18.0318 H   0  0  0  0  0  0
  -28.4080  -19.3972   17.1864 H   0  0  0  0  0  0
  -29.1407  -15.3022   21.5352 H   0  0  0  0  0  0
  -29.5299  -21.8878   21.7633 H   0  0  0  0  0  0
  1 25  1  0  0  0
  1 30  2  0  0  0
  1 83  1  0  0  0
  2  3  1  0  0  0
  2 25  1  0  0  0
  2 87  1  0  0  0
  2 88  1  0  0  0
  3  4  1  0  0  0
  3 89  1  0  0  0
  3 90  1  0  0  0
  4  5  1  0  0  0
  4 91  1  0  0  0
  4 92  1  0  0  0
  5  6  1  0  0  0
  5 26  1  0  0  0
  5 93  1  0  0  0
  6 25  1  0  0  0
  6 94  1  0  0  0
  6 95  1  0  0  0
  7  8  2  0  0  0
  7 26  1  0  0  0
  7 29  1  0  0  0
  8  9  1  0  0  0
  8 22  1  0  0  0
  9 10  1  0  0  0
  9 27  2  0  0  0
 10 11  2  0  0  0
 10 15  1  0  0  0
 11 12  1  0  0  0
 11 96  1  0  0  0
 12 13  2  0  0  0
 12 97  1  0  0  0
 13 14  1  0  0  0
 13 31  1  0  0  0
 14 15  2  0  0  0
 14 98  1  0  0  0
 15 99  1  0  0  0
 16 17  2  0  0  0
 16 21  1  0  0  0
 16 31  1  0  0  0
 17 18  1  0  0  0
 17100  1  0  0  0
 18 19  2  0  0  0
 18101  1  0  0  0
 19 20  1  0  0  0
 19 24  1  0  0  0
 20 21  2  0  0  0
 20102  1  0  0  0
 21 23  1  0  0  0
 22 28  1  0  0  0
 22 32  2  0  0  0
 26 27  1  0  0  0
 28103  1  0  0  0
 28104  1  0  0  0
 29105  1  0  0  0
 29106  1  0  0  0
 33 34  1  0  0  0
 33 66  1  0  0  0
 33 70  2  0  0  0
 34 36  1  0  0  0
 34 59  1  0  0  0
 34107  1  0  0  0
 35 44  2  0  0  0
 35 45  1  0  0  0
 35 68  1  0  0  0
 36 56  1  0  0  0
 36108  1  0  0  0
 37 39  1  0  0  0
 37 47  1  0  0  0
 37 66  1  0  0  0
 37109  1  0  0  0
 38 43  2  0  0  0
 38 46  1  0  0  0
 38 47  1  0  0  0
 39 64  1  0  0  0
 39 67  2  0  0  0
 40 52  1  0  0  0
 40 53  2  0  0  0
 40 58  1  0  0  0
 41110  1  0  0  0
 41111  1  0  0  0
 41112  1  0  0  0
 41 48  1  0  0  0
 42 43  1  0  0  0
 42 66  1  0  0  0
 42113  1  0  0  0
 42114  1  0  0  0
 43 44  1  0  0  0
 44115  1  0  0  0
 45 46  2  0  0  0
 45116  1  0  0  0
 46117  1  0  0  0
 47118  1  0  0  0
 47119  1  0  0  0
 48 56  1  0  0  0
 48 65  1  0  0  0
 48120  1  0  0  0
 49 50  1  0  0  0
 49 53  1  0  0  0
 49 64  1  0  0  0
 49121  1  0  0  0
 50 51  1  0  0  0
 50122  1  0  0  0
 50123  1  0  0  0
 51 52  1  0  0  0
 51124  1  0  0  0
 51125  1  0  0  0
 52126  1  0  0  0
 52127  1  0  0  0
 53 54  1  0  0  0
 54 55  2  0  0  0
 54128  1  0  0  0
 55 57  1  0  0  0
 55129  1  0  0  0
 56 69  2  0  0  0
 57 58  2  0  0  0
 57130  1  0  0  0
 58131  1  0  0  0
 59 60  1  0  0  0
 59 61  1  0  0  0
 59 62  1  0  0  0
 60132  1  0  0  0
 60133  1  0  0  0
 60134  1  0  0  0
 61135  1  0  0  0
 61136  1  0  0  0
 61137  1  0  0  0
 62138  1  0  0  0
 62139  1  0  0  0
 62140  1  0  0  0
 63 65  1  0  0  0
 63141  1  0  0  0
 63142  1  0  0  0
 63143  1  0  0  0
 64144  1  0  0  0
 65145  1  0  0  0
 68 78  1  0  0  0
 71 72  2  0  0  0
 71 79  1  0  0  0
 71 81  1  0  0  0
 72 82  1  0  0  0
 72 86  1  0  0  0
 73 81  2  0  0  0
 73 83  1  0  0  0
 73 86  1  0  0  0
 74 80  1  0  0  0
 74 84  1  0  0  0
 74 85  2  0  0  0
 75146  1  0  0  0
 75147  1  0  0  0
 75148  1  0  0  0
 75 79  1  0  0  0
 76149  1  0  0  0
 76150  1  0  0  0
 76151  1  0  0  0
 76 80  1  0  0  0
 77 80  1  0  0  0
 77152  1  0  0  0
 77153  1  0  0  0
 77154  1  0  0  0
 78 80  1  0  0  0
 78155  1  0  0  0
 78156  1  0  0  0
 79 84  1  0  0  0
 79157  1  0  0  0
 82158  1  0  0  0
 82159  1  0  0  0
 83160  1  0  0  0
 84161  1  0  0  0
M  ISO  4   1 100  68 101  78 101  83 100
M  END
> <chiral flag>
0

> <version>
0

> <s_m_source_file>
/data/baiqing/PycharmProjects/Reinvent-master-3.2/result/LINK_invent/BTK/process_docking_weight1_custom_product_contain_oxygen_bond_distance_aromatic_linkinvent_7_9_3/rearranged_h_0183.sdf

> <i_m_source_file_index>
24

> <r_mmod_Potential_Energy-OPLS-2005>
-46.675121307373

> <r_mmod_Stretch_Energy-OPLS-2005>
59.5721473693848

> <r_mmod_Bend_Energy-OPLS-2005>
128.545684814453

> <r_mmod_Torsional_Energy-OPLS-2005>
273.657287597656

> <r_mmod_Improper_Torsional_Energy-OPLS-2005>
8.84024429321289

> <r_mmod_Van_der_Waal_Energy-OPLS-2005>
123.267135620117

> <r_mmod_Electrostatic_Energy-OPLS-2005>
-432.697265625

> <r_mmod_Solvation_Energy-OPLS-2005>
-234.222869873047

> <b_mmod_Minimization_Converged-OPLS-2005>
0

> <r_mmod_RMS_Derivative-OPLS-2005>
1.90652787685394

$$$$
24
                    3D
 Structure written by MMmdl.
153161  0  0  1  0            999 V2000
  -30.6359  -14.7662   20.4304 C   0  0  0  0  0  0
  -30.4258  -12.4693   19.4740 C   0  0  0  0  0  0
  -29.5111  -12.5061   18.2305 C   0  0  0  0  0  0
  -28.0338  -12.3515   18.6395 C   0  0  0  0  0  0
  -27.6383  -13.2474   19.8463 C   0  0  2  0  0  0
  -28.6877  -13.1957   20.9788 C   0  0  0  0  0  0
  -25.2494  -13.8239   20.5716 C   0  0  0  0  0  0
  -24.1804  -13.0456   20.9222 C   0  0  0  0  0  0
  -24.6404  -11.6950   20.8760 C   0  0  0  0  0  0
  -23.9080  -10.4314   21.0402 C   0  0  0  0  0  0
  -24.3635   -9.4217   21.9174 C   0  0  0  0  0  0
  -23.6326   -8.2253   22.0742 C   0  0  0  0  0  0
  -22.4313   -8.0273   21.3516 C   0  0  0  0  0  0
  -21.9939   -9.0249   20.4637 C   0  0  0  0  0  0
  -22.7267  -10.2142   20.3057 C   0  0  0  0  0  0
  -21.6864   -6.0736   22.5264 C   0  0  0  0  0  0
  -21.4031   -6.5645   23.8201 C   0  0  0  0  0  0
  -21.3681   -5.6794   24.9161 C   0  0  0  0  0  0
  -21.6049   -4.3044   24.7198 C   0  0  0  0  0  0
  -21.8825   -3.8141   23.4316 C   0  0  0  0  0  0
  -21.9193   -4.6966   22.3373 C   0  0  0  0  0  0
  -22.7820  -13.5204   21.1859 C   0  0  0  0  0  0
  -22.1650   -4.2149   21.0952 F   0  0  0  0  0  0
  -21.5633   -3.4531   25.7708 F   0  0  0  0  0  0
  -29.9821  -13.5499   20.3871 N   0  0  0  0  0  0
  -26.2936  -12.9469   20.3292 N   0  0  0  0  0  0
  -25.9338  -11.6599   20.5758 N   0  0  0  0  0  0
  -22.0454  -12.8250   22.0444 N   0  0  0  0  0  0
  -25.4150  -15.1970   20.4166 N   0  0  0  0  0  0
  -31.8456  -14.7705   20.1915 O   0  0  0  0  0  0
  -21.6664   -6.8879   21.4228 O   0  0  0  0  0  0
  -22.3508  -14.5470   20.6626 O   0  0  0  0  0  0
  -24.6322  -31.8540   23.1969 C   0  0  0  0  0  0
  -25.9140  -32.4737   23.8323 C   0  0  1  0  0  0
  -27.2239  -27.2597   20.1345 C   0  0  0  0  0  0
  -25.5946  -33.8542   24.2262 N   0  0  0  0  0  0
  -23.4313  -30.4740   21.5390 C   0  0  2  0  0  0
  -24.8785  -28.9158   20.1118 C   0  0  0  0  0  0
  -22.7526  -29.4573   22.4888 C   0  0  0  0  0  0
  -18.0307  -28.1374   22.8474 C   0  0  0  0  0  0
  -24.1486  -36.7280   23.2638 C   0  0  0  0  0  0
  -25.9764  -30.7621   21.3789 C   0  0  0  0  0  0
  -26.0505  -29.3852   20.7221 C   0  0  0  0  0  0
  -27.2298  -28.5721   20.7167 C   0  0  0  0  0  0
  -26.0325  -26.8522   19.5011 C   0  0  0  0  0  0
  -24.8760  -27.6568   19.4884 C   0  0  0  0  0  0
  -23.6517  -29.8075   20.1552 C   0  0  0  0  0  0
  -25.4106  -36.3066   24.0338 C   0  0  1  0  0  0
  -20.5902  -28.3691   23.1263 C   0  0  2  0  0  0
  -20.6786  -26.9407   22.5397 C   0  0  0  0  0  0
  -19.5756  -26.6366   21.5212 C   0  0  0  0  0  0
  -18.1946  -26.7918   22.1621 C   0  0  0  0  0  0
  -19.1559  -28.8853   23.2855 C   0  0  0  0  0  0
  -18.9465  -30.1454   23.8876 C   0  0  0  0  0  0
  -17.6460  -30.6577   24.0559 C   0  0  0  0  0  0
  -25.9049  -34.9435   23.5101 C   0  0  0  0  0  0
  -16.5353  -29.9063   23.6335 C   0  0  0  0  0  0
  -16.7288  -28.6482   23.0352 C   0  0  0  0  0  0
  -26.4495  -31.6563   25.0728 C   0  0  0  0  0  0
  -25.3709  -31.3738   26.1451 C   0  0  0  0  0  0
  -27.0350  -30.2980   24.6235 C   0  0  0  0  0  0
  -27.6049  -32.4305   25.7509 C   0  0  0  0  0  0
  -27.5585  -37.1792   24.8463 C   0  0  0  0  0  0
  -21.4224  -29.3035   22.3651 N   0  0  0  0  0  0
  -26.4289  -37.3760   23.9425 N   0  0  0  0  0  0
  -24.6990  -31.0488   22.0951 N   0  0  0  0  0  0
  -23.4238  -28.8141   23.3002 O   0  0  0  0  0  0
  -28.3134  -26.3625   20.1360 O   0  0  0  0  0  0
  -26.5611  -34.8914   22.4662 O   0  0  0  0  0  0
  -23.5466  -32.1376   23.7260 O   0  0  0  0  0  0
  -31.4691  -17.6598   19.5917 C   0  0  0  0  0  0
  -31.8522  -18.9655   19.2448 C   0  0  0  0  0  0
  -31.0045  -20.0555   19.5064 C   0  0  0  0  0  0
  -30.2352  -17.3873   20.2266 C   0  0  0  0  0  0
  -29.7592  -19.8189   20.1248 C   0  0  0  0  0  0
  -28.6873  -23.6791   20.0077 C   0  0  0  0  0  0
  -30.3734  -22.5079   21.6124 C   0  0  0  0  0  0
  -28.0904  -24.9924   20.7233 C   0  0  0  0  0  0
  -29.0331  -22.3304   20.8685 C   0  0  2  0  0  0
  -29.4007  -18.4997   20.4562 N   0  0  0  0  0  0
  -29.9003  -15.9553   20.5417 N   0  0  0  0  0  0
  -28.8278  -20.9260   20.2885 N   0  0  0  0  0  0
  -28.8648  -23.7054   18.7852 O   0  0  0  0  0  0
  -33.0369  -19.1631   18.6146 F   0  0  0  0  0  0
  -31.3721  -21.2926   19.0893 F   0  0  0  0  0  0
  -31.4674  -12.5872   19.1698 H   0  0  0  0  0  0
  -30.3686  -11.5003   19.9737 H   0  0  0  0  0  0
  -29.7971  -11.7176   17.5302 H   0  0  0  0  0  0
  -29.6556  -13.4510   17.7021 H   0  0  0  0  0  0
  -27.8788  -11.3021   18.8931 H   0  0  0  0  0  0
  -27.3859  -12.5579   17.7856 H   0  0  0  0  0  0
  -27.6233  -14.2727   19.4727 H   0  0  0  0  0  0
  -28.7321  -12.1986   21.4190 H   0  0  0  0  0  0
  -28.4277  -13.8810   21.7875 H   0  0  0  0  0  0
  -25.2767   -9.5718   22.4752 H   0  0  0  0  0  0
  -24.0029   -7.4663   22.7491 H   0  0  0  0  0  0
  -21.0846   -8.8784   19.8963 H   0  0  0  0  0  0
  -22.3702  -10.9677   19.6174 H   0  0  0  0  0  0
  -21.2037   -7.6168   23.9699 H   0  0  0  0  0  0
  -21.1507   -6.0524   25.9068 H   0  0  0  0  0  0
  -22.0586   -2.7602   23.2805 H   0  0  0  0  0  0
  -22.4071  -11.9969   22.4934 H   0  0  0  0  0  0
  -21.1018  -13.1246   22.2520 H   0  0  0  0  0  0
  -24.6513  -15.8499   20.5566 H   0  0  0  0  0  0
  -26.2608  -15.6419   20.0840 H   0  0  0  0  0  0
  -26.7221  -32.5390   23.1068 H   0  0  0  0  0  0
  -25.0130  -33.9671   25.0441 H   0  0  0  0  0  0
  -22.7280  -31.2964   21.3922 H   0  0  0  0  0  0
  -23.3754  -35.9602   23.3268 H   0  0  0  0  0  0
  -24.3580  -36.8930   22.2060 H   0  0  0  0  0  0
  -23.7225  -37.6469   23.6673 H   0  0  0  0  0  0
  -26.1227  -31.5202   20.6091 H   0  0  0  0  0  0
  -26.8527  -30.8088   22.0149 H   0  0  0  0  0  0
  -28.1286  -28.9317   21.1976 H   0  0  0  0  0  0
  -25.9919  -25.8864   19.0161 H   0  0  0  0  0  0
  -23.9814  -27.2932   19.0024 H   0  0  0  0  0  0
  -23.7887  -30.5872   19.4044 H   0  0  0  0  0  0
  -22.7694  -29.2469   19.8445 H   0  0  0  0  0  0
  -25.1282  -36.1897   25.0826 H   0  0  0  0  0  0
  -20.9996  -28.3248   24.1382 H   0  0  0  0  0  0
  -20.5680  -26.2305   23.3601 H   0  0  0  0  0  0
  -21.6652  -26.7417   22.1194 H   0  0  0  0  0  0
  -19.6916  -25.6275   21.1258 H   0  0  0  0  0  0
  -19.6692  -27.3156   20.6738 H   0  0  0  0  0  0
  -17.4215  -26.6674   21.4019 H   0  0  0  0  0  0
  -18.0326  -26.0058   22.9014 H   0  0  0  0  0  0
  -19.7939  -30.7280   24.2230 H   0  0  0  0  0  0
  -17.5010  -31.6255   24.5156 H   0  0  0  0  0  0
  -15.5353  -30.2949   23.7665 H   0  0  0  0  0  0
  -15.8695  -28.0798   22.7060 H   0  0  0  0  0  0
  -24.5853  -30.7123   25.7784 H   0  0  0  0  0  0
  -24.8935  -32.2922   26.4885 H   0  0  0  0  0  0
  -25.8007  -30.8899   27.0234 H   0  0  0  0  0  0
  -26.2956  -29.6715   24.1241 H   0  0  0  0  0  0
  -27.4010  -29.7247   25.4763 H   0  0  0  0  0  0
  -27.8839  -30.4253   23.9518 H   0  0  0  0  0  0
  -27.2650  -33.3592   26.2113 H   0  0  0  0  0  0
  -28.3855  -32.6886   25.0338 H   0  0  0  0  0  0
  -28.0733  -31.8416   26.5411 H   0  0  0  0  0  0
  -28.2571  -38.0121   24.7534 H   0  0  0  0  0  0
  -28.1115  -36.2650   24.6237 H   0  0  0  0  0  0
  -27.2326  -37.1389   25.8873 H   0  0  0  0  0  0
  -20.9423  -29.8752   21.6848 H   0  0  0  0  0  0
  -26.0160  -38.2838   24.1403 H   0  0  0  0  0  0
  -32.1657  -16.8884   19.3143 H   0  0  0  0  0  0
  -30.3341  -23.3476   22.3078 H   0  0  0  0  0  0
  -31.2015  -22.7143   20.9344 H   0  0  0  0  0  0
  -30.6217  -21.6288   22.2050 H   0  0  0  0  0  0
  -28.4957  -25.0200   21.7336 H   0  0  0  0  0  0
  -27.0216  -24.8228   20.8480 H   0  0  0  0  0  0
  -28.2950  -22.3356   21.6716 H   0  0  0  0  0  0
  -28.9361  -15.8071   20.7899 H   0  0  0  0  0  0
  -27.8671  -20.6232   20.3848 H   0  0  0  0  0  0
  1 25  1  0  0  0
  1 30  2  0  0  0
  1 81  1  0  0  0
  2  3  1  0  0  0
  2 25  1  0  0  0
  2 86  1  0  0  0
  2 87  1  0  0  0
  3  4  1  0  0  0
  3 88  1  0  0  0
  3 89  1  0  0  0
  4  5  1  0  0  0
  4 90  1  0  0  0
  4 91  1  0  0  0
  5  6  1  0  0  0
  5 26  1  0  0  0
  5 92  1  0  0  0
  6 25  1  0  0  0
  6 93  1  0  0  0
  6 94  1  0  0  0
  7  8  2  0  0  0
  7 26  1  0  0  0
  7 29  1  0  0  0
  8  9  1  0  0  0
  8 22  1  0  0  0
  9 10  1  0  0  0
  9 27  2  0  0  0
 10 11  2  0  0  0
 10 15  1  0  0  0
 11 12  1  0  0  0
 11 95  1  0  0  0
 12 13  2  0  0  0
 12 96  1  0  0  0
 13 14  1  0  0  0
 13 31  1  0  0  0
 14 15  2  0  0  0
 14 97  1  0  0  0
 15 98  1  0  0  0
 16 17  2  0  0  0
 16 21  1  0  0  0
 16 31  1  0  0  0
 17 18  1  0  0  0
 17 99  1  0  0  0
 18 19  2  0  0  0
 18100  1  0  0  0
 19 20  1  0  0  0
 19 24  1  0  0  0
 20 21  2  0  0  0
 20101  1  0  0  0
 21 23  1  0  0  0
 22 28  1  0  0  0
 22 32  2  0  0  0
 26 27  1  0  0  0
 28102  1  0  0  0
 28103  1  0  0  0
 29104  1  0  0  0
 29105  1  0  0  0
 33 34  1  0  0  0
 33 66  1  0  0  0
 33 70  2  0  0  0
 34 36  1  0  0  0
 34 59  1  0  0  0
 34106  1  0  0  0
 35 44  2  0  0  0
 35 45  1  0  0  0
 35 68  1  0  0  0
 36 56  1  0  0  0
 36107  1  0  0  0
 37 39  1  0  0  0
 37 47  1  0  0  0
 37 66  1  0  0  0
 37108  1  0  0  0
 38 43  2  0  0  0
 38 46  1  0  0  0
 38 47  1  0  0  0
 39 64  1  0  0  0
 39 67  2  0  0  0
 40 52  1  0  0  0
 40 53  2  0  0  0
 40 58  1  0  0  0
 41109  1  0  0  0
 41110  1  0  0  0
 41111  1  0  0  0
 41 48  1  0  0  0
 42 43  1  0  0  0
 42 66  1  0  0  0
 42112  1  0  0  0
 42113  1  0  0  0
 43 44  1  0  0  0
 44114  1  0  0  0
 45 46  2  0  0  0
 45115  1  0  0  0
 46116  1  0  0  0
 47117  1  0  0  0
 47118  1  0  0  0
 48 56  1  0  0  0
 48 65  1  0  0  0
 48119  1  0  0  0
 49 50  1  0  0  0
 49 53  1  0  0  0
 49 64  1  0  0  0
 49120  1  0  0  0
 50 51  1  0  0  0
 50121  1  0  0  0
 50122  1  0  0  0
 51 52  1  0  0  0
 51123  1  0  0  0
 51124  1  0  0  0
 52125  1  0  0  0
 52126  1  0  0  0
 53 54  1  0  0  0
 54 55  2  0  0  0
 54127  1  0  0  0
 55 57  1  0  0  0
 55128  1  0  0  0
 56 69  2  0  0  0
 57 58  2  0  0  0
 57129  1  0  0  0
 58130  1  0  0  0
 59 60  1  0  0  0
 59 61  1  0  0  0
 59 62  1  0  0  0
 60131  1  0  0  0
 60132  1  0  0  0
 60133  1  0  0  0
 61134  1  0  0  0
 61135  1  0  0  0
 61136  1  0  0  0
 62137  1  0  0  0
 62138  1  0  0  0
 62139  1  0  0  0
 63 65  1  0  0  0
 63140  1  0  0  0
 63141  1  0  0  0
 63142  1  0  0  0
 64143  1  0  0  0
 65144  1  0  0  0
 68 78  1  0  0  0
 71 72  2  0  0  0
 71 74  1  0  0  0
 71145  1  0  0  0
 72 73  1  0  0  0
 72 84  1  0  0  0
 73 75  2  0  0  0
 73 85  1  0  0  0
 74 80  2  0  0  0
 74 81  1  0  0  0
 75 80  1  0  0  0
 75 82  1  0  0  0
 76 78  1  0  0  0
 76 79  1  0  0  0
 76 83  2  0  0  0
 77146  1  0  0  0
 77147  1  0  0  0
 77148  1  0  0  0
 77 79  1  0  0  0
 78149  1  0  0  0
 78150  1  0  0  0
 79 82  1  0  0  0
 79151  1  0  0  0
 81152  1  0  0  0
 82153  1  0  0  0
M  ISO  4   1 100  68 101  78 101  81 100
M  END
> <chiral flag>
0

> <version>
0

> <s_m_source_file>
/data/baiqing/PycharmProjects/Reinvent-master-3.2/result/LINK_invent/BTK/process_docking_weight1_custom_product_contain_oxygen_bond_distance_aromatic_linkinvent_7_9_3/rearranged_h_0183.sdf

> <i_m_source_file_index>
25

> <r_mmod_Potential_Energy-OPLS-2005>
122.713569641113

> <r_mmod_Stretch_Energy-OPLS-2005>
144.690368652344

> <r_mmod_Bend_Energy-OPLS-2005>
194.317474365234

> <r_mmod_Torsional_Energy-OPLS-2005>
249.315460205078

> <r_mmod_Improper_Torsional_Energy-OPLS-2005>
6.5766429901123

> <r_mmod_Van_der_Waal_Energy-OPLS-2005>
141.548843383789

> <r_mmod_Electrostatic_Energy-OPLS-2005>
-456.860626220703

> <r_mmod_Solvation_Energy-OPLS-2005>
-248.202178955078

> <b_mmod_Minimization_Converged-OPLS-2005>
0

> <r_mmod_RMS_Derivative-OPLS-2005>
3.91496348381042

$$$$
25
                    3D
 Structure written by MMmdl.
160168  0  0  1  0            999 V2000
  -30.6761  -14.5570   20.5026 C   0  0  0  0  0  0
  -30.4181  -12.3365   19.4493 C   0  0  0  0  0  0
  -29.4976  -12.4942   18.2207 C   0  0  0  0  0  0
  -28.0185  -12.3552   18.6294 C   0  0  0  0  0  0
  -27.6526  -13.2173   19.8674 C   0  0  2  0  0  0
  -28.6965  -13.0584   20.9963 C   0  0  0  0  0  0
  -25.2547  -13.8183   20.5695 C   0  0  0  0  0  0
  -24.1823  -13.0442   20.9197 C   0  0  0  0  0  0
  -24.6396  -11.6915   20.8749 C   0  0  0  0  0  0
  -23.9076  -10.4295   21.0414 C   0  0  0  0  0  0
  -24.3617   -9.4211   21.9192 C   0  0  0  0  0  0
  -23.6294   -8.2246   22.0766 C   0  0  0  0  0  0
  -22.4279   -8.0286   21.3546 C   0  0  0  0  0  0
  -21.9922   -9.0262   20.4649 C   0  0  0  0  0  0
  -22.7252  -10.2140   20.3062 C   0  0  0  0  0  0
  -21.6850   -6.0744   22.5275 C   0  0  0  0  0  0
  -21.4012   -6.5645   23.8209 C   0  0  0  0  0  0
  -21.3663   -5.6797   24.9173 C   0  0  0  0  0  0
  -21.6045   -4.3060   24.7222 C   0  0  0  0  0  0
  -21.8819   -3.8156   23.4340 C   0  0  0  0  0  0
  -21.9195   -4.6972   22.3396 C   0  0  0  0  0  0
  -22.7842  -13.5231   21.1859 C   0  0  0  0  0  0
  -22.1659   -4.2157   21.0970 F   0  0  0  0  0  0
  -21.5637   -3.4545   25.7737 F   0  0  0  0  0  0
  -30.0193  -13.3608   20.4317 N   0  0  0  0  0  0
  -26.2979  -12.9368   20.3352 N   0  0  0  0  0  0
  -25.9324  -11.6522   20.5783 N   0  0  0  0  0  0
  -22.0491  -12.8212   22.0406 N   0  0  0  0  0  0
  -25.4256  -15.1900   20.4070 N   0  0  0  0  0  0
  -31.8477  -14.6570   20.1275 O   0  0  0  0  0  0
  -21.6636   -6.8887   21.4241 O   0  0  0  0  0  0
  -22.3526  -14.5541   20.6721 O   0  0  0  0  0  0
  -24.6207  -31.8626   23.2078 C   0  0  0  0  0  0
  -25.9089  -32.4782   23.8373 C   0  0  1  0  0  0
  -27.2339  -27.3831   20.0948 C   0  0  0  0  0  0
  -25.5936  -33.8592   24.2308 N   0  0  0  0  0  0
  -23.4088  -30.4867   21.5488 C   0  0  2  0  0  0
  -24.8543  -28.9464   20.1137 C   0  0  0  0  0  0
  -22.7424  -29.4637   22.4969 C   0  0  0  0  0  0
  -18.0270  -28.1363   22.8485 C   0  0  0  0  0  0
  -24.1481  -36.7278   23.2641 C   0  0  0  0  0  0
  -25.9431  -30.8115   21.3700 C   0  0  0  0  0  0
  -26.0175  -29.4444   20.7113 C   0  0  0  0  0  0
  -27.2066  -28.6706   20.6973 C   0  0  0  0  0  0
  -26.0405  -26.9072   19.5031 C   0  0  0  0  0  0
  -24.8635  -27.6795   19.5076 C   0  0  0  0  0  0
  -23.6182  -29.8176   20.1643 C   0  0  0  0  0  0
  -25.4113  -36.3085   24.0327 C   0  0  1  0  0  0
  -20.5860  -28.3666   23.1286 C   0  0  2  0  0  0
  -20.6756  -26.9391   22.5412 C   0  0  0  0  0  0
  -19.5729  -26.6370   21.5210 C   0  0  0  0  0  0
  -18.1904  -26.7909   22.1614 C   0  0  0  0  0  0
  -19.1524  -28.8839   23.2872 C   0  0  0  0  0  0
  -18.9456  -30.1454   23.8864 C   0  0  0  0  0  0
  -17.6459  -30.6568   24.0570 C   0  0  0  0  0  0
  -25.9048  -34.9455   23.5112 C   0  0  0  0  0  0
  -16.5349  -29.9063   23.6347 C   0  0  0  0  0  0
  -16.7269  -28.6491   23.0350 C   0  0  0  0  0  0
  -26.4516  -31.6574   25.0725 C   0  0  0  0  0  0
  -25.3781  -31.3658   26.1470 C   0  0  0  0  0  0
  -27.0386  -30.3014   24.6148 C   0  0  0  0  0  0
  -27.6077  -32.4314   25.7488 C   0  0  0  0  0  0
  -27.5576  -37.1794   24.8476 C   0  0  0  0  0  0
  -21.4149  -29.3028   22.3696 N   0  0  0  0  0  0
  -26.4295  -37.3782   23.9412 N   0  0  0  0  0  0
  -24.6754  -31.0689   22.0998 N   0  0  0  0  0  0
  -23.4176  -28.8194   23.3036 O   0  0  0  0  0  0
  -28.4047  -26.6322   20.1310 O   0  0  0  0  0  0
  -26.5594  -34.8916   22.4665 O   0  0  0  0  0  0
  -23.5393  -32.1415   23.7445 O   0  0  0  0  0  0
  -30.2139  -19.5611   20.2884 C   0  0  0  0  0  0
  -31.3910  -18.9014   19.9735 C   0  0  0  0  0  0
  -30.1841  -17.0491   20.6040 C   0  0  0  0  0  0
  -29.8880  -21.0408   20.2481 C   0  0  0  0  0  0
  -28.4444  -24.0751   20.1627 C   0  0  0  0  0  0
  -25.7645  -22.4507   19.9944 C   0  0  0  0  0  0
  -26.6062  -21.5202   17.7961 C   0  0  0  0  0  0
  -28.5363  -25.4085   19.3507 C   0  0  0  0  0  0
  -28.2617  -22.7520   19.3225 C   0  0  2  0  0  0
  -26.7829  -22.6321   18.8483 C   0  0  0  0  0  0
  -31.3578  -17.5145   20.1571 N   0  0  0  0  0  0
  -32.5765  -19.4598   19.4870 N   0  0  0  0  0  0
  -29.9217  -15.6423   20.8349 N   0  0  0  0  0  0
  -28.6368  -21.4576   19.9696 N   0  0  0  0  0  0
  -30.8026  -21.8631   20.3337 O   0  0  0  0  0  0
  -28.5038  -24.0872   21.3967 O   0  0  0  0  0  0
  -29.0143  -18.3782   20.8421 S   0  0  0  0  0  0
  -31.4654  -12.4212   19.1508 H   0  0  0  0  0  0
  -30.3132  -11.3396   19.8801 H   0  0  0  0  0  0
  -29.7460  -11.7489   17.4639 H   0  0  0  0  0  0
  -29.6625  -13.4675   17.7565 H   0  0  0  0  0  0
  -27.8361  -11.3020   18.8453 H   0  0  0  0  0  0
  -27.3698  -12.6091   17.7899 H   0  0  0  0  0  0
  -27.6772  -14.2557   19.5379 H   0  0  0  0  0  0
  -28.6830  -12.0404   21.3884 H   0  0  0  0  0  0
  -28.4609  -13.7046   21.8438 H   0  0  0  0  0  0
  -25.2765   -9.5675   22.4769 H   0  0  0  0  0  0
  -24.0007   -7.4636   22.7485 H   0  0  0  0  0  0
  -21.0865   -8.8780   19.8940 H   0  0  0  0  0  0
  -22.3728  -10.9678   19.6165 H   0  0  0  0  0  0
  -21.1994   -7.6149   23.9712 H   0  0  0  0  0  0
  -21.1488   -6.0532   25.9078 H   0  0  0  0  0  0
  -22.0596   -2.7623   23.2843 H   0  0  0  0  0  0
  -22.4109  -11.9857   22.4759 H   0  0  0  0  0  0
  -21.1102  -13.1215   22.2614 H   0  0  0  0  0  0
  -24.6545  -15.8422   20.5038 H   0  0  0  0  0  0
  -26.2647  -15.6249   20.0454 H   0  0  0  0  0  0
  -26.7154  -32.5472   23.1121 H   0  0  0  0  0  0
  -25.0165  -33.9742   25.0511 H   0  0  0  0  0  0
  -22.7009  -31.3058   21.4068 H   0  0  0  0  0  0
  -23.3769  -35.9585   23.3310 H   0  0  0  0  0  0
  -24.3562  -36.8904   22.2052 H   0  0  0  0  0  0
  -23.7215  -37.6466   23.6672 H   0  0  0  0  0  0
  -26.0696  -31.5801   20.6070 H   0  0  0  0  0  0
  -26.8243  -30.8558   21.9982 H   0  0  0  0  0  0
  -28.1057  -29.0548   21.1592 H   0  0  0  0  0  0
  -25.9793  -25.9292   19.0520 H   0  0  0  0  0  0
  -23.9655  -27.2857   19.0519 H   0  0  0  0  0  0
  -23.7241  -30.5908   19.4023 H   0  0  0  0  0  0
  -22.7424  -29.2360   19.8704 H   0  0  0  0  0  0
  -25.1294  -36.1941   25.0821 H   0  0  0  0  0  0
  -20.9943  -28.3237   24.1410 H   0  0  0  0  0  0
  -20.5642  -26.2273   23.3606 H   0  0  0  0  0  0
  -21.6625  -26.7407   22.1212 H   0  0  0  0  0  0
  -19.6885  -25.6287   21.1227 H   0  0  0  0  0  0
  -19.6663  -27.3190   20.6744 H   0  0  0  0  0  0
  -17.4176  -26.6686   21.4006 H   0  0  0  0  0  0
  -18.0294  -26.0031   22.8985 H   0  0  0  0  0  0
  -19.7934  -30.7294   24.2183 H   0  0  0  0  0  0
  -17.5012  -31.6234   24.5190 H   0  0  0  0  0  0
  -15.5355  -30.2958   23.7685 H   0  0  0  0  0  0
  -15.8666  -28.0826   22.7050 H   0  0  0  0  0  0
  -24.5982  -30.6975   25.7805 H   0  0  0  0  0  0
  -24.8957  -32.2802   26.4926 H   0  0  0  0  0  0
  -25.8154  -30.8832   27.0222 H   0  0  0  0  0  0
  -26.2952  -29.6708   24.1264 H   0  0  0  0  0  0
  -27.4216  -29.7315   25.4623 H   0  0  0  0  0  0
  -27.8752  -30.4327   23.9284 H   0  0  0  0  0  0
  -27.2703  -33.3635   26.2027 H   0  0  0  0  0  0
  -28.3906  -32.6828   25.0323 H   0  0  0  0  0  0
  -28.0724  -31.8465   26.5434 H   0  0  0  0  0  0
  -28.2602  -38.0080   24.7532 H   0  0  0  0  0  0
  -28.1061  -36.2617   24.6313 H   0  0  0  0  0  0
  -27.2277  -37.1456   25.8872 H   0  0  0  0  0  0
  -20.9319  -29.8764   21.6925 H   0  0  0  0  0  0
  -26.0176  -38.2853   24.1441 H   0  0  0  0  0  0
  -24.7498  -22.3687   19.6033 H   0  0  0  0  0  0
  -25.7676  -23.2980   20.6811 H   0  0  0  0  0  0
  -25.9605  -21.5516   20.5784 H   0  0  0  0  0  0
  -25.5949  -21.5260   17.3881 H   0  0  0  0  0  0
  -26.7808  -20.5280   18.2114 H   0  0  0  0  0  0
  -27.2908  -21.6531   16.9576 H   0  0  0  0  0  0
  -27.8631  -25.3860   18.4971 H   0  0  0  0  0  0
  -29.5326  -25.4277   18.9104 H   0  0  0  0  0  0
  -28.8916  -22.8547   18.4373 H   0  0  0  0  0  0
  -26.5200  -23.5617   18.3397 H   0  0  0  0  0  0
  -32.7034  -20.4669   19.5191 H   0  0  0  0  0  0
  -33.4336  -18.9181   19.4754 H   0  0  0  0  0  0
  -28.9924  -15.4276   21.1591 H   0  0  0  0  0  0
  -27.9212  -20.7468   19.9558 H   0  0  0  0  0  0
  1 25  1  0  0  0
  1 30  2  0  0  0
  1 83  1  0  0  0
  2  3  1  0  0  0
  2 25  1  0  0  0
  2 88  1  0  0  0
  2 89  1  0  0  0
  3  4  1  0  0  0
  3 90  1  0  0  0
  3 91  1  0  0  0
  4  5  1  0  0  0
  4 92  1  0  0  0
  4 93  1  0  0  0
  5  6  1  0  0  0
  5 26  1  0  0  0
  5 94  1  0  0  0
  6 25  1  0  0  0
  6 95  1  0  0  0
  6 96  1  0  0  0
  7  8  2  0  0  0
  7 26  1  0  0  0
  7 29  1  0  0  0
  8  9  1  0  0  0
  8 22  1  0  0  0
  9 10  1  0  0  0
  9 27  2  0  0  0
 10 11  2  0  0  0
 10 15  1  0  0  0
 11 12  1  0  0  0
 11 97  1  0  0  0
 12 13  2  0  0  0
 12 98  1  0  0  0
 13 14  1  0  0  0
 13 31  1  0  0  0
 14 15  2  0  0  0
 14 99  1  0  0  0
 15100  1  0  0  0
 16 17  2  0  0  0
 16 21  1  0  0  0
 16 31  1  0  0  0
 17 18  1  0  0  0
 17101  1  0  0  0
 18 19  2  0  0  0
 18102  1  0  0  0
 19 20  1  0  0  0
 19 24  1  0  0  0
 20 21  2  0  0  0
 20103  1  0  0  0
 21 23  1  0  0  0
 22 28  1  0  0  0
 22 32  2  0  0  0
 26 27  1  0  0  0
 28104  1  0  0  0
 28105  1  0  0  0
 29106  1  0  0  0
 29107  1  0  0  0
 33 34  1  0  0  0
 33 66  1  0  0  0
 33 70  2  0  0  0
 34 36  1  0  0  0
 34 59  1  0  0  0
 34108  1  0  0  0
 35 44  2  0  0  0
 35 45  1  0  0  0
 35 68  1  0  0  0
 36 56  1  0  0  0
 36109  1  0  0  0
 37 39  1  0  0  0
 37 47  1  0  0  0
 37 66  1  0  0  0
 37110  1  0  0  0
 38 43  2  0  0  0
 38 46  1  0  0  0
 38 47  1  0  0  0
 39 64  1  0  0  0
 39 67  2  0  0  0
 40 52  1  0  0  0
 40 53  2  0  0  0
 40 58  1  0  0  0
 41111  1  0  0  0
 41112  1  0  0  0
 41113  1  0  0  0
 41 48  1  0  0  0
 42 43  1  0  0  0
 42 66  1  0  0  0
 42114  1  0  0  0
 42115  1  0  0  0
 43 44  1  0  0  0
 44116  1  0  0  0
 45 46  2  0  0  0
 45117  1  0  0  0
 46118  1  0  0  0
 47119  1  0  0  0
 47120  1  0  0  0
 48 56  1  0  0  0
 48 65  1  0  0  0
 48121  1  0  0  0
 49 50  1  0  0  0
 49 53  1  0  0  0
 49 64  1  0  0  0
 49122  1  0  0  0
 50 51  1  0  0  0
 50123  1  0  0  0
 50124  1  0  0  0
 51 52  1  0  0  0
 51125  1  0  0  0
 51126  1  0  0  0
 52127  1  0  0  0
 52128  1  0  0  0
 53 54  1  0  0  0
 54 55  2  0  0  0
 54129  1  0  0  0
 55 57  1  0  0  0
 55130  1  0  0  0
 56 69  2  0  0  0
 57 58  2  0  0  0
 57131  1  0  0  0
 58132  1  0  0  0
 59 60  1  0  0  0
 59 61  1  0  0  0
 59 62  1  0  0  0
 60133  1  0  0  0
 60134  1  0  0  0
 60135  1  0  0  0
 61136  1  0  0  0
 61137  1  0  0  0
 61138  1  0  0  0
 62139  1  0  0  0
 62140  1  0  0  0
 62141  1  0  0  0
 63 65  1  0  0  0
 63142  1  0  0  0
 63143  1  0  0  0
 63144  1  0  0  0
 64145  1  0  0  0
 65146  1  0  0  0
 68 78  1  0  0  0
 71 72  2  0  0  0
 71 74  1  0  0  0
 71 87  1  0  0  0
 72 81  1  0  0  0
 72 82  1  0  0  0
 73 81  2  0  0  0
 73 83  1  0  0  0
 73 87  1  0  0  0
 74 84  1  0  0  0
 74 85  2  0  0  0
 75 78  1  0  0  0
 75 79  1  0  0  0
 75 86  2  0  0  0
 76147  1  0  0  0
 76148  1  0  0  0
 76149  1  0  0  0
 76 80  1  0  0  0
 77 80  1  0  0  0
 77150  1  0  0  0
 77151  1  0  0  0
 77152  1  0  0  0
 78153  1  0  0  0
 78154  1  0  0  0
 79 80  1  0  0  0
 79 84  1  0  0  0
 79155  1  0  0  0
 80156  1  0  0  0
 82157  1  0  0  0
 82158  1  0  0  0
 83159  1  0  0  0
 84160  1  0  0  0
M  ISO  4   1 100  68 101  78 101  83 100
M  END
> <chiral flag>
0

> <version>
0

> <s_m_source_file>
/data/baiqing/PycharmProjects/Reinvent-master-3.2/result/LINK_invent/BTK/process_docking_weight1_custom_product_contain_oxygen_bond_distance_aromatic_linkinvent_7_9_3/rearranged_h_0183.sdf

> <i_m_source_file_index>
26

> <r_mmod_Potential_Energy-OPLS-2005>
-110.648727416992

> <r_mmod_Stretch_Energy-OPLS-2005>
56.3072280883789

> <r_mmod_Bend_Energy-OPLS-2005>
135.733352661133

> <r_mmod_Torsional_Energy-OPLS-2005>
235.133819580078

> <r_mmod_Improper_Torsional_Energy-OPLS-2005>
8.27573490142822

> <r_mmod_Van_der_Waal_Energy-OPLS-2005>
126.877319335938

> <r_mmod_Electrostatic_Energy-OPLS-2005>
-418.121124267578

> <r_mmod_Solvation_Energy-OPLS-2005>
-280.751159667969

> <b_mmod_Minimization_Converged-OPLS-2005>
0

> <r_mmod_RMS_Derivative-OPLS-2005>
1.57931625843048

$$$$
26
                    3D
 Structure written by MMmdl.
162170  0  0  1  0            999 V2000
  -30.7159  -14.6362   20.4044 C   0  0  0  0  0  0
  -30.4276  -12.3646   19.4385 C   0  0  0  0  0  0
  -29.4968  -12.3917   18.2088 C   0  0  0  0  0  0
  -28.0113  -12.2900   18.6243 C   0  0  0  0  0  0
  -27.6339  -13.1951   19.8286 C   0  0  2  0  0  0
  -28.7057  -13.1713   20.9436 C   0  0  0  0  0  0
  -25.2562  -13.8063   20.5778 C   0  0  0  0  0  0
  -24.1811  -13.0364   20.9288 C   0  0  0  0  0  0
  -24.6371  -11.6843   20.8791 C   0  0  0  0  0  0
  -23.9052  -10.4227   21.0427 C   0  0  0  0  0  0
  -24.3601   -9.4139   21.9205 C   0  0  0  0  0  0
  -23.6287   -8.2167   22.0731 C   0  0  0  0  0  0
  -22.4277   -8.0222   21.3501 C   0  0  0  0  0  0
  -21.9908   -9.0222   20.4633 C   0  0  0  0  0  0
  -22.7238  -10.2101   20.3061 C   0  0  0  0  0  0
  -21.6840   -6.0715   22.5267 C   0  0  0  0  0  0
  -21.4022   -6.5633   23.8206 C   0  0  0  0  0  0
  -21.3654   -5.6790   24.9174 C   0  0  0  0  0  0
  -21.6041   -4.3048   24.7226 C   0  0  0  0  0  0
  -21.8822   -3.8134   23.4341 C   0  0  0  0  0  0
  -21.9201   -4.6945   22.3399 C   0  0  0  0  0  0
  -22.7845  -13.5183   21.1871 C   0  0  0  0  0  0
  -22.1652   -4.2124   21.0986 F   0  0  0  0  0  0
  -21.5613   -3.4541   25.7738 F   0  0  0  0  0  0
  -30.0063  -13.4610   20.3238 N   0  0  0  0  0  0
  -26.2938  -12.9203   20.3319 N   0  0  0  0  0  0
  -25.9306  -11.6388   20.5850 N   0  0  0  0  0  0
  -22.0454  -12.8207   22.0423 N   0  0  0  0  0  0
  -25.4260  -15.1774   20.4198 N   0  0  0  0  0  0
  -31.9390  -14.6332   20.2688 O   0  0  0  0  0  0
  -21.6605   -6.8850   21.4228 O   0  0  0  0  0  0
  -22.3571  -14.5492   20.6697 O   0  0  0  0  0  0
  -24.6221  -31.8640   23.2058 C   0  0  0  0  0  0
  -25.9085  -32.4828   23.8377 C   0  0  1  0  0  0
  -27.2614  -27.4054   20.1222 C   0  0  0  0  0  0
  -25.5887  -33.8601   24.2326 N   0  0  0  0  0  0
  -23.4146  -30.4856   21.5447 C   0  0  2  0  0  0
  -24.8681  -28.9393   20.1276 C   0  0  0  0  0  0
  -22.7460  -29.4645   22.4942 C   0  0  0  0  0  0
  -18.0276  -28.1330   22.8482 C   0  0  0  0  0  0
  -24.1478  -36.7334   23.2626 C   0  0  0  0  0  0
  -25.9464  -30.8223   21.3646 C   0  0  0  0  0  0
  -26.0264  -29.4460   20.7300 C   0  0  0  0  0  0
  -27.2267  -28.6900   20.7260 C   0  0  0  0  0  0
  -26.0862  -26.9232   19.5115 C   0  0  0  0  0  0
  -24.8942  -27.6724   19.5146 C   0  0  0  0  0  0
  -23.6300  -29.8111   20.1633 C   0  0  0  0  0  0
  -25.4093  -36.3127   24.0354 C   0  0  1  0  0  0
  -20.5892  -28.3687   23.1328 C   0  0  2  0  0  0
  -20.6805  -26.9406   22.5478 C   0  0  0  0  0  0
  -19.5793  -26.6323   21.5261 C   0  0  0  0  0  0
  -18.1942  -26.7871   22.1628 C   0  0  0  0  0  0
  -19.1534  -28.8816   23.2881 C   0  0  0  0  0  0
  -18.9436  -30.1418   23.8858 C   0  0  0  0  0  0
  -17.6447  -30.6565   24.0514 C   0  0  0  0  0  0
  -25.9024  -34.9483   23.5158 C   0  0  0  0  0  0
  -16.5336  -29.9058   23.6287 C   0  0  0  0  0  0
  -16.7262  -28.6469   23.0328 C   0  0  0  0  0  0
  -26.4478  -31.6594   25.0703 C   0  0  0  0  0  0
  -25.3746  -31.3698   26.1483 C   0  0  0  0  0  0
  -27.0313  -30.3020   24.6079 C   0  0  0  0  0  0
  -27.6052  -32.4319   25.7471 C   0  0  0  0  0  0
  -27.5577  -37.1820   24.8445 C   0  0  0  0  0  0
  -21.4171  -29.3064   22.3724 N   0  0  0  0  0  0
  -26.4267  -37.3833   23.9418 N   0  0  0  0  0  0
  -24.6795  -31.0714   22.0970 N   0  0  0  0  0  0
  -23.4221  -28.8174   23.2982 O   0  0  0  0  0  0
  -28.4148  -26.6648   19.9063 O   0  0  0  0  0  0
  -26.5598  -34.8972   22.4709 O   0  0  0  0  0  0
  -23.5399  -32.1380   23.7413 O   0  0  0  0  0  0
  -30.6603  -19.1513   19.7583 C   0  0  0  0  0  0
  -30.2374  -20.5246   19.7634 C   0  0  0  0  0  0
  -30.2920  -18.4415   20.8793 C   0  0  0  0  0  0
  -29.5800  -20.9190   20.9074 C   0  0  0  0  0  0
  -29.2267  -16.1444   19.3213 C   0  0  0  0  0  0
  -29.2112  -23.3694   20.6955 C   0  0  0  0  0  0
  -28.0127  -17.0582   19.5311 C   0  0  0  0  0  0
  -28.9768  -24.4373   22.9954 C   0  0  0  0  0  0
  -29.7433  -27.0651   21.9658 C   0  0  0  0  0  0
  -30.5440  -16.9664   21.2443 C   0  0  0  0  0  0
  -28.6890  -24.6344   21.4807 C   0  0  1  0  0  0
  -29.2081  -26.0424   20.9414 C   0  0  1  0  0  0
  -29.0789  -22.1469   21.2810 N   0  0  0  0  0  0
  -30.0457  -15.8468   20.3664 N   0  0  0  0  0  0
  -29.3620  -15.6659   18.1886 O   0  0  0  0  0  0
  -29.6992  -23.5030   19.5711 O   0  0  0  0  0  0
  -29.4430  -19.5241   21.9750 S   0  0  0  0  0  0
  -31.4709  -12.4542   19.1229 H   0  0  0  0  0  0
  -30.3468  -11.4060   19.9553 H   0  0  0  0  0  0
  -29.7397  -11.5538   17.5555 H   0  0  0  0  0  0
  -29.6721  -13.2854   17.6122 H   0  0  0  0  0  0
  -27.8143  -11.2470   18.8741 H   0  0  0  0  0  0
  -27.3699  -12.5102   17.7683 H   0  0  0  0  0  0
  -27.5755  -14.1893   19.4099 H   0  0  0  0  0  0
  -28.7248  -12.1997   21.4388 H   0  0  0  0  0  0
  -28.4744  -13.9042   21.7207 H   0  0  0  0  0  0
  -25.2720   -9.5625   22.4826 H   0  0  0  0  0  0
  -23.9969   -7.4566   22.7474 H   0  0  0  0  0  0
  -21.0809   -8.8790   19.8997 H   0  0  0  0  0  0
  -22.3684  -10.9668   19.6182 H   0  0  0  0  0  0
  -21.2010   -7.6143   23.9708 H   0  0  0  0  0  0
  -21.1487   -6.0511   25.9078 H   0  0  0  0  0  0
  -22.0620   -2.7596   23.2855 H   0  0  0  0  0  0
  -22.4042  -11.9851   22.4847 H   0  0  0  0  0  0
  -21.1069  -13.1302   22.2607 H   0  0  0  0  0  0
  -24.6642  -15.8345   20.5467 H   0  0  0  0  0  0
  -26.2768  -15.6123   20.0963 H   0  0  0  0  0  0
  -26.7174  -32.5595   23.1168 H   0  0  0  0  0  0
  -25.0081  -33.9724   25.0516 H   0  0  0  0  0  0
  -22.7079  -31.3051   21.3975 H   0  0  0  0  0  0
  -23.3758  -35.9649   23.3290 H   0  0  0  0  0  0
  -24.3536  -36.8909   22.2016 H   0  0  0  0  0  0
  -23.7226  -37.6541   23.6649 H   0  0  0  0  0  0
  -26.0535  -31.5799   20.5875 H   0  0  0  0  0  0
  -26.8376  -30.8857   21.9788 H   0  0  0  0  0  0
  -28.1269  -29.1175   21.1424 H   0  0  0  0  0  0
  -26.1148  -25.9668   19.0072 H   0  0  0  0  0  0
  -24.0160  -27.2753   19.0233 H   0  0  0  0  0  0
  -23.7466  -30.5875   19.4041 H   0  0  0  0  0  0
  -22.7596  -29.2226   19.8641 H   0  0  0  0  0  0
  -25.1283  -36.1985   25.0851 H   0  0  0  0  0  0
  -20.9984  -28.3334   24.1459 H   0  0  0  0  0  0
  -20.5674  -26.2304   23.3673 H   0  0  0  0  0  0
  -21.6703  -26.7418   22.1367 H   0  0  0  0  0  0
  -19.7009  -25.6239   21.1289 H   0  0  0  0  0  0
  -19.6763  -27.3121   20.6786 H   0  0  0  0  0  0
  -17.4246  -26.6571   21.4015 H   0  0  0  0  0  0
  -18.0301  -25.9989   22.8978 H   0  0  0  0  0  0
  -19.7890  -30.7233   24.2222 H   0  0  0  0  0  0
  -17.4997  -31.6255   24.5078 H   0  0  0  0  0  0
  -15.5335  -30.2960   23.7593 H   0  0  0  0  0  0
  -15.8648  -28.0775   22.7083 H   0  0  0  0  0  0
  -24.5926  -30.7027   25.7840 H   0  0  0  0  0  0
  -24.8973  -32.2843   26.5019 H   0  0  0  0  0  0
  -25.8121  -30.8834   27.0206 H   0  0  0  0  0  0
  -26.2859  -29.6763   24.1160 H   0  0  0  0  0  0
  -27.4059  -29.7260   25.4540 H   0  0  0  0  0  0
  -27.8726  -30.4284   23.9264 H   0  0  0  0  0  0
  -27.2689  -33.3599   26.2118 H   0  0  0  0  0  0
  -28.3872  -32.6876   25.0311 H   0  0  0  0  0  0
  -28.0752  -31.8400   26.5338 H   0  0  0  0  0  0
  -28.2616  -38.0108   24.7541 H   0  0  0  0  0  0
  -28.1054  -36.2635   24.6256 H   0  0  0  0  0  0
  -27.2278  -37.1464   25.8839 H   0  0  0  0  0  0
  -20.9278  -29.8796   21.6982 H   0  0  0  0  0  0
  -26.0171  -38.2903   24.1465 H   0  0  0  0  0  0
  -31.2068  -18.7404   18.9217 H   0  0  0  0  0  0
  -30.4489  -21.1706   18.9212 H   0  0  0  0  0  0
  -28.2249  -18.0856   19.2379 H   0  0  0  0  0  0
  -27.6768  -17.0470   20.5684 H   0  0  0  0  0  0
  -27.1917  -16.7318   18.8929 H   0  0  0  0  0  0
  -28.4298  -23.5915   23.4099 H   0  0  0  0  0  0
  -28.6744  -25.2874   23.6000 H   0  0  0  0  0  0
  -30.0390  -24.2651   23.1765 H   0  0  0  0  0  0
  -30.5978  -26.6457   22.5030 H   0  0  0  0  0  0
  -28.9972  -27.3668   22.7003 H   0  0  0  0  0  0
  -30.1101  -27.9658   21.4628 H   0  0  0  0  0  0
  -30.1502  -16.7808   22.2431 H   0  0  0  0  0  0
  -31.6264  -16.8680   21.3600 H   0  0  0  0  0  0
  -27.6047  -24.6335   21.3661 H   0  0  0  0  0  0
  -30.1200  -25.8191   20.3865 H   0  0  0  0  0  0
  -28.6105  -22.1563   22.1752 H   0  0  0  0  0  0
  1 25  1  0  0  0
  1 30  2  0  0  0
  1 84  1  0  0  0
  2  3  1  0  0  0
  2 25  1  0  0  0
  2 88  1  0  0  0
  2 89  1  0  0  0
  3  4  1  0  0  0
  3 90  1  0  0  0
  3 91  1  0  0  0
  4  5  1  0  0  0
  4 92  1  0  0  0
  4 93  1  0  0  0
  5  6  1  0  0  0
  5 26  1  0  0  0
  5 94  1  0  0  0
  6 25  1  0  0  0
  6 95  1  0  0  0
  6 96  1  0  0  0
  7  8  2  0  0  0
  7 26  1  0  0  0
  7 29  1  0  0  0
  8  9  1  0  0  0
  8 22  1  0  0  0
  9 10  1  0  0  0
  9 27  2  0  0  0
 10 11  2  0  0  0
 10 15  1  0  0  0
 11 12  1  0  0  0
 11 97  1  0  0  0
 12 13  2  0  0  0
 12 98  1  0  0  0
 13 14  1  0  0  0
 13 31  1  0  0  0
 14 15  2  0  0  0
 14 99  1  0  0  0
 15100  1  0  0  0
 16 17  2  0  0  0
 16 21  1  0  0  0
 16 31  1  0  0  0
 17 18  1  0  0  0
 17101  1  0  0  0
 18 19  2  0  0  0
 18102  1  0  0  0
 19 20  1  0  0  0
 19 24  1  0  0  0
 20 21  2  0  0  0
 20103  1  0  0  0
 21 23  1  0  0  0
 22 28  1  0  0  0
 22 32  2  0  0  0
 26 27  1  0  0  0
 28104  1  0  0  0
 28105  1  0  0  0
 29106  1  0  0  0
 29107  1  0  0  0
 33 34  1  0  0  0
 33 66  1  0  0  0
 33 70  2  0  0  0
 34 36  1  0  0  0
 34 59  1  0  0  0
 34108  1  0  0  0
 35 44  2  0  0  0
 35 45  1  0  0  0
 35 68  1  0  0  0
 36 56  1  0  0  0
 36109  1  0  0  0
 37 39  1  0  0  0
 37 47  1  0  0  0
 37 66  1  0  0  0
 37110  1  0  0  0
 38 43  2  0  0  0
 38 46  1  0  0  0
 38 47  1  0  0  0
 39 64  1  0  0  0
 39 67  2  0  0  0
 40 52  1  0  0  0
 40 53  2  0  0  0
 40 58  1  0  0  0
 41111  1  0  0  0
 41112  1  0  0  0
 41113  1  0  0  0
 41 48  1  0  0  0
 42 43  1  0  0  0
 42 66  1  0  0  0
 42114  1  0  0  0
 42115  1  0  0  0
 43 44  1  0  0  0
 44116  1  0  0  0
 45 46  2  0  0  0
 45117  1  0  0  0
 46118  1  0  0  0
 47119  1  0  0  0
 47120  1  0  0  0
 48 56  1  0  0  0
 48 65  1  0  0  0
 48121  1  0  0  0
 49 50  1  0  0  0
 49 53  1  0  0  0
 49 64  1  0  0  0
 49122  1  0  0  0
 50 51  1  0  0  0
 50123  1  0  0  0
 50124  1  0  0  0
 51 52  1  0  0  0
 51125  1  0  0  0
 51126  1  0  0  0
 52127  1  0  0  0
 52128  1  0  0  0
 53 54  1  0  0  0
 54 55  2  0  0  0
 54129  1  0  0  0
 55 57  1  0  0  0
 55130  1  0  0  0
 56 69  2  0  0  0
 57 58  2  0  0  0
 57131  1  0  0  0
 58132  1  0  0  0
 59 60  1  0  0  0
 59 61  1  0  0  0
 59 62  1  0  0  0
 60133  1  0  0  0
 60134  1  0  0  0
 60135  1  0  0  0
 61136  1  0  0  0
 61137  1  0  0  0
 61138  1  0  0  0
 62139  1  0  0  0
 62140  1  0  0  0
 62141  1  0  0  0
 63 65  1  0  0  0
 63142  1  0  0  0
 63143  1  0  0  0
 63144  1  0  0  0
 64145  1  0  0  0
 65146  1  0  0  0
 68 82  1  0  0  0
 71 72  1  0  0  0
 71 73  2  0  0  0
 71147  1  0  0  0
 72 74  2  0  0  0
 72148  1  0  0  0
 73 80  1  0  0  0
 73 87  1  0  0  0
 74 83  1  0  0  0
 74 87  1  0  0  0
 75 77  1  0  0  0
 75 84  1  0  0  0
 75 85  2  0  0  0
 76 81  1  0  0  0
 76 83  1  0  0  0
 76 86  2  0  0  0
 77149  1  0  0  0
 77150  1  0  0  0
 77151  1  0  0  0
 78152  1  0  0  0
 78153  1  0  0  0
 78154  1  0  0  0
 78 81  1  0  0  0
 79155  1  0  0  0
 79156  1  0  0  0
 79157  1  0  0  0
 79 82  1  0  0  0
 80 84  1  0  0  0
 80158  1  0  0  0
 80159  1  0  0  0
 81 82  1  0  0  0
 81160  1  0  0  0
 82161  1  0  0  0
 83162  1  0  0  0
M  ISO  4   1 100  68 101  82 101  84 100
M  END
> <chiral flag>
0

> <version>
0

> <s_m_source_file>
/data/baiqing/PycharmProjects/Reinvent-master-3.2/result/LINK_invent/BTK/process_docking_weight1_custom_product_contain_oxygen_bond_distance_aromatic_linkinvent_7_9_3/rearranged_h_0183.sdf

> <i_m_source_file_index>
27

> <r_mmod_Potential_Energy-OPLS-2005>
157.357864379883

> <r_mmod_Stretch_Energy-OPLS-2005>
64.277946472168

> <r_mmod_Bend_Energy-OPLS-2005>
164.357574462891

> <r_mmod_Torsional_Energy-OPLS-2005>
334.227233886719

> <r_mmod_Improper_Torsional_Energy-OPLS-2005>
8.11630153656006

> <r_mmod_Van_der_Waal_Energy-OPLS-2005>
144.727111816406

> <r_mmod_Electrostatic_Energy-OPLS-2005>
-393.759765625

> <r_mmod_Solvation_Energy-OPLS-2005>
-215.324600219727

> <b_mmod_Minimization_Converged-OPLS-2005>
0

> <r_mmod_RMS_Derivative-OPLS-2005>
5.31244421005249

$$$$
27
                    3D
 Structure written by MMmdl.
152160  0  0  1  0            999 V2000
  -30.5859  -14.7748   20.4474 C   0  0  0  0  0  0
  -30.4368  -12.4703   19.4813 C   0  0  0  0  0  0
  -29.5148  -12.5118   18.2418 C   0  0  0  0  0  0
  -28.0414  -12.3279   18.6537 C   0  0  0  0  0  0
  -27.6409  -13.2318   19.8502 C   0  0  2  0  0  0
  -28.6836  -13.1716   20.9880 C   0  0  0  0  0  0
  -25.2508  -13.8192   20.5696 C   0  0  0  0  0  0
  -24.1800  -13.0437   20.9205 C   0  0  0  0  0  0
  -24.6390  -11.6916   20.8741 C   0  0  0  0  0  0
  -23.9067  -10.4294   21.0407 C   0  0  0  0  0  0
  -24.3618   -9.4209   21.9186 C   0  0  0  0  0  0
  -23.6294   -8.2244   22.0755 C   0  0  0  0  0  0
  -22.4276   -8.0282   21.3545 C   0  0  0  0  0  0
  -21.9912   -9.0254   20.4647 C   0  0  0  0  0  0
  -22.7240  -10.2134   20.3056 C   0  0  0  0  0  0
  -21.6854   -6.0738   22.5282 C   0  0  0  0  0  0
  -21.4016   -6.5640   23.8215 C   0  0  0  0  0  0
  -21.3659   -5.6791   24.9176 C   0  0  0  0  0  0
  -21.6043   -4.3054   24.7226 C   0  0  0  0  0  0
  -21.8817   -3.8148   23.4345 C   0  0  0  0  0  0
  -21.9192   -4.6966   22.3403 C   0  0  0  0  0  0
  -22.7821  -13.5222   21.1870 C   0  0  0  0  0  0
  -22.1661   -4.2152   21.0981 F   0  0  0  0  0  0
  -21.5627   -3.4536   25.7737 F   0  0  0  0  0  0
  -29.9846  -13.5334   20.4107 N   0  0  0  0  0  0
  -26.2932  -12.9397   20.3269 N   0  0  0  0  0  0
  -25.9320  -11.6540   20.5738 N   0  0  0  0  0  0
  -22.0464  -12.8214   22.0424 N   0  0  0  0  0  0
  -25.4188  -15.1922   20.4130 N   0  0  0  0  0  0
  -31.7733  -14.8783   20.1218 O   0  0  0  0  0  0
  -21.6641   -6.8880   21.4243 O   0  0  0  0  0  0
  -22.3506  -14.5527   20.6716 O   0  0  0  0  0  0
  -24.6334  -31.8520   23.1938 C   0  0  0  0  0  0
  -25.9150  -32.4733   23.8294 C   0  0  1  0  0  0
  -27.2285  -27.2419   20.1226 C   0  0  0  0  0  0
  -25.5935  -33.8534   24.2224 N   0  0  0  0  0  0
  -23.4301  -30.4719   21.5383 C   0  0  2  0  0  0
  -24.8764  -28.9101   20.1084 C   0  0  0  0  0  0
  -22.7510  -29.4586   22.4911 C   0  0  0  0  0  0
  -18.0289  -28.1394   22.8482 C   0  0  0  0  0  0
  -24.1492  -36.7280   23.2640 C   0  0  0  0  0  0
  -25.9759  -30.7593   21.3722 C   0  0  0  0  0  0
  -26.0473  -29.3790   20.7141 C   0  0  0  0  0  0
  -27.2201  -28.5574   20.7071 C   0  0  0  0  0  0
  -26.0238  -26.8304   19.5152 C   0  0  0  0  0  0
  -24.8708  -27.6444   19.4995 C   0  0  0  0  0  0
  -23.6473  -29.7990   20.1561 C   0  0  0  0  0  0
  -25.4120  -36.3057   24.0320 C   0  0  1  0  0  0
  -20.5893  -28.3706   23.1272 C   0  0  2  0  0  0
  -20.6778  -26.9422   22.5412 C   0  0  0  0  0  0
  -19.5752  -26.6388   21.5217 C   0  0  0  0  0  0
  -18.1932  -26.7934   22.1626 C   0  0  0  0  0  0
  -19.1542  -28.8867   23.2869 C   0  0  0  0  0  0
  -18.9462  -30.1467   23.8890 C   0  0  0  0  0  0
  -17.6460  -30.6592   24.0564 C   0  0  0  0  0  0
  -25.9061  -34.9429   23.5079 C   0  0  0  0  0  0
  -16.5351  -29.9089   23.6333 C   0  0  0  0  0  0
  -16.7274  -28.6508   23.0350 C   0  0  0  0  0  0
  -26.4507  -31.6564   25.0695 C   0  0  0  0  0  0
  -25.3720  -31.3720   26.1410 C   0  0  0  0  0  0
  -27.0357  -30.2978   24.6191 C   0  0  0  0  0  0
  -27.6052  -32.4313   25.7477 C   0  0  0  0  0  0
  -27.5576  -37.1798   24.8466 C   0  0  0  0  0  0
  -21.4215  -29.3045   22.3658 N   0  0  0  0  0  0
  -26.4293  -37.3760   23.9402 N   0  0  0  0  0  0
  -24.6993  -31.0467   22.0912 N   0  0  0  0  0  0
  -23.4203  -28.8138   23.3023 O   0  0  0  0  0  0
  -28.3644  -26.3964   20.2079 O   0  0  0  0  0  0
  -26.5647  -34.8915   22.4655 O   0  0  0  0  0  0
  -23.5484  -32.1349   23.7232 O   0  0  0  0  0  0
  -31.1046  -17.9248   19.8859 C   0  0  0  0  0  0
  -29.9834  -17.3576   20.4450 C   0  0  0  0  0  0
  -29.0156  -18.4238   20.7597 C   0  0  0  0  0  0
  -29.3731  -19.7610   20.4721 C   0  0  0  0  0  0
  -28.6651  -21.0866   20.7457 C   0  0  0  0  0  0
  -28.2246  -23.6812   20.4408 C   0  0  0  0  0  0
  -28.5943  -25.0128   19.6082 C   0  0  2  0  0  0
  -28.3091  -24.8831   18.0893 C   0  0  0  0  0  0
  -29.7837  -15.8923   20.6747 N   0  0  0  0  0  0
  -28.9021  -22.3476   20.1561 N   0  0  0  0  0  0
  -27.7046  -21.0033   21.6832 N   0  3  0  0  0  0
  -27.3775  -23.7420   21.3445 O   0  0  0  0  0  0
  -27.8683  -18.1220   21.3247 F   0  0  0  0  0  0
  -28.4297  -26.0623   17.4750 F   0  0  0  0  0  0
  -29.2018  -24.0496   17.5502 F   0  0  0  0  0  0
  -27.1014  -24.3775   17.8379 F   0  0  0  0  0  0
  -30.9798  -19.6930   19.7659 S   0  0  0  0  0  0
  -31.4769  -12.6025   19.1786 H   0  0  0  0  0  0
  -30.3898  -11.4946   19.9676 H   0  0  0  0  0  0
  -29.8038  -11.7382   17.5291 H   0  0  0  0  0  0
  -29.6356  -13.4651   17.7243 H   0  0  0  0  0  0
  -27.9062  -11.2796   18.9230 H   0  0  0  0  0  0
  -27.3839  -12.5092   17.8024 H   0  0  0  0  0  0
  -27.6319  -14.2515   19.4644 H   0  0  0  0  0  0
  -28.7231  -12.1736   21.4268 H   0  0  0  0  0  0
  -28.4106  -13.8492   21.7985 H   0  0  0  0  0  0
  -25.2763   -9.5684   22.4762 H   0  0  0  0  0  0
  -24.0001   -7.4635   22.7474 H   0  0  0  0  0  0
  -21.0843   -8.8772   19.8954 H   0  0  0  0  0  0
  -22.3697  -10.9671   19.6165 H   0  0  0  0  0  0
  -21.2010   -7.6149   23.9718 H   0  0  0  0  0  0
  -21.1484   -6.0523   25.9079 H   0  0  0  0  0  0
  -22.0597   -2.7610   23.2845 H   0  0  0  0  0  0
  -22.4073  -11.9872   22.4812 H   0  0  0  0  0  0
  -21.1082  -13.1241   22.2627 H   0  0  0  0  0  0
  -24.6494  -15.8420   20.5312 H   0  0  0  0  0  0
  -26.2645  -15.6403   20.0856 H   0  0  0  0  0  0
  -26.7215  -32.5371   23.1031 H   0  0  0  0  0  0
  -25.0060  -33.9661   25.0356 H   0  0  0  0  0  0
  -22.7271  -31.2943   21.3893 H   0  0  0  0  0  0
  -23.3752  -35.9614   23.3302 H   0  0  0  0  0  0
  -24.3576  -36.8908   22.2053 H   0  0  0  0  0  0
  -23.7251  -37.6480   23.6673 H   0  0  0  0  0  0
  -26.1135  -31.5177   20.6005 H   0  0  0  0  0  0
  -26.8548  -30.8112   22.0036 H   0  0  0  0  0  0
  -28.1186  -28.9151   21.1901 H   0  0  0  0  0  0
  -25.9262  -25.8494   19.0877 H   0  0  0  0  0  0
  -23.9681  -27.2715   19.0355 H   0  0  0  0  0  0
  -23.7697  -30.5722   19.3967 H   0  0  0  0  0  0
  -22.7650  -29.2308   19.8557 H   0  0  0  0  0  0
  -25.1307  -36.1894   25.0813 H   0  0  0  0  0  0
  -20.9979  -28.3289   24.1396 H   0  0  0  0  0  0
  -20.5680  -26.2319   23.3619 H   0  0  0  0  0  0
  -21.6646  -26.7448   22.1204 H   0  0  0  0  0  0
  -19.6916  -25.6299   21.1247 H   0  0  0  0  0  0
  -19.6688  -27.3201   20.6747 H   0  0  0  0  0  0
  -17.4201  -26.6679   21.4029 H   0  0  0  0  0  0
  -18.0332  -26.0080   22.9026 H   0  0  0  0  0  0
  -19.7935  -30.7287   24.2256 H   0  0  0  0  0  0
  -17.5011  -31.6268   24.5173 H   0  0  0  0  0  0
  -15.5351  -30.2987   23.7662 H   0  0  0  0  0  0
  -15.8674  -28.0828   22.7066 H   0  0  0  0  0  0
  -24.5909  -30.7057   25.7733 H   0  0  0  0  0  0
  -24.8897  -32.2891   26.4802 H   0  0  0  0  0  0
  -25.8029  -30.8917   27.0202 H   0  0  0  0  0  0
  -26.2943  -29.6716   24.1216 H   0  0  0  0  0  0
  -27.4037  -29.7249   25.4712 H   0  0  0  0  0  0
  -27.8819  -30.4248   23.9435 H   0  0  0  0  0  0
  -27.2654  -33.3620   26.2031 H   0  0  0  0  0  0
  -28.3877  -32.6859   25.0316 H   0  0  0  0  0  0
  -28.0707  -31.8450   26.5410 H   0  0  0  0  0  0
  -28.2599  -38.0089   24.7501 H   0  0  0  0  0  0
  -28.1068  -36.2618   24.6311 H   0  0  0  0  0  0
  -27.2291  -37.1469   25.8869 H   0  0  0  0  0  0
  -20.9411  -29.8749   21.6838 H   0  0  0  0  0  0
  -26.0167  -38.2834   24.1390 H   0  0  0  0  0  0
  -32.0033  -17.4323   19.5338 H   0  0  0  0  0  0
  -29.6832  -24.9957   19.6621 H   0  0  0  0  0  0
  -28.8542  -15.6533   20.9857 H   0  0  0  0  0  0
  -29.6257  -22.2962   19.4564 H   0  0  0  0  0  0
  -27.1895  -21.8294   21.9678 H   0  0  0  0  0  0
  -27.4669  -20.1092   22.0917 H   0  0  0  0  0  0
  1 25  1  0  0  0
  1 30  2  0  0  0
  1 79  1  0  0  0
  2  3  1  0  0  0
  2 25  1  0  0  0
  2 88  1  0  0  0
  2 89  1  0  0  0
  3  4  1  0  0  0
  3 90  1  0  0  0
  3 91  1  0  0  0
  4  5  1  0  0  0
  4 92  1  0  0  0
  4 93  1  0  0  0
  5  6  1  0  0  0
  5 26  1  0  0  0
  5 94  1  0  0  0
  6 25  1  0  0  0
  6 95  1  0  0  0
  6 96  1  0  0  0
  7  8  2  0  0  0
  7 26  1  0  0  0
  7 29  1  0  0  0
  8  9  1  0  0  0
  8 22  1  0  0  0
  9 10  1  0  0  0
  9 27  2  0  0  0
 10 11  2  0  0  0
 10 15  1  0  0  0
 11 12  1  0  0  0
 11 97  1  0  0  0
 12 13  2  0  0  0
 12 98  1  0  0  0
 13 14  1  0  0  0
 13 31  1  0  0  0
 14 15  2  0  0  0
 14 99  1  0  0  0
 15100  1  0  0  0
 16 17  2  0  0  0
 16 21  1  0  0  0
 16 31  1  0  0  0
 17 18  1  0  0  0
 17101  1  0  0  0
 18 19  2  0  0  0
 18102  1  0  0  0
 19 20  1  0  0  0
 19 24  1  0  0  0
 20 21  2  0  0  0
 20103  1  0  0  0
 21 23  1  0  0  0
 22 28  1  0  0  0
 22 32  2  0  0  0
 26 27  1  0  0  0
 28104  1  0  0  0
 28105  1  0  0  0
 29106  1  0  0  0
 29107  1  0  0  0
 33 34  1  0  0  0
 33 66  1  0  0  0
 33 70  2  0  0  0
 34 36  1  0  0  0
 34 59  1  0  0  0
 34108  1  0  0  0
 35 44  2  0  0  0
 35 45  1  0  0  0
 35 68  1  0  0  0
 36 56  1  0  0  0
 36109  1  0  0  0
 37 39  1  0  0  0
 37 47  1  0  0  0
 37 66  1  0  0  0
 37110  1  0  0  0
 38 43  2  0  0  0
 38 46  1  0  0  0
 38 47  1  0  0  0
 39 64  1  0  0  0
 39 67  2  0  0  0
 40 52  1  0  0  0
 40 53  2  0  0  0
 40 58  1  0  0  0
 41111  1  0  0  0
 41112  1  0  0  0
 41113  1  0  0  0
 41 48  1  0  0  0
 42 43  1  0  0  0
 42 66  1  0  0  0
 42114  1  0  0  0
 42115  1  0  0  0
 43 44  1  0  0  0
 44116  1  0  0  0
 45 46  2  0  0  0
 45117  1  0  0  0
 46118  1  0  0  0
 47119  1  0  0  0
 47120  1  0  0  0
 48 56  1  0  0  0
 48 65  1  0  0  0
 48121  1  0  0  0
 49 50  1  0  0  0
 49 53  1  0  0  0
 49 64  1  0  0  0
 49122  1  0  0  0
 50 51  1  0  0  0
 50123  1  0  0  0
 50124  1  0  0  0
 51 52  1  0  0  0
 51125  1  0  0  0
 51126  1  0  0  0
 52127  1  0  0  0
 52128  1  0  0  0
 53 54  1  0  0  0
 54 55  2  0  0  0
 54129  1  0  0  0
 55 57  1  0  0  0
 55130  1  0  0  0
 56 69  2  0  0  0
 57 58  2  0  0  0
 57131  1  0  0  0
 58132  1  0  0  0
 59 60  1  0  0  0
 59 61  1  0  0  0
 59 62  1  0  0  0
 60133  1  0  0  0
 60134  1  0  0  0
 60135  1  0  0  0
 61136  1  0  0  0
 61137  1  0  0  0
 61138  1  0  0  0
 62139  1  0  0  0
 62140  1  0  0  0
 62141  1  0  0  0
 63 65  1  0  0  0
 63142  1  0  0  0
 63143  1  0  0  0
 63144  1  0  0  0
 64145  1  0  0  0
 65146  1  0  0  0
 68 77  1  0  0  0
 71 72  2  0  0  0
 71 87  1  0  0  0
 71147  1  0  0  0
 72 73  1  0  0  0
 72 79  1  0  0  0
 73 74  2  0  0  0
 73 83  1  0  0  0
 74 75  1  0  0  0
 74 87  1  0  0  0
 75 80  1  0  0  0
 75 81  2  0  0  0
 76 77  1  0  0  0
 76 80  1  0  0  0
 76 82  2  0  0  0
 77 78  1  0  0  0
 77148  1  0  0  0
 78 84  1  0  0  0
 78 85  1  0  0  0
 78 86  1  0  0  0
 79149  1  0  0  0
 80150  1  0  0  0
 81151  1  0  0  0
 81152  1  0  0  0
M  CHG  1  81   1
M  ISO  4   1 100  68 101  77 101  79 100
M  END
> <chiral flag>
0

> <version>
0

> <s_m_source_file>
/data/baiqing/PycharmProjects/Reinvent-master-3.2/result/LINK_invent/BTK/process_docking_weight1_custom_product_contain_oxygen_bond_distance_aromatic_linkinvent_7_9_3/rearranged_h_0183.sdf

> <i_m_source_file_index>
28

> <r_mmod_Potential_Energy-OPLS-2005>
-2.76295948028564

> <r_mmod_Stretch_Energy-OPLS-2005>
142.837814331055

> <r_mmod_Bend_Energy-OPLS-2005>
216.559646606445

> <r_mmod_Torsional_Energy-OPLS-2005>
184.520401000977

> <r_mmod_Improper_Torsional_Energy-OPLS-2005>
4.30154275894165

> <r_mmod_Van_der_Waal_Energy-OPLS-2005>
123.135787963867

> <r_mmod_Electrostatic_Energy-OPLS-2005>
-296.536834716797

> <r_mmod_Solvation_Energy-OPLS-2005>
-471.485534667969

> <b_mmod_Minimization_Converged-OPLS-2005>
0

> <r_mmod_RMS_Derivative-OPLS-2005>
0.602616667747498

$$$$
28
                    3D
 Structure written by MMmdl.
153161  0  0  1  0            999 V2000
  -30.5946  -14.7576   20.4515 C   0  0  0  0  0  0
  -30.4450  -12.4711   19.4441 C   0  0  0  0  0  0
  -29.5097  -12.5067   18.2180 C   0  0  0  0  0  0
  -28.0323  -12.3354   18.6317 C   0  0  0  0  0  0
  -27.6405  -13.2266   19.8392 C   0  0  2  0  0  0
  -28.6931  -13.1672   20.9657 C   0  0  0  0  0  0
  -25.2523  -13.8205   20.5726 C   0  0  0  0  0  0
  -24.1797  -13.0454   20.9223 C   0  0  0  0  0  0
  -24.6382  -11.6923   20.8730 C   0  0  0  0  0  0
  -23.9045  -10.4298   21.0355 C   0  0  0  0  0  0
  -24.3607   -9.4219   21.9143 C   0  0  0  0  0  0
  -23.6300   -8.2245   22.0721 C   0  0  0  0  0  0
  -22.4269   -8.0277   21.3524 C   0  0  0  0  0  0
  -21.9895   -9.0240   20.4606 C   0  0  0  0  0  0
  -22.7207  -10.2125   20.3016 C   0  0  0  0  0  0
  -21.6864   -6.0691   22.5263 C   0  0  0  0  0  0
  -21.4005   -6.5598   23.8183 C   0  0  0  0  0  0
  -21.3680   -5.6757   24.9168 C   0  0  0  0  0  0
  -21.6066   -4.3018   24.7186 C   0  0  0  0  0  0
  -21.8831   -3.8107   23.4310 C   0  0  0  0  0  0
  -21.9202   -4.6934   22.3367 C   0  0  0  0  0  0
  -22.7817  -13.5231   21.1851 C   0  0  0  0  0  0
  -22.1664   -4.2119   21.0941 F   0  0  0  0  0  0
  -21.5662   -3.4496   25.7699 F   0  0  0  0  0  0
  -29.9847  -13.5277   20.3682 N   0  0  0  0  0  0
  -26.2932  -12.9395   20.3255 N   0  0  0  0  0  0
  -25.9318  -11.6534   20.5727 N   0  0  0  0  0  0
  -22.0444  -12.8256   22.0422 N   0  0  0  0  0  0
  -25.4161  -15.1949   20.4154 N   0  0  0  0  0  0
  -31.8086  -14.8577   20.2606 O   0  0  0  0  0  0
  -21.6654   -6.8862   21.4219 O   0  0  0  0  0  0
  -22.3474  -14.5503   20.6668 O   0  0  0  0  0  0
  -24.6311  -31.8553   23.1927 C   0  0  0  0  0  0
  -25.9122  -32.4772   23.8295 C   0  0  1  0  0  0
  -27.2076  -27.2363   20.1576 C   0  0  0  0  0  0
  -25.5893  -33.8578   24.2187 N   0  0  0  0  0  0
  -23.4287  -30.4731   21.5383 C   0  0  2  0  0  0
  -24.8771  -28.9164   20.1127 C   0  0  0  0  0  0
  -22.7524  -29.4580   22.4902 C   0  0  0  0  0  0
  -18.0280  -28.1413   22.8457 C   0  0  0  0  0  0
  -24.1479  -36.7330   23.2624 C   0  0  0  0  0  0
  -25.9746  -30.7642   21.3703 C   0  0  0  0  0  0
  -26.0501  -29.3798   20.7251 C   0  0  0  0  0  0
  -27.2224  -28.5537   20.7323 C   0  0  0  0  0  0
  -26.0217  -26.8529   19.4953 C   0  0  0  0  0  0
  -24.8708  -27.6642   19.4796 C   0  0  0  0  0  0
  -23.6467  -29.8016   20.1562 C   0  0  0  0  0  0
  -25.4116  -36.3097   24.0284 C   0  0  1  0  0  0
  -20.5889  -28.3719   23.1272 C   0  0  2  0  0  0
  -20.6784  -26.9433   22.5421 C   0  0  0  0  0  0
  -19.5756  -26.6382   21.5226 C   0  0  0  0  0  0
  -18.1931  -26.7945   22.1621 C   0  0  0  0  0  0
  -19.1539  -28.8888   23.2853 C   0  0  0  0  0  0
  -18.9452  -30.1484   23.8874 C   0  0  0  0  0  0
  -17.6457  -30.6608   24.0555 C   0  0  0  0  0  0
  -25.9059  -34.9466   23.5065 C   0  0  0  0  0  0
  -16.5345  -29.9101   23.6337 C   0  0  0  0  0  0
  -16.7276  -28.6532   23.0332 C   0  0  0  0  0  0
  -26.4449  -31.6615   25.0720 C   0  0  0  0  0  0
  -25.3628  -31.3817   26.1423 C   0  0  0  0  0  0
  -27.0243  -30.3000   24.6216 C   0  0  0  0  0  0
  -27.5997  -32.4340   25.7538 C   0  0  0  0  0  0
  -27.5591  -37.1813   24.8428 C   0  0  0  0  0  0
  -21.4224  -29.3041   22.3652 N   0  0  0  0  0  0
  -26.4286  -37.3807   23.9404 N   0  0  0  0  0  0
  -24.6982  -31.0498   22.0914 N   0  0  0  0  0  0
  -23.4222  -28.8110   23.2991 O   0  0  0  0  0  0
  -28.2781  -26.3095   20.2170 O   0  0  0  0  0  0
  -26.5671  -34.8947   22.4647 O   0  0  0  0  0  0
  -23.5465  -32.1377   23.7211 O   0  0  0  0  0  0
  -30.4266  -19.4544   22.0010 C   0  0  0  0  0  0
  -29.6998  -19.6627   20.8378 C   0  0  0  0  0  0
  -29.9790  -17.2822   20.7882 C   0  0  0  0  0  0
  -28.7504  -22.1160   20.8359 C   0  0  0  0  0  0
  -27.9733  -25.0782   22.2681 C   0  0  0  0  0  0
  -28.9471  -23.6291   20.2809 C   0  0  0  0  0  0
  -28.0114  -24.9033   20.7327 C   0  0  2  0  0  0
  -30.9681  -20.4607   22.9774 C   0  0  0  0  0  0
  -29.4555  -18.3977   20.1667 N   0  0  0  0  0  0
  -29.4353  -21.0299   20.2994 N   0  0  0  0  0  0
  -29.7694  -15.8738   20.3933 N   0  0  0  0  0  0
  -27.9354  -21.9206   21.7404 O   0  0  0  0  0  0
  -31.5266  -21.4994   22.3555 F   0  0  0  0  0  0
  -30.0164  -20.9270   23.7834 F   0  0  0  0  0  0
  -31.9113  -19.9351   23.7611 F   0  0  0  0  0  0
  -30.7937  -17.7425   22.2722 S   0  0  0  0  0  0
  -31.4749  -12.6317   19.1178 H   0  0  0  0  0  0
  -30.4315  -11.4925   19.9264 H   0  0  0  0  0  0
  -29.7914  -11.7287   17.5062 H   0  0  0  0  0  0
  -29.6308  -13.4588   17.6999 H   0  0  0  0  0  0
  -27.8783  -11.2866   18.8802 H   0  0  0  0  0  0
  -27.3790  -12.5436   17.7810 H   0  0  0  0  0  0
  -27.6301  -14.2482   19.4605 H   0  0  0  0  0  0
  -28.7401  -12.1751   21.4209 H   0  0  0  0  0  0
  -28.4325  -13.8589   21.7683 H   0  0  0  0  0  0
  -25.2744   -9.5722   22.4717 H   0  0  0  0  0  0
  -24.0012   -7.4640   22.7450 H   0  0  0  0  0  0
  -21.0822   -8.8748   19.8923 H   0  0  0  0  0  0
  -22.3652  -10.9661   19.6131 H   0  0  0  0  0  0
  -21.1987   -7.6097   23.9697 H   0  0  0  0  0  0
  -21.1510   -6.0457   25.9072 H   0  0  0  0  0  0
  -22.0608   -2.7566   23.2791 H   0  0  0  0  0  0
  -22.4033  -11.9956   22.4893 H   0  0  0  0  0  0
  -21.1028  -13.1259   22.2512 H   0  0  0  0  0  0
  -24.6410  -15.8351   20.5514 H   0  0  0  0  0  0
  -26.2435  -15.6519   20.0564 H   0  0  0  0  0  0
  -26.7210  -32.5409   23.1067 H   0  0  0  0  0  0
  -24.9911  -33.9716   25.0245 H   0  0  0  0  0  0
  -22.7245  -31.2948   21.3916 H   0  0  0  0  0  0
  -23.3752  -35.9649   23.3237 H   0  0  0  0  0  0
  -24.3562  -36.9037   22.2049 H   0  0  0  0  0  0
  -23.7229  -37.6501   23.6713 H   0  0  0  0  0  0
  -26.0971  -31.5111   20.5824 H   0  0  0  0  0  0
  -26.8593  -30.8343   21.9932 H   0  0  0  0  0  0
  -28.1192  -28.8965   21.2279 H   0  0  0  0  0  0
  -25.9697  -25.8964   18.9948 H   0  0  0  0  0  0
  -23.9792  -27.3110   18.9801 H   0  0  0  0  0  0
  -23.7623  -30.5710   19.3913 H   0  0  0  0  0  0
  -22.7653  -29.2273   19.8620 H   0  0  0  0  0  0
  -25.1305  -36.1921   25.0778 H   0  0  0  0  0  0
  -20.9980  -28.3311   24.1388 H   0  0  0  0  0  0
  -20.5692  -26.2330   23.3630 H   0  0  0  0  0  0
  -21.6647  -26.7467   22.1202 H   0  0  0  0  0  0
  -19.6909  -25.6281   21.1277 H   0  0  0  0  0  0
  -19.6692  -27.3173   20.6733 H   0  0  0  0  0  0
  -17.4201  -26.6665   21.4026 H   0  0  0  0  0  0
  -18.0332  -26.0118   22.9044 H   0  0  0  0  0  0
  -19.7935  -30.7299   24.2240 H   0  0  0  0  0  0
  -17.5013  -31.6283   24.5157 H   0  0  0  0  0  0
  -15.5349  -30.2992   23.7694 H   0  0  0  0  0  0
  -15.8668  -28.0866   22.7040 H   0  0  0  0  0  0
  -24.5738  -30.7266   25.7710 H   0  0  0  0  0  0
  -24.8892  -32.3018   26.4852 H   0  0  0  0  0  0
  -25.7857  -30.8934   27.0208 H   0  0  0  0  0  0
  -26.2806  -29.6834   24.1152 H   0  0  0  0  0  0
  -27.3775  -29.7206   25.4754 H   0  0  0  0  0  0
  -27.8758  -30.4230   23.9525 H   0  0  0  0  0  0
  -27.2570  -33.3594   26.2189 H   0  0  0  0  0  0
  -28.3802  -32.6989   25.0393 H   0  0  0  0  0  0
  -28.0685  -31.8427   26.5423 H   0  0  0  0  0  0
  -28.2551  -38.0171   24.7581 H   0  0  0  0  0  0
  -28.1146  -36.2713   24.6112 H   0  0  0  0  0  0
  -27.2324  -37.1297   25.8828 H   0  0  0  0  0  0
  -20.9433  -29.8763   21.6842 H   0  0  0  0  0  0
  -26.0148  -38.2856   24.1473 H   0  0  0  0  0  0
  -27.6994  -24.1588   22.7845 H   0  0  0  0  0  0
  -27.2320  -25.8230   22.5665 H   0  0  0  0  0  0
  -28.9372  -25.4023   22.6610 H   0  0  0  0  0  0
  -28.8957  -23.5584   19.1946 H   0  0  0  0  0  0
  -29.9789  -23.8961   20.5060 H   0  0  0  0  0  0
  -27.0021  -24.6135   20.4441 H   0  0  0  0  0  0
  -29.9501  -21.2418   19.4556 H   0  0  0  0  0  0
  -28.8231  -15.6615   20.1234 H   0  0  0  0  0  0
  1 25  1  0  0  0
  1 30  2  0  0  0
  1 81  1  0  0  0
  2  3  1  0  0  0
  2 25  1  0  0  0
  2 87  1  0  0  0
  2 88  1  0  0  0
  3  4  1  0  0  0
  3 89  1  0  0  0
  3 90  1  0  0  0
  4  5  1  0  0  0
  4 91  1  0  0  0
  4 92  1  0  0  0
  5  6  1  0  0  0
  5 26  1  0  0  0
  5 93  1  0  0  0
  6 25  1  0  0  0
  6 94  1  0  0  0
  6 95  1  0  0  0
  7  8  2  0  0  0
  7 26  1  0  0  0
  7 29  1  0  0  0
  8  9  1  0  0  0
  8 22  1  0  0  0
  9 10  1  0  0  0
  9 27  2  0  0  0
 10 11  2  0  0  0
 10 15  1  0  0  0
 11 12  1  0  0  0
 11 96  1  0  0  0
 12 13  2  0  0  0
 12 97  1  0  0  0
 13 14  1  0  0  0
 13 31  1  0  0  0
 14 15  2  0  0  0
 14 98  1  0  0  0
 15 99  1  0  0  0
 16 17  2  0  0  0
 16 21  1  0  0  0
 16 31  1  0  0  0
 17 18  1  0  0  0
 17100  1  0  0  0
 18 19  2  0  0  0
 18101  1  0  0  0
 19 20  1  0  0  0
 19 24  1  0  0  0
 20 21  2  0  0  0
 20102  1  0  0  0
 21 23  1  0  0  0
 22 28  1  0  0  0
 22 32  2  0  0  0
 26 27  1  0  0  0
 28103  1  0  0  0
 28104  1  0  0  0
 29105  1  0  0  0
 29106  1  0  0  0
 33 34  1  0  0  0
 33 66  1  0  0  0
 33 70  2  0  0  0
 34 36  1  0  0  0
 34 59  1  0  0  0
 34107  1  0  0  0
 35 44  2  0  0  0
 35 45  1  0  0  0
 35 68  1  0  0  0
 36 56  1  0  0  0
 36108  1  0  0  0
 37 39  1  0  0  0
 37 47  1  0  0  0
 37 66  1  0  0  0
 37109  1  0  0  0
 38 43  2  0  0  0
 38 46  1  0  0  0
 38 47  1  0  0  0
 39 64  1  0  0  0
 39 67  2  0  0  0
 40 52  1  0  0  0
 40 53  2  0  0  0
 40 58  1  0  0  0
 41110  1  0  0  0
 41111  1  0  0  0
 41112  1  0  0  0
 41 48  1  0  0  0
 42 43  1  0  0  0
 42 66  1  0  0  0
 42113  1  0  0  0
 42114  1  0  0  0
 43 44  1  0  0  0
 44115  1  0  0  0
 45 46  2  0  0  0
 45116  1  0  0  0
 46117  1  0  0  0
 47118  1  0  0  0
 47119  1  0  0  0
 48 56  1  0  0  0
 48 65  1  0  0  0
 48120  1  0  0  0
 49 50  1  0  0  0
 49 53  1  0  0  0
 49 64  1  0  0  0
 49121  1  0  0  0
 50 51  1  0  0  0
 50122  1  0  0  0
 50123  1  0  0  0
 51 52  1  0  0  0
 51124  1  0  0  0
 51125  1  0  0  0
 52126  1  0  0  0
 52127  1  0  0  0
 53 54  1  0  0  0
 54 55  2  0  0  0
 54128  1  0  0  0
 55 57  1  0  0  0
 55129  1  0  0  0
 56 69  2  0  0  0
 57 58  2  0  0  0
 57130  1  0  0  0
 58131  1  0  0  0
 59 60  1  0  0  0
 59 61  1  0  0  0
 59 62  1  0  0  0
 60132  1  0  0  0
 60133  1  0  0  0
 60134  1  0  0  0
 61135  1  0  0  0
 61136  1  0  0  0
 61137  1  0  0  0
 62138  1  0  0  0
 62139  1  0  0  0
 62140  1  0  0  0
 63 65  1  0  0  0
 63141  1  0  0  0
 63142  1  0  0  0
 63143  1  0  0  0
 64144  1  0  0  0
 65145  1  0  0  0
 68 77  1  0  0  0
 71 72  2  0  0  0
 71 78  1  0  0  0
 71 86  1  0  0  0
 72 79  1  0  0  0
 72 80  1  0  0  0
 73 79  2  0  0  0
 73 81  1  0  0  0
 73 86  1  0  0  0
 74 76  1  0  0  0
 74 80  1  0  0  0
 74 82  2  0  0  0
 75146  1  0  0  0
 75147  1  0  0  0
 75148  1  0  0  0
 75 77  1  0  0  0
 76 77  1  0  0  0
 76149  1  0  0  0
 76150  1  0  0  0
 77151  1  0  0  0
 78 83  1  0  0  0
 78 84  1  0  0  0
 78 85  1  0  0  0
 80152  1  0  0  0
 81153  1  0  0  0
M  ISO  4   1 100  68 101  77 101  81 100
M  END
> <chiral flag>
0

> <version>
0

> <s_m_source_file>
/data/baiqing/PycharmProjects/Reinvent-master-3.2/result/LINK_invent/BTK/process_docking_weight1_custom_product_contain_oxygen_bond_distance_aromatic_linkinvent_7_9_3/rearranged_h_0183.sdf

> <i_m_source_file_index>
29

> <r_mmod_Potential_Energy-OPLS-2005>
131.251846313477

> <r_mmod_Stretch_Energy-OPLS-2005>
133.716217041016

> <r_mmod_Bend_Energy-OPLS-2005>
167.912231445312

> <r_mmod_Torsional_Energy-OPLS-2005>
267.832794189453

> <r_mmod_Improper_Torsional_Energy-OPLS-2005>
11.3805503845215

> <r_mmod_Van_der_Waal_Energy-OPLS-2005>
109.606407165527

> <r_mmod_Electrostatic_Energy-OPLS-2005>
-436.578094482422

> <r_mmod_Solvation_Energy-OPLS-2005>
-225.380172729492

> <b_mmod_Minimization_Converged-OPLS-2005>
0

> <r_mmod_RMS_Derivative-OPLS-2005>
4.28614044189453

$$$$
29
                    3D
 Structure written by MMmdl.
154162  0  0  1  0            999 V2000
  -30.6521  -14.5909   20.5044 C   0  0  0  0  0  0
  -30.4314  -12.3651   19.4386 C   0  0  0  0  0  0
  -29.5035  -12.5016   18.2127 C   0  0  0  0  0  0
  -28.0222  -12.3573   18.6191 C   0  0  0  0  0  0
  -27.6511  -13.2175   19.8583 C   0  0  2  0  0  0
  -28.6985  -13.0632   20.9844 C   0  0  0  0  0  0
  -25.2553  -13.8166   20.5686 C   0  0  0  0  0  0
  -24.1833  -13.0431   20.9199 C   0  0  0  0  0  0
  -24.6410  -11.6908   20.8732 C   0  0  0  0  0  0
  -23.9093  -10.4285   21.0409 C   0  0  0  0  0  0
  -24.3639   -9.4203   21.9186 C   0  0  0  0  0  0
  -23.6310   -8.2247   22.0750 C   0  0  0  0  0  0
  -22.4298   -8.0287   21.3540 C   0  0  0  0  0  0
  -21.9935   -9.0262   20.4643 C   0  0  0  0  0  0
  -22.7270  -10.2134   20.3055 C   0  0  0  0  0  0
  -21.6851   -6.0743   22.5282 C   0  0  0  0  0  0
  -21.4016   -6.5652   23.8221 C   0  0  0  0  0  0
  -21.3653   -5.6800   24.9179 C   0  0  0  0  0  0
  -21.6041   -4.3063   24.7226 C   0  0  0  0  0  0
  -21.8817   -3.8159   23.4352 C   0  0  0  0  0  0
  -21.9199   -4.6973   22.3409 C   0  0  0  0  0  0
  -22.7857  -13.5217   21.1872 C   0  0  0  0  0  0
  -22.1659   -4.2173   21.0978 F   0  0  0  0  0  0
  -21.5630   -3.4543   25.7726 F   0  0  0  0  0  0
  -30.0131  -13.3866   20.4115 N   0  0  0  0  0  0
  -26.2984  -12.9353   20.3300 N   0  0  0  0  0  0
  -25.9339  -11.6510   20.5753 N   0  0  0  0  0  0
  -22.0496  -12.8186   22.0409 N   0  0  0  0  0  0
  -25.4239  -15.1896   20.4103 N   0  0  0  0  0  0
  -31.8364  -14.7183   20.1733 O   0  0  0  0  0  0
  -21.6639   -6.8892   21.4253 O   0  0  0  0  0  0
  -22.3539  -14.5526   20.6726 O   0  0  0  0  0  0
  -24.6189  -31.8654   23.2082 C   0  0  0  0  0  0
  -25.9071  -32.4814   23.8380 C   0  0  1  0  0  0
  -27.2357  -27.3905   20.1192 C   0  0  0  0  0  0
  -25.5942  -33.8609   24.2318 N   0  0  0  0  0  0
  -23.4096  -30.4851   21.5508 C   0  0  2  0  0  0
  -24.8579  -28.9386   20.1254 C   0  0  0  0  0  0
  -22.7427  -29.4656   22.5026 C   0  0  0  0  0  0
  -18.0261  -28.1384   22.8496 C   0  0  0  0  0  0
  -24.1486  -36.7283   23.2643 C   0  0  0  0  0  0
  -25.9380  -30.8212   21.3631 C   0  0  0  0  0  0
  -26.0192  -29.4436   20.7254 C   0  0  0  0  0  0
  -27.2120  -28.6754   20.7226 C   0  0  0  0  0  0
  -26.0601  -26.9114   19.5103 C   0  0  0  0  0  0
  -24.8742  -27.6726   19.5154 C   0  0  0  0  0  0
  -23.6198  -29.8082   20.1688 C   0  0  0  0  0  0
  -25.4106  -36.3083   24.0338 C   0  0  1  0  0  0
  -20.5861  -28.3671   23.1313 C   0  0  2  0  0  0
  -20.6768  -26.9414   22.5408 C   0  0  0  0  0  0
  -19.5744  -26.6378   21.5215 C   0  0  0  0  0  0
  -18.1910  -26.7921   22.1620 C   0  0  0  0  0  0
  -19.1515  -28.8839   23.2905 C   0  0  0  0  0  0
  -18.9445  -30.1438   23.8925 C   0  0  0  0  0  0
  -17.6451  -30.6595   24.0556 C   0  0  0  0  0  0
  -25.9040  -34.9458   23.5106 C   0  0  0  0  0  0
  -16.5343  -29.9094   23.6334 C   0  0  0  0  0  0
  -16.7257  -28.6501   23.0376 C   0  0  0  0  0  0
  -26.4491  -31.6595   25.0718 C   0  0  0  0  0  0
  -25.3741  -31.3714   26.1459 C   0  0  0  0  0  0
  -27.0330  -30.3043   24.6081 C   0  0  0  0  0  0
  -27.6064  -32.4306   25.7478 C   0  0  0  0  0  0
  -27.5560  -37.1797   24.8457 C   0  0  0  0  0  0
  -21.4157  -29.3043   22.3734 N   0  0  0  0  0  0
  -26.4274  -37.3773   23.9410 N   0  0  0  0  0  0
  -24.6743  -31.0722   22.1003 N   0  0  0  0  0  0
  -23.4161  -28.8196   23.3091 O   0  0  0  0  0  0
  -28.3873  -26.6289   20.0240 O   0  0  0  0  0  0
  -26.5559  -34.8896   22.4648 O   0  0  0  0  0  0
  -23.5376  -32.1440   23.7456 O   0  0  0  0  0  0
  -30.4459  -19.5818   20.8477 C   0  0  0  0  0  0
  -31.4052  -18.8723   21.5578 C   0  0  0  0  0  0
  -30.1933  -17.0664   20.8375 C   0  0  0  0  0  0
  -30.4223  -21.0451   20.4499 C   0  0  0  0  0  0
  -28.2542  -24.1822   20.7279 C   0  0  0  0  0  0
  -28.6497  -25.6576   21.0666 C   0  0  0  0  0  0
  -29.2805  -23.2491   19.9994 C   0  0  2  0  0  0
  -29.1281  -23.3142   18.4609 C   0  0  0  0  0  0
  -31.2435  -17.4797   21.5539 N   0  0  0  0  0  0
  -32.5052  -19.3899   22.2487 N   0  0  0  0  0  0
  -29.8467  -15.6689   20.7157 N   0  0  0  0  0  0
  -29.3058  -21.8169   20.4660 N   0  0  0  0  0  0
  -31.4992  -21.5573   20.1396 O   0  0  0  0  0  0
  -27.1469  -23.7670   21.0885 O   0  0  0  0  0  0
  -30.1375  -22.6993   17.8429 F   0  0  0  0  0  0
  -29.1051  -24.5792   18.0381 F   0  0  0  0  0  0
  -27.9867  -22.7329   18.0862 F   0  0  0  0  0  0
  -29.2670  -18.4459   20.1758 S   0  0  0  0  0  0
  -31.4761  -12.4743   19.1414 H   0  0  0  0  0  0
  -30.3493  -11.3694   19.8763 H   0  0  0  0  0  0
  -29.7626  -11.7551   17.4602 H   0  0  0  0  0  0
  -29.6600  -13.4728   17.7428 H   0  0  0  0  0  0
  -27.8378  -11.3024   18.8296 H   0  0  0  0  0  0
  -27.3767  -12.6149   17.7789 H   0  0  0  0  0  0
  -27.6676  -14.2541   19.5229 H   0  0  0  0  0  0
  -28.7006  -12.0431   21.3684 H   0  0  0  0  0  0
  -28.4611  -13.7051   21.8346 H   0  0  0  0  0  0
  -25.2783   -9.5670   22.4761 H   0  0  0  0  0  0
  -24.0018   -7.4631   22.7465 H   0  0  0  0  0  0
  -21.0867   -8.8779   19.8941 H   0  0  0  0  0  0
  -22.3739  -10.9671   19.6156 H   0  0  0  0  0  0
  -21.2000   -7.6164   23.9734 H   0  0  0  0  0  0
  -21.1475   -6.0524   25.9077 H   0  0  0  0  0  0
  -22.0603   -2.7634   23.2838 H   0  0  0  0  0  0
  -22.4115  -11.9831   22.4755 H   0  0  0  0  0  0
  -21.1108  -13.1190   22.2614 H   0  0  0  0  0  0
  -24.6515  -15.8368   20.5262 H   0  0  0  0  0  0
  -26.2579  -15.6349   20.0521 H   0  0  0  0  0  0
  -26.7154  -32.5513   23.1152 H   0  0  0  0  0  0
  -25.0146  -33.9782   25.0505 H   0  0  0  0  0  0
  -22.7007  -31.3023   21.4029 H   0  0  0  0  0  0
  -23.3756  -35.9612   23.3284 H   0  0  0  0  0  0
  -24.3575  -36.8927   22.2063 H   0  0  0  0  0  0
  -23.7217  -37.6476   23.6661 H   0  0  0  0  0  0
  -26.0341  -31.5762   20.5826 H   0  0  0  0  0  0
  -26.8328  -30.8950   21.9704 H   0  0  0  0  0  0
  -28.1115  -29.0669   21.1757 H   0  0  0  0  0  0
  -26.0645  -25.9461   19.0229 H   0  0  0  0  0  0
  -23.9814  -27.2817   19.0453 H   0  0  0  0  0  0
  -23.7214  -30.5762   19.4013 H   0  0  0  0  0  0
  -22.7484  -29.2204   19.8780 H   0  0  0  0  0  0
  -25.1291  -36.1929   25.0831 H   0  0  0  0  0  0
  -20.9932  -28.3219   24.1442 H   0  0  0  0  0  0
  -20.5670  -26.2291   23.3612 H   0  0  0  0  0  0
  -21.6633  -26.7462   22.1188 H   0  0  0  0  0  0
  -19.6910  -25.6278   21.1260 H   0  0  0  0  0  0
  -19.6682  -27.3189   20.6740 H   0  0  0  0  0  0
  -17.4189  -26.6694   21.4004 H   0  0  0  0  0  0
  -18.0302  -26.0055   22.8999 H   0  0  0  0  0  0
  -19.7924  -30.7239   24.2326 H   0  0  0  0  0  0
  -17.5009  -31.6289   24.5129 H   0  0  0  0  0  0
  -15.5344  -30.3013   23.7635 H   0  0  0  0  0  0
  -15.8650  -28.0811   22.7130 H   0  0  0  0  0  0
  -24.5877  -30.7123   25.7750 H   0  0  0  0  0  0
  -24.8991  -32.2902   26.4912 H   0  0  0  0  0  0
  -25.8068  -30.8825   27.0199 H   0  0  0  0  0  0
  -26.2881  -29.6804   24.1121 H   0  0  0  0  0  0
  -27.4128  -29.7260   25.4509 H   0  0  0  0  0  0
  -27.8688  -30.4386   23.9205 H   0  0  0  0  0  0
  -27.2710  -33.3633   26.2010 H   0  0  0  0  0  0
  -28.3897  -32.6823   25.0313 H   0  0  0  0  0  0
  -28.0699  -31.8454   26.5434 H   0  0  0  0  0  0
  -28.2560  -38.0104   24.7509 H   0  0  0  0  0  0
  -28.1076  -36.2635   24.6281 H   0  0  0  0  0  0
  -27.2278  -37.1435   25.8859 H   0  0  0  0  0  0
  -20.9329  -29.8766   21.6945 H   0  0  0  0  0  0
  -26.0157  -38.2847   24.1436 H   0  0  0  0  0  0
  -29.7156  -25.6895   21.2924 H   0  0  0  0  0  0
  -28.1427  -25.9621   21.9827 H   0  0  0  0  0  0
  -30.2549  -23.6846   20.2203 H   0  0  0  0  0  0
  -32.8070  -20.3401   22.0535 H   0  0  0  0  0  0
  -33.2496  -18.7639   22.5392 H   0  0  0  0  0  0
  -28.8605  -15.4672   20.7141 H   0  0  0  0  0  0
  -28.4227  -21.4095   20.7404 H   0  0  0  0  0  0
  1 25  1  0  0  0
  1 30  2  0  0  0
  1 81  1  0  0  0
  2  3  1  0  0  0
  2 25  1  0  0  0
  2 89  1  0  0  0
  2 90  1  0  0  0
  3  4  1  0  0  0
  3 91  1  0  0  0
  3 92  1  0  0  0
  4  5  1  0  0  0
  4 93  1  0  0  0
  4 94  1  0  0  0
  5  6  1  0  0  0
  5 26  1  0  0  0
  5 95  1  0  0  0
  6 25  1  0  0  0
  6 96  1  0  0  0
  6 97  1  0  0  0
  7  8  2  0  0  0
  7 26  1  0  0  0
  7 29  1  0  0  0
  8  9  1  0  0  0
  8 22  1  0  0  0
  9 10  1  0  0  0
  9 27  2  0  0  0
 10 11  2  0  0  0
 10 15  1  0  0  0
 11 12  1  0  0  0
 11 98  1  0  0  0
 12 13  2  0  0  0
 12 99  1  0  0  0
 13 14  1  0  0  0
 13 31  1  0  0  0
 14 15  2  0  0  0
 14100  1  0  0  0
 15101  1  0  0  0
 16 17  2  0  0  0
 16 21  1  0  0  0
 16 31  1  0  0  0
 17 18  1  0  0  0
 17102  1  0  0  0
 18 19  2  0  0  0
 18103  1  0  0  0
 19 20  1  0  0  0
 19 24  1  0  0  0
 20 21  2  0  0  0
 20104  1  0  0  0
 21 23  1  0  0  0
 22 28  1  0  0  0
 22 32  2  0  0  0
 26 27  1  0  0  0
 28105  1  0  0  0
 28106  1  0  0  0
 29107  1  0  0  0
 29108  1  0  0  0
 33 34  1  0  0  0
 33 66  1  0  0  0
 33 70  2  0  0  0
 34 36  1  0  0  0
 34 59  1  0  0  0
 34109  1  0  0  0
 35 44  2  0  0  0
 35 45  1  0  0  0
 35 68  1  0  0  0
 36 56  1  0  0  0
 36110  1  0  0  0
 37 39  1  0  0  0
 37 47  1  0  0  0
 37 66  1  0  0  0
 37111  1  0  0  0
 38 43  2  0  0  0
 38 46  1  0  0  0
 38 47  1  0  0  0
 39 64  1  0  0  0
 39 67  2  0  0  0
 40 52  1  0  0  0
 40 53  2  0  0  0
 40 58  1  0  0  0
 41112  1  0  0  0
 41113  1  0  0  0
 41114  1  0  0  0
 41 48  1  0  0  0
 42 43  1  0  0  0
 42 66  1  0  0  0
 42115  1  0  0  0
 42116  1  0  0  0
 43 44  1  0  0  0
 44117  1  0  0  0
 45 46  2  0  0  0
 45118  1  0  0  0
 46119  1  0  0  0
 47120  1  0  0  0
 47121  1  0  0  0
 48 56  1  0  0  0
 48 65  1  0  0  0
 48122  1  0  0  0
 49 50  1  0  0  0
 49 53  1  0  0  0
 49 64  1  0  0  0
 49123  1  0  0  0
 50 51  1  0  0  0
 50124  1  0  0  0
 50125  1  0  0  0
 51 52  1  0  0  0
 51126  1  0  0  0
 51127  1  0  0  0
 52128  1  0  0  0
 52129  1  0  0  0
 53 54  1  0  0  0
 54 55  2  0  0  0
 54130  1  0  0  0
 55 57  1  0  0  0
 55131  1  0  0  0
 56 69  2  0  0  0
 57 58  2  0  0  0
 57132  1  0  0  0
 58133  1  0  0  0
 59 60  1  0  0  0
 59 61  1  0  0  0
 59 62  1  0  0  0
 60134  1  0  0  0
 60135  1  0  0  0
 60136  1  0  0  0
 61137  1  0  0  0
 61138  1  0  0  0
 61139  1  0  0  0
 62140  1  0  0  0
 62141  1  0  0  0
 62142  1  0  0  0
 63 65  1  0  0  0
 63143  1  0  0  0
 63144  1  0  0  0
 63145  1  0  0  0
 64146  1  0  0  0
 65147  1  0  0  0
 68 76  1  0  0  0
 71 72  2  0  0  0
 71 74  1  0  0  0
 71 88  1  0  0  0
 72 79  1  0  0  0
 72 80  1  0  0  0
 73 79  2  0  0  0
 73 81  1  0  0  0
 73 88  1  0  0  0
 74 82  1  0  0  0
 74 83  2  0  0  0
 75 76  1  0  0  0
 75 77  1  0  0  0
 75 84  2  0  0  0
 76148  1  0  0  0
 76149  1  0  0  0
 77 78  1  0  0  0
 77 82  1  0  0  0
 77150  1  0  0  0
 78 85  1  0  0  0
 78 86  1  0  0  0
 78 87  1  0  0  0
 80151  1  0  0  0
 80152  1  0  0  0
 81153  1  0  0  0
 82154  1  0  0  0
M  ISO  4   1 100  68 101  76 101  81 100
M  END
> <chiral flag>
0

> <version>
0

> <s_m_source_file>
/data/baiqing/PycharmProjects/Reinvent-master-3.2/result/LINK_invent/BTK/process_docking_weight1_custom_product_contain_oxygen_bond_distance_aromatic_linkinvent_7_9_3/rearranged_h_0183.sdf

> <i_m_source_file_index>
30

> <r_mmod_Potential_Energy-OPLS-2005>
-176.446136474609

> <r_mmod_Stretch_Energy-OPLS-2005>
53.8226127624512

> <r_mmod_Bend_Energy-OPLS-2005>
127.393798828125

> <r_mmod_Torsional_Energy-OPLS-2005>
277.12109375

> <r_mmod_Improper_Torsional_Energy-OPLS-2005>
10.0776195526123

> <r_mmod_Van_der_Waal_Energy-OPLS-2005>
119.554473876953

> <r_mmod_Electrostatic_Energy-OPLS-2005>
-536.341125488281

> <r_mmod_Solvation_Energy-OPLS-2005>
-256.054595947266

> <b_mmod_Minimization_Converged-OPLS-2005>
0

> <r_mmod_RMS_Derivative-OPLS-2005>
2.93704843521118

$$$$
30
                    3D
 Structure written by MMmdl.
157165  0  0  1  0            999 V2000
  -30.5620  -14.8275   20.4617 C   0  0  0  0  0  0
  -30.4434  -12.5106   19.4878 C   0  0  0  0  0  0
  -29.5216  -12.5436   18.2474 C   0  0  0  0  0  0
  -28.0461  -12.3562   18.6501 C   0  0  0  0  0  0
  -27.6432  -13.2427   19.8585 C   0  0  2  0  0  0
  -28.6873  -13.1794   20.9961 C   0  0  0  0  0  0
  -25.2503  -13.8211   20.5713 C   0  0  0  0  0  0
  -24.1811  -13.0441   20.9228 C   0  0  0  0  0  0
  -24.6424  -11.6928   20.8735 C   0  0  0  0  0  0
  -23.9111  -10.4290   21.0401 C   0  0  0  0  0  0
  -24.3654   -9.4203   21.9178 C   0  0  0  0  0  0
  -23.6319   -8.2240   22.0744 C   0  0  0  0  0  0
  -22.4292   -8.0281   21.3544 C   0  0  0  0  0  0
  -21.9940   -9.0267   20.4642 C   0  0  0  0  0  0
  -22.7281  -10.2143   20.3052 C   0  0  0  0  0  0
  -21.6862   -6.0749   22.5281 C   0  0  0  0  0  0
  -21.4014   -6.5652   23.8217 C   0  0  0  0  0  0
  -21.3655   -5.6797   24.9177 C   0  0  0  0  0  0
  -21.6049   -4.3060   24.7225 C   0  0  0  0  0  0
  -21.8813   -3.8157   23.4342 C   0  0  0  0  0  0
  -21.9194   -4.6976   22.3400 C   0  0  0  0  0  0
  -22.7824  -13.5203   21.1906 C   0  0  0  0  0  0
  -22.1659   -4.2171   21.0967 F   0  0  0  0  0  0
  -21.5637   -3.4529   25.7740 F   0  0  0  0  0  0
  -29.9814  -13.5702   20.4191 N   0  0  0  0  0  0
  -26.2945  -12.9439   20.3294 N   0  0  0  0  0  0
  -25.9363  -11.6581   20.5769 N   0  0  0  0  0  0
  -22.0479  -12.8179   22.0456 N   0  0  0  0  0  0
  -25.4153  -15.1933   20.4122 N   0  0  0  0  0  0
  -31.7459  -14.9425   20.1229 O   0  0  0  0  0  0
  -21.6640   -6.8891   21.4247 O   0  0  0  0  0  0
  -22.3497  -14.5503   20.6752 O   0  0  0  0  0  0
  -24.6363  -31.8521   23.1929 C   0  0  0  0  0  0
  -25.9173  -32.4735   23.8306 C   0  0  1  0  0  0
  -27.2213  -27.2111   20.1559 C   0  0  0  0  0  0
  -25.5927  -33.8543   24.2210 N   0  0  0  0  0  0
  -23.4355  -30.4712   21.5360 C   0  0  2  0  0  0
  -24.8896  -28.9115   20.1052 C   0  0  0  0  0  0
  -22.7532  -29.4600   22.4878 C   0  0  0  0  0  0
  -18.0313  -28.1419   22.8511 C   0  0  0  0  0  0
  -24.1473  -36.7258   23.2640 C   0  0  0  0  0  0
  -25.9842  -30.7550   21.3782 C   0  0  0  0  0  0
  -26.0638  -29.3751   20.7152 C   0  0  0  0  0  0
  -27.2377  -28.5427   20.7174 C   0  0  0  0  0  0
  -26.0287  -26.8325   19.5087 C   0  0  0  0  0  0
  -24.8823  -27.6530   19.4828 C   0  0  0  0  0  0
  -23.6579  -29.7985   20.1553 C   0  0  0  0  0  0
  -25.4103  -36.3051   24.0318 C   0  0  1  0  0  0
  -20.5916  -28.3751   23.1242 C   0  0  2  0  0  0
  -20.6784  -26.9454   22.5410 C   0  0  0  0  0  0
  -19.5746  -26.6407   21.5222 C   0  0  0  0  0  0
  -18.1937  -26.7971   22.1642 C   0  0  0  0  0  0
  -19.1568  -28.8901   23.2874 C   0  0  0  0  0  0
  -18.9492  -30.1503   23.8896 C   0  0  0  0  0  0
  -17.6481  -30.6610   24.0577 C   0  0  0  0  0  0
  -25.9061  -34.9433   23.5068 C   0  0  0  0  0  0
  -16.5380  -29.9103   23.6340 C   0  0  0  0  0  0
  -16.7304  -28.6521   23.0379 C   0  0  0  0  0  0
  -26.4507  -31.6582   25.0734 C   0  0  0  0  0  0
  -25.3698  -31.3819   26.1447 C   0  0  0  0  0  0
  -27.0354  -30.2964   24.6304 C   0  0  0  0  0  0
  -27.6010  -32.4370   25.7538 C   0  0  0  0  0  0
  -27.5550  -37.1788   24.8472 C   0  0  0  0  0  0
  -21.4235  -29.3076   22.3613 N   0  0  0  0  0  0
  -26.4269  -37.3753   23.9409 N   0  0  0  0  0  0
  -24.7038  -31.0456   22.0914 N   0  0  0  0  0  0
  -23.4193  -28.8172   23.3030 O   0  0  0  0  0  0
  -28.2396  -26.2082   20.2545 O   0  0  0  0  0  0
  -26.5626  -34.8920   22.4639 O   0  0  0  0  0  0
  -23.5500  -32.1390   23.7180 O   0  0  0  0  0  0
  -30.7613  -19.5684   20.1780 C   0  0  0  0  0  0
  -29.4980  -20.0791   20.5335 C   0  0  0  0  0  0
  -29.8265  -17.4201   20.5812 C   0  0  0  0  0  0
  -31.9544  -20.3881   19.9114 C   0  0  0  0  0  0
  -28.3925  -23.7385   21.2400 C   0  0  0  0  0  0
  -28.1030  -25.1364   21.2186 C   0  0  0  0  0  0
  -28.9782  -22.6938   20.2846 C   0  0  0  0  0  0
  -33.2935  -19.6508   19.8347 C   0  0  0  0  0  0
  -26.0937  -25.4216   22.8414 C   0  0  0  0  0  0
  -27.5739  -25.7414   22.5433 C   0  0  0  0  0  0
  -30.8884  -18.1273   20.1711 N   0  0  0  0  0  0
  -29.0096  -21.3919   20.8279 N   0  0  0  0  0  0
  -29.7350  -15.9254   20.7275 N   0  0  0  0  0  0
  -31.9827  -21.6160   19.7885 O   0  0  0  0  0  0
  -29.3583  -22.9280   19.1381 O   0  0  0  0  0  0
  -28.0818  -23.1502   22.4119 O   0  0  0  0  0  0
  -28.5156  -18.6171   20.9391 S   0  0  0  0  0  0
  -31.4824  -12.6550   19.1880 H   0  0  0  0  0  0
  -30.4061  -11.5330   19.9704 H   0  0  0  0  0  0
  -29.8169  -11.7753   17.5323 H   0  0  0  0  0  0
  -29.6382  -13.5003   17.7351 H   0  0  0  0  0  0
  -27.9009  -11.3030   18.8952 H   0  0  0  0  0  0
  -27.3929  -12.5637   17.8003 H   0  0  0  0  0  0
  -27.6347  -14.2670   19.4864 H   0  0  0  0  0  0
  -28.7405  -12.1750   21.4194 H   0  0  0  0  0  0
  -28.4106  -13.8393   21.8196 H   0  0  0  0  0  0
  -25.2806   -9.5670   22.4754 H   0  0  0  0  0  0
  -24.0035   -7.4622   22.7444 H   0  0  0  0  0  0
  -21.0880   -8.8802   19.8929 H   0  0  0  0  0  0
  -22.3755  -10.9694   19.6155 H   0  0  0  0  0  0
  -21.1990   -7.6160   23.9736 H   0  0  0  0  0  0
  -21.1488   -6.0518   25.9086 H   0  0  0  0  0  0
  -22.0595   -2.7619   23.2836 H   0  0  0  0  0  0
  -22.4130  -11.9829   22.4792 H   0  0  0  0  0  0
  -21.1085  -13.1161   22.2679 H   0  0  0  0  0  0
  -24.6383  -15.8382   20.5092 H   0  0  0  0  0  0
  -26.2510  -15.6346   20.0528 H   0  0  0  0  0  0
  -26.7254  -32.5389   23.1050 H   0  0  0  0  0  0
  -25.0058  -33.9688   25.0348 H   0  0  0  0  0  0
  -22.7327  -31.2934   21.3840 H   0  0  0  0  0  0
  -23.3721  -35.9602   23.3356 H   0  0  0  0  0  0
  -24.3518  -36.8853   22.2038 H   0  0  0  0  0  0
  -23.7284  -37.6490   23.6654 H   0  0  0  0  0  0
  -26.1276  -31.5202   20.6137 H   0  0  0  0  0  0
  -26.8522  -30.8001   22.0236 H   0  0  0  0  0  0
  -28.1316  -28.8872   21.2167 H   0  0  0  0  0  0
  -25.9684  -25.8459   19.0707 H   0  0  0  0  0  0
  -23.9830  -27.2889   19.0040 H   0  0  0  0  0  0
  -23.7816  -30.5725   19.3988 H   0  0  0  0  0  0
  -22.7773  -29.2303   19.8527 H   0  0  0  0  0  0
  -25.1290  -36.1866   25.0808 H   0  0  0  0  0  0
  -21.0023  -28.3384   24.1360 H   0  0  0  0  0  0
  -20.5660  -26.2384   23.3641 H   0  0  0  0  0  0
  -21.6647  -26.7460   22.1204 H   0  0  0  0  0  0
  -19.6892  -25.6311   21.1273 H   0  0  0  0  0  0
  -19.6671  -27.3190   20.6723 H   0  0  0  0  0  0
  -17.4191  -26.6762   21.4063 H   0  0  0  0  0  0
  -18.0328  -26.0090   22.9014 H   0  0  0  0  0  0
  -19.7977  -30.7329   24.2241 H   0  0  0  0  0  0
  -17.5050  -31.6287   24.5192 H   0  0  0  0  0  0
  -15.5385  -30.2994   23.7681 H   0  0  0  0  0  0
  -15.8713  -28.0831   22.7093 H   0  0  0  0  0  0
  -24.5798  -30.7254   25.7794 H   0  0  0  0  0  0
  -24.8986  -32.3043   26.4863 H   0  0  0  0  0  0
  -25.7964  -30.8990   27.0248 H   0  0  0  0  0  0
  -26.2994  -29.6712   24.1224 H   0  0  0  0  0  0
  -27.3874  -29.7252   25.4906 H   0  0  0  0  0  0
  -27.8938  -30.4176   23.9685 H   0  0  0  0  0  0
  -27.2527  -33.3654   26.2079 H   0  0  0  0  0  0
  -28.3829  -32.6971   25.0392 H   0  0  0  0  0  0
  -28.0641  -31.8540   26.5508 H   0  0  0  0  0  0
  -28.2589  -38.0054   24.7422 H   0  0  0  0  0  0
  -28.1019  -36.2577   24.6385 H   0  0  0  0  0  0
  -27.2255  -37.1551   25.8878 H   0  0  0  0  0  0
  -20.9439  -29.8753   21.6760 H   0  0  0  0  0  0
  -26.0139  -38.2833   24.1386 H   0  0  0  0  0  0
  -33.1860  -18.5839   19.6460 H   0  0  0  0  0  0
  -33.8286  -19.7737   20.7753 H   0  0  0  0  0  0
  -33.9077  -20.0634   19.0376 H   0  0  0  0  0  0
  -25.7571  -25.9768   23.7173 H   0  0  0  0  0  0
  -25.9214  -24.3655   23.0510 H   0  0  0  0  0  0
  -25.4410  -25.6980   22.0137 H   0  0  0  0  0  0
  -27.7267  -26.8173   22.5835 H   0  0  0  0  0  0
  -28.1916  -25.4060   23.3766 H   0  0  0  0  0  0
  -28.5183  -21.4386   21.7125 H   0  0  0  0  0  0
  -28.8272  -15.6258   21.0442 H   0  0  0  0  0  0
  -27.6912  -23.8247   22.9549 H   0  0  0  0  0  0
  1 25  1  0  0  0
  1 30  2  0  0  0
  1 83  1  0  0  0
  2  3  1  0  0  0
  2 25  1  0  0  0
  2 88  1  0  0  0
  2 89  1  0  0  0
  3  4  1  0  0  0
  3 90  1  0  0  0
  3 91  1  0  0  0
  4  5  1  0  0  0
  4 92  1  0  0  0
  4 93  1  0  0  0
  5  6  1  0  0  0
  5 26  1  0  0  0
  5 94  1  0  0  0
  6 25  1  0  0  0
  6 95  1  0  0  0
  6 96  1  0  0  0
  7  8  2  0  0  0
  7 26  1  0  0  0
  7 29  1  0  0  0
  8  9  1  0  0  0
  8 22  1  0  0  0
  9 10  1  0  0  0
  9 27  2  0  0  0
 10 11  2  0  0  0
 10 15  1  0  0  0
 11 12  1  0  0  0
 11 97  1  0  0  0
 12 13  2  0  0  0
 12 98  1  0  0  0
 13 14  1  0  0  0
 13 31  1  0  0  0
 14 15  2  0  0  0
 14 99  1  0  0  0
 15100  1  0  0  0
 16 17  2  0  0  0
 16 21  1  0  0  0
 16 31  1  0  0  0
 17 18  1  0  0  0
 17101  1  0  0  0
 18 19  2  0  0  0
 18102  1  0  0  0
 19 20  1  0  0  0
 19 24  1  0  0  0
 20 21  2  0  0  0
 20103  1  0  0  0
 21 23  1  0  0  0
 22 28  1  0  0  0
 22 32  2  0  0  0
 26 27  1  0  0  0
 28104  1  0  0  0
 28105  1  0  0  0
 29106  1  0  0  0
 29107  1  0  0  0
 33 34  1  0  0  0
 33 66  1  0  0  0
 33 70  2  0  0  0
 34 36  1  0  0  0
 34 59  1  0  0  0
 34108  1  0  0  0
 35 44  2  0  0  0
 35 45  1  0  0  0
 35 68  1  0  0  0
 36 56  1  0  0  0
 36109  1  0  0  0
 37 39  1  0  0  0
 37 47  1  0  0  0
 37 66  1  0  0  0
 37110  1  0  0  0
 38 43  2  0  0  0
 38 46  1  0  0  0
 38 47  1  0  0  0
 39 64  1  0  0  0
 39 67  2  0  0  0
 40 52  1  0  0  0
 40 53  2  0  0  0
 40 58  1  0  0  0
 41111  1  0  0  0
 41112  1  0  0  0
 41113  1  0  0  0
 41 48  1  0  0  0
 42 43  1  0  0  0
 42 66  1  0  0  0
 42114  1  0  0  0
 42115  1  0  0  0
 43 44  1  0  0  0
 44116  1  0  0  0
 45 46  2  0  0  0
 45117  1  0  0  0
 46118  1  0  0  0
 47119  1  0  0  0
 47120  1  0  0  0
 48 56  1  0  0  0
 48 65  1  0  0  0
 48121  1  0  0  0
 49 50  1  0  0  0
 49 53  1  0  0  0
 49 64  1  0  0  0
 49122  1  0  0  0
 50 51  1  0  0  0
 50123  1  0  0  0
 50124  1  0  0  0
 51 52  1  0  0  0
 51125  1  0  0  0
 51126  1  0  0  0
 52127  1  0  0  0
 52128  1  0  0  0
 53 54  1  0  0  0
 54 55  2  0  0  0
 54129  1  0  0  0
 55 57  1  0  0  0
 55130  1  0  0  0
 56 69  2  0  0  0
 57 58  2  0  0  0
 57131  1  0  0  0
 58132  1  0  0  0
 59 60  1  0  0  0
 59 61  1  0  0  0
 59 62  1  0  0  0
 60133  1  0  0  0
 60134  1  0  0  0
 60135  1  0  0  0
 61136  1  0  0  0
 61137  1  0  0  0
 61138  1  0  0  0
 62139  1  0  0  0
 62140  1  0  0  0
 62141  1  0  0  0
 63 65  1  0  0  0
 63142  1  0  0  0
 63143  1  0  0  0
 63144  1  0  0  0
 64145  1  0  0  0
 65146  1  0  0  0
 68 76  1  0  0  0
 71 72  2  0  0  0
 71 74  1  0  0  0
 71 81  1  0  0  0
 72 82  1  0  0  0
 72 87  1  0  0  0
 73 81  2  0  0  0
 73 83  1  0  0  0
 73 87  1  0  0  0
 74 78  1  0  0  0
 74 84  2  0  0  0
 75 76  2  0  0  0
 75 77  1  0  0  0
 75 86  1  0  0  0
 76 80  1  0  0  0
 77 82  1  0  0  0
 77 85  2  0  0  0
 78147  1  0  0  0
 78148  1  0  0  0
 78149  1  0  0  0
 79 80  1  0  0  0
 79150  1  0  0  0
 79151  1  0  0  0
 79152  1  0  0  0
 80153  1  0  0  0
 80154  1  0  0  0
 82155  1  0  0  0
 83156  1  0  0  0
 86157  1  0  0  0
M  ISO  4   1 100  68 101  76 101  83 100
M  END
> <chiral flag>
0

> <version>
0

> <s_m_source_file>
/data/baiqing/PycharmProjects/Reinvent-master-3.2/result/LINK_invent/BTK/process_docking_weight1_custom_product_contain_oxygen_bond_distance_aromatic_linkinvent_7_9_3/rearranged_h_0183.sdf

> <i_m_source_file_index>
31

> <r_mmod_Potential_Energy-OPLS-2005>
323.517822265625

> <r_mmod_Stretch_Energy-OPLS-2005>
166.245086669922

> <r_mmod_Bend_Energy-OPLS-2005>
277.801544189453

> <r_mmod_Torsional_Energy-OPLS-2005>
234.464111328125

> <r_mmod_Improper_Torsional_Energy-OPLS-2005>
5.860426902771

> <r_mmod_Van_der_Waal_Energy-OPLS-2005>
139.34391784668

> <r_mmod_Electrostatic_Energy-OPLS-2005>
-374.566802978516

> <r_mmod_Solvation_Energy-OPLS-2005>
-256.97021484375

> <b_mmod_Minimization_Converged-OPLS-2005>
0

> <r_mmod_RMS_Derivative-OPLS-2005>
3.59873747825623

$$$$
31
                    3D
 Structure written by MMmdl.
146154  0  0  1  0            999 V2000
  -30.5768  -14.7880   20.4503 C   0  0  0  0  0  0
  -30.4411  -12.4826   19.4704 C   0  0  0  0  0  0
  -29.5127  -12.5075   18.2349 C   0  0  0  0  0  0
  -28.0402  -12.3217   18.6527 C   0  0  0  0  0  0
  -27.6393  -13.2284   19.8464 C   0  0  2  0  0  0
  -28.6858  -13.1756   20.9803 C   0  0  0  0  0  0
  -25.2505  -13.8182   20.5684 C   0  0  0  0  0  0
  -24.1799  -13.0433   20.9215 C   0  0  0  0  0  0
  -24.6387  -11.6910   20.8756 C   0  0  0  0  0  0
  -23.9064  -10.4290   21.0417 C   0  0  0  0  0  0
  -24.3617   -9.4205   21.9192 C   0  0  0  0  0  0
  -23.6291   -8.2241   22.0757 C   0  0  0  0  0  0
  -22.4272   -8.0284   21.3548 C   0  0  0  0  0  0
  -21.9909   -9.0258   20.4650 C   0  0  0  0  0  0
  -22.7240  -10.2134   20.3064 C   0  0  0  0  0  0
  -21.6853   -6.0735   22.5280 C   0  0  0  0  0  0
  -21.4013   -6.5640   23.8213 C   0  0  0  0  0  0
  -21.3661   -5.6792   24.9175 C   0  0  0  0  0  0
  -21.6044   -4.3056   24.7225 C   0  0  0  0  0  0
  -21.8820   -3.8146   23.4346 C   0  0  0  0  0  0
  -21.9191   -4.6964   22.3402 C   0  0  0  0  0  0
  -22.7823  -13.5223   21.1872 C   0  0  0  0  0  0
  -22.1661   -4.2149   21.0979 F   0  0  0  0  0  0
  -21.5627   -3.4539   25.7736 F   0  0  0  0  0  0
  -29.9789  -13.5461   20.3917 N   0  0  0  0  0  0
  -26.2925  -12.9381   20.3264 N   0  0  0  0  0  0
  -25.9315  -11.6529   20.5751 N   0  0  0  0  0  0
  -22.0466  -12.8218   22.0428 N   0  0  0  0  0  0
  -25.4172  -15.1909   20.4077 N   0  0  0  0  0  0
  -31.7795  -14.8937   20.1900 O   0  0  0  0  0  0
  -21.6642   -6.8878   21.4242 O   0  0  0  0  0  0
  -22.3512  -14.5532   20.6719 O   0  0  0  0  0  0
  -24.6325  -31.8529   23.1952 C   0  0  0  0  0  0
  -25.9140  -32.4742   23.8311 C   0  0  1  0  0  0
  -27.2254  -27.2421   20.1455 C   0  0  0  0  0  0
  -25.5928  -33.8543   24.2236 N   0  0  0  0  0  0
  -23.4314  -30.4723   21.5384 C   0  0  2  0  0  0
  -24.8812  -28.9077   20.1180 C   0  0  0  0  0  0
  -22.7511  -29.4586   22.4903 C   0  0  0  0  0  0
  -18.0295  -28.1388   22.8484 C   0  0  0  0  0  0
  -24.1490  -36.7281   23.2642 C   0  0  0  0  0  0
  -25.9776  -30.7598   21.3776 C   0  0  0  0  0  0
  -26.0524  -29.3766   20.7281 C   0  0  0  0  0  0
  -27.2292  -28.5569   20.7278 C   0  0  0  0  0  0
  -26.0316  -26.8376   19.5146 C   0  0  0  0  0  0
  -24.8756  -27.6459   19.5008 C   0  0  0  0  0  0
  -23.6535  -29.7992   20.1577 C   0  0  0  0  0  0
  -25.4117  -36.3060   24.0324 C   0  0  1  0  0  0
  -20.5899  -28.3699   23.1265 C   0  0  2  0  0  0
  -20.6782  -26.9415   22.5405 C   0  0  0  0  0  0
  -19.5754  -26.6382   21.5212 C   0  0  0  0  0  0
  -18.1937  -26.7928   22.1629 C   0  0  0  0  0  0
  -19.1548  -28.8861   23.2870 C   0  0  0  0  0  0
  -18.9469  -30.1462   23.8889 C   0  0  0  0  0  0
  -17.6467  -30.6588   24.0561 C   0  0  0  0  0  0
  -25.9057  -34.9431   23.5085 C   0  0  0  0  0  0
  -16.5359  -29.9084   23.6330 C   0  0  0  0  0  0
  -16.7281  -28.6501   23.0353 C   0  0  0  0  0  0
  -26.4504  -31.6576   25.0710 C   0  0  0  0  0  0
  -25.3723  -31.3734   26.1428 C   0  0  0  0  0  0
  -27.0358  -30.2991   24.6210 C   0  0  0  0  0  0
  -27.6049  -32.4326   25.7490 C   0  0  0  0  0  0
  -27.5575  -37.1798   24.8468 C   0  0  0  0  0  0
  -21.4215  -29.3044   22.3651 N   0  0  0  0  0  0
  -26.4291  -37.3760   23.9404 N   0  0  0  0  0  0
  -24.6996  -31.0475   22.0936 N   0  0  0  0  0  0
  -23.4201  -28.8135   23.3015 O   0  0  0  0  0  0
  -28.3253  -26.3522   20.1153 O   0  0  0  0  0  0
  -26.5637  -34.8913   22.4658 O   0  0  0  0  0  0
  -23.5469  -32.1359   23.7234 O   0  0  0  0  0  0
  -29.6096  -19.6711   20.4094 C   0  0  0  0  0  0
  -30.0148  -17.3635   20.5860 C   0  0  0  0  0  0
  -28.2187  -24.9978   20.5759 C   0  0  0  0  0  0
  -28.8415  -23.8645   20.0550 C   0  0  0  0  0  0
  -28.8362  -22.4232   20.6818 C   0  0  0  0  0  0
  -28.9304  -21.0303   19.8487 C   0  0  0  0  0  0
  -29.1401  -18.3658   20.2441 N   0  0  0  0  0  0
  -30.8542  -19.6853   20.9457 N   0  0  0  0  0  0
  -29.7420  -15.9020   20.5313 N   0  0  0  0  0  0
  -28.6836  -22.3230   21.9050 O   0  0  0  0  0  0
  -29.5708  -24.0181   18.9420 O   0  0  0  0  0  0
  -29.5825  -21.2628   18.7084 F   0  0  0  0  0  0
  -27.6821  -20.6990   19.5108 F   0  0  0  0  0  0
  -31.4731  -18.1018   21.1768 S   0  0  0  0  0  0
  -31.4784  -12.6289   19.1642 H   0  0  0  0  0  0
  -30.4063  -11.5095   19.9630 H   0  0  0  0  0  0
  -29.8010  -11.7277   17.5289 H   0  0  0  0  0  0
  -29.6277  -13.4560   17.7073 H   0  0  0  0  0  0
  -27.9073  -11.2744   18.9265 H   0  0  0  0  0  0
  -27.3797  -12.4994   17.8034 H   0  0  0  0  0  0
  -27.6262  -14.2453   19.4549 H   0  0  0  0  0  0
  -28.7346  -12.1788   21.4213 H   0  0  0  0  0  0
  -28.4156  -13.8558   21.7900 H   0  0  0  0  0  0
  -25.2760   -9.5678   22.4770 H   0  0  0  0  0  0
  -23.9999   -7.4629   22.7475 H   0  0  0  0  0  0
  -21.0841   -8.8781   19.8952 H   0  0  0  0  0  0
  -22.3705  -10.9677   19.6176 H   0  0  0  0  0  0
  -21.2010   -7.6147   23.9716 H   0  0  0  0  0  0
  -21.1481   -6.0523   25.9077 H   0  0  0  0  0  0
  -22.0596   -2.7609   23.2847 H   0  0  0  0  0  0
  -22.4081  -11.9877   22.4814 H   0  0  0  0  0  0
  -21.1089  -13.1250   22.2641 H   0  0  0  0  0  0
  -24.6405  -15.8356   20.5099 H   0  0  0  0  0  0
  -26.2484  -15.6348   20.0397 H   0  0  0  0  0  0
  -26.7207  -32.5391   23.1051 H   0  0  0  0  0  0
  -25.0064  -33.9674   25.0374 H   0  0  0  0  0  0
  -22.7288  -31.2944   21.3867 H   0  0  0  0  0  0
  -23.3747  -35.9619   23.3308 H   0  0  0  0  0  0
  -24.3575  -36.8901   22.2055 H   0  0  0  0  0  0
  -23.7254  -37.6486   23.6668 H   0  0  0  0  0  0
  -26.1155  -31.5155   20.6030 H   0  0  0  0  0  0
  -26.8552  -30.8147   22.0102 H   0  0  0  0  0  0
  -28.1320  -28.9154   21.2022 H   0  0  0  0  0  0
  -25.9904  -25.8696   19.0358 H   0  0  0  0  0  0
  -23.9792  -27.2812   19.0181 H   0  0  0  0  0  0
  -23.7831  -30.5717   19.3988 H   0  0  0  0  0  0
  -22.7718  -29.2335   19.8512 H   0  0  0  0  0  0
  -25.1302  -36.1903   25.0817 H   0  0  0  0  0  0
  -20.9992  -28.3278   24.1385 H   0  0  0  0  0  0
  -20.5681  -26.2310   23.3613 H   0  0  0  0  0  0
  -21.6649  -26.7436   22.1198 H   0  0  0  0  0  0
  -19.6915  -25.6290   21.1248 H   0  0  0  0  0  0
  -19.6688  -27.3187   20.6737 H   0  0  0  0  0  0
  -17.4203  -26.6668   21.4038 H   0  0  0  0  0  0
  -18.0345  -26.0075   22.9031 H   0  0  0  0  0  0
  -19.7944  -30.7282   24.2254 H   0  0  0  0  0  0
  -17.5019  -31.6267   24.5163 H   0  0  0  0  0  0
  -15.5358  -30.2983   23.7656 H   0  0  0  0  0  0
  -15.8682  -28.0817   22.7072 H   0  0  0  0  0  0
  -24.5885  -30.7101   25.7749 H   0  0  0  0  0  0
  -24.8933  -32.2910   26.4853 H   0  0  0  0  0  0
  -25.8030  -30.8899   27.0205 H   0  0  0  0  0  0
  -26.2947  -29.6730   24.1228 H   0  0  0  0  0  0
  -27.4030  -29.7262   25.4736 H   0  0  0  0  0  0
  -27.8828  -30.4262   23.9463 H   0  0  0  0  0  0
  -27.2645  -33.3628   26.2050 H   0  0  0  0  0  0
  -28.3869  -32.6883   25.0329 H   0  0  0  0  0  0
  -28.0708  -31.8465   26.5422 H   0  0  0  0  0  0
  -28.2597  -38.0089   24.7495 H   0  0  0  0  0  0
  -28.1066  -36.2618   24.6319 H   0  0  0  0  0  0
  -27.2289  -37.1475   25.8871 H   0  0  0  0  0  0
  -20.9408  -29.8763   21.6850 H   0  0  0  0  0  0
  -26.0167  -38.2835   24.1392 H   0  0  0  0  0  0
  -27.5983  -24.9398   21.4606 H   0  0  0  0  0  0
  -28.7643  -15.6663   20.5466 H   0  0  0  0  0  0
  -29.5122  -24.9345   18.7013 H   0  0  0  0  0  0
  1 25  1  0  0  0
  1 30  2  0  0  0
  1 79  1  0  0  0
  2  3  1  0  0  0
  2 25  1  0  0  0
  2 85  1  0  0  0
  2 86  1  0  0  0
  3  4  1  0  0  0
  3 87  1  0  0  0
  3 88  1  0  0  0
  4  5  1  0  0  0
  4 89  1  0  0  0
  4 90  1  0  0  0
  5  6  1  0  0  0
  5 26  1  0  0  0
  5 91  1  0  0  0
  6 25  1  0  0  0
  6 92  1  0  0  0
  6 93  1  0  0  0
  7  8  2  0  0  0
  7 26  1  0  0  0
  7 29  1  0  0  0
  8  9  1  0  0  0
  8 22  1  0  0  0
  9 10  1  0  0  0
  9 27  2  0  0  0
 10 11  2  0  0  0
 10 15  1  0  0  0
 11 12  1  0  0  0
 11 94  1  0  0  0
 12 13  2  0  0  0
 12 95  1  0  0  0
 13 14  1  0  0  0
 13 31  1  0  0  0
 14 15  2  0  0  0
 14 96  1  0  0  0
 15 97  1  0  0  0
 16 17  2  0  0  0
 16 21  1  0  0  0
 16 31  1  0  0  0
 17 18  1  0  0  0
 17 98  1  0  0  0
 18 19  2  0  0  0
 18 99  1  0  0  0
 19 20  1  0  0  0
 19 24  1  0  0  0
 20 21  2  0  0  0
 20100  1  0  0  0
 21 23  1  0  0  0
 22 28  1  0  0  0
 22 32  2  0  0  0
 26 27  1  0  0  0
 28101  1  0  0  0
 28102  1  0  0  0
 29103  1  0  0  0
 29104  1  0  0  0
 33 34  1  0  0  0
 33 66  1  0  0  0
 33 70  2  0  0  0
 34 36  1  0  0  0
 34 59  1  0  0  0
 34105  1  0  0  0
 35 44  2  0  0  0
 35 45  1  0  0  0
 35 68  1  0  0  0
 36 56  1  0  0  0
 36106  1  0  0  0
 37 39  1  0  0  0
 37 47  1  0  0  0
 37 66  1  0  0  0
 37107  1  0  0  0
 38 43  2  0  0  0
 38 46  1  0  0  0
 38 47  1  0  0  0
 39 64  1  0  0  0
 39 67  2  0  0  0
 40 52  1  0  0  0
 40 53  2  0  0  0
 40 58  1  0  0  0
 41108  1  0  0  0
 41109  1  0  0  0
 41110  1  0  0  0
 41 48  1  0  0  0
 42 43  1  0  0  0
 42 66  1  0  0  0
 42111  1  0  0  0
 42112  1  0  0  0
 43 44  1  0  0  0
 44113  1  0  0  0
 45 46  2  0  0  0
 45114  1  0  0  0
 46115  1  0  0  0
 47116  1  0  0  0
 47117  1  0  0  0
 48 56  1  0  0  0
 48 65  1  0  0  0
 48118  1  0  0  0
 49 50  1  0  0  0
 49 53  1  0  0  0
 49 64  1  0  0  0
 49119  1  0  0  0
 50 51  1  0  0  0
 50120  1  0  0  0
 50121  1  0  0  0
 51 52  1  0  0  0
 51122  1  0  0  0
 51123  1  0  0  0
 52124  1  0  0  0
 52125  1  0  0  0
 53 54  1  0  0  0
 54 55  2  0  0  0
 54126  1  0  0  0
 55 57  1  0  0  0
 55127  1  0  0  0
 56 69  2  0  0  0
 57 58  2  0  0  0
 57128  1  0  0  0
 58129  1  0  0  0
 59 60  1  0  0  0
 59 61  1  0  0  0
 59 62  1  0  0  0
 60130  1  0  0  0
 60131  1  0  0  0
 60132  1  0  0  0
 61133  1  0  0  0
 61134  1  0  0  0
 61135  1  0  0  0
 62136  1  0  0  0
 62137  1  0  0  0
 62138  1  0  0  0
 63 65  1  0  0  0
 63139  1  0  0  0
 63140  1  0  0  0
 63141  1  0  0  0
 64142  1  0  0  0
 65143  1  0  0  0
 68 73  1  0  0  0
 71 76  1  0  0  0
 71 77  1  0  0  0
 71 78  2  0  0  0
 72 77  2  0  0  0
 72 79  1  0  0  0
 72 84  1  0  0  0
 73 74  2  0  0  0
 73144  1  0  0  0
 74 75  1  0  0  0
 74 81  1  0  0  0
 75 76  1  0  0  0
 75 80  2  0  0  0
 76 82  1  0  0  0
 76 83  1  0  0  0
 78 84  1  0  0  0
 79145  1  0  0  0
 81146  1  0  0  0
M  ISO  4   1 100  68 101  73 101  79 100
M  END
> <chiral flag>
0

> <version>
0

> <s_m_source_file>
/data/baiqing/PycharmProjects/Reinvent-master-3.2/result/LINK_invent/BTK/process_docking_weight1_custom_product_contain_oxygen_bond_distance_aromatic_linkinvent_7_9_3/rearranged_h_0183.sdf

> <i_m_source_file_index>
32

> <r_mmod_Potential_Energy-OPLS-2005>
281.742065429688

> <r_mmod_Stretch_Energy-OPLS-2005>
140.518844604492

> <r_mmod_Bend_Energy-OPLS-2005>
181.199966430664

> <r_mmod_Torsional_Energy-OPLS-2005>
232.288116455078

> <r_mmod_Improper_Torsional_Energy-OPLS-2005>
8.31682014465332

> <r_mmod_Van_der_Waal_Energy-OPLS-2005>
110.998291015625

> <r_mmod_Electrostatic_Energy-OPLS-2005>
-277.591339111328

> <r_mmod_Solvation_Energy-OPLS-2005>
-213.759994506836

> <b_mmod_Minimization_Converged-OPLS-2005>
0

> <r_mmod_RMS_Derivative-OPLS-2005>
0.480305701494217

$$$$
32
                    3D
 Structure written by MMmdl.
157165  0  0  1  0            999 V2000
  -30.6722  -14.4653   20.4726 C   0  0  0  0  0  0
  -30.4285  -12.2705   19.4309 C   0  0  0  0  0  0
  -29.5040  -12.4679   18.2118 C   0  0  0  0  0  0
  -28.0217  -12.3284   18.6249 C   0  0  0  0  0  0
  -27.6590  -13.1862   19.8663 C   0  0  2  0  0  0
  -28.7043  -13.0015   20.9904 C   0  0  0  0  0  0
  -25.2635  -13.8096   20.5693 C   0  0  0  0  0  0
  -24.1862  -13.0400   20.9202 C   0  0  0  0  0  0
  -24.6384  -11.6865   20.8767 C   0  0  0  0  0  0
  -23.9038  -10.4268   21.0424 C   0  0  0  0  0  0
  -24.3588   -9.4186   21.9203 C   0  0  0  0  0  0
  -23.6282   -8.2216   22.0758 C   0  0  0  0  0  0
  -22.4274   -8.0250   21.3537 C   0  0  0  0  0  0
  -21.9893   -9.0229   20.4652 C   0  0  0  0  0  0
  -22.7211  -10.2115   20.3071 C   0  0  0  0  0  0
  -21.6839   -6.0717   22.5278 C   0  0  0  0  0  0
  -21.4001   -6.5635   23.8210 C   0  0  0  0  0  0
  -21.3672   -5.6796   24.9182 C   0  0  0  0  0  0
  -21.6059   -4.3059   24.7236 C   0  0  0  0  0  0
  -21.8827   -3.8140   23.4361 C   0  0  0  0  0  0
  -21.9202   -4.6948   22.3412 C   0  0  0  0  0  0
  -22.7886  -13.5223   21.1861 C   0  0  0  0  0  0
  -22.1670   -4.2121   21.0988 F   0  0  0  0  0  0
  -21.5643   -3.4557   25.7757 F   0  0  0  0  0  0
  -30.0345  -13.2718   20.4251 N   0  0  0  0  0  0
  -26.3033  -12.9209   20.3366 N   0  0  0  0  0  0
  -25.9301  -11.6408   20.5786 N   0  0  0  0  0  0
  -22.0521  -12.8218   22.0406 N   0  0  0  0  0  0
  -25.4455  -15.1801   20.4086 N   0  0  0  0  0  0
  -31.8719  -14.6135   20.2305 O   0  0  0  0  0  0
  -21.6638   -6.8849   21.4233 O   0  0  0  0  0  0
  -22.3600  -14.5559   20.6741 O   0  0  0  0  0  0
  -24.6069  -31.8737   23.2159 C   0  0  0  0  0  0
  -25.8998  -32.4834   23.8423 C   0  0  1  0  0  0
  -27.2268  -27.4746   20.0853 C   0  0  0  0  0  0
  -25.5851  -33.8629   24.2342 N   0  0  0  0  0  0
  -23.3889  -30.5030   21.5533 C   0  0  2  0  0  0
  -24.8303  -28.9684   20.1183 C   0  0  0  0  0  0
  -22.7348  -29.4751   22.5014 C   0  0  0  0  0  0
  -18.0311  -28.1356   22.8471 C   0  0  0  0  0  0
  -24.1494  -36.7332   23.2640 C   0  0  0  0  0  0
  -25.9124  -30.8475   21.3645 C   0  0  0  0  0  0
  -25.9877  -29.4877   20.7080 C   0  0  0  0  0  0
  -27.1846  -28.7476   20.6887 C   0  0  0  0  0  0
  -26.0409  -26.9499   19.5113 C   0  0  0  0  0  0
  -24.8489  -27.6956   19.5249 C   0  0  0  0  0  0
  -23.5927  -29.8320   20.1693 C   0  0  0  0  0  0
  -25.4110  -36.3116   24.0343 C   0  0  1  0  0  0
  -20.5877  -28.3695   23.1327 C   0  0  2  0  0  0
  -20.6831  -26.9442   22.5424 C   0  0  0  0  0  0
  -19.5828  -26.6401   21.5181 C   0  0  0  0  0  0
  -18.1990  -26.7921   22.1581 C   0  0  0  0  0  0
  -19.1537  -28.8840   23.2889 C   0  0  0  0  0  0
  -18.9458  -30.1451   23.8867 C   0  0  0  0  0  0
  -17.6442  -30.6558   24.0564 C   0  0  0  0  0  0
  -25.9012  -34.9476   23.5161 C   0  0  0  0  0  0
  -16.5344  -29.9051   23.6315 C   0  0  0  0  0  0
  -16.7297  -28.6482   23.0317 C   0  0  0  0  0  0
  -26.4477  -31.6578   25.0712 C   0  0  0  0  0  0
  -25.3814  -31.3628   26.1507 C   0  0  0  0  0  0
  -27.0303  -30.3024   24.6041 C   0  0  0  0  0  0
  -27.6032  -32.4318   25.7475 C   0  0  0  0  0  0
  -27.5594  -37.1823   24.8460 C   0  0  0  0  0  0
  -21.4088  -29.3107   22.3752 N   0  0  0  0  0  0
  -26.4302  -37.3791   23.9403 N   0  0  0  0  0  0
  -24.6531  -31.0896   22.1026 N   0  0  0  0  0  0
  -23.4151  -28.8300   23.3030 O   0  0  0  0  0  0
  -28.4378  -26.8201   20.0899 O   0  0  0  0  0  0
  -26.5593  -34.8911   22.4724 O   0  0  0  0  0  0
  -23.5283  -32.1484   23.7595 O   0  0  0  0  0  0
  -29.2326  -17.7994   20.3480 C   0  0  0  0  0  0
  -29.1116  -16.3956   22.3399 C   0  0  0  0  0  0
  -29.4206  -16.5452   20.9698 C   0  0  0  0  0  0
  -28.7522  -18.9097   21.0721 C   0  0  0  0  0  0
  -28.6300  -17.4981   23.0712 C   0  0  0  0  0  0
  -28.4518  -18.7482   22.4466 C   0  0  0  0  0  0
  -28.1175  -24.5257   20.8543 C   0  0  0  0  0  0
  -28.3805  -23.0430   20.6192 C   0  0  0  0  0  0
  -28.5086  -25.4534   19.6994 C   0  0  0  0  0  0
  -27.2749  -20.7343   20.3819 C   0  0  0  0  0  0
  -27.2099  -22.1327   21.0265 C   0  0  1  0  0  0
  -29.8528  -15.4761   20.1489 N   0  0  0  0  0  0
  -28.6081  -20.1307   20.3945 N   0  0  0  0  0  0
  -27.6408  -24.9506   21.9145 O   0  0  0  0  0  0
  -28.3277  -17.3530   24.3838 F   0  0  0  0  0  0
  -28.0061  -19.7897   23.1860 F   0  0  0  0  0  0
  -27.1424  -22.0364   22.3544 F   0  0  0  0  0  0
  -31.4761  -12.3746   19.1459 H   0  0  0  0  0  0
  -30.3200  -11.2664   19.8411 H   0  0  0  0  0  0
  -29.7476  -11.7388   17.4384 H   0  0  0  0  0  0
  -29.6766  -13.4498   17.7718 H   0  0  0  0  0  0
  -27.8437  -11.2762   18.8455 H   0  0  0  0  0  0
  -27.3682  -12.5770   17.7886 H   0  0  0  0  0  0
  -27.6843  -14.2221   19.5351 H   0  0  0  0  0  0
  -28.6696  -11.9869   21.3918 H   0  0  0  0  0  0
  -28.4849  -13.6606   21.8285 H   0  0  0  0  0  0
  -25.2710   -9.5676   22.4799 H   0  0  0  0  0  0
  -24.0010   -7.4604   22.7448 H   0  0  0  0  0  0
  -21.0845   -8.8731   19.8945 H   0  0  0  0  0  0
  -22.3649  -10.9659   19.6204 H   0  0  0  0  0  0
  -21.1961   -7.6135   23.9696 H   0  0  0  0  0  0
  -21.1501   -6.0537   25.9081 H   0  0  0  0  0  0
  -22.0597   -2.7597   23.2880 H   0  0  0  0  0  0
  -22.4100  -11.9833   22.4727 H   0  0  0  0  0  0
  -21.1135  -13.1248   22.2597 H   0  0  0  0  0  0
  -24.6877  -15.8466   20.5052 H   0  0  0  0  0  0
  -26.3257  -15.6010   20.1370 H   0  0  0  0  0  0
  -26.7064  -32.5573   23.1178 H   0  0  0  0  0  0
  -24.9973  -33.9796   25.0471 H   0  0  0  0  0  0
  -22.6777  -31.3213   21.4174 H   0  0  0  0  0  0
  -23.3740  -35.9683   23.3319 H   0  0  0  0  0  0
  -24.3577  -36.8935   22.2048 H   0  0  0  0  0  0
  -23.7269  -37.6547   23.6652 H   0  0  0  0  0  0
  -26.0291  -31.6202   20.6041 H   0  0  0  0  0  0
  -26.7964  -30.8909   21.9892 H   0  0  0  0  0  0
  -28.0800  -29.1503   21.1415 H   0  0  0  0  0  0
  -26.0032  -25.9725   19.0561 H   0  0  0  0  0  0
  -23.9482  -27.2897   19.0832 H   0  0  0  0  0  0
  -23.7004  -30.6009   19.4050 H   0  0  0  0  0  0
  -22.7170  -29.2485   19.8769 H   0  0  0  0  0  0
  -25.1305  -36.2000   25.0841 H   0  0  0  0  0  0
  -20.9965  -28.3352   24.1461 H   0  0  0  0  0  0
  -21.6724  -26.7514   22.1261 H   0  0  0  0  0  0
  -20.5705  -26.2349   23.3638 H   0  0  0  0  0  0
  -19.7055  -25.6325   21.1224 H   0  0  0  0  0  0
  -19.6827  -27.3221   20.6714 H   0  0  0  0  0  0
  -17.4261  -26.6589   21.3993 H   0  0  0  0  0  0
  -18.0392  -26.0069   22.8989 H   0  0  0  0  0  0
  -19.7937  -30.7293   24.2219 H   0  0  0  0  0  0
  -17.4987  -31.6215   24.5198 H   0  0  0  0  0  0
  -15.5327  -30.2907   23.7654 H   0  0  0  0  0  0
  -15.8697  -28.0770   22.7027 H   0  0  0  0  0  0
  -24.5948  -30.7015   25.7873 H   0  0  0  0  0  0
  -24.9072  -32.2761   26.5094 H   0  0  0  0  0  0
  -25.8249  -30.8703   27.0174 H   0  0  0  0  0  0
  -26.2807  -29.6761   24.1188 H   0  0  0  0  0  0
  -27.4201  -29.7270   25.4457 H   0  0  0  0  0  0
  -27.8598  -30.4357   23.9093 H   0  0  0  0  0  0
  -27.2594  -33.3564   26.2140 H   0  0  0  0  0  0
  -28.3783  -32.6993   25.0281 H   0  0  0  0  0  0
  -28.0773  -31.8414   26.5327 H   0  0  0  0  0  0
  -28.2632  -38.0105   24.7498 H   0  0  0  0  0  0
  -28.1085  -36.2642   24.6323 H   0  0  0  0  0  0
  -27.2309  -37.1514   25.8861 H   0  0  0  0  0  0
  -20.9215  -29.8885   21.7056 H   0  0  0  0  0  0
  -26.0210  -38.2885   24.1374 H   0  0  0  0  0  0
  -29.4506  -17.9112   19.2952 H   0  0  0  0  0  0
  -29.2260  -15.4497   22.8458 H   0  0  0  0  0  0
  -29.2845  -22.7558   21.1585 H   0  0  0  0  0  0
  -28.5919  -22.9070   19.5579 H   0  0  0  0  0  0
  -27.9176  -25.2410   18.8099 H   0  0  0  0  0  0
  -29.5410  -25.2368   19.4279 H   0  0  0  0  0  0
  -26.9967  -20.8412   19.3322 H   0  0  0  0  0  0
  -26.5195  -20.0754   20.8198 H   0  0  0  0  0  0
  -26.2664  -22.5980   20.7281 H   0  0  0  0  0  0
  -29.9810  -15.7473   19.1852 H   0  0  0  0  0  0
  -29.0167  -20.1052   19.4630 H   0  0  0  0  0  0
  1 25  1  0  0  0
  1 30  2  0  0  0
  1 82  1  0  0  0
  2  3  1  0  0  0
  2 25  1  0  0  0
  2 88  1  0  0  0
  2 89  1  0  0  0
  3  4  1  0  0  0
  3 90  1  0  0  0
  3 91  1  0  0  0
  4  5  1  0  0  0
  4 92  1  0  0  0
  4 93  1  0  0  0
  5  6  1  0  0  0
  5 26  1  0  0  0
  5 94  1  0  0  0
  6 25  1  0  0  0
  6 95  1  0  0  0
  6 96  1  0  0  0
  7  8  2  0  0  0
  7 26  1  0  0  0
  7 29  1  0  0  0
  8  9  1  0  0  0
  8 22  1  0  0  0
  9 10  1  0  0  0
  9 27  2  0  0  0
 10 11  2  0  0  0
 10 15  1  0  0  0
 11 12  1  0  0  0
 11 97  1  0  0  0
 12 13  2  0  0  0
 12 98  1  0  0  0
 13 14  1  0  0  0
 13 31  1  0  0  0
 14 15  2  0  0  0
 14 99  1  0  0  0
 15100  1  0  0  0
 16 17  2  0  0  0
 16 21  1  0  0  0
 16 31  1  0  0  0
 17 18  1  0  0  0
 17101  1  0  0  0
 18 19  2  0  0  0
 18102  1  0  0  0
 19 20  1  0  0  0
 19 24  1  0  0  0
 20 21  2  0  0  0
 20103  1  0  0  0
 21 23  1  0  0  0
 22 28  1  0  0  0
 22 32  2  0  0  0
 26 27  1  0  0  0
 28104  1  0  0  0
 28105  1  0  0  0
 29106  1  0  0  0
 29107  1  0  0  0
 33 34  1  0  0  0
 33 66  1  0  0  0
 33 70  2  0  0  0
 34 36  1  0  0  0
 34 59  1  0  0  0
 34108  1  0  0  0
 35 44  2  0  0  0
 35 45  1  0  0  0
 35 68  1  0  0  0
 36 56  1  0  0  0
 36109  1  0  0  0
 37 39  1  0  0  0
 37 47  1  0  0  0
 37 66  1  0  0  0
 37110  1  0  0  0
 38 43  2  0  0  0
 38 46  1  0  0  0
 38 47  1  0  0  0
 39 64  1  0  0  0
 39 67  2  0  0  0
 40 52  1  0  0  0
 40 53  2  0  0  0
 40 58  1  0  0  0
 41111  1  0  0  0
 41112  1  0  0  0
 41113  1  0  0  0
 41 48  1  0  0  0
 42 43  1  0  0  0
 42 66  1  0  0  0
 42114  1  0  0  0
 42115  1  0  0  0
 43 44  1  0  0  0
 44116  1  0  0  0
 45 46  2  0  0  0
 45117  1  0  0  0
 46118  1  0  0  0
 47119  1  0  0  0
 47120  1  0  0  0
 48 56  1  0  0  0
 48 65  1  0  0  0
 48121  1  0  0  0
 49 50  1  0  0  0
 49 53  1  0  0  0
 49 64  1  0  0  0
 49122  1  0  0  0
 50 51  1  0  0  0
 50123  1  0  0  0
 50124  1  0  0  0
 51 52  1  0  0  0
 51125  1  0  0  0
 51126  1  0  0  0
 52127  1  0  0  0
 52128  1  0  0  0
 53 54  1  0  0  0
 54 55  2  0  0  0
 54129  1  0  0  0
 55 57  1  0  0  0
 55130  1  0  0  0
 56 69  2  0  0  0
 57 58  2  0  0  0
 57131  1  0  0  0
 58132  1  0  0  0
 59 60  1  0  0  0
 59 61  1  0  0  0
 59 62  1  0  0  0
 60133  1  0  0  0
 60134  1  0  0  0
 60135  1  0  0  0
 61136  1  0  0  0
 61137  1  0  0  0
 61138  1  0  0  0
 62139  1  0  0  0
 62140  1  0  0  0
 62141  1  0  0  0
 63 65  1  0  0  0
 63142  1  0  0  0
 63143  1  0  0  0
 63144  1  0  0  0
 64145  1  0  0  0
 65146  1  0  0  0
 68 79  1  0  0  0
 71 73  2  0  0  0
 71 74  1  0  0  0
 71147  1  0  0  0
 72 73  1  0  0  0
 72 75  2  0  0  0
 72148  1  0  0  0
 73 82  1  0  0  0
 74 76  2  0  0  0
 74 83  1  0  0  0
 75 76  1  0  0  0
 75 85  1  0  0  0
 76 86  1  0  0  0
 77 78  1  0  0  0
 77 79  1  0  0  0
 77 84  2  0  0  0
 78 81  1  0  0  0
 78149  1  0  0  0
 78150  1  0  0  0
 79151  1  0  0  0
 79152  1  0  0  0
 80 81  1  0  0  0
 80 83  1  0  0  0
 80153  1  0  0  0
 80154  1  0  0  0
 81 87  1  0  0  0
 81155  1  0  0  0
 82156  1  0  0  0
 83157  1  0  0  0
M  ISO  4   1 100  68 101  79 101  82 100
M  END
> <chiral flag>
0

> <version>
0

> <s_m_source_file>
/data/baiqing/PycharmProjects/Reinvent-master-3.2/result/LINK_invent/BTK/process_docking_weight1_custom_product_contain_oxygen_bond_distance_aromatic_linkinvent_7_9_3/rearranged_h_0183.sdf

> <i_m_source_file_index>
33

> <r_mmod_Potential_Energy-OPLS-2005>
92.6782302856445

> <r_mmod_Stretch_Energy-OPLS-2005>
30.4820117950439

> <r_mmod_Bend_Energy-OPLS-2005>
109.482978820801

> <r_mmod_Torsional_Energy-OPLS-2005>
277.340148925781

> <r_mmod_Improper_Torsional_Energy-OPLS-2005>
29.9685745239258

> <r_mmod_Van_der_Waal_Energy-OPLS-2005>
153.227661132812

> <r_mmod_Electrostatic_Energy-OPLS-2005>
-278.835296630859

> <r_mmod_Solvation_Energy-OPLS-2005>
-248.918045043945

> <b_mmod_Minimization_Converged-OPLS-2005>
0

> <r_mmod_RMS_Derivative-OPLS-2005>
4.59785747528076

$$$$
33
                    3D
 Structure written by MMmdl.
149157  0  0  1  0            999 V2000
  -30.5608  -14.8918   20.4553 C   0  0  0  0  0  0
  -30.4561  -12.5540   19.4790 C   0  0  0  0  0  0
  -29.5195  -12.4948   18.2491 C   0  0  0  0  0  0
  -28.0614  -12.2699   18.6898 C   0  0  0  0  0  0
  -27.6366  -13.2268   19.8320 C   0  0  2  0  0  0
  -28.6818  -13.2487   20.9684 C   0  0  0  0  0  0
  -25.2539  -13.8198   20.5640 C   0  0  0  0  0  0
  -24.1834  -13.0467   20.9220 C   0  0  0  0  0  0
  -24.6424  -11.6947   20.8806 C   0  0  0  0  0  0
  -23.9106  -10.4331   21.0458 C   0  0  0  0  0  0
  -24.3652   -9.4222   21.9210 C   0  0  0  0  0  0
  -23.6317   -8.2255   22.0751 C   0  0  0  0  0  0
  -22.4291   -8.0309   21.3549 C   0  0  0  0  0  0
  -21.9946   -9.0303   20.4647 C   0  0  0  0  0  0
  -22.7298  -10.2178   20.3081 C   0  0  0  0  0  0
  -21.6851   -6.0775   22.5304 C   0  0  0  0  0  0
  -21.4004   -6.5664   23.8244 C   0  0  0  0  0  0
  -21.3645   -5.6800   24.9197 C   0  0  0  0  0  0
  -21.6043   -4.3067   24.7236 C   0  0  0  0  0  0
  -21.8815   -3.8175   23.4351 C   0  0  0  0  0  0
  -21.9192   -4.7004   22.3418 C   0  0  0  0  0  0
  -22.7869  -13.5256   21.1887 C   0  0  0  0  0  0
  -22.1660   -4.2200   21.0992 F   0  0  0  0  0  0
  -21.5630   -3.4539   25.7735 F   0  0  0  0  0  0
  -29.9635  -13.6408   20.3671 N   0  0  0  0  0  0
  -26.2941  -12.9374   20.3216 N   0  0  0  0  0  0
  -25.9340  -11.6550   20.5783 N   0  0  0  0  0  0
  -22.0501  -12.8235   22.0414 N   0  0  0  0  0  0
  -25.4216  -15.1912   20.3941 N   0  0  0  0  0  0
  -31.7755  -14.9710   20.2375 O   0  0  0  0  0  0
  -21.6632   -6.8923   21.4260 O   0  0  0  0  0  0
  -22.3550  -14.5572   20.6733 O   0  0  0  0  0  0
  -24.6332  -31.8432   23.1892 C   0  0  0  0  0  0
  -25.9092  -32.4704   23.8247 C   0  0  1  0  0  0
  -27.2177  -27.1778   20.1576 C   0  0  0  0  0  0
  -25.5851  -33.8516   24.2178 N   0  0  0  0  0  0
  -23.4334  -30.4673   21.5346 C   0  0  2  0  0  0
  -24.8868  -28.9037   20.1065 C   0  0  0  0  0  0
  -22.7522  -29.4527   22.4840 C   0  0  0  0  0  0
  -18.0289  -28.1387   22.8489 C   0  0  0  0  0  0
  -24.1481  -36.7274   23.2642 C   0  0  0  0  0  0
  -25.9835  -30.7407   21.3718 C   0  0  0  0  0  0
  -26.0610  -29.3517   20.7234 C   0  0  0  0  0  0
  -27.2255  -28.5033   20.7401 C   0  0  0  0  0  0
  -26.0084  -26.8168   19.5143 C   0  0  0  0  0  0
  -24.8701  -27.6478   19.4865 C   0  0  0  0  0  0
  -23.6566  -29.7961   20.1540 C   0  0  0  0  0  0
  -25.4086  -36.3039   24.0350 C   0  0  1  0  0  0
  -20.5915  -28.3680   23.1255 C   0  0  2  0  0  0
  -20.6760  -26.9386   22.5389 C   0  0  0  0  0  0
  -19.5727  -26.6378   21.5210 C   0  0  0  0  0  0
  -18.1926  -26.7933   22.1654 C   0  0  0  0  0  0
  -19.1558  -28.8842   23.2875 C   0  0  0  0  0  0
  -18.9494  -30.1455   23.8873 C   0  0  0  0  0  0
  -17.6500  -30.6580   24.0582 C   0  0  0  0  0  0
  -25.9013  -34.9418   23.5084 C   0  0  0  0  0  0
  -16.5378  -29.9086   23.6348 C   0  0  0  0  0  0
  -16.7291  -28.6514   23.0342 C   0  0  0  0  0  0
  -26.4433  -31.6555   25.0666 C   0  0  0  0  0  0
  -25.3656  -31.3777   26.1394 C   0  0  0  0  0  0
  -27.0248  -30.2940   24.6183 C   0  0  0  0  0  0
  -27.5965  -32.4327   25.7428 C   0  0  0  0  0  0
  -27.5570  -37.1754   24.8473 C   0  0  0  0  0  0
  -21.4213  -29.3033   22.3632 N   0  0  0  0  0  0
  -26.4241  -37.3746   23.9473 N   0  0  0  0  0  0
  -24.7050  -31.0360   22.0894 N   0  0  0  0  0  0
  -23.4231  -28.8031   23.2904 O   0  0  0  0  0  0
  -28.2495  -26.1852   20.2940 O   0  0  0  0  0  0
  -26.5646  -34.8917   22.4698 O   0  0  0  0  0  0
  -23.5474  -32.1235   23.7178 O   0  0  0  0  0  0
  -30.0530  -17.8936   22.1595 C   0  0  0  0  0  0
  -29.8681  -17.5040   20.8496 C   0  0  0  0  0  0
  -29.5469  -19.9435   20.7210 C   0  0  0  0  0  0
  -28.2712  -25.0084   19.4611 C   0  0  0  0  0  0
  -28.5059  -23.6083   19.4987 C   0  0  0  0  0  0
  -28.8382  -22.5235   20.5473 C   0  0  0  0  0  0
  -30.6074  -21.5639   19.1366 C   0  0  0  0  0  0
  -29.5673  -18.7073   20.0601 N   0  0  0  0  0  0
  -29.7281  -16.0351   20.4880 N   0  0  0  0  0  0
  -29.5083  -21.3375   20.1076 N   0  0  0  0  0  0
  -28.4706  -22.6291   21.7206 O   0  0  0  0  0  0
  -28.3094  -23.0695   18.2838 O   0  0  0  0  0  0
  -31.2365  -22.7190   19.3816 F   0  0  0  0  0  0
  -31.5373  -20.6070   19.2171 F   0  0  0  0  0  0
  -29.8812  -19.6433   22.4306 S   0  0  0  0  0  0
  -31.4839  -12.7247   19.1522 H   0  0  0  0  0  0
  -30.4639  -11.5980   20.0072 H   0  0  0  0  0  0
  -29.8322  -11.6957   17.5747 H   0  0  0  0  0  0
  -29.5900  -13.4231   17.6811 H   0  0  0  0  0  0
  -27.9887  -11.2396   19.0418 H   0  0  0  0  0  0
  -27.3820  -12.3467   17.8407 H   0  0  0  0  0  0
  -27.6039  -14.2188   19.3806 H   0  0  0  0  0  0
  -28.7593  -12.2765   21.4565 H   0  0  0  0  0  0
  -28.3858  -13.9592   21.7412 H   0  0  0  0  0  0
  -25.2814   -9.5679   22.4777 H   0  0  0  0  0  0
  -24.0055   -7.4616   22.7428 H   0  0  0  0  0  0
  -21.0900   -8.8846   19.8911 H   0  0  0  0  0  0
  -22.3806  -10.9729   19.6185 H   0  0  0  0  0  0
  -21.1981   -7.6172   23.9773 H   0  0  0  0  0  0
  -21.1454   -6.0519   25.9104 H   0  0  0  0  0  0
  -22.0597   -2.7644   23.2839 H   0  0  0  0  0  0
  -22.4117  -11.9886   22.4792 H   0  0  0  0  0  0
  -21.1123  -13.1252   22.2612 H   0  0  0  0  0  0
  -24.6388  -15.8343   20.4573 H   0  0  0  0  0  0
  -26.2486  -15.6206   20.0003 H   0  0  0  0  0  0
  -26.7128  -32.5325   23.0942 H   0  0  0  0  0  0
  -24.9928  -33.9625   25.0268 H   0  0  0  0  0  0
  -22.7305  -31.2896   21.3827 H   0  0  0  0  0  0
  -23.3749  -35.9594   23.3254 H   0  0  0  0  0  0
  -24.3560  -36.8897   22.2052 H   0  0  0  0  0  0
  -23.7205  -37.6460   23.6674 H   0  0  0  0  0  0
  -26.1136  -31.4905   20.5892 H   0  0  0  0  0  0
  -26.8640  -30.8072   22.0002 H   0  0  0  0  0  0
  -28.1022  -28.8411   21.2726 H   0  0  0  0  0  0
  -25.8920  -25.8360   19.0776 H   0  0  0  0  0  0
  -23.9678  -27.2905   19.0120 H   0  0  0  0  0  0
  -23.7729  -30.5669   19.3922 H   0  0  0  0  0  0
  -22.7749  -29.2227   19.8575 H   0  0  0  0  0  0
  -25.1248  -36.1853   25.0837 H   0  0  0  0  0  0
  -21.0039  -28.3240   24.1366 H   0  0  0  0  0  0
  -20.5651  -26.2271   23.3587 H   0  0  0  0  0  0
  -21.6614  -26.7353   22.1174 H   0  0  0  0  0  0
  -19.6879  -25.6306   21.1177 H   0  0  0  0  0  0
  -19.6661  -27.3240   20.6800 H   0  0  0  0  0  0
  -17.4174  -26.6676   21.4079 H   0  0  0  0  0  0
  -18.0328  -26.0078   22.9060 H   0  0  0  0  0  0
  -19.7981  -30.7286   24.2190 H   0  0  0  0  0  0
  -17.5072  -31.6267   24.5186 H   0  0  0  0  0  0
  -15.5393  -30.3004   23.7684 H   0  0  0  0  0  0
  -15.8695  -28.0871   22.7017 H   0  0  0  0  0  0
  -24.5844  -30.7087   25.7780 H   0  0  0  0  0  0
  -24.8852  -32.2994   26.4706 H   0  0  0  0  0  0
  -25.7956  -30.9047   27.0241 H   0  0  0  0  0  0
  -26.2834  -29.6711   24.1155 H   0  0  0  0  0  0
  -27.3828  -29.7166   25.4723 H   0  0  0  0  0  0
  -27.8753  -30.4144   23.9462 H   0  0  0  0  0  0
  -27.2518  -33.3657   26.1883 H   0  0  0  0  0  0
  -28.3793  -32.6798   25.0269 H   0  0  0  0  0  0
  -28.0581  -31.8531   26.5420 H   0  0  0  0  0  0
  -28.2538  -38.0103   24.7547 H   0  0  0  0  0  0
  -28.1089  -36.2614   24.6207 H   0  0  0  0  0  0
  -27.2301  -37.1282   25.8877 H   0  0  0  0  0  0
  -20.9371  -29.8776   21.6860 H   0  0  0  0  0  0
  -26.0111  -38.2802   24.1574 H   0  0  0  0  0  0
  -30.2325  -17.2601   23.0201 H   0  0  0  0  0  0
  -28.0434  -25.3763   18.4698 H   0  0  0  0  0  0
  -30.2719  -21.5700   18.1016 H   0  0  0  0  0  0
  -28.7639  -15.7639   20.3834 H   0  0  0  0  0  0
  -28.1907  -22.1355   18.4008 H   0  0  0  0  0  0
  1 25  1  0  0  0
  1 30  2  0  0  0
  1 79  1  0  0  0
  2  3  1  0  0  0
  2 25  1  0  0  0
  2 86  1  0  0  0
  2 87  1  0  0  0
  3  4  1  0  0  0
  3 88  1  0  0  0
  3 89  1  0  0  0
  4  5  1  0  0  0
  4 90  1  0  0  0
  4 91  1  0  0  0
  5  6  1  0  0  0
  5 26  1  0  0  0
  5 92  1  0  0  0
  6 25  1  0  0  0
  6 93  1  0  0  0
  6 94  1  0  0  0
  7  8  2  0  0  0
  7 26  1  0  0  0
  7 29  1  0  0  0
  8  9  1  0  0  0
  8 22  1  0  0  0
  9 10  1  0  0  0
  9 27  2  0  0  0
 10 11  2  0  0  0
 10 15  1  0  0  0
 11 12  1  0  0  0
 11 95  1  0  0  0
 12 13  2  0  0  0
 12 96  1  0  0  0
 13 14  1  0  0  0
 13 31  1  0  0  0
 14 15  2  0  0  0
 14 97  1  0  0  0
 15 98  1  0  0  0
 16 17  2  0  0  0
 16 21  1  0  0  0
 16 31  1  0  0  0
 17 18  1  0  0  0
 17 99  1  0  0  0
 18 19  2  0  0  0
 18100  1  0  0  0
 19 20  1  0  0  0
 19 24  1  0  0  0
 20 21  2  0  0  0
 20101  1  0  0  0
 21 23  1  0  0  0
 22 28  1  0  0  0
 22 32  2  0  0  0
 26 27  1  0  0  0
 28102  1  0  0  0
 28103  1  0  0  0
 29104  1  0  0  0
 29105  1  0  0  0
 33 34  1  0  0  0
 33 66  1  0  0  0
 33 70  2  0  0  0
 34 36  1  0  0  0
 34 59  1  0  0  0
 34106  1  0  0  0
 35 44  2  0  0  0
 35 45  1  0  0  0
 35 68  1  0  0  0
 36 56  1  0  0  0
 36107  1  0  0  0
 37 39  1  0  0  0
 37 47  1  0  0  0
 37 66  1  0  0  0
 37108  1  0  0  0
 38 43  2  0  0  0
 38 46  1  0  0  0
 38 47  1  0  0  0
 39 64  1  0  0  0
 39 67  2  0  0  0
 40 52  1  0  0  0
 40 53  2  0  0  0
 40 58  1  0  0  0
 41109  1  0  0  0
 41110  1  0  0  0
 41111  1  0  0  0
 41 48  1  0  0  0
 42 43  1  0  0  0
 42 66  1  0  0  0
 42112  1  0  0  0
 42113  1  0  0  0
 43 44  1  0  0  0
 44114  1  0  0  0
 45 46  2  0  0  0
 45115  1  0  0  0
 46116  1  0  0  0
 47117  1  0  0  0
 47118  1  0  0  0
 48 56  1  0  0  0
 48 65  1  0  0  0
 48119  1  0  0  0
 49 50  1  0  0  0
 49 53  1  0  0  0
 49 64  1  0  0  0
 49120  1  0  0  0
 50 51  1  0  0  0
 50121  1  0  0  0
 50122  1  0  0  0
 51 52  1  0  0  0
 51123  1  0  0  0
 51124  1  0  0  0
 52125  1  0  0  0
 52126  1  0  0  0
 53 54  1  0  0  0
 54 55  2  0  0  0
 54127  1  0  0  0
 55 57  1  0  0  0
 55128  1  0  0  0
 56 69  2  0  0  0
 57 58  2  0  0  0
 57129  1  0  0  0
 58130  1  0  0  0
 59 60  1  0  0  0
 59 61  1  0  0  0
 59 62  1  0  0  0
 60131  1  0  0  0
 60132  1  0  0  0
 60133  1  0  0  0
 61134  1  0  0  0
 61135  1  0  0  0
 61136  1  0  0  0
 62137  1  0  0  0
 62138  1  0  0  0
 62139  1  0  0  0
 63 65  1  0  0  0
 63140  1  0  0  0
 63141  1  0  0  0
 63142  1  0  0  0
 64143  1  0  0  0
 65144  1  0  0  0
 68 74  1  0  0  0
 71 72  2  0  0  0
 71 85  1  0  0  0
 71145  1  0  0  0
 72 78  1  0  0  0
 72 79  1  0  0  0
 73 78  2  0  0  0
 73 80  1  0  0  0
 73 85  1  0  0  0
 74 75  2  0  0  0
 74146  1  0  0  0
 75 76  1  0  0  0
 75 82  1  0  0  0
 76 80  1  0  0  0
 76 81  2  0  0  0
 77 80  1  0  0  0
 77 83  1  0  0  0
 77 84  1  0  0  0
 77147  1  0  0  0
 79148  1  0  0  0
 82149  1  0  0  0
M  ISO  4   1 100  68 101  74 101  79 100
M  END
> <chiral flag>
0

> <version>
0

> <s_m_source_file>
/data/baiqing/PycharmProjects/Reinvent-master-3.2/result/LINK_invent/BTK/process_docking_weight1_custom_product_contain_oxygen_bond_distance_aromatic_linkinvent_7_9_3/rearranged_h_0183.sdf

> <i_m_source_file_index>
34

> <r_mmod_Potential_Energy-OPLS-2005>
481.101470947266

> <r_mmod_Stretch_Energy-OPLS-2005>
196.125152587891

> <r_mmod_Bend_Energy-OPLS-2005>
287.036102294922

> <r_mmod_Torsional_Energy-OPLS-2005>
303.354797363281

> <r_mmod_Improper_Torsional_Energy-OPLS-2005>
13.3002548217773

> <r_mmod_Van_der_Waal_Energy-OPLS-2005>
135.248901367188

> <r_mmod_Electrostatic_Energy-OPLS-2005>
-379.034759521484

> <r_mmod_Solvation_Energy-OPLS-2005>
-242.544860839844

> <b_mmod_Minimization_Converged-OPLS-2005>
0

> <r_mmod_RMS_Derivative-OPLS-2005>
4.45166301727295

$$$$
34
                    3D
 Structure written by MMmdl.
153161  0  0  1  0            999 V2000
  -30.5892  -14.7760   20.4334 C   0  0  0  0  0  0
  -30.4306  -12.4660   19.4863 C   0  0  0  0  0  0
  -29.5139  -12.5147   18.2433 C   0  0  0  0  0  0
  -28.0407  -12.3302   18.6535 C   0  0  0  0  0  0
  -27.6405  -13.2337   19.8507 C   0  0  2  0  0  0
  -28.6821  -13.1793   20.9905 C   0  0  0  0  0  0
  -25.2502  -13.8198   20.5681 C   0  0  0  0  0  0
  -24.1797  -13.0445   20.9200 C   0  0  0  0  0  0
  -24.6392  -11.6923   20.8743 C   0  0  0  0  0  0
  -23.9073  -10.4298   21.0406 C   0  0  0  0  0  0
  -24.3623   -9.4211   21.9184 C   0  0  0  0  0  0
  -23.6298   -8.2248   22.0756 C   0  0  0  0  0  0
  -22.4278   -8.0284   21.3545 C   0  0  0  0  0  0
  -21.9916   -9.0255   20.4647 C   0  0  0  0  0  0
  -22.7243  -10.2136   20.3057 C   0  0  0  0  0  0
  -21.6858   -6.0738   22.5281 C   0  0  0  0  0  0
  -21.4017   -6.5639   23.8215 C   0  0  0  0  0  0
  -21.3666   -5.6793   24.9178 C   0  0  0  0  0  0
  -21.6048   -4.3055   24.7229 C   0  0  0  0  0  0
  -21.8821   -3.8147   23.4352 C   0  0  0  0  0  0
  -21.9191   -4.6963   22.3406 C   0  0  0  0  0  0
  -22.7816  -13.5222   21.1865 C   0  0  0  0  0  0
  -22.1660   -4.2148   21.0983 F   0  0  0  0  0  0
  -21.5632   -3.4540   25.7742 F   0  0  0  0  0  0
  -29.9846  -13.5353   20.4132 N   0  0  0  0  0  0
  -26.2929  -12.9406   20.3274 N   0  0  0  0  0  0
  -25.9321  -11.6550   20.5745 N   0  0  0  0  0  0
  -22.0470  -12.8209   22.0423 N   0  0  0  0  0  0
  -25.4188  -15.1929   20.4089 N   0  0  0  0  0  0
  -31.7734  -14.8677   20.0936 O   0  0  0  0  0  0
  -21.6648   -6.8876   21.4238 O   0  0  0  0  0  0
  -22.3494  -14.5526   20.6710 O   0  0  0  0  0  0
  -24.6318  -31.8536   23.1936 C   0  0  0  0  0  0
  -25.9139  -32.4742   23.8292 C   0  0  1  0  0  0
  -27.2244  -27.2486   20.1202 C   0  0  0  0  0  0
  -25.5936  -33.8547   24.2230 N   0  0  0  0  0  0
  -23.4273  -30.4730   21.5388 C   0  0  2  0  0  0
  -24.8720  -28.9107   20.1071 C   0  0  0  0  0  0
  -22.7498  -29.4595   22.4921 C   0  0  0  0  0  0
  -18.0293  -28.1379   22.8485 C   0  0  0  0  0  0
  -24.1492  -36.7271   23.2642 C   0  0  0  0  0  0
  -25.9718  -30.7622   21.3704 C   0  0  0  0  0  0
  -26.0427  -29.3826   20.7116 C   0  0  0  0  0  0
  -27.2164  -28.5639   20.7030 C   0  0  0  0  0  0
  -26.0211  -26.8306   19.5151 C   0  0  0  0  0  0
  -24.8672  -27.6435   19.4993 C   0  0  0  0  0  0
  -23.6425  -29.7999   20.1559 C   0  0  0  0  0  0
  -25.4121  -36.3065   24.0325 C   0  0  1  0  0  0
  -20.5894  -28.3693   23.1277 C   0  0  2  0  0  0
  -20.6779  -26.9412   22.5412 C   0  0  0  0  0  0
  -19.5754  -26.6382   21.5217 C   0  0  0  0  0  0
  -18.1934  -26.7921   22.1627 C   0  0  0  0  0  0
  -19.1544  -28.8853   23.2874 C   0  0  0  0  0  0
  -18.9469  -30.1455   23.8891 C   0  0  0  0  0  0
  -17.6465  -30.6581   24.0558 C   0  0  0  0  0  0
  -25.9065  -34.9439   23.5086 C   0  0  0  0  0  0
  -16.5358  -29.9074   23.6326 C   0  0  0  0  0  0
  -16.7278  -28.6492   23.0349 C   0  0  0  0  0  0
  -26.4502  -31.6564   25.0683 C   0  0  0  0  0  0
  -25.3721  -31.3718   26.1400 C   0  0  0  0  0  0
  -27.0352  -30.2981   24.6167 C   0  0  0  0  0  0
  -27.6053  -32.4307   25.7465 C   0  0  0  0  0  0
  -27.5581  -37.1793   24.8468 C   0  0  0  0  0  0
  -21.4208  -29.3039   22.3665 N   0  0  0  0  0  0
  -26.4293  -37.3766   23.9412 N   0  0  0  0  0  0
  -24.6963  -31.0491   22.0908 N   0  0  0  0  0  0
  -23.4201  -28.8150   23.3030 O   0  0  0  0  0  0
  -28.3632  -26.4106   20.2007 O   0  0  0  0  0  0
  -26.5645  -34.8925   22.4659 O   0  0  0  0  0  0
  -23.5469  -32.1373   23.7232 O   0  0  0  0  0  0
  -30.4635  -19.4728   19.0145 C   0  0  0  0  0  0
  -29.5345  -19.6786   20.0262 C   0  0  0  0  0  0
  -29.9806  -17.3173   20.2526 C   0  0  0  0  0  0
  -29.2390  -22.3189   20.1226 C   0  0  0  0  0  0
  -30.9570  -20.4069   17.9532 C   0  0  0  0  0  0
  -28.3073  -24.9662   18.1167 C   0  0  0  0  0  0
  -28.2764  -23.5968   20.3709 C   0  0  0  0  0  0
  -28.5866  -25.0242   19.6301 C   0  0  2  0  0  0
  -29.2449  -18.4082   20.6761 N   0  0  0  0  0  0
  -28.8427  -20.9861   20.2839 N   0  0  0  0  0  0
  -29.8123  -15.9044   20.6922 N   0  0  0  0  0  0
  -30.4080  -22.5826   19.8397 O   0  0  0  0  0  0
  -31.0880  -17.8190   18.9805 S   0  0  0  0  0  0
  -31.4741  -12.5822   19.1890 H   0  0  0  0  0  0
  -30.3679  -11.4914   19.9731 H   0  0  0  0  0  0
  -29.8024  -11.7453   17.5258 H   0  0  0  0  0  0
  -29.6363  -13.4716   17.7330 H   0  0  0  0  0  0
  -27.9035  -11.2812   18.9196 H   0  0  0  0  0  0
  -27.3843  -12.5143   17.8021 H   0  0  0  0  0  0
  -27.6312  -14.2527   19.4630 H   0  0  0  0  0  0
  -28.7201  -12.1852   21.4389 H   0  0  0  0  0  0
  -28.4090  -13.8643   21.7951 H   0  0  0  0  0  0
  -25.2770   -9.5692   22.4754 H   0  0  0  0  0  0
  -24.0011   -7.4645   22.7477 H   0  0  0  0  0  0
  -21.0851   -8.8773   19.8947 H   0  0  0  0  0  0
  -22.3702  -10.9673   19.6166 H   0  0  0  0  0  0
  -21.2007   -7.6148   23.9716 H   0  0  0  0  0  0
  -21.1486   -6.0525   25.9079 H   0  0  0  0  0  0
  -22.0590   -2.7608   23.2856 H   0  0  0  0  0  0
  -22.4095  -11.9873   22.4807 H   0  0  0  0  0  0
  -21.1084  -13.1220   22.2631 H   0  0  0  0  0  0
  -24.6464  -15.8426   20.5096 H   0  0  0  0  0  0
  -26.2627  -15.6356   20.0694 H   0  0  0  0  0  0
  -26.7193  -32.5381   23.1018 H   0  0  0  0  0  0
  -25.0066  -33.9679   25.0365 H   0  0  0  0  0  0
  -22.7230  -31.2941   21.3907 H   0  0  0  0  0  0
  -23.3767  -35.9589   23.3294 H   0  0  0  0  0  0
  -24.3577  -36.8908   22.2058 H   0  0  0  0  0  0
  -23.7229  -37.6464   23.6670 H   0  0  0  0  0  0
  -26.1091  -31.5220   20.5997 H   0  0  0  0  0  0
  -26.8501  -30.8125   22.0028 H   0  0  0  0  0  0
  -28.1158  -28.9241   21.1824 H   0  0  0  0  0  0
  -25.9358  -25.8457   19.0879 H   0  0  0  0  0  0
  -23.9646  -27.2692   19.0365 H   0  0  0  0  0  0
  -23.7608  -30.5735   19.3959 H   0  0  0  0  0  0
  -22.7599  -29.2308   19.8577 H   0  0  0  0  0  0
  -25.1304  -36.1907   25.0816 H   0  0  0  0  0  0
  -20.9990  -28.3269   24.1398 H   0  0  0  0  0  0
  -20.5685  -26.2307   23.3618 H   0  0  0  0  0  0
  -21.6645  -26.7432   22.1208 H   0  0  0  0  0  0
  -19.6918  -25.6296   21.1242 H   0  0  0  0  0  0
  -19.6685  -27.3198   20.6752 H   0  0  0  0  0  0
  -17.4209  -26.6680   21.4024 H   0  0  0  0  0  0
  -18.0320  -26.0059   22.9018 H   0  0  0  0  0  0
  -19.7945  -30.7272   24.2262 H   0  0  0  0  0  0
  -17.5017  -31.6263   24.5155 H   0  0  0  0  0  0
  -15.5356  -30.2971   23.7651 H   0  0  0  0  0  0
  -15.8684  -28.0806   22.7063 H   0  0  0  0  0  0
  -24.5902  -30.7061   25.7722 H   0  0  0  0  0  0
  -24.8905  -32.2890   26.4798 H   0  0  0  0  0  0
  -25.8034  -30.8910   27.0187 H   0  0  0  0  0  0
  -26.2930  -29.6718   24.1201 H   0  0  0  0  0  0
  -27.4050  -29.7250   25.4678 H   0  0  0  0  0  0
  -27.8793  -30.4255   23.9388 H   0  0  0  0  0  0
  -27.2653  -33.3614   26.2014 H   0  0  0  0  0  0
  -28.3873  -32.6854   25.0301 H   0  0  0  0  0  0
  -28.0695  -31.8445   26.5404 H   0  0  0  0  0  0
  -28.2599  -38.0092   24.7524 H   0  0  0  0  0  0
  -28.1082  -36.2627   24.6284 H   0  0  0  0  0  0
  -27.2301  -37.1422   25.8872 H   0  0  0  0  0  0
  -20.9399  -29.8749   21.6856 H   0  0  0  0  0  0
  -26.0174  -38.2842   24.1411 H   0  0  0  0  0  0
  -31.7751  -21.0261   18.3200 H   0  0  0  0  0  0
  -30.1601  -21.0575   17.5917 H   0  0  0  0  0  0
  -31.3341  -19.8555   17.0914 H   0  0  0  0  0  0
  -28.8949  -24.1751   17.6500 H   0  0  0  0  0  0
  -28.5803  -25.9010   17.6270 H   0  0  0  0  0  0
  -27.2664  -24.7502   17.8844 H   0  0  0  0  0  0
  -28.3040  -23.7789   21.4447 H   0  0  0  0  0  0
  -27.2491  -23.3026   20.1571 H   0  0  0  0  0  0
  -29.6762  -25.0496   19.6635 H   0  0  0  0  0  0
  -27.9160  -20.8873   20.6726 H   0  0  0  0  0  0
  -28.9205  -15.7042   21.1139 H   0  0  0  0  0  0
  1 25  1  0  0  0
  1 30  2  0  0  0
  1 81  1  0  0  0
  2  3  1  0  0  0
  2 25  1  0  0  0
  2 84  1  0  0  0
  2 85  1  0  0  0
  3  4  1  0  0  0
  3 86  1  0  0  0
  3 87  1  0  0  0
  4  5  1  0  0  0
  4 88  1  0  0  0
  4 89  1  0  0  0
  5  6  1  0  0  0
  5 26  1  0  0  0
  5 90  1  0  0  0
  6 25  1  0  0  0
  6 91  1  0  0  0
  6 92  1  0  0  0
  7  8  2  0  0  0
  7 26  1  0  0  0
  7 29  1  0  0  0
  8  9  1  0  0  0
  8 22  1  0  0  0
  9 10  1  0  0  0
  9 27  2  0  0  0
 10 11  2  0  0  0
 10 15  1  0  0  0
 11 12  1  0  0  0
 11 93  1  0  0  0
 12 13  2  0  0  0
 12 94  1  0  0  0
 13 14  1  0  0  0
 13 31  1  0  0  0
 14 15  2  0  0  0
 14 95  1  0  0  0
 15 96  1  0  0  0
 16 17  2  0  0  0
 16 21  1  0  0  0
 16 31  1  0  0  0
 17 18  1  0  0  0
 17 97  1  0  0  0
 18 19  2  0  0  0
 18 98  1  0  0  0
 19 20  1  0  0  0
 19 24  1  0  0  0
 20 21  2  0  0  0
 20 99  1  0  0  0
 21 23  1  0  0  0
 22 28  1  0  0  0
 22 32  2  0  0  0
 26 27  1  0  0  0
 28100  1  0  0  0
 28101  1  0  0  0
 29102  1  0  0  0
 29103  1  0  0  0
 33 34  1  0  0  0
 33 66  1  0  0  0
 33 70  2  0  0  0
 34 36  1  0  0  0
 34 59  1  0  0  0
 34104  1  0  0  0
 35 44  2  0  0  0
 35 45  1  0  0  0
 35 68  1  0  0  0
 36 56  1  0  0  0
 36105  1  0  0  0
 37 39  1  0  0  0
 37 47  1  0  0  0
 37 66  1  0  0  0
 37106  1  0  0  0
 38 43  2  0  0  0
 38 46  1  0  0  0
 38 47  1  0  0  0
 39 64  1  0  0  0
 39 67  2  0  0  0
 40 52  1  0  0  0
 40 53  2  0  0  0
 40 58  1  0  0  0
 41107  1  0  0  0
 41108  1  0  0  0
 41109  1  0  0  0
 41 48  1  0  0  0
 42 43  1  0  0  0
 42 66  1  0  0  0
 42110  1  0  0  0
 42111  1  0  0  0
 43 44  1  0  0  0
 44112  1  0  0  0
 45 46  2  0  0  0
 45113  1  0  0  0
 46114  1  0  0  0
 47115  1  0  0  0
 47116  1  0  0  0
 48 56  1  0  0  0
 48 65  1  0  0  0
 48117  1  0  0  0
 49 50  1  0  0  0
 49 53  1  0  0  0
 49 64  1  0  0  0
 49118  1  0  0  0
 50 51  1  0  0  0
 50119  1  0  0  0
 50120  1  0  0  0
 51 52  1  0  0  0
 51121  1  0  0  0
 51122  1  0  0  0
 52123  1  0  0  0
 52124  1  0  0  0
 53 54  1  0  0  0
 54 55  2  0  0  0
 54125  1  0  0  0
 55 57  1  0  0  0
 55126  1  0  0  0
 56 69  2  0  0  0
 57 58  2  0  0  0
 57127  1  0  0  0
 58128  1  0  0  0
 59 60  1  0  0  0
 59 61  1  0  0  0
 59 62  1  0  0  0
 60129  1  0  0  0
 60130  1  0  0  0
 60131  1  0  0  0
 61132  1  0  0  0
 61133  1  0  0  0
 61134  1  0  0  0
 62135  1  0  0  0
 62136  1  0  0  0
 62137  1  0  0  0
 63 65  1  0  0  0
 63138  1  0  0  0
 63139  1  0  0  0
 63140  1  0  0  0
 64141  1  0  0  0
 65142  1  0  0  0
 68 78  1  0  0  0
 71 72  2  0  0  0
 71 75  1  0  0  0
 71 83  1  0  0  0
 72 79  1  0  0  0
 72 80  1  0  0  0
 73 79  2  0  0  0
 73 81  1  0  0  0
 73 83  1  0  0  0
 74 77  1  0  0  0
 74 80  1  0  0  0
 74 82  2  0  0  0
 75143  1  0  0  0
 75144  1  0  0  0
 75145  1  0  0  0
 76146  1  0  0  0
 76147  1  0  0  0
 76148  1  0  0  0
 76 78  1  0  0  0
 77 78  1  0  0  0
 77149  1  0  0  0
 77150  1  0  0  0
 78151  1  0  0  0
 80152  1  0  0  0
 81153  1  0  0  0
M  ISO  4   1 100  68 101  78 101  81 100
M  END
> <chiral flag>
0

> <version>
0

> <s_m_source_file>
/data/baiqing/PycharmProjects/Reinvent-master-3.2/result/LINK_invent/BTK/process_docking_weight1_custom_product_contain_oxygen_bond_distance_aromatic_linkinvent_7_9_3/rearranged_h_0183.sdf

> <i_m_source_file_index>
35

> <r_mmod_Potential_Energy-OPLS-2005>
103.35334777832

> <r_mmod_Stretch_Energy-OPLS-2005>
139.194564819336

> <r_mmod_Bend_Energy-OPLS-2005>
216.643676757812

> <r_mmod_Torsional_Energy-OPLS-2005>
210.15478515625

> <r_mmod_Improper_Torsional_Energy-OPLS-2005>
4.99257898330688

> <r_mmod_Van_der_Waal_Energy-OPLS-2005>
116.99877166748

> <r_mmod_Electrostatic_Energy-OPLS-2005>
-444.76513671875

> <r_mmod_Solvation_Energy-OPLS-2005>
-231.826385498047

> <b_mmod_Minimization_Converged-OPLS-2005>
0

> <r_mmod_RMS_Derivative-OPLS-2005>
1.0420708656311

$$$$
35
                    3D
 Structure written by MMmdl.
150158  0  0  1  0            999 V2000
  -30.6197  -14.7633   20.4484 C   0  0  0  0  0  0
  -30.4235  -12.4617   19.4928 C   0  0  0  0  0  0
  -29.5082  -12.5155   18.2504 C   0  0  0  0  0  0
  -28.0362  -12.3329   18.6611 C   0  0  0  0  0  0
  -27.6389  -13.2399   19.8561 C   0  0  2  0  0  0
  -28.6796  -13.1936   20.9958 C   0  0  0  0  0  0
  -25.2467  -13.8230   20.5712 C   0  0  0  0  0  0
  -24.1769  -13.0450   20.9242 C   0  0  0  0  0  0
  -24.6382  -11.6935   20.8779 C   0  0  0  0  0  0
  -23.9070  -10.4304   21.0426 C   0  0  0  0  0  0
  -24.3628   -9.4202   21.9188 C   0  0  0  0  0  0
  -23.6310   -8.2233   22.0736 C   0  0  0  0  0  0
  -22.4286   -8.0287   21.3542 C   0  0  0  0  0  0
  -21.9930   -9.0261   20.4636 C   0  0  0  0  0  0
  -22.7262  -10.2141   20.3057 C   0  0  0  0  0  0
  -21.6855   -6.0751   22.5284 C   0  0  0  0  0  0
  -21.4014   -6.5643   23.8223 C   0  0  0  0  0  0
  -21.3660   -5.6794   24.9194 C   0  0  0  0  0  0
  -21.6044   -4.3061   24.7231 C   0  0  0  0  0  0
  -21.8814   -3.8160   23.4347 C   0  0  0  0  0  0
  -21.9194   -4.6979   22.3409 C   0  0  0  0  0  0
  -22.7780  -13.5199   21.1914 C   0  0  0  0  0  0
  -22.1659   -4.2166   21.0991 F   0  0  0  0  0  0
  -21.5631   -3.4538   25.7731 F   0  0  0  0  0  0
  -29.9873  -13.5365   20.4176 N   0  0  0  0  0  0
  -26.2909  -12.9451   20.3329 N   0  0  0  0  0  0
  -25.9312  -11.6587   20.5787 N   0  0  0  0  0  0
  -22.0456  -12.8153   22.0481 N   0  0  0  0  0  0
  -25.4156  -15.1954   20.4096 N   0  0  0  0  0  0
  -31.8058  -14.8327   20.1083 O   0  0  0  0  0  0
  -21.6639   -6.8892   21.4245 O   0  0  0  0  0  0
  -22.3428  -14.5506   20.6789 O   0  0  0  0  0  0
  -24.6313  -31.8562   23.1974 C   0  0  0  0  0  0
  -25.9128  -32.4774   23.8328 C   0  0  1  0  0  0
  -27.2317  -27.2524   20.1174 C   0  0  0  0  0  0
  -25.5928  -33.8574   24.2259 N   0  0  0  0  0  0
  -23.4294  -30.4754   21.5436 C   0  0  2  0  0  0
  -24.8796  -28.9221   20.1128 C   0  0  0  0  0  0
  -22.7511  -29.4581   22.4935 C   0  0  0  0  0  0
  -18.0285  -28.1377   22.8492 C   0  0  0  0  0  0
  -24.1486  -36.7261   23.2631 C   0  0  0  0  0  0
  -25.9780  -30.7635   21.3830 C   0  0  0  0  0  0
  -26.0518  -29.3862   20.7201 C   0  0  0  0  0  0
  -27.2257  -28.5631   20.7122 C   0  0  0  0  0  0
  -26.0291  -26.8607   19.4824 C   0  0  0  0  0  0
  -24.8740  -27.6677   19.4879 C   0  0  0  0  0  0
  -23.6487  -29.8082   20.1612 C   0  0  0  0  0  0
  -25.4117  -36.3078   24.0328 C   0  0  1  0  0  0
  -20.5887  -28.3674   23.1287 C   0  0  2  0  0  0
  -20.6768  -26.9398   22.5418 C   0  0  0  0  0  0
  -19.5749  -26.6375   21.5215 C   0  0  0  0  0  0
  -18.1926  -26.7923   22.1615 C   0  0  0  0  0  0
  -19.1539  -28.8846   23.2877 C   0  0  0  0  0  0
  -18.9456  -30.1446   23.8895 C   0  0  0  0  0  0
  -17.6460  -30.6580   24.0555 C   0  0  0  0  0  0
  -25.9065  -34.9452   23.5097 C   0  0  0  0  0  0
  -16.5349  -29.9075   23.6336 C   0  0  0  0  0  0
  -16.7275  -28.6487   23.0372 C   0  0  0  0  0  0
  -26.4496  -31.6605   25.0721 C   0  0  0  0  0  0
  -25.3702  -31.3769   26.1429 C   0  0  0  0  0  0
  -27.0343  -30.3017   24.6228 C   0  0  0  0  0  0
  -27.6055  -32.4351   25.7479 C   0  0  0  0  0  0
  -27.5608  -37.1765   24.8448 C   0  0  0  0  0  0
  -21.4216  -29.3019   22.3683 N   0  0  0  0  0  0
  -26.4288  -37.3787   23.9437 N   0  0  0  0  0  0
  -24.6986  -31.0492   22.0977 N   0  0  0  0  0  0
  -23.4215  -28.8128   23.3038 O   0  0  0  0  0  0
  -28.3452  -26.3744   20.2008 O   0  0  0  0  0  0
  -26.5640  -34.8928   22.4668 O   0  0  0  0  0  0
  -23.5457  -32.1400   23.7243 O   0  0  0  0  0  0
  -29.8576  -19.7145   20.2204 C   0  0  0  0  0  0
  -30.8720  -19.4929   19.3163 C   0  0  0  0  0  0
  -30.1370  -17.3271   20.3251 C   0  0  0  0  0  0
  -29.3631  -21.1256   20.6663 C   0  0  0  0  0  0
  -29.1900  -22.3179   19.9418 C   0  0  0  0  0  0
  -28.8748  -23.7457   20.5239 C   0  0  0  0  0  0
  -29.3242  -22.3361   18.4241 C   0  0  0  0  0  0
  -28.3542  -24.9745   19.6232 C   0  0  0  0  0  0
  -29.4614  -18.4394   20.8005 N   0  0  0  0  0  0
  -29.8778  -15.9117   20.7093 N   0  0  0  0  0  0
  -29.0389  -23.9982   21.7229 O   0  0  0  0  0  0
  -29.1541  -21.1108   21.9908 O   0  0  0  0  0  0
  -31.5549  -20.4707   18.6703 F   0  0  0  0  0  0
  -31.3356  -17.8121   19.1118 S   0  0  0  0  0  0
  -31.4690  -12.5633   19.1963 H   0  0  0  0  0  0
  -30.3446  -11.4907   19.9847 H   0  0  0  0  0  0
  -29.7911  -11.7461   17.5318 H   0  0  0  0  0  0
  -29.6342  -13.4728   17.7430 H   0  0  0  0  0  0
  -27.8990  -11.2859   18.9341 H   0  0  0  0  0  0
  -27.3780  -12.5133   17.8118 H   0  0  0  0  0  0
  -27.6288  -14.2580   19.4686 H   0  0  0  0  0  0
  -28.7066  -12.2036   21.4528 H   0  0  0  0  0  0
  -28.4047  -13.8857   21.7943 H   0  0  0  0  0  0
  -25.2776   -9.5659   22.4754 H   0  0  0  0  0  0
  -24.0034   -7.4590   22.7413 H   0  0  0  0  0  0
  -21.0881   -8.8783   19.8897 H   0  0  0  0  0  0
  -22.3751  -10.9680   19.6155 H   0  0  0  0  0  0
  -21.2008   -7.6149   23.9739 H   0  0  0  0  0  0
  -21.1479   -6.0531   25.9107 H   0  0  0  0  0  0
  -22.0591   -2.7624   23.2857 H   0  0  0  0  0  0
  -22.4108  -11.9816   22.4843 H   0  0  0  0  0  0
  -21.1048  -13.1112   22.2696 H   0  0  0  0  0  0
  -24.6437  -15.8494   20.4878 H   0  0  0  0  0  0
  -26.2659  -15.6290   20.0733 H   0  0  0  0  0  0
  -26.7184  -32.5428   23.1058 H   0  0  0  0  0  0
  -25.0091  -33.9720   25.0417 H   0  0  0  0  0  0
  -22.7247  -31.2963   21.3959 H   0  0  0  0  0  0
  -23.3805  -35.9534   23.3242 H   0  0  0  0  0  0
  -24.3585  -36.8930   22.2055 H   0  0  0  0  0  0
  -23.7173  -37.6414   23.6688 H   0  0  0  0  0  0
  -26.1234  -31.5290   20.6190 H   0  0  0  0  0  0
  -26.8521  -30.8084   22.0218 H   0  0  0  0  0  0
  -28.1251  -28.9143   21.1982 H   0  0  0  0  0  0
  -25.9217  -25.9100   18.9879 H   0  0  0  0  0  0
  -23.9719  -27.3037   19.0151 H   0  0  0  0  0  0
  -23.7733  -30.5837   19.4051 H   0  0  0  0  0  0
  -22.7680  -29.2404   19.8567 H   0  0  0  0  0  0
  -25.1294  -36.1916   25.0821 H   0  0  0  0  0  0
  -20.9969  -28.3242   24.1410 H   0  0  0  0  0  0
  -20.5659  -26.2285   23.3614 H   0  0  0  0  0  0
  -21.6643  -26.7421   22.1220 H   0  0  0  0  0  0
  -19.6909  -25.6287   21.1242 H   0  0  0  0  0  0
  -19.6691  -27.3186   20.6747 H   0  0  0  0  0  0
  -17.4207  -26.6696   21.4000 H   0  0  0  0  0  0
  -18.0298  -26.0056   22.8996 H   0  0  0  0  0  0
  -19.7930  -30.7257   24.2279 H   0  0  0  0  0  0
  -17.5007  -31.6267   24.5145 H   0  0  0  0  0  0
  -15.5342  -30.2970   23.7654 H   0  0  0  0  0  0
  -15.8673  -28.0780   22.7122 H   0  0  0  0  0  0
  -24.5827  -30.7197   25.7718 H   0  0  0  0  0  0
  -24.8950  -32.2955   26.4879 H   0  0  0  0  0  0
  -25.7975  -30.8883   27.0194 H   0  0  0  0  0  0
  -26.2932  -29.6764   24.1235 H   0  0  0  0  0  0
  -27.3991  -29.7282   25.4760 H   0  0  0  0  0  0
  -27.8827  -30.4277   23.9496 H   0  0  0  0  0  0
  -27.2672  -33.3653   26.2050 H   0  0  0  0  0  0
  -28.3850  -32.6919   25.0295 H   0  0  0  0  0  0
  -28.0748  -31.8490   26.5391 H   0  0  0  0  0  0
  -28.2548  -38.0140   24.7647 H   0  0  0  0  0  0
  -28.1180  -36.2688   24.6091 H   0  0  0  0  0  0
  -27.2346  -37.1197   25.8846 H   0  0  0  0  0  0
  -20.9408  -29.8735   21.6874 H   0  0  0  0  0  0
  -26.0166  -38.2836   24.1536 H   0  0  0  0  0  0
  -29.3642  -21.3350   18.0005 H   0  0  0  0  0  0
  -30.2291  -22.8672   18.1264 H   0  0  0  0  0  0
  -28.4633  -22.8181   17.9586 H   0  0  0  0  0  0
  -27.3818  -24.6648   19.2584 H   0  0  0  0  0  0
  -28.9949  -25.0193   18.7432 H   0  0  0  0  0  0
  -28.9669  -15.7405   21.1038 H   0  0  0  0  0  0
  -29.2760  -20.2104   22.2718 H   0  0  0  0  0  0
  1 25  1  0  0  0
  1 30  2  0  0  0
  1 80  1  0  0  0
  2  3  1  0  0  0
  2 25  1  0  0  0
  2 85  1  0  0  0
  2 86  1  0  0  0
  3  4  1  0  0  0
  3 87  1  0  0  0
  3 88  1  0  0  0
  4  5  1  0  0  0
  4 89  1  0  0  0
  4 90  1  0  0  0
  5  6  1  0  0  0
  5 26  1  0  0  0
  5 91  1  0  0  0
  6 25  1  0  0  0
  6 92  1  0  0  0
  6 93  1  0  0  0
  7  8  2  0  0  0
  7 26  1  0  0  0
  7 29  1  0  0  0
  8  9  1  0  0  0
  8 22  1  0  0  0
  9 10  1  0  0  0
  9 27  2  0  0  0
 10 11  2  0  0  0
 10 15  1  0  0  0
 11 12  1  0  0  0
 11 94  1  0  0  0
 12 13  2  0  0  0
 12 95  1  0  0  0
 13 14  1  0  0  0
 13 31  1  0  0  0
 14 15  2  0  0  0
 14 96  1  0  0  0
 15 97  1  0  0  0
 16 17  2  0  0  0
 16 21  1  0  0  0
 16 31  1  0  0  0
 17 18  1  0  0  0
 17 98  1  0  0  0
 18 19  2  0  0  0
 18 99  1  0  0  0
 19 20  1  0  0  0
 19 24  1  0  0  0
 20 21  2  0  0  0
 20100  1  0  0  0
 21 23  1  0  0  0
 22 28  1  0  0  0
 22 32  2  0  0  0
 26 27  1  0  0  0
 28101  1  0  0  0
 28102  1  0  0  0
 29103  1  0  0  0
 29104  1  0  0  0
 33 34  1  0  0  0
 33 66  1  0  0  0
 33 70  2  0  0  0
 34 36  1  0  0  0
 34 59  1  0  0  0
 34105  1  0  0  0
 35 44  2  0  0  0
 35 45  1  0  0  0
 35 68  1  0  0  0
 36 56  1  0  0  0
 36106  1  0  0  0
 37 39  1  0  0  0
 37 47  1  0  0  0
 37 66  1  0  0  0
 37107  1  0  0  0
 38 43  2  0  0  0
 38 46  1  0  0  0
 38 47  1  0  0  0
 39 64  1  0  0  0
 39 67  2  0  0  0
 40 52  1  0  0  0
 40 53  2  0  0  0
 40 58  1  0  0  0
 41108  1  0  0  0
 41109  1  0  0  0
 41110  1  0  0  0
 41 48  1  0  0  0
 42 43  1  0  0  0
 42 66  1  0  0  0
 42111  1  0  0  0
 42112  1  0  0  0
 43 44  1  0  0  0
 44113  1  0  0  0
 45 46  2  0  0  0
 45114  1  0  0  0
 46115  1  0  0  0
 47116  1  0  0  0
 47117  1  0  0  0
 48 56  1  0  0  0
 48 65  1  0  0  0
 48118  1  0  0  0
 49 50  1  0  0  0
 49 53  1  0  0  0
 49 64  1  0  0  0
 49119  1  0  0  0
 50 51  1  0  0  0
 50120  1  0  0  0
 50121  1  0  0  0
 51 52  1  0  0  0
 51122  1  0  0  0
 51123  1  0  0  0
 52124  1  0  0  0
 52125  1  0  0  0
 53 54  1  0  0  0
 54 55  2  0  0  0
 54126  1  0  0  0
 55 57  1  0  0  0
 55127  1  0  0  0
 56 69  2  0  0  0
 57 58  2  0  0  0
 57128  1  0  0  0
 58129  1  0  0  0
 59 60  1  0  0  0
 59 61  1  0  0  0
 59 62  1  0  0  0
 60130  1  0  0  0
 60131  1  0  0  0
 60132  1  0  0  0
 61133  1  0  0  0
 61134  1  0  0  0
 61135  1  0  0  0
 62136  1  0  0  0
 62137  1  0  0  0
 62138  1  0  0  0
 63 65  1  0  0  0
 63139  1  0  0  0
 63140  1  0  0  0
 63141  1  0  0  0
 64142  1  0  0  0
 65143  1  0  0  0
 68 78  1  0  0  0
 71 72  2  0  0  0
 71 74  1  0  0  0
 71 79  1  0  0  0
 72 83  1  0  0  0
 72 84  1  0  0  0
 73 79  2  0  0  0
 73 80  1  0  0  0
 73 84  1  0  0  0
 74 75  2  0  0  0
 74 82  1  0  0  0
 75 76  1  0  0  0
 75 77  1  0  0  0
 76 78  1  0  0  0
 76 81  2  0  0  0
 77144  1  0  0  0
 77145  1  0  0  0
 77146  1  0  0  0
 78147  1  0  0  0
 78148  1  0  0  0
 80149  1  0  0  0
 82150  1  0  0  0
M  ISO  4   1 100  68 101  78 101  80 100
M  END
> <chiral flag>
0

> <version>
0

> <s_m_source_file>
/data/baiqing/PycharmProjects/Reinvent-master-3.2/result/LINK_invent/BTK/process_docking_weight1_custom_product_contain_oxygen_bond_distance_aromatic_linkinvent_7_9_3/rearranged_h_0183.sdf

> <i_m_source_file_index>
36

> <r_mmod_Potential_Energy-OPLS-2005>
178.138198852539

> <r_mmod_Stretch_Energy-OPLS-2005>
140.9521484375

> <r_mmod_Bend_Energy-OPLS-2005>
171.603256225586

> <r_mmod_Torsional_Energy-OPLS-2005>
215.828994750977

> <r_mmod_Improper_Torsional_Energy-OPLS-2005>
4.93678331375122

> <r_mmod_Van_der_Waal_Energy-OPLS-2005>
128.735900878906

> <r_mmod_Electrostatic_Energy-OPLS-2005>
-330.95361328125

> <r_mmod_Solvation_Energy-OPLS-2005>
-243.647735595703

> <b_mmod_Minimization_Converged-OPLS-2005>
0

> <r_mmod_RMS_Derivative-OPLS-2005>
2.45068454742432

$$$$
36
                    3D
 Structure written by MMmdl.
149157  0  0  1  0            999 V2000
  -30.6555  -14.7691   20.4284 C   0  0  0  0  0  0
  -30.4186  -12.4595   19.4955 C   0  0  0  0  0  0
  -29.5128  -12.5200   18.2467 C   0  0  0  0  0  0
  -28.0416  -12.3406   18.6583 C   0  0  0  0  0  0
  -27.6441  -13.2435   19.8539 C   0  0  2  0  0  0
  -28.6904  -13.2297   20.9962 C   0  0  0  0  0  0
  -25.2510  -13.8236   20.5596 C   0  0  0  0  0  0
  -24.1833  -13.0475   20.9194 C   0  0  0  0  0  0
  -24.6452  -11.6948   20.8765 C   0  0  0  0  0  0
  -23.9149  -10.4316   21.0428 C   0  0  0  0  0  0
  -24.3684   -9.4212   21.9198 C   0  0  0  0  0  0
  -23.6334   -8.2254   22.0776 C   0  0  0  0  0  0
  -22.4313   -8.0310   21.3559 C   0  0  0  0  0  0
  -21.9959   -9.0294   20.4669 C   0  0  0  0  0  0
  -22.7320  -10.2156   20.3086 C   0  0  0  0  0  0
  -21.6858   -6.0761   22.5264 C   0  0  0  0  0  0
  -21.4030   -6.5660   23.8198 C   0  0  0  0  0  0
  -21.3671   -5.6818   24.9157 C   0  0  0  0  0  0
  -21.6044   -4.3078   24.7206 C   0  0  0  0  0  0
  -21.8829   -3.8169   23.4319 C   0  0  0  0  0  0
  -21.9204   -4.6988   22.3383 C   0  0  0  0  0  0
  -22.7855  -13.5227   21.1833 C   0  0  0  0  0  0
  -22.1680   -4.2189   21.0958 F   0  0  0  0  0  0
  -21.5614   -3.4554   25.7714 F   0  0  0  0  0  0
  -29.9978  -13.5536   20.4112 N   0  0  0  0  0  0
  -26.2980  -12.9465   20.3309 N   0  0  0  0  0  0
  -25.9381  -11.6592   20.5789 N   0  0  0  0  0  0
  -22.0535  -12.8233   22.0430 N   0  0  0  0  0  0
  -25.4115  -15.1950   20.3730 N   0  0  0  0  0  0
  -31.8413  -14.7803   20.0867 O   0  0  0  0  0  0
  -21.6674   -6.8907   21.4226 O   0  0  0  0  0  0
  -22.3520  -14.5518   20.6641 O   0  0  0  0  0  0
  -24.6363  -31.8547   23.1991 C   0  0  0  0  0  0
  -25.9172  -32.4741   23.8365 C   0  0  1  0  0  0
  -27.1912  -27.1995   20.1578 C   0  0  0  0  0  0
  -25.5964  -33.8563   24.2270 N   0  0  0  0  0  0
  -23.4362  -30.4820   21.5392 C   0  0  2  0  0  0
  -24.8788  -28.9284   20.1004 C   0  0  0  0  0  0
  -22.7516  -29.4630   22.4846 C   0  0  0  0  0  0
  -18.0306  -28.1431   22.8468 C   0  0  0  0  0  0
  -24.1477  -36.7277   23.2645 C   0  0  0  0  0  0
  -25.9863  -30.7417   21.3944 C   0  0  0  0  0  0
  -26.0464  -29.3616   20.7391 C   0  0  0  0  0  0
  -27.2011  -28.5056   20.7678 C   0  0  0  0  0  0
  -26.0135  -26.8733   19.4416 C   0  0  0  0  0  0
  -24.8724  -27.6973   19.4330 C   0  0  0  0  0  0
  -23.6551  -29.8244   20.1506 C   0  0  0  0  0  0
  -25.4106  -36.3064   24.0321 C   0  0  1  0  0  0
  -20.5908  -28.3770   23.1211 C   0  0  2  0  0  0
  -20.6804  -26.9478   22.5386 C   0  0  0  0  0  0
  -19.5764  -26.6412   21.5209 C   0  0  0  0  0  0
  -18.1948  -26.7968   22.1618 C   0  0  0  0  0  0
  -19.1562  -28.8906   23.2839 C   0  0  0  0  0  0
  -18.9489  -30.1498   23.8886 C   0  0  0  0  0  0
  -17.6481  -30.6619   24.0583 C   0  0  0  0  0  0
  -25.9059  -34.9435   23.5086 C   0  0  0  0  0  0
  -16.5371  -29.9109   23.6349 C   0  0  0  0  0  0
  -16.7294  -28.6532   23.0360 C   0  0  0  0  0  0
  -26.4514  -31.6605   25.0799 C   0  0  0  0  0  0
  -25.3728  -31.3796   26.1521 C   0  0  0  0  0  0
  -27.0396  -30.3002   24.6371 C   0  0  0  0  0  0
  -27.6051  -32.4391   25.7552 C   0  0  0  0  0  0
  -27.5562  -37.1784   24.8461 C   0  0  0  0  0  0
  -21.4220  -29.3094   22.3573 N   0  0  0  0  0  0
  -26.4269  -37.3767   23.9411 N   0  0  0  0  0  0
  -24.7059  -31.0463   22.1000 N   0  0  0  0  0  0
  -23.4165  -28.8185   23.2996 O   0  0  0  0  0  0
  -28.2396  -26.2382   20.2968 O   0  0  0  0  0  0
  -26.5619  -34.8904   22.4648 O   0  0  0  0  0  0
  -23.5496  -32.1407   23.7246 O   0  0  0  0  0  0
  -29.6067  -18.5660   20.7863 C   0  0  0  0  0  0
  -29.2048  -18.7820   22.0833 C   0  0  0  0  0  0
  -29.0653  -20.9320   20.7963 C   0  0  0  0  0  0
  -30.3024  -17.2511   20.2604 C   0  0  0  0  0  0
  -28.6404  -23.5551   20.7684 C   0  0  0  0  0  0
  -28.4419  -24.6647   18.4181 C   0  0  0  0  0  0
  -28.0269  -24.7798   19.8929 C   0  0  2  0  0  0
  -29.4931  -19.8376   20.0743 N   0  0  0  0  0  0
  -28.8122  -22.2828   20.2139 N   0  0  0  0  0  0
  -29.9536  -15.9542   20.6609 N   0  0  0  0  0  0
  -31.1831  -17.4254   19.4077 O   0  0  0  0  0  0
  -28.9217  -23.7679   21.9513 O   0  0  0  0  0  0
  -29.2220  -17.8208   23.0428 F   0  0  0  0  0  0
  -28.7557  -20.4481   22.4720 S   0  0  0  0  0  0
  -31.4662  -12.5341   19.2000 H   0  0  0  0  0  0
  -30.3188  -11.4930   19.9903 H   0  0  0  0  0  0
  -29.7968  -11.7517   17.5269 H   0  0  0  0  0  0
  -29.6469  -13.4775   17.7407 H   0  0  0  0  0  0
  -27.9032  -11.2915   18.9239 H   0  0  0  0  0  0
  -27.3867  -12.5329   17.8070 H   0  0  0  0  0  0
  -27.6269  -14.2552   19.4509 H   0  0  0  0  0  0
  -28.7218  -12.2673   21.5067 H   0  0  0  0  0  0
  -28.4207  -13.9654   21.7554 H   0  0  0  0  0  0
  -25.2823   -9.5684   22.4787 H   0  0  0  0  0  0
  -24.0046   -7.4650   22.7497 H   0  0  0  0  0  0
  -21.0892   -8.8840   19.8962 H   0  0  0  0  0  0
  -22.3791  -10.9715   19.6223 H   0  0  0  0  0  0
  -21.2045   -7.6169   23.9703 H   0  0  0  0  0  0
  -21.1481   -6.0540   25.9053 H   0  0  0  0  0  0
  -22.0598   -2.7636   23.2800 H   0  0  0  0  0  0
  -22.4163  -11.9921   22.4844 H   0  0  0  0  0  0
  -21.1150  -13.1238   22.2630 H   0  0  0  0  0  0
  -24.6063  -15.8132   20.3734 H   0  0  0  0  0  0
  -26.2069  -15.5974   19.8939 H   0  0  0  0  0  0
  -26.7255  -32.5347   23.1118 H   0  0  0  0  0  0
  -25.0171  -33.9734   25.0443 H   0  0  0  0  0  0
  -22.7385  -31.3101   21.3972 H   0  0  0  0  0  0
  -23.3732  -35.9618   23.3317 H   0  0  0  0  0  0
  -24.3564  -36.8898   22.2062 H   0  0  0  0  0  0
  -23.7227  -37.6472   23.6673 H   0  0  0  0  0  0
  -26.1450  -31.4937   20.6214 H   0  0  0  0  0  0
  -26.8577  -30.7802   22.0383 H   0  0  0  0  0  0
  -28.0798  -28.8140   21.3157 H   0  0  0  0  0  0
  -25.9203  -25.9553   18.8830 H   0  0  0  0  0  0
  -23.9920  -27.3771   18.8934 H   0  0  0  0  0  0
  -23.7829  -30.6086   19.4037 H   0  0  0  0  0  0
  -22.7680  -29.2688   19.8396 H   0  0  0  0  0  0
  -25.1285  -36.1922   25.0812 H   0  0  0  0  0  0
  -21.0027  -28.3404   24.1320 H   0  0  0  0  0  0
  -20.5740  -26.2414   23.3628 H   0  0  0  0  0  0
  -21.6672  -26.7543   22.1167 H   0  0  0  0  0  0
  -19.6955  -25.6308   21.1281 H   0  0  0  0  0  0
  -19.6688  -27.3192   20.6710 H   0  0  0  0  0  0
  -17.4223  -26.6714   21.4019 H   0  0  0  0  0  0
  -18.0357  -26.0113   22.9022 H   0  0  0  0  0  0
  -19.7955  -30.7324   24.2242 H   0  0  0  0  0  0
  -17.5039  -31.6292   24.5195 H   0  0  0  0  0  0
  -15.5366  -30.3025   23.7680 H   0  0  0  0  0  0
  -15.8691  -28.0858   22.7080 H   0  0  0  0  0  0
  -24.5819  -30.7253   25.7827 H   0  0  0  0  0  0
  -24.9032  -32.2998   26.5010 H   0  0  0  0  0  0
  -25.8004  -30.8884   27.0270 H   0  0  0  0  0  0
  -26.3031  -29.6721   24.1340 H   0  0  0  0  0  0
  -27.3962  -29.7308   25.4962 H   0  0  0  0  0  0
  -27.8963  -30.4243   23.9746 H   0  0  0  0  0  0
  -27.2631  -33.3683   26.2119 H   0  0  0  0  0  0
  -28.3840  -32.6972   25.0372 H   0  0  0  0  0  0
  -28.0757  -31.8559   26.5476 H   0  0  0  0  0  0
  -28.2565  -38.0095   24.7523 H   0  0  0  0  0  0
  -28.1063  -36.2616   24.6258 H   0  0  0  0  0  0
  -27.2301  -37.1430   25.8873 H   0  0  0  0  0  0
  -20.9424  -29.8770   21.6729 H   0  0  0  0  0  0
  -26.0142  -38.2838   24.1395 H   0  0  0  0  0  0
  -28.1193  -23.7216   17.9773 H   0  0  0  0  0  0
  -29.5239  -24.7389   18.3183 H   0  0  0  0  0  0
  -28.0041  -25.4665   17.8247 H   0  0  0  0  0  0
  -26.9646  -24.5512   19.9824 H   0  0  0  0  0  0
  -28.6853  -22.2653   19.2130 H   0  0  0  0  0  0
  -29.0854  -15.8687   21.1620 H   0  0  0  0  0  0
  1 25  1  0  0  0
  1 30  2  0  0  0
  1 80  1  0  0  0
  2  3  1  0  0  0
  2 25  1  0  0  0
  2 85  1  0  0  0
  2 86  1  0  0  0
  3  4  1  0  0  0
  3 87  1  0  0  0
  3 88  1  0  0  0
  4  5  1  0  0  0
  4 89  1  0  0  0
  4 90  1  0  0  0
  5  6  1  0  0  0
  5 26  1  0  0  0
  5 91  1  0  0  0
  6 25  1  0  0  0
  6 92  1  0  0  0
  6 93  1  0  0  0
  7  8  2  0  0  0
  7 26  1  0  0  0
  7 29  1  0  0  0
  8  9  1  0  0  0
  8 22  1  0  0  0
  9 10  1  0  0  0
  9 27  2  0  0  0
 10 11  2  0  0  0
 10 15  1  0  0  0
 11 12  1  0  0  0
 11 94  1  0  0  0
 12 13  2  0  0  0
 12 95  1  0  0  0
 13 14  1  0  0  0
 13 31  1  0  0  0
 14 15  2  0  0  0
 14 96  1  0  0  0
 15 97  1  0  0  0
 16 17  2  0  0  0
 16 21  1  0  0  0
 16 31  1  0  0  0
 17 18  1  0  0  0
 17 98  1  0  0  0
 18 19  2  0  0  0
 18 99  1  0  0  0
 19 20  1  0  0  0
 19 24  1  0  0  0
 20 21  2  0  0  0
 20100  1  0  0  0
 21 23  1  0  0  0
 22 28  1  0  0  0
 22 32  2  0  0  0
 26 27  1  0  0  0
 28101  1  0  0  0
 28102  1  0  0  0
 29103  1  0  0  0
 29104  1  0  0  0
 33 34  1  0  0  0
 33 66  1  0  0  0
 33 70  2  0  0  0
 34 36  1  0  0  0
 34 59  1  0  0  0
 34105  1  0  0  0
 35 44  2  0  0  0
 35 45  1  0  0  0
 35 68  1  0  0  0
 36 56  1  0  0  0
 36106  1  0  0  0
 37 39  1  0  0  0
 37 47  1  0  0  0
 37 66  1  0  0  0
 37107  1  0  0  0
 38 43  2  0  0  0
 38 46  1  0  0  0
 38 47  1  0  0  0
 39 64  1  0  0  0
 39 67  2  0  0  0
 40 52  1  0  0  0
 40 53  2  0  0  0
 40 58  1  0  0  0
 41108  1  0  0  0
 41109  1  0  0  0
 41110  1  0  0  0
 41 48  1  0  0  0
 42 43  1  0  0  0
 42 66  1  0  0  0
 42111  1  0  0  0
 42112  1  0  0  0
 43 44  1  0  0  0
 44113  1  0  0  0
 45 46  2  0  0  0
 45114  1  0  0  0
 46115  1  0  0  0
 47116  1  0  0  0
 47117  1  0  0  0
 48 56  1  0  0  0
 48 65  1  0  0  0
 48118  1  0  0  0
 49 50  1  0  0  0
 49 53  1  0  0  0
 49 64  1  0  0  0
 49119  1  0  0  0
 50 51  1  0  0  0
 50120  1  0  0  0
 50121  1  0  0  0
 51 52  1  0  0  0
 51122  1  0  0  0
 51123  1  0  0  0
 52124  1  0  0  0
 52125  1  0  0  0
 53 54  1  0  0  0
 54 55  2  0  0  0
 54126  1  0  0  0
 55 57  1  0  0  0
 55127  1  0  0  0
 56 69  2  0  0  0
 57 58  2  0  0  0
 57128  1  0  0  0
 58129  1  0  0  0
 59 60  1  0  0  0
 59 61  1  0  0  0
 59 62  1  0  0  0
 60130  1  0  0  0
 60131  1  0  0  0
 60132  1  0  0  0
 61133  1  0  0  0
 61134  1  0  0  0
 61135  1  0  0  0
 62136  1  0  0  0
 62137  1  0  0  0
 62138  1  0  0  0
 63 65  1  0  0  0
 63139  1  0  0  0
 63140  1  0  0  0
 63141  1  0  0  0
 64142  1  0  0  0
 65143  1  0  0  0
 68 77  1  0  0  0
 71 72  2  0  0  0
 71 74  1  0  0  0
 71 78  1  0  0  0
 72 83  1  0  0  0
 72 84  1  0  0  0
 73 78  2  0  0  0
 73 79  1  0  0  0
 73 84  1  0  0  0
 74 80  1  0  0  0
 74 81  2  0  0  0
 75 77  1  0  0  0
 75 79  1  0  0  0
 75 82  2  0  0  0
 76144  1  0  0  0
 76145  1  0  0  0
 76146  1  0  0  0
 76 77  1  0  0  0
 77147  1  0  0  0
 79148  1  0  0  0
 80149  1  0  0  0
M  ISO  4   1 100  68 101  77 101  80 100
M  END
> <chiral flag>
0

> <version>
0

> <s_m_source_file>
/data/baiqing/PycharmProjects/Reinvent-master-3.2/result/LINK_invent/BTK/process_docking_weight1_custom_product_contain_oxygen_bond_distance_aromatic_linkinvent_7_9_3/rearranged_h_0183.sdf

> <i_m_source_file_index>
37

> <r_mmod_Potential_Energy-OPLS-2005>
102.387641906738

> <r_mmod_Stretch_Energy-OPLS-2005>
145.584213256836

> <r_mmod_Bend_Energy-OPLS-2005>
185.530853271484

> <r_mmod_Torsional_Energy-OPLS-2005>
244.313323974609

> <r_mmod_Improper_Torsional_Energy-OPLS-2005>
6.6938681602478

> <r_mmod_Van_der_Waal_Energy-OPLS-2005>
126.298675537109

> <r_mmod_Electrostatic_Energy-OPLS-2005>
-468.251892089844

> <r_mmod_Solvation_Energy-OPLS-2005>
-258.075958251953

> <b_mmod_Minimization_Converged-OPLS-2005>
0

> <r_mmod_RMS_Derivative-OPLS-2005>
4.15200042724609

$$$$
37
                    3D
 Structure written by MMmdl.
161169  0  0  1  0            999 V2000
  -30.6667  -14.5201   20.5763 C   0  0  0  0  0  0
  -30.4377  -12.3340   19.4387 C   0  0  0  0  0  0
  -29.5085  -12.5040   18.2180 C   0  0  0  0  0  0
  -28.0271  -12.3583   18.6236 C   0  0  0  0  0  0
  -27.6614  -13.2053   19.8724 C   0  0  2  0  0  0
  -28.6990  -12.9933   20.9980 C   0  0  0  0  0  0
  -25.2581  -13.8152   20.5659 C   0  0  0  0  0  0
  -24.1838  -13.0435   20.9166 C   0  0  0  0  0  0
  -24.6387  -11.6896   20.8719 C   0  0  0  0  0  0
  -23.9058  -10.4287   21.0392 C   0  0  0  0  0  0
  -24.3612   -9.4204   21.9170 C   0  0  0  0  0  0
  -23.6291   -8.2244   22.0741 C   0  0  0  0  0  0
  -22.4273   -8.0279   21.3543 C   0  0  0  0  0  0
  -21.9904   -9.0246   20.4641 C   0  0  0  0  0  0
  -22.7227  -10.2128   20.3046 C   0  0  0  0  0  0
  -21.6852   -6.0739   22.5282 C   0  0  0  0  0  0
  -21.4017   -6.5640   23.8216 C   0  0  0  0  0  0
  -21.3657   -5.6790   24.9178 C   0  0  0  0  0  0
  -21.6040   -4.3052   24.7227 C   0  0  0  0  0  0
  -21.8821   -3.8147   23.4350 C   0  0  0  0  0  0
  -21.9193   -4.6967   22.3407 C   0  0  0  0  0  0
  -22.7854  -13.5225   21.1849 C   0  0  0  0  0  0
  -22.1658   -4.2152   21.0984 F   0  0  0  0  0  0
  -21.5630   -3.4533   25.7741 F   0  0  0  0  0  0
  -30.0286  -13.3201   20.4540 N   0  0  0  0  0  0
  -26.3009  -12.9321   20.3322 N   0  0  0  0  0  0
  -25.9314  -11.6482   20.5731 N   0  0  0  0  0  0
  -22.0500  -12.8223   22.0415 N   0  0  0  0  0  0
  -25.4304  -15.1877   20.4092 N   0  0  0  0  0  0
  -31.7986  -14.7120   20.1190 O   0  0  0  0  0  0
  -21.6634   -6.8879   21.4244 O   0  0  0  0  0  0
  -22.3539  -14.5544   20.6703 O   0  0  0  0  0  0
  -24.6192  -31.8677   23.2115 C   0  0  0  0  0  0
  -25.9076  -32.4827   23.8417 C   0  0  1  0  0  0
  -27.2174  -27.3973   20.1009 C   0  0  0  0  0  0
  -25.5932  -33.8637   24.2327 N   0  0  0  0  0  0
  -23.4056  -30.4928   21.5557 C   0  0  2  0  0  0
  -24.8462  -28.9625   20.1165 C   0  0  0  0  0  0
  -22.7423  -29.4653   22.5016 C   0  0  0  0  0  0
  -18.0251  -28.1403   22.8481 C   0  0  0  0  0  0
  -24.1475  -36.7311   23.2638 C   0  0  0  0  0  0
  -25.9389  -30.8240   21.3679 C   0  0  0  0  0  0
  -26.0119  -29.4570   20.7134 C   0  0  0  0  0  0
  -27.2008  -28.6852   20.6984 C   0  0  0  0  0  0
  -26.0294  -26.9408   19.4803 C   0  0  0  0  0  0
  -24.8524  -27.7061   19.4944 C   0  0  0  0  0  0
  -23.6111  -29.8324   20.1685 C   0  0  0  0  0  0
  -25.4100  -36.3114   24.0324 C   0  0  1  0  0  0
  -20.5847  -28.3682   23.1324 C   0  0  2  0  0  0
  -20.6753  -26.9423   22.5419 C   0  0  0  0  0  0
  -19.5728  -26.6396   21.5228 C   0  0  0  0  0  0
  -18.1902  -26.7944   22.1627 C   0  0  0  0  0  0
  -19.1507  -28.8860   23.2889 C   0  0  0  0  0  0
  -18.9441  -30.1472   23.8887 C   0  0  0  0  0  0
  -17.6448  -30.6605   24.0580 C   0  0  0  0  0  0
  -25.9035  -34.9486   23.5105 C   0  0  0  0  0  0
  -16.5332  -29.9111   23.6356 C   0  0  0  0  0  0
  -16.7245  -28.6539   23.0349 C   0  0  0  0  0  0
  -26.4499  -31.6643   25.0771 C   0  0  0  0  0  0
  -25.3767  -31.3761   26.1522 C   0  0  0  0  0  0
  -27.0363  -30.3086   24.6195 C   0  0  0  0  0  0
  -27.6057  -32.4395   25.7532 C   0  0  0  0  0  0
  -27.5564  -37.1798   24.8463 C   0  0  0  0  0  0
  -21.4146  -29.3048   22.3750 N   0  0  0  0  0  0
  -26.4278  -37.3803   23.9412 N   0  0  0  0  0  0
  -24.6737  -31.0751   22.1031 N   0  0  0  0  0  0
  -23.4184  -28.8168   23.3050 O   0  0  0  0  0  0
  -28.3723  -26.6244   20.1326 O   0  0  0  0  0  0
  -26.5586  -34.8936   22.4661 O   0  0  0  0  0  0
  -23.5378  -32.1458   23.7486 O   0  0  0  0  0  0
  -31.0555  -18.9877   21.0553 C   0  0  0  0  0  0
  -29.8435  -19.3928   20.5199 C   0  0  0  0  0  0
  -30.0721  -16.9269   20.9413 C   0  0  0  0  0  0
  -29.8591  -21.8677   20.3836 C   0  0  0  0  0  0
  -27.6854  -24.7504   21.5551 C   0  0  0  0  0  0
  -30.9151  -22.9332   18.4235 C   0  0  0  0  0  0
  -28.4405  -22.6953   18.4076 C   0  0  0  0  0  0
  -29.6083  -24.4854   19.8864 C   0  0  0  0  0  0
  -28.2425  -25.1741   20.1850 C   0  0  2  0  0  0
  -29.6559  -23.0018   19.3189 C   0  0  0  0  0  0
  -31.1707  -17.6084   21.2921 N   0  0  0  0  0  0
  -32.1505  -19.8062   21.3164 N   0  0  0  0  0  0
  -29.4467  -20.6208   20.0502 N   0  0  0  0  0  0
  -29.9176  -15.5134   21.1090 N   0  0  0  0  0  0
  -30.3994  -22.1178   21.4635 O   0  0  0  0  0  0
  -28.7922  -17.9891   20.3440 S   0  0  0  0  0  0
  -31.4797  -12.4561   19.1379 H   0  0  0  0  0  0
  -30.3646  -11.3230   19.8430 H   0  0  0  0  0  0
  -29.7613  -11.7703   17.4511 H   0  0  0  0  0  0
  -29.6745  -13.4845   17.7690 H   0  0  0  0  0  0
  -27.8435  -11.3033   18.8295 H   0  0  0  0  0  0
  -27.3809  -12.6220   17.7857 H   0  0  0  0  0  0
  -27.7043  -14.2515   19.5673 H   0  0  0  0  0  0
  -28.6853  -11.9548   21.3325 H   0  0  0  0  0  0
  -28.4458  -13.5838   21.8801 H   0  0  0  0  0  0
  -25.2762   -9.5685   22.4736 H   0  0  0  0  0  0
  -24.0002   -7.4637   22.7461 H   0  0  0  0  0  0
  -21.0833   -8.8767   19.8945 H   0  0  0  0  0  0
  -22.3684  -10.9668   19.6152 H   0  0  0  0  0  0
  -21.2007   -7.6145   23.9729 H   0  0  0  0  0  0
  -21.1474   -6.0515   25.9085 H   0  0  0  0  0  0
  -22.0601   -2.7610   23.2849 H   0  0  0  0  0  0
  -22.4104  -11.9873   22.4800 H   0  0  0  0  0  0
  -21.1123  -13.1253   22.2638 H   0  0  0  0  0  0
  -24.6595  -15.8386   20.5150 H   0  0  0  0  0  0
  -26.2756  -15.6301   20.0727 H   0  0  0  0  0  0
  -26.7141  -32.5515   23.1178 H   0  0  0  0  0  0
  -25.0175  -33.9846   25.0530 H   0  0  0  0  0  0
  -22.6953  -31.3105   21.4202 H   0  0  0  0  0  0
  -23.3744  -35.9637   23.3308 H   0  0  0  0  0  0
  -24.3549  -36.8939   22.2049 H   0  0  0  0  0  0
  -23.7230  -37.6505   23.6672 H   0  0  0  0  0  0
  -26.0523  -31.5878   20.5970 H   0  0  0  0  0  0
  -26.8274  -30.8783   21.9851 H   0  0  0  0  0  0
  -28.0989  -29.0635   21.1667 H   0  0  0  0  0  0
  -25.9722  -25.9971   18.9648 H   0  0  0  0  0  0
  -23.9602  -27.3240   19.0170 H   0  0  0  0  0  0
  -23.7215  -30.6111   19.4137 H   0  0  0  0  0  0
  -22.7335  -29.2572   19.8670 H   0  0  0  0  0  0
  -25.1278  -36.1970   25.0820 H   0  0  0  0  0  0
  -20.9909  -28.3251   24.1460 H   0  0  0  0  0  0
  -20.5683  -26.2304   23.3613 H   0  0  0  0  0  0
  -21.6619  -26.7495   22.1194 H   0  0  0  0  0  0
  -19.6889  -25.6307   21.1260 H   0  0  0  0  0  0
  -19.6658  -27.3206   20.6760 H   0  0  0  0  0  0
  -17.4176  -26.6695   21.4030 H   0  0  0  0  0  0
  -18.0283  -26.0097   22.9029 H   0  0  0  0  0  0
  -19.7922  -30.7294   24.2235 H   0  0  0  0  0  0
  -17.5013  -31.6279   24.5188 H   0  0  0  0  0  0
  -15.5336  -30.3018   23.7703 H   0  0  0  0  0  0
  -15.8637  -28.0876   22.7059 H   0  0  0  0  0  0
  -24.5894  -30.7164   25.7860 H   0  0  0  0  0  0
  -24.9019  -32.2932   26.5026 H   0  0  0  0  0  0
  -25.8111  -30.8879   27.0256 H   0  0  0  0  0  0
  -26.2929  -29.6813   24.1264 H   0  0  0  0  0  0
  -27.4137  -29.7371   25.4687 H   0  0  0  0  0  0
  -27.8760  -30.4413   23.9367 H   0  0  0  0  0  0
  -27.2653  -33.3692   26.2118 H   0  0  0  0  0  0
  -28.3855  -32.6985   25.0356 H   0  0  0  0  0  0
  -28.0757  -31.8545   26.5452 H   0  0  0  0  0  0
  -28.2581  -38.0101   24.7520 H   0  0  0  0  0  0
  -28.1057  -36.2623   24.6268 H   0  0  0  0  0  0
  -27.2282  -37.1432   25.8870 H   0  0  0  0  0  0
  -20.9320  -29.8800   21.6991 H   0  0  0  0  0  0
  -26.0153  -38.2868   24.1449 H   0  0  0  0  0  0
  -28.3329  -25.0934   22.3616 H   0  0  0  0  0  0
  -27.6056  -23.6656   21.6292 H   0  0  0  0  0  0
  -26.6904  -25.1593   21.7347 H   0  0  0  0  0  0
  -31.0821  -21.9314   18.0243 H   0  0  0  0  0  0
  -31.8116  -23.2198   18.9763 H   0  0  0  0  0  0
  -30.8343  -23.6007   17.5651 H   0  0  0  0  0  0
  -28.5786  -21.7816   17.8276 H   0  0  0  0  0  0
  -28.2816  -23.4916   17.6791 H   0  0  0  0  0  0
  -27.5197  -22.5828   18.9811 H   0  0  0  0  0  0
  -30.2497  -24.5804   20.7631 H   0  0  0  0  0  0
  -30.0865  -25.1272   19.1458 H   0  0  0  0  0  0
  -27.5605  -24.8515   19.4095 H   0  0  0  0  0  0
  -31.9065  -20.7871   21.4437 H   0  0  0  0  0  0
  -32.8171  -19.4707   22.0000 H   0  0  0  0  0  0
  -28.8350  -20.5942   19.2475 H   0  0  0  0  0  0
  -28.9985  -15.2165   21.3970 H   0  0  0  0  0  0
  1 25  1  0  0  0
  1 30  2  0  0  0
  1 84  1  0  0  0
  2  3  1  0  0  0
  2 25  1  0  0  0
  2 87  1  0  0  0
  2 88  1  0  0  0
  3  4  1  0  0  0
  3 89  1  0  0  0
  3 90  1  0  0  0
  4  5  1  0  0  0
  4 91  1  0  0  0
  4 92  1  0  0  0
  5  6  1  0  0  0
  5 26  1  0  0  0
  5 93  1  0  0  0
  6 25  1  0  0  0
  6 94  1  0  0  0
  6 95  1  0  0  0
  7  8  2  0  0  0
  7 26  1  0  0  0
  7 29  1  0  0  0
  8  9  1  0  0  0
  8 22  1  0  0  0
  9 10  1  0  0  0
  9 27  2  0  0  0
 10 11  2  0  0  0
 10 15  1  0  0  0
 11 12  1  0  0  0
 11 96  1  0  0  0
 12 13  2  0  0  0
 12 97  1  0  0  0
 13 14  1  0  0  0
 13 31  1  0  0  0
 14 15  2  0  0  0
 14 98  1  0  0  0
 15 99  1  0  0  0
 16 17  2  0  0  0
 16 21  1  0  0  0
 16 31  1  0  0  0
 17 18  1  0  0  0
 17100  1  0  0  0
 18 19  2  0  0  0
 18101  1  0  0  0
 19 20  1  0  0  0
 19 24  1  0  0  0
 20 21  2  0  0  0
 20102  1  0  0  0
 21 23  1  0  0  0
 22 28  1  0  0  0
 22 32  2  0  0  0
 26 27  1  0  0  0
 28103  1  0  0  0
 28104  1  0  0  0
 29105  1  0  0  0
 29106  1  0  0  0
 33 34  1  0  0  0
 33 66  1  0  0  0
 33 70  2  0  0  0
 34 36  1  0  0  0
 34 59  1  0  0  0
 34107  1  0  0  0
 35 44  2  0  0  0
 35 45  1  0  0  0
 35 68  1  0  0  0
 36 56  1  0  0  0
 36108  1  0  0  0
 37 39  1  0  0  0
 37 47  1  0  0  0
 37 66  1  0  0  0
 37109  1  0  0  0
 38 43  2  0  0  0
 38 46  1  0  0  0
 38 47  1  0  0  0
 39 64  1  0  0  0
 39 67  2  0  0  0
 40 52  1  0  0  0
 40 53  2  0  0  0
 40 58  1  0  0  0
 41110  1  0  0  0
 41111  1  0  0  0
 41112  1  0  0  0
 41 48  1  0  0  0
 42 43  1  0  0  0
 42 66  1  0  0  0
 42113  1  0  0  0
 42114  1  0  0  0
 43 44  1  0  0  0
 44115  1  0  0  0
 45 46  2  0  0  0
 45116  1  0  0  0
 46117  1  0  0  0
 47118  1  0  0  0
 47119  1  0  0  0
 48 56  1  0  0  0
 48 65  1  0  0  0
 48120  1  0  0  0
 49 50  1  0  0  0
 49 53  1  0  0  0
 49 64  1  0  0  0
 49121  1  0  0  0
 50 51  1  0  0  0
 50122  1  0  0  0
 50123  1  0  0  0
 51 52  1  0  0  0
 51124  1  0  0  0
 51125  1  0  0  0
 52126  1  0  0  0
 52127  1  0  0  0
 53 54  1  0  0  0
 54 55  2  0  0  0
 54128  1  0  0  0
 55 57  1  0  0  0
 55129  1  0  0  0
 56 69  2  0  0  0
 57 58  2  0  0  0
 57130  1  0  0  0
 58131  1  0  0  0
 59 60  1  0  0  0
 59 61  1  0  0  0
 59 62  1  0  0  0
 60132  1  0  0  0
 60133  1  0  0  0
 60134  1  0  0  0
 61135  1  0  0  0
 61136  1  0  0  0
 61137  1  0  0  0
 62138  1  0  0  0
 62139  1  0  0  0
 62140  1  0  0  0
 63 65  1  0  0  0
 63141  1  0  0  0
 63142  1  0  0  0
 63143  1  0  0  0
 64144  1  0  0  0
 65145  1  0  0  0
 68 79  1  0  0  0
 71 72  2  0  0  0
 71 81  1  0  0  0
 71 82  1  0  0  0
 72 83  1  0  0  0
 72 86  1  0  0  0
 73 81  2  0  0  0
 73 84  1  0  0  0
 73 86  1  0  0  0
 74 80  1  0  0  0
 74 83  1  0  0  0
 74 85  2  0  0  0
 75146  1  0  0  0
 75147  1  0  0  0
 75148  1  0  0  0
 75 79  1  0  0  0
 76149  1  0  0  0
 76150  1  0  0  0
 76151  1  0  0  0
 76 80  1  0  0  0
 77 80  1  0  0  0
 77152  1  0  0  0
 77153  1  0  0  0
 77154  1  0  0  0
 78 79  1  0  0  0
 78 80  1  0  0  0
 78155  1  0  0  0
 78156  1  0  0  0
 79157  1  0  0  0
 82158  1  0  0  0
 82159  1  0  0  0
 83160  1  0  0  0
 84161  1  0  0  0
M  ISO  4   1 100  68 101  79 101  84 100
M  END
> <chiral flag>
0

> <version>
0

> <s_m_source_file>
/data/baiqing/PycharmProjects/Reinvent-master-3.2/result/LINK_invent/BTK/process_docking_weight1_custom_product_contain_oxygen_bond_distance_aromatic_linkinvent_7_9_3/rearranged_h_0183.sdf

> <i_m_source_file_index>
38

> <r_mmod_Potential_Energy-OPLS-2005>
-203.602951049805

> <r_mmod_Stretch_Energy-OPLS-2005>
49.4994239807129

> <r_mmod_Bend_Energy-OPLS-2005>
127.597015380859

> <r_mmod_Torsional_Energy-OPLS-2005>
270.660278320312

> <r_mmod_Improper_Torsional_Energy-OPLS-2005>
9.21787643432617

> <r_mmod_Van_der_Waal_Energy-OPLS-2005>
142.912475585938

> <r_mmod_Electrostatic_Energy-OPLS-2005>
-579.618408203125

> <r_mmod_Solvation_Energy-OPLS-2005>
-243.685287475586

> <b_mmod_Minimization_Converged-OPLS-2005>
0

> <r_mmod_RMS_Derivative-OPLS-2005>
2.09903359413147

$$$$
38
                    3D
 Structure written by MMmdl.
154162  0  0  1  0            999 V2000
  -30.6862  -14.5163   20.5939 C   0  0  0  0  0  0
  -30.4289  -12.3456   19.4198 C   0  0  0  0  0  0
  -29.4942  -12.5151   18.2044 C   0  0  0  0  0  0
  -28.0182  -12.3611   18.6188 C   0  0  0  0  0  0
  -27.6573  -13.2089   19.8679 C   0  0  2  0  0  0
  -28.7003  -13.0044   20.9889 C   0  0  0  0  0  0
  -25.2594  -13.8161   20.5694 C   0  0  0  0  0  0
  -24.1843  -13.0441   20.9183 C   0  0  0  0  0  0
  -24.6394  -11.6905   20.8738 C   0  0  0  0  0  0
  -23.9061  -10.4290   21.0392 C   0  0  0  0  0  0
  -24.3608   -9.4209   21.9168 C   0  0  0  0  0  0
  -23.6285   -8.2247   22.0745 C   0  0  0  0  0  0
  -22.4267   -8.0283   21.3540 C   0  0  0  0  0  0
  -21.9900   -9.0258   20.4643 C   0  0  0  0  0  0
  -22.7232  -10.2134   20.3051 C   0  0  0  0  0  0
  -21.6854   -6.0738   22.5282 C   0  0  0  0  0  0
  -21.4016   -6.5644   23.8216 C   0  0  0  0  0  0
  -21.3661   -5.6796   24.9177 C   0  0  0  0  0  0
  -21.6045   -4.3061   24.7223 C   0  0  0  0  0  0
  -21.8823   -3.8149   23.4346 C   0  0  0  0  0  0
  -21.9192   -4.6965   22.3402 C   0  0  0  0  0  0
  -22.7870  -13.5250   21.1840 C   0  0  0  0  0  0
  -22.1664   -4.2160   21.0976 F   0  0  0  0  0  0
  -21.5619   -3.4539   25.7729 F   0  0  0  0  0  0
  -30.0240  -13.3342   20.4329 N   0  0  0  0  0  0
  -26.3010  -12.9329   20.3331 N   0  0  0  0  0  0
  -25.9316  -11.6490   20.5738 N   0  0  0  0  0  0
  -22.0496  -12.8257   22.0393 N   0  0  0  0  0  0
  -25.4329  -15.1878   20.4153 N   0  0  0  0  0  0
  -31.8135  -14.7054   20.1323 O   0  0  0  0  0  0
  -21.6637   -6.8879   21.4241 O   0  0  0  0  0  0
  -22.3569  -14.5555   20.6679 O   0  0  0  0  0  0
  -24.6175  -31.8656   23.2056 C   0  0  0  0  0  0
  -25.9054  -32.4815   23.8368 C   0  0  1  0  0  0
  -27.2361  -27.4043   20.1070 C   0  0  0  0  0  0
  -25.5899  -33.8607   24.2309 N   0  0  0  0  0  0
  -23.4073  -30.4876   21.5479 C   0  0  2  0  0  0
  -24.8546  -28.9443   20.1186 C   0  0  0  0  0  0
  -22.7423  -29.4658   22.4988 C   0  0  0  0  0  0
  -18.0279  -28.1385   22.8502 C   0  0  0  0  0  0
  -24.1483  -36.7309   23.2638 C   0  0  0  0  0  0
  -25.9385  -30.8240   21.3598 C   0  0  0  0  0  0
  -26.0174  -29.4546   20.7098 C   0  0  0  0  0  0
  -27.2136  -28.6954   20.6923 C   0  0  0  0  0  0
  -26.0559  -26.9115   19.5126 C   0  0  0  0  0  0
  -24.8700  -27.6736   19.5157 C   0  0  0  0  0  0
  -23.6172  -29.8152   20.1655 C   0  0  0  0  0  0
  -25.4106  -36.3106   24.0338 C   0  0  1  0  0  0
  -20.5871  -28.3671   23.1316 C   0  0  2  0  0  0
  -20.6769  -26.9405   22.5419 C   0  0  0  0  0  0
  -19.5748  -26.6390   21.5220 C   0  0  0  0  0  0
  -18.1927  -26.7932   22.1632 C   0  0  0  0  0  0
  -19.1529  -28.8847   23.2908 C   0  0  0  0  0  0
  -18.9455  -30.1452   23.8917 C   0  0  0  0  0  0
  -17.6456  -30.6589   24.0570 C   0  0  0  0  0  0
  -25.9037  -34.9471   23.5130 C   0  0  0  0  0  0
  -16.5347  -29.9094   23.6326 C   0  0  0  0  0  0
  -16.7266  -28.6513   23.0346 C   0  0  0  0  0  0
  -26.4469  -31.6597   25.0702 C   0  0  0  0  0  0
  -25.3730  -31.3707   26.1451 C   0  0  0  0  0  0
  -27.0294  -30.3040   24.6069 C   0  0  0  0  0  0
  -27.6050  -32.4308   25.7472 C   0  0  0  0  0  0
  -27.5582  -37.1811   24.8467 C   0  0  0  0  0  0
  -21.4147  -29.3033   22.3718 N   0  0  0  0  0  0
  -26.4296  -37.3791   23.9409 N   0  0  0  0  0  0
  -24.6734  -31.0730   22.0970 N   0  0  0  0  0  0
  -23.4178  -28.8203   23.3047 O   0  0  0  0  0  0
  -28.3977  -26.6537   20.0840 O   0  0  0  0  0  0
  -26.5597  -34.8933   22.4687 O   0  0  0  0  0  0
  -23.5358  -32.1411   23.7439 O   0  0  0  0  0  0
  -30.7537  -18.5699   19.8868 C   0  0  0  0  0  0
  -30.3410  -19.8850   19.5014 C   0  0  0  0  0  0
  -30.1028  -18.0641   20.9854 C   0  0  0  0  0  0
  -29.3583  -20.4435   20.2855 C   0  0  0  0  0  0
  -29.2870  -22.8860   20.2185 C   0  0  0  0  0  0
  -31.7821  -16.7981   22.4302 C   0  0  0  0  0  0
  -28.3591  -25.3368   20.6963 C   0  0  0  0  0  0
  -30.3792  -16.8005   21.7957 C   0  0  2  0  0  0
  -28.4602  -24.1149   19.7224 C   0  0  2  0  0  0
  -28.7306  -21.6537   20.1317 N   0  0  0  0  0  0
  -29.9827  -15.4883   21.2216 N   0  0  0  0  0  0
  -30.4239  -23.0511   20.6706 O   0  0  0  0  0  0
  -31.7132  -17.9327   19.2532 F   0  0  0  0  0  0
  -30.8667  -20.4984   18.4634 F   0  0  0  0  0  0
  -27.2343  -23.7129   19.3693 F   0  0  0  0  0  0
  -28.9270  -19.2689   21.5297 S   0  0  0  0  0  0
  -31.4701  -12.4647   19.1144 H   0  0  0  0  0  0
  -30.3528  -11.3370   19.8295 H   0  0  0  0  0  0
  -29.7423  -11.7844   17.4333 H   0  0  0  0  0  0
  -29.6493  -13.4981   17.7559 H   0  0  0  0  0  0
  -27.8413  -11.3052   18.8265 H   0  0  0  0  0  0
  -27.3635  -12.6177   17.7845 H   0  0  0  0  0  0
  -27.6948  -14.2538   19.5607 H   0  0  0  0  0  0
  -28.6921  -11.9689   21.3320 H   0  0  0  0  0  0
  -28.4459  -13.5976   21.8678 H   0  0  0  0  0  0
  -25.2742   -9.5698   22.4757 H   0  0  0  0  0  0
  -24.0000   -7.4643   22.7473 H   0  0  0  0  0  0
  -21.0826   -8.8782   19.8951 H   0  0  0  0  0  0
  -22.3679  -10.9677   19.6179 H   0  0  0  0  0  0
  -21.2015   -7.6155   23.9720 H   0  0  0  0  0  0
  -21.1474   -6.0523   25.9081 H   0  0  0  0  0  0
  -22.0593   -2.7613   23.2836 H   0  0  0  0  0  0
  -22.4097  -11.9930   22.4814 H   0  0  0  0  0  0
  -21.1115  -13.1302   22.2563 H   0  0  0  0  0  0
  -24.6658  -15.8420   20.5250 H   0  0  0  0  0  0
  -26.2860  -15.6262   20.0914 H   0  0  0  0  0  0
  -26.7128  -32.5514   23.1132 H   0  0  0  0  0  0
  -25.0054  -33.9755   25.0459 H   0  0  0  0  0  0
  -22.6977  -31.3050   21.4053 H   0  0  0  0  0  0
  -23.3747  -35.9643   23.3306 H   0  0  0  0  0  0
  -24.3577  -36.8908   22.2052 H   0  0  0  0  0  0
  -23.7238  -37.6519   23.6643 H   0  0  0  0  0  0
  -26.0480  -31.5866   20.5875 H   0  0  0  0  0  0
  -26.8277  -30.8832   21.9758 H   0  0  0  0  0  0
  -28.1155  -29.0903   21.1390 H   0  0  0  0  0  0
  -26.0518  -25.9404   19.0387 H   0  0  0  0  0  0
  -23.9757  -27.2747   19.0553 H   0  0  0  0  0  0
  -23.7296  -30.5876   19.4041 H   0  0  0  0  0  0
  -22.7394  -29.2374   19.8704 H   0  0  0  0  0  0
  -25.1285  -36.1974   25.0832 H   0  0  0  0  0  0
  -20.9973  -28.3243   24.1435 H   0  0  0  0  0  0
  -20.5683  -26.2276   23.3606 H   0  0  0  0  0  0
  -21.6638  -26.7453   22.1207 H   0  0  0  0  0  0
  -19.6904  -25.6306   21.1243 H   0  0  0  0  0  0
  -19.6688  -27.3209   20.6758 H   0  0  0  0  0  0
  -17.4195  -26.6686   21.4033 H   0  0  0  0  0  0
  -18.0321  -26.0072   22.9028 H   0  0  0  0  0  0
  -19.7926  -30.7269   24.2293 H   0  0  0  0  0  0
  -17.5007  -31.6272   24.5162 H   0  0  0  0  0  0
  -15.5346  -30.3000   23.7638 H   0  0  0  0  0  0
  -15.8669  -28.0838   22.7041 H   0  0  0  0  0  0
  -24.5910  -30.7042   25.7792 H   0  0  0  0  0  0
  -24.8909  -32.2862   26.4893 H   0  0  0  0  0  0
  -25.8083  -30.8888   27.0214 H   0  0  0  0  0  0
  -26.2836  -29.6820   24.1106 H   0  0  0  0  0  0
  -27.4056  -29.7254   25.4515 H   0  0  0  0  0  0
  -27.8670  -30.4362   23.9216 H   0  0  0  0  0  0
  -27.2680  -33.3600   26.2075 H   0  0  0  0  0  0
  -28.3856  -32.6877   25.0300 H   0  0  0  0  0  0
  -28.0726  -31.8412   26.5366 H   0  0  0  0  0  0
  -28.2615  -38.0094   24.7510 H   0  0  0  0  0  0
  -28.1063  -36.2630   24.6302 H   0  0  0  0  0  0
  -27.2296  -37.1473   25.8868 H   0  0  0  0  0  0
  -20.9308  -29.8736   21.6925 H   0  0  0  0  0  0
  -26.0185  -38.2871   24.1404 H   0  0  0  0  0  0
  -32.5701  -16.7811   21.6767 H   0  0  0  0  0  0
  -31.9238  -15.9368   23.0840 H   0  0  0  0  0  0
  -31.9327  -17.6907   23.0372 H   0  0  0  0  0  0
  -29.2060  -25.3152   21.3827 H   0  0  0  0  0  0
  -27.4788  -25.2269   21.3328 H   0  0  0  0  0  0
  -29.7125  -16.8652   22.6570 H   0  0  0  0  0  0
  -28.9464  -24.4496   18.8056 H   0  0  0  0  0  0
  -27.7560  -21.6377   19.8612 H   0  0  0  0  0  0
  -29.0494  -15.2011   21.4731 H   0  0  0  0  0  0
  1 25  1  0  0  0
  1 30  2  0  0  0
  1 81  1  0  0  0
  2  3  1  0  0  0
  2 25  1  0  0  0
  2 87  1  0  0  0
  2 88  1  0  0  0
  3  4  1  0  0  0
  3 89  1  0  0  0
  3 90  1  0  0  0
  4  5  1  0  0  0
  4 91  1  0  0  0
  4 92  1  0  0  0
  5  6  1  0  0  0
  5 26  1  0  0  0
  5 93  1  0  0  0
  6 25  1  0  0  0
  6 94  1  0  0  0
  6 95  1  0  0  0
  7  8  2  0  0  0
  7 26  1  0  0  0
  7 29  1  0  0  0
  8  9  1  0  0  0
  8 22  1  0  0  0
  9 10  1  0  0  0
  9 27  2  0  0  0
 10 11  2  0  0  0
 10 15  1  0  0  0
 11 12  1  0  0  0
 11 96  1  0  0  0
 12 13  2  0  0  0
 12 97  1  0  0  0
 13 14  1  0  0  0
 13 31  1  0  0  0
 14 15  2  0  0  0
 14 98  1  0  0  0
 15 99  1  0  0  0
 16 17  2  0  0  0
 16 21  1  0  0  0
 16 31  1  0  0  0
 17 18  1  0  0  0
 17100  1  0  0  0
 18 19  2  0  0  0
 18101  1  0  0  0
 19 20  1  0  0  0
 19 24  1  0  0  0
 20 21  2  0  0  0
 20102  1  0  0  0
 21 23  1  0  0  0
 22 28  1  0  0  0
 22 32  2  0  0  0
 26 27  1  0  0  0
 28103  1  0  0  0
 28104  1  0  0  0
 29105  1  0  0  0
 29106  1  0  0  0
 33 34  1  0  0  0
 33 66  1  0  0  0
 33 70  2  0  0  0
 34 36  1  0  0  0
 34 59  1  0  0  0
 34107  1  0  0  0
 35 44  2  0  0  0
 35 45  1  0  0  0
 35 68  1  0  0  0
 36 56  1  0  0  0
 36108  1  0  0  0
 37 39  1  0  0  0
 37 47  1  0  0  0
 37 66  1  0  0  0
 37109  1  0  0  0
 38 43  2  0  0  0
 38 46  1  0  0  0
 38 47  1  0  0  0
 39 64  1  0  0  0
 39 67  2  0  0  0
 40 52  1  0  0  0
 40 53  2  0  0  0
 40 58  1  0  0  0
 41110  1  0  0  0
 41111  1  0  0  0
 41112  1  0  0  0
 41 48  1  0  0  0
 42 43  1  0  0  0
 42 66  1  0  0  0
 42113  1  0  0  0
 42114  1  0  0  0
 43 44  1  0  0  0
 44115  1  0  0  0
 45 46  2  0  0  0
 45116  1  0  0  0
 46117  1  0  0  0
 47118  1  0  0  0
 47119  1  0  0  0
 48 56  1  0  0  0
 48 65  1  0  0  0
 48120  1  0  0  0
 49 50  1  0  0  0
 49 53  1  0  0  0
 49 64  1  0  0  0
 49121  1  0  0  0
 50 51  1  0  0  0
 50122  1  0  0  0
 50123  1  0  0  0
 51 52  1  0  0  0
 51124  1  0  0  0
 51125  1  0  0  0
 52126  1  0  0  0
 52127  1  0  0  0
 53 54  1  0  0  0
 54 55  2  0  0  0
 54128  1  0  0  0
 55 57  1  0  0  0
 55129  1  0  0  0
 56 69  2  0  0  0
 57 58  2  0  0  0
 57130  1  0  0  0
 58131  1  0  0  0
 59 60  1  0  0  0
 59 61  1  0  0  0
 59 62  1  0  0  0
 60132  1  0  0  0
 60133  1  0  0  0
 60134  1  0  0  0
 61135  1  0  0  0
 61136  1  0  0  0
 61137  1  0  0  0
 62138  1  0  0  0
 62139  1  0  0  0
 62140  1  0  0  0
 63 65  1  0  0  0
 63141  1  0  0  0
 63142  1  0  0  0
 63143  1  0  0  0
 64144  1  0  0  0
 65145  1  0  0  0
 68 77  1  0  0  0
 71 72  1  0  0  0
 71 73  2  0  0  0
 71 83  1  0  0  0
 72 74  2  0  0  0
 72 84  1  0  0  0
 73 78  1  0  0  0
 73 86  1  0  0  0
 74 80  1  0  0  0
 74 86  1  0  0  0
 75 79  1  0  0  0
 75 80  1  0  0  0
 75 82  2  0  0  0
 76146  1  0  0  0
 76147  1  0  0  0
 76148  1  0  0  0
 76 78  1  0  0  0
 77 79  1  0  0  0
 77149  1  0  0  0
 77150  1  0  0  0
 78 81  1  0  0  0
 78151  1  0  0  0
 79 85  1  0  0  0
 79152  1  0  0  0
 80153  1  0  0  0
 81154  1  0  0  0
M  ISO  4   1 100  68 101  77 101  81 100
M  END
> <chiral flag>
0

> <version>
0

> <s_m_source_file>
/data/baiqing/PycharmProjects/Reinvent-master-3.2/result/LINK_invent/BTK/process_docking_weight1_custom_product_contain_oxygen_bond_distance_aromatic_linkinvent_7_9_3/rearranged_h_0183.sdf

> <i_m_source_file_index>
39

> <r_mmod_Potential_Energy-OPLS-2005>
-52.1804351806641

> <r_mmod_Stretch_Energy-OPLS-2005>
45.1778259277344

> <r_mmod_Bend_Energy-OPLS-2005>
122.838264465332

> <r_mmod_Torsional_Energy-OPLS-2005>
234.34602355957

> <r_mmod_Improper_Torsional_Energy-OPLS-2005>
3.23808526992798

> <r_mmod_Van_der_Waal_Energy-OPLS-2005>
121.429168701172

> <r_mmod_Electrostatic_Energy-OPLS-2005>
-368.586090087891

> <r_mmod_Solvation_Energy-OPLS-2005>
-227.831909179688

> <b_mmod_Minimization_Converged-OPLS-2005>
0

> <r_mmod_RMS_Derivative-OPLS-2005>
1.53860688209534

$$$$
39
                    3D
 Structure written by MMmdl.
146154  0  0  1  0            999 V2000
  -30.4663  -15.1272   20.4040 C   0  0  0  0  0  0
  -30.4411  -12.7141   19.4966 C   0  0  0  0  0  0
  -29.5279  -12.5638   18.2565 C   0  0  0  0  0  0
  -28.0695  -12.3095   18.6824 C   0  0  0  0  0  0
  -27.6182  -13.2579   19.8233 C   0  0  2  0  0  0
  -28.6605  -13.3645   20.9548 C   0  0  0  0  0  0
  -25.2433  -13.8223   20.5715 C   0  0  0  0  0  0
  -24.1765  -13.0432   20.9239 C   0  0  0  0  0  0
  -24.6397  -11.6920   20.8725 C   0  0  0  0  0  0
  -23.9083  -10.4290   21.0379 C   0  0  0  0  0  0
  -24.3636   -9.4220   21.9170 C   0  0  0  0  0  0
  -23.6311   -8.2256   22.0763 C   0  0  0  0  0  0
  -22.4294   -8.0283   21.3557 C   0  0  0  0  0  0
  -21.9918   -9.0247   20.4650 C   0  0  0  0  0  0
  -22.7249  -10.2123   20.3047 C   0  0  0  0  0  0
  -21.6869   -6.0716   22.5273 C   0  0  0  0  0  0
  -21.4017   -6.5627   23.8198 C   0  0  0  0  0  0
  -21.3671   -5.6788   24.9168 C   0  0  0  0  0  0
  -21.6054   -4.3048   24.7226 C   0  0  0  0  0  0
  -21.8824   -3.8134   23.4346 C   0  0  0  0  0  0
  -21.9201   -4.6942   22.3395 C   0  0  0  0  0  0
  -22.7783  -13.5200   21.1871 C   0  0  0  0  0  0
  -22.1668   -4.2124   21.0972 F   0  0  0  0  0  0
  -21.5635   -3.4539   25.7744 F   0  0  0  0  0  0
  -29.9011  -13.8383   20.3270 N   0  0  0  0  0  0
  -26.2844  -12.9458   20.3194 N   0  0  0  0  0  0
  -25.9332  -11.6577   20.5680 N   0  0  0  0  0  0
  -22.0440  -12.8192   22.0416 N   0  0  0  0  0  0
  -25.4058  -15.1965   20.4154 N   0  0  0  0  0  0
  -31.6962  -15.1618   20.2535 O   0  0  0  0  0  0
  -21.6674   -6.8866   21.4243 O   0  0  0  0  0  0
  -22.3454  -14.5496   20.6707 O   0  0  0  0  0  0
  -24.6551  -31.8335   23.1792 C   0  0  0  0  0  0
  -25.9275  -32.4642   23.8215 C   0  0  1  0  0  0
  -27.2132  -27.0090   20.1862 C   0  0  0  0  0  0
  -25.5986  -33.8449   24.2128 N   0  0  0  0  0  0
  -23.4673  -30.4468   21.5284 C   0  0  2  0  0  0
  -24.9184  -28.8464   20.1214 C   0  0  0  0  0  0
  -22.7624  -29.4492   22.4839 C   0  0  0  0  0  0
  -18.0311  -28.1403   22.8457 C   0  0  0  0  0  0
  -24.1499  -36.7231   23.2637 C   0  0  0  0  0  0
  -26.0308  -30.6654   21.3977 C   0  0  0  0  0  0
  -26.1017  -29.2599   20.7508 C   0  0  0  0  0  0
  -27.2522  -28.3609   20.7611 C   0  0  0  0  0  0
  -26.0053  -26.7274   19.5158 C   0  0  0  0  0  0
  -24.8901  -27.5959   19.4864 C   0  0  0  0  0  0
  -23.7043  -29.7678   20.1525 C   0  0  0  0  0  0
  -25.4138  -36.3004   24.0296 C   0  0  1  0  0  0
  -20.5923  -28.3740   23.1192 C   0  0  2  0  0  0
  -20.6799  -26.9435   22.5388 C   0  0  0  0  0  0
  -19.5785  -26.6379   21.5199 C   0  0  0  0  0  0
  -18.1961  -26.7934   22.1605 C   0  0  0  0  0  0
  -19.1566  -28.8890   23.2808 C   0  0  0  0  0  0
  -18.9486  -30.1478   23.8854 C   0  0  0  0  0  0
  -17.6480  -30.6588   24.0553 C   0  0  0  0  0  0
  -25.9092  -34.9382   23.5020 C   0  0  0  0  0  0
  -16.5369  -29.9074   23.6348 C   0  0  0  0  0  0
  -16.7289  -28.6495   23.0354 C   0  0  0  0  0  0
  -26.4558  -31.6540   25.0696 C   0  0  0  0  0  0
  -25.3714  -31.3755   26.1364 C   0  0  0  0  0  0
  -27.0434  -30.2918   24.6356 C   0  0  0  0  0  0
  -27.6076  -32.4313   25.7502 C   0  0  0  0  0  0
  -27.5580  -37.1774   24.8461 C   0  0  0  0  0  0
  -21.4299  -29.3045   22.3560 N   0  0  0  0  0  0
  -26.4297  -37.3728   23.9395 N   0  0  0  0  0  0
  -24.7385  -31.0065   22.0901 N   0  0  0  0  0  0
  -23.4201  -28.8054   23.3053 O   0  0  0  0  0  0
  -28.2097  -25.9294   20.1413 O   0  0  0  0  0  0
  -26.5681  -34.8909   22.4605 O   0  0  0  0  0  0
  -23.5630  -32.1259   23.6922 O   0  0  0  0  0  0
  -29.2845  -20.4184   20.6168 C   0  0  0  0  0  0
  -30.0018  -20.1979   21.7944 C   0  0  0  0  0  0
  -29.7664  -17.8764   20.6238 C   0  0  0  0  0  0
  -28.1181  -24.6698   20.9361 C   0  0  0  0  0  0
  -28.8049  -21.9071   20.0917 C   0  0  0  0  0  0
  -28.3621  -23.2209   20.9930 C   0  0  0  0  0  0
  -29.1600  -19.0240   20.0198 N   0  0  0  0  0  0
  -30.4003  -21.1174   22.7641 N   0  0  0  0  0  0
  -29.6500  -16.3321   20.3208 N   0  0  0  0  0  0
  -28.7144  -22.0600   18.8699 O   0  0  0  0  0  0
  -28.1087  -22.7823   22.2387 O   0  0  0  0  0  0
  -30.5486  -18.5061   22.0714 S   0  0  0  0  0  0
  -31.4683  -12.9029   19.1815 H   0  0  0  0  0  0
  -30.4710  -11.7850   20.0685 H   0  0  0  0  0  0
  -29.8780  -11.7541   17.6148 H   0  0  0  0  0  0
  -29.5795  -13.4740   17.6568 H   0  0  0  0  0  0
  -27.9983  -11.2726   19.0130 H   0  0  0  0  0  0
  -27.4021  -12.4045   17.8240 H   0  0  0  0  0  0
  -27.5498  -14.2416   19.3586 H   0  0  0  0  0  0
  -28.8033  -12.4097   21.4633 H   0  0  0  0  0  0
  -28.3307  -14.0766   21.7127 H   0  0  0  0  0  0
  -25.2774   -9.5709   22.4750 H   0  0  0  0  0  0
  -24.0014   -7.4663   22.7505 H   0  0  0  0  0  0
  -21.0833   -8.8755   19.8960 H   0  0  0  0  0  0
  -22.3689  -10.9657   19.6155 H   0  0  0  0  0  0
  -21.2008   -7.6139   23.9686 H   0  0  0  0  0  0
  -21.1492   -6.0525   25.9067 H   0  0  0  0  0  0
  -22.0593   -2.7594   23.2860 H   0  0  0  0  0  0
  -22.4085  -11.9878   22.4826 H   0  0  0  0  0  0
  -21.1052  -13.1181   22.2602 H   0  0  0  0  0  0
  -24.6335  -15.8416   20.5452 H   0  0  0  0  0  0
  -26.2317  -15.6443   20.0436 H   0  0  0  0  0  0
  -26.7346  -32.5214   23.0939 H   0  0  0  0  0  0
  -25.0151  -33.9552   25.0286 H   0  0  0  0  0  0
  -22.7772  -31.2766   21.3637 H   0  0  0  0  0  0
  -23.3777  -35.9546   23.3281 H   0  0  0  0  0  0
  -24.3589  -36.8893   22.2060 H   0  0  0  0  0  0
  -23.7246  -37.6411   23.6698 H   0  0  0  0  0  0
  -26.1970  -31.4073   20.6145 H   0  0  0  0  0  0
  -26.8972  -30.7239   22.0449 H   0  0  0  0  0  0
  -28.1572  -28.6808   21.2575 H   0  0  0  0  0  0
  -25.9112  -25.7692   19.0250 H   0  0  0  0  0  0
  -23.9924  -27.2739   18.9778 H   0  0  0  0  0  0
  -23.8537  -30.5393   19.3951 H   0  0  0  0  0  0
  -22.8147  -29.2187   19.8391 H   0  0  0  0  0  0
  -25.1340  -36.1822   25.0788 H   0  0  0  0  0  0
  -21.0000  -28.3349   24.1318 H   0  0  0  0  0  0
  -20.5698  -26.2364   23.3619 H   0  0  0  0  0  0
  -21.6667  -26.7438   22.1203 H   0  0  0  0  0  0
  -19.6957  -25.6281   21.1267 H   0  0  0  0  0  0
  -19.6736  -27.3158   20.6709 H   0  0  0  0  0  0
  -17.4231  -26.6656   21.4004 H   0  0  0  0  0  0
  -18.0368  -26.0083   22.9015 H   0  0  0  0  0  0
  -19.7959  -30.7296   24.2219 H   0  0  0  0  0  0
  -17.5031  -31.6276   24.5146 H   0  0  0  0  0  0
  -15.5368  -30.2959   23.7700 H   0  0  0  0  0  0
  -15.8690  -28.0803   22.7093 H   0  0  0  0  0  0
  -24.5918  -30.7086   25.7671 H   0  0  0  0  0  0
  -24.8880  -32.2937   26.4696 H   0  0  0  0  0  0
  -25.7963  -30.8987   27.0202 H   0  0  0  0  0  0
  -26.3064  -29.6617   24.1365 H   0  0  0  0  0  0
  -27.4003  -29.7255   25.4968 H   0  0  0  0  0  0
  -27.8995  -30.4124   23.9719 H   0  0  0  0  0  0
  -27.2672  -33.3646   26.1996 H   0  0  0  0  0  0
  -28.3940  -32.6809   25.0368 H   0  0  0  0  0  0
  -28.0684  -31.8486   26.5488 H   0  0  0  0  0  0
  -28.2575  -38.0090   24.7520 H   0  0  0  0  0  0
  -28.1098  -36.2617   24.6280 H   0  0  0  0  0  0
  -27.2291  -37.1411   25.8861 H   0  0  0  0  0  0
  -20.9534  -29.8735   21.6700 H   0  0  0  0  0  0
  -26.0153  -38.2788   24.1406 H   0  0  0  0  0  0
  -27.7532  -25.0339   21.8867 H   0  0  0  0  0  0
  -30.5546  -22.1099   22.6001 H   0  0  0  0  0  0
  -30.9879  -20.7925   23.5286 H   0  0  0  0  0  0
  -28.7070  -16.0793   20.0787 H   0  0  0  0  0  0
  -28.5640  -21.9507   22.3582 H   0  0  0  0  0  0
  1 25  1  0  0  0
  1 30  2  0  0  0
  1 79  1  0  0  0
  2  3  1  0  0  0
  2 25  1  0  0  0
  2 83  1  0  0  0
  2 84  1  0  0  0
  3  4  1  0  0  0
  3 85  1  0  0  0
  3 86  1  0  0  0
  4  5  1  0  0  0
  4 87  1  0  0  0
  4 88  1  0  0  0
  5  6  1  0  0  0
  5 26  1  0  0  0
  5 89  1  0  0  0
  6 25  1  0  0  0
  6 90  1  0  0  0
  6 91  1  0  0  0
  7  8  2  0  0  0
  7 26  1  0  0  0
  7 29  1  0  0  0
  8  9  1  0  0  0
  8 22  1  0  0  0
  9 10  1  0  0  0
  9 27  2  0  0  0
 10 11  2  0  0  0
 10 15  1  0  0  0
 11 12  1  0  0  0
 11 92  1  0  0  0
 12 13  2  0  0  0
 12 93  1  0  0  0
 13 14  1  0  0  0
 13 31  1  0  0  0
 14 15  2  0  0  0
 14 94  1  0  0  0
 15 95  1  0  0  0
 16 17  2  0  0  0
 16 21  1  0  0  0
 16 31  1  0  0  0
 17 18  1  0  0  0
 17 96  1  0  0  0
 18 19  2  0  0  0
 18 97  1  0  0  0
 19 20  1  0  0  0
 19 24  1  0  0  0
 20 21  2  0  0  0
 20 98  1  0  0  0
 21 23  1  0  0  0
 22 28  1  0  0  0
 22 32  2  0  0  0
 26 27  1  0  0  0
 28 99  1  0  0  0
 28100  1  0  0  0
 29101  1  0  0  0
 29102  1  0  0  0
 33 34  1  0  0  0
 33 66  1  0  0  0
 33 70  2  0  0  0
 34 36  1  0  0  0
 34 59  1  0  0  0
 34103  1  0  0  0
 35 44  2  0  0  0
 35 45  1  0  0  0
 35 68  1  0  0  0
 36 56  1  0  0  0
 36104  1  0  0  0
 37 39  1  0  0  0
 37 47  1  0  0  0
 37 66  1  0  0  0
 37105  1  0  0  0
 38 43  2  0  0  0
 38 46  1  0  0  0
 38 47  1  0  0  0
 39 64  1  0  0  0
 39 67  2  0  0  0
 40 52  1  0  0  0
 40 53  2  0  0  0
 40 58  1  0  0  0
 41106  1  0  0  0
 41107  1  0  0  0
 41108  1  0  0  0
 41 48  1  0  0  0
 42 43  1  0  0  0
 42 66  1  0  0  0
 42109  1  0  0  0
 42110  1  0  0  0
 43 44  1  0  0  0
 44111  1  0  0  0
 45 46  2  0  0  0
 45112  1  0  0  0
 46113  1  0  0  0
 47114  1  0  0  0
 47115  1  0  0  0
 48 56  1  0  0  0
 48 65  1  0  0  0
 48116  1  0  0  0
 49 50  1  0  0  0
 49 53  1  0  0  0
 49 64  1  0  0  0
 49117  1  0  0  0
 50 51  1  0  0  0
 50118  1  0  0  0
 50119  1  0  0  0
 51 52  1  0  0  0
 51120  1  0  0  0
 51121  1  0  0  0
 52122  1  0  0  0
 52123  1  0  0  0
 53 54  1  0  0  0
 54 55  2  0  0  0
 54124  1  0  0  0
 55 57  1  0  0  0
 55125  1  0  0  0
 56 69  2  0  0  0
 57 58  2  0  0  0
 57126  1  0  0  0
 58127  1  0  0  0
 59 60  1  0  0  0
 59 61  1  0  0  0
 59 62  1  0  0  0
 60128  1  0  0  0
 60129  1  0  0  0
 60130  1  0  0  0
 61131  1  0  0  0
 61132  1  0  0  0
 61133  1  0  0  0
 62134  1  0  0  0
 62135  1  0  0  0
 62136  1  0  0  0
 63 65  1  0  0  0
 63137  1  0  0  0
 63138  1  0  0  0
 63139  1  0  0  0
 64140  1  0  0  0
 65141  1  0  0  0
 68 74  1  0  0  0
 71 72  2  0  0  0
 71 75  1  0  0  0
 71 77  1  0  0  0
 72 78  1  0  0  0
 72 82  1  0  0  0
 73 77  2  0  0  0
 73 79  1  0  0  0
 73 82  1  0  0  0
 74 76  2  0  0  0
 74142  1  0  0  0
 75 76  1  0  0  0
 75 80  2  0  0  0
 76 81  1  0  0  0
 78143  1  0  0  0
 78144  1  0  0  0
 79145  1  0  0  0
 81146  1  0  0  0
M  ISO  4   1 100  68 101  74 101  79 100
M  END
> <chiral flag>
0

> <version>
0

> <s_m_source_file>
/data/baiqing/PycharmProjects/Reinvent-master-3.2/result/LINK_invent/BTK/process_docking_weight1_custom_product_contain_oxygen_bond_distance_aromatic_linkinvent_7_9_3/rearranged_h_0183.sdf

> <i_m_source_file_index>
40

> <r_mmod_Potential_Energy-OPLS-2005>
1074.53588867188

> <r_mmod_Stretch_Energy-OPLS-2005>
395.396362304688

> <r_mmod_Bend_Energy-OPLS-2005>
421.985595703125

> <r_mmod_Torsional_Energy-OPLS-2005>
250.643859863281

> <r_mmod_Improper_Torsional_Energy-OPLS-2005>
11.8407716751099

> <r_mmod_Van_der_Waal_Energy-OPLS-2005>
110.744071960449

> <r_mmod_Electrostatic_Energy-OPLS-2005>
-212.598037719727

> <r_mmod_Solvation_Energy-OPLS-2005>
-240.592636108398

> <b_mmod_Minimization_Converged-OPLS-2005>
0

> <r_mmod_RMS_Derivative-OPLS-2005>
2.50433206558228

$$$$
40
                    3D
 Structure written by MMmdl.
153161  0  0  1  0            999 V2000
  -30.6493  -14.5707   20.5896 C   0  0  0  0  0  0
  -30.4432  -12.3775   19.4367 C   0  0  0  0  0  0
  -29.5063  -12.5260   18.2178 C   0  0  0  0  0  0
  -28.0262  -12.3647   18.6235 C   0  0  0  0  0  0
  -27.6573  -13.2110   19.8719 C   0  0  2  0  0  0
  -28.6981  -13.0195   20.9970 C   0  0  0  0  0  0
  -25.2567  -13.8152   20.5666 C   0  0  0  0  0  0
  -24.1836  -13.0416   20.9165 C   0  0  0  0  0  0
  -24.6420  -11.6888   20.8736 C   0  0  0  0  0  0
  -23.9086  -10.4281   21.0427 C   0  0  0  0  0  0
  -24.3628   -9.4183   21.9195 C   0  0  0  0  0  0
  -23.6290   -8.2224   22.0757 C   0  0  0  0  0  0
  -22.4272   -8.0285   21.3559 C   0  0  0  0  0  0
  -21.9923   -9.0260   20.4661 C   0  0  0  0  0  0
  -22.7254  -10.2134   20.3070 C   0  0  0  0  0  0
  -21.6833   -6.0750   22.5288 C   0  0  0  0  0  0
  -21.4010   -6.5651   23.8222 C   0  0  0  0  0  0
  -21.3658   -5.6799   24.9189 C   0  0  0  0  0  0
  -21.6034   -4.3067   24.7232 C   0  0  0  0  0  0
  -21.8806   -3.8157   23.4349 C   0  0  0  0  0  0
  -21.9181   -4.6974   22.3412 C   0  0  0  0  0  0
  -22.7868  -13.5207   21.1861 C   0  0  0  0  0  0
  -22.1637   -4.2161   21.0987 F   0  0  0  0  0  0
  -21.5641   -3.4541   25.7746 F   0  0  0  0  0  0
  -30.0208  -13.3649   20.4476 N   0  0  0  0  0  0
  -26.3006  -12.9313   20.3353 N   0  0  0  0  0  0
  -25.9347  -11.6473   20.5783 N   0  0  0  0  0  0
  -22.0505  -12.8218   22.0438 N   0  0  0  0  0  0
  -25.4306  -15.1866   20.4102 N   0  0  0  0  0  0
  -31.7920  -14.7654   20.1591 O   0  0  0  0  0  0
  -21.6621   -6.8893   21.4253 O   0  0  0  0  0  0
  -22.3559  -14.5510   20.6712 O   0  0  0  0  0  0
  -24.6246  -31.8629   23.2069 C   0  0  0  0  0  0
  -25.9120  -32.4787   23.8377 C   0  0  1  0  0  0
  -27.2366  -27.3792   20.1042 C   0  0  0  0  0  0
  -25.5977  -33.8580   24.2326 N   0  0  0  0  0  0
  -23.4118  -30.4851   21.5509 C   0  0  2  0  0  0
  -24.8557  -28.9429   20.1149 C   0  0  0  0  0  0
  -22.7476  -29.4642   22.5021 C   0  0  0  0  0  0
  -18.0350  -28.1297   22.8477 C   0  0  0  0  0  0
  -24.1494  -36.7292   23.2627 C   0  0  0  0  0  0
  -25.9444  -30.8117   21.3648 C   0  0  0  0  0  0
  -26.0212  -29.4422   20.7116 C   0  0  0  0  0  0
  -27.2121  -28.6694   20.6973 C   0  0  0  0  0  0
  -26.0495  -26.9148   19.4890 C   0  0  0  0  0  0
  -24.8697  -27.6823   19.4963 C   0  0  0  0  0  0
  -23.6191  -29.8162   20.1660 C   0  0  0  0  0  0
  -25.4103  -36.3067   24.0336 C   0  0  1  0  0  0
  -20.5922  -28.3673   23.1347 C   0  0  2  0  0  0
  -20.6901  -26.9462   22.5348 C   0  0  0  0  0  0
  -19.5894  -26.6479   21.5128 C   0  0  0  0  0  0
  -18.2060  -26.7907   22.1504 C   0  0  0  0  0  0
  -19.1566  -28.8794   23.2908 C   0  0  0  0  0  0
  -18.9445  -30.1373   23.8950 C   0  0  0  0  0  0
  -17.6425  -30.6467   24.0548 C   0  0  0  0  0  0
  -25.9047  -34.9444   23.5123 C   0  0  0  0  0  0
  -16.5355  -29.8944   23.6295 C   0  0  0  0  0  0
  -16.7312  -28.6352   23.0333 C   0  0  0  0  0  0
  -26.4517  -31.6582   25.0735 C   0  0  0  0  0  0
  -25.3779  -31.3699   26.1486 C   0  0  0  0  0  0
  -27.0367  -30.3027   24.6138 C   0  0  0  0  0  0
  -27.6105  -32.4289   25.7484 C   0  0  0  0  0  0
  -27.5572  -37.1805   24.8458 C   0  0  0  0  0  0
  -21.4193  -29.3080   22.3792 N   0  0  0  0  0  0
  -26.4279  -37.3770   23.9414 N   0  0  0  0  0  0
  -24.6790  -31.0694   22.0992 N   0  0  0  0  0  0
  -23.4218  -28.8192   23.3089 O   0  0  0  0  0  0
  -28.3954  -26.6067   20.1520 O   0  0  0  0  0  0
  -26.5570  -34.8916   22.4664 O   0  0  0  0  0  0
  -23.5434  -32.1406   23.7446 O   0  0  0  0  0  0
  -30.6514  -18.3448   23.3901 C   0  0  0  0  0  0
  -30.5124  -17.0591   22.8392 C   0  0  0  0  0  0
  -30.4305  -19.4737   22.5825 C   0  0  0  0  0  0
  -30.1663  -16.9099   21.4822 C   0  0  0  0  0  0
  -30.0469  -19.2923   21.2311 C   0  0  0  0  0  0
  -29.3271  -21.6685   20.6946 C   0  0  0  0  0  0
  -29.5256  -24.3402   20.3352 C   0  0  0  0  0  0
  -28.3132  -25.1872   19.8293 C   0  0  0  0  0  0
  -29.6863  -22.8735   19.7723 C   0  0  2  0  0  0
  -29.9385  -18.0225   20.7101 N   0  0  0  0  0  0
  -29.9059  -20.4669   20.4082 N   0  0  0  0  0  0
  -29.8588  -15.5703   21.0646 N   0  0  0  0  0  0
  -28.4997  -21.8198   21.5998 O   0  0  0  0  0  0
  -30.6270  -20.7088   23.1085 F   0  0  0  0  0  0
  -29.0598  -22.7378   18.6004 F   0  0  0  0  0  0
  -31.4803  -12.5233   19.1305 H   0  0  0  0  0  0
  -30.3919  -11.3691   19.8493 H   0  0  0  0  0  0
  -29.7671  -11.7944   17.4535 H   0  0  0  0  0  0
  -29.6511  -13.5061   17.7623 H   0  0  0  0  0  0
  -27.8498  -11.3078   18.8269 H   0  0  0  0  0  0
  -27.3805  -12.6299   17.7853 H   0  0  0  0  0  0
  -27.6871  -14.2539   19.5569 H   0  0  0  0  0  0
  -28.7023  -11.9858   21.3416 H   0  0  0  0  0  0
  -28.4415  -13.6155   21.8742 H   0  0  0  0  0  0
  -25.2784   -9.5614   22.4759 H   0  0  0  0  0  0
  -23.9979   -7.4610   22.7475 H   0  0  0  0  0  0
  -21.0846   -8.8804   19.8973 H   0  0  0  0  0  0
  -22.3740  -10.9682   19.6169 H   0  0  0  0  0  0
  -21.1995   -7.6157   23.9745 H   0  0  0  0  0  0
  -21.1493   -6.0530   25.9098 H   0  0  0  0  0  0
  -22.0584   -2.7616   23.2855 H   0  0  0  0  0  0
  -22.4126  -11.9863   22.4793 H   0  0  0  0  0  0
  -21.1171  -13.1340   22.2723 H   0  0  0  0  0  0
  -24.6570  -15.8394   20.4863 H   0  0  0  0  0  0
  -26.2933  -15.6309   20.1224 H   0  0  0  0  0  0
  -26.7187  -32.5448   23.1116 H   0  0  0  0  0  0
  -25.0262  -33.9723   25.0556 H   0  0  0  0  0  0
  -22.7080  -31.3071   21.4103 H   0  0  0  0  0  0
  -23.3752  -35.9629   23.3276 H   0  0  0  0  0  0
  -24.3605  -36.8916   22.2048 H   0  0  0  0  0  0
  -23.7250  -37.6504   23.6632 H   0  0  0  0  0  0
  -26.0710  -31.5788   20.5982 H   0  0  0  0  0  0
  -26.8287  -30.8615   21.9874 H   0  0  0  0  0  0
  -28.1132  -29.0489   21.1595 H   0  0  0  0  0  0
  -26.0098  -25.9530   18.9989 H   0  0  0  0  0  0
  -23.9784  -27.2935   19.0199 H   0  0  0  0  0  0
  -23.7307  -30.5891   19.4067 H   0  0  0  0  0  0
  -22.7405  -29.2414   19.8648 H   0  0  0  0  0  0
  -25.1275  -36.1931   25.0831 H   0  0  0  0  0  0
  -21.0007  -28.3205   24.1467 H   0  0  0  0  0  0
  -20.5991  -26.2213   23.3455 H   0  0  0  0  0  0
  -21.6739  -26.7667   22.1023 H   0  0  0  0  0  0
  -19.7168  -25.6466   21.1014 H   0  0  0  0  0  0
  -19.6784  -27.3437   20.6777 H   0  0  0  0  0  0
  -17.4418  -26.6789   21.3804 H   0  0  0  0  0  0
  -18.0423  -25.9910   22.8759 H   0  0  0  0  0  0
  -19.7879  -30.7209   24.2418 H   0  0  0  0  0  0
  -17.4929  -31.6145   24.5151 H   0  0  0  0  0  0
  -15.5344  -30.2811   23.7593 H   0  0  0  0  0  0
  -15.8739  -28.0620   22.7058 H   0  0  0  0  0  0
  -24.5941  -30.7048   25.7835 H   0  0  0  0  0  0
  -24.8971  -32.2857   26.4945 H   0  0  0  0  0  0
  -25.8150  -30.8865   27.0235 H   0  0  0  0  0  0
  -26.2942  -29.6787   24.1141 H   0  0  0  0  0  0
  -27.4108  -29.7269   25.4621 H   0  0  0  0  0  0
  -27.8784  -30.4378   23.9334 H   0  0  0  0  0  0
  -27.2737  -33.3566   26.2112 H   0  0  0  0  0  0
  -28.3865  -32.6884   25.0273 H   0  0  0  0  0  0
  -28.0802  -31.8369   26.5344 H   0  0  0  0  0  0
  -28.2583  -38.0113   24.7507 H   0  0  0  0  0  0
  -28.1085  -36.2650   24.6257 H   0  0  0  0  0  0
  -27.2308  -37.1415   25.8870 H   0  0  0  0  0  0
  -20.9386  -29.8806   21.7007 H   0  0  0  0  0  0
  -26.0168  -38.2856   24.1412 H   0  0  0  0  0  0
  -30.9251  -18.4696   24.4289 H   0  0  0  0  0  0
  -30.6530  -16.1980   23.4762 H   0  0  0  0  0  0
  -29.5152  -24.3199   21.4255 H   0  0  0  0  0  0
  -30.4320  -24.8850   20.0749 H   0  0  0  0  0  0
  -27.4064  -24.7429   20.2429 H   0  0  0  0  0  0
  -28.2491  -25.1110   18.7433 H   0  0  0  0  0  0
  -30.7441  -22.7530   19.5297 H   0  0  0  0  0  0
  -30.3876  -20.4227   19.5243 H   0  0  0  0  0  0
  -28.9395  -15.2536   21.3259 H   0  0  0  0  0  0
  1 25  1  0  0  0
  1 30  2  0  0  0
  1 82  1  0  0  0
  2  3  1  0  0  0
  2 25  1  0  0  0
  2 86  1  0  0  0
  2 87  1  0  0  0
  3  4  1  0  0  0
  3 88  1  0  0  0
  3 89  1  0  0  0
  4  5  1  0  0  0
  4 90  1  0  0  0
  4 91  1  0  0  0
  5  6  1  0  0  0
  5 26  1  0  0  0
  5 92  1  0  0  0
  6 25  1  0  0  0
  6 93  1  0  0  0
  6 94  1  0  0  0
  7  8  2  0  0  0
  7 26  1  0  0  0
  7 29  1  0  0  0
  8  9  1  0  0  0
  8 22  1  0  0  0
  9 10  1  0  0  0
  9 27  2  0  0  0
 10 11  2  0  0  0
 10 15  1  0  0  0
 11 12  1  0  0  0
 11 95  1  0  0  0
 12 13  2  0  0  0
 12 96  1  0  0  0
 13 14  1  0  0  0
 13 31  1  0  0  0
 14 15  2  0  0  0
 14 97  1  0  0  0
 15 98  1  0  0  0
 16 17  2  0  0  0
 16 21  1  0  0  0
 16 31  1  0  0  0
 17 18  1  0  0  0
 17 99  1  0  0  0
 18 19  2  0  0  0
 18100  1  0  0  0
 19 20  1  0  0  0
 19 24  1  0  0  0
 20 21  2  0  0  0
 20101  1  0  0  0
 21 23  1  0  0  0
 22 28  1  0  0  0
 22 32  2  0  0  0
 26 27  1  0  0  0
 28102  1  0  0  0
 28103  1  0  0  0
 29104  1  0  0  0
 29105  1  0  0  0
 33 34  1  0  0  0
 33 66  1  0  0  0
 33 70  2  0  0  0
 34 36  1  0  0  0
 34 59  1  0  0  0
 34106  1  0  0  0
 35 44  2  0  0  0
 35 45  1  0  0  0
 35 68  1  0  0  0
 36 56  1  0  0  0
 36107  1  0  0  0
 37 39  1  0  0  0
 37 47  1  0  0  0
 37 66  1  0  0  0
 37108  1  0  0  0
 38 43  2  0  0  0
 38 46  1  0  0  0
 38 47  1  0  0  0
 39 64  1  0  0  0
 39 67  2  0  0  0
 40 52  1  0  0  0
 40 53  2  0  0  0
 40 58  1  0  0  0
 41109  1  0  0  0
 41110  1  0  0  0
 41111  1  0  0  0
 41 48  1  0  0  0
 42 43  1  0  0  0
 42 66  1  0  0  0
 42112  1  0  0  0
 42113  1  0  0  0
 43 44  1  0  0  0
 44114  1  0  0  0
 45 46  2  0  0  0
 45115  1  0  0  0
 46116  1  0  0  0
 47117  1  0  0  0
 47118  1  0  0  0
 48 56  1  0  0  0
 48 65  1  0  0  0
 48119  1  0  0  0
 49 50  1  0  0  0
 49 53  1  0  0  0
 49 64  1  0  0  0
 49120  1  0  0  0
 50 51  1  0  0  0
 50121  1  0  0  0
 50122  1  0  0  0
 51 52  1  0  0  0
 51123  1  0  0  0
 51124  1  0  0  0
 52125  1  0  0  0
 52126  1  0  0  0
 53 54  1  0  0  0
 54 55  2  0  0  0
 54127  1  0  0  0
 55 57  1  0  0  0
 55128  1  0  0  0
 56 69  2  0  0  0
 57 58  2  0  0  0
 57129  1  0  0  0
 58130  1  0  0  0
 59 60  1  0  0  0
 59 61  1  0  0  0
 59 62  1  0  0  0
 60131  1  0  0  0
 60132  1  0  0  0
 60133  1  0  0  0
 61134  1  0  0  0
 61135  1  0  0  0
 61136  1  0  0  0
 62137  1  0  0  0
 62138  1  0  0  0
 62139  1  0  0  0
 63 65  1  0  0  0
 63140  1  0  0  0
 63141  1  0  0  0
 63142  1  0  0  0
 64143  1  0  0  0
 65144  1  0  0  0
 68 78  1  0  0  0
 71 72  2  0  0  0
 71 73  1  0  0  0
 71145  1  0  0  0
 72 74  1  0  0  0
 72146  1  0  0  0
 73 75  2  0  0  0
 73 84  1  0  0  0
 74 80  2  0  0  0
 74 82  1  0  0  0
 75 80  1  0  0  0
 75 81  1  0  0  0
 76 79  1  0  0  0
 76 81  1  0  0  0
 76 83  2  0  0  0
 77 78  1  0  0  0
 77 79  1  0  0  0
 77147  1  0  0  0
 77148  1  0  0  0
 78149  1  0  0  0
 78150  1  0  0  0
 79 85  1  0  0  0
 79151  1  0  0  0
 81152  1  0  0  0
 82153  1  0  0  0
M  ISO  4   1 100  68 101  78 101  82 100
M  END
> <chiral flag>
0

> <version>
0

> <s_m_source_file>
/data/baiqing/PycharmProjects/Reinvent-master-3.2/result/LINK_invent/BTK/process_docking_weight1_custom_product_contain_oxygen_bond_distance_aromatic_linkinvent_7_9_3/rearranged_h_0183.sdf

> <i_m_source_file_index>
41

> <r_mmod_Potential_Energy-OPLS-2005>
-160.104309082031

> <r_mmod_Stretch_Energy-OPLS-2005>
55.1169357299805

> <r_mmod_Bend_Energy-OPLS-2005>
119.802619934082

> <r_mmod_Torsional_Energy-OPLS-2005>
265.223785400391

> <r_mmod_Improper_Torsional_Energy-OPLS-2005>
6.17693424224854

> <r_mmod_Van_der_Waal_Energy-OPLS-2005>
154.363372802734

> <r_mmod_Electrostatic_Energy-OPLS-2005>
-544.185546875

> <r_mmod_Solvation_Energy-OPLS-2005>
-244.128112792969

> <b_mmod_Minimization_Converged-OPLS-2005>
0

> <r_mmod_RMS_Derivative-OPLS-2005>
4.22214698791504

$$$$
41
                    3D
 Structure written by MMmdl.
152160  0  0  1  0            999 V2000
  -30.7018  -14.4299   20.5173 C   0  0  0  0  0  0
  -30.4192  -12.2520   19.4360 C   0  0  0  0  0  0
  -29.4971  -12.4405   18.2127 C   0  0  0  0  0  0
  -28.0105  -12.3543   18.6158 C   0  0  0  0  0  0
  -27.6621  -13.1977   19.8714 C   0  0  2  0  0  0
  -28.7017  -12.9788   20.9965 C   0  0  0  0  0  0
  -25.2582  -13.8145   20.5656 C   0  0  0  0  0  0
  -24.1824  -13.0442   20.9175 C   0  0  0  0  0  0
  -24.6362  -11.6902   20.8734 C   0  0  0  0  0  0
  -23.9023  -10.4290   21.0413 C   0  0  0  0  0  0
  -24.3585   -9.4198   21.9182 C   0  0  0  0  0  0
  -23.6269   -8.2234   22.0748 C   0  0  0  0  0  0
  -22.4255   -8.0270   21.3542 C   0  0  0  0  0  0
  -21.9882   -9.0243   20.4645 C   0  0  0  0  0  0
  -22.7206  -10.2122   20.3051 C   0  0  0  0  0  0
  -21.6851   -6.0728   22.5280 C   0  0  0  0  0  0
  -21.4018   -6.5643   23.8212 C   0  0  0  0  0  0
  -21.3660   -5.6794   24.9170 C   0  0  0  0  0  0
  -21.6036   -4.3054   24.7221 C   0  0  0  0  0  0
  -21.8825   -3.8145   23.4344 C   0  0  0  0  0  0
  -21.9195   -4.6959   22.3396 C   0  0  0  0  0  0
  -22.7849  -13.5257   21.1847 C   0  0  0  0  0  0
  -22.1671   -4.2149   21.0971 F   0  0  0  0  0  0
  -21.5608   -3.4537   25.7731 F   0  0  0  0  0  0
  -30.0384  -13.2492   20.4448 N   0  0  0  0  0  0
  -26.3009  -12.9295   20.3328 N   0  0  0  0  0  0
  -25.9280  -11.6473   20.5757 N   0  0  0  0  0  0
  -22.0476  -12.8249   22.0394 N   0  0  0  0  0  0
  -25.4333  -15.1860   20.4068 N   0  0  0  0  0  0
  -31.8643  -14.5867   20.1323 O   0  0  0  0  0  0
  -21.6619   -6.8866   21.4245 O   0  0  0  0  0  0
  -22.3542  -14.5568   20.6694 O   0  0  0  0  0  0
  -24.6085  -31.8717   23.2132 C   0  0  0  0  0  0
  -25.8999  -32.4846   23.8416 C   0  0  1  0  0  0
  -27.2371  -27.4847   20.1026 C   0  0  0  0  0  0
  -25.5877  -33.8644   24.2352 N   0  0  0  0  0  0
  -23.3947  -30.4933   21.5517 C   0  0  2  0  0  0
  -24.8437  -28.9628   20.1168 C   0  0  0  0  0  0
  -22.7382  -29.4666   22.5012 C   0  0  0  0  0  0
  -18.0263  -28.1372   22.8496 C   0  0  0  0  0  0
  -24.1486  -36.7330   23.2640 C   0  0  0  0  0  0
  -25.9164  -30.8551   21.3561 C   0  0  0  0  0  0
  -25.9979  -29.4915   20.7082 C   0  0  0  0  0  0
  -27.2006  -28.7593   20.6964 C   0  0  0  0  0  0
  -26.0729  -26.9544   19.5069 C   0  0  0  0  0  0
  -24.8727  -27.6912   19.5143 C   0  0  0  0  0  0
  -23.6016  -29.8218   20.1665 C   0  0  0  0  0  0
  -25.4104  -36.3129   24.0345 C   0  0  1  0  0  0
  -20.5847  -28.3646   23.1348 C   0  0  2  0  0  0
  -20.6751  -26.9391   22.5428 C   0  0  0  0  0  0
  -19.5735  -26.6382   21.5215 C   0  0  0  0  0  0
  -18.1912  -26.7922   22.1622 C   0  0  0  0  0  0
  -19.1512  -28.8828   23.2919 C   0  0  0  0  0  0
  -18.9442  -30.1435   23.8921 C   0  0  0  0  0  0
  -17.6447  -30.6582   24.0561 C   0  0  0  0  0  0
  -25.9024  -34.9491   23.5143 C   0  0  0  0  0  0
  -16.5335  -29.9081   23.6321 C   0  0  0  0  0  0
  -16.7255  -28.6497   23.0345 C   0  0  0  0  0  0
  -26.4452  -31.6607   25.0722 C   0  0  0  0  0  0
  -25.3746  -31.3688   26.1486 C   0  0  0  0  0  0
  -27.0274  -30.3064   24.6047 C   0  0  0  0  0  0
  -27.6046  -32.4315   25.7477 C   0  0  0  0  0  0
  -27.5583  -37.1820   24.8466 C   0  0  0  0  0  0
  -21.4116  -29.3019   22.3762 N   0  0  0  0  0  0
  -26.4300  -37.3805   23.9408 N   0  0  0  0  0  0
  -24.6578  -31.0861   22.1003 N   0  0  0  0  0  0
  -23.4179  -28.8206   23.3037 O   0  0  0  0  0  0
  -28.4101  -26.7830   20.0980 O   0  0  0  0  0  0
  -26.5581  -34.8933   22.4701 O   0  0  0  0  0  0
  -23.5291  -32.1438   23.7556 O   0  0  0  0  0  0
  -29.2203  -18.4869   18.9022 C   0  0  0  0  0  0
  -29.3661  -17.7904   17.7236 C   0  0  0  0  0  0
  -29.7168  -16.4679   19.7724 C   0  0  0  0  0  0
  -29.0092  -19.9364   18.9178 C   0  0  0  0  0  0
  -29.0326  -20.7463   19.9876 C   0  0  0  0  0  0
  -29.0404  -24.4548   20.1125 C   0  0  0  0  0  0
  -28.9846  -23.0560   20.7615 C   0  0  0  0  0  0
  -28.3668  -25.5889   20.8785 C   0  0  0  0  0  0
  -29.3870  -17.7298   20.0728 N   0  0  0  0  0  0
  -29.2562  -18.2365   16.4078 N   0  0  0  0  0  0
  -29.9306  -15.4929   20.7758 N   0  0  0  0  0  0
  -28.9008  -22.1196   19.8115 N   0  0  0  0  0  0
  -29.5782  -24.6451   19.0117 O   0  0  0  0  0  0
  -29.0368  -22.8474   21.9789 O   0  0  0  0  0  0
  -29.7901  -16.1387   18.0336 S   0  0  0  0  0  0
  -31.4661  -12.3347   19.1377 H   0  0  0  0  0  0
  -30.3053  -11.2481   19.8482 H   0  0  0  0  0  0
  -29.7189  -11.6800   17.4639 H   0  0  0  0  0  0
  -29.6982  -13.3931   17.7293 H   0  0  0  0  0  0
  -27.7846  -11.3043   18.8045 H   0  0  0  0  0  0
  -27.3765  -12.6522   17.7801 H   0  0  0  0  0  0
  -27.7059  -14.2427   19.5671 H   0  0  0  0  0  0
  -28.6585  -11.9493   21.3560 H   0  0  0  0  0  0
  -28.4805  -13.6032   21.8639 H   0  0  0  0  0  0
  -25.2730   -9.5673   22.4762 H   0  0  0  0  0  0
  -23.9984   -7.4615   22.7453 H   0  0  0  0  0  0
  -21.0813   -8.8746   19.8950 H   0  0  0  0  0  0
  -22.3654  -10.9651   19.6154 H   0  0  0  0  0  0
  -21.2020   -7.6159   23.9721 H   0  0  0  0  0  0
  -21.1484   -6.0513   25.9072 H   0  0  0  0  0  0
  -22.0607   -2.7613   23.2826 H   0  0  0  0  0  0
  -22.4064  -11.9912   22.4809 H   0  0  0  0  0  0
  -21.1108  -13.1300   22.2603 H   0  0  0  0  0  0
  -24.6704  -15.8440   20.5262 H   0  0  0  0  0  0
  -26.2829  -15.6241   20.0761 H   0  0  0  0  0  0
  -26.7077  -32.5585   23.1198 H   0  0  0  0  0  0
  -25.0044  -33.9819   25.0504 H   0  0  0  0  0  0
  -22.6802  -31.3068   21.4127 H   0  0  0  0  0  0
  -23.3742  -35.9671   23.3322 H   0  0  0  0  0  0
  -24.3581  -36.8919   22.2051 H   0  0  0  0  0  0
  -23.7246  -37.6548   23.6635 H   0  0  0  0  0  0
  -26.0156  -31.6223   20.5862 H   0  0  0  0  0  0
  -26.8092  -30.9152   21.9669 H   0  0  0  0  0  0
  -28.0956  -29.1643   21.1473 H   0  0  0  0  0  0
  -26.0962  -25.9821   19.0351 H   0  0  0  0  0  0
  -23.9841  -27.2788   19.0561 H   0  0  0  0  0  0
  -23.7043  -30.5939   19.4036 H   0  0  0  0  0  0
  -22.7290  -29.2343   19.8752 H   0  0  0  0  0  0
  -25.1279  -36.2005   25.0840 H   0  0  0  0  0  0
  -20.9941  -28.3202   24.1465 H   0  0  0  0  0  0
  -20.5657  -26.2250   23.3602 H   0  0  0  0  0  0
  -21.6625  -26.7445   22.1214 H   0  0  0  0  0  0
  -19.6892  -25.6296   21.1238 H   0  0  0  0  0  0
  -19.6682  -27.3205   20.6756 H   0  0  0  0  0  0
  -17.4187  -26.6681   21.4017 H   0  0  0  0  0  0
  -18.0307  -26.0061   22.9013 H   0  0  0  0  0  0
  -19.7914  -30.7241   24.2307 H   0  0  0  0  0  0
  -17.5000  -31.6272   24.5148 H   0  0  0  0  0  0
  -15.5333  -30.2987   23.7639 H   0  0  0  0  0  0
  -15.8655  -28.0828   22.7044 H   0  0  0  0  0  0
  -24.5908  -30.7044   25.7825 H   0  0  0  0  0  0
  -24.8943  -32.2834   26.4981 H   0  0  0  0  0  0
  -25.8119  -30.8825   27.0215 H   0  0  0  0  0  0
  -26.2791  -29.6839   24.1128 H   0  0  0  0  0  0
  -27.4098  -29.7285   25.4472 H   0  0  0  0  0  0
  -27.8604  -30.4408   23.9141 H   0  0  0  0  0  0
  -27.2676  -33.3599   26.2103 H   0  0  0  0  0  0
  -28.3826  -32.6901   25.0282 H   0  0  0  0  0  0
  -28.0747  -31.8409   26.5349 H   0  0  0  0  0  0
  -28.2614  -38.0105   24.7503 H   0  0  0  0  0  0
  -28.1063  -36.2636   24.6299 H   0  0  0  0  0  0
  -27.2304  -37.1487   25.8871 H   0  0  0  0  0  0
  -20.9263  -29.8748   21.6995 H   0  0  0  0  0  0
  -26.0196  -38.2893   24.1390 H   0  0  0  0  0  0
  -28.8374  -20.3810   17.9480 H   0  0  0  0  0  0
  -29.1767  -20.4104   21.0070 H   0  0  0  0  0  0
  -28.8955  -25.7532   21.8179 H   0  0  0  0  0  0
  -27.3478  -25.2902   21.1294 H   0  0  0  0  0  0
  -28.9697  -19.1771   16.1519 H   0  0  0  0  0  0
  -29.3443  -17.6272   15.5995 H   0  0  0  0  0  0
  -29.1290  -15.3162   21.3600 H   0  0  0  0  0  0
  -28.8810  -22.4773   18.8647 H   0  0  0  0  0  0
  1 25  1  0  0  0
  1 30  2  0  0  0
  1 81  1  0  0  0
  2  3  1  0  0  0
  2 25  1  0  0  0
  2 86  1  0  0  0
  2 87  1  0  0  0
  3  4  1  0  0  0
  3 88  1  0  0  0
  3 89  1  0  0  0
  4  5  1  0  0  0
  4 90  1  0  0  0
  4 91  1  0  0  0
  5  6  1  0  0  0
  5 26  1  0  0  0
  5 92  1  0  0  0
  6 25  1  0  0  0
  6 93  1  0  0  0
  6 94  1  0  0  0
  7  8  2  0  0  0
  7 26  1  0  0  0
  7 29  1  0  0  0
  8  9  1  0  0  0
  8 22  1  0  0  0
  9 10  1  0  0  0
  9 27  2  0  0  0
 10 11  2  0  0  0
 10 15  1  0  0  0
 11 12  1  0  0  0
 11 95  1  0  0  0
 12 13  2  0  0  0
 12 96  1  0  0  0
 13 14  1  0  0  0
 13 31  1  0  0  0
 14 15  2  0  0  0
 14 97  1  0  0  0
 15 98  1  0  0  0
 16 17  2  0  0  0
 16 21  1  0  0  0
 16 31  1  0  0  0
 17 18  1  0  0  0
 17 99  1  0  0  0
 18 19  2  0  0  0
 18100  1  0  0  0
 19 20  1  0  0  0
 19 24  1  0  0  0
 20 21  2  0  0  0
 20101  1  0  0  0
 21 23  1  0  0  0
 22 28  1  0  0  0
 22 32  2  0  0  0
 26 27  1  0  0  0
 28102  1  0  0  0
 28103  1  0  0  0
 29104  1  0  0  0
 29105  1  0  0  0
 33 34  1  0  0  0
 33 66  1  0  0  0
 33 70  2  0  0  0
 34 36  1  0  0  0
 34 59  1  0  0  0
 34106  1  0  0  0
 35 44  2  0  0  0
 35 45  1  0  0  0
 35 68  1  0  0  0
 36 56  1  0  0  0
 36107  1  0  0  0
 37 39  1  0  0  0
 37 47  1  0  0  0
 37 66  1  0  0  0
 37108  1  0  0  0
 38 43  2  0  0  0
 38 46  1  0  0  0
 38 47  1  0  0  0
 39 64  1  0  0  0
 39 67  2  0  0  0
 40 52  1  0  0  0
 40 53  2  0  0  0
 40 58  1  0  0  0
 41109  1  0  0  0
 41110  1  0  0  0
 41111  1  0  0  0
 41 48  1  0  0  0
 42 43  1  0  0  0
 42 66  1  0  0  0
 42112  1  0  0  0
 42113  1  0  0  0
 43 44  1  0  0  0
 44114  1  0  0  0
 45 46  2  0  0  0
 45115  1  0  0  0
 46116  1  0  0  0
 47117  1  0  0  0
 47118  1  0  0  0
 48 56  1  0  0  0
 48 65  1  0  0  0
 48119  1  0  0  0
 49 50  1  0  0  0
 49 53  1  0  0  0
 49 64  1  0  0  0
 49120  1  0  0  0
 50 51  1  0  0  0
 50121  1  0  0  0
 50122  1  0  0  0
 51 52  1  0  0  0
 51123  1  0  0  0
 51124  1  0  0  0
 52125  1  0  0  0
 52126  1  0  0  0
 53 54  1  0  0  0
 54 55  2  0  0  0
 54127  1  0  0  0
 55 57  1  0  0  0
 55128  1  0  0  0
 56 69  2  0  0  0
 57 58  2  0  0  0
 57129  1  0  0  0
 58130  1  0  0  0
 59 60  1  0  0  0
 59 61  1  0  0  0
 59 62  1  0  0  0
 60131  1  0  0  0
 60132  1  0  0  0
 60133  1  0  0  0
 61134  1  0  0  0
 61135  1  0  0  0
 61136  1  0  0  0
 62137  1  0  0  0
 62138  1  0  0  0
 62139  1  0  0  0
 63 65  1  0  0  0
 63140  1  0  0  0
 63141  1  0  0  0
 63142  1  0  0  0
 64143  1  0  0  0
 65144  1  0  0  0
 68 78  1  0  0  0
 71 72  2  0  0  0
 71 74  1  0  0  0
 71 79  1  0  0  0
 72 80  1  0  0  0
 72 85  1  0  0  0
 73 79  2  0  0  0
 73 81  1  0  0  0
 73 85  1  0  0  0
 74 75  2  0  0  0
 74145  1  0  0  0
 75 82  1  0  0  0
 75146  1  0  0  0
 76 77  1  0  0  0
 76 78  1  0  0  0
 76 83  2  0  0  0
 77 82  1  0  0  0
 77 84  2  0  0  0
 78147  1  0  0  0
 78148  1  0  0  0
 80149  1  0  0  0
 80150  1  0  0  0
 81151  1  0  0  0
 82152  1  0  0  0
M  ISO  4   1 100  68 101  78 101  81 100
M  END
> <chiral flag>
0

> <version>
0

> <s_m_source_file>
/data/baiqing/PycharmProjects/Reinvent-master-3.2/result/LINK_invent/BTK/process_docking_weight1_custom_product_contain_oxygen_bond_distance_aromatic_linkinvent_7_9_3/rearranged_h_0183.sdf

> <i_m_source_file_index>
42

> <r_mmod_Potential_Energy-OPLS-2005>
8.87460899353027

> <r_mmod_Stretch_Energy-OPLS-2005>
30.0782279968262

> <r_mmod_Bend_Energy-OPLS-2005>
100.228507995605

> <r_mmod_Torsional_Energy-OPLS-2005>
279.458435058594

> <r_mmod_Improper_Torsional_Energy-OPLS-2005>
10.4969625473022

> <r_mmod_Van_der_Waal_Energy-OPLS-2005>
130.692596435547

> <r_mmod_Electrostatic_Energy-OPLS-2005>
-299.307464599609

> <r_mmod_Solvation_Energy-OPLS-2005>
-255.796539306641

> <b_mmod_Minimization_Converged-OPLS-2005>
0

> <r_mmod_RMS_Derivative-OPLS-2005>
1.49183320999146

$$$$
42
                    3D
 Structure written by MMmdl.
158166  0  0  1  0            999 V2000
  -30.5953  -14.7910   20.4107 C   0  0  0  0  0  0
  -30.4336  -12.4735   19.4851 C   0  0  0  0  0  0
  -29.5177  -12.4987   18.2415 C   0  0  0  0  0  0
  -28.0416  -12.3267   18.6501 C   0  0  0  0  0  0
  -27.6392  -13.2353   19.8435 C   0  0  2  0  0  0
  -28.6828  -13.1927   20.9805 C   0  0  0  0  0  0
  -25.2520  -13.8210   20.5685 C   0  0  0  0  0  0
  -24.1813  -13.0452   20.9201 C   0  0  0  0  0  0
  -24.6410  -11.6935   20.8737 C   0  0  0  0  0  0
  -23.9078  -10.4319   21.0400 C   0  0  0  0  0  0
  -24.3636   -9.4226   21.9169 C   0  0  0  0  0  0
  -23.6317   -8.2257   22.0742 C   0  0  0  0  0  0
  -22.4300   -8.0281   21.3536 C   0  0  0  0  0  0
  -21.9928   -9.0257   20.4640 C   0  0  0  0  0  0
  -22.7254  -10.2139   20.3051 C   0  0  0  0  0  0
  -21.6865   -6.0746   22.5284 C   0  0  0  0  0  0
  -21.4021   -6.5644   23.8217 C   0  0  0  0  0  0
  -21.3662   -5.6787   24.9172 C   0  0  0  0  0  0
  -21.6043   -4.3051   24.7211 C   0  0  0  0  0  0
  -21.8825   -3.8152   23.4333 C   0  0  0  0  0  0
  -21.9204   -4.6977   22.3397 C   0  0  0  0  0  0
  -22.7835  -13.5220   21.1869 C   0  0  0  0  0  0
  -22.1663   -4.2167   21.0975 F   0  0  0  0  0  0
  -21.5628   -3.4526   25.7720 F   0  0  0  0  0  0
  -29.9809  -13.5521   20.3963 N   0  0  0  0  0  0
  -26.2933  -12.9417   20.3236 N   0  0  0  0  0  0
  -25.9336  -11.6562   20.5729 N   0  0  0  0  0  0
  -22.0485  -12.8205   22.0427 N   0  0  0  0  0  0
  -25.4212  -15.1943   20.4108 N   0  0  0  0  0  0
  -31.8017  -14.8479   20.1535 O   0  0  0  0  0  0
  -21.6656   -6.8885   21.4244 O   0  0  0  0  0  0
  -22.3508  -14.5514   20.6712 O   0  0  0  0  0  0
  -24.6337  -31.8517   23.1947 C   0  0  0  0  0  0
  -25.9159  -32.4723   23.8298 C   0  0  1  0  0  0
  -27.2175  -27.2431   20.1291 C   0  0  0  0  0  0
  -25.5945  -33.8530   24.2228 N   0  0  0  0  0  0
  -23.4301  -30.4738   21.5395 C   0  0  2  0  0  0
  -24.8756  -28.9094   20.1163 C   0  0  0  0  0  0
  -22.7510  -29.4592   22.4908 C   0  0  0  0  0  0
  -18.0292  -28.1399   22.8475 C   0  0  0  0  0  0
  -24.1487  -36.7283   23.2636 C   0  0  0  0  0  0
  -25.9765  -30.7585   21.3748 C   0  0  0  0  0  0
  -26.0494  -29.3763   20.7220 C   0  0  0  0  0  0
  -27.2269  -28.5581   20.7109 C   0  0  0  0  0  0
  -26.0188  -26.8367   19.5094 C   0  0  0  0  0  0
  -24.8640  -27.6468   19.5016 C   0  0  0  0  0  0
  -23.6488  -29.8035   20.1576 C   0  0  0  0  0  0
  -25.4113  -36.3051   24.0317 C   0  0  1  0  0  0
  -20.5894  -28.3711   23.1272 C   0  0  2  0  0  0
  -20.6791  -26.9432   22.5413 C   0  0  0  0  0  0
  -19.5768  -26.6389   21.5222 C   0  0  0  0  0  0
  -18.1942  -26.7937   22.1620 C   0  0  0  0  0  0
  -19.1541  -28.8874   23.2866 C   0  0  0  0  0  0
  -18.9463  -30.1473   23.8890 C   0  0  0  0  0  0
  -17.6460  -30.6598   24.0567 C   0  0  0  0  0  0
  -25.9055  -34.9422   23.5070 C   0  0  0  0  0  0
  -16.5352  -29.9093   23.6339 C   0  0  0  0  0  0
  -16.7276  -28.6515   23.0349 C   0  0  0  0  0  0
  -26.4520  -31.6558   25.0703 C   0  0  0  0  0  0
  -25.3736  -31.3727   26.1424 C   0  0  0  0  0  0
  -27.0364  -30.2963   24.6210 C   0  0  0  0  0  0
  -27.6056  -32.4310   25.7498 C   0  0  0  0  0  0
  -27.5575  -37.1793   24.8457 C   0  0  0  0  0  0
  -21.4217  -29.3043   22.3649 N   0  0  0  0  0  0
  -26.4279  -37.3759   23.9404 N   0  0  0  0  0  0
  -24.6997  -31.0455   22.0937 N   0  0  0  0  0  0
  -23.4200  -28.8147   23.3031 O   0  0  0  0  0  0
  -28.3111  -26.3480   20.0994 O   0  0  0  0  0  0
  -26.5628  -34.8908   22.4641 O   0  0  0  0  0  0
  -23.5485  -32.1352   23.7247 O   0  0  0  0  0  0
  -30.7398  -18.8304   18.3105 C   0  0  0  0  0  0
  -30.6282  -17.5247   18.8233 C   0  0  0  0  0  0
  -29.9651  -17.3407   20.0587 C   0  0  0  0  0  0
  -29.5673  -19.7439   20.0376 C   0  0  0  0  0  0
  -28.5249  -23.6291   19.9746 C   0  0  0  0  0  0
  -31.5525  -22.8800   19.3110 C   0  0  0  0  0  0
  -31.7127  -21.7495   21.5892 C   0  0  0  0  0  0
  -28.1750  -24.9976   20.7619 C   0  0  0  0  0  0
  -29.3525  -22.4110   20.6994 C   0  0  2  0  0  0
  -30.8908  -22.6963   20.6942 C   0  0  0  0  0  0
  -30.2160  -19.9196   18.9074 N   0  0  0  0  0  0
  -29.4080  -18.5055   20.6186 N   0  0  0  0  0  0
  -29.8133  -15.9402   20.5746 N   0  0  0  0  0  0
  -28.9582  -20.9244   20.5833 N   0  0  0  0  0  0
  -28.1382  -23.5105   18.8080 O   0  0  0  0  0  0
  -31.1089  -16.4866   18.0969 F   0  0  0  0  0  0
  -31.4757  -12.5951   19.1849 H   0  0  0  0  0  0
  -30.3783  -11.5041   19.9824 H   0  0  0  0  0  0
  -29.8075  -11.7078   17.5482 H   0  0  0  0  0  0
  -29.6459  -13.4417   17.7084 H   0  0  0  0  0  0
  -27.9032  -11.2791   18.9214 H   0  0  0  0  0  0
  -27.3863  -12.5081   17.7970 H   0  0  0  0  0  0
  -27.6235  -14.2526   19.4525 H   0  0  0  0  0  0
  -28.7251  -12.1999   21.4302 H   0  0  0  0  0  0
  -28.4102  -13.8790   21.7833 H   0  0  0  0  0  0
  -25.2783   -9.5706   22.4734 H   0  0  0  0  0  0
  -24.0037   -7.4654   22.7466 H   0  0  0  0  0  0
  -21.0859   -8.8773   19.8950 H   0  0  0  0  0  0
  -22.3710  -10.9669   19.6159 H   0  0  0  0  0  0
  -21.2005   -7.6151   23.9724 H   0  0  0  0  0  0
  -21.1472   -6.0515   25.9082 H   0  0  0  0  0  0
  -22.0603   -2.7621   23.2827 H   0  0  0  0  0  0
  -22.4107  -11.9861   22.4799 H   0  0  0  0  0  0
  -21.1097  -13.1221   22.2626 H   0  0  0  0  0  0
  -24.6522  -15.8453   20.5254 H   0  0  0  0  0  0
  -26.2559  -15.6348   20.0489 H   0  0  0  0  0  0
  -26.7217  -32.5363   23.1023 H   0  0  0  0  0  0
  -25.0082  -33.9640   25.0370 H   0  0  0  0  0  0
  -22.7282  -31.2978   21.3921 H   0  0  0  0  0  0
  -23.3738  -35.9624   23.3277 H   0  0  0  0  0  0
  -24.3580  -36.8932   22.2054 H   0  0  0  0  0  0
  -23.7257  -37.6483   23.6683 H   0  0  0  0  0  0
  -26.1091  -31.5150   20.5999 H   0  0  0  0  0  0
  -26.8569  -30.8132   22.0041 H   0  0  0  0  0  0
  -28.1320  -28.9161   21.1807 H   0  0  0  0  0  0
  -25.9703  -25.8701   19.0293 H   0  0  0  0  0  0
  -23.9639  -27.2849   19.0242 H   0  0  0  0  0  0
  -23.7774  -30.5787   19.4009 H   0  0  0  0  0  0
  -22.7650  -29.2407   19.8522 H   0  0  0  0  0  0
  -25.1296  -36.1873   25.0809 H   0  0  0  0  0  0
  -20.9973  -28.3291   24.1399 H   0  0  0  0  0  0
  -20.5722  -26.2316   23.3615 H   0  0  0  0  0  0
  -21.6657  -26.7475   22.1195 H   0  0  0  0  0  0
  -19.6935  -25.6298   21.1265 H   0  0  0  0  0  0
  -19.6716  -27.3193   20.6748 H   0  0  0  0  0  0
  -17.4221  -26.6682   21.4018 H   0  0  0  0  0  0
  -18.0335  -26.0091   22.9028 H   0  0  0  0  0  0
  -19.7937  -30.7300   24.2251 H   0  0  0  0  0  0
  -17.5013  -31.6281   24.5165 H   0  0  0  0  0  0
  -15.5353  -30.2994   23.7678 H   0  0  0  0  0  0
  -15.8672  -28.0844   22.7056 H   0  0  0  0  0  0
  -24.5909  -30.7069   25.7766 H   0  0  0  0  0  0
  -24.8938  -32.2909   26.4825 H   0  0  0  0  0  0
  -25.8054  -30.8930   27.0217 H   0  0  0  0  0  0
  -26.2950  -29.6704   24.1226 H   0  0  0  0  0  0
  -27.4015  -29.7232   25.4743 H   0  0  0  0  0  0
  -27.8845  -30.4212   23.9471 H   0  0  0  0  0  0
  -27.2630  -33.3599   26.2068 H   0  0  0  0  0  0
  -28.3887  -32.6881   25.0355 H   0  0  0  0  0  0
  -28.0702  -31.8444   26.5431 H   0  0  0  0  0  0
  -28.2570  -38.0110   24.7507 H   0  0  0  0  0  0
  -28.1089  -36.2636   24.6266 H   0  0  0  0  0  0
  -27.2296  -37.1424   25.8861 H   0  0  0  0  0  0
  -20.9406  -29.8721   21.6813 H   0  0  0  0  0  0
  -26.0143  -38.2819   24.1426 H   0  0  0  0  0  0
  -31.2385  -19.0039   17.3689 H   0  0  0  0  0  0
  -32.5485  -23.3083   19.4220 H   0  0  0  0  0  0
  -30.9929  -23.5582   18.6663 H   0  0  0  0  0  0
  -31.6808  -21.9463   18.7710 H   0  0  0  0  0  0
  -32.7025  -22.1645   21.7818 H   0  0  0  0  0  0
  -31.8685  -20.7772   21.1246 H   0  0  0  0  0  0
  -31.2334  -21.5937   22.5565 H   0  0  0  0  0  0
  -28.8027  -25.0183   21.6521 H   0  0  0  0  0  0
  -27.1527  -24.8964   21.1280 H   0  0  0  0  0  0
  -29.0983  -22.5608   21.7488 H   0  0  0  0  0  0
  -30.9844  -23.6778   21.1647 H   0  0  0  0  0  0
  -28.9137  -15.7591   20.9842 H   0  0  0  0  0  0
  -28.3057  -20.6815   21.3163 H   0  0  0  0  0  0
  1 25  1  0  0  0
  1 30  2  0  0  0
  1 83  1  0  0  0
  2  3  1  0  0  0
  2 25  1  0  0  0
  2 87  1  0  0  0
  2 88  1  0  0  0
  3  4  1  0  0  0
  3 89  1  0  0  0
  3 90  1  0  0  0
  4  5  1  0  0  0
  4 91  1  0  0  0
  4 92  1  0  0  0
  5  6  1  0  0  0
  5 26  1  0  0  0
  5 93  1  0  0  0
  6 25  1  0  0  0
  6 94  1  0  0  0
  6 95  1  0  0  0
  7  8  2  0  0  0
  7 26  1  0  0  0
  7 29  1  0  0  0
  8  9  1  0  0  0
  8 22  1  0  0  0
  9 10  1  0  0  0
  9 27  2  0  0  0
 10 11  2  0  0  0
 10 15  1  0  0  0
 11 12  1  0  0  0
 11 96  1  0  0  0
 12 13  2  0  0  0
 12 97  1  0  0  0
 13 14  1  0  0  0
 13 31  1  0  0  0
 14 15  2  0  0  0
 14 98  1  0  0  0
 15 99  1  0  0  0
 16 17  2  0  0  0
 16 21  1  0  0  0
 16 31  1  0  0  0
 17 18  1  0  0  0
 17100  1  0  0  0
 18 19  2  0  0  0
 18101  1  0  0  0
 19 20  1  0  0  0
 19 24  1  0  0  0
 20 21  2  0  0  0
 20102  1  0  0  0
 21 23  1  0  0  0
 22 28  1  0  0  0
 22 32  2  0  0  0
 26 27  1  0  0  0
 28103  1  0  0  0
 28104  1  0  0  0
 29105  1  0  0  0
 29106  1  0  0  0
 33 34  1  0  0  0
 33 66  1  0  0  0
 33 70  2  0  0  0
 34 36  1  0  0  0
 34 59  1  0  0  0
 34107  1  0  0  0
 35 44  2  0  0  0
 35 45  1  0  0  0
 35 68  1  0  0  0
 36 56  1  0  0  0
 36108  1  0  0  0
 37 39  1  0  0  0
 37 47  1  0  0  0
 37 66  1  0  0  0
 37109  1  0  0  0
 38 43  2  0  0  0
 38 46  1  0  0  0
 38 47  1  0  0  0
 39 64  1  0  0  0
 39 67  2  0  0  0
 40 52  1  0  0  0
 40 53  2  0  0  0
 40 58  1  0  0  0
 41110  1  0  0  0
 41111  1  0  0  0
 41112  1  0  0  0
 41 48  1  0  0  0
 42 43  1  0  0  0
 42 66  1  0  0  0
 42113  1  0  0  0
 42114  1  0  0  0
 43 44  1  0  0  0
 44115  1  0  0  0
 45 46  2  0  0  0
 45116  1  0  0  0
 46117  1  0  0  0
 47118  1  0  0  0
 47119  1  0  0  0
 48 56  1  0  0  0
 48 65  1  0  0  0
 48120  1  0  0  0
 49 50  1  0  0  0
 49 53  1  0  0  0
 49 64  1  0  0  0
 49121  1  0  0  0
 50 51  1  0  0  0
 50122  1  0  0  0
 50123  1  0  0  0
 51 52  1  0  0  0
 51124  1  0  0  0
 51125  1  0  0  0
 52126  1  0  0  0
 52127  1  0  0  0
 53 54  1  0  0  0
 54 55  2  0  0  0
 54128  1  0  0  0
 55 57  1  0  0  0
 55129  1  0  0  0
 56 69  2  0  0  0
 57 58  2  0  0  0
 57130  1  0  0  0
 58131  1  0  0  0
 59 60  1  0  0  0
 59 61  1  0  0  0
 59 62  1  0  0  0
 60132  1  0  0  0
 60133  1  0  0  0
 60134  1  0  0  0
 61135  1  0  0  0
 61136  1  0  0  0
 61137  1  0  0  0
 62138  1  0  0  0
 62139  1  0  0  0
 62140  1  0  0  0
 63 65  1  0  0  0
 63141  1  0  0  0
 63142  1  0  0  0
 63143  1  0  0  0
 64144  1  0  0  0
 65145  1  0  0  0
 68 78  1  0  0  0
 71 72  2  0  0  0
 71 81  1  0  0  0
 71146  1  0  0  0
 72 73  1  0  0  0
 72 86  1  0  0  0
 73 82  2  0  0  0
 73 83  1  0  0  0
 74 81  2  0  0  0
 74 82  1  0  0  0
 74 84  1  0  0  0
 75 78  1  0  0  0
 75 79  1  0  0  0
 75 85  2  0  0  0
 76147  1  0  0  0
 76148  1  0  0  0
 76149  1  0  0  0
 76 80  1  0  0  0
 77 80  1  0  0  0
 77150  1  0  0  0
 77151  1  0  0  0
 77152  1  0  0  0
 78153  1  0  0  0
 78154  1  0  0  0
 79 80  1  0  0  0
 79 84  1  0  0  0
 79155  1  0  0  0
 80156  1  0  0  0
 83157  1  0  0  0
 84158  1  0  0  0
M  ISO  4   1 100  68 101  78 101  83 100
M  END
> <chiral flag>
0

> <version>
0

> <s_m_source_file>
/data/baiqing/PycharmProjects/Reinvent-master-3.2/result/LINK_invent/BTK/process_docking_weight1_custom_product_contain_oxygen_bond_distance_aromatic_linkinvent_7_9_3/rearranged_h_0183.sdf

> <i_m_source_file_index>
43

> <r_mmod_Potential_Energy-OPLS-2005>
-192.558029174805

> <r_mmod_Stretch_Energy-OPLS-2005>
146.554840087891

> <r_mmod_Bend_Energy-OPLS-2005>
215.914703369141

> <r_mmod_Torsional_Energy-OPLS-2005>
266.015960693359

> <r_mmod_Improper_Torsional_Energy-OPLS-2005>
5.68809080123901

> <r_mmod_Van_der_Waal_Energy-OPLS-2005>
139.079864501953

> <r_mmod_Electrostatic_Energy-OPLS-2005>
-805.709716796875

> <r_mmod_Solvation_Energy-OPLS-2005>
-260.126525878906

> <b_mmod_Minimization_Converged-OPLS-2005>
0

> <r_mmod_RMS_Derivative-OPLS-2005>
2.07998514175415

$$$$
43
                    3D
 Structure written by MMmdl.
149157  0  0  1  0            999 V2000
  -30.6350  -14.5620   20.5738 C   0  0  0  0  0  0
  -30.4390  -12.3559   19.4527 C   0  0  0  0  0  0
  -29.5129  -12.5104   18.2246 C   0  0  0  0  0  0
  -28.0329  -12.3437   18.6329 C   0  0  0  0  0  0
  -27.6638  -13.1961   19.8726 C   0  0  2  0  0  0
  -28.6976  -13.0039   21.0054 C   0  0  0  0  0  0
  -25.2628  -13.8121   20.5642 C   0  0  0  0  0  0
  -24.1855  -13.0442   20.9145 C   0  0  0  0  0  0
  -24.6399  -11.6900   20.8697 C   0  0  0  0  0  0
  -23.9068  -10.4304   21.0391 C   0  0  0  0  0  0
  -24.3625   -9.4228   21.9175 C   0  0  0  0  0  0
  -23.6303   -8.2265   22.0755 C   0  0  0  0  0  0
  -22.4283   -8.0299   21.3553 C   0  0  0  0  0  0
  -21.9927   -9.0270   20.4628 C   0  0  0  0  0  0
  -22.7250  -10.2150   20.3024 C   0  0  0  0  0  0
  -21.6864   -6.0746   22.5274 C   0  0  0  0  0  0
  -21.4018   -6.5641   23.8198 C   0  0  0  0  0  0
  -21.3644   -5.6794   24.9162 C   0  0  0  0  0  0
  -21.6039   -4.3063   24.7227 C   0  0  0  0  0  0
  -21.8820   -3.8163   23.4330 C   0  0  0  0  0  0
  -21.9215   -4.6970   22.3383 C   0  0  0  0  0  0
  -22.7887  -13.5260   21.1814 C   0  0  0  0  0  0
  -22.1676   -4.2175   21.0965 F   0  0  0  0  0  0
  -21.5635   -3.4541   25.7748 F   0  0  0  0  0  0
  -30.0269  -13.3446   20.4666 N   0  0  0  0  0  0
  -26.3039  -12.9259   20.3312 N   0  0  0  0  0  0
  -25.9318  -11.6449   20.5714 N   0  0  0  0  0  0
  -22.0504  -12.8263   22.0351 N   0  0  0  0  0  0
  -25.4410  -15.1826   20.4035 N   0  0  0  0  0  0
  -31.7477  -14.7799   20.0707 O   0  0  0  0  0  0
  -21.6630   -6.8884   21.4239 O   0  0  0  0  0  0
  -22.3610  -14.5601   20.6680 O   0  0  0  0  0  0
  -24.6196  -31.8654   23.2078 C   0  0  0  0  0  0
  -25.9109  -32.4792   23.8370 C   0  0  1  0  0  0
  -27.2096  -27.3829   20.1064 C   0  0  0  0  0  0
  -25.5942  -33.8574   24.2308 N   0  0  0  0  0  0
  -23.4063  -30.4905   21.5468 C   0  0  2  0  0  0
  -24.8453  -28.9559   20.1051 C   0  0  0  0  0  0
  -22.7406  -29.4671   22.4972 C   0  0  0  0  0  0
  -18.0270  -28.1398   22.8553 C   0  0  0  0  0  0
  -24.1430  -36.7230   23.2650 C   0  0  0  0  0  0
  -25.9394  -30.8171   21.3631 C   0  0  0  0  0  0
  -26.0071  -29.4493   20.7071 C   0  0  0  0  0  0
  -27.1885  -28.6702   20.7123 C   0  0  0  0  0  0
  -26.0341  -26.9263   19.4719 C   0  0  0  0  0  0
  -24.8588  -27.6999   19.4754 C   0  0  0  0  0  0
  -23.6077  -29.8262   20.1609 C   0  0  0  0  0  0
  -25.4072  -36.3053   24.0347 C   0  0  1  0  0  0
  -20.5875  -28.3666   23.1319 C   0  0  2  0  0  0
  -20.6713  -26.9374   22.5400 C   0  0  0  0  0  0
  -19.5684  -26.6405   21.5215 C   0  0  0  0  0  0
  -18.1873  -26.7982   22.1647 C   0  0  0  0  0  0
  -19.1538  -28.8855   23.2938 C   0  0  0  0  0  0
  -18.9452  -30.1495   23.8920 C   0  0  0  0  0  0
  -17.6448  -30.6603   24.0605 C   0  0  0  0  0  0
  -25.9013  -34.9452   23.5105 C   0  0  0  0  0  0
  -16.5352  -29.9093   23.6361 C   0  0  0  0  0  0
  -16.7270  -28.6510   23.0402 C   0  0  0  0  0  0
  -26.4546  -31.6634   25.0771 C   0  0  0  0  0  0
  -25.3806  -31.3772   26.1521 C   0  0  0  0  0  0
  -27.0363  -30.3034   24.6187 C   0  0  0  0  0  0
  -27.6059  -32.4430   25.7570 C   0  0  0  0  0  0
  -27.5539  -37.1765   24.8476 C   0  0  0  0  0  0
  -21.4131  -29.3037   22.3714 N   0  0  0  0  0  0
  -26.4213  -37.3782   23.9474 N   0  0  0  0  0  0
  -24.6743  -31.0724   22.0994 N   0  0  0  0  0  0
  -23.4194  -28.8152   23.2962 O   0  0  0  0  0  0
  -28.3492  -26.5981   20.1714 O   0  0  0  0  0  0
  -26.5555  -34.8949   22.4665 O   0  0  0  0  0  0
  -23.5394  -32.1415   23.7441 O   0  0  0  0  0  0
  -29.3448  -18.8147   19.7316 C   0  0  0  0  0  0
  -29.6951  -19.4406   20.9127 C   0  0  0  0  0  0
  -29.8539  -16.9276   20.9440 C   0  0  0  0  0  0
  -28.3188  -25.2538   19.8037 C   0  0  0  0  0  0
  -28.4802  -24.2134   20.6707 C   0  0  0  0  0  0
  -28.5993  -22.8172   20.1811 C   0  0  0  0  0  0
  -29.9379  -20.9267   21.1851 C   0  0  0  0  0  0
  -29.4458  -17.4045   19.7569 N   0  0  0  0  0  0
  -29.9298  -15.5206   21.2260 N   0  0  0  0  0  0
  -28.8146  -21.9042   21.1621 N   0  0  0  0  0  0
  -28.6195  -22.4828   18.9927 O   0  0  0  0  0  0
  -28.5864  -24.4525   21.9919 O   0  0  0  0  0  0
  -30.0493  -18.2191   22.1426 S   0  0  0  0  0  0
  -31.4815  -12.4817   19.1584 H   0  0  0  0  0  0
  -30.3662  -11.3481   19.8636 H   0  0  0  0  0  0
  -29.7771  -11.7759   17.4643 H   0  0  0  0  0  0
  -29.6655  -13.4896   17.7690 H   0  0  0  0  0  0
  -27.8759  -11.2868   18.8536 H   0  0  0  0  0  0
  -27.3809  -12.5812   17.7953 H   0  0  0  0  0  0
  -27.7037  -14.2391   19.5562 H   0  0  0  0  0  0
  -28.6935  -11.9679   21.3524 H   0  0  0  0  0  0
  -28.4252  -13.5997   21.8773 H   0  0  0  0  0  0
  -25.2767   -9.5720   22.4758 H   0  0  0  0  0  0
  -24.0028   -7.4652   22.7466 H   0  0  0  0  0  0
  -21.0875   -8.8748   19.8916 H   0  0  0  0  0  0
  -22.3698  -10.9670   19.6124 H   0  0  0  0  0  0
  -21.1980   -7.6157   23.9707 H   0  0  0  0  0  0
  -21.1462   -6.0514   25.9051 H   0  0  0  0  0  0
  -22.0619   -2.7629   23.2815 H   0  0  0  0  0  0
  -22.4081  -11.9894   22.4704 H   0  0  0  0  0  0
  -21.1093  -13.1260   22.2460 H   0  0  0  0  0  0
  -24.6720  -15.8392   20.4676 H   0  0  0  0  0  0
  -26.3017  -15.6149   20.0935 H   0  0  0  0  0  0
  -26.7157  -32.5477   23.1078 H   0  0  0  0  0  0
  -25.0271  -33.9752   25.0567 H   0  0  0  0  0  0
  -22.6983  -31.3130   21.4143 H   0  0  0  0  0  0
  -23.3712  -35.9508   23.3282 H   0  0  0  0  0  0
  -24.3498  -36.8892   22.2050 H   0  0  0  0  0  0
  -23.7111  -37.6427   23.6638 H   0  0  0  0  0  0
  -26.0670  -31.5843   20.5994 H   0  0  0  0  0  0
  -26.8250  -30.8666   21.9855 H   0  0  0  0  0  0
  -28.0744  -29.0462   21.2001 H   0  0  0  0  0  0
  -25.9962  -25.9630   18.9854 H   0  0  0  0  0  0
  -23.9666  -27.3186   18.9948 H   0  0  0  0  0  0
  -23.7236  -30.6013   19.4065 H   0  0  0  0  0  0
  -22.7271  -29.2494   19.8762 H   0  0  0  0  0  0
  -25.1200  -36.1901   25.0821 H   0  0  0  0  0  0
  -21.0074  -28.3231   24.1405 H   0  0  0  0  0  0
  -20.5599  -26.2258   23.3590 H   0  0  0  0  0  0
  -21.6587  -26.7395   22.1199 H   0  0  0  0  0  0
  -19.6772  -25.6308   21.1223 H   0  0  0  0  0  0
  -19.6587  -27.3216   20.6755 H   0  0  0  0  0  0
  -17.4133  -26.6857   21.4034 H   0  0  0  0  0  0
  -18.0196  -26.0123   22.9010 H   0  0  0  0  0  0
  -19.7943  -30.7362   24.2240 H   0  0  0  0  0  0
  -17.4990  -31.6314   24.5168 H   0  0  0  0  0  0
  -15.5328  -30.2979   23.7679 H   0  0  0  0  0  0
  -15.8701  -28.0812   22.7120 H   0  0  0  0  0  0
  -24.5951  -30.7116   25.7905 H   0  0  0  0  0  0
  -24.9074  -32.2962   26.4982 H   0  0  0  0  0  0
  -25.8235  -30.8975   27.0245 H   0  0  0  0  0  0
  -26.2903  -29.6804   24.1210 H   0  0  0  0  0  0
  -27.4067  -29.7307   25.4710 H   0  0  0  0  0  0
  -27.8776  -30.4347   23.9373 H   0  0  0  0  0  0
  -27.2571  -33.3725   26.2061 H   0  0  0  0  0  0
  -28.3901  -32.6999   25.0450 H   0  0  0  0  0  0
  -28.0617  -31.8643   26.5597 H   0  0  0  0  0  0
  -28.2524  -38.0093   24.7608 H   0  0  0  0  0  0
  -28.1082  -36.2663   24.6146 H   0  0  0  0  0  0
  -27.2317  -37.1295   25.8897 H   0  0  0  0  0  0
  -20.9200  -29.8813   21.7053 H   0  0  0  0  0  0
  -26.0092  -38.2818   24.1586 H   0  0  0  0  0  0
  -29.0743  -19.2978   18.8010 H   0  0  0  0  0  0
  -28.1918  -25.1398   18.7296 H   0  0  0  0  0  0
  -30.7362  -21.2799   20.5224 H   0  0  0  0  0  0
  -30.3663  -21.0199   22.1887 H   0  0  0  0  0  0
  -29.1847  -15.1769   21.8109 H   0  0  0  0  0  0
  -28.5602  -22.2513   22.0779 H   0  0  0  0  0  0
  -28.5123  -25.3883   22.1192 H   0  0  0  0  0  0
  1 25  1  0  0  0
  1 30  2  0  0  0
  1 79  1  0  0  0
  2  3  1  0  0  0
  2 25  1  0  0  0
  2 84  1  0  0  0
  2 85  1  0  0  0
  3  4  1  0  0  0
  3 86  1  0  0  0
  3 87  1  0  0  0
  4  5  1  0  0  0
  4 88  1  0  0  0
  4 89  1  0  0  0
  5  6  1  0  0  0
  5 26  1  0  0  0
  5 90  1  0  0  0
  6 25  1  0  0  0
  6 91  1  0  0  0
  6 92  1  0  0  0
  7  8  2  0  0  0
  7 26  1  0  0  0
  7 29  1  0  0  0
  8  9  1  0  0  0
  8 22  1  0  0  0
  9 10  1  0  0  0
  9 27  2  0  0  0
 10 11  2  0  0  0
 10 15  1  0  0  0
 11 12  1  0  0  0
 11 93  1  0  0  0
 12 13  2  0  0  0
 12 94  1  0  0  0
 13 14  1  0  0  0
 13 31  1  0  0  0
 14 15  2  0  0  0
 14 95  1  0  0  0
 15 96  1  0  0  0
 16 17  2  0  0  0
 16 21  1  0  0  0
 16 31  1  0  0  0
 17 18  1  0  0  0
 17 97  1  0  0  0
 18 19  2  0  0  0
 18 98  1  0  0  0
 19 20  1  0  0  0
 19 24  1  0  0  0
 20 21  2  0  0  0
 20 99  1  0  0  0
 21 23  1  0  0  0
 22 28  1  0  0  0
 22 32  2  0  0  0
 26 27  1  0  0  0
 28100  1  0  0  0
 28101  1  0  0  0
 29102  1  0  0  0
 29103  1  0  0  0
 33 34  1  0  0  0
 33 66  1  0  0  0
 33 70  2  0  0  0
 34 36  1  0  0  0
 34 59  1  0  0  0
 34104  1  0  0  0
 35 44  2  0  0  0
 35 45  1  0  0  0
 35 68  1  0  0  0
 36 56  1  0  0  0
 36105  1  0  0  0
 37 39  1  0  0  0
 37 47  1  0  0  0
 37 66  1  0  0  0
 37106  1  0  0  0
 38 43  2  0  0  0
 38 46  1  0  0  0
 38 47  1  0  0  0
 39 64  1  0  0  0
 39 67  2  0  0  0
 40 52  1  0  0  0
 40 53  2  0  0  0
 40 58  1  0  0  0
 41107  1  0  0  0
 41108  1  0  0  0
 41109  1  0  0  0
 41 48  1  0  0  0
 42 43  1  0  0  0
 42 66  1  0  0  0
 42110  1  0  0  0
 42111  1  0  0  0
 43 44  1  0  0  0
 44112  1  0  0  0
 45 46  2  0  0  0
 45113  1  0  0  0
 46114  1  0  0  0
 47115  1  0  0  0
 47116  1  0  0  0
 48 56  1  0  0  0
 48 65  1  0  0  0
 48117  1  0  0  0
 49 50  1  0  0  0
 49 53  1  0  0  0
 49 64  1  0  0  0
 49118  1  0  0  0
 50 51  1  0  0  0
 50119  1  0  0  0
 50120  1  0  0  0
 51 52  1  0  0  0
 51121  1  0  0  0
 51122  1  0  0  0
 52123  1  0  0  0
 52124  1  0  0  0
 53 54  1  0  0  0
 54 55  2  0  0  0
 54125  1  0  0  0
 55 57  1  0  0  0
 55126  1  0  0  0
 56 69  2  0  0  0
 57 58  2  0  0  0
 57127  1  0  0  0
 58128  1  0  0  0
 59 60  1  0  0  0
 59 61  1  0  0  0
 59 62  1  0  0  0
 60129  1  0  0  0
 60130  1  0  0  0
 60131  1  0  0  0
 61132  1  0  0  0
 61133  1  0  0  0
 61134  1  0  0  0
 62135  1  0  0  0
 62136  1  0  0  0
 62137  1  0  0  0
 63 65  1  0  0  0
 63138  1  0  0  0
 63139  1  0  0  0
 63140  1  0  0  0
 64141  1  0  0  0
 65142  1  0  0  0
 68 74  1  0  0  0
 71 72  2  0  0  0
 71 78  1  0  0  0
 71143  1  0  0  0
 72 77  1  0  0  0
 72 83  1  0  0  0
 73 78  2  0  0  0
 73 79  1  0  0  0
 73 83  1  0  0  0
 74 75  2  0  0  0
 74144  1  0  0  0
 75 76  1  0  0  0
 75 82  1  0  0  0
 76 80  1  0  0  0
 76 81  2  0  0  0
 77 80  1  0  0  0
 77145  1  0  0  0
 77146  1  0  0  0
 79147  1  0  0  0
 80148  1  0  0  0
 82149  1  0  0  0
M  ISO  4   1 100  68 101  74 101  79 100
M  END
> <chiral flag>
0

> <version>
0

> <s_m_source_file>
/data/baiqing/PycharmProjects/Reinvent-master-3.2/result/LINK_invent/BTK/process_docking_weight1_custom_product_contain_oxygen_bond_distance_aromatic_linkinvent_7_9_3/rearranged_h_0183.sdf

> <i_m_source_file_index>
44

> <r_mmod_Potential_Energy-OPLS-2005>
-147.926895141602

> <r_mmod_Stretch_Energy-OPLS-2005>
49.5256423950195

> <r_mmod_Bend_Energy-OPLS-2005>
112.466484069824

> <r_mmod_Torsional_Energy-OPLS-2005>
254.433135986328

> <r_mmod_Improper_Torsional_Energy-OPLS-2005>
8.43210792541504

> <r_mmod_Van_der_Waal_Energy-OPLS-2005>
128.042922973633

> <r_mmod_Electrostatic_Energy-OPLS-2005>
-488.266693115234

> <r_mmod_Solvation_Energy-OPLS-2005>
-240.069488525391

> <b_mmod_Minimization_Converged-OPLS-2005>
0

> <r_mmod_RMS_Derivative-OPLS-2005>
7.43595695495605

$$$$
44
                    3D
 Structure written by MMmdl.
153161  0  0  1  0            999 V2000
  -30.5953  -14.7936   20.4802 C   0  0  0  0  0  0
  -30.4379  -12.4973   19.4644 C   0  0  0  0  0  0
  -29.5149  -12.5236   18.2277 C   0  0  0  0  0  0
  -28.0384  -12.3443   18.6337 C   0  0  0  0  0  0
  -27.6323  -13.2397   19.8338 C   0  0  2  0  0  0
  -28.6762  -13.1915   20.9682 C   0  0  0  0  0  0
  -25.2459  -13.8225   20.5624 C   0  0  0  0  0  0
  -24.1779  -13.0436   20.9185 C   0  0  0  0  0  0
  -24.6391  -11.6911   20.8746 C   0  0  0  0  0  0
  -23.9074  -10.4289   21.0407 C   0  0  0  0  0  0
  -24.3624   -9.4200   21.9176 C   0  0  0  0  0  0
  -23.6300   -8.2235   22.0733 C   0  0  0  0  0  0
  -22.4269   -8.0271   21.3558 C   0  0  0  0  0  0
  -21.9920   -9.0244   20.4643 C   0  0  0  0  0  0
  -22.7241  -10.2112   20.3062 C   0  0  0  0  0  0
  -21.6855   -6.0710   22.5283 C   0  0  0  0  0  0
  -21.4018   -6.5628   23.8213 C   0  0  0  0  0  0
  -21.3662   -5.6787   24.9185 C   0  0  0  0  0  0
  -21.6049   -4.3049   24.7235 C   0  0  0  0  0  0
  -21.8809   -3.8128   23.4370 C   0  0  0  0  0  0
  -21.9191   -4.6950   22.3415 C   0  0  0  0  0  0
  -22.7797  -13.5189   21.1855 C   0  0  0  0  0  0
  -22.1652   -4.2118   21.1005 F   0  0  0  0  0  0
  -21.5628   -3.4533   25.7765 F   0  0  0  0  0  0
  -29.9709  -13.5655   20.3806 N   0  0  0  0  0  0
  -26.2877  -12.9427   20.3148 N   0  0  0  0  0  0
  -25.9305  -11.6563   20.5687 N   0  0  0  0  0  0
  -22.0440  -12.8203   22.0440 N   0  0  0  0  0  0
  -25.4141  -15.1962   20.4106 N   0  0  0  0  0  0
  -31.7996  -14.8766   20.2236 O   0  0  0  0  0  0
  -21.6634   -6.8856   21.4236 O   0  0  0  0  0  0
  -22.3476  -14.5489   20.6654 O   0  0  0  0  0  0
  -24.6354  -31.8548   23.1954 C   0  0  0  0  0  0
  -25.9181  -32.4759   23.8300 C   0  0  1  0  0  0
  -27.2240  -27.2502   20.1492 C   0  0  0  0  0  0
  -25.5968  -33.8551   24.2249 N   0  0  0  0  0  0
  -23.4318  -30.4765   21.5374 C   0  0  2  0  0  0
  -24.8807  -28.9132   20.1151 C   0  0  0  0  0  0
  -22.7520  -29.4631   22.4881 C   0  0  0  0  0  0
  -18.0293  -28.1424   22.8460 C   0  0  0  0  0  0
  -24.1481  -36.7280   23.2630 C   0  0  0  0  0  0
  -25.9753  -30.7713   21.3654 C   0  0  0  0  0  0
  -26.0521  -29.3867   20.7192 C   0  0  0  0  0  0
  -27.2326  -28.5733   20.7106 C   0  0  0  0  0  0
  -26.0266  -26.8397   19.5296 C   0  0  0  0  0  0
  -24.8706  -27.6472   19.5080 C   0  0  0  0  0  0
  -23.6566  -29.8080   20.1538 C   0  0  0  0  0  0
  -25.4108  -36.3077   24.0333 C   0  0  1  0  0  0
  -20.5896  -28.3764   23.1241 C   0  0  2  0  0  0
  -20.6796  -26.9481   22.5398 C   0  0  0  0  0  0
  -19.5781  -26.6418   21.5206 C   0  0  0  0  0  0
  -18.1951  -26.7965   22.1606 C   0  0  0  0  0  0
  -19.1539  -28.8905   23.2835 C   0  0  0  0  0  0
  -18.9470  -30.1484   23.8909 C   0  0  0  0  0  0
  -17.6482  -30.6625   24.0577 C   0  0  0  0  0  0
  -25.9063  -34.9458   23.5089 C   0  0  0  0  0  0
  -16.5360  -29.9138   23.6310 C   0  0  0  0  0  0
  -16.7277  -28.6545   23.0345 C   0  0  0  0  0  0
  -26.4531  -31.6571   25.0679 C   0  0  0  0  0  0
  -25.3764  -31.3718   26.1403 C   0  0  0  0  0  0
  -27.0353  -30.2989   24.6126 C   0  0  0  0  0  0
  -27.6076  -32.4310   25.7464 C   0  0  0  0  0  0
  -27.5561  -37.1801   24.8465 C   0  0  0  0  0  0
  -21.4218  -29.3097   22.3647 N   0  0  0  0  0  0
  -26.4269  -37.3785   23.9424 N   0  0  0  0  0  0
  -24.7010  -31.0514   22.0924 N   0  0  0  0  0  0
  -23.4192  -28.8153   23.2997 O   0  0  0  0  0  0
  -28.3146  -26.3485   20.1476 O   0  0  0  0  0  0
  -26.5599  -34.8935   22.4631 O   0  0  0  0  0  0
  -23.5508  -32.1342   23.7267 O   0  0  0  0  0  0
  -29.7471  -18.7223   20.3910 C   0  0  0  0  0  0
  -29.8086  -18.9706   19.0369 C   0  0  0  0  0  0
  -29.1896  -21.0769   20.2878 C   0  0  0  0  0  0
  -28.7914  -23.6837   20.1174 C   0  0  0  0  0  0
  -28.7531  -25.1906   22.2277 C   0  0  0  0  0  0
  -30.2282  -17.3706   21.1025 C   0  0  0  0  0  0
  -28.1641  -25.0001   20.8200 C   0  0  2  0  0  0
  -30.2693  -18.0175   17.9834 C   0  0  0  0  0  0
  -29.3857  -19.9585   21.0758 N   0  0  0  0  0  0
  -28.8153  -22.4401   20.7616 N   0  0  0  0  0  0
  -29.8248  -15.9385   20.6899 N   0  0  0  0  0  0
  -29.2662  -23.8247   18.9873 O   0  0  0  0  0  0
  -31.4856  -17.5529   18.2632 F   0  0  0  0  0  0
  -29.4473  -16.9756   17.8693 F   0  0  0  0  0  0
  -30.3372  -18.5970   16.7867 F   0  0  0  0  0  0
  -29.4002  -20.6384   18.5985 S   0  0  0  0  0  0
  -31.4759  -12.6460   19.1575 H   0  0  0  0  0  0
  -30.4044  -11.5248   19.9567 H   0  0  0  0  0  0
  -29.8055  -11.7436   17.5222 H   0  0  0  0  0  0
  -29.6410  -13.4768   17.7099 H   0  0  0  0  0  0
  -27.8900  -11.2954   18.8847 H   0  0  0  0  0  0
  -27.3889  -12.5461   17.7797 H   0  0  0  0  0  0
  -27.6143  -14.2592   19.4492 H   0  0  0  0  0  0
  -28.7188  -12.1922   21.4054 H   0  0  0  0  0  0
  -28.3969  -13.8678   21.7794 H   0  0  0  0  0  0
  -25.2779   -9.5651   22.4736 H   0  0  0  0  0  0
  -23.9992   -7.4628   22.7464 H   0  0  0  0  0  0
  -21.0816   -8.8766   19.8992 H   0  0  0  0  0  0
  -22.3701  -10.9631   19.6169 H   0  0  0  0  0  0
  -21.2004   -7.6129   23.9708 H   0  0  0  0  0  0
  -21.1497   -6.0517   25.9073 H   0  0  0  0  0  0
  -22.0587   -2.7583   23.2889 H   0  0  0  0  0  0
  -22.4049  -11.9934   22.4943 H   0  0  0  0  0  0
  -21.1045  -13.1219   22.2577 H   0  0  0  0  0  0
  -24.6391  -15.8413   20.5162 H   0  0  0  0  0  0
  -26.2485  -15.6406   20.0514 H   0  0  0  0  0  0
  -26.7250  -32.5438   23.1044 H   0  0  0  0  0  0
  -25.0234  -33.9670   25.0478 H   0  0  0  0  0  0
  -22.7306  -31.3015   21.3881 H   0  0  0  0  0  0
  -23.3743  -35.9602   23.3297 H   0  0  0  0  0  0
  -24.3571  -36.8887   22.2033 H   0  0  0  0  0  0
  -23.7236  -37.6489   23.6644 H   0  0  0  0  0  0
  -26.0945  -31.5234   20.5830 H   0  0  0  0  0  0
  -26.8617  -30.8426   21.9833 H   0  0  0  0  0  0
  -28.1363  -28.9405   21.1724 H   0  0  0  0  0  0
  -25.9817  -25.8649   19.0655 H   0  0  0  0  0  0
  -23.9707  -27.2786   19.0339 H   0  0  0  0  0  0
  -23.8025  -30.5854   19.4043 H   0  0  0  0  0  0
  -22.7716  -29.2557   19.8341 H   0  0  0  0  0  0
  -25.1283  -36.1895   25.0826 H   0  0  0  0  0  0
  -20.9965  -28.3364   24.1370 H   0  0  0  0  0  0
  -20.5714  -26.2393   23.3620 H   0  0  0  0  0  0
  -21.6669  -26.7543   22.1190 H   0  0  0  0  0  0
  -19.6953  -25.6318   21.1271 H   0  0  0  0  0  0
  -19.6701  -27.3203   20.6719 H   0  0  0  0  0  0
  -17.4219  -26.6685   21.4004 H   0  0  0  0  0  0
  -18.0343  -26.0115   22.9015 H   0  0  0  0  0  0
  -19.7955  -30.7255   24.2308 H   0  0  0  0  0  0
  -17.5066  -31.6305   24.5191 H   0  0  0  0  0  0
  -15.5375  -30.3081   23.7644 H   0  0  0  0  0  0
  -15.8662  -28.0888   22.7080 H   0  0  0  0  0  0
  -24.5961  -30.7037   25.7735 H   0  0  0  0  0  0
  -24.8939  -32.2895   26.4793 H   0  0  0  0  0  0
  -25.8112  -30.8929   27.0195 H   0  0  0  0  0  0
  -26.2924  -29.6741   24.1155 H   0  0  0  0  0  0
  -27.4047  -29.7228   25.4619 H   0  0  0  0  0  0
  -27.8793  -30.4232   23.9333 H   0  0  0  0  0  0
  -27.2682  -33.3618   26.2006 H   0  0  0  0  0  0
  -28.3919  -32.6859   25.0332 H   0  0  0  0  0  0
  -28.0706  -31.8463   26.5417 H   0  0  0  0  0  0
  -28.2604  -38.0074   24.7519 H   0  0  0  0  0  0
  -28.1044  -36.2625   24.6297 H   0  0  0  0  0  0
  -27.2289  -37.1447   25.8869 H   0  0  0  0  0  0
  -20.9437  -29.8839   21.6844 H   0  0  0  0  0  0
  -26.0138  -38.2838   24.1480 H   0  0  0  0  0  0
  -28.0824  -25.7772   22.8556 H   0  0  0  0  0  0
  -29.7051  -25.7207   22.1880 H   0  0  0  0  0  0
  -28.9351  -24.2452   22.7370 H   0  0  0  0  0  0
  -29.9795  -17.4433   22.1627 H   0  0  0  0  0  0
  -31.3193  -17.3861   21.1068 H   0  0  0  0  0  0
  -27.1050  -24.7699   20.9289 H   0  0  0  0  0  0
  -28.5078  -22.4715   21.7236 H   0  0  0  0  0  0
  -28.8318  -15.7634   20.7303 H   0  0  0  0  0  0
  1 25  1  0  0  0
  1 30  2  0  0  0
  1 81  1  0  0  0
  2  3  1  0  0  0
  2 25  1  0  0  0
  2 87  1  0  0  0
  2 88  1  0  0  0
  3  4  1  0  0  0
  3 89  1  0  0  0
  3 90  1  0  0  0
  4  5  1  0  0  0
  4 91  1  0  0  0
  4 92  1  0  0  0
  5  6  1  0  0  0
  5 26  1  0  0  0
  5 93  1  0  0  0
  6 25  1  0  0  0
  6 94  1  0  0  0
  6 95  1  0  0  0
  7  8  2  0  0  0
  7 26  1  0  0  0
  7 29  1  0  0  0
  8  9  1  0  0  0
  8 22  1  0  0  0
  9 10  1  0  0  0
  9 27  2  0  0  0
 10 11  2  0  0  0
 10 15  1  0  0  0
 11 12  1  0  0  0
 11 96  1  0  0  0
 12 13  2  0  0  0
 12 97  1  0  0  0
 13 14  1  0  0  0
 13 31  1  0  0  0
 14 15  2  0  0  0
 14 98  1  0  0  0
 15 99  1  0  0  0
 16 17  2  0  0  0
 16 21  1  0  0  0
 16 31  1  0  0  0
 17 18  1  0  0  0
 17100  1  0  0  0
 18 19  2  0  0  0
 18101  1  0  0  0
 19 20  1  0  0  0
 19 24  1  0  0  0
 20 21  2  0  0  0
 20102  1  0  0  0
 21 23  1  0  0  0
 22 28  1  0  0  0
 22 32  2  0  0  0
 26 27  1  0  0  0
 28103  1  0  0  0
 28104  1  0  0  0
 29105  1  0  0  0
 29106  1  0  0  0
 33 34  1  0  0  0
 33 66  1  0  0  0
 33 70  2  0  0  0
 34 36  1  0  0  0
 34 59  1  0  0  0
 34107  1  0  0  0
 35 44  2  0  0  0
 35 45  1  0  0  0
 35 68  1  0  0  0
 36 56  1  0  0  0
 36108  1  0  0  0
 37 39  1  0  0  0
 37 47  1  0  0  0
 37 66  1  0  0  0
 37109  1  0  0  0
 38 43  2  0  0  0
 38 46  1  0  0  0
 38 47  1  0  0  0
 39 64  1  0  0  0
 39 67  2  0  0  0
 40 52  1  0  0  0
 40 53  2  0  0  0
 40 58  1  0  0  0
 41110  1  0  0  0
 41111  1  0  0  0
 41112  1  0  0  0
 41 48  1  0  0  0
 42 43  1  0  0  0
 42 66  1  0  0  0
 42113  1  0  0  0
 42114  1  0  0  0
 43 44  1  0  0  0
 44115  1  0  0  0
 45 46  2  0  0  0
 45116  1  0  0  0
 46117  1  0  0  0
 47118  1  0  0  0
 47119  1  0  0  0
 48 56  1  0  0  0
 48 65  1  0  0  0
 48120  1  0  0  0
 49 50  1  0  0  0
 49 53  1  0  0  0
 49 64  1  0  0  0
 49121  1  0  0  0
 50 51  1  0  0  0
 50122  1  0  0  0
 50123  1  0  0  0
 51 52  1  0  0  0
 51124  1  0  0  0
 51125  1  0  0  0
 52126  1  0  0  0
 52127  1  0  0  0
 53 54  1  0  0  0
 54 55  2  0  0  0
 54128  1  0  0  0
 55 57  1  0  0  0
 55129  1  0  0  0
 56 69  2  0  0  0
 57 58  2  0  0  0
 57130  1  0  0  0
 58131  1  0  0  0
 59 60  1  0  0  0
 59 61  1  0  0  0
 59 62  1  0  0  0
 60132  1  0  0  0
 60133  1  0  0  0
 60134  1  0  0  0
 61135  1  0  0  0
 61136  1  0  0  0
 61137  1  0  0  0
 62138  1  0  0  0
 62139  1  0  0  0
 62140  1  0  0  0
 63 65  1  0  0  0
 63141  1  0  0  0
 63142  1  0  0  0
 63143  1  0  0  0
 64144  1  0  0  0
 65145  1  0  0  0
 68 77  1  0  0  0
 71 72  2  0  0  0
 71 76  1  0  0  0
 71 79  1  0  0  0
 72 78  1  0  0  0
 72 86  1  0  0  0
 73 79  2  0  0  0
 73 80  1  0  0  0
 73 86  1  0  0  0
 74 77  1  0  0  0
 74 80  1  0  0  0
 74 82  2  0  0  0
 75146  1  0  0  0
 75147  1  0  0  0
 75148  1  0  0  0
 75 77  1  0  0  0
 76 81  1  0  0  0
 76149  1  0  0  0
 76150  1  0  0  0
 77151  1  0  0  0
 78 83  1  0  0  0
 78 84  1  0  0  0
 78 85  1  0  0  0
 80152  1  0  0  0
 81153  1  0  0  0
M  ISO  4   1 100  68 101  77 101  81 100
M  END
> <chiral flag>
0

> <version>
0

> <s_m_source_file>
/data/baiqing/PycharmProjects/Reinvent-master-3.2/result/LINK_invent/BTK/process_docking_weight1_custom_product_contain_oxygen_bond_distance_aromatic_linkinvent_7_9_3/rearranged_h_0183.sdf

> <i_m_source_file_index>
45

> <r_mmod_Potential_Energy-OPLS-2005>
-10.1714534759521

> <r_mmod_Stretch_Energy-OPLS-2005>
138.858764648438

> <r_mmod_Bend_Energy-OPLS-2005>
178.762283325195

> <r_mmod_Torsional_Energy-OPLS-2005>
235.580307006836

> <r_mmod_Improper_Torsional_Energy-OPLS-2005>
5.14026737213135

> <r_mmod_Van_der_Waal_Energy-OPLS-2005>
107.976860046387

> <r_mmod_Electrostatic_Energy-OPLS-2005>
-540.815002441406

> <r_mmod_Solvation_Energy-OPLS-2005>
-237.009552001953

> <b_mmod_Minimization_Converged-OPLS-2005>
0

> <r_mmod_RMS_Derivative-OPLS-2005>
4.36739540100098

$$$$
45
                    3D
 Structure written by MMmdl.
160168  0  0  1  0            999 V2000
  -30.6466  -14.5675   20.5263 C   0  0  0  0  0  0
  -30.4287  -12.3344   19.4432 C   0  0  0  0  0  0
  -29.4939  -12.4974   18.2244 C   0  0  0  0  0  0
  -28.0157  -12.3490   18.6402 C   0  0  0  0  0  0
  -27.6502  -13.2156   19.8729 C   0  0  2  0  0  0
  -28.6818  -13.0374   21.0037 C   0  0  0  0  0  0
  -25.2521  -13.8226   20.5691 C   0  0  0  0  0  0
  -24.1788  -13.0508   20.9201 C   0  0  0  0  0  0
  -24.6355  -11.6961   20.8764 C   0  0  0  0  0  0
  -23.9048  -10.4333   21.0425 C   0  0  0  0  0  0
  -24.3616   -9.4240   21.9191 C   0  0  0  0  0  0
  -23.6302   -8.2270   22.0746 C   0  0  0  0  0  0
  -22.4283   -8.0299   21.3542 C   0  0  0  0  0  0
  -21.9922   -9.0278   20.4641 C   0  0  0  0  0  0
  -22.7236  -10.2164   20.3064 C   0  0  0  0  0  0
  -21.6856   -6.0746   22.5276 C   0  0  0  0  0  0
  -21.4012   -6.5640   23.8214 C   0  0  0  0  0  0
  -21.3660   -5.6788   24.9171 C   0  0  0  0  0  0
  -21.6052   -4.3054   24.7221 C   0  0  0  0  0  0
  -21.8824   -3.8152   23.4342 C   0  0  0  0  0  0
  -21.9189   -4.6968   22.3397 C   0  0  0  0  0  0
  -22.7795  -13.5254   21.1897 C   0  0  0  0  0  0
  -22.1652   -4.2156   21.0974 F   0  0  0  0  0  0
  -21.5635   -3.4536   25.7734 F   0  0  0  0  0  0
  -30.0084  -13.3179   20.4479 N   0  0  0  0  0  0
  -26.2941  -12.9401   20.3355 N   0  0  0  0  0  0
  -25.9270  -11.6563   20.5789 N   0  0  0  0  0  0
  -22.0465  -12.8217   22.0443 N   0  0  0  0  0  0
  -25.4376  -15.1954   20.4058 N   0  0  0  0  0  0
  -31.7947  -14.7854   20.1335 O   0  0  0  0  0  0
  -21.6652   -6.8896   21.4242 O   0  0  0  0  0  0
  -22.3446  -14.5565   20.6747 O   0  0  0  0  0  0
  -24.6224  -31.8608   23.2037 C   0  0  0  0  0  0
  -25.9076  -32.4778   23.8357 C   0  0  1  0  0  0
  -27.2283  -27.3484   20.1166 C   0  0  0  0  0  0
  -25.5894  -33.8583   24.2280 N   0  0  0  0  0  0
  -23.4190  -30.4755   21.5500 C   0  0  2  0  0  0
  -24.8602  -28.9252   20.1197 C   0  0  0  0  0  0
  -22.7492  -29.4563   22.4994 C   0  0  0  0  0  0
  -18.0277  -28.1385   22.8443 C   0  0  0  0  0  0
  -24.1498  -36.7314   23.2633 C   0  0  0  0  0  0
  -25.9495  -30.7976   21.3653 C   0  0  0  0  0  0
  -26.0239  -29.4204   20.7212 C   0  0  0  0  0  0
  -27.2144  -28.6439   20.7016 C   0  0  0  0  0  0
  -26.0457  -26.8839   19.5069 C   0  0  0  0  0  0
  -24.8694  -27.6608   19.5035 C   0  0  0  0  0  0
  -23.6323  -29.8075   20.1634 C   0  0  0  0  0  0
  -25.4108  -36.3076   24.0320 C   0  0  1  0  0  0
  -20.5876  -28.3659   23.1288 C   0  0  2  0  0  0
  -20.6772  -26.9378   22.5417 C   0  0  0  0  0  0
  -19.5750  -26.6366   21.5215 C   0  0  0  0  0  0
  -18.1917  -26.7927   22.1605 C   0  0  0  0  0  0
  -19.1531  -28.8835   23.2860 C   0  0  0  0  0  0
  -18.9464  -30.1440   23.8878 C   0  0  0  0  0  0
  -17.6462  -30.6561   24.0544 C   0  0  0  0  0  0
  -25.9036  -34.9441   23.5102 C   0  0  0  0  0  0
  -16.5351  -29.9077   23.6311 C   0  0  0  0  0  0
  -16.7266  -28.6520   23.0288 C   0  0  0  0  0  0
  -26.4483  -31.6595   25.0718 C   0  0  0  0  0  0
  -25.3762  -31.3713   26.1487 C   0  0  0  0  0  0
  -27.0301  -30.3034   24.6072 C   0  0  0  0  0  0
  -27.6032  -32.4335   25.7508 C   0  0  0  0  0  0
  -27.5584  -37.1807   24.8457 C   0  0  0  0  0  0
  -21.4192  -29.3046   22.3756 N   0  0  0  0  0  0
  -26.4304  -37.3750   23.9398 N   0  0  0  0  0  0
  -24.6828  -31.0624   22.0982 N   0  0  0  0  0  0
  -23.4206  -28.8063   23.3046 O   0  0  0  0  0  0
  -28.4009  -26.6048   20.0605 O   0  0  0  0  0  0
  -26.5596  -34.8910   22.4658 O   0  0  0  0  0  0
  -23.5400  -32.1386   23.7370 O   0  0  0  0  0  0
  -29.5387  -18.0336   20.2796 C   0  0  0  0  0  0
  -29.3148  -18.0072   18.9138 C   0  0  0  0  0  0
  -28.7722  -20.2069   19.9232 C   0  0  0  0  0  0
  -28.8088  -22.6880   19.6961 C   0  0  0  0  0  0
  -29.1526  -24.0874   22.8226 C   0  0  0  0  0  0
  -26.8447  -25.0438   22.5487 C   0  0  0  0  0  0
  -30.1924  -16.9365   21.1498 C   0  0  0  0  0  0
  -27.9515  -24.0014   19.7220 C   0  0  2  0  0  0
  -28.3134  -25.1675   22.1116 C   0  0  0  0  0  0
  -28.5182  -25.2261   20.5652 C   0  0  2  0  0  0
  -29.1780  -19.2974   20.8387 N   0  0  0  0  0  0
  -29.5361  -16.9725   18.0083 N   0  0  0  0  0  0
  -28.3263  -21.5375   20.2368 N   0  0  0  0  0  0
  -29.9314  -22.7245   19.1830 O   0  0  0  0  0  0
  -29.7725  -15.5632   20.9402 O   0  0  0  0  0  0
  -26.6922  -23.6888   20.0429 F   0  0  0  0  0  0
  -28.7070  -19.5348   18.3000 S   0  0  0  0  0  0
  -31.4671  -12.4820   19.1410 H   0  0  0  0  0  0
  -30.3642  -11.3257   19.8535 H   0  0  0  0  0  0
  -29.7373  -11.7628   17.4546 H   0  0  0  0  0  0
  -29.6496  -13.4788   17.7708 H   0  0  0  0  0  0
  -27.8369  -11.2951   18.8605 H   0  0  0  0  0  0
  -27.3622  -12.6003   17.8058 H   0  0  0  0  0  0
  -27.6869  -14.2569   19.5511 H   0  0  0  0  0  0
  -28.6549  -12.0211   21.3978 H   0  0  0  0  0  0
  -28.4503  -13.6940   21.8449 H   0  0  0  0  0  0
  -25.2777   -9.5703   22.4747 H   0  0  0  0  0  0
  -24.0017   -7.4650   22.7446 H   0  0  0  0  0  0
  -21.0864   -8.8808   19.8928 H   0  0  0  0  0  0
  -22.3720  -10.9708   19.6163 H   0  0  0  0  0  0
  -21.2009   -7.6149   23.9722 H   0  0  0  0  0  0
  -21.1470   -6.0514   25.9076 H   0  0  0  0  0  0
  -22.0603   -2.7614   23.2842 H   0  0  0  0  0  0
  -22.4083  -11.9828   22.4747 H   0  0  0  0  0  0
  -21.1102  -13.1212   22.2741 H   0  0  0  0  0  0
  -24.7031  -15.8844   20.5234 H   0  0  0  0  0  0
  -26.3091  -15.6019   20.0886 H   0  0  0  0  0  0
  -26.7140  -32.5419   23.1123 H   0  0  0  0  0  0
  -25.0035  -33.9741   25.0411 H   0  0  0  0  0  0
  -22.7130  -31.2950   21.4039 H   0  0  0  0  0  0
  -23.3730  -35.9689   23.3294 H   0  0  0  0  0  0
  -24.3591  -36.8936   22.2057 H   0  0  0  0  0  0
  -23.7328  -37.6527   23.6673 H   0  0  0  0  0  0
  -26.0605  -31.5483   20.5824 H   0  0  0  0  0  0
  -26.8416  -30.8599   21.9764 H   0  0  0  0  0  0
  -28.1276  -29.0212   21.1391 H   0  0  0  0  0  0
  -26.0328  -25.9254   19.0092 H   0  0  0  0  0  0
  -23.9852  -27.2876   19.0057 H   0  0  0  0  0  0
  -23.7567  -30.5849   19.4086 H   0  0  0  0  0  0
  -22.7539  -29.2370   19.8567 H   0  0  0  0  0  0
  -25.1308  -36.1939   25.0819 H   0  0  0  0  0  0
  -20.9912  -28.3239   24.1419 H   0  0  0  0  0  0
  -20.5695  -26.2251   23.3610 H   0  0  0  0  0  0
  -21.6638  -26.7421   22.1202 H   0  0  0  0  0  0
  -19.6918  -25.6284   21.1222 H   0  0  0  0  0  0
  -19.6720  -27.3192   20.6762 H   0  0  0  0  0  0
  -17.4193  -26.6634   21.4004 H   0  0  0  0  0  0
  -18.0300  -26.0117   22.9042 H   0  0  0  0  0  0
  -19.7951  -30.7233   24.2253 H   0  0  0  0  0  0
  -17.5021  -31.6237   24.5160 H   0  0  0  0  0  0
  -15.5338  -30.2956   23.7663 H   0  0  0  0  0  0
  -15.8672  -28.0855   22.6958 H   0  0  0  0  0  0
  -24.5916  -30.7065   25.7860 H   0  0  0  0  0  0
  -24.8972  -32.2871   26.4947 H   0  0  0  0  0  0
  -25.8133  -30.8905   27.0250 H   0  0  0  0  0  0
  -26.2808  -29.6839   24.1125 H   0  0  0  0  0  0
  -27.4050  -29.7229   25.4505 H   0  0  0  0  0  0
  -27.8668  -30.4330   23.9201 H   0  0  0  0  0  0
  -27.2589  -33.3615   26.2084 H   0  0  0  0  0  0
  -28.3847  -32.6927   25.0357 H   0  0  0  0  0  0
  -28.0690  -31.8479   26.5440 H   0  0  0  0  0  0
  -28.2565  -38.0131   24.7459 H   0  0  0  0  0  0
  -28.1106  -36.2641   24.6326 H   0  0  0  0  0  0
  -27.2285  -37.1497   25.8855 H   0  0  0  0  0  0
  -20.9369  -29.8794   21.6994 H   0  0  0  0  0  0
  -26.0179  -38.2819   24.1418 H   0  0  0  0  0  0
  -29.0380  -24.1757   23.9025 H   0  0  0  0  0  0
  -30.2183  -24.1810   22.6089 H   0  0  0  0  0  0
  -28.8411  -23.0748   22.5617 H   0  0  0  0  0  0
  -26.7141  -25.2873   23.6031 H   0  0  0  0  0  0
  -26.4925  -24.0203   22.4235 H   0  0  0  0  0  0
  -26.1860  -25.6915   21.9728 H   0  0  0  0  0  0
  -29.9776  -17.1382   22.1982 H   0  0  0  0  0  0
  -31.2782  -17.0061   21.0764 H   0  0  0  0  0  0
  -27.8846  -24.3163   18.6781 H   0  0  0  0  0  0
  -28.6788  -26.1239   22.4897 H   0  0  0  0  0  0
  -29.6004  -25.1209   20.4536 H   0  0  0  0  0  0
  -29.9552  -16.0830   18.2583 H   0  0  0  0  0  0
  -29.3813  -17.0626   17.0087 H   0  0  0  0  0  0
  -27.4438  -21.6102   20.7251 H   0  0  0  0  0  0
  1 25  1  0  0  0
  1 30  2  0  0  0
  1 85  1  0  0  0
  2  3  1  0  0  0
  2 25  1  0  0  0
  2 88  1  0  0  0
  2 89  1  0  0  0
  3  4  1  0  0  0
  3 90  1  0  0  0
  3 91  1  0  0  0
  4  5  1  0  0  0
  4 92  1  0  0  0
  4 93  1  0  0  0
  5  6  1  0  0  0
  5 26  1  0  0  0
  5 94  1  0  0  0
  6 25  1  0  0  0
  6 95  1  0  0  0
  6 96  1  0  0  0
  7  8  2  0  0  0
  7 26  1  0  0  0
  7 29  1  0  0  0
  8  9  1  0  0  0
  8 22  1  0  0  0
  9 10  1  0  0  0
  9 27  2  0  0  0
 10 11  2  0  0  0
 10 15  1  0  0  0
 11 12  1  0  0  0
 11 97  1  0  0  0
 12 13  2  0  0  0
 12 98  1  0  0  0
 13 14  1  0  0  0
 13 31  1  0  0  0
 14 15  2  0  0  0
 14 99  1  0  0  0
 15100  1  0  0  0
 16 17  2  0  0  0
 16 21  1  0  0  0
 16 31  1  0  0  0
 17 18  1  0  0  0
 17101  1  0  0  0
 18 19  2  0  0  0
 18102  1  0  0  0
 19 20  1  0  0  0
 19 24  1  0  0  0
 20 21  2  0  0  0
 20103  1  0  0  0
 21 23  1  0  0  0
 22 28  1  0  0  0
 22 32  2  0  0  0
 26 27  1  0  0  0
 28104  1  0  0  0
 28105  1  0  0  0
 29106  1  0  0  0
 29107  1  0  0  0
 33 34  1  0  0  0
 33 66  1  0  0  0
 33 70  2  0  0  0
 34 36  1  0  0  0
 34 59  1  0  0  0
 34108  1  0  0  0
 35 44  2  0  0  0
 35 45  1  0  0  0
 35 68  1  0  0  0
 36 56  1  0  0  0
 36109  1  0  0  0
 37 39  1  0  0  0
 37 47  1  0  0  0
 37 66  1  0  0  0
 37110  1  0  0  0
 38 43  2  0  0  0
 38 46  1  0  0  0
 38 47  1  0  0  0
 39 64  1  0  0  0
 39 67  2  0  0  0
 40 52  1  0  0  0
 40 53  2  0  0  0
 40 58  1  0  0  0
 41111  1  0  0  0
 41112  1  0  0  0
 41113  1  0  0  0
 41 48  1  0  0  0
 42 43  1  0  0  0
 42 66  1  0  0  0
 42114  1  0  0  0
 42115  1  0  0  0
 43 44  1  0  0  0
 44116  1  0  0  0
 45 46  2  0  0  0
 45117  1  0  0  0
 46118  1  0  0  0
 47119  1  0  0  0
 47120  1  0  0  0
 48 56  1  0  0  0
 48 65  1  0  0  0
 48121  1  0  0  0
 49 50  1  0  0  0
 49 53  1  0  0  0
 49 64  1  0  0  0
 49122  1  0  0  0
 50 51  1  0  0  0
 50123  1  0  0  0
 50124  1  0  0  0
 51 52  1  0  0  0
 51125  1  0  0  0
 51126  1  0  0  0
 52127  1  0  0  0
 52128  1  0  0  0
 53 54  1  0  0  0
 54 55  2  0  0  0
 54129  1  0  0  0
 55 57  1  0  0  0
 55130  1  0  0  0
 56 69  2  0  0  0
 57 58  2  0  0  0
 57131  1  0  0  0
 58132  1  0  0  0
 59 60  1  0  0  0
 59 61  1  0  0  0
 59 62  1  0  0  0
 60133  1  0  0  0
 60134  1  0  0  0
 60135  1  0  0  0
 61136  1  0  0  0
 61137  1  0  0  0
 61138  1  0  0  0
 62139  1  0  0  0
 62140  1  0  0  0
 62141  1  0  0  0
 63 65  1  0  0  0
 63142  1  0  0  0
 63143  1  0  0  0
 63144  1  0  0  0
 64145  1  0  0  0
 65146  1  0  0  0
 68 80  1  0  0  0
 71 72  2  0  0  0
 71 77  1  0  0  0
 71 81  1  0  0  0
 72 82  1  0  0  0
 72 87  1  0  0  0
 73 81  2  0  0  0
 73 83  1  0  0  0
 73 87  1  0  0  0
 74 78  1  0  0  0
 74 83  1  0  0  0
 74 84  2  0  0  0
 75147  1  0  0  0
 75148  1  0  0  0
 75149  1  0  0  0
 75 79  1  0  0  0
 76 79  1  0  0  0
 76150  1  0  0  0
 76151  1  0  0  0
 76152  1  0  0  0
 77 85  1  0  0  0
 77153  1  0  0  0
 77154  1  0  0  0
 78 80  1  0  0  0
 78 86  1  0  0  0
 78155  1  0  0  0
 79 80  1  0  0  0
 79156  1  0  0  0
 80157  1  0  0  0
 82158  1  0  0  0
 82159  1  0  0  0
 83160  1  0  0  0
M  ISO  4   1 100  68 101  80 101  85 100
M  END
> <chiral flag>
0

> <version>
0

> <s_m_source_file>
/data/baiqing/PycharmProjects/Reinvent-master-3.2/result/LINK_invent/BTK/process_docking_weight1_custom_product_contain_oxygen_bond_distance_aromatic_linkinvent_7_9_3/rearranged_h_0183.sdf

> <i_m_source_file_index>
46

> <r_mmod_Potential_Energy-OPLS-2005>
18.9779434204102

> <r_mmod_Stretch_Energy-OPLS-2005>
60.3990020751953

> <r_mmod_Bend_Energy-OPLS-2005>
147.243835449219

> <r_mmod_Torsional_Energy-OPLS-2005>
214.087936401367

> <r_mmod_Improper_Torsional_Energy-OPLS-2005>
5.03760051727295

> <r_mmod_Van_der_Waal_Energy-OPLS-2005>
110.049179077148

> <r_mmod_Electrostatic_Energy-OPLS-2005>
-334.094665527344

> <r_mmod_Solvation_Energy-OPLS-2005>
-211.689376831055

> <b_mmod_Minimization_Converged-OPLS-2005>
0

> <r_mmod_RMS_Derivative-OPLS-2005>
4.86492824554443

$$$$
46
                    3D
 Structure written by MMmdl.
152160  0  0  1  0            999 V2000
  -30.6524  -14.5972   20.4622 C   0  0  0  0  0  0
  -30.4266  -12.3552   19.4654 C   0  0  0  0  0  0
  -29.5086  -12.4902   18.2325 C   0  0  0  0  0  0
  -28.0325  -12.3379   18.6420 C   0  0  0  0  0  0
  -27.6533  -13.2197   19.8604 C   0  0  2  0  0  0
  -28.6923  -13.0929   20.9978 C   0  0  0  0  0  0
  -25.2569  -13.8177   20.5666 C   0  0  0  0  0  0
  -24.1837  -13.0437   20.9176 C   0  0  0  0  0  0
  -24.6399  -11.6903   20.8713 C   0  0  0  0  0  0
  -23.9066  -10.4289   21.0383 C   0  0  0  0  0  0
  -24.3596   -9.4196   21.9163 C   0  0  0  0  0  0
  -23.6283   -8.2231   22.0741 C   0  0  0  0  0  0
  -22.4253   -8.0278   21.3559 C   0  0  0  0  0  0
  -21.9894   -9.0239   20.4657 C   0  0  0  0  0  0
  -22.7219  -10.2124   20.3066 C   0  0  0  0  0  0
  -21.6849   -6.0729   22.5268 C   0  0  0  0  0  0
  -21.4018   -6.5623   23.8199 C   0  0  0  0  0  0
  -21.3658   -5.6766   24.9154 C   0  0  0  0  0  0
  -21.6046   -4.3026   24.7194 C   0  0  0  0  0  0
  -21.8824   -3.8145   23.4316 C   0  0  0  0  0  0
  -21.9182   -4.6961   22.3378 C   0  0  0  0  0  0
  -22.7879  -13.5245   21.1836 C   0  0  0  0  0  0
  -22.1637   -4.2158   21.0948 F   0  0  0  0  0  0
  -21.5635   -3.4512   25.7707 F   0  0  0  0  0  0
  -30.0157  -13.3896   20.4334 N   0  0  0  0  0  0
  -26.2994  -12.9369   20.3298 N   0  0  0  0  0  0
  -25.9331  -11.6519   20.5756 N   0  0  0  0  0  0
  -22.0507  -12.8274   22.0401 N   0  0  0  0  0  0
  -25.4275  -15.1898   20.4075 N   0  0  0  0  0  0
  -31.8293  -14.7124   20.1039 O   0  0  0  0  0  0
  -21.6632   -6.8865   21.4236 O   0  0  0  0  0  0
  -22.3576  -14.5567   20.6684 O   0  0  0  0  0  0
  -24.6223  -31.8613   23.2052 C   0  0  0  0  0  0
  -25.9087  -32.4779   23.8354 C   0  0  1  0  0  0
  -27.2240  -27.3584   20.0949 C   0  0  0  0  0  0
  -25.5924  -33.8579   24.2290 N   0  0  0  0  0  0
  -23.4116  -30.4861   21.5496 C   0  0  2  0  0  0
  -24.8532  -28.9441   20.1098 C   0  0  0  0  0  0
  -22.7455  -29.4620   22.4975 C   0  0  0  0  0  0
  -18.0277  -28.1395   22.8482 C   0  0  0  0  0  0
  -24.1478  -36.7296   23.2632 C   0  0  0  0  0  0
  -25.9482  -30.8034   21.3664 C   0  0  0  0  0  0
  -26.0194  -29.4332   20.7102 C   0  0  0  0  0  0
  -27.2047  -28.6479   20.6985 C   0  0  0  0  0  0
  -26.0284  -26.8963   19.5004 C   0  0  0  0  0  0
  -24.8565  -27.6779   19.5021 C   0  0  0  0  0  0
  -23.6199  -29.8227   20.1629 C   0  0  0  0  0  0
  -25.4093  -36.3080   24.0345 C   0  0  1  0  0  0
  -20.5874  -28.3677   23.1316 C   0  0  2  0  0  0
  -20.6768  -26.9403   22.5433 C   0  0  0  0  0  0
  -19.5746  -26.6390   21.5221 C   0  0  0  0  0  0
  -18.1918  -26.7939   22.1615 C   0  0  0  0  0  0
  -19.1525  -28.8855   23.2892 C   0  0  0  0  0  0
  -18.9447  -30.1464   23.8906 C   0  0  0  0  0  0
  -17.6443  -30.6591   24.0571 C   0  0  0  0  0  0
  -25.9047  -34.9457   23.5118 C   0  0  0  0  0  0
  -16.5340  -29.9088   23.6327 C   0  0  0  0  0  0
  -16.7265  -28.6514   23.0336 C   0  0  0  0  0  0
  -26.4485  -31.6587   25.0714 C   0  0  0  0  0  0
  -25.3751  -31.3747   26.1486 C   0  0  0  0  0  0
  -27.0287  -30.3001   24.6130 C   0  0  0  0  0  0
  -27.6065  -32.4326   25.7463 C   0  0  0  0  0  0
  -27.5601  -37.1758   24.8437 C   0  0  0  0  0  0
  -21.4171  -29.3030   22.3724 N   0  0  0  0  0  0
  -26.4260  -37.3789   23.9457 N   0  0  0  0  0  0
  -24.6796  -31.0663   22.0981 N   0  0  0  0  0  0
  -23.4204  -28.8158   23.3030 O   0  0  0  0  0  0
  -28.3813  -26.5813   20.1401 O   0  0  0  0  0  0
  -26.5610  -34.8940   22.4678 O   0  0  0  0  0  0
  -23.5405  -32.1408   23.7419 O   0  0  0  0  0  0
  -29.8369  -18.4907   17.9939 C   0  0  0  0  0  0
  -29.4938  -19.0753   19.2028 C   0  0  0  0  0  0
  -29.8725  -16.8846   19.8810 C   0  0  0  0  0  0
  -29.9159  -19.0265   16.6390 C   0  0  0  0  0  0
  -28.8260  -22.7901   19.4789 C   0  0  0  0  0  0
  -28.4641  -23.9798   20.0612 C   0  0  0  0  0  0
  -28.8164  -21.4357   20.0981 C   0  0  0  0  0  0
  -28.5321  -25.3619   19.3440 C   0  0  0  0  0  0
  -29.4704  -18.1270   20.2751 N   0  0  0  0  0  0
  -29.2139  -19.9630   16.1535 N   0  0  0  0  0  0
  -29.2521  -20.5058   19.2107 N   0  0  0  0  0  0
  -29.8927  -15.7026   20.7152 N   0  0  0  0  0  0
  -28.4565  -21.1723   21.2500 O   0  0  0  0  0  0
  -28.0200  -24.1138   21.3246 O   0  0  0  0  0  0
  -29.2366  -22.8677   18.1984 F   0  0  0  0  0  0
  -30.2542  -16.8074   18.1656 S   0  0  0  0  0  0
  -31.4719  -12.4512   19.1650 H   0  0  0  0  0  0
  -30.3368  -11.3634   19.9107 H   0  0  0  0  0  0
  -29.7641  -11.7368   17.4869 H   0  0  0  0  0  0
  -29.6645  -13.4606   17.7565 H   0  0  0  0  0  0
  -27.8693  -11.2875   18.8801 H   0  0  0  0  0  0
  -27.3847  -12.5615   17.7946 H   0  0  0  0  0  0
  -27.6714  -14.2499   19.5037 H   0  0  0  0  0  0
  -28.6841  -12.0894   21.4221 H   0  0  0  0  0  0
  -28.4458  -13.7678   21.8181 H   0  0  0  0  0  0
  -25.2738   -9.5657   22.4745 H   0  0  0  0  0  0
  -24.0000   -7.4635   22.7454 H   0  0  0  0  0  0
  -21.0815   -8.8736   19.8976 H   0  0  0  0  0  0
  -22.3650  -10.9651   19.6180 H   0  0  0  0  0  0
  -21.2030   -7.6128   23.9703 H   0  0  0  0  0  0
  -21.1476   -6.0486   25.9052 H   0  0  0  0  0  0
  -22.0626   -2.7616   23.2801 H   0  0  0  0  0  0
  -22.4096  -11.9932   22.4797 H   0  0  0  0  0  0
  -21.1154  -13.1374   22.2627 H   0  0  0  0  0  0
  -24.6578  -15.8422   20.5136 H   0  0  0  0  0  0
  -26.2696  -15.6326   20.0641 H   0  0  0  0  0  0
  -26.7153  -32.5444   23.1106 H   0  0  0  0  0  0
  -25.0086  -33.9712   25.0445 H   0  0  0  0  0  0
  -22.7035  -31.3057   21.4128 H   0  0  0  0  0  0
  -23.3764  -35.9592   23.3202 H   0  0  0  0  0  0
  -24.3611  -36.9004   22.2069 H   0  0  0  0  0  0
  -23.7194  -37.6462   23.6700 H   0  0  0  0  0  0
  -26.0752  -31.5658   20.5978 H   0  0  0  0  0  0
  -26.8328  -30.8538   21.9893 H   0  0  0  0  0  0
  -28.1033  -29.0212   21.1683 H   0  0  0  0  0  0
  -25.9618  -25.9150   19.0573 H   0  0  0  0  0  0
  -23.9587  -27.2872   19.0442 H   0  0  0  0  0  0
  -23.7375  -30.6018   19.4092 H   0  0  0  0  0  0
  -22.7370  -29.2558   19.8613 H   0  0  0  0  0  0
  -25.1241  -36.1917   25.0831 H   0  0  0  0  0  0
  -20.9963  -28.3253   24.1433 H   0  0  0  0  0  0
  -20.5657  -26.2274   23.3616 H   0  0  0  0  0  0
  -21.6641  -26.7441   22.1231 H   0  0  0  0  0  0
  -19.6900  -25.6303   21.1238 H   0  0  0  0  0  0
  -19.6693  -27.3211   20.6756 H   0  0  0  0  0  0
  -17.4191  -26.6710   21.4017 H   0  0  0  0  0  0
  -18.0295  -26.0099   22.9017 H   0  0  0  0  0  0
  -19.7920  -30.7279   24.2287 H   0  0  0  0  0  0
  -17.4994  -31.6275   24.5173 H   0  0  0  0  0  0
  -15.5335  -30.2978   23.7675 H   0  0  0  0  0  0
  -15.8675  -28.0848   22.7029 H   0  0  0  0  0  0
  -24.5919  -30.7063   25.7885 H   0  0  0  0  0  0
  -24.8937  -32.2915   26.4904 H   0  0  0  0  0  0
  -25.8127  -30.8978   27.0269 H   0  0  0  0  0  0
  -26.2815  -29.6786   24.1175 H   0  0  0  0  0  0
  -27.4012  -29.7231   25.4609 H   0  0  0  0  0  0
  -27.8686  -30.4278   23.9297 H   0  0  0  0  0  0
  -27.2666  -33.3615   26.2069 H   0  0  0  0  0  0
  -28.3845  -32.6923   25.0266 H   0  0  0  0  0  0
  -28.0766  -31.8441   26.5359 H   0  0  0  0  0  0
  -28.2514  -38.0156   24.7642 H   0  0  0  0  0  0
  -28.1199  -36.2713   24.6016 H   0  0  0  0  0  0
  -27.2374  -37.1130   25.8843 H   0  0  0  0  0  0
  -20.9344  -29.8734   21.6931 H   0  0  0  0  0  0
  -26.0135  -38.2833   24.1571 H   0  0  0  0  0  0
  -30.6645  -18.5530   15.9991 H   0  0  0  0  0  0
  -27.8994  -25.3481   18.4565 H   0  0  0  0  0  0
  -29.5437  -25.4257   18.9397 H   0  0  0  0  0  0
  -28.5133  -20.3192   16.7903 H   0  0  0  0  0  0
  -29.4768  -20.9623   18.3358 H   0  0  0  0  0  0
  -29.0594  -15.5526   21.2617 H   0  0  0  0  0  0
  -28.0030  -23.2481   21.7189 H   0  0  0  0  0  0
  1 25  1  0  0  0
  1 30  2  0  0  0
  1 82  1  0  0  0
  2  3  1  0  0  0
  2 25  1  0  0  0
  2 87  1  0  0  0
  2 88  1  0  0  0
  3  4  1  0  0  0
  3 89  1  0  0  0
  3 90  1  0  0  0
  4  5  1  0  0  0
  4 91  1  0  0  0
  4 92  1  0  0  0
  5  6  1  0  0  0
  5 26  1  0  0  0
  5 93  1  0  0  0
  6 25  1  0  0  0
  6 94  1  0  0  0
  6 95  1  0  0  0
  7  8  2  0  0  0
  7 26  1  0  0  0
  7 29  1  0  0  0
  8  9  1  0  0  0
  8 22  1  0  0  0
  9 10  1  0  0  0
  9 27  2  0  0  0
 10 11  2  0  0  0
 10 15  1  0  0  0
 11 12  1  0  0  0
 11 96  1  0  0  0
 12 13  2  0  0  0
 12 97  1  0  0  0
 13 14  1  0  0  0
 13 31  1  0  0  0
 14 15  2  0  0  0
 14 98  1  0  0  0
 15 99  1  0  0  0
 16 17  2  0  0  0
 16 21  1  0  0  0
 16 31  1  0  0  0
 17 18  1  0  0  0
 17100  1  0  0  0
 18 19  2  0  0  0
 18101  1  0  0  0
 19 20  1  0  0  0
 19 24  1  0  0  0
 20 21  2  0  0  0
 20102  1  0  0  0
 21 23  1  0  0  0
 22 28  1  0  0  0
 22 32  2  0  0  0
 26 27  1  0  0  0
 28103  1  0  0  0
 28104  1  0  0  0
 29105  1  0  0  0
 29106  1  0  0  0
 33 34  1  0  0  0
 33 66  1  0  0  0
 33 70  2  0  0  0
 34 36  1  0  0  0
 34 59  1  0  0  0
 34107  1  0  0  0
 35 44  2  0  0  0
 35 45  1  0  0  0
 35 68  1  0  0  0
 36 56  1  0  0  0
 36108  1  0  0  0
 37 39  1  0  0  0
 37 47  1  0  0  0
 37 66  1  0  0  0
 37109  1  0  0  0
 38 43  2  0  0  0
 38 46  1  0  0  0
 38 47  1  0  0  0
 39 64  1  0  0  0
 39 67  2  0  0  0
 40 52  1  0  0  0
 40 53  2  0  0  0
 40 58  1  0  0  0
 41110  1  0  0  0
 41111  1  0  0  0
 41112  1  0  0  0
 41 48  1  0  0  0
 42 43  1  0  0  0
 42 66  1  0  0  0
 42113  1  0  0  0
 42114  1  0  0  0
 43 44  1  0  0  0
 44115  1  0  0  0
 45 46  2  0  0  0
 45116  1  0  0  0
 46117  1  0  0  0
 47118  1  0  0  0
 47119  1  0  0  0
 48 56  1  0  0  0
 48 65  1  0  0  0
 48120  1  0  0  0
 49 50  1  0  0  0
 49 53  1  0  0  0
 49 64  1  0  0  0
 49121  1  0  0  0
 50 51  1  0  0  0
 50122  1  0  0  0
 50123  1  0  0  0
 51 52  1  0  0  0
 51124  1  0  0  0
 51125  1  0  0  0
 52126  1  0  0  0
 52127  1  0  0  0
 53 54  1  0  0  0
 54 55  2  0  0  0
 54128  1  0  0  0
 55 57  1  0  0  0
 55129  1  0  0  0
 56 69  2  0  0  0
 57 58  2  0  0  0
 57130  1  0  0  0
 58131  1  0  0  0
 59 60  1  0  0  0
 59 61  1  0  0  0
 59 62  1  0  0  0
 60132  1  0  0  0
 60133  1  0  0  0
 60134  1  0  0  0
 61135  1  0  0  0
 61136  1  0  0  0
 61137  1  0  0  0
 62138  1  0  0  0
 62139  1  0  0  0
 62140  1  0  0  0
 63 65  1  0  0  0
 63141  1  0  0  0
 63142  1  0  0  0
 63143  1  0  0  0
 64144  1  0  0  0
 65145  1  0  0  0
 68 78  1  0  0  0
 71 72  2  0  0  0
 71 74  1  0  0  0
 71 86  1  0  0  0
 72 79  1  0  0  0
 72 81  1  0  0  0
 73 79  2  0  0  0
 73 82  1  0  0  0
 73 86  1  0  0  0
 74 80  2  0  0  0
 74146  1  0  0  0
 75 76  2  0  0  0
 75 77  1  0  0  0
 75 85  1  0  0  0
 76 78  1  0  0  0
 76 84  1  0  0  0
 77 81  1  0  0  0
 77 83  2  0  0  0
 78147  1  0  0  0
 78148  1  0  0  0
 80149  1  0  0  0
 81150  1  0  0  0
 82151  1  0  0  0
 84152  1  0  0  0
M  ISO  4   1 100  68 101  78 101  82 100
M  END
> <chiral flag>
0

> <version>
0

> <s_m_source_file>
/data/baiqing/PycharmProjects/Reinvent-master-3.2/result/LINK_invent/BTK/process_docking_weight1_custom_product_contain_oxygen_bond_distance_aromatic_linkinvent_7_9_3/rearranged_h_0183.sdf

> <i_m_source_file_index>
47

> <r_mmod_Potential_Energy-OPLS-2005>
-26.6596450805664

> <r_mmod_Stretch_Energy-OPLS-2005>
60.8274574279785

> <r_mmod_Bend_Energy-OPLS-2005>
157.664993286133

> <r_mmod_Torsional_Energy-OPLS-2005>
218.249221801758

> <r_mmod_Improper_Torsional_Energy-OPLS-2005>
6.28774261474609

> <r_mmod_Van_der_Waal_Energy-OPLS-2005>
127.862564086914

> <r_mmod_Electrostatic_Energy-OPLS-2005>
-379.600830078125

> <r_mmod_Solvation_Energy-OPLS-2005>
-253.943649291992

> <b_mmod_Minimization_Converged-OPLS-2005>
0

> <r_mmod_RMS_Derivative-OPLS-2005>
3.00037407875061

$$$$
47
                    3D
 Structure written by MMmdl.
154162  0  0  1  0            999 V2000
  -30.5041  -14.9770   20.4243 C   0  0  0  0  0  0
  -30.4520  -12.6064   19.4975 C   0  0  0  0  0  0
  -29.5265  -12.5364   18.2583 C   0  0  0  0  0  0
  -28.0598  -12.3144   18.6762 C   0  0  0  0  0  0
  -27.6320  -13.2443   19.8409 C   0  0  2  0  0  0
  -28.6761  -13.2616   20.9786 C   0  0  0  0  0  0
  -25.2436  -13.8160   20.5649 C   0  0  0  0  0  0
  -24.1770  -13.0396   20.9209 C   0  0  0  0  0  0
  -24.6401  -11.6891   20.8754 C   0  0  0  0  0  0
  -23.9082  -10.4269   21.0411 C   0  0  0  0  0  0
  -24.3626   -9.4186   21.9190 C   0  0  0  0  0  0
  -23.6293   -8.2228   22.0758 C   0  0  0  0  0  0
  -22.4275   -8.0272   21.3547 C   0  0  0  0  0  0
  -21.9917   -9.0247   20.4648 C   0  0  0  0  0  0
  -22.7254  -10.2119   20.3058 C   0  0  0  0  0  0
  -21.6850   -6.0732   22.5278 C   0  0  0  0  0  0
  -21.4013   -6.5636   23.8210 C   0  0  0  0  0  0
  -21.3657   -5.6789   24.9173 C   0  0  0  0  0  0
  -21.6045   -4.3052   24.7224 C   0  0  0  0  0  0
  -21.8818   -3.8142   23.4346 C   0  0  0  0  0  0
  -21.9191   -4.6960   22.3401 C   0  0  0  0  0  0
  -22.7790  -13.5179   21.1871 C   0  0  0  0  0  0
  -22.1661   -4.2144   21.0980 F   0  0  0  0  0  0
  -21.5629   -3.4536   25.7738 F   0  0  0  0  0  0
  -29.9511  -13.6941   20.3870 N   0  0  0  0  0  0
  -26.2895  -12.9413   20.3245 N   0  0  0  0  0  0
  -25.9339  -11.6547   20.5756 N   0  0  0  0  0  0
  -22.0449  -12.8174   22.0437 N   0  0  0  0  0  0
  -25.3979  -15.1874   20.4006 N   0  0  0  0  0  0
  -31.7030  -15.0797   20.1355 O   0  0  0  0  0  0
  -21.6635   -6.8872   21.4242 O   0  0  0  0  0  0
  -22.3473  -14.5487   20.6722 O   0  0  0  0  0  0
  -24.6438  -31.8423   23.1853 C   0  0  0  0  0  0
  -25.9201  -32.4692   23.8256 C   0  0  1  0  0  0
  -27.2237  -27.1200   20.1705 C   0  0  0  0  0  0
  -25.5945  -33.8498   24.2181 N   0  0  0  0  0  0
  -23.4493  -30.4586   21.5315 C   0  0  2  0  0  0
  -24.9017  -28.8750   20.1181 C   0  0  0  0  0  0
  -22.7573  -29.4535   22.4862 C   0  0  0  0  0  0
  -18.0309  -28.1397   22.8482 C   0  0  0  0  0  0
  -24.1492  -36.7249   23.2645 C   0  0  0  0  0  0
  -26.0054  -30.7106   21.3868 C   0  0  0  0  0  0
  -26.0783  -29.3168   20.7373 C   0  0  0  0  0  0
  -27.2420  -28.4567   20.7427 C   0  0  0  0  0  0
  -26.0243  -26.7799   19.5118 C   0  0  0  0  0  0
  -24.8870  -27.6189   19.4911 C   0  0  0  0  0  0
  -23.6789  -29.7805   20.1539 C   0  0  0  0  0  0
  -25.4126  -36.3029   24.0318 C   0  0  1  0  0  0
  -20.5921  -28.3719   23.1238 C   0  0  2  0  0  0
  -20.6795  -26.9422   22.5405 C   0  0  0  0  0  0
  -19.5771  -26.6378   21.5214 C   0  0  0  0  0  0
  -18.1951  -26.7936   22.1622 C   0  0  0  0  0  0
  -19.1565  -28.8877   23.2853 C   0  0  0  0  0  0
  -18.9484  -30.1476   23.8874 C   0  0  0  0  0  0
  -17.6479  -30.6592   24.0564 C   0  0  0  0  0  0
  -25.9073  -34.9405   23.5060 C   0  0  0  0  0  0
  -16.5371  -29.9088   23.6337 C   0  0  0  0  0  0
  -16.7291  -28.6506   23.0359 C   0  0  0  0  0  0
  -26.4518  -31.6564   25.0700 C   0  0  0  0  0  0
  -25.3696  -31.3766   26.1392 C   0  0  0  0  0  0
  -27.0386  -30.2961   24.6277 C   0  0  0  0  0  0
  -27.6052  -32.4326   25.7487 C   0  0  0  0  0  0
  -27.5576  -37.1782   24.8469 C   0  0  0  0  0  0
  -21.4263  -29.3042   22.3612 N   0  0  0  0  0  0
  -26.4287  -37.3742   23.9409 N   0  0  0  0  0  0
  -24.7196  -31.0261   22.0900 N   0  0  0  0  0  0
  -23.4207  -28.8091   23.3025 O   0  0  0  0  0  0
  -28.2921  -26.1471   20.1476 O   0  0  0  0  0  0
  -26.5663  -34.8906   22.4639 O   0  0  0  0  0  0
  -23.5552  -32.1309   23.7059 O   0  0  0  0  0  0
  -30.3975  -19.9247   20.1505 C   0  0  0  0  0  0
  -29.1723  -20.6139   20.5039 C   0  0  0  0  0  0
  -29.6311  -17.6390   20.5472 C   0  0  0  0  0  0
  -28.4115  -18.3295   20.9230 C   0  0  0  0  0  0
  -28.5022  -23.2721   20.0889 C   0  0  0  0  0  0
  -27.0494  -24.6287   21.7840 C   0  0  0  0  0  0
  -26.1659  -18.2282   21.9670 C   0  0  0  0  0  0
  -28.2663  -24.7433   20.8480 C   0  0  2  0  0  0
  -30.6122  -18.5311   20.1527 N   0  0  0  0  0  0
  -28.2017  -19.7123   20.8810 N   0  0  0  0  0  0
  -29.0684  -22.1349   20.7353 N   0  0  0  0  0  0
  -29.6441  -16.0952   20.6150 N   0  0  0  0  0  0
  -27.3410  -17.5637   21.4086 N   0  0  0  0  0  0
  -28.1524  -23.1838   18.9093 O   0  0  0  0  0  0
  -31.4809  -12.7854   19.1811 H   0  0  0  0  0  0
  -30.4666  -11.6525   20.0274 H   0  0  0  0  0  0
  -29.8501  -11.7387   17.5883 H   0  0  0  0  0  0
  -29.6066  -13.4646   17.6905 H   0  0  0  0  0  0
  -27.9600  -11.2729   18.9841 H   0  0  0  0  0  0
  -27.3956  -12.4436   17.8210 H   0  0  0  0  0  0
  -27.5941  -14.2472   19.4149 H   0  0  0  0  0  0
  -28.7703  -12.2769   21.4385 H   0  0  0  0  0  0
  -28.3687  -13.9420   21.7745 H   0  0  0  0  0  0
  -25.2770   -9.5657   22.4767 H   0  0  0  0  0  0
  -23.9992   -7.4618   22.7482 H   0  0  0  0  0  0
  -21.0844   -8.8771   19.8955 H   0  0  0  0  0  0
  -22.3718  -10.9659   19.6165 H   0  0  0  0  0  0
  -21.2005   -7.6143   23.9713 H   0  0  0  0  0  0
  -21.1482   -6.0519   25.9076 H   0  0  0  0  0  0
  -22.0601   -2.7605   23.2846 H   0  0  0  0  0  0
  -22.4066  -11.9833   22.4817 H   0  0  0  0  0  0
  -21.1072  -13.1208   22.2663 H   0  0  0  0  0  0
  -24.6186  -15.8215   20.5320 H   0  0  0  0  0  0
  -26.2269  -15.6656   20.0726 H   0  0  0  0  0  0
  -26.7265  -32.5297   23.0982 H   0  0  0  0  0  0
  -25.0072  -33.9614   25.0314 H   0  0  0  0  0  0
  -22.7532  -31.2846   21.3717 H   0  0  0  0  0  0
  -23.3758  -35.9574   23.3292 H   0  0  0  0  0  0
  -24.3575  -36.8886   22.2060 H   0  0  0  0  0  0
  -23.7240  -37.6440   23.6685 H   0  0  0  0  0  0
  -26.1592  -31.4601   20.6095 H   0  0  0  0  0  0
  -26.8769  -30.7677   22.0273 H   0  0  0  0  0  0
  -28.1445  -28.7965   21.2309 H   0  0  0  0  0  0
  -25.9571  -25.8171   19.0253 H   0  0  0  0  0  0
  -23.9901  -27.2741   18.9947 H   0  0  0  0  0  0
  -23.8200  -30.5515   19.3955 H   0  0  0  0  0  0
  -22.7938  -29.2228   19.8425 H   0  0  0  0  0  0
  -25.1315  -36.1853   25.0810 H   0  0  0  0  0  0
  -21.0013  -28.3298   24.1357 H   0  0  0  0  0  0
  -20.5695  -26.2327   23.3622 H   0  0  0  0  0  0
  -21.6661  -26.7433   22.1200 H   0  0  0  0  0  0
  -19.6934  -25.6282   21.1259 H   0  0  0  0  0  0
  -19.6708  -27.3180   20.6741 H   0  0  0  0  0  0
  -17.4224  -26.6681   21.4025 H   0  0  0  0  0  0
  -18.0342  -26.0087   22.9027 H   0  0  0  0  0  0
  -19.7964  -30.7300   24.2223 H   0  0  0  0  0  0
  -17.5039  -31.6273   24.5165 H   0  0  0  0  0  0
  -15.5371  -30.2986   23.7681 H   0  0  0  0  0  0
  -15.8690  -28.0821   22.7083 H   0  0  0  0  0  0
  -24.5876  -30.7117   25.7701 H   0  0  0  0  0  0
  -24.8888  -32.2961   26.4745 H   0  0  0  0  0  0
  -25.7965  -30.8977   27.0214 H   0  0  0  0  0  0
  -26.3007  -29.6678   24.1276 H   0  0  0  0  0  0
  -27.4004  -29.7259   25.4841 H   0  0  0  0  0  0
  -27.8906  -30.4203   23.9591 H   0  0  0  0  0  0
  -27.2655  -33.3658   26.1986 H   0  0  0  0  0  0
  -28.3902  -32.6822   25.0340 H   0  0  0  0  0  0
  -28.0666  -31.8495   26.5464 H   0  0  0  0  0  0
  -28.2585  -38.0086   24.7511 H   0  0  0  0  0  0
  -28.1080  -36.2613   24.6301 H   0  0  0  0  0  0
  -27.2294  -37.1433   25.8873 H   0  0  0  0  0  0
  -20.9476  -29.8735   21.6773 H   0  0  0  0  0  0
  -26.0152  -38.2807   24.1412 H   0  0  0  0  0  0
  -31.2658  -20.5132   19.8910 H   0  0  0  0  0  0
  -27.0769  -23.7021   22.3591 H   0  0  0  0  0  0
  -26.1122  -24.6329   21.2292 H   0  0  0  0  0  0
  -27.0256  -25.4501   22.4997 H   0  0  0  0  0  0
  -25.4411  -17.4894   22.3122 H   0  0  0  0  0  0
  -25.6739  -18.8539   21.2204 H   0  0  0  0  0  0
  -26.4359  -18.8540   22.8195 H   0  0  0  0  0  0
  -29.1333  -24.8041   21.5067 H   0  0  0  0  0  0
  -29.4197  -22.3917   21.6468 H   0  0  0  0  0  0
  -28.7170  -15.7565   20.8050 H   0  0  0  0  0  0
  -27.5656  -16.6590   21.8050 H   0  0  0  0  0  0
  1 25  1  0  0  0
  1 30  2  0  0  0
  1 82  1  0  0  0
  2  3  1  0  0  0
  2 25  1  0  0  0
  2 85  1  0  0  0
  2 86  1  0  0  0
  3  4  1  0  0  0
  3 87  1  0  0  0
  3 88  1  0  0  0
  4  5  1  0  0  0
  4 89  1  0  0  0
  4 90  1  0  0  0
  5  6  1  0  0  0
  5 26  1  0  0  0
  5 91  1  0  0  0
  6 25  1  0  0  0
  6 92  1  0  0  0
  6 93  1  0  0  0
  7  8  2  0  0  0
  7 26  1  0  0  0
  7 29  1  0  0  0
  8  9  1  0  0  0
  8 22  1  0  0  0
  9 10  1  0  0  0
  9 27  2  0  0  0
 10 11  2  0  0  0
 10 15  1  0  0  0
 11 12  1  0  0  0
 11 94  1  0  0  0
 12 13  2  0  0  0
 12 95  1  0  0  0
 13 14  1  0  0  0
 13 31  1  0  0  0
 14 15  2  0  0  0
 14 96  1  0  0  0
 15 97  1  0  0  0
 16 17  2  0  0  0
 16 21  1  0  0  0
 16 31  1  0  0  0
 17 18  1  0  0  0
 17 98  1  0  0  0
 18 19  2  0  0  0
 18 99  1  0  0  0
 19 20  1  0  0  0
 19 24  1  0  0  0
 20 21  2  0  0  0
 20100  1  0  0  0
 21 23  1  0  0  0
 22 28  1  0  0  0
 22 32  2  0  0  0
 26 27  1  0  0  0
 28101  1  0  0  0
 28102  1  0  0  0
 29103  1  0  0  0
 29104  1  0  0  0
 33 34  1  0  0  0
 33 66  1  0  0  0
 33 70  2  0  0  0
 34 36  1  0  0  0
 34 59  1  0  0  0
 34105  1  0  0  0
 35 44  2  0  0  0
 35 45  1  0  0  0
 35 68  1  0  0  0
 36 56  1  0  0  0
 36106  1  0  0  0
 37 39  1  0  0  0
 37 47  1  0  0  0
 37 66  1  0  0  0
 37107  1  0  0  0
 38 43  2  0  0  0
 38 46  1  0  0  0
 38 47  1  0  0  0
 39 64  1  0  0  0
 39 67  2  0  0  0
 40 52  1  0  0  0
 40 53  2  0  0  0
 40 58  1  0  0  0
 41108  1  0  0  0
 41109  1  0  0  0
 41110  1  0  0  0
 41 48  1  0  0  0
 42 43  1  0  0  0
 42 66  1  0  0  0
 42111  1  0  0  0
 42112  1  0  0  0
 43 44  1  0  0  0
 44113  1  0  0  0
 45 46  2  0  0  0
 45114  1  0  0  0
 46115  1  0  0  0
 47116  1  0  0  0
 47117  1  0  0  0
 48 56  1  0  0  0
 48 65  1  0  0  0
 48118  1  0  0  0
 49 50  1  0  0  0
 49 53  1  0  0  0
 49 64  1  0  0  0
 49119  1  0  0  0
 50 51  1  0  0  0
 50120  1  0  0  0
 50121  1  0  0  0
 51 52  1  0  0  0
 51122  1  0  0  0
 51123  1  0  0  0
 52124  1  0  0  0
 52125  1  0  0  0
 53 54  1  0  0  0
 54 55  2  0  0  0
 54126  1  0  0  0
 55 57  1  0  0  0
 55127  1  0  0  0
 56 69  2  0  0  0
 57 58  2  0  0  0
 57128  1  0  0  0
 58129  1  0  0  0
 59 60  1  0  0  0
 59 61  1  0  0  0
 59 62  1  0  0  0
 60130  1  0  0  0
 60131  1  0  0  0
 60132  1  0  0  0
 61133  1  0  0  0
 61134  1  0  0  0
 61135  1  0  0  0
 62136  1  0  0  0
 62137  1  0  0  0
 62138  1  0  0  0
 63 65  1  0  0  0
 63139  1  0  0  0
 63140  1  0  0  0
 63141  1  0  0  0
 64142  1  0  0  0
 65143  1  0  0  0
 68 78  1  0  0  0
 71 72  2  0  0  0
 71 79  1  0  0  0
 71144  1  0  0  0
 72 80  1  0  0  0
 72 81  1  0  0  0
 73 74  1  0  0  0
 73 79  2  0  0  0
 73 82  1  0  0  0
 74 80  2  0  0  0
 74 83  1  0  0  0
 75 78  1  0  0  0
 75 81  1  0  0  0
 75 84  2  0  0  0
 76145  1  0  0  0
 76146  1  0  0  0
 76147  1  0  0  0
 76 78  1  0  0  0
 77 83  1  0  0  0
 77148  1  0  0  0
 77149  1  0  0  0
 77150  1  0  0  0
 78151  1  0  0  0
 81152  1  0  0  0
 82153  1  0  0  0
 83154  1  0  0  0
M  ISO  4   1 100  68 101  78 101  82 100
M  END
> <chiral flag>
0

> <version>
0

> <s_m_source_file>
/data/baiqing/PycharmProjects/Reinvent-master-3.2/result/LINK_invent/BTK/process_docking_weight1_custom_product_contain_oxygen_bond_distance_aromatic_linkinvent_7_9_3/rearranged_h_0183.sdf

> <i_m_source_file_index>
48

> <r_mmod_Potential_Energy-OPLS-2005>
431.980102539062

> <r_mmod_Stretch_Energy-OPLS-2005>
254.504211425781

> <r_mmod_Bend_Energy-OPLS-2005>
292.661834716797

> <r_mmod_Torsional_Energy-OPLS-2005>
265.391174316406

> <r_mmod_Improper_Torsional_Energy-OPLS-2005>
8.33068656921387

> <r_mmod_Van_der_Waal_Energy-OPLS-2005>
132.50146484375

> <r_mmod_Electrostatic_Energy-OPLS-2005>
-458.839019775391

> <r_mmod_Solvation_Energy-OPLS-2005>
-268.069763183594

> <b_mmod_Minimization_Converged-OPLS-2005>
0

> <r_mmod_RMS_Derivative-OPLS-2005>
0.884222447872162

$$$$
48
                    3D
 Structure written by MMmdl.
150158  0  0  1  0            999 V2000
  -30.4928  -14.9374   20.3898 C   0  0  0  0  0  0
  -30.4463  -12.5688   19.4943 C   0  0  0  0  0  0
  -29.5298  -12.5519   18.2456 C   0  0  0  0  0  0
  -28.0563  -12.3376   18.6472 C   0  0  0  0  0  0
  -27.6318  -13.2473   19.8338 C   0  0  2  0  0  0
  -28.6747  -13.2264   20.9724 C   0  0  0  0  0  0
  -25.2515  -13.8268   20.5668 C   0  0  0  0  0  0
  -24.1807  -13.0423   20.9166 C   0  0  0  0  0  0
  -24.6378  -11.6921   20.8666 C   0  0  0  0  0  0
  -23.9076  -10.4294   21.0375 C   0  0  0  0  0  0
  -24.3659   -9.4238   21.9190 C   0  0  0  0  0  0
  -23.6326   -8.2276   22.0727 C   0  0  0  0  0  0
  -22.4335   -8.0302   21.3500 C   0  0  0  0  0  0
  -21.9952   -9.0242   20.4630 C   0  0  0  0  0  0
  -22.7235  -10.2141   20.3028 C   0  0  0  0  0  0
  -21.6845   -6.0747   22.5250 C   0  0  0  0  0  0
  -21.4009   -6.5629   23.8195 C   0  0  0  0  0  0
  -21.3671   -5.6761   24.9148 C   0  0  0  0  0  0
  -21.6095   -4.3044   24.7214 C   0  0  0  0  0  0
  -21.8798   -3.8134   23.4324 C   0  0  0  0  0  0
  -21.9196   -4.6955   22.3389 C   0  0  0  0  0  0
  -22.7842  -13.5226   21.1825 C   0  0  0  0  0  0
  -22.1658   -4.2167   21.0943 F   0  0  0  0  0  0
  -21.5676   -3.4495   25.7725 F   0  0  0  0  0  0
  -29.9559  -13.6503   20.3929 N   0  0  0  0  0  0
  -26.2883  -12.9455   20.3173 N   0  0  0  0  0  0
  -25.9341  -11.6591   20.5686 N   0  0  0  0  0  0
  -22.0427  -12.8230   22.0382 N   0  0  0  0  0  0
  -25.4197  -15.1969   20.4060 N   0  0  0  0  0  0
  -31.6850  -15.0520   20.0865 O   0  0  0  0  0  0
  -21.6657   -6.8914   21.4225 O   0  0  0  0  0  0
  -22.3546  -14.5458   20.6587 O   0  0  0  0  0  0
  -24.6466  -31.8460   23.1812 C   0  0  0  0  0  0
  -25.9233  -32.4692   23.8202 C   0  0  1  0  0  0
  -27.1913  -27.1083   20.1702 C   0  0  0  0  0  0
  -25.5985  -33.8488   24.2122 N   0  0  0  0  0  0
  -23.4461  -30.4668   21.5286 C   0  0  2  0  0  0
  -24.8859  -28.8771   20.1171 C   0  0  0  0  0  0
  -22.7542  -29.4568   22.4786 C   0  0  0  0  0  0
  -18.0319  -28.1439   22.8529 C   0  0  0  0  0  0
  -24.1510  -36.7264   23.2632 C   0  0  0  0  0  0
  -26.0007  -30.7049   21.3807 C   0  0  0  0  0  0
  -26.0684  -29.3112   20.7323 C   0  0  0  0  0  0
  -27.2259  -28.4445   20.7356 C   0  0  0  0  0  0
  -25.9877  -26.7695   19.5201 C   0  0  0  0  0  0
  -24.8584  -27.6189   19.4963 C   0  0  0  0  0  0
  -23.6698  -29.7919   20.1534 C   0  0  0  0  0  0
  -25.4151  -36.3020   24.0284 C   0  0  1  0  0  0
  -20.5922  -28.3775   23.1260 C   0  0  2  0  0  0
  -20.6838  -26.9499   22.5416 C   0  0  0  0  0  0
  -19.5782  -26.6423   21.5263 C   0  0  0  0  0  0
  -18.1953  -26.7985   22.1654 C   0  0  0  0  0  0
  -19.1579  -28.8924   23.2882 C   0  0  0  0  0  0
  -18.9501  -30.1494   23.8934 C   0  0  0  0  0  0
  -17.6504  -30.6646   24.0594 C   0  0  0  0  0  0
  -25.9108  -34.9411   23.5022 C   0  0  0  0  0  0
  -16.5404  -29.9155   23.6368 C   0  0  0  0  0  0
  -16.7309  -28.6543   23.0412 C   0  0  0  0  0  0
  -26.4535  -31.6570   25.0678 C   0  0  0  0  0  0
  -25.3687  -31.3828   26.1354 C   0  0  0  0  0  0
  -27.0380  -30.2962   24.6297 C   0  0  0  0  0  0
  -27.6073  -32.4318   25.7518 C   0  0  0  0  0  0
  -27.5589  -37.1780   24.8439 C   0  0  0  0  0  0
  -21.4223  -29.3089   22.3583 N   0  0  0  0  0  0
  -26.4293  -37.3757   23.9391 N   0  0  0  0  0  0
  -24.7189  -31.0269   22.0867 N   0  0  0  0  0  0
  -23.4175  -28.8214   23.3014 O   0  0  0  0  0  0
  -28.2427  -26.1243   20.1624 O   0  0  0  0  0  0
  -26.5740  -34.8958   22.4639 O   0  0  0  0  0  0
  -23.5599  -32.1305   23.7089 O   0  0  0  0  0  0
  -29.0186  -20.2323   20.2480 C   0  0  0  0  0  0
  -29.1114  -19.5438   19.0223 C   0  0  0  0  0  0
  -29.6086  -17.5589   20.2995 C   0  0  0  0  0  0
  -28.6374  -21.6973   20.7769 C   0  0  0  0  0  0
  -28.4945  -24.8934   22.1605 C   0  0  0  0  0  0
  -28.6821  -23.2076   20.0714 C   0  0  0  0  0  0
  -28.0353  -24.6709   20.6999 C   0  0  2  0  0  0
  -29.4413  -18.1334   19.0776 N   0  0  0  0  0  0
  -28.8754  -20.0585   17.7313 N   0  0  0  0  0  0
  -29.6282  -16.0455   20.5818 N   0  0  0  0  0  0
  -28.3051  -21.7334   21.9671 O   0  0  0  0  0  0
  -29.3139  -18.9167   21.4872 S   0  0  0  0  0  0
  -31.4867  -12.7258   19.1947 H   0  0  0  0  0  0
  -30.4189  -11.6047   20.0096 H   0  0  0  0  0  0
  -29.8526  -11.7712   17.5552 H   0  0  0  0  0  0
  -29.6349  -13.4983   17.7101 H   0  0  0  0  0  0
  -27.9403  -11.2874   18.9220 H   0  0  0  0  0  0
  -27.4058  -12.5045   17.7888 H   0  0  0  0  0  0
  -27.6010  -14.2614   19.4304 H   0  0  0  0  0  0
  -28.7558  -12.2260   21.4052 H   0  0  0  0  0  0
  -28.3770  -13.8926   21.7831 H   0  0  0  0  0  0
  -25.2808   -9.5701   22.4768 H   0  0  0  0  0  0
  -24.0006   -7.4660   22.7468 H   0  0  0  0  0  0
  -21.0864   -8.8740   19.8987 H   0  0  0  0  0  0
  -22.3677  -10.9650   19.6146 H   0  0  0  0  0  0
  -21.1960   -7.6135   23.9678 H   0  0  0  0  0  0
  -21.1551   -6.0519   25.9065 H   0  0  0  0  0  0
  -22.0595   -2.7580   23.2780 H   0  0  0  0  0  0
  -22.4026  -11.9937   22.4893 H   0  0  0  0  0  0
  -21.1030  -13.1309   22.2454 H   0  0  0  0  0  0
  -24.6510  -15.8487   20.5215 H   0  0  0  0  0  0
  -26.2598  -15.6394   20.0548 H   0  0  0  0  0  0
  -26.7298  -32.5247   23.0913 H   0  0  0  0  0  0
  -25.0036  -33.9577   25.0208 H   0  0  0  0  0  0
  -22.7501  -31.2951   21.3763 H   0  0  0  0  0  0
  -23.3776  -35.9571   23.3228 H   0  0  0  0  0  0
  -24.3574  -36.8992   22.2043 H   0  0  0  0  0  0
  -23.7251  -37.6447   23.6741 H   0  0  0  0  0  0
  -26.1587  -31.4494   20.6009 H   0  0  0  0  0  0
  -26.8725  -30.7640   22.0230 H   0  0  0  0  0  0
  -28.1319  -28.7748   21.2231 H   0  0  0  0  0  0
  -25.8942  -25.8044   19.0360 H   0  0  0  0  0  0
  -23.9543  -27.2844   19.0070 H   0  0  0  0  0  0
  -23.8182  -30.5634   19.3964 H   0  0  0  0  0  0
  -22.7776  -29.2475   19.8362 H   0  0  0  0  0  0
  -25.1328  -36.1815   25.0770 H   0  0  0  0  0  0
  -21.0042  -28.3447   24.1369 H   0  0  0  0  0  0
  -20.5851  -26.2419   23.3641 H   0  0  0  0  0  0
  -21.6694  -26.7604   22.1155 H   0  0  0  0  0  0
  -19.6989  -25.6322   21.1324 H   0  0  0  0  0  0
  -19.6720  -27.3219   20.6778 H   0  0  0  0  0  0
  -17.4243  -26.6771   21.4026 H   0  0  0  0  0  0
  -18.0354  -26.0090   22.9012 H   0  0  0  0  0  0
  -19.7966  -30.7303   24.2322 H   0  0  0  0  0  0
  -17.5072  -31.6340   24.5177 H   0  0  0  0  0  0
  -15.5398  -30.3109   23.7620 H   0  0  0  0  0  0
  -15.8689  -28.0849   22.7192 H   0  0  0  0  0  0
  -24.5792  -30.7318   25.7590 H   0  0  0  0  0  0
  -24.8999  -32.3070   26.4765 H   0  0  0  0  0  0
  -25.7888  -30.8911   27.0131 H   0  0  0  0  0  0
  -26.2982  -29.6709   24.1317 H   0  0  0  0  0  0
  -27.3957  -29.7284   25.4883 H   0  0  0  0  0  0
  -27.8918  -30.4159   23.9633 H   0  0  0  0  0  0
  -27.2667  -33.3581   26.2172 H   0  0  0  0  0  0
  -28.3930  -32.6936   25.0414 H   0  0  0  0  0  0
  -28.0745  -31.8394   26.5400 H   0  0  0  0  0  0
  -28.2550  -38.0145   24.7581 H   0  0  0  0  0  0
  -28.1151  -36.2668   24.6143 H   0  0  0  0  0  0
  -27.2316  -37.1296   25.8852 H   0  0  0  0  0  0
  -20.9456  -29.8607   21.6585 H   0  0  0  0  0  0
  -26.0132  -38.2807   24.1464 H   0  0  0  0  0  0
  -29.5828  -24.9055   22.2147 H   0  0  0  0  0  0
  -28.1214  -24.1316   22.8442 H   0  0  0  0  0  0
  -28.1616  -25.8532   22.5675 H   0  0  0  0  0  0
  -28.2670  -23.0566   19.0795 H   0  0  0  0  0  0
  -29.7462  -23.3870   19.9194 H   0  0  0  0  0  0
  -26.9559  -24.5111   20.7353 H   0  0  0  0  0  0
  -28.4892  -20.9734   17.5413 H   0  0  0  0  0  0
  -28.9756  -19.4858   16.8953 H   0  0  0  0  0  0
  -28.7502  -15.7224   20.9515 H   0  0  0  0  0  0
  1 25  1  0  0  0
  1 30  2  0  0  0
  1 80  1  0  0  0
  2  3  1  0  0  0
  2 25  1  0  0  0
  2 83  1  0  0  0
  2 84  1  0  0  0
  3  4  1  0  0  0
  3 85  1  0  0  0
  3 86  1  0  0  0
  4  5  1  0  0  0
  4 87  1  0  0  0
  4 88  1  0  0  0
  5  6  1  0  0  0
  5 26  1  0  0  0
  5 89  1  0  0  0
  6 25  1  0  0  0
  6 90  1  0  0  0
  6 91  1  0  0  0
  7  8  2  0  0  0
  7 26  1  0  0  0
  7 29  1  0  0  0
  8  9  1  0  0  0
  8 22  1  0  0  0
  9 10  1  0  0  0
  9 27  2  0  0  0
 10 11  2  0  0  0
 10 15  1  0  0  0
 11 12  1  0  0  0
 11 92  1  0  0  0
 12 13  2  0  0  0
 12 93  1  0  0  0
 13 14  1  0  0  0
 13 31  1  0  0  0
 14 15  2  0  0  0
 14 94  1  0  0  0
 15 95  1  0  0  0
 16 17  2  0  0  0
 16 21  1  0  0  0
 16 31  1  0  0  0
 17 18  1  0  0  0
 17 96  1  0  0  0
 18 19  2  0  0  0
 18 97  1  0  0  0
 19 20  1  0  0  0
 19 24  1  0  0  0
 20 21  2  0  0  0
 20 98  1  0  0  0
 21 23  1  0  0  0
 22 28  1  0  0  0
 22 32  2  0  0  0
 26 27  1  0  0  0
 28 99  1  0  0  0
 28100  1  0  0  0
 29101  1  0  0  0
 29102  1  0  0  0
 33 34  1  0  0  0
 33 66  1  0  0  0
 33 70  2  0  0  0
 34 36  1  0  0  0
 34 59  1  0  0  0
 34103  1  0  0  0
 35 44  2  0  0  0
 35 45  1  0  0  0
 35 68  1  0  0  0
 36 56  1  0  0  0
 36104  1  0  0  0
 37 39  1  0  0  0
 37 47  1  0  0  0
 37 66  1  0  0  0
 37105  1  0  0  0
 38 43  2  0  0  0
 38 46  1  0  0  0
 38 47  1  0  0  0
 39 64  1  0  0  0
 39 67  2  0  0  0
 40 52  1  0  0  0
 40 53  2  0  0  0
 40 58  1  0  0  0
 41106  1  0  0  0
 41107  1  0  0  0
 41108  1  0  0  0
 41 48  1  0  0  0
 42 43  1  0  0  0
 42 66  1  0  0  0
 42109  1  0  0  0
 42110  1  0  0  0
 43 44  1  0  0  0
 44111  1  0  0  0
 45 46  2  0  0  0
 45112  1  0  0  0
 46113  1  0  0  0
 47114  1  0  0  0
 47115  1  0  0  0
 48 56  1  0  0  0
 48 65  1  0  0  0
 48116  1  0  0  0
 49 50  1  0  0  0
 49 53  1  0  0  0
 49 64  1  0  0  0
 49117  1  0  0  0
 50 51  1  0  0  0
 50118  1  0  0  0
 50119  1  0  0  0
 51 52  1  0  0  0
 51120  1  0  0  0
 51121  1  0  0  0
 52122  1  0  0  0
 52123  1  0  0  0
 53 54  1  0  0  0
 54 55  2  0  0  0
 54124  1  0  0  0
 55 57  1  0  0  0
 55125  1  0  0  0
 56 69  2  0  0  0
 57 58  2  0  0  0
 57126  1  0  0  0
 58127  1  0  0  0
 59 60  1  0  0  0
 59 61  1  0  0  0
 59 62  1  0  0  0
 60128  1  0  0  0
 60129  1  0  0  0
 60130  1  0  0  0
 61131  1  0  0  0
 61132  1  0  0  0
 61133  1  0  0  0
 62134  1  0  0  0
 62135  1  0  0  0
 62136  1  0  0  0
 63 65  1  0  0  0
 63137  1  0  0  0
 63138  1  0  0  0
 63139  1  0  0  0
 64140  1  0  0  0
 65141  1  0  0  0
 68 77  1  0  0  0
 71 72  2  0  0  0
 71 74  1  0  0  0
 71 82  1  0  0  0
 72 78  1  0  0  0
 72 79  1  0  0  0
 73 78  2  0  0  0
 73 80  1  0  0  0
 73 82  1  0  0  0
 74 76  1  0  0  0
 74 81  2  0  0  0
 75142  1  0  0  0
 75143  1  0  0  0
 75144  1  0  0  0
 75 77  1  0  0  0
 76 77  1  0  0  0
 76145  1  0  0  0
 76146  1  0  0  0
 77147  1  0  0  0
 79148  1  0  0  0
 79149  1  0  0  0
 80150  1  0  0  0
M  ISO  4   1 100  68 101  77 101  80 100
M  END
> <chiral flag>
0

> <version>
0

> <s_m_source_file>
/data/baiqing/PycharmProjects/Reinvent-master-3.2/result/LINK_invent/BTK/process_docking_weight1_custom_product_contain_oxygen_bond_distance_aromatic_linkinvent_7_9_3/rearranged_h_0183.sdf

> <i_m_source_file_index>
49

> <r_mmod_Potential_Energy-OPLS-2005>
468.604797363281

> <r_mmod_Stretch_Energy-OPLS-2005>
258.686157226562

> <r_mmod_Bend_Energy-OPLS-2005>
295.091339111328

> <r_mmod_Torsional_Energy-OPLS-2005>
265.695648193359

> <r_mmod_Improper_Torsional_Energy-OPLS-2005>
6.90966415405273

> <r_mmod_Van_der_Waal_Energy-OPLS-2005>
107.560562133789

> <r_mmod_Electrostatic_Energy-OPLS-2005>
-426.121917724609

> <r_mmod_Solvation_Energy-OPLS-2005>
-237.777755737305

> <b_mmod_Minimization_Converged-OPLS-2005>
0

> <r_mmod_RMS_Derivative-OPLS-2005>
9.11766719818115

$$$$
49
                    3D
 Structure written by MMmdl.
151159  0  0  1  0            999 V2000
  -30.6060  -14.7753   20.4806 C   0  0  0  0  0  0
  -30.4413  -12.4783   19.4955 C   0  0  0  0  0  0
  -29.5241  -12.5273   18.2521 C   0  0  0  0  0  0
  -28.0447  -12.3573   18.6496 C   0  0  0  0  0  0
  -27.6494  -13.2409   19.8621 C   0  0  2  0  0  0
  -28.6906  -13.1658   21.0026 C   0  0  0  0  0  0
  -25.2534  -13.8232   20.5705 C   0  0  0  0  0  0
  -24.1820  -13.0460   20.9209 C   0  0  0  0  0  0
  -24.6422  -11.6940   20.8737 C   0  0  0  0  0  0
  -23.9100  -10.4317   21.0414 C   0  0  0  0  0  0
  -24.3651   -9.4228   21.9187 C   0  0  0  0  0  0
  -23.6327   -8.2254   22.0758 C   0  0  0  0  0  0
  -22.4299   -8.0304   21.3550 C   0  0  0  0  0  0
  -21.9939   -9.0280   20.4645 C   0  0  0  0  0  0
  -22.7275  -10.2156   20.3061 C   0  0  0  0  0  0
  -21.6859   -6.0750   22.5285 C   0  0  0  0  0  0
  -21.4016   -6.5651   23.8221 C   0  0  0  0  0  0
  -21.3657   -5.6799   24.9180 C   0  0  0  0  0  0
  -21.6047   -4.3061   24.7226 C   0  0  0  0  0  0
  -21.8825   -3.8159   23.4349 C   0  0  0  0  0  0
  -21.9203   -4.6978   22.3406 C   0  0  0  0  0  0
  -22.7837  -13.5235   21.1859 C   0  0  0  0  0  0
  -22.1671   -4.2170   21.0975 F   0  0  0  0  0  0
  -21.5630   -3.4537   25.7734 F   0  0  0  0  0  0
  -29.9979  -13.5344   20.4398 N   0  0  0  0  0  0
  -26.2981  -12.9444   20.3315 N   0  0  0  0  0  0
  -25.9359  -11.6577   20.5743 N   0  0  0  0  0  0
  -22.0471  -12.8209   22.0398 N   0  0  0  0  0  0
  -25.4270  -15.1953   20.4166 N   0  0  0  0  0  0
  -31.7564  -14.8939   20.0458 O   0  0  0  0  0  0
  -21.6658   -6.8897   21.4245 O   0  0  0  0  0  0
  -22.3509  -14.5541   20.6724 O   0  0  0  0  0  0
  -24.6350  -31.8530   23.2006 C   0  0  0  0  0  0
  -25.9175  -32.4721   23.8349 C   0  0  1  0  0  0
  -27.1955  -27.1905   20.1414 C   0  0  0  0  0  0
  -25.5967  -33.8529   24.2259 N   0  0  0  0  0  0
  -23.4334  -30.4776   21.5470 C   0  0  2  0  0  0
  -24.8809  -28.9285   20.1118 C   0  0  0  0  0  0
  -22.7525  -29.4583   22.4936 C   0  0  0  0  0  0
  -18.0292  -28.1376   22.8476 C   0  0  0  0  0  0
  -24.1505  -36.7250   23.2640 C   0  0  0  0  0  0
  -25.9893  -30.7343   21.4048 C   0  0  0  0  0  0
  -26.0539  -29.3535   20.7496 C   0  0  0  0  0  0
  -27.2106  -28.4946   20.7656 C   0  0  0  0  0  0
  -26.0308  -26.9149   19.3928 C   0  0  0  0  0  0
  -24.8807  -27.7172   19.4166 C   0  0  0  0  0  0
  -23.6539  -29.8196   20.1621 C   0  0  0  0  0  0
  -25.4124  -36.3043   24.0333 C   0  0  1  0  0  0
  -20.5895  -28.3695   23.1261 C   0  0  2  0  0  0
  -20.6767  -26.9415   22.5401 C   0  0  0  0  0  0
  -19.5746  -26.6378   21.5195 C   0  0  0  0  0  0
  -18.1930  -26.7916   22.1615 C   0  0  0  0  0  0
  -19.1548  -28.8851   23.2853 C   0  0  0  0  0  0
  -18.9466  -30.1450   23.8871 C   0  0  0  0  0  0
  -17.6462  -30.6580   24.0538 C   0  0  0  0  0  0
  -25.9073  -34.9414   23.5095 C   0  0  0  0  0  0
  -16.5351  -29.9070   23.6331 C   0  0  0  0  0  0
  -16.7275  -28.6487   23.0357 C   0  0  0  0  0  0
  -26.4499  -31.6543   25.0758 C   0  0  0  0  0  0
  -25.3695  -31.3737   26.1478 C   0  0  0  0  0  0
  -27.0361  -30.2943   24.6327 C   0  0  0  0  0  0
  -27.6050  -32.4295   25.7514 C   0  0  0  0  0  0
  -27.5580  -37.1784   24.8465 C   0  0  0  0  0  0
  -21.4228  -29.3036   22.3665 N   0  0  0  0  0  0
  -26.4284  -37.3750   23.9421 N   0  0  0  0  0  0
  -24.7050  -31.0437   22.1032 N   0  0  0  0  0  0
  -23.4216  -28.8130   23.3048 O   0  0  0  0  0  0
  -28.2339  -26.2033   20.1991 O   0  0  0  0  0  0
  -26.5649  -34.8888   22.4669 O   0  0  0  0  0  0
  -23.5490  -32.1401   23.7254 O   0  0  0  0  0  0
  -29.6197  -19.6989   20.4102 C   0  0  0  0  0  0
  -29.4779  -19.3768   19.0648 C   0  0  0  0  0  0
  -29.8590  -17.2787   20.4248 C   0  0  0  0  0  0
  -29.7584  -21.1835   20.9830 C   0  0  0  0  0  0
  -29.1255  -23.6510   20.7290 C   0  0  0  0  0  0
  -26.8179  -24.0182   19.6448 C   0  0  0  0  0  0
  -27.9138  -24.7130   20.4936 C   0  0  2  0  0  0
  -29.8086  -18.4520   21.1539 N   0  0  0  0  0  0
  -29.2945  -20.2112   17.9640 N   0  0  0  0  0  0
  -29.8993  -15.8816   20.9415 N   0  0  0  0  0  0
  -29.0020  -22.2638   20.5098 N   0  0  0  0  0  0
  -30.5692  -21.3534   21.9021 O   0  0  0  0  0  0
  -30.1792  -24.1333   21.1580 O   0  0  0  0  0  0
  -29.6278  -17.6451   18.7218 S   0  0  0  0  0  0
  -31.4818  -12.6067   19.1933 H   0  0  0  0  0  0
  -30.3945  -11.5011   19.9768 H   0  0  0  0  0  0
  -29.8139  -11.7523   17.5420 H   0  0  0  0  0  0
  -29.6577  -13.4803   17.7366 H   0  0  0  0  0  0
  -27.8846  -11.3049   18.8865 H   0  0  0  0  0  0
  -27.4006  -12.5806   17.7990 H   0  0  0  0  0  0
  -27.6456  -14.2685   19.4975 H   0  0  0  0  0  0
  -28.7277  -12.1619   21.4282 H   0  0  0  0  0  0
  -28.4113  -13.8328   21.8186 H   0  0  0  0  0  0
  -25.2804   -9.5686   22.4755 H   0  0  0  0  0  0
  -24.0045   -7.4638   22.7466 H   0  0  0  0  0  0
  -21.0882   -8.8818   19.8933 H   0  0  0  0  0  0
  -22.3773  -10.9704   19.6165 H   0  0  0  0  0  0
  -21.1999   -7.6159   23.9732 H   0  0  0  0  0  0
  -21.1468   -6.0519   25.9083 H   0  0  0  0  0  0
  -22.0601   -2.7626   23.2846 H   0  0  0  0  0  0
  -22.4107  -11.9893   22.4802 H   0  0  0  0  0  0
  -21.1075  -13.1206   22.2575 H   0  0  0  0  0  0
  -24.6673  -15.8560   20.5409 H   0  0  0  0  0  0
  -26.2803  -15.6352   20.0951 H   0  0  0  0  0  0
  -26.7238  -32.5342   23.1072 H   0  0  0  0  0  0
  -25.0071  -33.9666   25.0384 H   0  0  0  0  0  0
  -22.7292  -31.3002   21.4042 H   0  0  0  0  0  0
  -23.3769  -35.9573   23.3280 H   0  0  0  0  0  0
  -24.3582  -36.8898   22.2050 H   0  0  0  0  0  0
  -23.7253  -37.6448   23.6673 H   0  0  0  0  0  0
  -26.1519  -31.4886   20.6340 H   0  0  0  0  0  0
  -26.8561  -30.7718   22.0512 H   0  0  0  0  0  0
  -28.0941  -28.8086   21.3015 H   0  0  0  0  0  0
  -25.9728  -26.0720   18.7309 H   0  0  0  0  0  0
  -24.0074  -27.4123   18.8554 H   0  0  0  0  0  0
  -23.7765  -30.5992   19.4102 H   0  0  0  0  0  0
  -22.7713  -29.2540   19.8551 H   0  0  0  0  0  0
  -25.1298  -36.1864   25.0818 H   0  0  0  0  0  0
  -20.9949  -28.3266   24.1397 H   0  0  0  0  0  0
  -20.5638  -26.2308   23.3610 H   0  0  0  0  0  0
  -21.6642  -26.7427   22.1207 H   0  0  0  0  0  0
  -19.6908  -25.6288   21.1234 H   0  0  0  0  0  0
  -19.6671  -27.3177   20.6715 H   0  0  0  0  0  0
  -17.4188  -26.6650   21.4030 H   0  0  0  0  0  0
  -18.0342  -26.0059   22.9011 H   0  0  0  0  0  0
  -19.7941  -30.7265   24.2244 H   0  0  0  0  0  0
  -17.5015  -31.6262   24.5134 H   0  0  0  0  0  0
  -15.5350  -30.2947   23.7679 H   0  0  0  0  0  0
  -15.8676  -28.0780   22.7099 H   0  0  0  0  0  0
  -24.5844  -30.7108   25.7819 H   0  0  0  0  0  0
  -24.8900  -32.2919   26.4885 H   0  0  0  0  0  0
  -25.7967  -30.8919   27.0285 H   0  0  0  0  0  0
  -26.2987  -29.6680   24.1298 H   0  0  0  0  0  0
  -27.3938  -29.7215   25.4892 H   0  0  0  0  0  0
  -27.8911  -30.4174   23.9679 H   0  0  0  0  0  0
  -27.2644  -33.3590   26.2087 H   0  0  0  0  0  0
  -28.3847  -32.6876   25.0334 H   0  0  0  0  0  0
  -28.0740  -31.8432   26.5430 H   0  0  0  0  0  0
  -28.2590  -38.0093   24.7522 H   0  0  0  0  0  0
  -28.1092  -36.2622   24.6269 H   0  0  0  0  0  0
  -27.2303  -37.1404   25.8873 H   0  0  0  0  0  0
  -20.9434  -29.8753   21.6853 H   0  0  0  0  0  0
  -26.0155  -38.2827   24.1404 H   0  0  0  0  0  0
  -25.8246  -24.3771   19.9122 H   0  0  0  0  0  0
  -26.7262  -22.9502   19.8290 H   0  0  0  0  0  0
  -26.9898  -24.1482   18.5764 H   0  0  0  0  0  0
  -27.4854  -24.7706   21.4958 H   0  0  0  0  0  0
  -29.5435  -21.1958   17.9660 H   0  0  0  0  0  0
  -29.3808  -19.8157   17.0321 H   0  0  0  0  0  0
  -29.0991  -15.6345   21.5020 H   0  0  0  0  0  0
  -28.2206  -21.9795   19.9411 H   0  0  0  0  0  0
  1 25  1  0  0  0
  1 30  2  0  0  0
  1 80  1  0  0  0
  2  3  1  0  0  0
  2 25  1  0  0  0
  2 85  1  0  0  0
  2 86  1  0  0  0
  3  4  1  0  0  0
  3 87  1  0  0  0
  3 88  1  0  0  0
  4  5  1  0  0  0
  4 89  1  0  0  0
  4 90  1  0  0  0
  5  6  1  0  0  0
  5 26  1  0  0  0
  5 91  1  0  0  0
  6 25  1  0  0  0
  6 92  1  0  0  0
  6 93  1  0  0  0
  7  8  2  0  0  0
  7 26  1  0  0  0
  7 29  1  0  0  0
  8  9  1  0  0  0
  8 22  1  0  0  0
  9 10  1  0  0  0
  9 27  2  0  0  0
 10 11  2  0  0  0
 10 15  1  0  0  0
 11 12  1  0  0  0
 11 94  1  0  0  0
 12 13  2  0  0  0
 12 95  1  0  0  0
 13 14  1  0  0  0
 13 31  1  0  0  0
 14 15  2  0  0  0
 14 96  1  0  0  0
 15 97  1  0  0  0
 16 17  2  0  0  0
 16 21  1  0  0  0
 16 31  1  0  0  0
 17 18  1  0  0  0
 17 98  1  0  0  0
 18 19  2  0  0  0
 18 99  1  0  0  0
 19 20  1  0  0  0
 19 24  1  0  0  0
 20 21  2  0  0  0
 20100  1  0  0  0
 21 23  1  0  0  0
 22 28  1  0  0  0
 22 32  2  0  0  0
 26 27  1  0  0  0
 28101  1  0  0  0
 28102  1  0  0  0
 29103  1  0  0  0
 29104  1  0  0  0
 33 34  1  0  0  0
 33 66  1  0  0  0
 33 70  2  0  0  0
 34 36  1  0  0  0
 34 59  1  0  0  0
 34105  1  0  0  0
 35 44  2  0  0  0
 35 45  1  0  0  0
 35 68  1  0  0  0
 36 56  1  0  0  0
 36106  1  0  0  0
 37 39  1  0  0  0
 37 47  1  0  0  0
 37 66  1  0  0  0
 37107  1  0  0  0
 38 43  2  0  0  0
 38 46  1  0  0  0
 38 47  1  0  0  0
 39 64  1  0  0  0
 39 67  2  0  0  0
 40 52  1  0  0  0
 40 53  2  0  0  0
 40 58  1  0  0  0
 41108  1  0  0  0
 41109  1  0  0  0
 41110  1  0  0  0
 41 48  1  0  0  0
 42 43  1  0  0  0
 42 66  1  0  0  0
 42111  1  0  0  0
 42112  1  0  0  0
 43 44  1  0  0  0
 44113  1  0  0  0
 45 46  2  0  0  0
 45114  1  0  0  0
 46115  1  0  0  0
 47116  1  0  0  0
 47117  1  0  0  0
 48 56  1  0  0  0
 48 65  1  0  0  0
 48118  1  0  0  0
 49 50  1  0  0  0
 49 53  1  0  0  0
 49 64  1  0  0  0
 49119  1  0  0  0
 50 51  1  0  0  0
 50120  1  0  0  0
 50121  1  0  0  0
 51 52  1  0  0  0
 51122  1  0  0  0
 51123  1  0  0  0
 52124  1  0  0  0
 52125  1  0  0  0
 53 54  1  0  0  0
 54 55  2  0  0  0
 54126  1  0  0  0
 55 57  1  0  0  0
 55127  1  0  0  0
 56 69  2  0  0  0
 57 58  2  0  0  0
 57128  1  0  0  0
 58129  1  0  0  0
 59 60  1  0  0  0
 59 61  1  0  0  0
 59 62  1  0  0  0
 60130  1  0  0  0
 60131  1  0  0  0
 60132  1  0  0  0
 61133  1  0  0  0
 61134  1  0  0  0
 61135  1  0  0  0
 62136  1  0  0  0
 62137  1  0  0  0
 62138  1  0  0  0
 63 65  1  0  0  0
 63139  1  0  0  0
 63140  1  0  0  0
 63141  1  0  0  0
 64142  1  0  0  0
 65143  1  0  0  0
 68 77  1  0  0  0
 71 72  2  0  0  0
 71 74  1  0  0  0
 71 78  1  0  0  0
 72 79  1  0  0  0
 72 84  1  0  0  0
 73 78  2  0  0  0
 73 80  1  0  0  0
 73 84  1  0  0  0
 74 81  1  0  0  0
 74 82  2  0  0  0
 75 77  1  0  0  0
 75 81  1  0  0  0
 75 83  2  0  0  0
 76144  1  0  0  0
 76145  1  0  0  0
 76146  1  0  0  0
 76 77  1  0  0  0
 77147  1  0  0  0
 79148  1  0  0  0
 79149  1  0  0  0
 80150  1  0  0  0
 81151  1  0  0  0
M  ISO  4   1 100  68 101  77 101  80 100
M  END
> <chiral flag>
0

> <version>
0

> <s_m_source_file>
/data/baiqing/PycharmProjects/Reinvent-master-3.2/result/LINK_invent/BTK/process_docking_weight1_custom_product_contain_oxygen_bond_distance_aromatic_linkinvent_7_9_3/rearranged_h_0183.sdf

> <i_m_source_file_index>
50

> <r_mmod_Potential_Energy-OPLS-2005>
236.541046142578

> <r_mmod_Stretch_Energy-OPLS-2005>
166.480682373047

> <r_mmod_Bend_Energy-OPLS-2005>
200.916915893555

> <r_mmod_Torsional_Energy-OPLS-2005>
279.357177734375

> <r_mmod_Improper_Torsional_Energy-OPLS-2005>
7.25567960739136

> <r_mmod_Van_der_Waal_Energy-OPLS-2005>
131.920837402344

> <r_mmod_Electrostatic_Energy-OPLS-2005>
-366.843078613281

> <r_mmod_Solvation_Energy-OPLS-2005>
-302.647644042969

> <b_mmod_Minimization_Converged-OPLS-2005>
0

> <r_mmod_RMS_Derivative-OPLS-2005>
2.88612604141235

$$$$
50
                    3D
 Structure written by MMmdl.
150158  0  0  1  0            999 V2000
  -30.5702  -14.7892   20.4484 C   0  0  0  0  0  0
  -30.4417  -12.4766   19.4862 C   0  0  0  0  0  0
  -29.5148  -12.5112   18.2485 C   0  0  0  0  0  0
  -28.0411  -12.3298   18.6585 C   0  0  0  0  0  0
  -27.6463  -13.2194   19.8652 C   0  0  2  0  0  0
  -28.6901  -13.1560   21.0008 C   0  0  0  0  0  0
  -25.2488  -13.8157   20.5589 C   0  0  0  0  0  0
  -24.1789  -13.0417   20.9209 C   0  0  0  0  0  0
  -24.6370  -11.6901   20.8791 C   0  0  0  0  0  0
  -23.9037  -10.4295   21.0428 C   0  0  0  0  0  0
  -24.3596   -9.4214   21.9200 C   0  0  0  0  0  0
  -23.6285   -8.2240   22.0760 C   0  0  0  0  0  0
  -22.4280   -8.0267   21.3540 C   0  0  0  0  0  0
  -21.9909   -9.0251   20.4657 C   0  0  0  0  0  0
  -22.7222  -10.2143   20.3076 C   0  0  0  0  0  0
  -21.6875   -6.0722   22.5257 C   0  0  0  0  0  0
  -21.4049   -6.5632   23.8190 C   0  0  0  0  0  0
  -21.3652   -5.6786   24.9148 C   0  0  0  0  0  0
  -21.6027   -4.3045   24.7211 C   0  0  0  0  0  0
  -21.8830   -3.8133   23.4342 C   0  0  0  0  0  0
  -21.9209   -4.6947   22.3388 C   0  0  0  0  0  0
  -22.7808  -13.5228   21.1839 C   0  0  0  0  0  0
  -22.1671   -4.2121   21.0966 F   0  0  0  0  0  0
  -21.5612   -3.4536   25.7726 F   0  0  0  0  0  0
  -29.9896  -13.5342   20.4253 N   0  0  0  0  0  0
  -26.2952  -12.9347   20.3331 N   0  0  0  0  0  0
  -25.9301  -11.6505   20.5823 N   0  0  0  0  0  0
  -22.0445  -12.8259   22.0416 N   0  0  0  0  0  0
  -25.4096  -15.1839   20.3712 N   0  0  0  0  0  0
  -31.7348  -14.9257   20.0586 O   0  0  0  0  0  0
  -21.6658   -6.8861   21.4222 O   0  0  0  0  0  0
  -22.3505  -14.5516   20.6636 O   0  0  0  0  0  0
  -24.6358  -31.8506   23.1952 C   0  0  0  0  0  0
  -25.9181  -32.4716   23.8312 C   0  0  1  0  0  0
  -27.2367  -27.2241   20.1275 C   0  0  0  0  0  0
  -25.5977  -33.8522   24.2242 N   0  0  0  0  0  0
  -23.4365  -30.4724   21.5387 C   0  0  2  0  0  0
  -24.8863  -28.9112   20.1080 C   0  0  0  0  0  0
  -22.7528  -29.4576   22.4866 C   0  0  0  0  0  0
  -18.0294  -28.1395   22.8468 C   0  0  0  0  0  0
  -24.1495  -36.7252   23.2644 C   0  0  0  0  0  0
  -25.9882  -30.7464   21.3866 C   0  0  0  0  0  0
  -26.0602  -29.3694   20.7193 C   0  0  0  0  0  0
  -27.2335  -28.5417   20.7137 C   0  0  0  0  0  0
  -26.0296  -26.8324   19.5049 C   0  0  0  0  0  0
  -24.8801  -27.6509   19.4901 C   0  0  0  0  0  0
  -23.6586  -29.8075   20.1551 C   0  0  0  0  0  0
  -25.4129  -36.3050   24.0325 C   0  0  1  0  0  0
  -20.5913  -28.3721   23.1245 C   0  0  2  0  0  0
  -20.6780  -26.9430   22.5417 C   0  0  0  0  0  0
  -19.5772  -26.6383   21.5209 C   0  0  0  0  0  0
  -18.1943  -26.7941   22.1608 C   0  0  0  0  0  0
  -19.1552  -28.8877   23.2856 C   0  0  0  0  0  0
  -18.9472  -30.1462   23.8894 C   0  0  0  0  0  0
  -17.6470  -30.6591   24.0550 C   0  0  0  0  0  0
  -25.9069  -34.9416   23.5082 C   0  0  0  0  0  0
  -16.5360  -29.9084   23.6333 C   0  0  0  0  0  0
  -16.7281  -28.6505   23.0361 C   0  0  0  0  0  0
  -26.4522  -31.6580   25.0741 C   0  0  0  0  0  0
  -25.3718  -31.3826   26.1467 C   0  0  0  0  0  0
  -27.0325  -30.2933   24.6344 C   0  0  0  0  0  0
  -27.6098  -32.4319   25.7493 C   0  0  0  0  0  0
  -27.5584  -37.1786   24.8457 C   0  0  0  0  0  0
  -21.4234  -29.3040   22.3610 N   0  0  0  0  0  0
  -26.4295  -37.3753   23.9405 N   0  0  0  0  0  0
  -24.7045  -31.0419   22.0951 N   0  0  0  0  0  0
  -23.4201  -28.8130   23.3010 O   0  0  0  0  0  0
  -28.3392  -26.3210   20.2105 O   0  0  0  0  0  0
  -26.5644  -34.8901   22.4648 O   0  0  0  0  0  0
  -23.5505  -32.1367   23.7206 O   0  0  0  0  0  0
  -29.1121  -19.2227   19.1231 C   0  0  0  0  0  0
  -29.2471  -17.7675   19.1697 C   0  0  0  0  0  0
  -29.4124  -19.9410   20.2627 C   0  0  0  0  0  0
  -29.7240  -17.2391   20.3697 C   0  0  0  0  0  0
  -28.3006  -24.9471   19.7755 C   0  0  0  0  0  0
  -28.8424  -23.8087   20.3834 C   0  0  0  0  0  0
  -28.7673  -22.3996   19.7989 C   0  0  0  0  0  0
  -28.8062  -16.9317   17.9932 C   0  0  0  0  0  0
  -29.3276  -21.3365   20.5172 N   0  0  0  0  0  0
  -29.7767  -15.8850   20.7974 N   0  0  0  0  0  0
  -28.2292  -22.1790   18.7117 O   0  0  0  0  0  0
  -29.4794  -23.9543   21.5560 O   0  0  0  0  0  0
  -28.5547  -17.6719   16.9121 F   0  0  0  0  0  0
  -29.7316  -16.0395   17.6480 F   0  0  0  0  0  0
  -27.6843  -16.2717   18.2804 F   0  0  0  0  0  0
  -29.9662  -18.6799   21.4297 S   0  0  0  0  0  0
  -31.4788  -12.6189   19.1771 H   0  0  0  0  0  0
  -30.4065  -11.4974   19.9685 H   0  0  0  0  0  0
  -29.8035  -11.7360   17.5371 H   0  0  0  0  0  0
  -29.6316  -13.4623   17.7281 H   0  0  0  0  0  0
  -27.8926  -11.2802   18.9136 H   0  0  0  0  0  0
  -27.3861  -12.5317   17.8100 H   0  0  0  0  0  0
  -27.6424  -14.2384   19.4945 H   0  0  0  0  0  0
  -28.7351  -12.1551   21.4325 H   0  0  0  0  0  0
  -28.4089  -13.8220   21.8183 H   0  0  0  0  0  0
  -25.2739   -9.5720   22.4793 H   0  0  0  0  0  0
  -24.0009   -7.4646   22.7484 H   0  0  0  0  0  0
  -21.0835   -8.8770   19.8963 H   0  0  0  0  0  0
  -22.3658  -10.9689   19.6214 H   0  0  0  0  0  0
  -21.2081   -7.6158   23.9690 H   0  0  0  0  0  0
  -21.1460   -6.0513   25.9049 H   0  0  0  0  0  0
  -22.0636   -2.7602   23.2822 H   0  0  0  0  0  0
  -22.4092  -11.9959   22.4857 H   0  0  0  0  0  0
  -21.1075  -13.1302   22.2637 H   0  0  0  0  0  0
  -24.5846  -15.7736   20.3423 H   0  0  0  0  0  0
  -26.1735  -15.5564   19.8190 H   0  0  0  0  0  0
  -26.7245  -32.5320   23.1046 H   0  0  0  0  0  0
  -25.0128  -33.9670   25.0402 H   0  0  0  0  0  0
  -22.7346  -31.2960   21.3921 H   0  0  0  0  0  0
  -23.3747  -35.9583   23.3315 H   0  0  0  0  0  0
  -24.3581  -36.8858   22.2050 H   0  0  0  0  0  0
  -23.7250  -37.6462   23.6655 H   0  0  0  0  0  0
  -26.1516  -31.5104   20.6257 H   0  0  0  0  0  0
  -26.8544  -30.7787   22.0358 H   0  0  0  0  0  0
  -28.1308  -28.8911   21.2033 H   0  0  0  0  0  0
  -25.9367  -25.8547   19.0557 H   0  0  0  0  0  0
  -23.9819  -27.2840   19.0131 H   0  0  0  0  0  0
  -23.7984  -30.5892   19.4085 H   0  0  0  0  0  0
  -22.7720  -29.2574   19.8365 H   0  0  0  0  0  0
  -25.1306  -36.1883   25.0810 H   0  0  0  0  0  0
  -21.0010  -28.3324   24.1363 H   0  0  0  0  0  0
  -20.5668  -26.2341   23.3635 H   0  0  0  0  0  0
  -21.6652  -26.7425   22.1235 H   0  0  0  0  0  0
  -19.6935  -25.6286   21.1266 H   0  0  0  0  0  0
  -19.6721  -27.3167   20.6718 H   0  0  0  0  0  0
  -17.4225  -26.6682   21.3998 H   0  0  0  0  0  0
  -18.0329  -26.0088   22.9011 H   0  0  0  0  0  0
  -19.7944  -30.7267   24.2282 H   0  0  0  0  0  0
  -17.5024  -31.6278   24.5146 H   0  0  0  0  0  0
  -15.5364  -30.2982   23.7663 H   0  0  0  0  0  0
  -15.8677  -28.0803   22.7100 H   0  0  0  0  0  0
  -24.5920  -30.7119   25.7855 H   0  0  0  0  0  0
  -24.8880  -32.3020   26.4763 H   0  0  0  0  0  0
  -25.8021  -30.9139   27.0327 H   0  0  0  0  0  0
  -26.2920  -29.6699   24.1319 H   0  0  0  0  0  0
  -27.3832  -29.7213   25.4951 H   0  0  0  0  0  0
  -27.8893  -30.4091   23.9703 H   0  0  0  0  0  0
  -27.2734  -33.3626   26.2071 H   0  0  0  0  0  0
  -28.3902  -32.6871   25.0313 H   0  0  0  0  0  0
  -28.0783  -31.8450   26.5411 H   0  0  0  0  0  0
  -28.2620  -38.0072   24.7474 H   0  0  0  0  0  0
  -28.1068  -36.2594   24.6295 H   0  0  0  0  0  0
  -27.2315  -37.1449   25.8874 H   0  0  0  0  0  0
  -20.9443  -29.8723   21.6764 H   0  0  0  0  0  0
  -26.0159  -38.2815   24.1412 H   0  0  0  0  0  0
  -28.7483  -19.6924   18.2208 H   0  0  0  0  0  0
  -27.8020  -24.8586   18.8196 H   0  0  0  0  0  0
  -29.7293  -21.6454   21.3928 H   0  0  0  0  0  0
  -28.9482  -15.5932   21.2960 H   0  0  0  0  0  0
  -29.4667  -24.8791   21.7664 H   0  0  0  0  0  0
  1 25  1  0  0  0
  1 30  2  0  0  0
  1 80  1  0  0  0
  2  3  1  0  0  0
  2 25  1  0  0  0
  2 87  1  0  0  0
  2 88  1  0  0  0
  3  4  1  0  0  0
  3 89  1  0  0  0
  3 90  1  0  0  0
  4  5  1  0  0  0
  4 91  1  0  0  0
  4 92  1  0  0  0
  5  6  1  0  0  0
  5 26  1  0  0  0
  5 93  1  0  0  0
  6 25  1  0  0  0
  6 94  1  0  0  0
  6 95  1  0  0  0
  7  8  2  0  0  0
  7 26  1  0  0  0
  7 29  1  0  0  0
  8  9  1  0  0  0
  8 22  1  0  0  0
  9 10  1  0  0  0
  9 27  2  0  0  0
 10 11  2  0  0  0
 10 15  1  0  0  0
 11 12  1  0  0  0
 11 96  1  0  0  0
 12 13  2  0  0  0
 12 97  1  0  0  0
 13 14  1  0  0  0
 13 31  1  0  0  0
 14 15  2  0  0  0
 14 98  1  0  0  0
 15 99  1  0  0  0
 16 17  2  0  0  0
 16 21  1  0  0  0
 16 31  1  0  0  0
 17 18  1  0  0  0
 17100  1  0  0  0
 18 19  2  0  0  0
 18101  1  0  0  0
 19 20  1  0  0  0
 19 24  1  0  0  0
 20 21  2  0  0  0
 20102  1  0  0  0
 21 23  1  0  0  0
 22 28  1  0  0  0
 22 32  2  0  0  0
 26 27  1  0  0  0
 28103  1  0  0  0
 28104  1  0  0  0
 29105  1  0  0  0
 29106  1  0  0  0
 33 34  1  0  0  0
 33 66  1  0  0  0
 33 70  2  0  0  0
 34 36  1  0  0  0
 34 59  1  0  0  0
 34107  1  0  0  0
 35 44  2  0  0  0
 35 45  1  0  0  0
 35 68  1  0  0  0
 36 56  1  0  0  0
 36108  1  0  0  0
 37 39  1  0  0  0
 37 47  1  0  0  0
 37 66  1  0  0  0
 37109  1  0  0  0
 38 43  2  0  0  0
 38 46  1  0  0  0
 38 47  1  0  0  0
 39 64  1  0  0  0
 39 67  2  0  0  0
 40 52  1  0  0  0
 40 53  2  0  0  0
 40 58  1  0  0  0
 41110  1  0  0  0
 41111  1  0  0  0
 41112  1  0  0  0
 41 48  1  0  0  0
 42 43  1  0  0  0
 42 66  1  0  0  0
 42113  1  0  0  0
 42114  1  0  0  0
 43 44  1  0  0  0
 44115  1  0  0  0
 45 46  2  0  0  0
 45116  1  0  0  0
 46117  1  0  0  0
 47118  1  0  0  0
 47119  1  0  0  0
 48 56  1  0  0  0
 48 65  1  0  0  0
 48120  1  0  0  0
 49 50  1  0  0  0
 49 53  1  0  0  0
 49 64  1  0  0  0
 49121  1  0  0  0
 50 51  1  0  0  0
 50122  1  0  0  0
 50123  1  0  0  0
 51 52  1  0  0  0
 51124  1  0  0  0
 51125  1  0  0  0
 52126  1  0  0  0
 52127  1  0  0  0
 53 54  1  0  0  0
 54 55  2  0  0  0
 54128  1  0  0  0
 55 57  1  0  0  0
 55129  1  0  0  0
 56 69  2  0  0  0
 57 58  2  0  0  0
 57130  1  0  0  0
 58131  1  0  0  0
 59 60  1  0  0  0
 59 61  1  0  0  0
 59 62  1  0  0  0
 60132  1  0  0  0
 60133  1  0  0  0
 60134  1  0  0  0
 61135  1  0  0  0
 61136  1  0  0  0
 61137  1  0  0  0
 62138  1  0  0  0
 62139  1  0  0  0
 62140  1  0  0  0
 63 65  1  0  0  0
 63141  1  0  0  0
 63142  1  0  0  0
 63143  1  0  0  0
 64144  1  0  0  0
 65145  1  0  0  0
 68 75  1  0  0  0
 71 72  1  0  0  0
 71 73  2  0  0  0
 71146  1  0  0  0
 72 74  2  0  0  0
 72 78  1  0  0  0
 73 79  1  0  0  0
 73 86  1  0  0  0
 74 80  1  0  0  0
 74 86  1  0  0  0
 75 76  2  0  0  0
 75147  1  0  0  0
 76 77  1  0  0  0
 76 82  1  0  0  0
 77 79  1  0  0  0
 77 81  2  0  0  0
 78 83  1  0  0  0
 78 84  1  0  0  0
 78 85  1  0  0  0
 79148  1  0  0  0
 80149  1  0  0  0
 82150  1  0  0  0
M  ISO  4   1 100  68 101  75 101  80 100
M  END
> <chiral flag>
0

> <version>
0

> <s_m_source_file>
/data/baiqing/PycharmProjects/Reinvent-master-3.2/result/LINK_invent/BTK/process_docking_weight1_custom_product_contain_oxygen_bond_distance_aromatic_linkinvent_7_9_3/rearranged_h_0183.sdf

> <i_m_source_file_index>
51

> <r_mmod_Potential_Energy-OPLS-2005>
195.505462646484

> <r_mmod_Stretch_Energy-OPLS-2005>
133.687026977539

> <r_mmod_Bend_Energy-OPLS-2005>
180.79069519043

> <r_mmod_Torsional_Energy-OPLS-2005>
244.729400634766

> <r_mmod_Improper_Torsional_Energy-OPLS-2005>
7.48288774490356

> <r_mmod_Van_der_Waal_Energy-OPLS-2005>
115.819694519043

> <r_mmod_Electrostatic_Energy-OPLS-2005>
-376.974731445312

> <r_mmod_Solvation_Energy-OPLS-2005>
-216.785003662109

> <b_mmod_Minimization_Converged-OPLS-2005>
0

> <r_mmod_RMS_Derivative-OPLS-2005>
3.54659104347229

$$$$
51
                    3D
 Structure written by MMmdl.
154162  0  0  1  0            999 V2000
  -30.5903  -14.7712   20.4607 C   0  0  0  0  0  0
  -30.4375  -12.4649   19.4966 C   0  0  0  0  0  0
  -29.5280  -12.5274   18.2486 C   0  0  0  0  0  0
  -28.0481  -12.3459   18.6500 C   0  0  0  0  0  0
  -27.6458  -13.2369   19.8549 C   0  0  2  0  0  0
  -28.6853  -13.1692   20.9959 C   0  0  0  0  0  0
  -25.2524  -13.8198   20.5688 C   0  0  0  0  0  0
  -24.1815  -13.0447   20.9206 C   0  0  0  0  0  0
  -24.6403  -11.6929   20.8730 C   0  0  0  0  0  0
  -23.9066  -10.4316   21.0398 C   0  0  0  0  0  0
  -24.3628   -9.4239   21.9172 C   0  0  0  0  0  0
  -23.6308   -8.2256   22.0754 C   0  0  0  0  0  0
  -22.4292   -8.0286   21.3540 C   0  0  0  0  0  0
  -21.9908   -9.0264   20.4657 C   0  0  0  0  0  0
  -22.7245  -10.2141   20.3051 C   0  0  0  0  0  0
  -21.6853   -6.0754   22.5287 C   0  0  0  0  0  0
  -21.4025   -6.5660   23.8221 C   0  0  0  0  0  0
  -21.3656   -5.6802   24.9171 C   0  0  0  0  0  0
  -21.6041   -4.3067   24.7219 C   0  0  0  0  0  0
  -21.8818   -3.8160   23.4339 C   0  0  0  0  0  0
  -21.9190   -4.6981   22.3393 C   0  0  0  0  0  0
  -22.7827  -13.5241   21.1860 C   0  0  0  0  0  0
  -22.1669   -4.2182   21.0965 F   0  0  0  0  0  0
  -21.5616   -3.4539   25.7720 F   0  0  0  0  0  0
  -29.9881  -13.5307   20.4237 N   0  0  0  0  0  0
  -26.2957  -12.9424   20.3257 N   0  0  0  0  0  0
  -25.9331  -11.6554   20.5712 N   0  0  0  0  0  0
  -22.0448  -12.8258   22.0411 N   0  0  0  0  0  0
  -25.4199  -15.1920   20.4143 N   0  0  0  0  0  0
  -31.7738  -14.8694   20.1183 O   0  0  0  0  0  0
  -21.6643   -6.8886   21.4242 O   0  0  0  0  0  0
  -22.3515  -14.5555   20.6702 O   0  0  0  0  0  0
  -24.6323  -31.8539   23.1972 C   0  0  0  0  0  0
  -25.9160  -32.4732   23.8306 C   0  0  1  0  0  0
  -27.2080  -27.2470   20.1345 C   0  0  0  0  0  0
  -25.5961  -33.8531   24.2244 N   0  0  0  0  0  0
  -23.4289  -30.4784   21.5398 C   0  0  2  0  0  0
  -24.8731  -28.9217   20.1107 C   0  0  0  0  0  0
  -22.7511  -29.4615   22.4896 C   0  0  0  0  0  0
  -18.0296  -28.1387   22.8482 C   0  0  0  0  0  0
  -24.1499  -36.7268   23.2635 C   0  0  0  0  0  0
  -25.9762  -30.7614   21.3796 C   0  0  0  0  0  0
  -26.0478  -29.3825   20.7212 C   0  0  0  0  0  0
  -27.2222  -28.5609   20.7156 C   0  0  0  0  0  0
  -26.0149  -26.8527   19.4961 C   0  0  0  0  0  0
  -24.8624  -27.6638   19.4870 C   0  0  0  0  0  0
  -23.6467  -29.8136   20.1556 C   0  0  0  0  0  0
  -25.4122  -36.3050   24.0319 C   0  0  1  0  0  0
  -20.5901  -28.3712   23.1267 C   0  0  2  0  0  0
  -20.6796  -26.9432   22.5405 C   0  0  0  0  0  0
  -19.5780  -26.6383   21.5209 C   0  0  0  0  0  0
  -18.1954  -26.7937   22.1617 C   0  0  0  0  0  0
  -19.1549  -28.8864   23.2877 C   0  0  0  0  0  0
  -18.9469  -30.1441   23.8907 C   0  0  0  0  0  0
  -17.6475  -30.6597   24.0547 C   0  0  0  0  0  0
  -25.9050  -34.9419   23.5074 C   0  0  0  0  0  0
  -16.5365  -29.9077   23.6329 C   0  0  0  0  0  0
  -16.7285  -28.6491   23.0376 C   0  0  0  0  0  0
  -26.4515  -31.6554   25.0694 C   0  0  0  0  0  0
  -25.3734  -31.3741   26.1415 C   0  0  0  0  0  0
  -27.0345  -30.2954   24.6204 C   0  0  0  0  0  0
  -27.6059  -32.4301   25.7498 C   0  0  0  0  0  0
  -27.5593  -37.1787   24.8464 C   0  0  0  0  0  0
  -21.4214  -29.3054   22.3642 N   0  0  0  0  0  0
  -26.4295  -37.3755   23.9411 N   0  0  0  0  0  0
  -24.6983  -31.0497   22.0939 N   0  0  0  0  0  0
  -23.4189  -28.8163   23.3012 O   0  0  0  0  0  0
  -28.2806  -26.3278   20.1480 O   0  0  0  0  0  0
  -26.5624  -34.8893   22.4637 O   0  0  0  0  0  0
  -23.5477  -32.1402   23.7255 O   0  0  0  0  0  0
  -30.6306  -19.5780   19.4546 C   0  0  0  0  0  0
  -29.5018  -19.6870   20.2529 C   0  0  0  0  0  0
  -30.0068  -17.3301   20.4178 C   0  0  0  0  0  0
  -31.3366  -20.5119   18.5560 C   0  0  0  0  0  0
  -28.5972  -23.6296   20.0508 C   0  0  0  0  0  0
  -30.1812  -22.4104   21.7438 C   0  0  0  0  0  0
  -28.0149  -24.9651   20.7415 C   0  0  0  0  0  0
  -28.8762  -22.2831   20.9399 C   0  0  2  0  0  0
  -29.1583  -18.3655   20.7508 N   0  0  0  0  0  0
  -31.3350  -20.1947   17.2669 N   0  0  0  0  0  0
  -28.6432  -20.8704   20.4029 N   0  0  0  0  0  0
  -29.8058  -15.8897   20.7341 N   0  0  0  0  0  0
  -31.9047  -21.5245   18.9559 O   0  0  0  0  0  0
  -28.8024  -23.6331   18.8331 O   0  0  0  0  0  0
  -31.3333  -17.9536   19.4480 S   0  0  0  0  0  0
  -31.4889  -12.5719   19.2214 H   0  0  0  0  0  0
  -30.3582  -11.4899   19.9771 H   0  0  0  0  0  0
  -29.8296  -11.7674   17.5265 H   0  0  0  0  0  0
  -29.6572  -13.4884   17.7488 H   0  0  0  0  0  0
  -27.8992  -11.2954   18.8994 H   0  0  0  0  0  0
  -27.3988  -12.5500   17.7984 H   0  0  0  0  0  0
  -27.6428  -14.2602   19.4764 H   0  0  0  0  0  0
  -28.7190  -12.1719   21.4356 H   0  0  0  0  0  0
  -28.4189  -13.8436   21.8097 H   0  0  0  0  0  0
  -25.2766   -9.5742   22.4751 H   0  0  0  0  0  0
  -24.0040   -7.4656   22.7462 H   0  0  0  0  0  0
  -21.0842   -8.8784   19.8963 H   0  0  0  0  0  0
  -22.3688  -10.9679   19.6175 H   0  0  0  0  0  0
  -21.2033   -7.6163   23.9747 H   0  0  0  0  0  0
  -21.1480   -6.0515   25.9083 H   0  0  0  0  0  0
  -22.0594   -2.7626   23.2810 H   0  0  0  0  0  0
  -22.4038  -11.9942   22.4848 H   0  0  0  0  0  0
  -21.1064  -13.1306   22.2582 H   0  0  0  0  0  0
  -24.6443  -15.8385   20.5176 H   0  0  0  0  0  0
  -26.2635  -15.6416   20.0841 H   0  0  0  0  0  0
  -26.7214  -32.5363   23.1027 H   0  0  0  0  0  0
  -25.0149  -33.9659   25.0427 H   0  0  0  0  0  0
  -22.7283  -31.3024   21.3959 H   0  0  0  0  0  0
  -23.3761  -35.9601   23.3275 H   0  0  0  0  0  0
  -24.3626  -36.8914   22.2066 H   0  0  0  0  0  0
  -23.7249  -37.6455   23.6670 H   0  0  0  0  0  0
  -26.1243  -31.5233   20.6133 H   0  0  0  0  0  0
  -26.8498  -30.8049   22.0172 H   0  0  0  0  0  0
  -28.1234  -28.9114   21.1994 H   0  0  0  0  0  0
  -25.9632  -25.8870   19.0138 H   0  0  0  0  0  0
  -23.9635  -27.3072   19.0037 H   0  0  0  0  0  0
  -23.7768  -30.5906   19.4019 H   0  0  0  0  0  0
  -22.7629  -29.2524   19.8476 H   0  0  0  0  0  0
  -25.1304  -36.1890   25.0814 H   0  0  0  0  0  0
  -21.0011  -28.3288   24.1382 H   0  0  0  0  0  0
  -20.5742  -26.2308   23.3607 H   0  0  0  0  0  0
  -21.6665  -26.7485   22.1186 H   0  0  0  0  0  0
  -19.6955  -25.6285   21.1261 H   0  0  0  0  0  0
  -19.6724  -27.3174   20.6725 H   0  0  0  0  0  0
  -17.4239  -26.6690   21.4000 H   0  0  0  0  0  0
  -18.0346  -26.0069   22.9011 H   0  0  0  0  0  0
  -19.7936  -30.7244   24.2322 H   0  0  0  0  0  0
  -17.5024  -31.6293   24.5123 H   0  0  0  0  0  0
  -15.5366  -30.2989   23.7633 H   0  0  0  0  0  0
  -15.8691  -28.0780   22.7133 H   0  0  0  0  0  0
  -24.5900  -30.7087   25.7765 H   0  0  0  0  0  0
  -24.8921  -32.2921   26.4795 H   0  0  0  0  0  0
  -25.8031  -30.8962   27.0228 H   0  0  0  0  0  0
  -26.2910  -29.6722   24.1208 H   0  0  0  0  0  0
  -27.3994  -29.7199   25.4727 H   0  0  0  0  0  0
  -27.8820  -30.4214   23.9461 H   0  0  0  0  0  0
  -27.2638  -33.3606   26.2062 H   0  0  0  0  0  0
  -28.3885  -32.6872   25.0339 H   0  0  0  0  0  0
  -28.0707  -31.8434   26.5446 H   0  0  0  0  0  0
  -28.2572  -38.0117   24.7513 H   0  0  0  0  0  0
  -28.1111  -36.2637   24.6254 H   0  0  0  0  0  0
  -27.2311  -37.1400   25.8865 H   0  0  0  0  0  0
  -20.9405  -29.8719   21.6807 H   0  0  0  0  0  0
  -26.0161  -38.2821   24.1407 H   0  0  0  0  0  0
  -30.3425  -23.4326   22.0928 H   0  0  0  0  0  0
  -31.0604  -22.1247   21.1730 H   0  0  0  0  0  0
  -30.1516  -21.7783   22.6308 H   0  0  0  0  0  0
  -28.3909  -24.9816   21.7647 H   0  0  0  0  0  0
  -26.9378  -24.8169   20.8324 H   0  0  0  0  0  0
  -28.1034  -22.3451   21.7042 H   0  0  0  0  0  0
  -30.8468  -19.3693   16.9501 H   0  0  0  0  0  0
  -31.7958  -20.7923   16.5978 H   0  0  0  0  0  0
  -27.6964  -20.5814   20.6318 H   0  0  0  0  0  0
  -28.8912  -15.6668   21.0935 H   0  0  0  0  0  0
  1 25  1  0  0  0
  1 30  2  0  0  0
  1 82  1  0  0  0
  2  3  1  0  0  0
  2 25  1  0  0  0
  2 86  1  0  0  0
  2 87  1  0  0  0
  3  4  1  0  0  0
  3 88  1  0  0  0
  3 89  1  0  0  0
  4  5  1  0  0  0
  4 90  1  0  0  0
  4 91  1  0  0  0
  5  6  1  0  0  0
  5 26  1  0  0  0
  5 92  1  0  0  0
  6 25  1  0  0  0
  6 93  1  0  0  0
  6 94  1  0  0  0
  7  8  2  0  0  0
  7 26  1  0  0  0
  7 29  1  0  0  0
  8  9  1  0  0  0
  8 22  1  0  0  0
  9 10  1  0  0  0
  9 27  2  0  0  0
 10 11  2  0  0  0
 10 15  1  0  0  0
 11 12  1  0  0  0
 11 95  1  0  0  0
 12 13  2  0  0  0
 12 96  1  0  0  0
 13 14  1  0  0  0
 13 31  1  0  0  0
 14 15  2  0  0  0
 14 97  1  0  0  0
 15 98  1  0  0  0
 16 17  2  0  0  0
 16 21  1  0  0  0
 16 31  1  0  0  0
 17 18  1  0  0  0
 17 99  1  0  0  0
 18 19  2  0  0  0
 18100  1  0  0  0
 19 20  1  0  0  0
 19 24  1  0  0  0
 20 21  2  0  0  0
 20101  1  0  0  0
 21 23  1  0  0  0
 22 28  1  0  0  0
 22 32  2  0  0  0
 26 27  1  0  0  0
 28102  1  0  0  0
 28103  1  0  0  0
 29104  1  0  0  0
 29105  1  0  0  0
 33 34  1  0  0  0
 33 66  1  0  0  0
 33 70  2  0  0  0
 34 36  1  0  0  0
 34 59  1  0  0  0
 34106  1  0  0  0
 35 44  2  0  0  0
 35 45  1  0  0  0
 35 68  1  0  0  0
 36 56  1  0  0  0
 36107  1  0  0  0
 37 39  1  0  0  0
 37 47  1  0  0  0
 37 66  1  0  0  0
 37108  1  0  0  0
 38 43  2  0  0  0
 38 46  1  0  0  0
 38 47  1  0  0  0
 39 64  1  0  0  0
 39 67  2  0  0  0
 40 52  1  0  0  0
 40 53  2  0  0  0
 40 58  1  0  0  0
 41109  1  0  0  0
 41110  1  0  0  0
 41111  1  0  0  0
 41 48  1  0  0  0
 42 43  1  0  0  0
 42 66  1  0  0  0
 42112  1  0  0  0
 42113  1  0  0  0
 43 44  1  0  0  0
 44114  1  0  0  0
 45 46  2  0  0  0
 45115  1  0  0  0
 46116  1  0  0  0
 47117  1  0  0  0
 47118  1  0  0  0
 48 56  1  0  0  0
 48 65  1  0  0  0
 48119  1  0  0  0
 49 50  1  0  0  0
 49 53  1  0  0  0
 49 64  1  0  0  0
 49120  1  0  0  0
 50 51  1  0  0  0
 50121  1  0  0  0
 50122  1  0  0  0
 51 52  1  0  0  0
 51123  1  0  0  0
 51124  1  0  0  0
 52125  1  0  0  0
 52126  1  0  0  0
 53 54  1  0  0  0
 54 55  2  0  0  0
 54127  1  0  0  0
 55 57  1  0  0  0
 55128  1  0  0  0
 56 69  2  0  0  0
 57 58  2  0  0  0
 57129  1  0  0  0
 58130  1  0  0  0
 59 60  1  0  0  0
 59 61  1  0  0  0
 59 62  1  0  0  0
 60131  1  0  0  0
 60132  1  0  0  0
 60133  1  0  0  0
 61134  1  0  0  0
 61135  1  0  0  0
 61136  1  0  0  0
 62137  1  0  0  0
 62138  1  0  0  0
 62139  1  0  0  0
 63 65  1  0  0  0
 63140  1  0  0  0
 63141  1  0  0  0
 63142  1  0  0  0
 64143  1  0  0  0
 65144  1  0  0  0
 68 77  1  0  0  0
 71 72  2  0  0  0
 71 74  1  0  0  0
 71 85  1  0  0  0
 72 79  1  0  0  0
 72 81  1  0  0  0
 73 79  2  0  0  0
 73 82  1  0  0  0
 73 85  1  0  0  0
 74 80  1  0  0  0
 74 83  2  0  0  0
 75 77  1  0  0  0
 75 78  1  0  0  0
 75 84  2  0  0  0
 76145  1  0  0  0
 76146  1  0  0  0
 76147  1  0  0  0
 76 78  1  0  0  0
 77148  1  0  0  0
 77149  1  0  0  0
 78 81  1  0  0  0
 78150  1  0  0  0
 80151  1  0  0  0
 80152  1  0  0  0
 81153  1  0  0  0
 82154  1  0  0  0
M  ISO  4   1 100  68 101  77 101  82 100
M  END
> <chiral flag>
0

> <version>
0

> <s_m_source_file>
/data/baiqing/PycharmProjects/Reinvent-master-3.2/result/LINK_invent/BTK/process_docking_weight1_custom_product_contain_oxygen_bond_distance_aromatic_linkinvent_7_9_3/rearranged_h_0183.sdf

> <i_m_source_file_index>
52

> <r_mmod_Potential_Energy-OPLS-2005>
73.1368637084961

> <r_mmod_Stretch_Energy-OPLS-2005>
130.098434448242

> <r_mmod_Bend_Energy-OPLS-2005>
185.422729492188

> <r_mmod_Torsional_Energy-OPLS-2005>
281.729644775391

> <r_mmod_Improper_Torsional_Energy-OPLS-2005>
7.89342832565308

> <r_mmod_Van_der_Waal_Energy-OPLS-2005>
108.112922668457

> <r_mmod_Electrostatic_Energy-OPLS-2005>
-451.565612792969

> <r_mmod_Solvation_Energy-OPLS-2005>
-284.082885742188

> <b_mmod_Minimization_Converged-OPLS-2005>
0

> <r_mmod_RMS_Derivative-OPLS-2005>
3.93137884140015

$$$$
52
                    3D
 Structure written by MMmdl.
152160  0  0  1  0            999 V2000
  -30.6131  -14.7669   20.4145 C   0  0  0  0  0  0
  -30.4373  -12.4535   19.4713 C   0  0  0  0  0  0
  -29.5193  -12.5114   18.2294 C   0  0  0  0  0  0
  -28.0438  -12.3348   18.6429 C   0  0  0  0  0  0
  -27.6470  -13.2346   19.8440 C   0  0  2  0  0  0
  -28.6951  -13.1759   20.9778 C   0  0  0  0  0  0
  -25.2531  -13.8176   20.5660 C   0  0  0  0  0  0
  -24.1827  -13.0429   20.9170 C   0  0  0  0  0  0
  -24.6422  -11.6909   20.8705 C   0  0  0  0  0  0
  -23.9099  -10.4274   21.0387 C   0  0  0  0  0  0
  -24.3643   -9.4181   21.9159 C   0  0  0  0  0  0
  -23.6300   -8.2231   22.0749 C   0  0  0  0  0  0
  -22.4268   -8.0278   21.3568 C   0  0  0  0  0  0
  -21.9937   -9.0243   20.4667 C   0  0  0  0  0  0
  -22.7275  -10.2108   20.3046 C   0  0  0  0  0  0
  -21.6857   -6.0743   22.5278 C   0  0  0  0  0  0
  -21.4002   -6.5635   23.8220 C   0  0  0  0  0  0
  -21.3663   -5.6771   24.9177 C   0  0  0  0  0  0
  -21.6045   -4.3040   24.7209 C   0  0  0  0  0  0
  -21.8818   -3.8149   23.4326 C   0  0  0  0  0  0
  -21.9174   -4.6972   22.3385 C   0  0  0  0  0  0
  -22.7832  -13.5225   21.1827 C   0  0  0  0  0  0
  -22.1659   -4.2151   21.0964 F   0  0  0  0  0  0
  -21.5645   -3.4538   25.7724 F   0  0  0  0  0  0
  -29.9994  -13.5267   20.4002 N   0  0  0  0  0  0
  -26.2982  -12.9406   20.3232 N   0  0  0  0  0  0
  -25.9350  -11.6541   20.5686 N   0  0  0  0  0  0
  -22.0481  -12.8208   22.0398 N   0  0  0  0  0  0
  -25.4211  -15.1895   20.4052 N   0  0  0  0  0  0
  -31.7944  -14.8598   20.0646 O   0  0  0  0  0  0
  -21.6646   -6.8875   21.4240 O   0  0  0  0  0  0
  -22.3501  -14.5520   20.6673 O   0  0  0  0  0  0
  -24.6345  -31.8497   23.1923 C   0  0  0  0  0  0
  -25.9156  -32.4707   23.8286 C   0  0  1  0  0  0
  -27.2293  -27.2481   20.1183 C   0  0  0  0  0  0
  -25.5943  -33.8507   24.2208 N   0  0  0  0  0  0
  -23.4329  -30.4745   21.5313 C   0  0  2  0  0  0
  -24.8831  -28.9158   20.1041 C   0  0  0  0  0  0
  -22.7505  -29.4588   22.4813 C   0  0  0  0  0  0
  -18.0294  -28.1381   22.8467 C   0  0  0  0  0  0
  -24.1499  -36.7301   23.2639 C   0  0  0  0  0  0
  -25.9796  -30.7585   21.3769 C   0  0  0  0  0  0
  -26.0530  -29.3788   20.7221 C   0  0  0  0  0  0
  -27.2257  -28.5557   20.7208 C   0  0  0  0  0  0
  -26.0414  -26.8691   19.4565 C   0  0  0  0  0  0
  -24.8835  -27.6698   19.4611 C   0  0  0  0  0  0
  -23.6557  -29.8042   20.1487 C   0  0  0  0  0  0
  -25.4120  -36.3041   24.0307 C   0  0  1  0  0  0
  -20.5899  -28.3717   23.1218 C   0  0  2  0  0  0
  -20.6769  -26.9422   22.5383 C   0  0  0  0  0  0
  -19.5755  -26.6373   21.5176 C   0  0  0  0  0  0
  -18.1935  -26.7927   22.1596 C   0  0  0  0  0  0
  -19.1550  -28.8856   23.2853 C   0  0  0  0  0  0
  -18.9474  -30.1446   23.8898 C   0  0  0  0  0  0
  -17.6472  -30.6581   24.0556 C   0  0  0  0  0  0
  -25.9055  -34.9415   23.5059 C   0  0  0  0  0  0
  -16.5361  -29.9088   23.6311 C   0  0  0  0  0  0
  -16.7277  -28.6497   23.0345 C   0  0  0  0  0  0
  -26.4519  -31.6544   25.0696 C   0  0  0  0  0  0
  -25.3739  -31.3727   26.1416 C   0  0  0  0  0  0
  -27.0360  -30.2943   24.6207 C   0  0  0  0  0  0
  -27.6050  -32.4300   25.7499 C   0  0  0  0  0  0
  -27.5567  -37.1806   24.8452 C   0  0  0  0  0  0
  -21.4205  -29.3074   22.3596 N   0  0  0  0  0  0
  -26.4278  -37.3744   23.9394 N   0  0  0  0  0  0
  -24.7013  -31.0465   22.0899 N   0  0  0  0  0  0
  -23.4177  -28.8101   23.2909 O   0  0  0  0  0  0
  -28.3265  -26.3502   20.1857 O   0  0  0  0  0  0
  -26.5627  -34.8896   22.4625 O   0  0  0  0  0  0
  -23.5490  -32.1293   23.7214 O   0  0  0  0  0  0
  -29.6913  -19.7094   20.2362 C   0  0  0  0  0  0
  -30.3747  -19.5127   19.0376 C   0  0  0  0  0  0
  -30.0154  -17.3086   20.2471 C   0  0  0  0  0  0
  -29.3129  -21.0953   20.9130 C   0  0  0  0  0  0
  -28.7413  -23.9209   22.1883 C   0  0  0  0  0  0
  -28.1554  -24.8704   19.9103 C   0  0  0  0  0  0
  -29.0691  -23.7745   20.6878 C   0  0  2  0  0  0
  -29.4962  -18.4137   20.8741 N   0  0  0  0  0  0
  -30.8235  -20.4377   18.0899 N   0  0  0  0  0  0
  -29.8567  -15.8978   20.6955 N   0  0  0  0  0  0
  -29.1378  -22.2918   20.2115 N   0  0  0  0  0  0
  -29.1710  -21.0815   22.1390 O   0  0  0  0  0  0
  -30.7721  -17.8080   18.7350 S   0  0  0  0  0  0
  -31.4841  -12.5562   19.1804 H   0  0  0  0  0  0
  -30.3583  -11.4777   19.9531 H   0  0  0  0  0  0
  -29.8045  -11.7397   17.5123 H   0  0  0  0  0  0
  -29.6518  -13.4647   17.7132 H   0  0  0  0  0  0
  -27.9004  -11.2858   18.9069 H   0  0  0  0  0  0
  -27.3887  -12.5250   17.7923 H   0  0  0  0  0  0
  -27.6398  -14.2566   19.4628 H   0  0  0  0  0  0
  -28.7262  -12.1784   21.4178 H   0  0  0  0  0  0
  -28.4319  -13.8518   21.7916 H   0  0  0  0  0  0
  -25.2793   -9.5658   22.4713 H   0  0  0  0  0  0
  -24.0020   -7.4630   22.7457 H   0  0  0  0  0  0
  -21.0882   -8.8763   19.8967 H   0  0  0  0  0  0
  -22.3750  -10.9631   19.6148 H   0  0  0  0  0  0
  -21.2001   -7.6145   23.9713 H   0  0  0  0  0  0
  -21.1502   -6.0513   25.9070 H   0  0  0  0  0  0
  -22.0596   -2.7614   23.2809 H   0  0  0  0  0  0
  -22.4129  -11.9915   22.4840 H   0  0  0  0  0  0
  -21.1085  -13.1224   22.2573 H   0  0  0  0  0  0
  -24.6502  -15.8394   20.5088 H   0  0  0  0  0  0
  -26.2588  -15.6268   20.0452 H   0  0  0  0  0  0
  -26.7221  -32.5352   23.1030 H   0  0  0  0  0  0
  -25.0104  -33.9611   25.0368 H   0  0  0  0  0  0
  -22.7325  -31.2979   21.3764 H   0  0  0  0  0  0
  -23.3712  -35.9677   23.3297 H   0  0  0  0  0  0
  -24.3600  -36.8931   22.2053 H   0  0  0  0  0  0
  -23.7290  -37.6517   23.6678 H   0  0  0  0  0  0
  -26.1191  -31.5113   20.5999 H   0  0  0  0  0  0
  -26.8589  -30.8131   22.0063 H   0  0  0  0  0  0
  -28.1207  -28.9007   21.2191 H   0  0  0  0  0  0
  -25.9805  -25.9311   18.9249 H   0  0  0  0  0  0
  -23.9951  -27.3153   18.9557 H   0  0  0  0  0  0
  -23.7842  -30.5744   19.3875 H   0  0  0  0  0  0
  -22.7760  -29.2356   19.8430 H   0  0  0  0  0  0
  -25.1301  -36.1882   25.0791 H   0  0  0  0  0  0
  -21.0016  -28.3328   24.1329 H   0  0  0  0  0  0
  -20.5614  -26.2348   23.3611 H   0  0  0  0  0  0
  -21.6649  -26.7394   22.1232 H   0  0  0  0  0  0
  -19.6932  -25.6267   21.1249 H   0  0  0  0  0  0
  -19.6706  -27.3146   20.6677 H   0  0  0  0  0  0
  -17.4197  -26.6634   21.4012 H   0  0  0  0  0  0
  -18.0379  -26.0071   22.9005 H   0  0  0  0  0  0
  -19.7951  -30.7252   24.2280 H   0  0  0  0  0  0
  -17.5029  -31.6261   24.5165 H   0  0  0  0  0  0
  -15.5364  -30.3002   23.7616 H   0  0  0  0  0  0
  -15.8673  -28.0814   22.7073 H   0  0  0  0  0  0
  -24.5913  -30.7066   25.7770 H   0  0  0  0  0  0
  -24.8941  -32.2912   26.4805 H   0  0  0  0  0  0
  -25.8064  -30.8940   27.0208 H   0  0  0  0  0  0
  -26.2933  -29.6680   24.1237 H   0  0  0  0  0  0
  -27.4021  -29.7225   25.4746 H   0  0  0  0  0  0
  -27.8837  -30.4181   23.9459 H   0  0  0  0  0  0
  -27.2620  -33.3592   26.2060 H   0  0  0  0  0  0
  -28.3898  -32.6852   25.0370 H   0  0  0  0  0  0
  -28.0677  -31.8427   26.5439 H   0  0  0  0  0  0
  -28.2572  -38.0114   24.7461 H   0  0  0  0  0  0
  -28.1069  -36.2626   24.6315 H   0  0  0  0  0  0
  -27.2289  -37.1512   25.8858 H   0  0  0  0  0  0
  -20.9364  -29.8860   21.6874 H   0  0  0  0  0  0
  -26.0150  -38.2812   24.1376 H   0  0  0  0  0  0
  -28.6529  -24.9730   22.4632 H   0  0  0  0  0  0
  -29.5213  -23.5050   22.8270 H   0  0  0  0  0  0
  -27.7925  -23.4451   22.4398 H   0  0  0  0  0  0
  -27.1274  -24.5854   20.1308 H   0  0  0  0  0  0
  -28.2752  -24.7336   18.8345 H   0  0  0  0  0  0
  -30.0921  -24.1284   20.5566 H   0  0  0  0  0  0
  -31.0447  -21.4043   18.3149 H   0  0  0  0  0  0
  -31.3734  -20.1264   17.2934 H   0  0  0  0  0  0
  -28.9756  -15.7042   21.1421 H   0  0  0  0  0  0
  -29.2331  -22.1763   19.2086 H   0  0  0  0  0  0
  1 25  1  0  0  0
  1 30  2  0  0  0
  1 80  1  0  0  0
  2  3  1  0  0  0
  2 25  1  0  0  0
  2 84  1  0  0  0
  2 85  1  0  0  0
  3  4  1  0  0  0
  3 86  1  0  0  0
  3 87  1  0  0  0
  4  5  1  0  0  0
  4 88  1  0  0  0
  4 89  1  0  0  0
  5  6  1  0  0  0
  5 26  1  0  0  0
  5 90  1  0  0  0
  6 25  1  0  0  0
  6 91  1  0  0  0
  6 92  1  0  0  0
  7  8  2  0  0  0
  7 26  1  0  0  0
  7 29  1  0  0  0
  8  9  1  0  0  0
  8 22  1  0  0  0
  9 10  1  0  0  0
  9 27  2  0  0  0
 10 11  2  0  0  0
 10 15  1  0  0  0
 11 12  1  0  0  0
 11 93  1  0  0  0
 12 13  2  0  0  0
 12 94  1  0  0  0
 13 14  1  0  0  0
 13 31  1  0  0  0
 14 15  2  0  0  0
 14 95  1  0  0  0
 15 96  1  0  0  0
 16 17  2  0  0  0
 16 21  1  0  0  0
 16 31  1  0  0  0
 17 18  1  0  0  0
 17 97  1  0  0  0
 18 19  2  0  0  0
 18 98  1  0  0  0
 19 20  1  0  0  0
 19 24  1  0  0  0
 20 21  2  0  0  0
 20 99  1  0  0  0
 21 23  1  0  0  0
 22 28  1  0  0  0
 22 32  2  0  0  0
 26 27  1  0  0  0
 28100  1  0  0  0
 28101  1  0  0  0
 29102  1  0  0  0
 29103  1  0  0  0
 33 34  1  0  0  0
 33 66  1  0  0  0
 33 70  2  0  0  0
 34 36  1  0  0  0
 34 59  1  0  0  0
 34104  1  0  0  0
 35 44  2  0  0  0
 35 45  1  0  0  0
 35 68  1  0  0  0
 36 56  1  0  0  0
 36105  1  0  0  0
 37 39  1  0  0  0
 37 47  1  0  0  0
 37 66  1  0  0  0
 37106  1  0  0  0
 38 43  2  0  0  0
 38 46  1  0  0  0
 38 47  1  0  0  0
 39 64  1  0  0  0
 39 67  2  0  0  0
 40 52  1  0  0  0
 40 53  2  0  0  0
 40 58  1  0  0  0
 41107  1  0  0  0
 41108  1  0  0  0
 41109  1  0  0  0
 41 48  1  0  0  0
 42 43  1  0  0  0
 42 66  1  0  0  0
 42110  1  0  0  0
 42111  1  0  0  0
 43 44  1  0  0  0
 44112  1  0  0  0
 45 46  2  0  0  0
 45113  1  0  0  0
 46114  1  0  0  0
 47115  1  0  0  0
 47116  1  0  0  0
 48 56  1  0  0  0
 48 65  1  0  0  0
 48117  1  0  0  0
 49 50  1  0  0  0
 49 53  1  0  0  0
 49 64  1  0  0  0
 49118  1  0  0  0
 50 51  1  0  0  0
 50119  1  0  0  0
 50120  1  0  0  0
 51 52  1  0  0  0
 51121  1  0  0  0
 51122  1  0  0  0
 52123  1  0  0  0
 52124  1  0  0  0
 53 54  1  0  0  0
 54 55  2  0  0  0
 54125  1  0  0  0
 55 57  1  0  0  0
 55126  1  0  0  0
 56 69  2  0  0  0
 57 58  2  0  0  0
 57127  1  0  0  0
 58128  1  0  0  0
 59 60  1  0  0  0
 59 61  1  0  0  0
 59 62  1  0  0  0
 60129  1  0  0  0
 60130  1  0  0  0
 60131  1  0  0  0
 61132  1  0  0  0
 61133  1  0  0  0
 61134  1  0  0  0
 62135  1  0  0  0
 62136  1  0  0  0
 62137  1  0  0  0
 63 65  1  0  0  0
 63138  1  0  0  0
 63139  1  0  0  0
 63140  1  0  0  0
 64141  1  0  0  0
 65142  1  0  0  0
 68 76  1  0  0  0
 71 72  2  0  0  0
 71 74  1  0  0  0
 71 78  1  0  0  0
 72 79  1  0  0  0
 72 83  1  0  0  0
 73 78  2  0  0  0
 73 80  1  0  0  0
 73 83  1  0  0  0
 74 81  1  0  0  0
 74 82  2  0  0  0
 75143  1  0  0  0
 75144  1  0  0  0
 75145  1  0  0  0
 75 77  1  0  0  0
 76 77  1  0  0  0
 76146  1  0  0  0
 76147  1  0  0  0
 77 81  1  0  0  0
 77148  1  0  0  0
 79149  1  0  0  0
 79150  1  0  0  0
 80151  1  0  0  0
 81152  1  0  0  0
M  ISO  4   1 100  68 101  76 101  80 100
M  END
> <chiral flag>
0

> <version>
0

> <s_m_source_file>
/data/baiqing/PycharmProjects/Reinvent-master-3.2/result/LINK_invent/BTK/process_docking_weight1_custom_product_contain_oxygen_bond_distance_aromatic_linkinvent_7_9_3/rearranged_h_0183.sdf

> <i_m_source_file_index>
53

> <r_mmod_Potential_Energy-OPLS-2005>
223.791641235352

> <r_mmod_Stretch_Energy-OPLS-2005>
142.165451049805

> <r_mmod_Bend_Energy-OPLS-2005>
183.098587036133

> <r_mmod_Torsional_Energy-OPLS-2005>
227.641952514648

> <r_mmod_Improper_Torsional_Energy-OPLS-2005>
6.74300193786621

> <r_mmod_Van_der_Waal_Energy-OPLS-2005>
121.121360778809

> <r_mmod_Electrostatic_Energy-OPLS-2005>
-299.597564697266

> <r_mmod_Solvation_Energy-OPLS-2005>
-251.145858764648

> <b_mmod_Minimization_Converged-OPLS-2005>
0

> <r_mmod_RMS_Derivative-OPLS-2005>
4.44326162338257

$$$$
53
                    3D
 Structure written by MMmdl.
153161  0  0  1  0            999 V2000
  -30.6063  -14.7539   20.4439 C   0  0  0  0  0  0
  -30.4295  -12.4546   19.4865 C   0  0  0  0  0  0
  -29.5142  -12.5118   18.2431 C   0  0  0  0  0  0
  -28.0390  -12.3349   18.6513 C   0  0  0  0  0  0
  -27.6418  -13.2343   19.8524 C   0  0  2  0  0  0
  -28.6830  -13.1732   20.9920 C   0  0  0  0  0  0
  -25.2512  -13.8205   20.5692 C   0  0  0  0  0  0
  -24.1806  -13.0447   20.9202 C   0  0  0  0  0  0
  -24.6397  -11.6925   20.8739 C   0  0  0  0  0  0
  -23.9072  -10.4301   21.0404 C   0  0  0  0  0  0
  -24.3623   -9.4219   21.9182 C   0  0  0  0  0  0
  -23.6302   -8.2251   22.0752 C   0  0  0  0  0  0
  -22.4282   -8.0287   21.3545 C   0  0  0  0  0  0
  -21.9916   -9.0257   20.4644 C   0  0  0  0  0  0
  -22.7243  -10.2138   20.3054 C   0  0  0  0  0  0
  -21.6858   -6.0739   22.5279 C   0  0  0  0  0  0
  -21.4016   -6.5642   23.8212 C   0  0  0  0  0  0
  -21.3660   -5.6793   24.9173 C   0  0  0  0  0  0
  -21.6048   -4.3056   24.7222 C   0  0  0  0  0  0
  -21.8820   -3.8150   23.4343 C   0  0  0  0  0  0
  -21.9195   -4.6967   22.3400 C   0  0  0  0  0  0
  -22.7827  -13.5227   21.1865 C   0  0  0  0  0  0
  -22.1666   -4.2152   21.0978 F   0  0  0  0  0  0
  -21.5627   -3.4540   25.7737 F   0  0  0  0  0  0
  -29.9873  -13.5218   20.4166 N   0  0  0  0  0  0
  -26.2936  -12.9413   20.3278 N   0  0  0  0  0  0
  -25.9328  -11.6553   20.5744 N   0  0  0  0  0  0
  -22.0478  -12.8210   22.0418 N   0  0  0  0  0  0
  -25.4210  -15.1931   20.4110 N   0  0  0  0  0  0
  -31.7903  -14.8349   20.1028 O   0  0  0  0  0  0
  -21.6648   -6.8884   21.4242 O   0  0  0  0  0  0
  -22.3511  -14.5534   20.6717 O   0  0  0  0  0  0
  -24.6316  -31.8538   23.1972 C   0  0  0  0  0  0
  -25.9144  -32.4742   23.8317 C   0  0  1  0  0  0
  -27.2223  -27.2550   20.1203 C   0  0  0  0  0  0
  -25.5938  -33.8546   24.2241 N   0  0  0  0  0  0
  -23.4280  -30.4765   21.5403 C   0  0  2  0  0  0
  -24.8744  -28.9218   20.1068 C   0  0  0  0  0  0
  -22.7501  -29.4597   22.4902 C   0  0  0  0  0  0
  -18.0293  -28.1391   22.8480 C   0  0  0  0  0  0
  -24.1493  -36.7283   23.2640 C   0  0  0  0  0  0
  -25.9735  -30.7643   21.3773 C   0  0  0  0  0  0
  -26.0446  -29.3862   20.7183 C   0  0  0  0  0  0
  -27.2160  -28.5628   20.7179 C   0  0  0  0  0  0
  -26.0222  -26.8537   19.4904 C   0  0  0  0  0  0
  -24.8685  -27.6638   19.4849 C   0  0  0  0  0  0
  -23.6458  -29.8104   20.1558 C   0  0  0  0  0  0
  -25.4120  -36.3064   24.0322 C   0  0  1  0  0  0
  -20.5896  -28.3702   23.1264 C   0  0  2  0  0  0
  -20.6782  -26.9418   22.5406 C   0  0  0  0  0  0
  -19.5760  -26.6385   21.5209 C   0  0  0  0  0  0
  -18.1940  -26.7932   22.1619 C   0  0  0  0  0  0
  -19.1546  -28.8864   23.2867 C   0  0  0  0  0  0
  -18.9467  -30.1463   23.8886 C   0  0  0  0  0  0
  -17.6465  -30.6588   24.0563 C   0  0  0  0  0  0
  -25.9059  -34.9433   23.5083 C   0  0  0  0  0  0
  -16.5357  -29.9084   23.6333 C   0  0  0  0  0  0
  -16.7279  -28.6506   23.0347 C   0  0  0  0  0  0
  -26.4510  -31.6574   25.0713 C   0  0  0  0  0  0
  -25.3727  -31.3727   26.1429 C   0  0  0  0  0  0
  -27.0362  -30.2989   24.6210 C   0  0  0  0  0  0
  -27.6058  -32.4319   25.7492 C   0  0  0  0  0  0
  -27.5579  -37.1798   24.8463 C   0  0  0  0  0  0
  -21.4208  -29.3043   22.3647 N   0  0  0  0  0  0
  -26.4293  -37.3765   23.9404 N   0  0  0  0  0  0
  -24.6969  -31.0501   22.0946 N   0  0  0  0  0  0
  -23.4197  -28.8142   23.3008 O   0  0  0  0  0  0
  -28.3330  -26.3816   20.2141 O   0  0  0  0  0  0
  -26.5633  -34.8912   22.4654 O   0  0  0  0  0  0
  -23.5467  -32.1364   23.7268 O   0  0  0  0  0  0
  -29.7125  -19.6793   20.0039 C   0  0  0  0  0  0
  -30.6264  -19.3652   19.0099 C   0  0  0  0  0  0
  -30.0541  -17.2898   20.2367 C   0  0  0  0  0  0
  -28.5590  -23.6727   20.3087 C   0  0  0  0  0  0
  -28.8372  -22.2854   18.2110 C   0  0  0  0  0  0
  -30.8189  -22.7855   19.7568 C   0  0  0  0  0  0
  -28.4383  -25.0634   19.4922 C   0  0  0  0  0  0
  -29.3251  -22.3879   19.6748 C   0  0  0  0  0  0
  -29.3949  -18.4278   20.6799 N   0  0  0  0  0  0
  -29.1462  -21.0118   20.3343 N   0  0  0  0  0  0
  -29.8496  -15.8922   20.7059 N   0  0  0  0  0  0
  -28.0618  -23.5723   21.4346 O   0  0  0  0  0  0
  -31.1507  -20.2364   18.1158 F   0  0  0  0  0  0
  -31.1340  -17.6934   18.9074 S   0  0  0  0  0  0
  -31.4738  -12.5663   19.1895 H   0  0  0  0  0  0
  -30.3622  -11.4786   19.9698 H   0  0  0  0  0  0
  -29.8001  -11.7408   17.5265 H   0  0  0  0  0  0
  -29.6431  -13.4669   17.7311 H   0  0  0  0  0  0
  -27.8954  -11.2857   18.9126 H   0  0  0  0  0  0
  -27.3851  -12.5286   17.8005 H   0  0  0  0  0  0
  -27.6344  -14.2555   19.4705 H   0  0  0  0  0  0
  -28.7163  -12.1771   21.4361 H   0  0  0  0  0  0
  -28.4136  -13.8573   21.7981 H   0  0  0  0  0  0
  -25.2768   -9.5700   22.4756 H   0  0  0  0  0  0
  -24.0017   -7.4644   22.7467 H   0  0  0  0  0  0
  -21.0849   -8.8777   19.8945 H   0  0  0  0  0  0
  -22.3704  -10.9679   19.6163 H   0  0  0  0  0  0
  -21.2011   -7.6151   23.9715 H   0  0  0  0  0  0
  -21.1480   -6.0524   25.9075 H   0  0  0  0  0  0
  -22.0598   -2.7612   23.2842 H   0  0  0  0  0  0
  -22.4100  -11.9872   22.4805 H   0  0  0  0  0  0
  -21.1093  -13.1228   22.2621 H   0  0  0  0  0  0
  -24.6522  -15.8464   20.5167 H   0  0  0  0  0  0
  -26.2667  -15.6330   20.0718 H   0  0  0  0  0  0
  -26.7206  -32.5388   23.1052 H   0  0  0  0  0  0
  -25.0085  -33.9682   25.0386 H   0  0  0  0  0  0
  -22.7249  -31.2995   21.3947 H   0  0  0  0  0  0
  -23.3753  -35.9616   23.3294 H   0  0  0  0  0  0
  -24.3583  -36.8917   22.2055 H   0  0  0  0  0  0
  -23.7249  -37.6481   23.6673 H   0  0  0  0  0  0
  -26.1128  -31.5253   20.6082 H   0  0  0  0  0  0
  -26.8508  -30.8129   22.0108 H   0  0  0  0  0  0
  -28.1103  -28.9118   21.2146 H   0  0  0  0  0  0
  -25.9228  -25.8844   19.0291 H   0  0  0  0  0  0
  -23.9678  -27.2991   19.0104 H   0  0  0  0  0  0
  -23.7713  -30.5872   19.4004 H   0  0  0  0  0  0
  -22.7632  -29.2458   19.8502 H   0  0  0  0  0  0
  -25.1305  -36.1905   25.0814 H   0  0  0  0  0  0
  -20.9991  -28.3286   24.1384 H   0  0  0  0  0  0
  -20.5685  -26.2312   23.3614 H   0  0  0  0  0  0
  -21.6651  -26.7444   22.1200 H   0  0  0  0  0  0
  -19.6922  -25.6293   21.1248 H   0  0  0  0  0  0
  -19.6700  -27.3188   20.6734 H   0  0  0  0  0  0
  -17.4209  -26.6675   21.4022 H   0  0  0  0  0  0
  -18.0341  -26.0076   22.9020 H   0  0  0  0  0  0
  -19.7942  -30.7285   24.2248 H   0  0  0  0  0  0
  -17.5018  -31.6267   24.5168 H   0  0  0  0  0  0
  -15.5356  -30.2981   23.7666 H   0  0  0  0  0  0
  -15.8680  -28.0825   22.7058 H   0  0  0  0  0  0
  -24.5907  -30.7074   25.7751 H   0  0  0  0  0  0
  -24.8917  -32.2899   26.4837 H   0  0  0  0  0  0
  -25.8040  -30.8912   27.0214 H   0  0  0  0  0  0
  -26.2947  -29.6723   24.1237 H   0  0  0  0  0  0
  -27.4041  -29.7267   25.4736 H   0  0  0  0  0  0
  -27.8826  -30.4257   23.9456 H   0  0  0  0  0  0
  -27.2661  -33.3625   26.2051 H   0  0  0  0  0  0
  -28.3882  -32.6867   25.0331 H   0  0  0  0  0  0
  -28.0710  -31.8455   26.5425 H   0  0  0  0  0  0
  -28.2591  -38.0099   24.7509 H   0  0  0  0  0  0
  -28.1081  -36.2629   24.6292 H   0  0  0  0  0  0
  -27.2296  -37.1448   25.8866 H   0  0  0  0  0  0
  -20.9394  -29.8762   21.6848 H   0  0  0  0  0  0
  -26.0167  -38.2837   24.1403 H   0  0  0  0  0  0
  -29.0836  -23.1748   17.6305 H   0  0  0  0  0  0
  -27.7541  -22.1603   18.1679 H   0  0  0  0  0  0
  -29.2623  -21.4469   17.6679 H   0  0  0  0  0  0
  -31.0269  -23.7131   19.2228 H   0  0  0  0  0  0
  -31.5033  -22.0512   19.3498 H   0  0  0  0  0  0
  -31.1232  -22.9416   20.7930 H   0  0  0  0  0  0
  -27.6517  -24.9438   18.7525 H   0  0  0  0  0  0
  -29.3459  -25.1442   18.8958 H   0  0  0  0  0  0
  -28.5090  -21.0343   21.1245 H   0  0  0  0  0  0
  -28.9584  -15.7173   21.1417 H   0  0  0  0  0  0
  1 25  1  0  0  0
  1 30  2  0  0  0
  1 81  1  0  0  0
  2  3  1  0  0  0
  2 25  1  0  0  0
  2 85  1  0  0  0
  2 86  1  0  0  0
  3  4  1  0  0  0
  3 87  1  0  0  0
  3 88  1  0  0  0
  4  5  1  0  0  0
  4 89  1  0  0  0
  4 90  1  0  0  0
  5  6  1  0  0  0
  5 26  1  0  0  0
  5 91  1  0  0  0
  6 25  1  0  0  0
  6 92  1  0  0  0
  6 93  1  0  0  0
  7  8  2  0  0  0
  7 26  1  0  0  0
  7 29  1  0  0  0
  8  9  1  0  0  0
  8 22  1  0  0  0
  9 10  1  0  0  0
  9 27  2  0  0  0
 10 11  2  0  0  0
 10 15  1  0  0  0
 11 12  1  0  0  0
 11 94  1  0  0  0
 12 13  2  0  0  0
 12 95  1  0  0  0
 13 14  1  0  0  0
 13 31  1  0  0  0
 14 15  2  0  0  0
 14 96  1  0  0  0
 15 97  1  0  0  0
 16 17  2  0  0  0
 16 21  1  0  0  0
 16 31  1  0  0  0
 17 18  1  0  0  0
 17 98  1  0  0  0
 18 19  2  0  0  0
 18 99  1  0  0  0
 19 20  1  0  0  0
 19 24  1  0  0  0
 20 21  2  0  0  0
 20100  1  0  0  0
 21 23  1  0  0  0
 22 28  1  0  0  0
 22 32  2  0  0  0
 26 27  1  0  0  0
 28101  1  0  0  0
 28102  1  0  0  0
 29103  1  0  0  0
 29104  1  0  0  0
 33 34  1  0  0  0
 33 66  1  0  0  0
 33 70  2  0  0  0
 34 36  1  0  0  0
 34 59  1  0  0  0
 34105  1  0  0  0
 35 44  2  0  0  0
 35 45  1  0  0  0
 35 68  1  0  0  0
 36 56  1  0  0  0
 36106  1  0  0  0
 37 39  1  0  0  0
 37 47  1  0  0  0
 37 66  1  0  0  0
 37107  1  0  0  0
 38 43  2  0  0  0
 38 46  1  0  0  0
 38 47  1  0  0  0
 39 64  1  0  0  0
 39 67  2  0  0  0
 40 52  1  0  0  0
 40 53  2  0  0  0
 40 58  1  0  0  0
 41108  1  0  0  0
 41109  1  0  0  0
 41110  1  0  0  0
 41 48  1  0  0  0
 42 43  1  0  0  0
 42 66  1  0  0  0
 42111  1  0  0  0
 42112  1  0  0  0
 43 44  1  0  0  0
 44113  1  0  0  0
 45 46  2  0  0  0
 45114  1  0  0  0
 46115  1  0  0  0
 47116  1  0  0  0
 47117  1  0  0  0
 48 56  1  0  0  0
 48 65  1  0  0  0
 48118  1  0  0  0
 49 50  1  0  0  0
 49 53  1  0  0  0
 49 64  1  0  0  0
 49119  1  0  0  0
 50 51  1  0  0  0
 50120  1  0  0  0
 50121  1  0  0  0
 51 52  1  0  0  0
 51122  1  0  0  0
 51123  1  0  0  0
 52124  1  0  0  0
 52125  1  0  0  0
 53 54  1  0  0  0
 54 55  2  0  0  0
 54126  1  0  0  0
 55 57  1  0  0  0
 55127  1  0  0  0
 56 69  2  0  0  0
 57 58  2  0  0  0
 57128  1  0  0  0
 58129  1  0  0  0
 59 60  1  0  0  0
 59 61  1  0  0  0
 59 62  1  0  0  0
 60130  1  0  0  0
 60131  1  0  0  0
 60132  1  0  0  0
 61133  1  0  0  0
 61134  1  0  0  0
 61135  1  0  0  0
 62136  1  0  0  0
 62137  1  0  0  0
 62138  1  0  0  0
 63 65  1  0  0  0
 63139  1  0  0  0
 63140  1  0  0  0
 63141  1  0  0  0
 64142  1  0  0  0
 65143  1  0  0  0
 68 77  1  0  0  0
 71 72  2  0  0  0
 71 79  1  0  0  0
 71 80  1  0  0  0
 72 83  1  0  0  0
 72 84  1  0  0  0
 73 79  2  0  0  0
 73 81  1  0  0  0
 73 84  1  0  0  0
 74 77  1  0  0  0
 74 78  1  0  0  0
 74 82  2  0  0  0
 75144  1  0  0  0
 75145  1  0  0  0
 75146  1  0  0  0
 75 78  1  0  0  0
 76 78  1  0  0  0
 76147  1  0  0  0
 76148  1  0  0  0
 76149  1  0  0  0
 77150  1  0  0  0
 77151  1  0  0  0
 78 80  1  0  0  0
 80152  1  0  0  0
 81153  1  0  0  0
M  ISO  4   1 100  68 101  77 101  81 100
M  END
> <chiral flag>
0

> <version>
0

> <s_m_source_file>
/data/baiqing/PycharmProjects/Reinvent-master-3.2/result/LINK_invent/BTK/process_docking_weight1_custom_product_contain_oxygen_bond_distance_aromatic_linkinvent_7_9_3/rearranged_h_0183.sdf

> <i_m_source_file_index>
54

> <r_mmod_Potential_Energy-OPLS-2005>
173.878570556641

> <r_mmod_Stretch_Energy-OPLS-2005>
138.616546630859

> <r_mmod_Bend_Energy-OPLS-2005>
188.929901123047

> <r_mmod_Torsional_Energy-OPLS-2005>
217.367797851562

> <r_mmod_Improper_Torsional_Energy-OPLS-2005>
4.01025485992432

> <r_mmod_Van_der_Waal_Energy-OPLS-2005>
127.921058654785

> <r_mmod_Electrostatic_Energy-OPLS-2005>
-359.539825439453

> <r_mmod_Solvation_Energy-OPLS-2005>
-231.258056640625

> <b_mmod_Minimization_Converged-OPLS-2005>
0

> <r_mmod_RMS_Derivative-OPLS-2005>
0.597104430198669

$$$$
54
                    3D
 Structure written by MMmdl.
147155  0  0  1  0            999 V2000
  -30.6174  -14.7687   20.4550 C   0  0  0  0  0  0
  -30.4289  -12.4710   19.4787 C   0  0  0  0  0  0
  -29.5083  -12.5025   18.2392 C   0  0  0  0  0  0
  -28.0367  -12.3213   18.6559 C   0  0  0  0  0  0
  -27.6373  -13.2336   19.8458 C   0  0  2  0  0  0
  -28.6816  -13.1930   20.9824 C   0  0  0  0  0  0
  -25.2493  -13.8201   20.5698 C   0  0  0  0  0  0
  -24.1791  -13.0442   20.9219 C   0  0  0  0  0  0
  -24.6388  -11.6920   20.8761 C   0  0  0  0  0  0
  -23.9072  -10.4295   21.0415 C   0  0  0  0  0  0
  -24.3624   -9.4207   21.9190 C   0  0  0  0  0  0
  -23.6295   -8.2242   22.0756 C   0  0  0  0  0  0
  -22.4278   -8.0284   21.3544 C   0  0  0  0  0  0
  -21.9917   -9.0259   20.4647 C   0  0  0  0  0  0
  -22.7247  -10.2136   20.3058 C   0  0  0  0  0  0
  -21.6852   -6.0738   22.5281 C   0  0  0  0  0  0
  -21.4015   -6.5642   23.8213 C   0  0  0  0  0  0
  -21.3659   -5.6793   24.9176 C   0  0  0  0  0  0
  -21.6042   -4.3054   24.7223 C   0  0  0  0  0  0
  -21.8820   -3.8150   23.4343 C   0  0  0  0  0  0
  -21.9193   -4.6968   22.3404 C   0  0  0  0  0  0
  -22.7810  -13.5221   21.1873 C   0  0  0  0  0  0
  -22.1661   -4.2154   21.0980 F   0  0  0  0  0  0
  -21.5628   -3.4540   25.7735 F   0  0  0  0  0  0
  -29.9784  -13.5474   20.3939 N   0  0  0  0  0  0
  -26.2913  -12.9410   20.3270 N   0  0  0  0  0  0
  -25.9317  -11.6551   20.5761 N   0  0  0  0  0  0
  -22.0459  -12.8208   22.0426 N   0  0  0  0  0  0
  -25.4175  -15.1926   20.4104 N   0  0  0  0  0  0
  -31.8152  -14.8178   20.1607 O   0  0  0  0  0  0
  -21.6639   -6.8881   21.4241 O   0  0  0  0  0  0
  -22.3498  -14.5527   20.6722 O   0  0  0  0  0  0
  -24.6336  -31.8524   23.1965 C   0  0  0  0  0  0
  -25.9151  -32.4736   23.8316 C   0  0  1  0  0  0
  -27.2178  -27.2381   20.1347 C   0  0  0  0  0  0
  -25.5942  -33.8538   24.2232 N   0  0  0  0  0  0
  -23.4312  -30.4751   21.5398 C   0  0  2  0  0  0
  -24.8790  -28.9187   20.1098 C   0  0  0  0  0  0
  -22.7517  -29.4588   22.4894 C   0  0  0  0  0  0
  -18.0294  -28.1389   22.8486 C   0  0  0  0  0  0
  -24.1493  -36.7273   23.2638 C   0  0  0  0  0  0
  -25.9794  -30.7593   21.3796 C   0  0  0  0  0  0
  -26.0512  -29.3797   20.7213 C   0  0  0  0  0  0
  -27.2232  -28.5526   20.7210 C   0  0  0  0  0  0
  -26.0225  -26.8555   19.4845 C   0  0  0  0  0  0
  -24.8708  -27.6660   19.4798 C   0  0  0  0  0  0
  -23.6509  -29.8083   20.1566 C   0  0  0  0  0  0
  -25.4122  -36.3050   24.0318 C   0  0  1  0  0  0
  -20.5905  -28.3702   23.1264 C   0  0  2  0  0  0
  -20.6780  -26.9415   22.5404 C   0  0  0  0  0  0
  -19.5754  -26.6383   21.5210 C   0  0  0  0  0  0
  -18.1938  -26.7928   22.1626 C   0  0  0  0  0  0
  -19.1551  -28.8862   23.2870 C   0  0  0  0  0  0
  -18.9469  -30.1464   23.8883 C   0  0  0  0  0  0
  -17.6467  -30.6589   24.0565 C   0  0  0  0  0  0
  -25.9062  -34.9424   23.5075 C   0  0  0  0  0  0
  -16.5360  -29.9083   23.6337 C   0  0  0  0  0  0
  -16.7277  -28.6505   23.0352 C   0  0  0  0  0  0
  -26.4509  -31.6573   25.0714 C   0  0  0  0  0  0
  -25.3727  -31.3737   26.1429 C   0  0  0  0  0  0
  -27.0358  -30.2985   24.6215 C   0  0  0  0  0  0
  -27.6055  -32.4320   25.7496 C   0  0  0  0  0  0
  -27.5572  -37.1795   24.8466 C   0  0  0  0  0  0
  -21.4220  -29.3043   22.3643 N   0  0  0  0  0  0
  -26.4288  -37.3757   23.9400 N   0  0  0  0  0  0
  -24.7005  -31.0479   22.0945 N   0  0  0  0  0  0
  -23.4212  -28.8120   23.2992 O   0  0  0  0  0  0
  -28.3015  -26.3228   20.2124 O   0  0  0  0  0  0
  -26.5639  -34.8905   22.4644 O   0  0  0  0  0  0
  -23.5482  -32.1344   23.7258 O   0  0  0  0  0  0
  -30.1896  -19.7642   20.5843 C   0  0  0  0  0  0
  -31.5306  -19.5069   20.7153 C   0  0  0  0  0  0
  -30.2855  -17.3627   20.6103 C   0  0  0  0  0  0
  -28.8173  -22.0962   20.3789 C   0  0  0  0  0  0
  -28.0590  -24.8344   20.0188 C   0  0  0  0  0  0
  -29.1087  -23.6859   20.5078 C   0  0  2  0  0  0
  -29.4692  -18.4948   20.5339 N   0  0  0  0  0  0
  -29.8707  -21.2205   20.5653 N   0  0  0  0  0  0
  -29.8601  -15.9325   20.6089 N   0  0  0  0  0  0
  -27.6761  -21.6969   20.1348 O   0  0  0  0  0  0
  -32.4654  -20.4852   20.8091 F   0  0  0  0  0  0
  -30.2833  -23.9246   19.9172 F   0  0  0  0  0  0
  -31.9879  -17.8267   20.7641 S   0  0  0  0  0  0
  -31.4689  -12.5923   19.1722 H   0  0  0  0  0  0
  -30.3774  -11.5012   19.9763 H   0  0  0  0  0  0
  -29.7962  -11.7216   17.5338 H   0  0  0  0  0  0
  -29.6275  -13.4512   17.7135 H   0  0  0  0  0  0
  -27.9038  -11.2750   18.9350 H   0  0  0  0  0  0
  -27.3762  -12.4945   17.8058 H   0  0  0  0  0  0
  -27.6238  -14.2492   19.4495 H   0  0  0  0  0  0
  -28.7239  -12.2026   21.4388 H   0  0  0  0  0  0
  -28.4123  -13.8873   21.7801 H   0  0  0  0  0  0
  -25.2767   -9.5680   22.4769 H   0  0  0  0  0  0
  -24.0005   -7.4630   22.7473 H   0  0  0  0  0  0
  -21.0849   -8.8779   19.8948 H   0  0  0  0  0  0
  -22.3711  -10.9677   19.6168 H   0  0  0  0  0  0
  -21.2009   -7.6148   23.9719 H   0  0  0  0  0  0
  -21.1478   -6.0522   25.9078 H   0  0  0  0  0  0
  -22.0600   -2.7611   23.2842 H   0  0  0  0  0  0
  -22.4077  -11.9868   22.4810 H   0  0  0  0  0  0
  -21.1076  -13.1227   22.2635 H   0  0  0  0  0  0
  -24.6467  -15.8432   20.5209 H   0  0  0  0  0  0
  -26.2547  -15.6331   20.0524 H   0  0  0  0  0  0
  -26.7207  -32.5375   23.1049 H   0  0  0  0  0  0
  -25.0089  -33.9667   25.0379 H   0  0  0  0  0  0
  -22.7283  -31.2976   21.3916 H   0  0  0  0  0  0
  -23.3748  -35.9612   23.3306 H   0  0  0  0  0  0
  -24.3580  -36.8891   22.2048 H   0  0  0  0  0  0
  -23.7256  -37.6477   23.6667 H   0  0  0  0  0  0
  -26.1220  -31.5193   20.6104 H   0  0  0  0  0  0
  -26.8556  -30.8080   22.0142 H   0  0  0  0  0  0
  -28.1190  -28.8983   21.2179 H   0  0  0  0  0  0
  -25.9457  -25.8996   18.9884 H   0  0  0  0  0  0
  -23.9742  -27.3110   18.9913 H   0  0  0  0  0  0
  -23.7774  -30.5829   19.3992 H   0  0  0  0  0  0
  -22.7695  -29.2421   19.8517 H   0  0  0  0  0  0
  -25.1309  -36.1889   25.0810 H   0  0  0  0  0  0
  -20.9999  -28.3276   24.1387 H   0  0  0  0  0  0
  -20.5683  -26.2305   23.3608 H   0  0  0  0  0  0
  -21.6643  -26.7430   22.1198 H   0  0  0  0  0  0
  -19.6914  -25.6294   21.1240 H   0  0  0  0  0  0
  -19.6693  -27.3194   20.6742 H   0  0  0  0  0  0
  -17.4203  -26.6672   21.4035 H   0  0  0  0  0  0
  -18.0343  -26.0076   22.9030 H   0  0  0  0  0  0
  -19.7946  -30.7286   24.2244 H   0  0  0  0  0  0
  -17.5021  -31.6270   24.5160 H   0  0  0  0  0  0
  -15.5361  -30.2979   23.7669 H   0  0  0  0  0  0
  -15.8681  -28.0820   22.7072 H   0  0  0  0  0  0
  -24.5911  -30.7072   25.7766 H   0  0  0  0  0  0
  -24.8913  -32.2910   26.4825 H   0  0  0  0  0  0
  -25.8044  -30.8938   27.0224 H   0  0  0  0  0  0
  -26.2944  -29.6726   24.1230 H   0  0  0  0  0  0
  -27.4016  -29.7252   25.4748 H   0  0  0  0  0  0
  -27.8835  -30.4240   23.9477 H   0  0  0  0  0  0
  -27.2655  -33.3636   26.2032 H   0  0  0  0  0  0
  -28.3897  -32.6848   25.0351 H   0  0  0  0  0  0
  -28.0681  -31.8466   26.5450 H   0  0  0  0  0  0
  -28.2595  -38.0087   24.7499 H   0  0  0  0  0  0
  -28.1065  -36.2615   24.6320 H   0  0  0  0  0  0
  -27.2286  -37.1473   25.8869 H   0  0  0  0  0  0
  -20.9405  -29.8760   21.6846 H   0  0  0  0  0  0
  -26.0161  -38.2825   24.1406 H   0  0  0  0  0  0
  -27.8927  -24.6804   18.9520 H   0  0  0  0  0  0
  -27.1123  -24.5929   20.5042 H   0  0  0  0  0  0
  -29.2865  -23.8570   21.5686 H   0  0  0  0  0  0
  -30.7195  -21.7540   20.7073 H   0  0  0  0  0  0
  -28.8712  -15.7810   20.7191 H   0  0  0  0  0  0
  1 25  1  0  0  0
  1 30  2  0  0  0
  1 79  1  0  0  0
  2  3  1  0  0  0
  2 25  1  0  0  0
  2 84  1  0  0  0
  2 85  1  0  0  0
  3  4  1  0  0  0
  3 86  1  0  0  0
  3 87  1  0  0  0
  4  5  1  0  0  0
  4 88  1  0  0  0
  4 89  1  0  0  0
  5  6  1  0  0  0
  5 26  1  0  0  0
  5 90  1  0  0  0
  6 25  1  0  0  0
  6 91  1  0  0  0
  6 92  1  0  0  0
  7  8  2  0  0  0
  7 26  1  0  0  0
  7 29  1  0  0  0
  8  9  1  0  0  0
  8 22  1  0  0  0
  9 10  1  0  0  0
  9 27  2  0  0  0
 10 11  2  0  0  0
 10 15  1  0  0  0
 11 12  1  0  0  0
 11 93  1  0  0  0
 12 13  2  0  0  0
 12 94  1  0  0  0
 13 14  1  0  0  0
 13 31  1  0  0  0
 14 15  2  0  0  0
 14 95  1  0  0  0
 15 96  1  0  0  0
 16 17  2  0  0  0
 16 21  1  0  0  0
 16 31  1  0  0  0
 17 18  1  0  0  0
 17 97  1  0  0  0
 18 19  2  0  0  0
 18 98  1  0  0  0
 19 20  1  0  0  0
 19 24  1  0  0  0
 20 21  2  0  0  0
 20 99  1  0  0  0
 21 23  1  0  0  0
 22 28  1  0  0  0
 22 32  2  0  0  0
 26 27  1  0  0  0
 28100  1  0  0  0
 28101  1  0  0  0
 29102  1  0  0  0
 29103  1  0  0  0
 33 34  1  0  0  0
 33 66  1  0  0  0
 33 70  2  0  0  0
 34 36  1  0  0  0
 34 59  1  0  0  0
 34104  1  0  0  0
 35 44  2  0  0  0
 35 45  1  0  0  0
 35 68  1  0  0  0
 36 56  1  0  0  0
 36105  1  0  0  0
 37 39  1  0  0  0
 37 47  1  0  0  0
 37 66  1  0  0  0
 37106  1  0  0  0
 38 43  2  0  0  0
 38 46  1  0  0  0
 38 47  1  0  0  0
 39 64  1  0  0  0
 39 67  2  0  0  0
 40 52  1  0  0  0
 40 53  2  0  0  0
 40 58  1  0  0  0
 41107  1  0  0  0
 41108  1  0  0  0
 41109  1  0  0  0
 41 48  1  0  0  0
 42 43  1  0  0  0
 42 66  1  0  0  0
 42110  1  0  0  0
 42111  1  0  0  0
 43 44  1  0  0  0
 44112  1  0  0  0
 45 46  2  0  0  0
 45113  1  0  0  0
 46114  1  0  0  0
 47115  1  0  0  0
 47116  1  0  0  0
 48 56  1  0  0  0
 48 65  1  0  0  0
 48117  1  0  0  0
 49 50  1  0  0  0
 49 53  1  0  0  0
 49 64  1  0  0  0
 49118  1  0  0  0
 50 51  1  0  0  0
 50119  1  0  0  0
 50120  1  0  0  0
 51 52  1  0  0  0
 51121  1  0  0  0
 51122  1  0  0  0
 52123  1  0  0  0
 52124  1  0  0  0
 53 54  1  0  0  0
 54 55  2  0  0  0
 54125  1  0  0  0
 55 57  1  0  0  0
 55126  1  0  0  0
 56 69  2  0  0  0
 57 58  2  0  0  0
 57127  1  0  0  0
 58128  1  0  0  0
 59 60  1  0  0  0
 59 61  1  0  0  0
 59 62  1  0  0  0
 60129  1  0  0  0
 60130  1  0  0  0
 60131  1  0  0  0
 61132  1  0  0  0
 61133  1  0  0  0
 61134  1  0  0  0
 62135  1  0  0  0
 62136  1  0  0  0
 62137  1  0  0  0
 63 65  1  0  0  0
 63138  1  0  0  0
 63139  1  0  0  0
 63140  1  0  0  0
 64141  1  0  0  0
 65142  1  0  0  0
 68 75  1  0  0  0
 71 72  2  0  0  0
 71 77  1  0  0  0
 71 78  1  0  0  0
 72 81  1  0  0  0
 72 83  1  0  0  0
 73 77  2  0  0  0
 73 79  1  0  0  0
 73 83  1  0  0  0
 74 76  1  0  0  0
 74 78  1  0  0  0
 74 80  2  0  0  0
 75 76  1  0  0  0
 75143  1  0  0  0
 75144  1  0  0  0
 76 82  1  0  0  0
 76145  1  0  0  0
 78146  1  0  0  0
 79147  1  0  0  0
M  ISO  4   1 100  68 101  75 101  79 100
M  END
> <chiral flag>
0

> <version>
0

> <s_m_source_file>
/data/baiqing/PycharmProjects/Reinvent-master-3.2/result/LINK_invent/BTK/process_docking_weight1_custom_product_contain_oxygen_bond_distance_aromatic_linkinvent_7_9_3/rearranged_h_0183.sdf

> <i_m_source_file_index>
55

> <r_mmod_Potential_Energy-OPLS-2005>
124.146339416504

> <r_mmod_Stretch_Energy-OPLS-2005>
137.885620117188

> <r_mmod_Bend_Energy-OPLS-2005>
221.990615844727

> <r_mmod_Torsional_Energy-OPLS-2005>
199.65461730957

> <r_mmod_Improper_Torsional_Energy-OPLS-2005>
5.44532680511475

> <r_mmod_Van_der_Waal_Energy-OPLS-2005>
122.08088684082

> <r_mmod_Electrostatic_Energy-OPLS-2005>
-432.460571289062

> <r_mmod_Solvation_Energy-OPLS-2005>
-229.909744262695

> <b_mmod_Minimization_Converged-OPLS-2005>
0

> <r_mmod_RMS_Derivative-OPLS-2005>
1.02997398376465

$$$$
55
                    3D
 Structure written by MMmdl.
152160  0  0  1  0            999 V2000
  -30.5835  -14.8070   20.4448 C   0  0  0  0  0  0
  -30.4409  -12.4869   19.4835 C   0  0  0  0  0  0
  -29.5161  -12.5179   18.2446 C   0  0  0  0  0  0
  -28.0432  -12.3320   18.6564 C   0  0  0  0  0  0
  -27.6445  -13.2343   19.8545 C   0  0  2  0  0  0
  -28.6925  -13.1768   20.9902 C   0  0  0  0  0  0
  -25.2511  -13.8200   20.5691 C   0  0  0  0  0  0
  -24.1802  -13.0443   20.9220 C   0  0  0  0  0  0
  -24.6395  -11.6926   20.8754 C   0  0  0  0  0  0
  -23.9067  -10.4300   21.0400 C   0  0  0  0  0  0
  -24.3620   -9.4215   21.9184 C   0  0  0  0  0  0
  -23.6304   -8.2242   22.0740 C   0  0  0  0  0  0
  -22.4278   -8.0278   21.3538 C   0  0  0  0  0  0
  -21.9917   -9.0249   20.4634 C   0  0  0  0  0  0
  -22.7238  -10.2141   20.3049 C   0  0  0  0  0  0
  -21.6852   -6.0736   22.5285 C   0  0  0  0  0  0
  -21.4013   -6.5641   23.8220 C   0  0  0  0  0  0
  -21.3665   -5.6794   24.9181 C   0  0  0  0  0  0
  -21.6042   -4.3054   24.7234 C   0  0  0  0  0  0
  -21.8817   -3.8146   23.4350 C   0  0  0  0  0  0
  -21.9194   -4.6964   22.3405 C   0  0  0  0  0  0
  -22.7821  -13.5224   21.1898 C   0  0  0  0  0  0
  -22.1659   -4.2148   21.0986 F   0  0  0  0  0  0
  -21.5637   -3.4541   25.7747 F   0  0  0  0  0  0
  -29.9924  -13.5538   20.4147 N   0  0  0  0  0  0
  -26.2955  -12.9410   20.3305 N   0  0  0  0  0  0
  -25.9336  -11.6553   20.5765 N   0  0  0  0  0  0
  -22.0467  -12.8204   22.0435 N   0  0  0  0  0  0
  -25.4217  -15.1915   20.4070 N   0  0  0  0  0  0
  -31.7617  -14.9182   20.0902 O   0  0  0  0  0  0
  -21.6639   -6.8875   21.4239 O   0  0  0  0  0  0
  -22.3514  -14.5540   20.6746 O   0  0  0  0  0  0
  -24.6390  -31.8476   23.1901 C   0  0  0  0  0  0
  -25.9180  -32.4723   23.8269 C   0  0  1  0  0  0
  -27.2171  -27.2073   20.1291 C   0  0  0  0  0  0
  -25.5927  -33.8523   24.2181 N   0  0  0  0  0  0
  -23.4399  -30.4672   21.5353 C   0  0  2  0  0  0
  -24.8905  -28.9100   20.1000 C   0  0  0  0  0  0
  -22.7548  -29.4558   22.4882 C   0  0  0  0  0  0
  -18.0270  -28.1421   22.8467 C   0  0  0  0  0  0
  -24.1471  -36.7270   23.2638 C   0  0  0  0  0  0
  -25.9895  -30.7448   21.3785 C   0  0  0  0  0  0
  -26.0658  -29.3649   20.7135 C   0  0  0  0  0  0
  -27.2371  -28.5279   20.7128 C   0  0  0  0  0  0
  -26.0262  -26.8398   19.4714 C   0  0  0  0  0  0
  -24.8792  -27.6600   19.4631 C   0  0  0  0  0  0
  -23.6604  -29.7995   20.1528 C   0  0  0  0  0  0
  -25.4106  -36.3060   24.0308 C   0  0  1  0  0  0
  -20.5877  -28.3734   23.1230 C   0  0  2  0  0  0
  -20.6748  -26.9437   22.5397 C   0  0  0  0  0  0
  -19.5731  -26.6399   21.5190 C   0  0  0  0  0  0
  -18.1911  -26.7956   22.1611 C   0  0  0  0  0  0
  -19.1528  -28.8897   23.2839 C   0  0  0  0  0  0
  -18.9472  -30.1491   23.8873 C   0  0  0  0  0  0
  -17.6483  -30.6620   24.0560 C   0  0  0  0  0  0
  -25.9066  -34.9434   23.5067 C   0  0  0  0  0  0
  -16.5360  -29.9118   23.6354 C   0  0  0  0  0  0
  -16.7258  -28.6531   23.0372 C   0  0  0  0  0  0
  -26.4516  -31.6579   25.0712 C   0  0  0  0  0  0
  -25.3708  -31.3778   26.1417 C   0  0  0  0  0  0
  -27.0342  -30.2957   24.6281 C   0  0  0  0  0  0
  -27.6047  -32.4349   25.7507 C   0  0  0  0  0  0
  -27.5560  -37.1788   24.8466 C   0  0  0  0  0  0
  -21.4247  -29.3059   22.3627 N   0  0  0  0  0  0
  -26.4279  -37.3770   23.9409 N   0  0  0  0  0  0
  -24.7083  -31.0388   22.0908 N   0  0  0  0  0  0
  -23.4208  -28.8111   23.3021 O   0  0  0  0  0  0
  -28.2048  -26.1785   20.2607 O   0  0  0  0  0  0
  -26.5671  -34.8940   22.4656 O   0  0  0  0  0  0
  -23.5522  -32.1336   23.7153 O   0  0  0  0  0  0
  -30.4149  -19.5229   19.6777 C   0  0  0  0  0  0
  -29.3530  -20.0202   20.4349 C   0  0  0  0  0  0
  -29.8225  -17.3938   20.5397 C   0  0  0  0  0  0
  -28.1441  -23.6379   21.0833 C   0  0  0  0  0  0
  -27.8885  -25.0420   21.1026 C   0  0  0  0  0  0
  -28.9285  -22.6477   20.2231 C   0  0  0  0  0  0
  -31.3200  -20.3434   18.8084 C   0  0  0  0  0  0
  -27.0936  -25.5670   22.3212 C   0  0  0  0  0  0
  -30.6611  -18.1017   19.7517 N   0  0  0  0  0  0
  -28.8299  -21.3191   20.6818 N   0  0  0  0  0  0
  -29.7769  -15.9049   20.7488 N   0  0  0  0  0  0
  -29.5855  -22.9492   19.2254 O   0  0  0  0  0  0
  -27.5385  -22.9810   22.0934 O   0  0  0  0  0  0
  -28.6462  -18.5714   21.2434 S   0  0  0  0  0  0
  -31.4805  -12.6182   19.1809 H   0  0  0  0  0  0
  -30.3990  -11.5124   19.9730 H   0  0  0  0  0  0
  -29.8071  -11.7426   17.5338 H   0  0  0  0  0  0
  -29.6321  -13.4698   17.7230 H   0  0  0  0  0  0
  -27.9056  -11.2831   18.9227 H   0  0  0  0  0  0
  -27.3856  -12.5173   17.8058 H   0  0  0  0  0  0
  -27.6342  -14.2545   19.4694 H   0  0  0  0  0  0
  -28.7376  -12.1744   21.4195 H   0  0  0  0  0  0
  -28.4154  -13.8430   21.8093 H   0  0  0  0  0  0
  -25.2755   -9.5703   22.4773 H   0  0  0  0  0  0
  -24.0021   -7.4621   22.7447 H   0  0  0  0  0  0
  -21.0854   -8.8761   19.8924 H   0  0  0  0  0  0
  -22.3685  -10.9683   19.6163 H   0  0  0  0  0  0
  -21.1991   -7.6150   23.9724 H   0  0  0  0  0  0
  -21.1492   -6.0525   25.9090 H   0  0  0  0  0  0
  -22.0589   -2.7607   23.2856 H   0  0  0  0  0  0
  -22.4094  -11.9871   22.4832 H   0  0  0  0  0  0
  -21.1073  -13.1205   22.2619 H   0  0  0  0  0  0
  -24.6476  -15.8415   20.4882 H   0  0  0  0  0  0
  -26.2610  -15.6215   20.0414 H   0  0  0  0  0  0
  -26.7253  -32.5354   23.1003 H   0  0  0  0  0  0
  -24.9994  -33.9634   25.0280 H   0  0  0  0  0  0
  -22.7396  -31.2903   21.3856 H   0  0  0  0  0  0
  -23.3752  -35.9587   23.3328 H   0  0  0  0  0  0
  -24.3522  -36.8888   22.2045 H   0  0  0  0  0  0
  -23.7234  -37.6473   23.6670 H   0  0  0  0  0  0
  -26.1312  -31.5061   20.6103 H   0  0  0  0  0  0
  -26.8618  -30.7908   22.0191 H   0  0  0  0  0  0
  -28.1297  -28.8550   21.2266 H   0  0  0  0  0  0
  -25.9596  -25.8637   19.0124 H   0  0  0  0  0  0
  -23.9787  -27.3068   18.9796 H   0  0  0  0  0  0
  -23.7847  -30.5761   19.3970 H   0  0  0  0  0  0
  -22.7768  -29.2335   19.8503 H   0  0  0  0  0  0
  -25.1292  -36.1884   25.0797 H   0  0  0  0  0  0
  -20.9930  -28.3333   24.1370 H   0  0  0  0  0  0
  -20.5593  -26.2366   23.3633 H   0  0  0  0  0  0
  -21.6620  -26.7428   22.1223 H   0  0  0  0  0  0
  -19.6896  -25.6302   21.1243 H   0  0  0  0  0  0
  -19.6666  -27.3187   20.6702 H   0  0  0  0  0  0
  -17.4161  -26.6674   21.4040 H   0  0  0  0  0  0
  -18.0341  -26.0111   22.9022 H   0  0  0  0  0  0
  -19.7958  -30.7284   24.2248 H   0  0  0  0  0  0
  -17.5047  -31.6297   24.5168 H   0  0  0  0  0  0
  -15.5360  -30.3019   23.7715 H   0  0  0  0  0  0
  -15.8649  -28.0845   22.7124 H   0  0  0  0  0  0
  -24.5885  -30.7125   25.7743 H   0  0  0  0  0  0
  -24.8915  -32.2965   26.4797 H   0  0  0  0  0  0
  -25.7989  -30.8986   27.0228 H   0  0  0  0  0  0
  -26.2925  -29.6720   24.1277 H   0  0  0  0  0  0
  -27.3899  -29.7235   25.4860 H   0  0  0  0  0  0
  -27.8867  -30.4148   23.9598 H   0  0  0  0  0  0
  -27.2607  -33.3646   26.2047 H   0  0  0  0  0  0
  -28.3879  -32.6908   25.0362 H   0  0  0  0  0  0
  -28.0689  -31.8515   26.5470 H   0  0  0  0  0  0
  -28.2600  -38.0066   24.7481 H   0  0  0  0  0  0
  -28.1037  -36.2595   24.6324 H   0  0  0  0  0  0
  -27.2273  -37.1464   25.8873 H   0  0  0  0  0  0
  -20.9484  -29.8798   21.6817 H   0  0  0  0  0  0
  -26.0164  -38.2840   24.1445 H   0  0  0  0  0  0
  -31.7219  -21.1999   19.3497 H   0  0  0  0  0  0
  -30.7813  -20.7288   17.9420 H   0  0  0  0  0  0
  -32.1673  -19.7676   18.4360 H   0  0  0  0  0  0
  -27.2859  -25.0274   23.2487 H   0  0  0  0  0  0
  -26.0218  -25.5294   22.1166 H   0  0  0  0  0  0
  -27.3612  -26.5900   22.5807 H   0  0  0  0  0  0
  -28.1702  -21.3343   21.4511 H   0  0  0  0  0  0
  -28.9070  -15.6025   21.1570 H   0  0  0  0  0  0
  -27.0667  -23.6346   22.5930 H   0  0  0  0  0  0
  1 25  1  0  0  0
  1 30  2  0  0  0
  1 81  1  0  0  0
  2  3  1  0  0  0
  2 25  1  0  0  0
  2 85  1  0  0  0
  2 86  1  0  0  0
  3  4  1  0  0  0
  3 87  1  0  0  0
  3 88  1  0  0  0
  4  5  1  0  0  0
  4 89  1  0  0  0
  4 90  1  0  0  0
  5  6  1  0  0  0
  5 26  1  0  0  0
  5 91  1  0  0  0
  6 25  1  0  0  0
  6 92  1  0  0  0
  6 93  1  0  0  0
  7  8  2  0  0  0
  7 26  1  0  0  0
  7 29  1  0  0  0
  8  9  1  0  0  0
  8 22  1  0  0  0
  9 10  1  0  0  0
  9 27  2  0  0  0
 10 11  2  0  0  0
 10 15  1  0  0  0
 11 12  1  0  0  0
 11 94  1  0  0  0
 12 13  2  0  0  0
 12 95  1  0  0  0
 13 14  1  0  0  0
 13 31  1  0  0  0
 14 15  2  0  0  0
 14 96  1  0  0  0
 15 97  1  0  0  0
 16 17  2  0  0  0
 16 21  1  0  0  0
 16 31  1  0  0  0
 17 18  1  0  0  0
 17 98  1  0  0  0
 18 19  2  0  0  0
 18 99  1  0  0  0
 19 20  1  0  0  0
 19 24  1  0  0  0
 20 21  2  0  0  0
 20100  1  0  0  0
 21 23  1  0  0  0
 22 28  1  0  0  0
 22 32  2  0  0  0
 26 27  1  0  0  0
 28101  1  0  0  0
 28102  1  0  0  0
 29103  1  0  0  0
 29104  1  0  0  0
 33 34  1  0  0  0
 33 66  1  0  0  0
 33 70  2  0  0  0
 34 36  1  0  0  0
 34 59  1  0  0  0
 34105  1  0  0  0
 35 44  2  0  0  0
 35 45  1  0  0  0
 35 68  1  0  0  0
 36 56  1  0  0  0
 36106  1  0  0  0
 37 39  1  0  0  0
 37 47  1  0  0  0
 37 66  1  0  0  0
 37107  1  0  0  0
 38 43  2  0  0  0
 38 46  1  0  0  0
 38 47  1  0  0  0
 39 64  1  0  0  0
 39 67  2  0  0  0
 40 52  1  0  0  0
 40 53  2  0  0  0
 40 58  1  0  0  0
 41108  1  0  0  0
 41109  1  0  0  0
 41110  1  0  0  0
 41 48  1  0  0  0
 42 43  1  0  0  0
 42 66  1  0  0  0
 42111  1  0  0  0
 42112  1  0  0  0
 43 44  1  0  0  0
 44113  1  0  0  0
 45 46  2  0  0  0
 45114  1  0  0  0
 46115  1  0  0  0
 47116  1  0  0  0
 47117  1  0  0  0
 48 56  1  0  0  0
 48 65  1  0  0  0
 48118  1  0  0  0
 49 50  1  0  0  0
 49 53  1  0  0  0
 49 64  1  0  0  0
 49119  1  0  0  0
 50 51  1  0  0  0
 50120  1  0  0  0
 50121  1  0  0  0
 51 52  1  0  0  0
 51122  1  0  0  0
 51123  1  0  0  0
 52124  1  0  0  0
 52125  1  0  0  0
 53 54  1  0  0  0
 54 55  2  0  0  0
 54126  1  0  0  0
 55 57  1  0  0  0
 55127  1  0  0  0
 56 69  2  0  0  0
 57 58  2  0  0  0
 57128  1  0  0  0
 58129  1  0  0  0
 59 60  1  0  0  0
 59 61  1  0  0  0
 59 62  1  0  0  0
 60130  1  0  0  0
 60131  1  0  0  0
 60132  1  0  0  0
 61133  1  0  0  0
 61134  1  0  0  0
 61135  1  0  0  0
 62136  1  0  0  0
 62137  1  0  0  0
 62138  1  0  0  0
 63 65  1  0  0  0
 63139  1  0  0  0
 63140  1  0  0  0
 63141  1  0  0  0
 64142  1  0  0  0
 65143  1  0  0  0
 68 75  1  0  0  0
 71 72  2  0  0  0
 71 77  1  0  0  0
 71 79  1  0  0  0
 72 80  1  0  0  0
 72 84  1  0  0  0
 73 79  2  0  0  0
 73 81  1  0  0  0
 73 84  1  0  0  0
 74 75  2  0  0  0
 74 76  1  0  0  0
 74 83  1  0  0  0
 75 78  1  0  0  0
 76 80  1  0  0  0
 76 82  2  0  0  0
 77144  1  0  0  0
 77145  1  0  0  0
 77146  1  0  0  0
 78147  1  0  0  0
 78148  1  0  0  0
 78149  1  0  0  0
 80150  1  0  0  0
 81151  1  0  0  0
 83152  1  0  0  0
M  ISO  4   1 100  68 101  75 101  81 100
M  END
> <chiral flag>
0

> <version>
0

> <s_m_source_file>
/data/baiqing/PycharmProjects/Reinvent-master-3.2/result/LINK_invent/BTK/process_docking_weight1_custom_product_contain_oxygen_bond_distance_aromatic_linkinvent_7_9_3/rearranged_h_0183.sdf

> <i_m_source_file_index>
56

> <r_mmod_Potential_Energy-OPLS-2005>
246.10221862793

> <r_mmod_Stretch_Energy-OPLS-2005>
156.72477722168

> <r_mmod_Bend_Energy-OPLS-2005>
279.267608642578

> <r_mmod_Torsional_Energy-OPLS-2005>
220.294357299805

> <r_mmod_Improper_Torsional_Energy-OPLS-2005>
4.1617169380188

> <r_mmod_Van_der_Waal_Energy-OPLS-2005>
141.517379760742

> <r_mmod_Electrostatic_Energy-OPLS-2005>
-444.441162109375

> <r_mmod_Solvation_Energy-OPLS-2005>
-243.282165527344

> <b_mmod_Minimization_Converged-OPLS-2005>
0

> <r_mmod_RMS_Derivative-OPLS-2005>
2.75477266311646

$$$$
56
                    3D
 Structure written by MMmdl.
156164  0  0  1  0            999 V2000
  -30.6018  -14.7743   20.4433 C   0  0  0  0  0  0
  -30.4205  -12.4743   19.4824 C   0  0  0  0  0  0
  -29.5085  -12.5276   18.2362 C   0  0  0  0  0  0
  -28.0321  -12.3546   18.6368 C   0  0  0  0  0  0
  -27.6333  -13.2402   19.8469 C   0  0  2  0  0  0
  -28.6745  -13.1823   20.9867 C   0  0  0  0  0  0
  -25.2456  -13.8179   20.5680 C   0  0  0  0  0  0
  -24.1766  -13.0425   20.9192 C   0  0  0  0  0  0
  -24.6355  -11.6897   20.8698 C   0  0  0  0  0  0
  -23.9027  -10.4287   21.0373 C   0  0  0  0  0  0
  -24.3592   -9.4214   21.9155 C   0  0  0  0  0  0
  -23.6275   -8.2246   22.0740 C   0  0  0  0  0  0
  -22.4267   -8.0258   21.3514 C   0  0  0  0  0  0
  -21.9884   -9.0221   20.4620 C   0  0  0  0  0  0
  -22.7188  -10.2112   20.3027 C   0  0  0  0  0  0
  -21.6871   -6.0706   22.5258 C   0  0  0  0  0  0
  -21.4021   -6.5615   23.8167 C   0  0  0  0  0  0
  -21.3671   -5.6783   24.9144 C   0  0  0  0  0  0
  -21.6073   -4.3043   24.7213 C   0  0  0  0  0  0
  -21.8822   -3.8116   23.4342 C   0  0  0  0  0  0
  -21.9196   -4.6932   22.3385 C   0  0  0  0  0  0
  -22.7777  -13.5195   21.1850 C   0  0  0  0  0  0
  -22.1674   -4.2112   21.0970 F   0  0  0  0  0  0
  -21.5636   -3.4537   25.7741 F   0  0  0  0  0  0
  -29.9752  -13.5451   20.4079 N   0  0  0  0  0  0
  -26.2880  -12.9408   20.3236 N   0  0  0  0  0  0
  -25.9290  -11.6540   20.5668 N   0  0  0  0  0  0
  -22.0473  -12.8170   22.0423 N   0  0  0  0  0  0
  -25.4169  -15.1911   20.4126 N   0  0  0  0  0  0
  -31.7974  -14.8390   20.1378 O   0  0  0  0  0  0
  -21.6653   -6.8844   21.4207 O   0  0  0  0  0  0
  -22.3460  -14.5499   20.6694 O   0  0  0  0  0  0
  -24.6373  -31.8494   23.1922 C   0  0  0  0  0  0
  -25.9173  -32.4713   23.8307 C   0  0  1  0  0  0
  -27.2331  -27.2516   20.1323 C   0  0  0  0  0  0
  -25.5920  -33.8520   24.2216 N   0  0  0  0  0  0
  -23.4358  -30.4674   21.5379 C   0  0  2  0  0  0
  -24.8832  -28.8973   20.1211 C   0  0  0  0  0  0
  -22.7545  -29.4572   22.4933 C   0  0  0  0  0  0
  -18.0298  -28.1399   22.8482 C   0  0  0  0  0  0
  -24.1474  -36.7303   23.2639 C   0  0  0  0  0  0
  -25.9807  -30.7588   21.3673 C   0  0  0  0  0  0
  -26.0560  -29.3752   20.7224 C   0  0  0  0  0  0
  -27.2377  -28.5658   20.7108 C   0  0  0  0  0  0
  -26.0351  -26.8276   19.5235 C   0  0  0  0  0  0
  -24.8779  -27.6322   19.5092 C   0  0  0  0  0  0
  -23.6548  -29.7852   20.1608 C   0  0  0  0  0  0
  -25.4094  -36.3048   24.0323 C   0  0  1  0  0  0
  -20.5902  -28.3705   23.1265 C   0  0  2  0  0  0
  -20.6770  -26.9416   22.5403 C   0  0  0  0  0  0
  -19.5740  -26.6390   21.5204 C   0  0  0  0  0  0
  -18.1929  -26.7941   22.1625 C   0  0  0  0  0  0
  -19.1549  -28.8871   23.2867 C   0  0  0  0  0  0
  -18.9465  -30.1468   23.8894 C   0  0  0  0  0  0
  -17.6460  -30.6590   24.0562 C   0  0  0  0  0  0
  -25.9055  -34.9419   23.5080 C   0  0  0  0  0  0
  -16.5353  -29.9091   23.6328 C   0  0  0  0  0  0
  -16.7283  -28.6510   23.0353 C   0  0  0  0  0  0
  -26.4530  -31.6559   25.0721 C   0  0  0  0  0  0
  -25.3761  -31.3699   26.1448 C   0  0  0  0  0  0
  -27.0372  -30.2972   24.6192 C   0  0  0  0  0  0
  -27.6066  -32.4308   25.7518 C   0  0  0  0  0  0
  -27.5573  -37.1790   24.8465 C   0  0  0  0  0  0
  -21.4239  -29.3054   22.3680 N   0  0  0  0  0  0
  -26.4267  -37.3757   23.9429 N   0  0  0  0  0  0
  -24.7056  -31.0437   22.0900 N   0  0  0  0  0  0
  -23.4243  -28.8123   23.3042 O   0  0  0  0  0  0
  -28.3477  -26.3868   20.0707 O   0  0  0  0  0  0
  -26.5643  -34.8919   22.4658 O   0  0  0  0  0  0
  -23.5503  -32.1320   23.7213 O   0  0  0  0  0  0
  -30.9422  -19.5168   19.3029 C   0  0  0  0  0  0
  -29.7834  -19.7258   20.0403 C   0  0  0  0  0  0
  -30.1316  -17.3472   20.2991 C   0  0  0  0  0  0
  -28.7523  -23.7265   19.9907 C   0  0  0  0  0  0
  -30.8664  -22.5311   20.9167 C   0  0  0  0  0  0
  -29.2402  -25.3263   22.0041 C   0  0  0  0  0  0
  -29.3467  -22.3655   20.7081 C   0  0  2  0  0  0
  -28.3263  -25.0700   20.7984 C   0  0  1  0  0  0
  -31.7051  -20.4309   18.3907 C   0  0  0  0  0  0
  -29.3323  -18.4418   20.5536 N   0  0  0  0  0  0
  -29.0068  -20.9768   20.1492 N   0  0  0  0  0  0
  -29.8375  -15.9254   20.6384 N   0  0  0  0  0  0
  -28.6062  -23.7369   18.7676 O   0  0  0  0  0  0
  -30.9623  -21.4225   17.9023 F   0  0  0  0  0  0
  -32.7699  -20.9568   18.9956 F   0  0  0  0  0  0
  -32.1662  -19.7663   17.3299 F   0  0  0  0  0  0
  -31.5495  -17.8607   19.4062 S   0  0  0  0  0  0
  -31.4661  -12.5879   19.1930 H   0  0  0  0  0  0
  -30.3549  -11.5012   19.9720 H   0  0  0  0  0  0
  -29.7938  -11.7519   17.5268 H   0  0  0  0  0  0
  -29.6414  -13.4773   17.7153 H   0  0  0  0  0  0
  -27.8741  -11.3027   18.8736 H   0  0  0  0  0  0
  -27.3864  -12.5689   17.7833 H   0  0  0  0  0  0
  -27.6199  -14.2612   19.4659 H   0  0  0  0  0  0
  -28.7169  -12.1807   21.4212 H   0  0  0  0  0  0
  -28.4002  -13.8592   21.7963 H   0  0  0  0  0  0
  -25.2743   -9.5705   22.4715 H   0  0  0  0  0  0
  -23.9991   -7.4647   22.7473 H   0  0  0  0  0  0
  -21.0811   -8.8687   19.8937 H   0  0  0  0  0  0
  -22.3596  -10.9628   19.6129 H   0  0  0  0  0  0
  -21.2007   -7.6128   23.9647 H   0  0  0  0  0  0
  -21.1516   -6.0534   25.9040 H   0  0  0  0  0  0
  -22.0603   -2.7585   23.2849 H   0  0  0  0  0  0
  -22.4149  -11.9866   22.4815 H   0  0  0  0  0  0
  -21.1070  -13.1120   22.2629 H   0  0  0  0  0  0
  -24.6478  -15.8457   20.5074 H   0  0  0  0  0  0
  -26.2608  -15.6285   20.0669 H   0  0  0  0  0  0
  -26.7257  -32.5370   23.1073 H   0  0  0  0  0  0
  -25.0026  -33.9635   25.0325 H   0  0  0  0  0  0
  -22.7329  -31.2884   21.3814 H   0  0  0  0  0  0
  -23.3723  -35.9653   23.3269 H   0  0  0  0  0  0
  -24.3568  -36.8964   22.2064 H   0  0  0  0  0  0
  -23.7248  -37.6496   23.6701 H   0  0  0  0  0  0
  -26.1053  -31.5041   20.5807 H   0  0  0  0  0  0
  -26.8638  -30.8235   21.9930 H   0  0  0  0  0  0
  -28.1482  -28.9316   21.1670 H   0  0  0  0  0  0
  -25.9927  -25.8531   19.0557 H   0  0  0  0  0  0
  -23.9804  -27.2634   19.0307 H   0  0  0  0  0  0
  -23.7833  -30.5502   19.3945 H   0  0  0  0  0  0
  -22.7721  -29.2158   19.8590 H   0  0  0  0  0  0
  -25.1264  -36.1876   25.0814 H   0  0  0  0  0  0
  -20.9976  -28.3272   24.1392 H   0  0  0  0  0  0
  -20.5632  -26.2323   23.3626 H   0  0  0  0  0  0
  -21.6645  -26.7406   22.1212 H   0  0  0  0  0  0
  -19.6892  -25.6294   21.1257 H   0  0  0  0  0  0
  -19.6671  -27.3190   20.6732 H   0  0  0  0  0  0
  -17.4189  -26.6693   21.4042 H   0  0  0  0  0  0
  -18.0315  -26.0078   22.9014 H   0  0  0  0  0  0
  -19.7936  -30.7281   24.2285 H   0  0  0  0  0  0
  -17.5011  -31.6268   24.5166 H   0  0  0  0  0  0
  -15.5353  -30.2987   23.7651 H   0  0  0  0  0  0
  -15.8692  -28.0827   22.7067 H   0  0  0  0  0  0
  -24.5953  -30.7011   25.7802 H   0  0  0  0  0  0
  -24.8954  -32.2862   26.4880 H   0  0  0  0  0  0
  -25.8109  -30.8901   27.0228 H   0  0  0  0  0  0
  -26.2941  -29.6710   24.1239 H   0  0  0  0  0  0
  -27.4068  -29.7231   25.4701 H   0  0  0  0  0  0
  -27.8814  -30.4233   23.9411 H   0  0  0  0  0  0
  -27.2642  -33.3598   26.2093 H   0  0  0  0  0  0
  -28.3906  -32.6875   25.0380 H   0  0  0  0  0  0
  -28.0719  -31.8447   26.5450 H   0  0  0  0  0  0
  -28.2554  -38.0118   24.7509 H   0  0  0  0  0  0
  -28.1088  -36.2640   24.6252 H   0  0  0  0  0  0
  -27.2315  -37.1405   25.8874 H   0  0  0  0  0  0
  -20.9469  -29.8792   21.6862 H   0  0  0  0  0  0
  -26.0133  -38.2827   24.1419 H   0  0  0  0  0  0
  -31.0904  -23.3650   21.5740 H   0  0  0  0  0  0
  -31.3910  -22.7291   19.9839 H   0  0  0  0  0  0
  -31.3152  -21.6584   21.3906 H   0  0  0  0  0  0
  -29.1763  -24.5324   22.7463 H   0  0  0  0  0  0
  -28.9614  -26.2558   22.5012 H   0  0  0  0  0  0
  -30.2781  -25.4304   21.6850 H   0  0  0  0  0  0
  -28.9045  -22.3558   21.7055 H   0  0  0  0  0  0
  -27.3129  -24.9099   21.1715 H   0  0  0  0  0  0
  -28.0305  -20.7641   20.3342 H   0  0  0  0  0  0
  -28.8940  -15.7540   20.9446 H   0  0  0  0  0  0
  1 25  1  0  0  0
  1 30  2  0  0  0
  1 82  1  0  0  0
  2  3  1  0  0  0
  2 25  1  0  0  0
  2 88  1  0  0  0
  2 89  1  0  0  0
  3  4  1  0  0  0
  3 90  1  0  0  0
  3 91  1  0  0  0
  4  5  1  0  0  0
  4 92  1  0  0  0
  4 93  1  0  0  0
  5  6  1  0  0  0
  5 26  1  0  0  0
  5 94  1  0  0  0
  6 25  1  0  0  0
  6 95  1  0  0  0
  6 96  1  0  0  0
  7  8  2  0  0  0
  7 26  1  0  0  0
  7 29  1  0  0  0
  8  9  1  0  0  0
  8 22  1  0  0  0
  9 10  1  0  0  0
  9 27  2  0  0  0
 10 11  2  0  0  0
 10 15  1  0  0  0
 11 12  1  0  0  0
 11 97  1  0  0  0
 12 13  2  0  0  0
 12 98  1  0  0  0
 13 14  1  0  0  0
 13 31  1  0  0  0
 14 15  2  0  0  0
 14 99  1  0  0  0
 15100  1  0  0  0
 16 17  2  0  0  0
 16 21  1  0  0  0
 16 31  1  0  0  0
 17 18  1  0  0  0
 17101  1  0  0  0
 18 19  2  0  0  0
 18102  1  0  0  0
 19 20  1  0  0  0
 19 24  1  0  0  0
 20 21  2  0  0  0
 20103  1  0  0  0
 21 23  1  0  0  0
 22 28  1  0  0  0
 22 32  2  0  0  0
 26 27  1  0  0  0
 28104  1  0  0  0
 28105  1  0  0  0
 29106  1  0  0  0
 29107  1  0  0  0
 33 34  1  0  0  0
 33 66  1  0  0  0
 33 70  2  0  0  0
 34 36  1  0  0  0
 34 59  1  0  0  0
 34108  1  0  0  0
 35 44  2  0  0  0
 35 45  1  0  0  0
 35 68  1  0  0  0
 36 56  1  0  0  0
 36109  1  0  0  0
 37 39  1  0  0  0
 37 47  1  0  0  0
 37 66  1  0  0  0
 37110  1  0  0  0
 38 43  2  0  0  0
 38 46  1  0  0  0
 38 47  1  0  0  0
 39 64  1  0  0  0
 39 67  2  0  0  0
 40 52  1  0  0  0
 40 53  2  0  0  0
 40 58  1  0  0  0
 41111  1  0  0  0
 41112  1  0  0  0
 41113  1  0  0  0
 41 48  1  0  0  0
 42 43  1  0  0  0
 42 66  1  0  0  0
 42114  1  0  0  0
 42115  1  0  0  0
 43 44  1  0  0  0
 44116  1  0  0  0
 45 46  2  0  0  0
 45117  1  0  0  0
 46118  1  0  0  0
 47119  1  0  0  0
 47120  1  0  0  0
 48 56  1  0  0  0
 48 65  1  0  0  0
 48121  1  0  0  0
 49 50  1  0  0  0
 49 53  1  0  0  0
 49 64  1  0  0  0
 49122  1  0  0  0
 50 51  1  0  0  0
 50123  1  0  0  0
 50124  1  0  0  0
 51 52  1  0  0  0
 51125  1  0  0  0
 51126  1  0  0  0
 52127  1  0  0  0
 52128  1  0  0  0
 53 54  1  0  0  0
 54 55  2  0  0  0
 54129  1  0  0  0
 55 57  1  0  0  0
 55130  1  0  0  0
 56 69  2  0  0  0
 57 58  2  0  0  0
 57131  1  0  0  0
 58132  1  0  0  0
 59 60  1  0  0  0
 59 61  1  0  0  0
 59 62  1  0  0  0
 60133  1  0  0  0
 60134  1  0  0  0
 60135  1  0  0  0
 61136  1  0  0  0
 61137  1  0  0  0
 61138  1  0  0  0
 62139  1  0  0  0
 62140  1  0  0  0
 62141  1  0  0  0
 63 65  1  0  0  0
 63142  1  0  0  0
 63143  1  0  0  0
 63144  1  0  0  0
 64145  1  0  0  0
 65146  1  0  0  0
 68 78  1  0  0  0
 71 72  2  0  0  0
 71 79  1  0  0  0
 71 87  1  0  0  0
 72 80  1  0  0  0
 72 81  1  0  0  0
 73 80  2  0  0  0
 73 82  1  0  0  0
 73 87  1  0  0  0
 74 77  1  0  0  0
 74 78  1  0  0  0
 74 83  2  0  0  0
 75147  1  0  0  0
 75148  1  0  0  0
 75149  1  0  0  0
 75 77  1  0  0  0
 76150  1  0  0  0
 76151  1  0  0  0
 76152  1  0  0  0
 76 78  1  0  0  0
 77 81  1  0  0  0
 77153  1  0  0  0
 78154  1  0  0  0
 79 84  1  0  0  0
 79 85  1  0  0  0
 79 86  1  0  0  0
 81155  1  0  0  0
 82156  1  0  0  0
M  ISO  4   1 100  68 101  78 101  82 100
M  END
> <chiral flag>
0

> <version>
0

> <s_m_source_file>
/data/baiqing/PycharmProjects/Reinvent-master-3.2/result/LINK_invent/BTK/process_docking_weight1_custom_product_contain_oxygen_bond_distance_aromatic_linkinvent_7_9_3/rearranged_h_0183.sdf

> <i_m_source_file_index>
57

> <r_mmod_Potential_Energy-OPLS-2005>
184.222106933594

> <r_mmod_Stretch_Energy-OPLS-2005>
140.197830200195

> <r_mmod_Bend_Energy-OPLS-2005>
183.86393737793

> <r_mmod_Torsional_Energy-OPLS-2005>
259.338256835938

> <r_mmod_Improper_Torsional_Energy-OPLS-2005>
8.22502326965332

> <r_mmod_Van_der_Waal_Energy-OPLS-2005>
110.28490447998

> <r_mmod_Electrostatic_Energy-OPLS-2005>
-375.694915771484

> <r_mmod_Solvation_Energy-OPLS-2005>
-232.755935668945

> <b_mmod_Minimization_Converged-OPLS-2005>
0

> <r_mmod_RMS_Derivative-OPLS-2005>
4.14081430435181

$$$$
57
                    3D
 Structure written by MMmdl.
154162  0  0  1  0            999 V2000
  -30.6889  -14.5044   20.5146 C   0  0  0  0  0  0
  -30.4098  -12.3108   19.4321 C   0  0  0  0  0  0
  -29.4902  -12.5202   18.2093 C   0  0  0  0  0  0
  -28.0100  -12.3864   18.6147 C   0  0  0  0  0  0
  -27.6577  -13.2201   19.8753 C   0  0  2  0  0  0
  -28.7013  -13.0261   21.0007 C   0  0  0  0  0  0
  -25.2565  -13.8203   20.5689 C   0  0  0  0  0  0
  -24.1837  -13.0455   20.9189 C   0  0  0  0  0  0
  -24.6423  -11.6932   20.8736 C   0  0  0  0  0  0
  -23.9089  -10.4304   21.0397 C   0  0  0  0  0  0
  -24.3638   -9.4213   21.9175 C   0  0  0  0  0  0
  -23.6310   -8.2245   22.0741 C   0  0  0  0  0  0
  -22.4290   -8.0282   21.3533 C   0  0  0  0  0  0
  -21.9928   -9.0258   20.4638 C   0  0  0  0  0  0
  -22.7257  -10.2136   20.3050 C   0  0  0  0  0  0
  -21.6865   -6.0737   22.5276 C   0  0  0  0  0  0
  -21.4021   -6.5642   23.8217 C   0  0  0  0  0  0
  -21.3661   -5.6789   24.9171 C   0  0  0  0  0  0
  -21.6046   -4.3053   24.7220 C   0  0  0  0  0  0
  -21.8824   -3.8148   23.4342 C   0  0  0  0  0  0
  -21.9198   -4.6970   22.3400 C   0  0  0  0  0  0
  -22.7854  -13.5221   21.1839 C   0  0  0  0  0  0
  -22.1664   -4.2152   21.0973 F   0  0  0  0  0  0
  -21.5627   -3.4538   25.7732 F   0  0  0  0  0  0
  -30.0314  -13.3132   20.4439 N   0  0  0  0  0  0
  -26.3015  -12.9392   20.3398 N   0  0  0  0  0  0
  -25.9358  -11.6531   20.5793 N   0  0  0  0  0  0
  -22.0521  -12.8201   22.0405 N   0  0  0  0  0  0
  -25.4320  -15.1915   20.4063 N   0  0  0  0  0  0
  -31.8367  -14.6492   20.0837 O   0  0  0  0  0  0
  -21.6648   -6.8883   21.4239 O   0  0  0  0  0  0
  -22.3530  -14.5521   20.6688 O   0  0  0  0  0  0
  -24.6175  -31.8659   23.2060 C   0  0  0  0  0  0
  -25.9057  -32.4799   23.8369 C   0  0  1  0  0  0
  -27.2277  -27.4186   20.1066 C   0  0  0  0  0  0
  -25.5893  -33.8600   24.2290 N   0  0  0  0  0  0
  -23.4044  -30.4899   21.5478 C   0  0  2  0  0  0
  -24.8509  -28.9545   20.1109 C   0  0  0  0  0  0
  -22.7406  -29.4660   22.4969 C   0  0  0  0  0  0
  -18.0272  -28.1374   22.8479 C   0  0  0  0  0  0
  -24.1493  -36.7318   23.2637 C   0  0  0  0  0  0
  -25.9347  -30.8294   21.3601 C   0  0  0  0  0  0
  -26.0127  -29.4646   20.7036 C   0  0  0  0  0  0
  -27.2093  -28.7083   20.6895 C   0  0  0  0  0  0
  -26.0519  -26.9272   19.5016 C   0  0  0  0  0  0
  -24.8676  -27.6884   19.5007 C   0  0  0  0  0  0
  -23.6120  -29.8209   20.1625 C   0  0  0  0  0  0
  -25.4112  -36.3096   24.0326 C   0  0  1  0  0  0
  -20.5865  -28.3667   23.1301 C   0  0  2  0  0  0
  -20.6768  -26.9400   22.5404 C   0  0  0  0  0  0
  -19.5750  -26.6390   21.5197 C   0  0  0  0  0  0
  -18.1929  -26.7917   22.1610 C   0  0  0  0  0  0
  -19.1519  -28.8839   23.2891 C   0  0  0  0  0  0
  -18.9443  -30.1445   23.8908 C   0  0  0  0  0  0
  -17.6441  -30.6578   24.0568 C   0  0  0  0  0  0
  -25.9039  -34.9462   23.5104 C   0  0  0  0  0  0
  -16.5334  -29.9081   23.6328 C   0  0  0  0  0  0
  -16.7260  -28.6499   23.0346 C   0  0  0  0  0  0
  -26.4487  -31.6577   25.0697 C   0  0  0  0  0  0
  -25.3744  -31.3680   26.1431 C   0  0  0  0  0  0
  -27.0323  -30.3013   24.6091 C   0  0  0  0  0  0
  -27.6049  -32.4305   25.7470 C   0  0  0  0  0  0
  -27.5582  -37.1806   24.8456 C   0  0  0  0  0  0
  -21.4133  -29.3032   22.3699 N   0  0  0  0  0  0
  -26.4297  -37.3779   23.9399 N   0  0  0  0  0  0
  -24.6705  -31.0764   22.0959 N   0  0  0  0  0  0
  -23.4171  -28.8213   23.3024 O   0  0  0  0  0  0
  -28.3727  -26.6489   20.1121 O   0  0  0  0  0  0
  -26.5609  -34.8921   22.4672 O   0  0  0  0  0  0
  -23.5368  -32.1409   23.7456 O   0  0  0  0  0  0
  -29.5642  -19.1067   20.0919 C   0  0  0  0  0  0
  -30.0997  -18.8410   18.8408 C   0  0  0  0  0  0
  -29.9795  -16.8545   20.3172 C   0  0  0  0  0  0
  -28.7456  -22.8126   20.7510 C   0  0  0  0  0  0
  -28.7949  -21.5114   19.8776 C   0  0  0  0  0  0
  -30.3855  -24.4568   19.7184 C   0  0  0  0  0  0
  -28.2691  -25.3798   20.8012 C   0  0  0  0  0  0
  -28.8995  -24.1847   20.0250 C   0  0  2  0  0  0
  -29.5004  -17.9611   20.9209 N   0  0  0  0  0  0
  -30.3559  -19.6969   17.7757 N   0  0  0  0  0  0
  -29.2014  -20.4134   20.5626 N   0  0  0  0  0  0
  -29.9702  -15.5650   20.9437 N   0  0  0  0  0  0
  -28.6264  -22.7537   21.9812 O   0  0  0  0  0  0
  -28.4515  -21.5249   18.6905 O   0  0  0  0  0  0
  -30.5181  -17.1561   18.6613 S   0  0  0  0  0  0
  -31.4578  -12.3858   19.1340 H   0  0  0  0  0  0
  -30.2863  -11.3035   19.8337 H   0  0  0  0  0  0
  -29.7259  -11.8030   17.4224 H   0  0  0  0  0  0
  -29.6654  -13.5096   17.7828 H   0  0  0  0  0  0
  -27.8014  -11.3316   18.7915 H   0  0  0  0  0  0
  -27.3685  -12.6859   17.7851 H   0  0  0  0  0  0
  -27.6914  -14.2670   19.5712 H   0  0  0  0  0  0
  -28.6764  -12.0036   21.3770 H   0  0  0  0  0  0
  -28.4714  -13.6612   21.8571 H   0  0  0  0  0  0
  -25.2789   -9.5680   22.4743 H   0  0  0  0  0  0
  -24.0027   -7.4632   22.7458 H   0  0  0  0  0  0
  -21.0866   -8.8778   19.8942 H   0  0  0  0  0  0
  -22.3724  -10.9673   19.6154 H   0  0  0  0  0  0
  -21.2010   -7.6153   23.9712 H   0  0  0  0  0  0
  -21.1478   -6.0522   25.9073 H   0  0  0  0  0  0
  -22.0602   -2.7611   23.2840 H   0  0  0  0  0  0
  -22.4151  -11.9849   22.4766 H   0  0  0  0  0  0
  -21.1142  -13.1206   22.2625 H   0  0  0  0  0  0
  -24.6709  -15.8550   20.4991 H   0  0  0  0  0  0
  -26.2885  -15.6204   20.0783 H   0  0  0  0  0  0
  -26.7116  -32.5506   23.1128 H   0  0  0  0  0  0
  -25.0021  -33.9750   25.0421 H   0  0  0  0  0  0
  -22.6942  -31.3077   21.4075 H   0  0  0  0  0  0
  -23.3737  -35.9669   23.3298 H   0  0  0  0  0  0
  -24.3582  -36.8940   22.2049 H   0  0  0  0  0  0
  -23.7265  -37.6528   23.6660 H   0  0  0  0  0  0
  -26.0501  -31.5994   20.5967 H   0  0  0  0  0  0
  -26.8205  -30.8787   21.9810 H   0  0  0  0  0  0
  -28.1093  -29.1004   21.1428 H   0  0  0  0  0  0
  -26.0505  -25.9533   19.0320 H   0  0  0  0  0  0
  -23.9762  -27.2937   19.0333 H   0  0  0  0  0  0
  -23.7126  -30.5941   19.3999 H   0  0  0  0  0  0
  -22.7371  -29.2370   19.8716 H   0  0  0  0  0  0
  -25.1297  -36.1957   25.0817 H   0  0  0  0  0  0
  -20.9961  -28.3248   24.1422 H   0  0  0  0  0  0
  -20.5677  -26.2276   23.3598 H   0  0  0  0  0  0
  -21.6644  -26.7457   22.1197 H   0  0  0  0  0  0
  -19.6923  -25.6308   21.1221 H   0  0  0  0  0  0
  -19.6699  -27.3217   20.6742 H   0  0  0  0  0  0
  -17.4200  -26.6664   21.4012 H   0  0  0  0  0  0
  -18.0339  -26.0057   22.9009 H   0  0  0  0  0  0
  -19.7922  -30.7259   24.2287 H   0  0  0  0  0  0
  -17.4997  -31.6261   24.5163 H   0  0  0  0  0  0
  -15.5337  -30.2987   23.7642 H   0  0  0  0  0  0
  -15.8662  -28.0828   22.7048 H   0  0  0  0  0  0
  -24.5908  -30.7055   25.7737 H   0  0  0  0  0  0
  -24.8960  -32.2841   26.4904 H   0  0  0  0  0  0
  -25.8088  -30.8804   27.0166 H   0  0  0  0  0  0
  -26.2870  -29.6753   24.1167 H   0  0  0  0  0  0
  -27.4096  -29.7273   25.4564 H   0  0  0  0  0  0
  -27.8708  -30.4306   23.9241 H   0  0  0  0  0  0
  -27.2645  -33.3580   26.2094 H   0  0  0  0  0  0
  -28.3847  -32.6907   25.0296 H   0  0  0  0  0  0
  -28.0740  -31.8401   26.5353 H   0  0  0  0  0  0
  -28.2589  -38.0111   24.7501 H   0  0  0  0  0  0
  -28.1083  -36.2635   24.6287 H   0  0  0  0  0  0
  -27.2288  -37.1466   25.8853 H   0  0  0  0  0  0
  -20.9297  -29.8710   21.6880 H   0  0  0  0  0  0
  -26.0181  -38.2859   24.1382 H   0  0  0  0  0  0
  -30.8501  -23.6196   19.1975 H   0  0  0  0  0  0
  -30.9547  -24.6346   20.6312 H   0  0  0  0  0  0
  -30.5015  -25.3347   19.0833 H   0  0  0  0  0  0
  -28.7774  -25.4986   21.7588 H   0  0  0  0  0  0
  -27.2363  -25.1368   21.0567 H   0  0  0  0  0  0
  -28.3702  -24.0918   19.0761 H   0  0  0  0  0  0
  -29.7377  -20.5095   17.8050 H   0  0  0  0  0  0
  -30.3489  -19.2845   16.8474 H   0  0  0  0  0  0
  -29.2708  -20.5622   21.5601 H   0  0  0  0  0  0
  -29.1699  -15.3665   21.5216 H   0  0  0  0  0  0
  1 25  1  0  0  0
  1 30  2  0  0  0
  1 82  1  0  0  0
  2  3  1  0  0  0
  2 25  1  0  0  0
  2 86  1  0  0  0
  2 87  1  0  0  0
  3  4  1  0  0  0
  3 88  1  0  0  0
  3 89  1  0  0  0
  4  5  1  0  0  0
  4 90  1  0  0  0
  4 91  1  0  0  0
  5  6  1  0  0  0
  5 26  1  0  0  0
  5 92  1  0  0  0
  6 25  1  0  0  0
  6 93  1  0  0  0
  6 94  1  0  0  0
  7  8  2  0  0  0
  7 26  1  0  0  0
  7 29  1  0  0  0
  8  9  1  0  0  0
  8 22  1  0  0  0
  9 10  1  0  0  0
  9 27  2  0  0  0
 10 11  2  0  0  0
 10 15  1  0  0  0
 11 12  1  0  0  0
 11 95  1  0  0  0
 12 13  2  0  0  0
 12 96  1  0  0  0
 13 14  1  0  0  0
 13 31  1  0  0  0
 14 15  2  0  0  0
 14 97  1  0  0  0
 15 98  1  0  0  0
 16 17  2  0  0  0
 16 21  1  0  0  0
 16 31  1  0  0  0
 17 18  1  0  0  0
 17 99  1  0  0  0
 18 19  2  0  0  0
 18100  1  0  0  0
 19 20  1  0  0  0
 19 24  1  0  0  0
 20 21  2  0  0  0
 20101  1  0  0  0
 21 23  1  0  0  0
 22 28  1  0  0  0
 22 32  2  0  0  0
 26 27  1  0  0  0
 28102  1  0  0  0
 28103  1  0  0  0
 29104  1  0  0  0
 29105  1  0  0  0
 33 34  1  0  0  0
 33 66  1  0  0  0
 33 70  2  0  0  0
 34 36  1  0  0  0
 34 59  1  0  0  0
 34106  1  0  0  0
 35 44  2  0  0  0
 35 45  1  0  0  0
 35 68  1  0  0  0
 36 56  1  0  0  0
 36107  1  0  0  0
 37 39  1  0  0  0
 37 47  1  0  0  0
 37 66  1  0  0  0
 37108  1  0  0  0
 38 43  2  0  0  0
 38 46  1  0  0  0
 38 47  1  0  0  0
 39 64  1  0  0  0
 39 67  2  0  0  0
 40 52  1  0  0  0
 40 53  2  0  0  0
 40 58  1  0  0  0
 41109  1  0  0  0
 41110  1  0  0  0
 41111  1  0  0  0
 41 48  1  0  0  0
 42 43  1  0  0  0
 42 66  1  0  0  0
 42112  1  0  0  0
 42113  1  0  0  0
 43 44  1  0  0  0
 44114  1  0  0  0
 45 46  2  0  0  0
 45115  1  0  0  0
 46116  1  0  0  0
 47117  1  0  0  0
 47118  1  0  0  0
 48 56  1  0  0  0
 48 65  1  0  0  0
 48119  1  0  0  0
 49 50  1  0  0  0
 49 53  1  0  0  0
 49 64  1  0  0  0
 49120  1  0  0  0
 50 51  1  0  0  0
 50121  1  0  0  0
 50122  1  0  0  0
 51 52  1  0  0  0
 51123  1  0  0  0
 51124  1  0  0  0
 52125  1  0  0  0
 52126  1  0  0  0
 53 54  1  0  0  0
 54 55  2  0  0  0
 54127  1  0  0  0
 55 57  1  0  0  0
 55128  1  0  0  0
 56 69  2  0  0  0
 57 58  2  0  0  0
 57129  1  0  0  0
 58130  1  0  0  0
 59 60  1  0  0  0
 59 61  1  0  0  0
 59 62  1  0  0  0
 60131  1  0  0  0
 60132  1  0  0  0
 60133  1  0  0  0
 61134  1  0  0  0
 61135  1  0  0  0
 61136  1  0  0  0
 62137  1  0  0  0
 62138  1  0  0  0
 62139  1  0  0  0
 63 65  1  0  0  0
 63140  1  0  0  0
 63141  1  0  0  0
 63142  1  0  0  0
 64143  1  0  0  0
 65144  1  0  0  0
 68 77  1  0  0  0
 71 72  2  0  0  0
 71 79  1  0  0  0
 71 81  1  0  0  0
 72 80  1  0  0  0
 72 85  1  0  0  0
 73 79  2  0  0  0
 73 82  1  0  0  0
 73 85  1  0  0  0
 74 75  1  0  0  0
 74 78  1  0  0  0
 74 83  2  0  0  0
 75 81  1  0  0  0
 75 84  2  0  0  0
 76145  1  0  0  0
 76146  1  0  0  0
 76147  1  0  0  0
 76 78  1  0  0  0
 77 78  1  0  0  0
 77148  1  0  0  0
 77149  1  0  0  0
 78150  1  0  0  0
 80151  1  0  0  0
 80152  1  0  0  0
 81153  1  0  0  0
 82154  1  0  0  0
M  ISO  4   1 100  68 101  77 101  82 100
M  END
> <chiral flag>
0

> <version>
0

> <s_m_source_file>
/data/baiqing/PycharmProjects/Reinvent-master-3.2/result/LINK_invent/BTK/process_docking_weight1_custom_product_contain_oxygen_bond_distance_aromatic_linkinvent_7_9_3/rearranged_h_0183.sdf

> <i_m_source_file_index>
58

> <r_mmod_Potential_Energy-OPLS-2005>
-100.141937255859

> <r_mmod_Stretch_Energy-OPLS-2005>
43.9136047363281

> <r_mmod_Bend_Energy-OPLS-2005>
102.590194702148

> <r_mmod_Torsional_Energy-OPLS-2005>
270.892822265625

> <r_mmod_Improper_Torsional_Energy-OPLS-2005>
10.5835247039795

> <r_mmod_Van_der_Waal_Energy-OPLS-2005>
135.658554077148

> <r_mmod_Electrostatic_Energy-OPLS-2005>
-447.720336914062

> <r_mmod_Solvation_Energy-OPLS-2005>
-233.139404296875

> <b_mmod_Minimization_Converged-OPLS-2005>
0

> <r_mmod_RMS_Derivative-OPLS-2005>
2.35986375808716

$$$$
58
                    3D
 Structure written by MMmdl.
157165  0  0  1  0            999 V2000
  -30.6220  -14.7188   20.4892 C   0  0  0  0  0  0
  -30.4298  -12.4360   19.4888 C   0  0  0  0  0  0
  -29.5187  -12.5298   18.2434 C   0  0  0  0  0  0
  -28.0388  -12.3613   18.6434 C   0  0  0  0  0  0
  -27.6491  -13.2380   19.8638 C   0  0  2  0  0  0
  -28.6887  -13.1370   21.0051 C   0  0  0  0  0  0
  -25.2494  -13.8206   20.5683 C   0  0  0  0  0  0
  -24.1786  -13.0439   20.9179 C   0  0  0  0  0  0
  -24.6393  -11.6924   20.8714 C   0  0  0  0  0  0
  -23.9076  -10.4297   21.0391 C   0  0  0  0  0  0
  -24.3625   -9.4215   21.9176 C   0  0  0  0  0  0
  -23.6297   -8.2247   22.0755 C   0  0  0  0  0  0
  -22.4284   -8.0278   21.3546 C   0  0  0  0  0  0
  -21.9912   -9.0259   20.4660 C   0  0  0  0  0  0
  -22.7243  -10.2137   20.3055 C   0  0  0  0  0  0
  -21.6856   -6.0740   22.5275 C   0  0  0  0  0  0
  -21.4026   -6.5642   23.8216 C   0  0  0  0  0  0
  -21.3664   -5.6785   24.9172 C   0  0  0  0  0  0
  -21.6038   -4.3048   24.7219 C   0  0  0  0  0  0
  -21.8811   -3.8149   23.4336 C   0  0  0  0  0  0
  -21.9189   -4.6967   22.3400 C   0  0  0  0  0  0
  -22.7797  -13.5209   21.1844 C   0  0  0  0  0  0
  -22.1650   -4.2156   21.0973 F   0  0  0  0  0  0
  -21.5637   -3.4532   25.7732 F   0  0  0  0  0  0
  -30.0025  -13.4864   20.4457 N   0  0  0  0  0  0
  -26.2956  -12.9441   20.3303 N   0  0  0  0  0  0
  -25.9330  -11.6574   20.5736 N   0  0  0  0  0  0
  -22.0438  -12.8220   22.0415 N   0  0  0  0  0  0
  -25.4139  -15.1935   20.4109 N   0  0  0  0  0  0
  -31.7772  -14.8336   20.0627 O   0  0  0  0  0  0
  -21.6637   -6.8878   21.4242 O   0  0  0  0  0  0
  -22.3465  -14.5517   20.6696 O   0  0  0  0  0  0
  -24.6324  -31.8554   23.2000 C   0  0  0  0  0  0
  -25.9156  -32.4754   23.8342 C   0  0  1  0  0  0
  -27.2187  -27.2603   20.1414 C   0  0  0  0  0  0
  -25.5930  -33.8555   24.2259 N   0  0  0  0  0  0
  -23.4284  -30.4805   21.5431 C   0  0  2  0  0  0
  -24.8761  -28.9288   20.1141 C   0  0  0  0  0  0
  -22.7513  -29.4614   22.4909 C   0  0  0  0  0  0
  -18.0296  -28.1386   22.8479 C   0  0  0  0  0  0
  -24.1481  -36.7278   23.2642 C   0  0  0  0  0  0
  -25.9756  -30.7729   21.3791 C   0  0  0  0  0  0
  -26.0503  -29.3966   20.7187 C   0  0  0  0  0  0
  -27.2258  -28.5768   20.7181 C   0  0  0  0  0  0
  -26.0171  -26.8662   19.5052 C   0  0  0  0  0  0
  -24.8649  -27.6715   19.4980 C   0  0  0  0  0  0
  -23.6481  -29.8165   20.1588 C   0  0  0  0  0  0
  -25.4107  -36.3069   24.0331 C   0  0  1  0  0  0
  -20.5900  -28.3704   23.1253 C   0  0  2  0  0  0
  -20.6773  -26.9416   22.5402 C   0  0  0  0  0  0
  -19.5752  -26.6377   21.5199 C   0  0  0  0  0  0
  -18.1932  -26.7931   22.1614 C   0  0  0  0  0  0
  -19.1551  -28.8861   23.2867 C   0  0  0  0  0  0
  -18.9468  -30.1451   23.8893 C   0  0  0  0  0  0
  -17.6471  -30.6588   24.0553 C   0  0  0  0  0  0
  -25.9054  -34.9438   23.5108 C   0  0  0  0  0  0
  -16.5360  -29.9085   23.6328 C   0  0  0  0  0  0
  -16.7278  -28.6501   23.0352 C   0  0  0  0  0  0
  -26.4507  -31.6588   25.0744 C   0  0  0  0  0  0
  -25.3725  -31.3745   26.1462 C   0  0  0  0  0  0
  -27.0364  -30.3001   24.6263 C   0  0  0  0  0  0
  -27.6052  -32.4334   25.7521 C   0  0  0  0  0  0
  -27.5578  -37.1793   24.8463 C   0  0  0  0  0  0
  -21.4217  -29.3057   22.3656 N   0  0  0  0  0  0
  -26.4276  -37.3771   23.9422 N   0  0  0  0  0  0
  -24.6978  -31.0531   22.0972 N   0  0  0  0  0  0
  -23.4208  -28.8152   23.3008 O   0  0  0  0  0  0
  -28.2960  -26.3435   20.2208 O   0  0  0  0  0  0
  -26.5629  -34.8917   22.4677 O   0  0  0  0  0  0
  -23.5473  -32.1353   23.7308 O   0  0  0  0  0  0
  -29.9635  -19.2904   19.0181 C   0  0  0  0  0  0
  -29.7199  -19.5874   20.3391 C   0  0  0  0  0  0
  -29.9509  -17.2022   20.3999 C   0  0  0  0  0  0
  -29.0094  -23.7502   20.5137 C   0  0  0  0  0  0
  -30.5490  -20.9251   23.1688 C   0  0  0  0  0  0
  -30.1462  -20.7224   24.6206 C   0  0  0  0  0  0
  -27.2204  -21.8967   20.7746 C   0  0  0  0  0  0
  -27.9542  -24.8804   20.0947 C   0  0  0  0  0  0
  -29.6726  -21.0617   20.9292 C   0  0  1  0  0  0
  -28.6683  -22.1854   20.3250 C   0  0  2  0  0  0
  -29.6695  -18.3511   21.0999 N   0  0  0  0  0  0
  -29.9124  -15.8238   20.9226 N   0  0  0  0  0  0
  -30.1126  -24.0855   20.9579 O   0  0  0  0  0  0
  -31.7359  -20.9926   22.8410 O   0  0  0  0  0  0
  -29.4900  -21.0080   22.3447 O   0  0  0  0  0  0
  -30.2268  -17.5788   18.7012 S   0  0  0  0  0  0
  -31.4768  -12.5384   19.2014 H   0  0  0  0  0  0
  -30.3507  -11.4500   19.9491 H   0  0  0  0  0  0
  -29.8026  -11.7763   17.5086 H   0  0  0  0  0  0
  -29.6592  -13.4948   17.7541 H   0  0  0  0  0  0
  -27.8731  -11.3098   18.8773 H   0  0  0  0  0  0
  -27.3919  -12.5896   17.7956 H   0  0  0  0  0  0
  -27.6555  -14.2693   19.5081 H   0  0  0  0  0  0
  -28.7057  -12.1279   21.4213 H   0  0  0  0  0  0
  -28.4223  -13.7972   21.8310 H   0  0  0  0  0  0
  -25.2773   -9.5702   22.4736 H   0  0  0  0  0  0
  -24.0019   -7.4646   22.7461 H   0  0  0  0  0  0
  -21.0849   -8.8783   19.8960 H   0  0  0  0  0  0
  -22.3703  -10.9673   19.6159 H   0  0  0  0  0  0
  -21.2034   -7.6153   23.9725 H   0  0  0  0  0  0
  -21.1489   -6.0515   25.9077 H   0  0  0  0  0  0
  -22.0593   -2.7610   23.2825 H   0  0  0  0  0  0
  -22.4056  -11.9923   22.4871 H   0  0  0  0  0  0
  -21.1058  -13.1263   22.2607 H   0  0  0  0  0  0
  -24.6398  -15.8400   20.5184 H   0  0  0  0  0  0
  -26.2635  -15.6430   20.0939 H   0  0  0  0  0  0
  -26.7234  -32.5407   23.1092 H   0  0  0  0  0  0
  -25.0044  -33.9669   25.0384 H   0  0  0  0  0  0
  -22.7247  -31.3027   21.3987 H   0  0  0  0  0  0
  -23.3748  -35.9604   23.3288 H   0  0  0  0  0  0
  -24.3570  -36.8915   22.2058 H   0  0  0  0  0  0
  -23.7223  -37.6472   23.6674 H   0  0  0  0  0  0
  -26.1187  -31.5378   20.6135 H   0  0  0  0  0  0
  -26.8498  -30.8151   22.0178 H   0  0  0  0  0  0
  -28.1229  -28.9327   21.2063 H   0  0  0  0  0  0
  -25.9249  -25.9039   19.0257 H   0  0  0  0  0  0
  -23.9623  -27.3047   19.0281 H   0  0  0  0  0  0
  -23.7787  -30.5934   19.4048 H   0  0  0  0  0  0
  -22.7658  -29.2536   19.8488 H   0  0  0  0  0  0
  -25.1286  -36.1909   25.0819 H   0  0  0  0  0  0
  -20.9985  -28.3279   24.1374 H   0  0  0  0  0  0
  -20.5637  -26.2319   23.3616 H   0  0  0  0  0  0
  -21.6647  -26.7409   22.1219 H   0  0  0  0  0  0
  -19.6905  -25.6277   21.1251 H   0  0  0  0  0  0
  -19.6687  -27.3164   20.6710 H   0  0  0  0  0  0
  -17.4195  -26.6657   21.4022 H   0  0  0  0  0  0
  -18.0350  -26.0072   22.9016 H   0  0  0  0  0  0
  -19.7946  -30.7260   24.2273 H   0  0  0  0  0  0
  -17.5029  -31.6271   24.5156 H   0  0  0  0  0  0
  -15.5362  -30.2984   23.7660 H   0  0  0  0  0  0
  -15.8678  -28.0814   22.7079 H   0  0  0  0  0  0
  -24.5882  -30.7117   25.7789 H   0  0  0  0  0  0
  -24.8935  -32.2917   26.4896 H   0  0  0  0  0  0
  -25.8024  -30.8905   27.0241 H   0  0  0  0  0  0
  -26.2964  -29.6743   24.1262 H   0  0  0  0  0  0
  -27.4000  -29.7277   25.4809 H   0  0  0  0  0  0
  -27.8862  -30.4263   23.9551 H   0  0  0  0  0  0
  -27.2653  -33.3629   26.2099 H   0  0  0  0  0  0
  -28.3863  -32.6906   25.0358 H   0  0  0  0  0  0
  -28.0731  -31.8471   26.5439 H   0  0  0  0  0  0
  -28.2587  -38.0101   24.7529 H   0  0  0  0  0  0
  -28.1081  -36.2632   24.6255 H   0  0  0  0  0  0
  -27.2305  -37.1412   25.8868 H   0  0  0  0  0  0
  -20.9409  -29.8805   21.6881 H   0  0  0  0  0  0
  -26.0156  -38.2845   24.1426 H   0  0  0  0  0  0
  -30.0661  -19.9959   18.2038 H   0  0  0  0  0  0
  -30.0986  -21.6793   25.1381 H   0  0  0  0  0  0
  -30.8762  -20.0911   25.1271 H   0  0  0  0  0  0
  -29.1740  -20.2358   24.6861 H   0  0  0  0  0  0
  -26.4928  -22.4580   20.1886 H   0  0  0  0  0  0
  -27.0721  -22.1580   21.8238 H   0  0  0  0  0  0
  -26.9795  -20.8392   20.6624 H   0  0  0  0  0  0
  -27.0642  -24.7016   20.6994 H   0  0  0  0  0  0
  -27.6740  -24.6771   19.0620 H   0  0  0  0  0  0
  -30.6616  -21.4821   20.7380 H   0  0  0  0  0  0
  -28.7016  -22.0485   19.2441 H   0  0  0  0  0  0
  -29.1166  -15.6217   21.5089 H   0  0  0  0  0  0
  1 25  1  0  0  0
  1 30  2  0  0  0
  1 82  1  0  0  0
  2  3  1  0  0  0
  2 25  1  0  0  0
  2 87  1  0  0  0
  2 88  1  0  0  0
  3  4  1  0  0  0
  3 89  1  0  0  0
  3 90  1  0  0  0
  4  5  1  0  0  0
  4 91  1  0  0  0
  4 92  1  0  0  0
  5  6  1  0  0  0
  5 26  1  0  0  0
  5 93  1  0  0  0
  6 25  1  0  0  0
  6 94  1  0  0  0
  6 95  1  0  0  0
  7  8  2  0  0  0
  7 26  1  0  0  0
  7 29  1  0  0  0
  8  9  1  0  0  0
  8 22  1  0  0  0
  9 10  1  0  0  0
  9 27  2  0  0  0
 10 11  2  0  0  0
 10 15  1  0  0  0
 11 12  1  0  0  0
 11 96  1  0  0  0
 12 13  2  0  0  0
 12 97  1  0  0  0
 13 14  1  0  0  0
 13 31  1  0  0  0
 14 15  2  0  0  0
 14 98  1  0  0  0
 15 99  1  0  0  0
 16 17  2  0  0  0
 16 21  1  0  0  0
 16 31  1  0  0  0
 17 18  1  0  0  0
 17100  1  0  0  0
 18 19  2  0  0  0
 18101  1  0  0  0
 19 20  1  0  0  0
 19 24  1  0  0  0
 20 21  2  0  0  0
 20102  1  0  0  0
 21 23  1  0  0  0
 22 28  1  0  0  0
 22 32  2  0  0  0
 26 27  1  0  0  0
 28103  1  0  0  0
 28104  1  0  0  0
 29105  1  0  0  0
 29106  1  0  0  0
 33 34  1  0  0  0
 33 66  1  0  0  0
 33 70  2  0  0  0
 34 36  1  0  0  0
 34 59  1  0  0  0
 34107  1  0  0  0
 35 44  2  0  0  0
 35 45  1  0  0  0
 35 68  1  0  0  0
 36 56  1  0  0  0
 36108  1  0  0  0
 37 39  1  0  0  0
 37 47  1  0  0  0
 37 66  1  0  0  0
 37109  1  0  0  0
 38 43  2  0  0  0
 38 46  1  0  0  0
 38 47  1  0  0  0
 39 64  1  0  0  0
 39 67  2  0  0  0
 40 52  1  0  0  0
 40 53  2  0  0  0
 40 58  1  0  0  0
 41110  1  0  0  0
 41111  1  0  0  0
 41112  1  0  0  0
 41 48  1  0  0  0
 42 43  1  0  0  0
 42 66  1  0  0  0
 42113  1  0  0  0
 42114  1  0  0  0
 43 44  1  0  0  0
 44115  1  0  0  0
 45 46  2  0  0  0
 45116  1  0  0  0
 46117  1  0  0  0
 47118  1  0  0  0
 47119  1  0  0  0
 48 56  1  0  0  0
 48 65  1  0  0  0
 48120  1  0  0  0
 49 50  1  0  0  0
 49 53  1  0  0  0
 49 64  1  0  0  0
 49121  1  0  0  0
 50 51  1  0  0  0
 50122  1  0  0  0
 50123  1  0  0  0
 51 52  1  0  0  0
 51124  1  0  0  0
 51125  1  0  0  0
 52126  1  0  0  0
 52127  1  0  0  0
 53 54  1  0  0  0
 54 55  2  0  0  0
 54128  1  0  0  0
 55 57  1  0  0  0
 55129  1  0  0  0
 56 69  2  0  0  0
 57 58  2  0  0  0
 57130  1  0  0  0
 58131  1  0  0  0
 59 60  1  0  0  0
 59 61  1  0  0  0
 59 62  1  0  0  0
 60132  1  0  0  0
 60133  1  0  0  0
 60134  1  0  0  0
 61135  1  0  0  0
 61136  1  0  0  0
 61137  1  0  0  0
 62138  1  0  0  0
 62139  1  0  0  0
 62140  1  0  0  0
 63 65  1  0  0  0
 63141  1  0  0  0
 63142  1  0  0  0
 63143  1  0  0  0
 64144  1  0  0  0
 65145  1  0  0  0
 68 78  1  0  0  0
 71 72  2  0  0  0
 71 86  1  0  0  0
 71146  1  0  0  0
 72 79  1  0  0  0
 72 81  1  0  0  0
 73 81  2  0  0  0
 73 82  1  0  0  0
 73 86  1  0  0  0
 74 78  1  0  0  0
 74 80  1  0  0  0
 74 83  2  0  0  0
 75 76  1  0  0  0
 75 84  2  0  0  0
 75 85  1  0  0  0
 76147  1  0  0  0
 76148  1  0  0  0
 76149  1  0  0  0
 77150  1  0  0  0
 77151  1  0  0  0
 77152  1  0  0  0
 77 80  1  0  0  0
 78153  1  0  0  0
 78154  1  0  0  0
 79 80  1  0  0  0
 79 85  1  0  0  0
 79155  1  0  0  0
 80156  1  0  0  0
 82157  1  0  0  0
M  ISO  4   1 100  68 101  78 101  82 100
M  END
> <chiral flag>
0

> <version>
0

> <s_m_source_file>
/data/baiqing/PycharmProjects/Reinvent-master-3.2/result/LINK_invent/BTK/process_docking_weight1_custom_product_contain_oxygen_bond_distance_aromatic_linkinvent_7_9_3/rearranged_h_0183.sdf

> <i_m_source_file_index>
59

> <r_mmod_Potential_Energy-OPLS-2005>
-18.3859691619873

> <r_mmod_Stretch_Energy-OPLS-2005>
120.638519287109

> <r_mmod_Bend_Energy-OPLS-2005>
160.10302734375

> <r_mmod_Torsional_Energy-OPLS-2005>
221.191482543945

> <r_mmod_Improper_Torsional_Energy-OPLS-2005>
4.10400199890137

> <r_mmod_Van_der_Waal_Energy-OPLS-2005>
117.66983795166

> <r_mmod_Electrostatic_Energy-OPLS-2005>
-465.664916992188

> <r_mmod_Solvation_Energy-OPLS-2005>
-256.498474121094

> <b_mmod_Minimization_Converged-OPLS-2005>
0

> <r_mmod_RMS_Derivative-OPLS-2005>
2.74160313606262

$$$$
59
                    3D
 Structure written by MMmdl.
159167  0  0  1  0            999 V2000
  -30.6839  -14.5428   20.5234 C   0  0  0  0  0  0
  -30.4192  -12.3326   19.4459 C   0  0  0  0  0  0
  -29.5007  -12.5070   18.2175 C   0  0  0  0  0  0
  -28.0215  -12.3580   18.6255 C   0  0  0  0  0  0
  -27.6550  -13.2162   19.8661 C   0  0  2  0  0  0
  -28.6968  -13.0481   20.9961 C   0  0  0  0  0  0
  -25.2571  -13.8183   20.5684 C   0  0  0  0  0  0
  -24.1834  -13.0452   20.9200 C   0  0  0  0  0  0
  -24.6399  -11.6914   20.8759 C   0  0  0  0  0  0
  -23.9079  -10.4296   21.0409 C   0  0  0  0  0  0
  -24.3634   -9.4214   21.9182 C   0  0  0  0  0  0
  -23.6308   -8.2246   22.0754 C   0  0  0  0  0  0
  -22.4287   -8.0289   21.3550 C   0  0  0  0  0  0
  -21.9934   -9.0255   20.4641 C   0  0  0  0  0  0
  -22.7260  -10.2134   20.3046 C   0  0  0  0  0  0
  -21.6849   -6.0752   22.5285 C   0  0  0  0  0  0
  -21.4000   -6.5654   23.8227 C   0  0  0  0  0  0
  -21.3658   -5.6804   24.9186 C   0  0  0  0  0  0
  -21.6043   -4.3066   24.7227 C   0  0  0  0  0  0
  -21.8819   -3.8164   23.4349 C   0  0  0  0  0  0
  -21.9193   -4.6981   22.3405 C   0  0  0  0  0  0
  -22.7859  -13.5240   21.1857 C   0  0  0  0  0  0
  -22.1665   -4.2163   21.0986 F   0  0  0  0  0  0
  -21.5627   -3.4545   25.7740 F   0  0  0  0  0  0
  -30.0237  -13.3495   20.4373 N   0  0  0  0  0  0
  -26.2998  -12.9361   20.3328 N   0  0  0  0  0  0
  -25.9322  -11.6521   20.5766 N   0  0  0  0  0  0
  -22.0495  -12.8214   22.0402 N   0  0  0  0  0  0
  -25.4301  -15.1899   20.4086 N   0  0  0  0  0  0
  -31.8434  -14.6582   20.1155 O   0  0  0  0  0  0
  -21.6640   -6.8892   21.4245 O   0  0  0  0  0  0
  -22.3552  -14.5555   20.6725 O   0  0  0  0  0  0
  -24.6168  -31.8632   23.2081 C   0  0  0  0  0  0
  -25.9039  -32.4801   23.8391 C   0  0  1  0  0  0
  -27.2309  -27.4012   20.1146 C   0  0  0  0  0  0
  -25.5900  -33.8605   24.2326 N   0  0  0  0  0  0
  -23.4078  -30.4854   21.5457 C   0  0  2  0  0  0
  -24.8571  -28.9470   20.1137 C   0  0  0  0  0  0
  -22.7442  -29.4623   22.4959 C   0  0  0  0  0  0
  -18.0267  -28.1372   22.8482 C   0  0  0  0  0  0
  -24.1484  -36.7295   23.2647 C   0  0  0  0  0  0
  -25.9394  -30.8234   21.3635 C   0  0  0  0  0  0
  -26.0192  -29.4547   20.7107 C   0  0  0  0  0  0
  -27.2128  -28.6898   20.7061 C   0  0  0  0  0  0
  -26.0557  -26.9182   19.5035 C   0  0  0  0  0  0
  -24.8719  -27.6800   19.5046 C   0  0  0  0  0  0
  -23.6186  -29.8146   20.1619 C   0  0  0  0  0  0
  -25.4108  -36.3096   24.0347 C   0  0  1  0  0  0
  -20.5865  -28.3651   23.1298 C   0  0  2  0  0  0
  -20.6755  -26.9384   22.5406 C   0  0  0  0  0  0
  -19.5737  -26.6360   21.5203 C   0  0  0  0  0  0
  -18.1914  -26.7920   22.1603 C   0  0  0  0  0  0
  -19.1518  -28.8833   23.2877 C   0  0  0  0  0  0
  -18.9444  -30.1444   23.8880 C   0  0  0  0  0  0
  -17.6447  -30.6582   24.0561 C   0  0  0  0  0  0
  -25.9032  -34.9461   23.5128 C   0  0  0  0  0  0
  -16.5336  -29.9075   23.6352 C   0  0  0  0  0  0
  -16.7257  -28.6497   23.0360 C   0  0  0  0  0  0
  -26.4471  -31.6593   25.0726 C   0  0  0  0  0  0
  -25.3739  -31.3700   26.1472 C   0  0  0  0  0  0
  -27.0320  -30.3040   24.6115 C   0  0  0  0  0  0
  -27.6038  -32.4323   25.7496 C   0  0  0  0  0  0
  -27.5577  -37.1797   24.8464 C   0  0  0  0  0  0
  -21.4162  -29.3012   22.3707 N   0  0  0  0  0  0
  -26.4282  -37.3786   23.9422 N   0  0  0  0  0  0
  -24.6725  -31.0728   22.0976 N   0  0  0  0  0  0
  -23.4210  -28.8168   23.3008 O   0  0  0  0  0  0
  -28.3551  -26.5974   20.1366 O   0  0  0  0  0  0
  -26.5579  -34.8913   22.4682 O   0  0  0  0  0  0
  -23.5348  -32.1368   23.7460 O   0  0  0  0  0  0
  -30.2431  -19.5475   20.8004 C   0  0  0  0  0  0
  -31.3816  -18.9360   20.3056 C   0  0  0  0  0  0
  -30.2070  -17.0227   20.8016 C   0  0  0  0  0  0
  -29.9515  -20.9890   21.1161 C   0  0  0  0  0  0
  -28.6040  -24.0852   20.4542 C   0  0  0  0  0  0
  -33.5963  -19.3069   19.2071 C   0  0  0  0  0  0
  -34.6738  -20.3606   18.9823 C   0  0  0  0  0  0
  -28.2504  -25.4806   21.0610 C   0  0  0  0  0  0
  -28.2122  -22.8159   21.3004 C   0  0  1  0  0  0
  -26.6728  -22.6719   21.2655 C   0  0  0  0  0  0
  -31.3402  -17.5269   20.2973 N   0  0  0  0  0  0
  -32.5095  -19.6986   19.8952 N   0  0  0  0  0  0
  -29.9427  -15.6069   20.9290 N   0  0  0  0  0  0
  -28.7554  -21.5193   20.8066 N   0  0  0  0  0  0
  -30.8270  -21.6779   21.6428 O   0  0  0  0  0  0
  -29.1723  -24.0112   19.3586 O   0  0  0  0  0  0
  -33.7635  -18.1784   18.7376 O   0  0  0  0  0  0
  -26.2217  -22.5103   20.0205 F   0  0  0  0  0  0
  -26.2862  -21.6325   22.0086 F   0  0  0  0  0  0
  -29.0739  -18.3116   21.2798 S   0  0  0  0  0  0
  -31.4676  -12.4150   19.1533 H   0  0  0  0  0  0
  -30.3111  -11.3309   19.8665 H   0  0  0  0  0  0
  -29.7532  -11.7769   17.4471 H   0  0  0  0  0  0
  -29.6625  -13.4897   17.7721 H   0  0  0  0  0  0
  -27.8396  -11.3038   18.8377 H   0  0  0  0  0  0
  -27.3717  -12.6124   17.7877 H   0  0  0  0  0  0
  -27.6803  -14.2556   19.5393 H   0  0  0  0  0  0
  -28.6811  -12.0292   21.3839 H   0  0  0  0  0  0
  -28.4579  -13.6911   21.8446 H   0  0  0  0  0  0
  -25.2771   -9.5700   22.4770 H   0  0  0  0  0  0
  -24.0027   -7.4633   22.7464 H   0  0  0  0  0  0
  -21.0875   -8.8765   19.8932 H   0  0  0  0  0  0
  -22.3722  -10.9674   19.6161 H   0  0  0  0  0  0
  -21.1983   -7.6162   23.9740 H   0  0  0  0  0  0
  -21.1474   -6.0527   25.9096 H   0  0  0  0  0  0
  -22.0598   -2.7628   23.2831 H   0  0  0  0  0  0
  -22.4090  -11.9858   22.4754 H   0  0  0  0  0  0
  -21.1120  -13.1244   22.2612 H   0  0  0  0  0  0
  -24.6593  -15.8426   20.5008 H   0  0  0  0  0  0
  -26.2741  -15.6251   20.0582 H   0  0  0  0  0  0
  -26.7111  -32.5519   23.1157 H   0  0  0  0  0  0
  -25.0117  -33.9767   25.0517 H   0  0  0  0  0  0
  -22.6984  -31.3026   21.4023 H   0  0  0  0  0  0
  -23.3753  -35.9617   23.3286 H   0  0  0  0  0  0
  -24.3591  -36.8924   22.2067 H   0  0  0  0  0  0
  -23.7218  -37.6487   23.6671 H   0  0  0  0  0  0
  -26.0548  -31.5911   20.5968 H   0  0  0  0  0  0
  -26.8273  -30.8780   21.9819 H   0  0  0  0  0  0
  -28.1078  -29.0734   21.1763 H   0  0  0  0  0  0
  -26.0549  -25.9445   19.0339 H   0  0  0  0  0  0
  -23.9800  -27.2846   19.0388 H   0  0  0  0  0  0
  -23.7299  -30.5869   19.4007 H   0  0  0  0  0  0
  -22.7453  -29.2303   19.8652 H   0  0  0  0  0  0
  -25.1297  -36.1947   25.0838 H   0  0  0  0  0  0
  -20.9952  -28.3185   24.1417 H   0  0  0  0  0  0
  -20.5643  -26.2253   23.3588 H   0  0  0  0  0  0
  -21.6619  -26.7406   22.1184 H   0  0  0  0  0  0
  -19.6889  -25.6268   21.1228 H   0  0  0  0  0  0
  -19.6705  -27.3175   20.6737 H   0  0  0  0  0  0
  -17.4196  -26.6681   21.3990 H   0  0  0  0  0  0
  -18.0294  -26.0064   22.8996 H   0  0  0  0  0  0
  -19.7928  -30.7258   24.2234 H   0  0  0  0  0  0
  -17.5010  -31.6276   24.5137 H   0  0  0  0  0  0
  -15.5338  -30.2966   23.7709 H   0  0  0  0  0  0
  -15.8648  -28.0827   22.7071 H   0  0  0  0  0  0
  -24.5893  -30.7073   25.7810 H   0  0  0  0  0  0
  -24.8939  -32.2851   26.4957 H   0  0  0  0  0  0
  -25.8077  -30.8843   27.0220 H   0  0  0  0  0  0
  -26.2869  -29.6776   24.1189 H   0  0  0  0  0  0
  -27.4114  -29.7317   25.4592 H   0  0  0  0  0  0
  -27.8694  -30.4388   23.9261 H   0  0  0  0  0  0
  -27.2665  -33.3645   26.2052 H   0  0  0  0  0  0
  -28.3863  -32.6845   25.0327 H   0  0  0  0  0  0
  -28.0673  -31.8444   26.5429 H   0  0  0  0  0  0
  -28.2568  -38.0118   24.7532 H   0  0  0  0  0  0
  -28.1090  -36.2642   24.6267 H   0  0  0  0  0  0
  -27.2295  -37.1397   25.8862 H   0  0  0  0  0  0
  -20.9318  -29.8757   21.6952 H   0  0  0  0  0  0
  -26.0160  -38.2856   24.1436 H   0  0  0  0  0  0
  -34.4397  -21.3015   19.4799 H   0  0  0  0  0  0
  -34.7902  -20.5575   17.9165 H   0  0  0  0  0  0
  -35.6282  -20.0049   19.3703 H   0  0  0  0  0  0
  -28.9293  -25.6675   21.8929 H   0  0  0  0  0  0
  -27.2525  -25.4389   21.4972 H   0  0  0  0  0  0
  -28.5278  -22.9700   22.3333 H   0  0  0  0  0  0
  -26.1647  -23.5439   21.6791 H   0  0  0  0  0  0
  -32.4943  -20.6732   20.1645 H   0  0  0  0  0  0
  -29.0255  -15.3728   21.2731 H   0  0  0  0  0  0
  -28.0952  -20.9314   20.3193 H   0  0  0  0  0  0
  1 25  1  0  0  0
  1 30  2  0  0  0
  1 83  1  0  0  0
  2  3  1  0  0  0
  2 25  1  0  0  0
  2 91  1  0  0  0
  2 92  1  0  0  0
  3  4  1  0  0  0
  3 93  1  0  0  0
  3 94  1  0  0  0
  4  5  1  0  0  0
  4 95  1  0  0  0
  4 96  1  0  0  0
  5  6  1  0  0  0
  5 26  1  0  0  0
  5 97  1  0  0  0
  6 25  1  0  0  0
  6 98  1  0  0  0
  6 99  1  0  0  0
  7  8  2  0  0  0
  7 26  1  0  0  0
  7 29  1  0  0  0
  8  9  1  0  0  0
  8 22  1  0  0  0
  9 10  1  0  0  0
  9 27  2  0  0  0
 10 11  2  0  0  0
 10 15  1  0  0  0
 11 12  1  0  0  0
 11100  1  0  0  0
 12 13  2  0  0  0
 12101  1  0  0  0
 13 14  1  0  0  0
 13 31  1  0  0  0
 14 15  2  0  0  0
 14102  1  0  0  0
 15103  1  0  0  0
 16 17  2  0  0  0
 16 21  1  0  0  0
 16 31  1  0  0  0
 17 18  1  0  0  0
 17104  1  0  0  0
 18 19  2  0  0  0
 18105  1  0  0  0
 19 20  1  0  0  0
 19 24  1  0  0  0
 20 21  2  0  0  0
 20106  1  0  0  0
 21 23  1  0  0  0
 22 28  1  0  0  0
 22 32  2  0  0  0
 26 27  1  0  0  0
 28107  1  0  0  0
 28108  1  0  0  0
 29109  1  0  0  0
 29110  1  0  0  0
 33 34  1  0  0  0
 33 66  1  0  0  0
 33 70  2  0  0  0
 34 36  1  0  0  0
 34 59  1  0  0  0
 34111  1  0  0  0
 35 44  2  0  0  0
 35 45  1  0  0  0
 35 68  1  0  0  0
 36 56  1  0  0  0
 36112  1  0  0  0
 37 39  1  0  0  0
 37 47  1  0  0  0
 37 66  1  0  0  0
 37113  1  0  0  0
 38 43  2  0  0  0
 38 46  1  0  0  0
 38 47  1  0  0  0
 39 64  1  0  0  0
 39 67  2  0  0  0
 40 52  1  0  0  0
 40 53  2  0  0  0
 40 58  1  0  0  0
 41114  1  0  0  0
 41115  1  0  0  0
 41116  1  0  0  0
 41 48  1  0  0  0
 42 43  1  0  0  0
 42 66  1  0  0  0
 42117  1  0  0  0
 42118  1  0  0  0
 43 44  1  0  0  0
 44119  1  0  0  0
 45 46  2  0  0  0
 45120  1  0  0  0
 46121  1  0  0  0
 47122  1  0  0  0
 47123  1  0  0  0
 48 56  1  0  0  0
 48 65  1  0  0  0
 48124  1  0  0  0
 49 50  1  0  0  0
 49 53  1  0  0  0
 49 64  1  0  0  0
 49125  1  0  0  0
 50 51  1  0  0  0
 50126  1  0  0  0
 50127  1  0  0  0
 51 52  1  0  0  0
 51128  1  0  0  0
 51129  1  0  0  0
 52130  1  0  0  0
 52131  1  0  0  0
 53 54  1  0  0  0
 54 55  2  0  0  0
 54132  1  0  0  0
 55 57  1  0  0  0
 55133  1  0  0  0
 56 69  2  0  0  0
 57 58  2  0  0  0
 57134  1  0  0  0
 58135  1  0  0  0
 59 60  1  0  0  0
 59 61  1  0  0  0
 59 62  1  0  0  0
 60136  1  0  0  0
 60137  1  0  0  0
 60138  1  0  0  0
 61139  1  0  0  0
 61140  1  0  0  0
 61141  1  0  0  0
 62142  1  0  0  0
 62143  1  0  0  0
 62144  1  0  0  0
 63 65  1  0  0  0
 63145  1  0  0  0
 63146  1  0  0  0
 63147  1  0  0  0
 64148  1  0  0  0
 65149  1  0  0  0
 68 78  1  0  0  0
 71 72  2  0  0  0
 71 74  1  0  0  0
 71 90  1  0  0  0
 72 81  1  0  0  0
 72 82  1  0  0  0
 73 81  2  0  0  0
 73 83  1  0  0  0
 73 90  1  0  0  0
 74 84  1  0  0  0
 74 85  2  0  0  0
 75 78  1  0  0  0
 75 79  1  0  0  0
 75 86  2  0  0  0
 76 77  1  0  0  0
 76 82  1  0  0  0
 76 87  2  0  0  0
 77150  1  0  0  0
 77151  1  0  0  0
 77152  1  0  0  0
 78153  1  0  0  0
 78154  1  0  0  0
 79 80  1  0  0  0
 79 84  1  0  0  0
 79155  1  0  0  0
 80 88  1  0  0  0
 80 89  1  0  0  0
 80156  1  0  0  0
 82157  1  0  0  0
 83158  1  0  0  0
 84159  1  0  0  0
M  ISO  4   1 100  68 101  78 101  83 100
M  END
> <chiral flag>
0

> <version>
0

> <s_m_source_file>
/data/baiqing/PycharmProjects/Reinvent-master-3.2/result/LINK_invent/BTK/process_docking_weight1_custom_product_contain_oxygen_bond_distance_aromatic_linkinvent_7_9_3/rearranged_h_0183.sdf

> <i_m_source_file_index>
60

> <r_mmod_Potential_Energy-OPLS-2005>
-213.385009765625

> <r_mmod_Stretch_Energy-OPLS-2005>
50.498420715332

> <r_mmod_Bend_Energy-OPLS-2005>
115.445137023926

> <r_mmod_Torsional_Energy-OPLS-2005>
255.343200683594

> <r_mmod_Improper_Torsional_Energy-OPLS-2005>
4.69449186325073

> <r_mmod_Van_der_Waal_Energy-OPLS-2005>
124.846778869629

> <r_mmod_Electrostatic_Energy-OPLS-2005>
-480.245941162109

> <r_mmod_Solvation_Energy-OPLS-2005>
-307.194396972656

> <b_mmod_Minimization_Converged-OPLS-2005>
0

> <r_mmod_RMS_Derivative-OPLS-2005>
2.12230205535889

$$$$
60
                    3D
 Structure written by MMmdl.
149157  0  0  1  0            999 V2000
  -30.5740  -14.7949   20.4472 C   0  0  0  0  0  0
  -30.4420  -12.4842   19.4786 C   0  0  0  0  0  0
  -29.5168  -12.5103   18.2402 C   0  0  0  0  0  0
  -28.0424  -12.3252   18.6522 C   0  0  0  0  0  0
  -27.6413  -13.2299   19.8482 C   0  0  2  0  0  0
  -28.6856  -13.1723   20.9851 C   0  0  0  0  0  0
  -25.2514  -13.8187   20.5686 C   0  0  0  0  0  0
  -24.1807  -13.0439   20.9224 C   0  0  0  0  0  0
  -24.6400  -11.6911   20.8753 C   0  0  0  0  0  0
  -23.9079  -10.4289   21.0416 C   0  0  0  0  0  0
  -24.3629   -9.4199   21.9188 C   0  0  0  0  0  0
  -23.6311   -8.2231   22.0738 C   0  0  0  0  0  0
  -22.4286   -8.0279   21.3536 C   0  0  0  0  0  0
  -21.9925   -9.0250   20.4633 C   0  0  0  0  0  0
  -22.7251  -10.2138   20.3054 C   0  0  0  0  0  0
  -21.6860   -6.0748   22.5288 C   0  0  0  0  0  0
  -21.4008   -6.5648   23.8223 C   0  0  0  0  0  0
  -21.3657   -5.6796   24.9182 C   0  0  0  0  0  0
  -21.6044   -4.3063   24.7235 C   0  0  0  0  0  0
  -21.8819   -3.8153   23.4351 C   0  0  0  0  0  0
  -21.9187   -4.6973   22.3410 C   0  0  0  0  0  0
  -22.7830  -13.5217   21.1890 C   0  0  0  0  0  0
  -22.1663   -4.2160   21.0988 F   0  0  0  0  0  0
  -21.5629   -3.4538   25.7743 F   0  0  0  0  0  0
  -29.9819  -13.5474   20.4054 N   0  0  0  0  0  0
  -26.2930  -12.9392   20.3258 N   0  0  0  0  0  0
  -25.9333  -11.6541   20.5750 N   0  0  0  0  0  0
  -22.0471  -12.8195   22.0442 N   0  0  0  0  0  0
  -25.4181  -15.1910   20.4058 N   0  0  0  0  0  0
  -31.7664  -14.8963   20.1374 O   0  0  0  0  0  0
  -21.6641   -6.8890   21.4248 O   0  0  0  0  0  0
  -22.3514  -14.5530   20.6746 O   0  0  0  0  0  0
  -24.6335  -31.8543   23.1982 C   0  0  0  0  0  0
  -25.9157  -32.4744   23.8335 C   0  0  1  0  0  0
  -27.2154  -27.2340   20.1396 C   0  0  0  0  0  0
  -25.5958  -33.8544   24.2258 N   0  0  0  0  0  0
  -23.4311  -30.4763   21.5408 C   0  0  2  0  0  0
  -24.8798  -28.9175   20.1115 C   0  0  0  0  0  0
  -22.7528  -29.4590   22.4905 C   0  0  0  0  0  0
  -18.0294  -28.1391   22.8491 C   0  0  0  0  0  0
  -24.1478  -36.7269   23.2636 C   0  0  0  0  0  0
  -25.9775  -30.7591   21.3827 C   0  0  0  0  0  0
  -26.0510  -29.3769   20.7281 C   0  0  0  0  0  0
  -27.2216  -28.5458   20.7336 C   0  0  0  0  0  0
  -26.0270  -26.8581   19.4787 C   0  0  0  0  0  0
  -24.8751  -27.6686   19.4725 C   0  0  0  0  0  0
  -23.6526  -29.8089   20.1575 C   0  0  0  0  0  0
  -25.4113  -36.3060   24.0321 C   0  0  1  0  0  0
  -20.5898  -28.3707   23.1263 C   0  0  2  0  0  0
  -20.6769  -26.9421   22.5400 C   0  0  0  0  0  0
  -19.5732  -26.6382   21.5206 C   0  0  0  0  0  0
  -18.1923  -26.7935   22.1631 C   0  0  0  0  0  0
  -19.1554  -28.8870   23.2867 C   0  0  0  0  0  0
  -18.9472  -30.1474   23.8884 C   0  0  0  0  0  0
  -17.6468  -30.6588   24.0571 C   0  0  0  0  0  0
  -25.9066  -34.9432   23.5098 C   0  0  0  0  0  0
  -16.5362  -29.9086   23.6338 C   0  0  0  0  0  0
  -16.7281  -28.6508   23.0358 C   0  0  0  0  0  0
  -26.4507  -31.6588   25.0745 C   0  0  0  0  0  0
  -25.3728  -31.3780   26.1481 C   0  0  0  0  0  0
  -27.0354  -30.2995   24.6270 C   0  0  0  0  0  0
  -27.6059  -32.4336   25.7521 C   0  0  0  0  0  0
  -27.5563  -37.1803   24.8467 C   0  0  0  0  0  0
  -21.4226  -29.3058   22.3661 N   0  0  0  0  0  0
  -26.4281  -37.3767   23.9403 N   0  0  0  0  0  0
  -24.6996  -31.0503   22.0967 N   0  0  0  0  0  0
  -23.4224  -28.8139   23.3016 O   0  0  0  0  0  0
  -28.2923  -26.3092   20.1705 O   0  0  0  0  0  0
  -26.5620  -34.8909   22.4654 O   0  0  0  0  0  0
  -23.5486  -32.1384   23.7268 O   0  0  0  0  0  0
  -31.0761  -19.4027   20.1481 C   0  0  0  0  0  0
  -29.8343  -20.0352   20.3008 C   0  0  0  0  0  0
  -29.9314  -17.3833   20.5053 C   0  0  0  0  0  0
  -28.0554  -24.8986   20.3520 C   0  0  0  0  0  0
  -28.9578  -23.8418   20.2284 C   0  0  0  0  0  0
  -28.6288  -22.3633   20.4649 C   0  0  0  0  0  0
  -32.4170  -20.0669   19.8950 C   0  0  0  0  0  0
  -31.1029  -17.9760   20.2545 N   0  0  0  0  0  0
  -29.6256  -21.4386   20.1751 N   0  0  0  0  0  0
  -29.7498  -15.9057   20.6483 N   0  0  0  0  0  0
  -27.5399  -21.9799   20.8942 O   0  0  0  0  0  0
  -30.2226  -24.1594   19.9090 O   0  0  0  0  0  0
  -32.3121  -21.3904   19.7502 F   0  0  0  0  0  0
  -33.2568  -19.8481   20.9087 F   0  0  0  0  0  0
  -32.9906  -19.5950   18.7867 F   0  0  0  0  0  0
  -28.6666  -18.6946   20.6277 S   0  0  0  0  0  0
  -31.4797  -12.6268   19.1735 H   0  0  0  0  0  0
  -30.4057  -11.5104   19.9690 H   0  0  0  0  0  0
  -29.8060  -11.7281   17.5365 H   0  0  0  0  0  0
  -29.6363  -13.4592   17.7137 H   0  0  0  0  0  0
  -27.9086  -11.2765   18.9201 H   0  0  0  0  0  0
  -27.3847  -12.5062   17.8005 H   0  0  0  0  0  0
  -27.6320  -14.2485   19.4599 H   0  0  0  0  0  0
  -28.7339  -12.1708   21.4157 H   0  0  0  0  0  0
  -28.4118  -13.8427   21.8016 H   0  0  0  0  0  0
  -25.2777   -9.5676   22.4767 H   0  0  0  0  0  0
  -24.0027   -7.4619   22.7448 H   0  0  0  0  0  0
  -21.0855   -8.8776   19.8936 H   0  0  0  0  0  0
  -22.3713  -10.9680   19.6164 H   0  0  0  0  0  0
  -21.1993   -7.6152   23.9737 H   0  0  0  0  0  0
  -21.1483   -6.0522   25.9095 H   0  0  0  0  0  0
  -22.0594   -2.7612   23.2856 H   0  0  0  0  0  0
  -22.4108  -11.9863   22.4824 H   0  0  0  0  0  0
  -21.1074  -13.1189   22.2644 H   0  0  0  0  0  0
  -24.6376  -15.8315   20.4962 H   0  0  0  0  0  0
  -26.2396  -15.6261   20.0075 H   0  0  0  0  0  0
  -26.7229  -32.5384   23.1079 H   0  0  0  0  0  0
  -25.0109  -33.9680   25.0408 H   0  0  0  0  0  0
  -22.7270  -31.2985   21.3941 H   0  0  0  0  0  0
  -23.3722  -35.9615   23.3316 H   0  0  0  0  0  0
  -24.3557  -36.8875   22.2042 H   0  0  0  0  0  0
  -23.7256  -37.6485   23.6657 H   0  0  0  0  0  0
  -26.1194  -31.5186   20.6123 H   0  0  0  0  0  0
  -26.8531  -30.8103   22.0183 H   0  0  0  0  0  0
  -28.1193  -28.8907   21.2278 H   0  0  0  0  0  0
  -25.9720  -25.9036   18.9750 H   0  0  0  0  0  0
  -23.9846  -27.3140   18.9724 H   0  0  0  0  0  0
  -23.7817  -30.5845   19.4018 H   0  0  0  0  0  0
  -22.7701  -29.2450   19.8499 H   0  0  0  0  0  0
  -25.1295  -36.1907   25.0814 H   0  0  0  0  0  0
  -20.9982  -28.3283   24.1385 H   0  0  0  0  0  0
  -20.5624  -26.2332   23.3609 H   0  0  0  0  0  0
  -21.6643  -26.7422   22.1212 H   0  0  0  0  0  0
  -19.6874  -25.6285   21.1243 H   0  0  0  0  0  0
  -19.6648  -27.3183   20.6720 H   0  0  0  0  0  0
  -17.4184  -26.6682   21.4044 H   0  0  0  0  0  0
  -18.0324  -26.0086   22.9027 H   0  0  0  0  0  0
  -19.7946  -30.7299   24.2230 H   0  0  0  0  0  0
  -17.5014  -31.6263   24.5177 H   0  0  0  0  0  0
  -15.5355  -30.2964   23.7656 H   0  0  0  0  0  0
  -15.8691  -28.0815   22.7072 H   0  0  0  0  0  0
  -24.5875  -30.7164   25.7823 H   0  0  0  0  0  0
  -24.8962  -32.2967   26.4910 H   0  0  0  0  0  0
  -25.8029  -30.8957   27.0268 H   0  0  0  0  0  0
  -26.2969  -29.6738   24.1255 H   0  0  0  0  0  0
  -27.3961  -29.7288   25.4832 H   0  0  0  0  0  0
  -27.8863  -30.4233   23.9573 H   0  0  0  0  0  0
  -27.2689  -33.3664   26.2060 H   0  0  0  0  0  0
  -28.3888  -32.6857   25.0355 H   0  0  0  0  0  0
  -28.0696  -31.8494   26.5482 H   0  0  0  0  0  0
  -28.2608  -38.0071   24.7481 H   0  0  0  0  0  0
  -28.1037  -36.2609   24.6336 H   0  0  0  0  0  0
  -27.2292  -37.1503   25.8877 H   0  0  0  0  0  0
  -20.9429  -29.8814   21.6874 H   0  0  0  0  0  0
  -26.0151  -38.2839   24.1400 H   0  0  0  0  0  0
  -27.0298  -24.7003   20.6329 H   0  0  0  0  0  0
  -30.4230  -21.9040   19.7662 H   0  0  0  0  0  0
  -28.8043  -15.6428   20.8731 H   0  0  0  0  0  0
  -30.7864  -23.4812   20.2499 H   0  0  0  0  0  0
  1 25  1  0  0  0
  1 30  2  0  0  0
  1 80  1  0  0  0
  2  3  1  0  0  0
  2 25  1  0  0  0
  2 87  1  0  0  0
  2 88  1  0  0  0
  3  4  1  0  0  0
  3 89  1  0  0  0
  3 90  1  0  0  0
  4  5  1  0  0  0
  4 91  1  0  0  0
  4 92  1  0  0  0
  5  6  1  0  0  0
  5 26  1  0  0  0
  5 93  1  0  0  0
  6 25  1  0  0  0
  6 94  1  0  0  0
  6 95  1  0  0  0
  7  8  2  0  0  0
  7 26  1  0  0  0
  7 29  1  0  0  0
  8  9  1  0  0  0
  8 22  1  0  0  0
  9 10  1  0  0  0
  9 27  2  0  0  0
 10 11  2  0  0  0
 10 15  1  0  0  0
 11 12  1  0  0  0
 11 96  1  0  0  0
 12 13  2  0  0  0
 12 97  1  0  0  0
 13 14  1  0  0  0
 13 31  1  0  0  0
 14 15  2  0  0  0
 14 98  1  0  0  0
 15 99  1  0  0  0
 16 17  2  0  0  0
 16 21  1  0  0  0
 16 31  1  0  0  0
 17 18  1  0  0  0
 17100  1  0  0  0
 18 19  2  0  0  0
 18101  1  0  0  0
 19 20  1  0  0  0
 19 24  1  0  0  0
 20 21  2  0  0  0
 20102  1  0  0  0
 21 23  1  0  0  0
 22 28  1  0  0  0
 22 32  2  0  0  0
 26 27  1  0  0  0
 28103  1  0  0  0
 28104  1  0  0  0
 29105  1  0  0  0
 29106  1  0  0  0
 33 34  1  0  0  0
 33 66  1  0  0  0
 33 70  2  0  0  0
 34 36  1  0  0  0
 34 59  1  0  0  0
 34107  1  0  0  0
 35 44  2  0  0  0
 35 45  1  0  0  0
 35 68  1  0  0  0
 36 56  1  0  0  0
 36108  1  0  0  0
 37 39  1  0  0  0
 37 47  1  0  0  0
 37 66  1  0  0  0
 37109  1  0  0  0
 38 43  2  0  0  0
 38 46  1  0  0  0
 38 47  1  0  0  0
 39 64  1  0  0  0
 39 67  2  0  0  0
 40 52  1  0  0  0
 40 53  2  0  0  0
 40 58  1  0  0  0
 41110  1  0  0  0
 41111  1  0  0  0
 41112  1  0  0  0
 41 48  1  0  0  0
 42 43  1  0  0  0
 42 66  1  0  0  0
 42113  1  0  0  0
 42114  1  0  0  0
 43 44  1  0  0  0
 44115  1  0  0  0
 45 46  2  0  0  0
 45116  1  0  0  0
 46117  1  0  0  0
 47118  1  0  0  0
 47119  1  0  0  0
 48 56  1  0  0  0
 48 65  1  0  0  0
 48120  1  0  0  0
 49 50  1  0  0  0
 49 53  1  0  0  0
 49 64  1  0  0  0
 49121  1  0  0  0
 50 51  1  0  0  0
 50122  1  0  0  0
 50123  1  0  0  0
 51 52  1  0  0  0
 51124  1  0  0  0
 51125  1  0  0  0
 52126  1  0  0  0
 52127  1  0  0  0
 53 54  1  0  0  0
 54 55  2  0  0  0
 54128  1  0  0  0
 55 57  1  0  0  0
 55129  1  0  0  0
 56 69  2  0  0  0
 57 58  2  0  0  0
 57130  1  0  0  0
 58131  1  0  0  0
 59 60  1  0  0  0
 59 61  1  0  0  0
 59 62  1  0  0  0
 60132  1  0  0  0
 60133  1  0  0  0
 60134  1  0  0  0
 61135  1  0  0  0
 61136  1  0  0  0
 61137  1  0  0  0
 62138  1  0  0  0
 62139  1  0  0  0
 62140  1  0  0  0
 63 65  1  0  0  0
 63141  1  0  0  0
 63142  1  0  0  0
 63143  1  0  0  0
 64144  1  0  0  0
 65145  1  0  0  0
 68 74  1  0  0  0
 71 72  2  0  0  0
 71 77  1  0  0  0
 71 78  1  0  0  0
 72 79  1  0  0  0
 72 86  1  0  0  0
 73 78  2  0  0  0
 73 80  1  0  0  0
 73 86  1  0  0  0
 74 75  2  0  0  0
 74146  1  0  0  0
 75 76  1  0  0  0
 75 82  1  0  0  0
 76 79  1  0  0  0
 76 81  2  0  0  0
 77 83  1  0  0  0
 77 84  1  0  0  0
 77 85  1  0  0  0
 79147  1  0  0  0
 80148  1  0  0  0
 82149  1  0  0  0
M  ISO  4   1 100  68 101  74 101  80 100
M  END
> <chiral flag>
0

> <version>
0

> <s_m_source_file>
/data/baiqing/PycharmProjects/Reinvent-master-3.2/result/LINK_invent/BTK/process_docking_weight1_custom_product_contain_oxygen_bond_distance_aromatic_linkinvent_7_9_3/rearranged_h_0183.sdf

> <i_m_source_file_index>
61

> <r_mmod_Potential_Energy-OPLS-2005>
188.704818725586

> <r_mmod_Stretch_Energy-OPLS-2005>
132.1611328125

> <r_mmod_Bend_Energy-OPLS-2005>
189.428695678711

> <r_mmod_Torsional_Energy-OPLS-2005>
204.563430786133

> <r_mmod_Improper_Torsional_Energy-OPLS-2005>
4.78677368164062

> <r_mmod_Van_der_Waal_Energy-OPLS-2005>
120.017616271973

> <r_mmod_Electrostatic_Energy-OPLS-2005>
-315.906402587891

> <r_mmod_Solvation_Energy-OPLS-2005>
-252.090133666992

> <b_mmod_Minimization_Converged-OPLS-2005>
0

> <r_mmod_RMS_Derivative-OPLS-2005>
2.33874034881592

$$$$
61
                    3D
 Structure written by MMmdl.
164172  0  0  1  0            999 V2000
  -30.6164  -14.7699   20.4697 C   0  0  0  0  0  0
  -30.4326  -12.4727   19.4753 C   0  0  0  0  0  0
  -29.5095  -12.5091   18.2378 C   0  0  0  0  0  0
  -28.0367  -12.3307   18.6534 C   0  0  0  0  0  0
  -27.6399  -13.2343   19.8510 C   0  0  2  0  0  0
  -28.6865  -13.1839   20.9864 C   0  0  0  0  0  0
  -25.2494  -13.8196   20.5704 C   0  0  0  0  0  0
  -24.1790  -13.0439   20.9217 C   0  0  0  0  0  0
  -24.6389  -11.6919   20.8756 C   0  0  0  0  0  0
  -23.9067  -10.4294   21.0416 C   0  0  0  0  0  0
  -24.3620   -9.4208   21.9192 C   0  0  0  0  0  0
  -23.6294   -8.2243   22.0760 C   0  0  0  0  0  0
  -22.4277   -8.0281   21.3548 C   0  0  0  0  0  0
  -21.9914   -9.0253   20.4650 C   0  0  0  0  0  0
  -22.7241  -10.2134   20.3065 C   0  0  0  0  0  0
  -21.6855   -6.0733   22.5277 C   0  0  0  0  0  0
  -21.4016   -6.5639   23.8211 C   0  0  0  0  0  0
  -21.3660   -5.6796   24.9174 C   0  0  0  0  0  0
  -21.6045   -4.3057   24.7223 C   0  0  0  0  0  0
  -21.8819   -3.8147   23.4346 C   0  0  0  0  0  0
  -21.9193   -4.6962   22.3403 C   0  0  0  0  0  0
  -22.7810  -13.5216   21.1874 C   0  0  0  0  0  0
  -22.1664   -4.2146   21.0980 F   0  0  0  0  0  0
  -21.5629   -3.4542   25.7739 F   0  0  0  0  0  0
  -29.9833  -13.5441   20.3984 N   0  0  0  0  0  0
  -26.2927  -12.9411   20.3293 N   0  0  0  0  0  0
  -25.9323  -11.6550   20.5765 N   0  0  0  0  0  0
  -22.0461  -12.8201   22.0431 N   0  0  0  0  0  0
  -25.4147  -15.1928   20.4117 N   0  0  0  0  0  0
  -31.8006  -14.8377   20.1259 O   0  0  0  0  0  0
  -21.6644   -6.8877   21.4241 O   0  0  0  0  0  0
  -22.3492  -14.5520   20.6721 O   0  0  0  0  0  0
  -24.6337  -31.8546   23.1989 C   0  0  0  0  0  0
  -25.9155  -32.4749   23.8336 C   0  0  1  0  0  0
  -27.2151  -27.2385   20.1281 C   0  0  0  0  0  0
  -25.5941  -33.8552   24.2253 N   0  0  0  0  0  0
  -23.4311  -30.4785   21.5428 C   0  0  2  0  0  0
  -24.8785  -28.9287   20.1061 C   0  0  0  0  0  0
  -22.7514  -29.4599   22.4904 C   0  0  0  0  0  0
  -18.0293  -28.1393   22.8489 C   0  0  0  0  0  0
  -24.1489  -36.7279   23.2641 C   0  0  0  0  0  0
  -25.9805  -30.7576   21.3863 C   0  0  0  0  0  0
  -26.0502  -29.3797   20.7262 C   0  0  0  0  0  0
  -27.2180  -28.5458   20.7319 C   0  0  0  0  0  0
  -26.0247  -26.8783   19.4527 C   0  0  0  0  0  0
  -24.8732  -27.6870   19.4573 C   0  0  0  0  0  0
  -23.6505  -29.8176   20.1572 C   0  0  0  0  0  0
  -25.4117  -36.3067   24.0326 C   0  0  1  0  0  0
  -20.5902  -28.3708   23.1265 C   0  0  2  0  0  0
  -20.6781  -26.9421   22.5411 C   0  0  0  0  0  0
  -19.5751  -26.6386   21.5221 C   0  0  0  0  0  0
  -18.1931  -26.7934   22.1632 C   0  0  0  0  0  0
  -19.1549  -28.8867   23.2872 C   0  0  0  0  0  0
  -18.9466  -30.1468   23.8891 C   0  0  0  0  0  0
  -17.6464  -30.6593   24.0566 C   0  0  0  0  0  0
  -25.9062  -34.9437   23.5093 C   0  0  0  0  0  0
  -16.5356  -29.9089   23.6335 C   0  0  0  0  0  0
  -16.7279  -28.6508   23.0356 C   0  0  0  0  0  0
  -26.4509  -31.6579   25.0734 C   0  0  0  0  0  0
  -25.3713  -31.3740   26.1441 C   0  0  0  0  0  0
  -27.0363  -30.2988   24.6250 C   0  0  0  0  0  0
  -27.6056  -32.4328   25.7507 C   0  0  0  0  0  0
  -27.5579  -37.1795   24.8464 C   0  0  0  0  0  0
  -21.4219  -29.3050   22.3649 N   0  0  0  0  0  0
  -26.4292  -37.3768   23.9410 N   0  0  0  0  0  0
  -24.7008  -31.0488   22.0983 N   0  0  0  0  0  0
  -23.4204  -28.8135   23.3007 O   0  0  0  0  0  0
  -28.2888  -26.3099   20.2218 O   0  0  0  0  0  0
  -26.5638  -34.8916   22.4664 O   0  0  0  0  0  0
  -23.5481  -32.1382   23.7267 O   0  0  0  0  0  0
  -31.7437  -18.9664   21.8712 C   0  0  0  0  0  0
  -30.9179  -20.0451   21.4904 C   0  0  0  0  0  0
  -31.3867  -17.6347   21.5853 C   0  0  0  0  0  0
  -29.7287  -19.7779   20.7747 C   0  0  0  0  0  0
  -30.1970  -17.3532   20.8679 C   0  0  0  0  0  0
  -28.8477  -23.6516   20.5134 C   0  0  0  0  0  0
  -29.1407  -21.5861   16.5964 C   0  0  0  0  0  0
  -31.5759  -21.0722   16.9967 C   0  0  0  0  0  0
  -28.0755  -24.8699   19.7941 C   0  0  0  0  0  0
  -30.2406  -22.2046   18.8263 C   0  0  0  0  0  0
  -29.0039  -22.2052   19.7641 C   0  0  1  0  0  0
  -30.1918  -21.2008   17.6514 C   0  0  0  0  0  0
  -29.3891  -18.4484   20.5064 N   0  0  0  0  0  0
  -31.2352  -21.3392   21.9163 N   0  0  0  0  0  0
  -29.8421  -15.9155   20.6692 N   0  0  0  0  0  0
  -28.8086  -20.8648   20.4872 N   0  0  0  0  0  0
  -29.3176  -23.8261   21.6413 O   0  0  0  0  0  0
  -32.1697  -16.6436   22.0773 F   0  0  0  0  0  0
  -31.4723  -12.5951   19.1672 H   0  0  0  0  0  0
  -30.3825  -11.5004   19.9673 H   0  0  0  0  0  0
  -29.7931  -11.7301   17.5291 H   0  0  0  0  0  0
  -29.6314  -13.4586   17.7141 H   0  0  0  0  0  0
  -27.8963  -11.2825   18.9200 H   0  0  0  0  0  0
  -27.3784  -12.5185   17.8041 H   0  0  0  0  0  0
  -27.6284  -14.2527   19.4627 H   0  0  0  0  0  0
  -28.7292  -12.1894   21.4331 H   0  0  0  0  0  0
  -28.4175  -13.8687   21.7925 H   0  0  0  0  0  0
  -25.2766   -9.5684   22.4764 H   0  0  0  0  0  0
  -24.0005   -7.4635   22.7479 H   0  0  0  0  0  0
  -21.0845   -8.8773   19.8952 H   0  0  0  0  0  0
  -22.3703  -10.9673   19.6172 H   0  0  0  0  0  0
  -21.2012   -7.6150   23.9707 H   0  0  0  0  0  0
  -21.1483   -6.0532   25.9075 H   0  0  0  0  0  0
  -22.0597   -2.7608   23.2849 H   0  0  0  0  0  0
  -22.4089  -11.9866   22.4814 H   0  0  0  0  0  0
  -21.1077  -13.1213   22.2638 H   0  0  0  0  0  0
  -24.6395  -15.8381   20.5204 H   0  0  0  0  0  0
  -26.2482  -15.6384   20.0512 H   0  0  0  0  0  0
  -26.7220  -32.5388   23.1072 H   0  0  0  0  0  0
  -25.0068  -33.9688   25.0384 H   0  0  0  0  0  0
  -22.7285  -31.3022   21.3989 H   0  0  0  0  0  0
  -23.3759  -35.9604   23.3295 H   0  0  0  0  0  0
  -24.3581  -36.8912   22.2057 H   0  0  0  0  0  0
  -23.7234  -37.6472   23.6672 H   0  0  0  0  0  0
  -26.1267  -31.5183   20.6182 H   0  0  0  0  0  0
  -26.8555  -30.8032   22.0231 H   0  0  0  0  0  0
  -28.1077  -28.8821   21.2458 H   0  0  0  0  0  0
  -25.9371  -25.9466   18.9169 H   0  0  0  0  0  0
  -23.9817  -27.3432   18.9512 H   0  0  0  0  0  0
  -23.7756  -30.5975   19.4052 H   0  0  0  0  0  0
  -22.7679  -29.2537   19.8501 H   0  0  0  0  0  0
  -25.1299  -36.1914   25.0820 H   0  0  0  0  0  0
  -20.9995  -28.3290   24.1386 H   0  0  0  0  0  0
  -20.5691  -26.2317   23.3620 H   0  0  0  0  0  0
  -21.6646  -26.7445   22.1198 H   0  0  0  0  0  0
  -19.6910  -25.6296   21.1253 H   0  0  0  0  0  0
  -19.6686  -27.3197   20.6751 H   0  0  0  0  0  0
  -17.4202  -26.6690   21.4033 H   0  0  0  0  0  0
  -18.0324  -26.0079   22.9030 H   0  0  0  0  0  0
  -19.7940  -30.7290   24.2255 H   0  0  0  0  0  0
  -17.5015  -31.6272   24.5167 H   0  0  0  0  0  0
  -15.5354  -30.2987   23.7663 H   0  0  0  0  0  0
  -15.8680  -28.0825   22.7070 H   0  0  0  0  0  0
  -24.5893  -30.7092   25.7757 H   0  0  0  0  0  0
  -24.8903  -32.2917   26.4839 H   0  0  0  0  0  0
  -25.8013  -30.8926   27.0233 H   0  0  0  0  0  0
  -26.2964  -29.6726   24.1253 H   0  0  0  0  0  0
  -27.4005  -29.7265   25.4791 H   0  0  0  0  0  0
  -27.8860  -30.4251   23.9536 H   0  0  0  0  0  0
  -27.2660  -33.3639   26.2058 H   0  0  0  0  0  0
  -28.3877  -32.6871   25.0338 H   0  0  0  0  0  0
  -28.0711  -31.8468   26.5441 H   0  0  0  0  0  0
  -28.2589  -38.0099   24.7520 H   0  0  0  0  0  0
  -28.1085  -36.2629   24.6281 H   0  0  0  0  0  0
  -27.2299  -37.1432   25.8868 H   0  0  0  0  0  0
  -20.9408  -29.8773   21.6853 H   0  0  0  0  0  0
  -26.0167  -38.2844   24.1410 H   0  0  0  0  0  0
  -32.6402  -19.1503   22.4444 H   0  0  0  0  0  0
  -29.1405  -20.8781   15.7672 H   0  0  0  0  0  0
  -29.3348  -22.5764   16.1825 H   0  0  0  0  0  0
  -28.1318  -21.5888   17.0079 H   0  0  0  0  0  0
  -31.5655  -20.3382   16.1899 H   0  0  0  0  0  0
  -32.3277  -20.7494   17.7183 H   0  0  0  0  0  0
  -31.9076  -22.0223   16.5758 H   0  0  0  0  0  0
  -27.0308  -24.6056   19.9434 H   0  0  0  0  0  0
  -28.2626  -24.8029   18.7222 H   0  0  0  0  0  0
  -31.1405  -22.0284   19.4128 H   0  0  0  0  0  0
  -30.3807  -23.2048   18.4120 H   0  0  0  0  0  0
  -28.1482  -22.2052   19.0906 H   0  0  0  0  0  0
  -29.9314  -20.2149   18.0364 H   0  0  0  0  0  0
  -31.8106  -21.4524   22.7449 H   0  0  0  0  0  0
  -30.4820  -22.0243   21.8568 H   0  0  0  0  0  0
  -28.8539  -15.7339   20.7016 H   0  0  0  0  0  0
  -27.8699  -20.5175   20.3420 H   0  0  0  0  0  0
  1 25  1  0  0  0
  1 30  2  0  0  0
  1 85  1  0  0  0
  2  3  1  0  0  0
  2 25  1  0  0  0
  2 89  1  0  0  0
  2 90  1  0  0  0
  3  4  1  0  0  0
  3 91  1  0  0  0
  3 92  1  0  0  0
  4  5  1  0  0  0
  4 93  1  0  0  0
  4 94  1  0  0  0
  5  6  1  0  0  0
  5 26  1  0  0  0
  5 95  1  0  0  0
  6 25  1  0  0  0
  6 96  1  0  0  0
  6 97  1  0  0  0
  7  8  2  0  0  0
  7 26  1  0  0  0
  7 29  1  0  0  0
  8  9  1  0  0  0
  8 22  1  0  0  0
  9 10  1  0  0  0
  9 27  2  0  0  0
 10 11  2  0  0  0
 10 15  1  0  0  0
 11 12  1  0  0  0
 11 98  1  0  0  0
 12 13  2  0  0  0
 12 99  1  0  0  0
 13 14  1  0  0  0
 13 31  1  0  0  0
 14 15  2  0  0  0
 14100  1  0  0  0
 15101  1  0  0  0
 16 17  2  0  0  0
 16 21  1  0  0  0
 16 31  1  0  0  0
 17 18  1  0  0  0
 17102  1  0  0  0
 18 19  2  0  0  0
 18103  1  0  0  0
 19 20  1  0  0  0
 19 24  1  0  0  0
 20 21  2  0  0  0
 20104  1  0  0  0
 21 23  1  0  0  0
 22 28  1  0  0  0
 22 32  2  0  0  0
 26 27  1  0  0  0
 28105  1  0  0  0
 28106  1  0  0  0
 29107  1  0  0  0
 29108  1  0  0  0
 33 34  1  0  0  0
 33 66  1  0  0  0
 33 70  2  0  0  0
 34 36  1  0  0  0
 34 59  1  0  0  0
 34109  1  0  0  0
 35 44  2  0  0  0
 35 45  1  0  0  0
 35 68  1  0  0  0
 36 56  1  0  0  0
 36110  1  0  0  0
 37 39  1  0  0  0
 37 47  1  0  0  0
 37 66  1  0  0  0
 37111  1  0  0  0
 38 43  2  0  0  0
 38 46  1  0  0  0
 38 47  1  0  0  0
 39 64  1  0  0  0
 39 67  2  0  0  0
 40 52  1  0  0  0
 40 53  2  0  0  0
 40 58  1  0  0  0
 41112  1  0  0  0
 41113  1  0  0  0
 41114  1  0  0  0
 41 48  1  0  0  0
 42 43  1  0  0  0
 42 66  1  0  0  0
 42115  1  0  0  0
 42116  1  0  0  0
 43 44  1  0  0  0
 44117  1  0  0  0
 45 46  2  0  0  0
 45118  1  0  0  0
 46119  1  0  0  0
 47120  1  0  0  0
 47121  1  0  0  0
 48 56  1  0  0  0
 48 65  1  0  0  0
 48122  1  0  0  0
 49 50  1  0  0  0
 49 53  1  0  0  0
 49 64  1  0  0  0
 49123  1  0  0  0
 50 51  1  0  0  0
 50124  1  0  0  0
 50125  1  0  0  0
 51 52  1  0  0  0
 51126  1  0  0  0
 51127  1  0  0  0
 52128  1  0  0  0
 52129  1  0  0  0
 53 54  1  0  0  0
 54 55  2  0  0  0
 54130  1  0  0  0
 55 57  1  0  0  0
 55131  1  0  0  0
 56 69  2  0  0  0
 57 58  2  0  0  0
 57132  1  0  0  0
 58133  1  0  0  0
 59 60  1  0  0  0
 59 61  1  0  0  0
 59 62  1  0  0  0
 60134  1  0  0  0
 60135  1  0  0  0
 60136  1  0  0  0
 61137  1  0  0  0
 61138  1  0  0  0
 61139  1  0  0  0
 62140  1  0  0  0
 62141  1  0  0  0
 62142  1  0  0  0
 63 65  1  0  0  0
 63143  1  0  0  0
 63144  1  0  0  0
 63145  1  0  0  0
 64146  1  0  0  0
 65147  1  0  0  0
 68 79  1  0  0  0
 71 72  2  0  0  0
 71 73  1  0  0  0
 71148  1  0  0  0
 72 74  1  0  0  0
 72 84  1  0  0  0
 73 75  2  0  0  0
 73 88  1  0  0  0
 74 83  2  0  0  0
 74 86  1  0  0  0
 75 83  1  0  0  0
 75 85  1  0  0  0
 76 79  1  0  0  0
 76 81  1  0  0  0
 76 87  2  0  0  0
 77149  1  0  0  0
 77150  1  0  0  0
 77151  1  0  0  0
 77 82  1  0  0  0
 78 82  1  0  0  0
 78152  1  0  0  0
 78153  1  0  0  0
 78154  1  0  0  0
 79155  1  0  0  0
 79156  1  0  0  0
 80 82  1  0  0  0
 80157  1  0  0  0
 80158  1  0  0  0
 80 81  1  0  0  0
 81 86  1  0  0  0
 81159  1  0  0  0
 82160  1  0  0  0
 84161  1  0  0  0
 84162  1  0  0  0
 85163  1  0  0  0
 86164  1  0  0  0
M  ISO  4   1 100  68 101  79 101  85 100
M  END
> <chiral flag>
0

> <version>
0

> <s_m_source_file>
/data/baiqing/PycharmProjects/Reinvent-master-3.2/result/LINK_invent/BTK/process_docking_weight1_custom_product_contain_oxygen_bond_distance_aromatic_linkinvent_7_9_3/rearranged_h_0183.sdf

> <i_m_source_file_index>
62

> <r_mmod_Potential_Energy-OPLS-2005>
90.9126892089844

> <r_mmod_Stretch_Energy-OPLS-2005>
145.640365600586

> <r_mmod_Bend_Energy-OPLS-2005>
206.02734375

> <r_mmod_Torsional_Energy-OPLS-2005>
243.420608520508

> <r_mmod_Improper_Torsional_Energy-OPLS-2005>
13.4637975692749

> <r_mmod_Van_der_Waal_Energy-OPLS-2005>
146.252532958984

> <r_mmod_Electrostatic_Energy-OPLS-2005>
-513.735046386719

> <r_mmod_Solvation_Energy-OPLS-2005>
-249.993545532227

> <b_mmod_Minimization_Converged-OPLS-2005>
0

> <r_mmod_RMS_Derivative-OPLS-2005>
0.767511129379272

$$$$
62
                    3D
 Structure written by MMmdl.
156164  0  0  1  0            999 V2000
  -30.5996  -14.7127   20.4706 C   0  0  0  0  0  0
  -30.4455  -12.4271   19.4913 C   0  0  0  0  0  0
  -29.5235  -12.4696   18.2507 C   0  0  0  0  0  0
  -28.0411  -12.3293   18.6513 C   0  0  0  0  0  0
  -27.6500  -13.2238   19.8588 C   0  0  2  0  0  0
  -28.6889  -13.1283   20.9978 C   0  0  0  0  0  0
  -25.2554  -13.8182   20.5689 C   0  0  0  0  0  0
  -24.1820  -13.0421   20.9180 C   0  0  0  0  0  0
  -24.6397  -11.6903   20.8722 C   0  0  0  0  0  0
  -23.9074  -10.4293   21.0403 C   0  0  0  0  0  0
  -24.3623   -9.4212   21.9179 C   0  0  0  0  0  0
  -23.6291   -8.2254   22.0765 C   0  0  0  0  0  0
  -22.4282   -8.0290   21.3549 C   0  0  0  0  0  0
  -21.9908   -9.0264   20.4656 C   0  0  0  0  0  0
  -22.7245  -10.2137   20.3057 C   0  0  0  0  0  0
  -21.6854   -6.0732   22.5277 C   0  0  0  0  0  0
  -21.4019   -6.5637   23.8206 C   0  0  0  0  0  0
  -21.3655   -5.6791   24.9171 C   0  0  0  0  0  0
  -21.6046   -4.3057   24.7226 C   0  0  0  0  0  0
  -21.8816   -3.8146   23.4353 C   0  0  0  0  0  0
  -21.9194   -4.6959   22.3407 C   0  0  0  0  0  0
  -22.7854  -13.5231   21.1828 C   0  0  0  0  0  0
  -22.1663   -4.2141   21.0981 F   0  0  0  0  0  0
  -21.5621   -3.4541   25.7737 F   0  0  0  0  0  0
  -29.9978  -13.4767   20.4317 N   0  0  0  0  0  0
  -26.2975  -12.9373   20.3298 N   0  0  0  0  0  0
  -25.9333  -11.6524   20.5764 N   0  0  0  0  0  0
  -22.0500  -12.8232   22.0399 N   0  0  0  0  0  0
  -25.4247  -15.1907   20.4134 N   0  0  0  0  0  0
  -31.7719  -14.8522   20.1166 O   0  0  0  0  0  0
  -21.6648   -6.8895   21.4250 O   0  0  0  0  0  0
  -22.3544  -14.5530   20.6686 O   0  0  0  0  0  0
  -24.6329  -31.8578   23.1978 C   0  0  0  0  0  0
  -25.9143  -32.4768   23.8337 C   0  0  1  0  0  0
  -27.2144  -27.2738   20.0966 C   0  0  0  0  0  0
  -25.5933  -33.8563   24.2266 N   0  0  0  0  0  0
  -23.4251  -30.4841   21.5464 C   0  0  2  0  0  0
  -24.8667  -28.9355   20.1161 C   0  0  0  0  0  0
  -22.7468  -29.4609   22.4935 C   0  0  0  0  0  0
  -18.0267  -28.1387   22.8509 C   0  0  0  0  0  0
  -24.1485  -36.7287   23.2640 C   0  0  0  0  0  0
  -25.9767  -30.7723   21.3760 C   0  0  0  0  0  0
  -26.0464  -29.3985   20.7139 C   0  0  0  0  0  0
  -27.2233  -28.5807   20.6937 C   0  0  0  0  0  0
  -25.9956  -26.8783   19.4915 C   0  0  0  0  0  0
  -24.8460  -27.6798   19.5014 C   0  0  0  0  0  0
  -23.6411  -29.8245   20.1623 C   0  0  0  0  0  0
  -25.4115  -36.3089   24.0333 C   0  0  1  0  0  0
  -20.5874  -28.3666   23.1216 C   0  0  2  0  0  0
  -20.6761  -26.9388   22.5344 C   0  0  0  0  0  0
  -19.5709  -26.6360   21.5187 C   0  0  0  0  0  0
  -18.1891  -26.7959   22.1596 C   0  0  0  0  0  0
  -19.1540  -28.8846   23.2851 C   0  0  0  0  0  0
  -18.9474  -30.1477   23.8842 C   0  0  0  0  0  0
  -17.6481  -30.6622   24.0524 C   0  0  0  0  0  0
  -25.9055  -34.9458   23.5116 C   0  0  0  0  0  0
  -16.5354  -29.9116   23.6332 C   0  0  0  0  0  0
  -16.7259  -28.6512   23.0400 C   0  0  0  0  0  0
  -26.4493  -31.6589   25.0735 C   0  0  0  0  0  0
  -25.3702  -31.3770   26.1444 C   0  0  0  0  0  0
  -27.0321  -30.3005   24.6222 C   0  0  0  0  0  0
  -27.6041  -32.4327   25.7509 C   0  0  0  0  0  0
  -27.5581  -37.1805   24.8468 C   0  0  0  0  0  0
  -21.4190  -29.3027   22.3616 N   0  0  0  0  0  0
  -26.4289  -37.3796   23.9418 N   0  0  0  0  0  0
  -24.6987  -31.0530   22.0963 N   0  0  0  0  0  0
  -23.4142  -28.8166   23.3064 O   0  0  0  0  0  0
  -28.3200  -26.3848   20.1266 O   0  0  0  0  0  0
  -26.5638  -34.8940   22.4696 O   0  0  0  0  0  0
  -23.5472  -32.1401   23.7269 O   0  0  0  0  0  0
  -30.3380  -17.7213   19.1502 C   0  0  0  0  0  0
  -29.9050  -17.1561   20.3519 C   0  0  0  0  0  0
  -29.7749  -19.7648   20.1481 C   0  0  0  0  0  0
  -29.1040  -23.8347   20.2587 C   0  0  0  0  0  0
  -27.7696  -22.0567   21.5594 C   0  0  0  0  0  0
  -28.1870  -24.9183   18.1458 C   0  0  0  0  0  0
  -28.6398  -22.2758   20.3146 C   0  0  2  0  0  0
  -28.1190  -24.9596   19.6878 C   0  0  2  0  0  0
  -30.7396  -17.0318   17.8629 C   0  0  0  0  0  0
  -30.3496  -19.1460   19.1203 N   0  0  0  0  0  0
  -29.7999  -15.8089   20.7462 N   0  0  0  0  0  0
  -29.6965  -21.2015   20.2373 N   0  0  0  0  0  0
  -30.2350  -24.1634   20.6265 O   0  0  0  0  0  0
  -32.0656  -16.9769   17.7226 F   0  0  0  0  0  0
  -30.2542  -15.7960   17.7655 F   0  0  0  0  0  0
  -30.2554  -17.6899   16.8067 F   0  0  0  0  0  0
  -29.2661  -18.5208   21.3415 S   0  0  0  0  0  0
  -31.4861  -12.5647   19.1909 H   0  0  0  0  0  0
  -30.4068  -11.4489   19.9737 H   0  0  0  0  0  0
  -29.7980  -11.6708   17.5615 H   0  0  0  0  0  0
  -29.6720  -13.4007   17.7053 H   0  0  0  0  0  0
  -27.8727  -11.2814   18.9002 H   0  0  0  0  0  0
  -27.4005  -12.5458   17.7948 H   0  0  0  0  0  0
  -27.6565  -14.2493   19.4912 H   0  0  0  0  0  0
  -28.7128  -12.1227   21.4174 H   0  0  0  0  0  0
  -28.4221  -13.7923   21.8218 H   0  0  0  0  0  0
  -25.2763   -9.5678   22.4743 H   0  0  0  0  0  0
  -23.9985   -7.4661   22.7491 H   0  0  0  0  0  0
  -21.0831   -8.8782   19.8984 H   0  0  0  0  0  0
  -22.3696  -10.9667   19.6163 H   0  0  0  0  0  0
  -21.2023   -7.6140   23.9707 H   0  0  0  0  0  0
  -21.1476   -6.0524   25.9069 H   0  0  0  0  0  0
  -22.0603   -2.7607   23.2848 H   0  0  0  0  0  0
  -22.4101  -11.9872   22.4766 H   0  0  0  0  0  0
  -21.1127  -13.1292   22.2632 H   0  0  0  0  0  0
  -24.6549  -15.8403   20.5366 H   0  0  0  0  0  0
  -26.2722  -15.6418   20.0923 H   0  0  0  0  0  0
  -26.7203  -32.5410   23.1069 H   0  0  0  0  0  0
  -25.0026  -33.9693   25.0367 H   0  0  0  0  0  0
  -22.7237  -31.3083   21.4051 H   0  0  0  0  0  0
  -23.3759  -35.9606   23.3313 H   0  0  0  0  0  0
  -24.3571  -36.8893   22.2052 H   0  0  0  0  0  0
  -23.7224  -37.6493   23.6649 H   0  0  0  0  0  0
  -26.1182  -31.5330   20.6052 H   0  0  0  0  0  0
  -26.8548  -30.8143   22.0099 H   0  0  0  0  0  0
  -28.1306  -28.9331   21.1646 H   0  0  0  0  0  0
  -25.8736  -25.9220   19.0068 H   0  0  0  0  0  0
  -23.9378  -27.3101   19.0457 H   0  0  0  0  0  0
  -23.7737  -30.6050   19.4123 H   0  0  0  0  0  0
  -22.7575  -29.2630   19.8488 H   0  0  0  0  0  0
  -25.1295  -36.1949   25.0826 H   0  0  0  0  0  0
  -20.9955  -28.3181   24.1329 H   0  0  0  0  0  0
  -20.5665  -26.2339   23.3592 H   0  0  0  0  0  0
  -21.6617  -26.7413   22.1123 H   0  0  0  0  0  0
  -19.6785  -25.6265   21.1215 H   0  0  0  0  0  0
  -19.6642  -27.3135   20.6688 H   0  0  0  0  0  0
  -17.4166  -26.6796   21.3981 H   0  0  0  0  0  0
  -18.0260  -26.0069   22.8940 H   0  0  0  0  0  0
  -19.7955  -30.7327   24.2132 H   0  0  0  0  0  0
  -17.5039  -31.6318   24.5090 H   0  0  0  0  0  0
  -15.5372  -30.3057   23.7652 H   0  0  0  0  0  0
  -15.8655  -28.0828   22.7169 H   0  0  0  0  0  0
  -24.5895  -30.7085   25.7801 H   0  0  0  0  0  0
  -24.8854  -32.2939   26.4804 H   0  0  0  0  0  0
  -25.7997  -30.9023   27.0268 H   0  0  0  0  0  0
  -26.2921  -29.6782   24.1173 H   0  0  0  0  0  0
  -27.3919  -29.7253   25.4759 H   0  0  0  0  0  0
  -27.8838  -30.4285   23.9534 H   0  0  0  0  0  0
  -27.2661  -33.3652   26.2048 H   0  0  0  0  0  0
  -28.3879  -32.6831   25.0347 H   0  0  0  0  0  0
  -28.0671  -31.8465   26.5453 H   0  0  0  0  0  0
  -28.2613  -38.0084   24.7518 H   0  0  0  0  0  0
  -28.1059  -36.2624   24.6294 H   0  0  0  0  0  0
  -27.2303  -37.1479   25.8869 H   0  0  0  0  0  0
  -20.9393  -29.8665   21.6726 H   0  0  0  0  0  0
  -26.0176  -38.2883   24.1395 H   0  0  0  0  0  0
  -26.9151  -22.7355   21.5703 H   0  0  0  0  0  0
  -28.3386  -22.2207   22.4758 H   0  0  0  0  0  0
  -27.3695  -21.0422   21.5901 H   0  0  0  0  0  0
  -27.7975  -23.9770   17.7609 H   0  0  0  0  0  0
  -29.2130  -25.0245   17.7972 H   0  0  0  0  0  0
  -27.6190  -25.7170   17.6733 H   0  0  0  0  0  0
  -27.9982  -22.1087   19.4478 H   0  0  0  0  0  0
  -27.1340  -24.6415   20.0270 H   0  0  0  0  0  0
  -28.9413  -15.5706   21.2208 H   0  0  0  0  0  0
  -30.5157  -21.6036   19.7910 H   0  0  0  0  0  0
  1 25  1  0  0  0
  1 30  2  0  0  0
  1 81  1  0  0  0
  2  3  1  0  0  0
  2 25  1  0  0  0
  2 88  1  0  0  0
  2 89  1  0  0  0
  3  4  1  0  0  0
  3 90  1  0  0  0
  3 91  1  0  0  0
  4  5  1  0  0  0
  4 92  1  0  0  0
  4 93  1  0  0  0
  5  6  1  0  0  0
  5 26  1  0  0  0
  5 94  1  0  0  0
  6 25  1  0  0  0
  6 95  1  0  0  0
  6 96  1  0  0  0
  7  8  2  0  0  0
  7 26  1  0  0  0
  7 29  1  0  0  0
  8  9  1  0  0  0
  8 22  1  0  0  0
  9 10  1  0  0  0
  9 27  2  0  0  0
 10 11  2  0  0  0
 10 15  1  0  0  0
 11 12  1  0  0  0
 11 97  1  0  0  0
 12 13  2  0  0  0
 12 98  1  0  0  0
 13 14  1  0  0  0
 13 31  1  0  0  0
 14 15  2  0  0  0
 14 99  1  0  0  0
 15100  1  0  0  0
 16 17  2  0  0  0
 16 21  1  0  0  0
 16 31  1  0  0  0
 17 18  1  0  0  0
 17101  1  0  0  0
 18 19  2  0  0  0
 18102  1  0  0  0
 19 20  1  0  0  0
 19 24  1  0  0  0
 20 21  2  0  0  0
 20103  1  0  0  0
 21 23  1  0  0  0
 22 28  1  0  0  0
 22 32  2  0  0  0
 26 27  1  0  0  0
 28104  1  0  0  0
 28105  1  0  0  0
 29106  1  0  0  0
 29107  1  0  0  0
 33 34  1  0  0  0
 33 66  1  0  0  0
 33 70  2  0  0  0
 34 36  1  0  0  0
 34 59  1  0  0  0
 34108  1  0  0  0
 35 44  2  0  0  0
 35 45  1  0  0  0
 35 68  1  0  0  0
 36 56  1  0  0  0
 36109  1  0  0  0
 37 39  1  0  0  0
 37 47  1  0  0  0
 37 66  1  0  0  0
 37110  1  0  0  0
 38 43  2  0  0  0
 38 46  1  0  0  0
 38 47  1  0  0  0
 39 64  1  0  0  0
 39 67  2  0  0  0
 40 52  1  0  0  0
 40 53  2  0  0  0
 40 58  1  0  0  0
 41111  1  0  0  0
 41112  1  0  0  0
 41113  1  0  0  0
 41 48  1  0  0  0
 42 43  1  0  0  0
 42 66  1  0  0  0
 42114  1  0  0  0
 42115  1  0  0  0
 43 44  1  0  0  0
 44116  1  0  0  0
 45 46  2  0  0  0
 45117  1  0  0  0
 46118  1  0  0  0
 47119  1  0  0  0
 47120  1  0  0  0
 48 56  1  0  0  0
 48 65  1  0  0  0
 48121  1  0  0  0
 49 50  1  0  0  0
 49 53  1  0  0  0
 49 64  1  0  0  0
 49122  1  0  0  0
 50 51  1  0  0  0
 50123  1  0  0  0
 50124  1  0  0  0
 51 52  1  0  0  0
 51125  1  0  0  0
 51126  1  0  0  0
 52127  1  0  0  0
 52128  1  0  0  0
 53 54  1  0  0  0
 54 55  2  0  0  0
 54129  1  0  0  0
 55 57  1  0  0  0
 55130  1  0  0  0
 56 69  2  0  0  0
 57 58  2  0  0  0
 57131  1  0  0  0
 58132  1  0  0  0
 59 60  1  0  0  0
 59 61  1  0  0  0
 59 62  1  0  0  0
 60133  1  0  0  0
 60134  1  0  0  0
 60135  1  0  0  0
 61136  1  0  0  0
 61137  1  0  0  0
 61138  1  0  0  0
 62139  1  0  0  0
 62140  1  0  0  0
 62141  1  0  0  0
 63 65  1  0  0  0
 63142  1  0  0  0
 63143  1  0  0  0
 63144  1  0  0  0
 64145  1  0  0  0
 65146  1  0  0  0
 68 78  1  0  0  0
 71 72  2  0  0  0
 71 79  1  0  0  0
 71 80  1  0  0  0
 72 81  1  0  0  0
 72 87  1  0  0  0
 73 80  2  0  0  0
 73 82  1  0  0  0
 73 87  1  0  0  0
 74 77  1  0  0  0
 74 78  1  0  0  0
 74 83  2  0  0  0
 75147  1  0  0  0
 75148  1  0  0  0
 75149  1  0  0  0
 75 77  1  0  0  0
 76150  1  0  0  0
 76151  1  0  0  0
 76152  1  0  0  0
 76 78  1  0  0  0
 77 82  1  0  0  0
 77153  1  0  0  0
 78154  1  0  0  0
 79 84  1  0  0  0
 79 85  1  0  0  0
 79 86  1  0  0  0
 81155  1  0  0  0
 82156  1  0  0  0
M  ISO  4   1 100  68 101  78 101  81 100
M  END
> <chiral flag>
0

> <version>
0

> <s_m_source_file>
/data/baiqing/PycharmProjects/Reinvent-master-3.2/result/LINK_invent/BTK/process_docking_weight1_custom_product_contain_oxygen_bond_distance_aromatic_linkinvent_7_9_3/rearranged_h_0183.sdf

> <i_m_source_file_index>
63

> <r_mmod_Potential_Energy-OPLS-2005>
207.703018188477

> <r_mmod_Stretch_Energy-OPLS-2005>
108.772102355957

> <r_mmod_Bend_Energy-OPLS-2005>
156.406005859375

> <r_mmod_Torsional_Energy-OPLS-2005>
248.155746459961

> <r_mmod_Improper_Torsional_Energy-OPLS-2005>
6.60458183288574

> <r_mmod_Van_der_Waal_Energy-OPLS-2005>
119.586494445801

> <r_mmod_Electrostatic_Energy-OPLS-2005>
-278.181793212891

> <r_mmod_Solvation_Energy-OPLS-2005>
-228.281707763672

> <b_mmod_Minimization_Converged-OPLS-2005>
0

> <r_mmod_RMS_Derivative-OPLS-2005>
3.83858966827393

$$$$
63
                    3D
 Structure written by MMmdl.
150158  0  0  1  0            999 V2000
  -30.6178  -14.7630   20.4726 C   0  0  0  0  0  0
  -30.4334  -12.4723   19.4669 C   0  0  0  0  0  0
  -29.5055  -12.4976   18.2333 C   0  0  0  0  0  0
  -28.0355  -12.3119   18.6549 C   0  0  0  0  0  0
  -27.6370  -13.2280   19.8418 C   0  0  2  0  0  0
  -28.6839  -13.1880   20.9761 C   0  0  0  0  0  0
  -25.2515  -13.8192   20.5702 C   0  0  0  0  0  0
  -24.1797  -13.0441   20.9216 C   0  0  0  0  0  0
  -24.6393  -11.6923   20.8771 C   0  0  0  0  0  0
  -23.9074  -10.4300   21.0431 C   0  0  0  0  0  0
  -24.3627   -9.4208   21.9199 C   0  0  0  0  0  0
  -23.6302   -8.2243   22.0760 C   0  0  0  0  0  0
  -22.4281   -8.0296   21.3545 C   0  0  0  0  0  0
  -21.9924   -9.0274   20.4647 C   0  0  0  0  0  0
  -22.7260  -10.2147   20.3065 C   0  0  0  0  0  0
  -21.6851   -6.0755   22.5291 C   0  0  0  0  0  0
  -21.4021   -6.5662   23.8229 C   0  0  0  0  0  0
  -21.3647   -5.6804   24.9184 C   0  0  0  0  0  0
  -21.6032   -4.3066   24.7228 C   0  0  0  0  0  0
  -21.8818   -3.8166   23.4348 C   0  0  0  0  0  0
  -21.9196   -4.6984   22.3407 C   0  0  0  0  0  0
  -22.7822  -13.5232   21.1866 C   0  0  0  0  0  0
  -22.1664   -4.2179   21.0977 F   0  0  0  0  0  0
  -21.5611   -3.4546   25.7736 F   0  0  0  0  0  0
  -29.9779  -13.5445   20.3816 N   0  0  0  0  0  0
  -26.2920  -12.9382   20.3255 N   0  0  0  0  0  0
  -25.9317  -11.6533   20.5754 N   0  0  0  0  0  0
  -22.0468  -12.8223   22.0420 N   0  0  0  0  0  0
  -25.4200  -15.1916   20.4134 N   0  0  0  0  0  0
  -31.8216  -14.8268   20.2028 O   0  0  0  0  0  0
  -21.6633   -6.8898   21.4250 O   0  0  0  0  0  0
  -22.3519  -14.5538   20.6713 O   0  0  0  0  0  0
  -24.6309  -31.8540   23.1991 C   0  0  0  0  0  0
  -25.9140  -32.4741   23.8321 C   0  0  1  0  0  0
  -27.2130  -27.2433   20.1325 C   0  0  0  0  0  0
  -25.5935  -33.8544   24.2248 N   0  0  0  0  0  0
  -23.4279  -30.4782   21.5424 C   0  0  2  0  0  0
  -24.8750  -28.9262   20.1115 C   0  0  0  0  0  0
  -22.7508  -29.4588   22.4905 C   0  0  0  0  0  0
  -18.0295  -28.1348   22.8473 C   0  0  0  0  0  0
  -24.1493  -36.7286   23.2640 C   0  0  0  0  0  0
  -25.9758  -30.7624   21.3827 C   0  0  0  0  0  0
  -26.0488  -29.3844   20.7230 C   0  0  0  0  0  0
  -27.2207  -28.5566   20.7217 C   0  0  0  0  0  0
  -26.0171  -26.8675   19.4789 C   0  0  0  0  0  0
  -24.8661  -27.6759   19.4784 C   0  0  0  0  0  0
  -23.6463  -29.8130   20.1588 C   0  0  0  0  0  0
  -25.4124  -36.3051   24.0311 C   0  0  1  0  0  0
  -20.5899  -28.3669   23.1249 C   0  0  2  0  0  0
  -20.6771  -26.9387   22.5394 C   0  0  0  0  0  0
  -19.5754  -26.6357   21.5184 C   0  0  0  0  0  0
  -18.1935  -26.7894   22.1607 C   0  0  0  0  0  0
  -19.1547  -28.8827   23.2851 C   0  0  0  0  0  0
  -18.9473  -30.1425   23.8864 C   0  0  0  0  0  0
  -17.6471  -30.6549   24.0544 C   0  0  0  0  0  0
  -25.9057  -34.9425   23.5083 C   0  0  0  0  0  0
  -16.5362  -29.9043   23.6318 C   0  0  0  0  0  0
  -16.7285  -28.6462   23.0338 C   0  0  0  0  0  0
  -26.4515  -31.6565   25.0706 C   0  0  0  0  0  0
  -25.3732  -31.3712   26.1423 C   0  0  0  0  0  0
  -27.0372  -30.2970   24.6215 C   0  0  0  0  0  0
  -27.6053  -32.4326   25.7479 C   0  0  0  0  0  0
  -27.5581  -37.1797   24.8470 C   0  0  0  0  0  0
  -21.4220  -29.3025   22.3647 N   0  0  0  0  0  0
  -26.4299  -37.3746   23.9398 N   0  0  0  0  0  0
  -24.6971  -31.0495   22.0976 N   0  0  0  0  0  0
  -23.4210  -28.8125   23.3001 O   0  0  0  0  0  0
  -28.3002  -26.3317   20.1834 O   0  0  0  0  0  0
  -26.5622  -34.8895   22.4650 O   0  0  0  0  0  0
  -23.5462  -32.1390   23.7271 O   0  0  0  0  0  0
  -31.2442  -17.4770   21.8681 C   0  0  0  0  0  0
  -31.6331  -18.7488   22.3070 C   0  0  0  0  0  0
  -31.0161  -19.9097   21.8057 C   0  0  0  0  0  0
  -30.2224  -17.3255   20.9174 C   0  0  0  0  0  0
  -29.9640  -19.7934   20.8563 C   0  0  0  0  0  0
  -28.9374  -22.2133   20.8419 C   0  0  0  0  0  0
  -28.0170  -24.8455   20.3130 C   0  0  0  0  0  0
  -29.1615  -23.6905   20.2272 C   0  0  2  0  0  0
  -29.6030  -18.4956   20.4433 N   0  0  0  0  0  0
  -29.4880  -21.0751   20.2593 N   0  0  0  0  0  0
  -29.8484  -15.9216   20.5957 N   0  0  0  0  0  0
  -28.2590  -22.1140   21.8675 O   0  0  0  0  0  0
  -32.6370  -18.8520   23.2152 F   0  0  0  0  0  0
  -29.5449  -23.5555   18.9540 F   0  0  0  0  0  0
  -31.6465  -21.4374   22.3361 Cl  0  0  0  0  0  0
  -31.4715  -12.6056   19.1568 H   0  0  0  0  0  0
  -30.3920  -11.5029   19.9664 H   0  0  0  0  0  0
  -29.7937  -11.7168   17.5279 H   0  0  0  0  0  0
  -29.6177  -13.4456   17.7065 H   0  0  0  0  0  0
  -27.9063  -11.2658   18.9354 H   0  0  0  0  0  0
  -27.3726  -12.4790   17.8049 H   0  0  0  0  0  0
  -27.6227  -14.2408   19.4394 H   0  0  0  0  0  0
  -28.7284  -12.1981   21.4330 H   0  0  0  0  0  0
  -28.4133  -13.8841   21.7732 H   0  0  0  0  0  0
  -25.2772   -9.5685   22.4771 H   0  0  0  0  0  0
  -24.0025   -7.4624   22.7468 H   0  0  0  0  0  0
  -21.0861   -8.8786   19.8944 H   0  0  0  0  0  0
  -22.3728  -10.9684   19.6172 H   0  0  0  0  0  0
  -21.2024   -7.6177   23.9750 H   0  0  0  0  0  0
  -21.1455   -6.0527   25.9085 H   0  0  0  0  0  0
  -22.0604   -2.7637   23.2836 H   0  0  0  0  0  0
  -22.4093  -11.9897   22.4807 H   0  0  0  0  0  0
  -21.1084  -13.1232   22.2608 H   0  0  0  0  0  0
  -24.6477  -15.8389   20.5277 H   0  0  0  0  0  0
  -26.2585  -15.6394   20.0683 H   0  0  0  0  0  0
  -26.7198  -32.5395   23.1048 H   0  0  0  0  0  0
  -25.0057  -33.9678   25.0373 H   0  0  0  0  0  0
  -22.7238  -31.3005   21.3960 H   0  0  0  0  0  0
  -23.3728  -35.9644   23.3318 H   0  0  0  0  0  0
  -24.3596  -36.8914   22.2059 H   0  0  0  0  0  0
  -23.7292  -37.6498   23.6671 H   0  0  0  0  0  0
  -26.1168  -31.5259   20.6166 H   0  0  0  0  0  0
  -26.8535  -30.8123   22.0157 H   0  0  0  0  0  0
  -28.1175  -28.9027   21.2175 H   0  0  0  0  0  0
  -25.9304  -25.9302   18.9532 H   0  0  0  0  0  0
  -23.9705  -27.3243   18.9854 H   0  0  0  0  0  0
  -23.7706  -30.5889   19.4037 H   0  0  0  0  0  0
  -22.7654  -29.2464   19.8510 H   0  0  0  0  0  0
  -25.1314  -36.1893   25.0801 H   0  0  0  0  0  0
  -20.9992  -28.3238   24.1369 H   0  0  0  0  0  0
  -20.5641  -26.2278   23.3599 H   0  0  0  0  0  0
  -21.6640  -26.7380   22.1209 H   0  0  0  0  0  0
  -19.6919  -25.6265   21.1216 H   0  0  0  0  0  0
  -19.6683  -27.3153   20.6700 H   0  0  0  0  0  0
  -17.4203  -26.6617   21.4015 H   0  0  0  0  0  0
  -18.0353  -26.0016   22.8989 H   0  0  0  0  0  0
  -19.7951  -30.7235   24.2223 H   0  0  0  0  0  0
  -17.5029  -31.6233   24.5140 H   0  0  0  0  0  0
  -15.5361  -30.2929   23.7650 H   0  0  0  0  0  0
  -15.8685  -28.0772   22.7055 H   0  0  0  0  0  0
  -24.5907  -30.7060   25.7760 H   0  0  0  0  0  0
  -24.8912  -32.2875   26.4826 H   0  0  0  0  0  0
  -25.8046  -30.8907   27.0213 H   0  0  0  0  0  0
  -26.2961  -29.6686   24.1243 H   0  0  0  0  0  0
  -27.4057  -29.7256   25.4745 H   0  0  0  0  0  0
  -27.8840  -30.4232   23.9458 H   0  0  0  0  0  0
  -27.2649  -33.3647   26.2005 H   0  0  0  0  0  0
  -28.3879  -32.6874   25.0320 H   0  0  0  0  0  0
  -28.0695  -31.8491   26.5445 H   0  0  0  0  0  0
  -28.2589  -38.0094   24.7476 H   0  0  0  0  0  0
  -28.1081  -36.2613   24.6339 H   0  0  0  0  0  0
  -27.2290  -37.1509   25.8871 H   0  0  0  0  0  0
  -20.9385  -29.8790   21.6902 H   0  0  0  0  0  0
  -26.0161  -38.2817   24.1375 H   0  0  0  0  0  0
  -31.7497  -16.6186   22.2833 H   0  0  0  0  0  0
  -27.4876  -24.7225   21.2585 H   0  0  0  0  0  0
  -27.3032  -24.5479   19.5498 H   0  0  0  0  0  0
  -30.0371  -24.0770   20.7501 H   0  0  0  0  0  0
  -29.8581  -21.2548   19.3374 H   0  0  0  0  0  0
  -28.8584  -15.7676   20.5036 H   0  0  0  0  0  0
  1 25  1  0  0  0
  1 30  2  0  0  0
  1 81  1  0  0  0
  2  3  1  0  0  0
  2 25  1  0  0  0
  2 86  1  0  0  0
  2 87  1  0  0  0
  3  4  1  0  0  0
  3 88  1  0  0  0
  3 89  1  0  0  0
  4  5  1  0  0  0
  4 90  1  0  0  0
  4 91  1  0  0  0
  5  6  1  0  0  0
  5 26  1  0  0  0
  5 92  1  0  0  0
  6 25  1  0  0  0
  6 93  1  0  0  0
  6 94  1  0  0  0
  7  8  2  0  0  0
  7 26  1  0  0  0
  7 29  1  0  0  0
  8  9  1  0  0  0
  8 22  1  0  0  0
  9 10  1  0  0  0
  9 27  2  0  0  0
 10 11  2  0  0  0
 10 15  1  0  0  0
 11 12  1  0  0  0
 11 95  1  0  0  0
 12 13  2  0  0  0
 12 96  1  0  0  0
 13 14  1  0  0  0
 13 31  1  0  0  0
 14 15  2  0  0  0
 14 97  1  0  0  0
 15 98  1  0  0  0
 16 17  2  0  0  0
 16 21  1  0  0  0
 16 31  1  0  0  0
 17 18  1  0  0  0
 17 99  1  0  0  0
 18 19  2  0  0  0
 18100  1  0  0  0
 19 20  1  0  0  0
 19 24  1  0  0  0
 20 21  2  0  0  0
 20101  1  0  0  0
 21 23  1  0  0  0
 22 28  1  0  0  0
 22 32  2  0  0  0
 26 27  1  0  0  0
 28102  1  0  0  0
 28103  1  0  0  0
 29104  1  0  0  0
 29105  1  0  0  0
 33 34  1  0  0  0
 33 66  1  0  0  0
 33 70  2  0  0  0
 34 36  1  0  0  0
 34 59  1  0  0  0
 34106  1  0  0  0
 35 44  2  0  0  0
 35 45  1  0  0  0
 35 68  1  0  0  0
 36 56  1  0  0  0
 36107  1  0  0  0
 37 39  1  0  0  0
 37 47  1  0  0  0
 37 66  1  0  0  0
 37108  1  0  0  0
 38 43  2  0  0  0
 38 46  1  0  0  0
 38 47  1  0  0  0
 39 64  1  0  0  0
 39 67  2  0  0  0
 40 52  1  0  0  0
 40 53  2  0  0  0
 40 58  1  0  0  0
 41109  1  0  0  0
 41110  1  0  0  0
 41111  1  0  0  0
 41 48  1  0  0  0
 42 43  1  0  0  0
 42 66  1  0  0  0
 42112  1  0  0  0
 42113  1  0  0  0
 43 44  1  0  0  0
 44114  1  0  0  0
 45 46  2  0  0  0
 45115  1  0  0  0
 46116  1  0  0  0
 47117  1  0  0  0
 47118  1  0  0  0
 48 56  1  0  0  0
 48 65  1  0  0  0
 48119  1  0  0  0
 49 50  1  0  0  0
 49 53  1  0  0  0
 49 64  1  0  0  0
 49120  1  0  0  0
 50 51  1  0  0  0
 50121  1  0  0  0
 50122  1  0  0  0
 51 52  1  0  0  0
 51123  1  0  0  0
 51124  1  0  0  0
 52125  1  0  0  0
 52126  1  0  0  0
 53 54  1  0  0  0
 54 55  2  0  0  0
 54127  1  0  0  0
 55 57  1  0  0  0
 55128  1  0  0  0
 56 69  2  0  0  0
 57 58  2  0  0  0
 57129  1  0  0  0
 58130  1  0  0  0
 59 60  1  0  0  0
 59 61  1  0  0  0
 59 62  1  0  0  0
 60131  1  0  0  0
 60132  1  0  0  0
 60133  1  0  0  0
 61134  1  0  0  0
 61135  1  0  0  0
 61136  1  0  0  0
 62137  1  0  0  0
 62138  1  0  0  0
 62139  1  0  0  0
 63 65  1  0  0  0
 63140  1  0  0  0
 63141  1  0  0  0
 63142  1  0  0  0
 64143  1  0  0  0
 65144  1  0  0  0
 68 77  1  0  0  0
 71 72  2  0  0  0
 71 74  1  0  0  0
 71145  1  0  0  0
 72 73  1  0  0  0
 72 83  1  0  0  0
 73 75  2  0  0  0
 73 85  1  0  0  0
 74 79  2  0  0  0
 74 81  1  0  0  0
 75 79  1  0  0  0
 75 80  1  0  0  0
 76 78  1  0  0  0
 76 80  1  0  0  0
 76 82  2  0  0  0
 77 78  1  0  0  0
 77146  1  0  0  0
 77147  1  0  0  0
 78 84  1  0  0  0
 78148  1  0  0  0
 80149  1  0  0  0
 81150  1  0  0  0
M  ISO  4   1 100  68 101  77 101  81 100
M  END
> <chiral flag>
0

> <version>
0

> <s_m_source_file>
/data/baiqing/PycharmProjects/Reinvent-master-3.2/result/LINK_invent/BTK/process_docking_weight1_custom_product_contain_oxygen_bond_distance_aromatic_linkinvent_7_9_3/rearranged_h_0183.sdf

> <i_m_source_file_index>
64

> <r_mmod_Potential_Energy-OPLS-2005>
69.3151397705078

> <r_mmod_Stretch_Energy-OPLS-2005>
140.111328125

> <r_mmod_Bend_Energy-OPLS-2005>
168.86994934082

> <r_mmod_Torsional_Energy-OPLS-2005>
270.444946289062

> <r_mmod_Improper_Torsional_Energy-OPLS-2005>
8.31511878967285

> <r_mmod_Van_der_Waal_Energy-OPLS-2005>
147.122192382812

> <r_mmod_Electrostatic_Energy-OPLS-2005>
-528.975524902344

> <r_mmod_Solvation_Energy-OPLS-2005>
-232.970016479492

> <b_mmod_Minimization_Converged-OPLS-2005>
0

> <r_mmod_RMS_Derivative-OPLS-2005>
2.30881381034851

$$$$
64
                    3D
 Structure written by MMmdl.
159167  0  0  1  0            999 V2000
  -30.6502  -14.5498   20.6205 C   0  0  0  0  0  0
  -30.4528  -12.3716   19.4157 C   0  0  0  0  0  0
  -29.5041  -12.5252   18.2043 C   0  0  0  0  0  0
  -28.0265  -12.3641   18.6190 C   0  0  0  0  0  0
  -27.6651  -13.1993   19.8743 C   0  0  2  0  0  0
  -28.7087  -12.9631   20.9900 C   0  0  0  0  0  0
  -25.2608  -13.8132   20.5665 C   0  0  0  0  0  0
  -24.1846  -13.0429   20.9179 C   0  0  0  0  0  0
  -24.6384  -11.6895   20.8733 C   0  0  0  0  0  0
  -23.9045  -10.4293   21.0410 C   0  0  0  0  0  0
  -24.3599   -9.4212   21.9191 C   0  0  0  0  0  0
  -23.6274   -8.2246   22.0768 C   0  0  0  0  0  0
  -22.4253   -8.0287   21.3556 C   0  0  0  0  0  0
  -21.9884   -9.0265   20.4665 C   0  0  0  0  0  0
  -22.7213  -10.2142   20.3070 C   0  0  0  0  0  0
  -21.6850   -6.0726   22.5279 C   0  0  0  0  0  0
  -21.4010   -6.5634   23.8211 C   0  0  0  0  0  0
  -21.3660   -5.6790   24.9175 C   0  0  0  0  0  0
  -21.6046   -4.3052   24.7226 C   0  0  0  0  0  0
  -21.8818   -3.8142   23.4348 C   0  0  0  0  0  0
  -21.9190   -4.6956   22.3402 C   0  0  0  0  0  0
  -22.7874  -13.5262   21.1831 C   0  0  0  0  0  0
  -22.1663   -4.2144   21.0980 F   0  0  0  0  0  0
  -21.5629   -3.4537   25.7739 F   0  0  0  0  0  0
  -30.0418  -13.3300   20.4606 N   0  0  0  0  0  0
  -26.3037  -12.9286   20.3335 N   0  0  0  0  0  0
  -25.9310  -11.6458   20.5734 N   0  0  0  0  0  0
  -22.0479  -12.8296   22.0398 N   0  0  0  0  0  0
  -25.4324  -15.1851   20.4064 N   0  0  0  0  0  0
  -31.7147  -14.8322   20.0483 O   0  0  0  0  0  0
  -21.6633   -6.8872   21.4243 O   0  0  0  0  0  0
  -22.3583  -14.5573   20.6677 O   0  0  0  0  0  0
  -24.6201  -31.8628   23.2075 C   0  0  0  0  0  0
  -25.9060  -32.4798   23.8396 C   0  0  1  0  0  0
  -27.2357  -27.3700   20.0999 C   0  0  0  0  0  0
  -25.5896  -33.8604   24.2300 N   0  0  0  0  0  0
  -23.4136  -30.4854   21.5486 C   0  0  2  0  0  0
  -24.8617  -28.9501   20.1121 C   0  0  0  0  0  0
  -22.7453  -29.4614   22.4962 C   0  0  0  0  0  0
  -18.0269  -28.1375   22.8481 C   0  0  0  0  0  0
  -24.1491  -36.7308   23.2638 C   0  0  0  0  0  0
  -25.9523  -30.8045   21.3779 C   0  0  0  0  0  0
  -26.0268  -29.4385   20.7160 C   0  0  0  0  0  0
  -27.2148  -28.6582   20.7037 C   0  0  0  0  0  0
  -26.0450  -26.9218   19.4780 C   0  0  0  0  0  0
  -24.8700  -27.6938   19.4871 C   0  0  0  0  0  0
  -23.6267  -29.8227   20.1628 C   0  0  0  0  0  0
  -25.4111  -36.3097   24.0328 C   0  0  1  0  0  0
  -20.5868  -28.3666   23.1295 C   0  0  2  0  0  0
  -20.6751  -26.9394   22.5409 C   0  0  0  0  0  0
  -19.5729  -26.6375   21.5206 C   0  0  0  0  0  0
  -18.1910  -26.7915   22.1620 C   0  0  0  0  0  0
  -19.1523  -28.8837   23.2881 C   0  0  0  0  0  0
  -18.9453  -30.1438   23.8900 C   0  0  0  0  0  0
  -17.6458  -30.6580   24.0558 C   0  0  0  0  0  0
  -25.9042  -34.9465   23.5114 C   0  0  0  0  0  0
  -16.5346  -29.9082   23.6328 C   0  0  0  0  0  0
  -16.7260  -28.6497   23.0353 C   0  0  0  0  0  0
  -26.4466  -31.6616   25.0762 C   0  0  0  0  0  0
  -25.3721  -31.3759   26.1510 C   0  0  0  0  0  0
  -27.0292  -30.3030   24.6216 C   0  0  0  0  0  0
  -27.6021  -32.4376   25.7515 C   0  0  0  0  0  0
  -27.5582  -37.1799   24.8453 C   0  0  0  0  0  0
  -21.4169  -29.3026   22.3701 N   0  0  0  0  0  0
  -26.4286  -37.3790   23.9411 N   0  0  0  0  0  0
  -24.6799  -31.0674   22.1006 N   0  0  0  0  0  0
  -23.4195  -28.8146   23.3018 O   0  0  0  0  0  0
  -28.3820  -26.5725   20.1394 O   0  0  0  0  0  0
  -26.5618  -34.8922   22.4684 O   0  0  0  0  0  0
  -23.5372  -32.1415   23.7413 O   0  0  0  0  0  0
  -29.0110  -19.4255   22.2897 C   0  0  0  0  0  0
  -28.7032  -18.3785   23.1743 C   0  0  0  0  0  0
  -29.0836  -17.0659   22.8390 C   0  0  0  0  0  0
  -29.7056  -19.1613   21.0876 C   0  0  0  0  0  0
  -29.7862  -16.7974   21.6447 C   0  0  0  0  0  0
  -29.2205  -22.6735   20.0109 C   0  0  0  0  0  0
  -29.3960  -24.1990   20.3306 C   0  0  0  0  0  0
  -28.2330  -25.1436   19.8628 C   0  0  0  0  0  0
  -30.2294  -21.6043   20.5975 C   0  0  2  0  0  0
  -31.7008  -21.9650   20.2731 C   0  0  0  0  0  0
  -30.0721  -17.8650   20.8091 N   0  3  0  0  0  0
  -28.0090  -18.6230   24.3670 N   0  0  0  0  0  0
  -29.9962  -15.3781   21.4688 N   0  0  0  0  0  0
  -29.9675  -20.1969   20.1607 N   0  0  0  0  0  0
  -28.2569  -22.3217   19.3206 O   0  0  0  0  0  0
  -28.7414  -16.0373   23.6565 F   0  0  0  0  0  0
  -32.5125  -21.0496   20.8052 F   0  0  0  0  0  0
  -32.0453  -23.1503   20.7751 F   0  0  0  0  0  0
  -31.8923  -21.9862   18.9530 F   0  0  0  0  0  0
  -31.4879  -12.5249   19.1045 H   0  0  0  0  0  0
  -30.4106  -11.3533   19.8054 H   0  0  0  0  0  0
  -29.7563  -11.7927   17.4352 H   0  0  0  0  0  0
  -29.6486  -13.5038   17.7449 H   0  0  0  0  0  0
  -27.8490  -11.3056   18.8156 H   0  0  0  0  0  0
  -27.3729  -12.6335   17.7883 H   0  0  0  0  0  0
  -27.7101  -14.2492   19.5820 H   0  0  0  0  0  0
  -28.7105  -11.9093   21.2757 H   0  0  0  0  0  0
  -28.4280  -13.4917   21.9016 H   0  0  0  0  0  0
  -25.2749   -9.5687   22.4763 H   0  0  0  0  0  0
  -23.9988   -7.4634   22.7488 H   0  0  0  0  0  0
  -21.0810   -8.8780   19.8972 H   0  0  0  0  0  0
  -22.3672  -10.9679   19.6180 H   0  0  0  0  0  0
  -21.2003   -7.6140   23.9713 H   0  0  0  0  0  0
  -21.1484   -6.0518   25.9077 H   0  0  0  0  0  0
  -22.0592   -2.7603   23.2847 H   0  0  0  0  0  0
  -22.4034  -11.9965   22.4838 H   0  0  0  0  0  0
  -21.1114  -13.1394   22.2568 H   0  0  0  0  0  0
  -24.6484  -15.8245   20.4836 H   0  0  0  0  0  0
  -26.2523  -15.6195   20.0041 H   0  0  0  0  0  0
  -26.7130  -32.5479   23.1156 H   0  0  0  0  0  0
  -25.0027  -33.9773   25.0431 H   0  0  0  0  0  0
  -22.7039  -31.3030   21.4083 H   0  0  0  0  0  0
  -23.3755  -35.9637   23.3288 H   0  0  0  0  0  0
  -24.3592  -36.8944   22.2056 H   0  0  0  0  0  0
  -23.7242  -37.6503   23.6675 H   0  0  0  0  0  0
  -26.0905  -31.5734   20.6164 H   0  0  0  0  0  0
  -26.8291  -30.8442   22.0120 H   0  0  0  0  0  0
  -28.1116  -29.0295   21.1797 H   0  0  0  0  0  0
  -25.9939  -25.9662   18.9781 H   0  0  0  0  0  0
  -23.9780  -27.3127   19.0089 H   0  0  0  0  0  0
  -23.7420  -30.6014   19.4075 H   0  0  0  0  0  0
  -22.7498  -29.2460   19.8614 H   0  0  0  0  0  0
  -25.1289  -36.1954   25.0819 H   0  0  0  0  0  0
  -20.9952  -28.3233   24.1418 H   0  0  0  0  0  0
  -20.5637  -26.2277   23.3602 H   0  0  0  0  0  0
  -21.6622  -26.7409   22.1213 H   0  0  0  0  0  0
  -19.6887  -25.6288   21.1226 H   0  0  0  0  0  0
  -19.6667  -27.3191   20.6741 H   0  0  0  0  0  0
  -17.4172  -26.6653   21.4027 H   0  0  0  0  0  0
  -18.0314  -26.0060   22.9022 H   0  0  0  0  0  0
  -19.7935  -30.7239   24.2278 H   0  0  0  0  0  0
  -17.5020  -31.6264   24.5154 H   0  0  0  0  0  0
  -15.5349  -30.2990   23.7652 H   0  0  0  0  0  0
  -15.8654  -28.0815   22.7084 H   0  0  0  0  0  0
  -24.5872  -30.7123   25.7866 H   0  0  0  0  0  0
  -24.8941  -32.2929   26.4968 H   0  0  0  0  0  0
  -25.8066  -30.8927   27.0270 H   0  0  0  0  0  0
  -26.2856  -29.6815   24.1207 H   0  0  0  0  0  0
  -27.3932  -29.7263   25.4729 H   0  0  0  0  0  0
  -27.8766  -30.4302   23.9475 H   0  0  0  0  0  0
  -27.2601  -33.3664   26.2102 H   0  0  0  0  0  0
  -28.3806  -32.6975   25.0328 H   0  0  0  0  0  0
  -28.0724  -31.8518   26.5423 H   0  0  0  0  0  0
  -28.2577  -38.0118   24.7530 H   0  0  0  0  0  0
  -28.1099  -36.2649   24.6235 H   0  0  0  0  0  0
  -27.2308  -37.1402   25.8857 H   0  0  0  0  0  0
  -20.9338  -29.8782   21.6948 H   0  0  0  0  0  0
  -26.0167  -38.2857   24.1446 H   0  0  0  0  0  0
  -28.6755  -20.4207   22.5313 H   0  0  0  0  0  0
  -30.3188  -24.5372   19.8616 H   0  0  0  0  0  0
  -29.5333  -24.3035   21.4068 H   0  0  0  0  0  0
  -27.3234  -24.7776   20.3416 H   0  0  0  0  0  0
  -28.0966  -25.0204   18.7870 H   0  0  0  0  0  0
  -30.1531  -21.6590   21.6824 H   0  0  0  0  0  0
  -30.5552  -17.6723   19.9284 H   0  0  0  0  0  0
  -27.3404  -19.3828   24.3565 H   0  0  0  0  0  0
  -27.6326  -17.7906   24.8062 H   0  0  0  0  0  0
  -29.3787  -14.8530   22.0668 H   0  0  0  0  0  0
  -30.4217  -19.9555   19.2891 H   0  0  0  0  0  0
  1 25  1  0  0  0
  1 30  2  0  0  0
  1 83  1  0  0  0
  2  3  1  0  0  0
  2 25  1  0  0  0
  2 90  1  0  0  0
  2 91  1  0  0  0
  3  4  1  0  0  0
  3 92  1  0  0  0
  3 93  1  0  0  0
  4  5  1  0  0  0
  4 94  1  0  0  0
  4 95  1  0  0  0
  5  6  1  0  0  0
  5 26  1  0  0  0
  5 96  1  0  0  0
  6 25  1  0  0  0
  6 97  1  0  0  0
  6 98  1  0  0  0
  7  8  2  0  0  0
  7 26  1  0  0  0
  7 29  1  0  0  0
  8  9  1  0  0  0
  8 22  1  0  0  0
  9 10  1  0  0  0
  9 27  2  0  0  0
 10 11  2  0  0  0
 10 15  1  0  0  0
 11 12  1  0  0  0
 11 99  1  0  0  0
 12 13  2  0  0  0
 12100  1  0  0  0
 13 14  1  0  0  0
 13 31  1  0  0  0
 14 15  2  0  0  0
 14101  1  0  0  0
 15102  1  0  0  0
 16 17  2  0  0  0
 16 21  1  0  0  0
 16 31  1  0  0  0
 17 18  1  0  0  0
 17103  1  0  0  0
 18 19  2  0  0  0
 18104  1  0  0  0
 19 20  1  0  0  0
 19 24  1  0  0  0
 20 21  2  0  0  0
 20105  1  0  0  0
 21 23  1  0  0  0
 22 28  1  0  0  0
 22 32  2  0  0  0
 26 27  1  0  0  0
 28106  1  0  0  0
 28107  1  0  0  0
 29108  1  0  0  0
 29109  1  0  0  0
 33 34  1  0  0  0
 33 66  1  0  0  0
 33 70  2  0  0  0
 34 36  1  0  0  0
 34 59  1  0  0  0
 34110  1  0  0  0
 35 44  2  0  0  0
 35 45  1  0  0  0
 35 68  1  0  0  0
 36 56  1  0  0  0
 36111  1  0  0  0
 37 39  1  0  0  0
 37 47  1  0  0  0
 37 66  1  0  0  0
 37112  1  0  0  0
 38 43  2  0  0  0
 38 46  1  0  0  0
 38 47  1  0  0  0
 39 64  1  0  0  0
 39 67  2  0  0  0
 40 52  1  0  0  0
 40 53  2  0  0  0
 40 58  1  0  0  0
 41113  1  0  0  0
 41114  1  0  0  0
 41115  1  0  0  0
 41 48  1  0  0  0
 42 43  1  0  0  0
 42 66  1  0  0  0
 42116  1  0  0  0
 42117  1  0  0  0
 43 44  1  0  0  0
 44118  1  0  0  0
 45 46  2  0  0  0
 45119  1  0  0  0
 46120  1  0  0  0
 47121  1  0  0  0
 47122  1  0  0  0
 48 56  1  0  0  0
 48 65  1  0  0  0
 48123  1  0  0  0
 49 50  1  0  0  0
 49 53  1  0  0  0
 49 64  1  0  0  0
 49124  1  0  0  0
 50 51  1  0  0  0
 50125  1  0  0  0
 50126  1  0  0  0
 51 52  1  0  0  0
 51127  1  0  0  0
 51128  1  0  0  0
 52129  1  0  0  0
 52130  1  0  0  0
 53 54  1  0  0  0
 54 55  2  0  0  0
 54131  1  0  0  0
 55 57  1  0  0  0
 55132  1  0  0  0
 56 69  2  0  0  0
 57 58  2  0  0  0
 57133  1  0  0  0
 58134  1  0  0  0
 59 60  1  0  0  0
 59 61  1  0  0  0
 59 62  1  0  0  0
 60135  1  0  0  0
 60136  1  0  0  0
 60137  1  0  0  0
 61138  1  0  0  0
 61139  1  0  0  0
 61140  1  0  0  0
 62141  1  0  0  0
 62142  1  0  0  0
 62143  1  0  0  0
 63 65  1  0  0  0
 63144  1  0  0  0
 63145  1  0  0  0
 63146  1  0  0  0
 64147  1  0  0  0
 65148  1  0  0  0
 68 78  1  0  0  0
 71 72  2  0  0  0
 71 74  1  0  0  0
 71149  1  0  0  0
 72 73  1  0  0  0
 72 82  1  0  0  0
 73 75  2  0  0  0
 73 86  1  0  0  0
 74 81  2  0  0  0
 74 84  1  0  0  0
 75 81  1  0  0  0
 75 83  1  0  0  0
 76 77  1  0  0  0
 76 79  1  0  0  0
 76 85  2  0  0  0
 77 78  1  0  0  0
 77150  1  0  0  0
 77151  1  0  0  0
 78152  1  0  0  0
 78153  1  0  0  0
 79 80  1  0  0  0
 79 84  1  0  0  0
 79154  1  0  0  0
 80 87  1  0  0  0
 80 88  1  0  0  0
 80 89  1  0  0  0
 81155  1  0  0  0
 82156  1  0  0  0
 82157  1  0  0  0
 83158  1  0  0  0
 84159  1  0  0  0
M  CHG  1  81   1
M  ISO  4   1 100  68 101  78 101  83 100
M  END
> <chiral flag>
0

> <version>
0

> <s_m_source_file>
/data/baiqing/PycharmProjects/Reinvent-master-3.2/result/LINK_invent/BTK/process_docking_weight1_custom_product_contain_oxygen_bond_distance_aromatic_linkinvent_7_9_3/rearranged_h_0183.sdf

> <i_m_source_file_index>
65

> <r_mmod_Potential_Energy-OPLS-2005>
-134.536056518555

> <r_mmod_Stretch_Energy-OPLS-2005>
64.234130859375

> <r_mmod_Bend_Energy-OPLS-2005>
159.473510742188

> <r_mmod_Torsional_Energy-OPLS-2005>
194.788040161133

> <r_mmod_Improper_Torsional_Energy-OPLS-2005>
9.89433002471924

> <r_mmod_Van_der_Waal_Energy-OPLS-2005>
156.861999511719

> <r_mmod_Electrostatic_Energy-OPLS-2005>
-287.933013916016

> <r_mmod_Solvation_Energy-OPLS-2005>
-459.053131103516

> <b_mmod_Minimization_Converged-OPLS-2005>
0

> <r_mmod_RMS_Derivative-OPLS-2005>
1.69077169895172

$$$$
65
                    3D
 Structure written by MMmdl.
165173  0  0  1  0            999 V2000
  -30.6868  -14.4991   20.5492 C   0  0  0  0  0  0
  -30.4228  -12.3184   19.4334 C   0  0  0  0  0  0
  -29.5006  -12.5218   18.2137 C   0  0  0  0  0  0
  -28.0197  -12.3814   18.6177 C   0  0  0  0  0  0
  -27.6624  -13.2139   19.8785 C   0  0  2  0  0  0
  -28.7029  -13.0045   21.0035 C   0  0  0  0  0  0
  -25.2585  -13.8174   20.5685 C   0  0  0  0  0  0
  -24.1850  -13.0432   20.9172 C   0  0  0  0  0  0
  -24.6415  -11.6904   20.8720 C   0  0  0  0  0  0
  -23.9068  -10.4290   21.0391 C   0  0  0  0  0  0
  -24.3622   -9.4208   21.9175 C   0  0  0  0  0  0
  -23.6300   -8.2250   22.0753 C   0  0  0  0  0  0
  -22.4282   -8.0283   21.3546 C   0  0  0  0  0  0
  -21.9909   -9.0253   20.4645 C   0  0  0  0  0  0
  -22.7241  -10.2131   20.3047 C   0  0  0  0  0  0
  -21.6858   -6.0739   22.5283 C   0  0  0  0  0  0
  -21.4022   -6.5641   23.8219 C   0  0  0  0  0  0
  -21.3663   -5.6790   24.9180 C   0  0  0  0  0  0
  -21.6038   -4.3050   24.7225 C   0  0  0  0  0  0
  -21.8822   -3.8152   23.4350 C   0  0  0  0  0  0
  -21.9199   -4.6972   22.3409 C   0  0  0  0  0  0
  -22.7879  -13.5228   21.1842 C   0  0  0  0  0  0
  -22.1660   -4.2160   21.0985 F   0  0  0  0  0  0
  -21.5631   -3.4529   25.7734 F   0  0  0  0  0  0
  -30.0372  -13.3046   20.4580 N   0  0  0  0  0  0
  -26.3032  -12.9358   20.3369 N   0  0  0  0  0  0
  -25.9347  -11.6510   20.5762 N   0  0  0  0  0  0
  -22.0507  -12.8238   22.0396 N   0  0  0  0  0  0
  -25.4251  -15.1903   20.4122 N   0  0  0  0  0  0
  -31.8021  -14.6874   20.0541 O   0  0  0  0  0  0
  -21.6651   -6.8881   21.4241 O   0  0  0  0  0  0
  -22.3572  -14.5541   20.6695 O   0  0  0  0  0  0
  -24.6163  -31.8664   23.2103 C   0  0  0  0  0  0
  -25.9041  -32.4816   23.8401 C   0  0  1  0  0  0
  -27.2257  -27.3966   20.0995 C   0  0  0  0  0  0
  -25.5893  -33.8616   24.2329 N   0  0  0  0  0  0
  -23.4069  -30.4910   21.5522 C   0  0  2  0  0  0
  -24.8518  -28.9584   20.1153 C   0  0  0  0  0  0
  -22.7439  -29.4629   22.4975 C   0  0  0  0  0  0
  -18.0269  -28.1372   22.8494 C   0  0  0  0  0  0
  -24.1493  -36.7314   23.2638 C   0  0  0  0  0  0
  -25.9413  -30.8190   21.3714 C   0  0  0  0  0  0
  -26.0166  -29.4531   20.7139 C   0  0  0  0  0  0
  -27.2074  -28.6821   20.7007 C   0  0  0  0  0  0
  -26.0369  -26.9354   19.4818 C   0  0  0  0  0  0
  -24.8593  -27.7016   19.4929 C   0  0  0  0  0  0
  -23.6178  -29.8303   20.1652 C   0  0  0  0  0  0
  -25.4116  -36.3111   24.0335 C   0  0  1  0  0  0
  -20.5866  -28.3659   23.1315 C   0  0  2  0  0  0
  -20.6765  -26.9391   22.5423 C   0  0  0  0  0  0
  -19.5743  -26.6379   21.5221 C   0  0  0  0  0  0
  -18.1919  -26.7920   22.1625 C   0  0  0  0  0  0
  -19.1521  -28.8834   23.2901 C   0  0  0  0  0  0
  -18.9443  -30.1442   23.8907 C   0  0  0  0  0  0
  -17.6444  -30.6578   24.0561 C   0  0  0  0  0  0
  -25.9040  -34.9467   23.5129 C   0  0  0  0  0  0
  -16.5335  -29.9080   23.6319 C   0  0  0  0  0  0
  -16.7254  -28.6493   23.0348 C   0  0  0  0  0  0
  -26.4470  -31.6585   25.0722 C   0  0  0  0  0  0
  -25.3735  -31.3676   26.1466 C   0  0  0  0  0  0
  -27.0290  -30.3027   24.6091 C   0  0  0  0  0  0
  -27.6053  -32.4299   25.7477 C   0  0  0  0  0  0
  -27.5588  -37.1817   24.8464 C   0  0  0  0  0  0
  -21.4161  -29.3028   22.3732 N   0  0  0  0  0  0
  -26.4306  -37.3793   23.9403 N   0  0  0  0  0  0
  -24.6731  -31.0743   22.1019 N   0  0  0  0  0  0
  -23.4212  -28.8152   23.3003 O   0  0  0  0  0  0
  -28.3731  -26.6124   20.1370 O   0  0  0  0  0  0
  -26.5607  -34.8913   22.4698 O   0  0  0  0  0  0
  -23.5351  -32.1412   23.7494 O   0  0  0  0  0  0
  -29.4773  -19.0643   20.3235 C   0  0  0  0  0  0
  -29.2001  -18.6522   19.0434 C   0  0  0  0  0  0
  -29.8070  -16.7796   20.4734 C   0  0  0  0  0  0
  -29.0374  -22.8501   20.8880 C   0  0  0  0  0  0
  -29.6598  -21.5851   20.2277 C   0  0  0  0  0  0
  -32.8745  -21.4475   18.6330 C   0  0  0  0  0  0
  -31.0769  -20.8234   16.9538 C   0  0  0  0  0  0
  -29.3969  -24.3048   20.4744 C   0  0  0  0  0  0
  -34.0194  -20.5414   18.1730 C   0  0  0  0  0  0
  -28.1701  -25.1760   20.0745 C   0  0  0  0  0  0
  -31.4359  -20.9257   18.4559 C   0  0  2  0  0  0
  -34.3099  -19.3732   19.1275 C   0  0  0  0  0  0
  -29.7642  -17.9486   21.1528 N   0  0  0  0  0  0
  -29.3512  -20.3891   20.8171 N   0  0  0  0  0  0
  -30.0040  -15.5168   21.1129 N   0  0  0  0  0  0
  -30.4885  -21.8069   19.1761 N   0  3  0  0  0  0
  -28.2357  -22.6713   21.8117 O   0  0  0  0  0  0
  -33.1167  -22.5743   19.0785 O   0  0  0  0  0  0
  -28.7628  -19.4800   18.0652 F   0  0  0  0  0  0
  -34.6153  -19.8248   20.3443 F   0  0  0  0  0  0
  -35.3412  -18.6674   18.6637 F   0  0  0  0  0  0
  -33.2558  -18.5617   19.2297 F   0  0  0  0  0  0
  -29.4294  -16.9514   18.7564 S   0  0  0  0  0  0
  -31.4689  -12.4121   19.1355 H   0  0  0  0  0  0
  -30.3148  -11.3068   19.8267 H   0  0  0  0  0  0
  -29.7460  -11.8037   17.4296 H   0  0  0  0  0  0
  -29.6717  -13.5113   17.7862 H   0  0  0  0  0  0
  -27.8270  -11.3245   18.8020 H   0  0  0  0  0  0
  -27.3739  -12.6661   17.7859 H   0  0  0  0  0  0
  -27.6997  -14.2623   19.5837 H   0  0  0  0  0  0
  -28.6783  -11.9720   21.3559 H   0  0  0  0  0  0
  -28.4599  -13.6162   21.8732 H   0  0  0  0  0  0
  -25.2759   -9.5709   22.4753 H   0  0  0  0  0  0
  -24.0014   -7.4654   22.7486 H   0  0  0  0  0  0
  -21.0830   -8.8770   19.8967 H   0  0  0  0  0  0
  -22.3677  -10.9674   19.6170 H   0  0  0  0  0  0
  -21.2008   -7.6145   23.9729 H   0  0  0  0  0  0
  -21.1481   -6.0514   25.9081 H   0  0  0  0  0  0
  -22.0597   -2.7618   23.2844 H   0  0  0  0  0  0
  -22.4077  -11.9863   22.4763 H   0  0  0  0  0  0
  -21.1149  -13.1317   22.2618 H   0  0  0  0  0  0
  -24.6471  -15.8324   20.5150 H   0  0  0  0  0  0
  -26.2688  -15.6404   20.0833 H   0  0  0  0  0  0
  -26.7093  -32.5512   23.1145 H   0  0  0  0  0  0
  -25.0057  -33.9791   25.0483 H   0  0  0  0  0  0
  -22.6950  -31.3074   21.4156 H   0  0  0  0  0  0
  -23.3748  -35.9654   23.3310 H   0  0  0  0  0  0
  -24.3580  -36.8925   22.2049 H   0  0  0  0  0  0
  -23.7247  -37.6524   23.6646 H   0  0  0  0  0  0
  -26.0614  -31.5830   20.6025 H   0  0  0  0  0  0
  -26.8265  -30.8701   21.9933 H   0  0  0  0  0  0
  -28.1035  -29.0577   21.1754 H   0  0  0  0  0  0
  -25.9882  -25.9784   18.9840 H   0  0  0  0  0  0
  -23.9654  -27.3200   19.0190 H   0  0  0  0  0  0
  -23.7328  -30.6069   19.4080 H   0  0  0  0  0  0
  -22.7406  -29.2548   19.8649 H   0  0  0  0  0  0
  -25.1292  -36.1987   25.0830 H   0  0  0  0  0  0
  -20.9944  -28.3216   24.1439 H   0  0  0  0  0  0
  -20.5671  -26.2261   23.3613 H   0  0  0  0  0  0
  -21.6634  -26.7443   22.1204 H   0  0  0  0  0  0
  -19.6910  -25.6296   21.1237 H   0  0  0  0  0  0
  -19.6686  -27.3195   20.6757 H   0  0  0  0  0  0
  -17.4201  -26.6664   21.4018 H   0  0  0  0  0  0
  -18.0315  -26.0050   22.9006 H   0  0  0  0  0  0
  -19.7921  -30.7257   24.2280 H   0  0  0  0  0  0
  -17.4996  -31.6258   24.5165 H   0  0  0  0  0  0
  -15.5338  -30.2989   23.7633 H   0  0  0  0  0  0
  -15.8651  -28.0817   22.7065 H   0  0  0  0  0  0
  -24.5923  -30.7014   25.7788 H   0  0  0  0  0  0
  -24.8910  -32.2821   26.4922 H   0  0  0  0  0  0
  -25.8087  -30.8833   27.0217 H   0  0  0  0  0  0
  -26.2821  -29.6800   24.1154 H   0  0  0  0  0  0
  -27.4070  -29.7245   25.4530 H   0  0  0  0  0  0
  -27.8658  -30.4338   23.9227 H   0  0  0  0  0  0
  -27.2686  -33.3601   26.2064 H   0  0  0  0  0  0
  -28.3853  -32.6854   25.0290 H   0  0  0  0  0  0
  -28.0725  -31.8411   26.5382 H   0  0  0  0  0  0
  -28.2608  -38.0114   24.7508 H   0  0  0  0  0  0
  -28.1084  -36.2640   24.6296 H   0  0  0  0  0  0
  -27.2298  -37.1471   25.8867 H   0  0  0  0  0  0
  -20.9327  -29.8772   21.6967 H   0  0  0  0  0  0
  -26.0193  -38.2876   24.1400 H   0  0  0  0  0  0
  -31.0141  -19.7782   16.6490 H   0  0  0  0  0  0
  -31.8060  -21.3031   16.2986 H   0  0  0  0  0  0
  -30.1118  -21.2784   16.7286 H   0  0  0  0  0  0
  -30.1418  -24.3186   19.6807 H   0  0  0  0  0  0
  -29.8718  -24.7545   21.3463 H   0  0  0  0  0  0
  -34.9169  -21.1480   18.0583 H   0  0  0  0  0  0
  -33.7809  -20.1501   17.1850 H   0  0  0  0  0  0
  -27.3271  -24.9146   20.7180 H   0  0  0  0  0  0
  -27.8918  -24.9060   19.0550 H   0  0  0  0  0  0
  -31.3946  -19.9341   18.8922 H   0  0  0  0  0  0
  -29.0339  -20.4212   21.7743 H   0  0  0  0  0  0
  -29.2589  -15.2392   21.7325 H   0  0  0  0  0  0
  -30.5972  -22.7838   18.9360 H   0  0  0  0  0  0
  1 25  1  0  0  0
  1 30  2  0  0  0
  1 85  1  0  0  0
  2  3  1  0  0  0
  2 25  1  0  0  0
  2 94  1  0  0  0
  2 95  1  0  0  0
  3  4  1  0  0  0
  3 96  1  0  0  0
  3 97  1  0  0  0
  4  5  1  0  0  0
  4 98  1  0  0  0
  4 99  1  0  0  0
  5  6  1  0  0  0
  5 26  1  0  0  0
  5100  1  0  0  0
  6 25  1  0  0  0
  6101  1  0  0  0
  6102  1  0  0  0
  7  8  2  0  0  0
  7 26  1  0  0  0
  7 29  1  0  0  0
  8  9  1  0  0  0
  8 22  1  0  0  0
  9 10  1  0  0  0
  9 27  2  0  0  0
 10 11  2  0  0  0
 10 15  1  0  0  0
 11 12  1  0  0  0
 11103  1  0  0  0
 12 13  2  0  0  0
 12104  1  0  0  0
 13 14  1  0  0  0
 13 31  1  0  0  0
 14 15  2  0  0  0
 14105  1  0  0  0
 15106  1  0  0  0
 16 17  2  0  0  0
 16 21  1  0  0  0
 16 31  1  0  0  0
 17 18  1  0  0  0
 17107  1  0  0  0
 18 19  2  0  0  0
 18108  1  0  0  0
 19 20  1  0  0  0
 19 24  1  0  0  0
 20 21  2  0  0  0
 20109  1  0  0  0
 21 23  1  0  0  0
 22 28  1  0  0  0
 22 32  2  0  0  0
 26 27  1  0  0  0
 28110  1  0  0  0
 28111  1  0  0  0
 29112  1  0  0  0
 29113  1  0  0  0
 33 34  1  0  0  0
 33 66  1  0  0  0
 33 70  2  0  0  0
 34 36  1  0  0  0
 34 59  1  0  0  0
 34114  1  0  0  0
 35 44  2  0  0  0
 35 45  1  0  0  0
 35 68  1  0  0  0
 36 56  1  0  0  0
 36115  1  0  0  0
 37 39  1  0  0  0
 37 47  1  0  0  0
 37 66  1  0  0  0
 37116  1  0  0  0
 38 43  2  0  0  0
 38 46  1  0  0  0
 38 47  1  0  0  0
 39 64  1  0  0  0
 39 67  2  0  0  0
 40 52  1  0  0  0
 40 53  2  0  0  0
 40 58  1  0  0  0
 41117  1  0  0  0
 41118  1  0  0  0
 41119  1  0  0  0
 41 48  1  0  0  0
 42 43  1  0  0  0
 42 66  1  0  0  0
 42120  1  0  0  0
 42121  1  0  0  0
 43 44  1  0  0  0
 44122  1  0  0  0
 45 46  2  0  0  0
 45123  1  0  0  0
 46124  1  0  0  0
 47125  1  0  0  0
 47126  1  0  0  0
 48 56  1  0  0  0
 48 65  1  0  0  0
 48127  1  0  0  0
 49 50  1  0  0  0
 49 53  1  0  0  0
 49 64  1  0  0  0
 49128  1  0  0  0
 50 51  1  0  0  0
 50129  1  0  0  0
 50130  1  0  0  0
 51 52  1  0  0  0
 51131  1  0  0  0
 51132  1  0  0  0
 52133  1  0  0  0
 52134  1  0  0  0
 53 54  1  0  0  0
 54 55  2  0  0  0
 54135  1  0  0  0
 55 57  1  0  0  0
 55136  1  0  0  0
 56 69  2  0  0  0
 57 58  2  0  0  0
 57137  1  0  0  0
 58138  1  0  0  0
 59 60  1  0  0  0
 59 61  1  0  0  0
 59 62  1  0  0  0
 60139  1  0  0  0
 60140  1  0  0  0
 60141  1  0  0  0
 61142  1  0  0  0
 61143  1  0  0  0
 61144  1  0  0  0
 62145  1  0  0  0
 62146  1  0  0  0
 62147  1  0  0  0
 63 65  1  0  0  0
 63148  1  0  0  0
 63149  1  0  0  0
 63150  1  0  0  0
 64151  1  0  0  0
 65152  1  0  0  0
 68 80  1  0  0  0
 71 72  2  0  0  0
 71 83  1  0  0  0
 71 84  1  0  0  0
 72 89  1  0  0  0
 72 93  1  0  0  0
 73 83  2  0  0  0
 73 85  1  0  0  0
 73 93  1  0  0  0
 74 75  1  0  0  0
 74 78  1  0  0  0
 74 87  2  0  0  0
 75 84  1  0  0  0
 75 86  2  0  0  0
 76 79  1  0  0  0
 76 81  1  0  0  0
 76 88  2  0  0  0
 77153  1  0  0  0
 77154  1  0  0  0
 77155  1  0  0  0
 77 81  1  0  0  0
 78 80  1  0  0  0
 78156  1  0  0  0
 78157  1  0  0  0
 79 82  1  0  0  0
 79158  1  0  0  0
 79159  1  0  0  0
 80160  1  0  0  0
 80161  1  0  0  0
 81 86  1  0  0  0
 81162  1  0  0  0
 82 90  1  0  0  0
 82 91  1  0  0  0
 82 92  1  0  0  0
 84163  1  0  0  0
 85164  1  0  0  0
 86165  1  0  0  0
M  CHG  1  86   1
M  ISO  4   1 100  68 101  80 101  85 100
M  END
> <chiral flag>
0

> <version>
0

> <s_m_source_file>
/data/baiqing/PycharmProjects/Reinvent-master-3.2/result/LINK_invent/BTK/process_docking_weight1_custom_product_contain_oxygen_bond_distance_aromatic_linkinvent_7_9_3/rearranged_h_0183.sdf

> <i_m_source_file_index>
66

> <r_mmod_Potential_Energy-OPLS-2005>
-418.302307128906

> <r_mmod_Stretch_Energy-OPLS-2005>
46.3534965515137

> <r_mmod_Bend_Energy-OPLS-2005>
125.45735168457

> <r_mmod_Torsional_Energy-OPLS-2005>
239.545806884766

> <r_mmod_Improper_Torsional_Energy-OPLS-2005>
6.92816972732544

> <r_mmod_Van_der_Waal_Energy-OPLS-2005>
128.665344238281

> <r_mmod_Electrostatic_Energy-OPLS-2005>
-513.551940917969

> <r_mmod_Solvation_Energy-OPLS-2005>
-469.74365234375

> <b_mmod_Minimization_Converged-OPLS-2005>
0

> <r_mmod_RMS_Derivative-OPLS-2005>
1.757483959198

$$$$
66
                    3D
 Structure written by MMmdl.
155163  0  0  1  0            999 V2000
  -30.6879  -14.5794   20.5106 C   0  0  0  0  0  0
  -30.4159  -12.3608   19.4479 C   0  0  0  0  0  0
  -29.4945  -12.4919   18.2182 C   0  0  0  0  0  0
  -28.0188  -12.3431   18.6339 C   0  0  0  0  0  0
  -27.6482  -13.2225   19.8588 C   0  0  2  0  0  0
  -28.6926  -13.0949   20.9896 C   0  0  0  0  0  0
  -25.2534  -13.8204   20.5698 C   0  0  0  0  0  0
  -24.1814  -13.0451   20.9197 C   0  0  0  0  0  0
  -24.6392  -11.6923   20.8751 C   0  0  0  0  0  0
  -23.9070  -10.4297   21.0406 C   0  0  0  0  0  0
  -24.3621   -9.4212   21.9184 C   0  0  0  0  0  0
  -23.6298   -8.2248   22.0753 C   0  0  0  0  0  0
  -22.4282   -8.0282   21.3541 C   0  0  0  0  0  0
  -21.9916   -9.0257   20.4646 C   0  0  0  0  0  0
  -22.7243  -10.2137   20.3056 C   0  0  0  0  0  0
  -21.6855   -6.0740   22.5279 C   0  0  0  0  0  0
  -21.4017   -6.5644   23.8212 C   0  0  0  0  0  0
  -21.3657   -5.6794   24.9173 C   0  0  0  0  0  0
  -21.6042   -4.3057   24.7224 C   0  0  0  0  0  0
  -21.8818   -3.8151   23.4344 C   0  0  0  0  0  0
  -21.9193   -4.6968   22.3401 C   0  0  0  0  0  0
  -22.7833  -13.5228   21.1859 C   0  0  0  0  0  0
  -22.1662   -4.2154   21.0978 F   0  0  0  0  0  0
  -21.5626   -3.4539   25.7736 F   0  0  0  0  0  0
  -30.0084  -13.3984   20.4139 N   0  0  0  0  0  0
  -26.2965  -12.9399   20.3325 N   0  0  0  0  0  0
  -25.9318  -11.6544   20.5772 N   0  0  0  0  0  0
  -22.0486  -12.8212   22.0416 N   0  0  0  0  0  0
  -25.4218  -15.1934   20.4128 N   0  0  0  0  0  0
  -31.8609  -14.6718   20.1428 O   0  0  0  0  0  0
  -21.6641   -6.8883   21.4241 O   0  0  0  0  0  0
  -22.3508  -14.5530   20.6703 O   0  0  0  0  0  0
  -24.6205  -31.8630   23.2050 C   0  0  0  0  0  0
  -25.9076  -32.4793   23.8359 C   0  0  1  0  0  0
  -27.2238  -27.3680   20.1197 C   0  0  0  0  0  0
  -25.5915  -33.8590   24.2301 N   0  0  0  0  0  0
  -23.4123  -30.4844   21.5463 C   0  0  2  0  0  0
  -24.8607  -28.9412   20.1145 C   0  0  0  0  0  0
  -22.7445  -29.4624   22.4960 C   0  0  0  0  0  0
  -18.0278  -28.1371   22.8476 C   0  0  0  0  0  0
  -24.1494  -36.7304   23.2636 C   0  0  0  0  0  0
  -25.9472  -30.8094   21.3686 C   0  0  0  0  0  0
  -26.0247  -29.4377   20.7178 C   0  0  0  0  0  0
  -27.2133  -28.6595   20.7143 C   0  0  0  0  0  0
  -26.0493  -26.9079   19.4939 C   0  0  0  0  0  0
  -24.8711  -27.6792   19.4953 C   0  0  0  0  0  0
  -23.6258  -29.8162   20.1619 C   0  0  0  0  0  0
  -25.4115  -36.3097   24.0334 C   0  0  1  0  0  0
  -20.5872  -28.3666   23.1297 C   0  0  2  0  0  0
  -20.6769  -26.9398   22.5412 C   0  0  0  0  0  0
  -19.5755  -26.6378   21.5201 C   0  0  0  0  0  0
  -18.1930  -26.7917   22.1608 C   0  0  0  0  0  0
  -19.1528  -28.8836   23.2877 C   0  0  0  0  0  0
  -18.9459  -30.1438   23.8894 C   0  0  0  0  0  0
  -17.6465  -30.6577   24.0557 C   0  0  0  0  0  0
  -25.9045  -34.9461   23.5120 C   0  0  0  0  0  0
  -16.5354  -29.9076   23.6325 C   0  0  0  0  0  0
  -16.7267  -28.6492   23.0344 C   0  0  0  0  0  0
  -26.4478  -31.6586   25.0706 C   0  0  0  0  0  0
  -25.3727  -31.3706   26.1446 C   0  0  0  0  0  0
  -27.0307  -30.3024   24.6106 C   0  0  0  0  0  0
  -27.6049  -32.4303   25.7472 C   0  0  0  0  0  0
  -27.5582  -37.1808   24.8464 C   0  0  0  0  0  0
  -21.4165  -29.3027   22.3701 N   0  0  0  0  0  0
  -26.4299  -37.3787   23.9405 N   0  0  0  0  0  0
  -24.6781  -31.0678   22.0979 N   0  0  0  0  0  0
  -23.4188  -28.8164   23.3019 O   0  0  0  0  0  0
  -28.3399  -26.5402   20.1094 O   0  0  0  0  0  0
  -26.5605  -34.8925   22.4681 O   0  0  0  0  0  0
  -23.5383  -32.1403   23.7421 O   0  0  0  0  0  0
  -29.7955  -18.3497   20.7493 C   0  0  0  0  0  0
  -28.6900  -18.6186   19.9592 C   0  0  0  0  0  0
  -29.5995  -20.6629   21.0391 C   0  0  0  0  0  0
  -29.8133  -23.2267   21.5722 C   0  0  0  0  0  0
  -27.2761  -25.3776   22.1110 C   0  0  0  0  0  0
  -30.6088  -17.0546   20.9775 C   0  0  0  0  0  0
  -28.8712  -24.0149   20.5972 C   0  0  0  0  0  0
  -28.4534  -25.4719   21.1126 C   0  0  1  0  0  0
  -30.2708  -19.5368   21.3529 N   0  0  0  0  0  0
  -27.9563  -17.7346   19.1747 N   0  0  0  0  0  0
  -30.0344  -21.8844   21.6510 N   0  0  0  0  0  0
  -29.9925  -15.6978   20.8550 N   0  0  0  0  0  0
  -30.4737  -23.8987   22.3664 O   0  0  0  0  0  0
  -28.2558  -20.3386   19.9561 S   0  0  0  0  0  0
  -31.4600  -12.4527   19.1451 H   0  0  0  0  0  0
  -30.3232  -11.3712   19.8981 H   0  0  0  0  0  0
  -29.7505  -11.7376   17.4730 H   0  0  0  0  0  0
  -29.6460  -13.4606   17.7394 H   0  0  0  0  0  0
  -27.8513  -11.2918   18.8701 H   0  0  0  0  0  0
  -27.3630  -12.5719   17.7930 H   0  0  0  0  0  0
  -27.6638  -14.2552   19.5099 H   0  0  0  0  0  0
  -28.6911  -12.0870   21.4075 H   0  0  0  0  0  0
  -28.4523  -13.7649   21.8163 H   0  0  0  0  0  0
  -25.2763   -9.5687   22.4760 H   0  0  0  0  0  0
  -24.0004   -7.4639   22.7471 H   0  0  0  0  0  0
  -21.0848   -8.8776   19.8952 H   0  0  0  0  0  0
  -22.3700  -10.9676   19.6166 H   0  0  0  0  0  0
  -21.2014   -7.6152   23.9718 H   0  0  0  0  0  0
  -21.1478   -6.0524   25.9075 H   0  0  0  0  0  0
  -22.0601   -2.7614   23.2842 H   0  0  0  0  0  0
  -22.4117  -11.9871   22.4789 H   0  0  0  0  0  0
  -21.1102  -13.1225   22.2631 H   0  0  0  0  0  0
  -24.6522  -15.8432   20.5288 H   0  0  0  0  0  0
  -26.2697  -15.6487   20.0938 H   0  0  0  0  0  0
  -26.7144  -32.5494   23.1114 H   0  0  0  0  0  0
  -25.0059  -33.9723   25.0444 H   0  0  0  0  0  0
  -22.7044  -31.3030   21.4039 H   0  0  0  0  0  0
  -23.3751  -35.9643   23.3307 H   0  0  0  0  0  0
  -24.3584  -36.8917   22.2051 H   0  0  0  0  0  0
  -23.7253  -37.6513   23.6647 H   0  0  0  0  0  0
  -26.0672  -31.5728   20.5991 H   0  0  0  0  0  0
  -26.8318  -30.8636   21.9912 H   0  0  0  0  0  0
  -28.1109  -29.0339   21.1855 H   0  0  0  0  0  0
  -26.0441  -25.9366   19.0201 H   0  0  0  0  0  0
  -23.9791  -27.2945   19.0204 H   0  0  0  0  0  0
  -23.7404  -30.5913   19.4032 H   0  0  0  0  0  0
  -22.7491  -29.2396   19.8620 H   0  0  0  0  0  0
  -25.1296  -36.1956   25.0830 H   0  0  0  0  0  0
  -20.9954  -28.3237   24.1417 H   0  0  0  0  0  0
  -20.5679  -26.2269   23.3597 H   0  0  0  0  0  0
  -21.6640  -26.7440   22.1207 H   0  0  0  0  0  0
  -19.6929  -25.6293   21.1222 H   0  0  0  0  0  0
  -19.6703  -27.3192   20.6737 H   0  0  0  0  0  0
  -17.4205  -26.6653   21.4009 H   0  0  0  0  0  0
  -18.0333  -26.0060   22.9009 H   0  0  0  0  0  0
  -19.7946  -30.7236   24.2271 H   0  0  0  0  0  0
  -17.5029  -31.6262   24.5149 H   0  0  0  0  0  0
  -15.5355  -30.2980   23.7654 H   0  0  0  0  0  0
  -15.8664  -28.0813   22.7061 H   0  0  0  0  0  0
  -24.5912  -30.7041   25.7779 H   0  0  0  0  0  0
  -24.8896  -32.2864   26.4867 H   0  0  0  0  0  0
  -25.8072  -30.8890   27.0217 H   0  0  0  0  0  0
  -26.2854  -29.6787   24.1160 H   0  0  0  0  0  0
  -27.4063  -29.7264   25.4572 H   0  0  0  0  0  0
  -27.8697  -30.4328   23.9271 H   0  0  0  0  0  0
  -27.2672  -33.3613   26.2037 H   0  0  0  0  0  0
  -28.3864  -32.6845   25.0300 H   0  0  0  0  0  0
  -28.0700  -31.8423   26.5396 H   0  0  0  0  0  0
  -28.2602  -38.0106   24.7511 H   0  0  0  0  0  0
  -28.1080  -36.2635   24.6294 H   0  0  0  0  0  0
  -27.2292  -37.1464   25.8866 H   0  0  0  0  0  0
  -20.9339  -29.8743   21.6909 H   0  0  0  0  0  0
  -26.0189  -38.2864   24.1413 H   0  0  0  0  0  0
  -27.4910  -24.6531   22.8967 H   0  0  0  0  0  0
  -26.3569  -25.0595   21.6191 H   0  0  0  0  0  0
  -27.0828  -26.3299   22.6066 H   0  0  0  0  0  0
  -31.0546  -17.0886   21.9721 H   0  0  0  0  0  0
  -31.4605  -17.1077   20.2986 H   0  0  0  0  0  0
  -29.4189  -24.1209   19.6614 H   0  0  0  0  0  0
  -27.9887  -23.4193   20.3663 H   0  0  0  0  0  0
  -29.2806  -25.8668   21.7007 H   0  0  0  0  0  0
  -28.4013  -16.8874   18.8375 H   0  0  0  0  0  0
  -27.2938  -18.0984   18.4954 H   0  0  0  0  0  0
  -30.7394  -21.7024   22.3478 H   0  0  0  0  0  0
  -29.0133  -15.6089   21.0780 H   0  0  0  0  0  0
  1 25  1  0  0  0
  1 30  2  0  0  0
  1 82  1  0  0  0
  2  3  1  0  0  0
  2 25  1  0  0  0
  2 85  1  0  0  0
  2 86  1  0  0  0
  3  4  1  0  0  0
  3 87  1  0  0  0
  3 88  1  0  0  0
  4  5  1  0  0  0
  4 89  1  0  0  0
  4 90  1  0  0  0
  5  6  1  0  0  0
  5 26  1  0  0  0
  5 91  1  0  0  0
  6 25  1  0  0  0
  6 92  1  0  0  0
  6 93  1  0  0  0
  7  8  2  0  0  0
  7 26  1  0  0  0
  7 29  1  0  0  0
  8  9  1  0  0  0
  8 22  1  0  0  0
  9 10  1  0  0  0
  9 27  2  0  0  0
 10 11  2  0  0  0
 10 15  1  0  0  0
 11 12  1  0  0  0
 11 94  1  0  0  0
 12 13  2  0  0  0
 12 95  1  0  0  0
 13 14  1  0  0  0
 13 31  1  0  0  0
 14 15  2  0  0  0
 14 96  1  0  0  0
 15 97  1  0  0  0
 16 17  2  0  0  0
 16 21  1  0  0  0
 16 31  1  0  0  0
 17 18  1  0  0  0
 17 98  1  0  0  0
 18 19  2  0  0  0
 18 99  1  0  0  0
 19 20  1  0  0  0
 19 24  1  0  0  0
 20 21  2  0  0  0
 20100  1  0  0  0
 21 23  1  0  0  0
 22 28  1  0  0  0
 22 32  2  0  0  0
 26 27  1  0  0  0
 28101  1  0  0  0
 28102  1  0  0  0
 29103  1  0  0  0
 29104  1  0  0  0
 33 34  1  0  0  0
 33 66  1  0  0  0
 33 70  2  0  0  0
 34 36  1  0  0  0
 34 59  1  0  0  0
 34105  1  0  0  0
 35 44  2  0  0  0
 35 45  1  0  0  0
 35 68  1  0  0  0
 36 56  1  0  0  0
 36106  1  0  0  0
 37 39  1  0  0  0
 37 47  1  0  0  0
 37 66  1  0  0  0
 37107  1  0  0  0
 38 43  2  0  0  0
 38 46  1  0  0  0
 38 47  1  0  0  0
 39 64  1  0  0  0
 39 67  2  0  0  0
 40 52  1  0  0  0
 40 53  2  0  0  0
 40 58  1  0  0  0
 41108  1  0  0  0
 41109  1  0  0  0
 41110  1  0  0  0
 41 48  1  0  0  0
 42 43  1  0  0  0
 42 66  1  0  0  0
 42111  1  0  0  0
 42112  1  0  0  0
 43 44  1  0  0  0
 44113  1  0  0  0
 45 46  2  0  0  0
 45114  1  0  0  0
 46115  1  0  0  0
 47116  1  0  0  0
 47117  1  0  0  0
 48 56  1  0  0  0
 48 65  1  0  0  0
 48118  1  0  0  0
 49 50  1  0  0  0
 49 53  1  0  0  0
 49 64  1  0  0  0
 49119  1  0  0  0
 50 51  1  0  0  0
 50120  1  0  0  0
 50121  1  0  0  0
 51 52  1  0  0  0
 51122  1  0  0  0
 51123  1  0  0  0
 52124  1  0  0  0
 52125  1  0  0  0
 53 54  1  0  0  0
 54 55  2  0  0  0
 54126  1  0  0  0
 55 57  1  0  0  0
 55127  1  0  0  0
 56 69  2  0  0  0
 57 58  2  0  0  0
 57128  1  0  0  0
 58129  1  0  0  0
 59 60  1  0  0  0
 59 61  1  0  0  0
 59 62  1  0  0  0
 60130  1  0  0  0
 60131  1  0  0  0
 60132  1  0  0  0
 61133  1  0  0  0
 61134  1  0  0  0
 61135  1  0  0  0
 62136  1  0  0  0
 62137  1  0  0  0
 62138  1  0  0  0
 63 65  1  0  0  0
 63139  1  0  0  0
 63140  1  0  0  0
 63141  1  0  0  0
 64142  1  0  0  0
 65143  1  0  0  0
 68 78  1  0  0  0
 71 72  2  0  0  0
 71 76  1  0  0  0
 71 79  1  0  0  0
 72 80  1  0  0  0
 72 84  1  0  0  0
 73 79  2  0  0  0
 73 81  1  0  0  0
 73 84  1  0  0  0
 74 77  1  0  0  0
 74 81  1  0  0  0
 74 83  2  0  0  0
 75144  1  0  0  0
 75145  1  0  0  0
 75146  1  0  0  0
 75 78  1  0  0  0
 76 82  1  0  0  0
 76147  1  0  0  0
 76148  1  0  0  0
 77 78  1  0  0  0
 77149  1  0  0  0
 77150  1  0  0  0
 78151  1  0  0  0
 80152  1  0  0  0
 80153  1  0  0  0
 81154  1  0  0  0
 82155  1  0  0  0
M  ISO  4   1 100  68 101  78 101  82 100
M  END
> <chiral flag>
0

> <version>
0

> <s_m_source_file>
/data/baiqing/PycharmProjects/Reinvent-master-3.2/result/LINK_invent/BTK/process_docking_weight1_custom_product_contain_oxygen_bond_distance_aromatic_linkinvent_7_9_3/rearranged_h_0183.sdf

> <i_m_source_file_index>
67

> <r_mmod_Potential_Energy-OPLS-2005>
-45.1519546508789

> <r_mmod_Stretch_Energy-OPLS-2005>
59.5570945739746

> <r_mmod_Bend_Energy-OPLS-2005>
188.991668701172

> <r_mmod_Torsional_Energy-OPLS-2005>
229.746536254883

> <r_mmod_Improper_Torsional_Energy-OPLS-2005>
7.07464647293091

> <r_mmod_Van_der_Waal_Energy-OPLS-2005>
120.527717590332

> <r_mmod_Electrostatic_Energy-OPLS-2005>
-456.291442871094

> <r_mmod_Solvation_Energy-OPLS-2005>
-228.043533325195

> <b_mmod_Minimization_Converged-OPLS-2005>
0

> <r_mmod_RMS_Derivative-OPLS-2005>
0.976841986179352

$$$$
67
                    3D
 Structure written by MMmdl.
155163  0  0  1  0            999 V2000
  -30.6095  -14.7226   20.4738 C   0  0  0  0  0  0
  -30.4404  -12.4390   19.4749 C   0  0  0  0  0  0
  -29.5164  -12.5165   18.2386 C   0  0  0  0  0  0
  -28.0406  -12.3442   18.6476 C   0  0  0  0  0  0
  -27.6528  -13.2281   19.8629 C   0  0  2  0  0  0
  -28.6964  -13.1268   20.9984 C   0  0  0  0  0  0
  -25.2555  -13.8192   20.5681 C   0  0  0  0  0  0
  -24.1836  -13.0442   20.9190 C   0  0  0  0  0  0
  -24.6427  -11.6915   20.8744 C   0  0  0  0  0  0
  -23.9093  -10.4290   21.0400 C   0  0  0  0  0  0
  -24.3630   -9.4201   21.9184 C   0  0  0  0  0  0
  -23.6295   -8.2243   22.0764 C   0  0  0  0  0  0
  -22.4278   -8.0283   21.3550 C   0  0  0  0  0  0
  -21.9913   -9.0263   20.4653 C   0  0  0  0  0  0
  -22.7257  -10.2139   20.3054 C   0  0  0  0  0  0
  -21.6855   -6.0733   22.5277 C   0  0  0  0  0  0
  -21.4019   -6.5638   23.8208 C   0  0  0  0  0  0
  -21.3658   -5.6793   24.9174 C   0  0  0  0  0  0
  -21.6042   -4.3056   24.7225 C   0  0  0  0  0  0
  -21.8822   -3.8146   23.4345 C   0  0  0  0  0  0
  -21.9196   -4.6961   22.3403 C   0  0  0  0  0  0
  -22.7850  -13.5223   21.1847 C   0  0  0  0  0  0
  -22.1660   -4.2140   21.0981 F   0  0  0  0  0  0
  -21.5628   -3.4540   25.7740 F   0  0  0  0  0  0
  -30.0055  -13.4839   20.4313 N   0  0  0  0  0  0
  -26.3004  -12.9394   20.3329 N   0  0  0  0  0  0
  -25.9363  -11.6540   20.5762 N   0  0  0  0  0  0
  -22.0498  -12.8212   22.0398 N   0  0  0  0  0  0
  -25.4246  -15.1916   20.4081 N   0  0  0  0  0  0
  -31.7688  -14.8549   20.0695 O   0  0  0  0  0  0
  -21.6645   -6.8874   21.4237 O   0  0  0  0  0  0
  -22.3529  -14.5530   20.6698 O   0  0  0  0  0  0
  -24.6311  -31.8543   23.1997 C   0  0  0  0  0  0
  -25.9129  -32.4748   23.8332 C   0  0  1  0  0  0
  -27.2211  -27.2659   20.1283 C   0  0  0  0  0  0
  -25.5932  -33.8554   24.2247 N   0  0  0  0  0  0
  -23.4284  -30.4773   21.5424 C   0  0  2  0  0  0
  -24.8783  -28.9311   20.1027 C   0  0  0  0  0  0
  -22.7500  -29.4578   22.4906 C   0  0  0  0  0  0
  -18.0281  -28.1399   22.8473 C   0  0  0  0  0  0
  -24.1495  -36.7285   23.2642 C   0  0  0  0  0  0
  -25.9740  -30.7684   21.3815 C   0  0  0  0  0  0
  -26.0478  -29.3937   20.7190 C   0  0  0  0  0  0
  -27.2205  -28.5739   20.7215 C   0  0  0  0  0  0
  -26.0363  -26.8851   19.4560 C   0  0  0  0  0  0
  -24.8774  -27.6844   19.4605 C   0  0  0  0  0  0
  -23.6462  -29.8130   20.1573 C   0  0  0  0  0  0
  -25.4123  -36.3062   24.0322 C   0  0  1  0  0  0
  -20.5886  -28.3690   23.1267 C   0  0  2  0  0  0
  -20.6774  -26.9402   22.5414 C   0  0  0  0  0  0
  -19.5756  -26.6381   21.5217 C   0  0  0  0  0  0
  -18.1925  -26.7940   22.1616 C   0  0  0  0  0  0
  -19.1538  -28.8865   23.2860 C   0  0  0  0  0  0
  -18.9465  -30.1467   23.8872 C   0  0  0  0  0  0
  -17.6462  -30.6585   24.0564 C   0  0  0  0  0  0
  -25.9058  -34.9433   23.5084 C   0  0  0  0  0  0
  -16.5350  -29.9081   23.6342 C   0  0  0  0  0  0
  -16.7270  -28.6512   23.0341 C   0  0  0  0  0  0
  -26.4497  -31.6583   25.0728 C   0  0  0  0  0  0
  -25.3715  -31.3747   26.1442 C   0  0  0  0  0  0
  -27.0356  -30.3000   24.6238 C   0  0  0  0  0  0
  -27.6047  -32.4334   25.7496 C   0  0  0  0  0  0
  -27.5576  -37.1796   24.8459 C   0  0  0  0  0  0
  -21.4208  -29.3031   22.3651 N   0  0  0  0  0  0
  -26.4289  -37.3762   23.9401 N   0  0  0  0  0  0
  -24.6964  -31.0499   22.0980 N   0  0  0  0  0  0
  -23.4192  -28.8095   23.2992 O   0  0  0  0  0  0
  -28.3119  -26.3661   20.2255 O   0  0  0  0  0  0
  -26.5630  -34.8907   22.4657 O   0  0  0  0  0  0
  -23.5463  -32.1361   23.7294 O   0  0  0  0  0  0
  -29.6603  -19.8535   20.4815 C   0  0  0  0  0  0
  -30.2609  -19.2252   19.3943 C   0  0  0  0  0  0
  -29.9205  -17.2550   20.6105 C   0  0  0  0  0  0
  -29.4283  -21.3271   20.9282 C   0  0  0  0  0  0
  -27.0758  -24.4107   21.1826 C   0  0  0  0  0  0
  -29.3878  -23.8762   20.2891 C   0  0  2  0  0  0
  -28.1148  -24.8675   20.1336 C   0  0  2  0  0  0
  -30.5543  -24.3275   19.3815 C   0  0  0  0  0  0
  -30.3816  -17.8083   19.4737 N   0  0  0  0  0  0
  -30.7682  -19.8465   18.2495 N   0  0  0  0  0  0
  -29.8455  -15.7999   20.8836 N   0  0  0  0  0  0
  -29.1930  -22.3702   20.0580 N   0  0  0  0  0  0
  -29.4778  -21.5724   22.1360 O   0  0  0  0  0  0
  -31.5994  -23.5094   19.5306 F   0  0  0  0  0  0
  -30.1803  -24.2996   18.1016 F   0  0  0  0  0  0
  -30.9545  -25.5610   19.6892 F   0  0  0  0  0  0
  -29.2574  -18.5593   21.6565 S   0  0  0  0  0  0
  -31.4823  -12.5625   19.1744 H   0  0  0  0  0  0
  -30.3827  -11.4529   19.9381 H   0  0  0  0  0  0
  -29.7943  -11.7518   17.5123 H   0  0  0  0  0  0
  -29.6507  -13.4765   17.7375 H   0  0  0  0  0  0
  -27.8886  -11.2924   18.8932 H   0  0  0  0  0  0
  -27.3864  -12.5586   17.8016 H   0  0  0  0  0  0
  -27.6586  -14.2571   19.5050 H   0  0  0  0  0  0
  -28.7251  -12.1157   21.4087 H   0  0  0  0  0  0
  -28.4313  -13.7796   21.8321 H   0  0  0  0  0  0
  -25.2776   -9.5676   22.4752 H   0  0  0  0  0  0
  -24.0002   -7.4635   22.7493 H   0  0  0  0  0  0
  -21.0835   -8.8790   19.8952 H   0  0  0  0  0  0
  -22.3721  -10.9679   19.6158 H   0  0  0  0  0  0
  -21.2012   -7.6145   23.9709 H   0  0  0  0  0  0
  -21.1474   -6.0525   25.9077 H   0  0  0  0  0  0
  -22.0602   -2.7601   23.2858 H   0  0  0  0  0  0
  -22.4121  -11.9872   22.4770 H   0  0  0  0  0  0
  -21.1123  -13.1245   22.2621 H   0  0  0  0  0  0
  -24.6532  -15.8426   20.5084 H   0  0  0  0  0  0
  -26.2649  -15.6274   20.0501 H   0  0  0  0  0  0
  -26.7183  -32.5380   23.1063 H   0  0  0  0  0  0
  -25.0068  -33.9705   25.0380 H   0  0  0  0  0  0
  -22.7250  -31.3002   21.3986 H   0  0  0  0  0  0
  -23.3750  -35.9620   23.3306 H   0  0  0  0  0  0
  -24.3587  -36.8921   22.2056 H   0  0  0  0  0  0
  -23.7252  -37.6491   23.6672 H   0  0  0  0  0  0
  -26.1171  -31.5314   20.6152 H   0  0  0  0  0  0
  -26.8506  -30.8123   22.0170 H   0  0  0  0  0  0
  -28.1099  -28.9211   21.2281 H   0  0  0  0  0  0
  -25.9694  -25.9359   18.9480 H   0  0  0  0  0  0
  -23.9831  -27.3306   18.9655 H   0  0  0  0  0  0
  -23.7646  -30.5908   19.4010 H   0  0  0  0  0  0
  -22.7677  -29.2415   19.8522 H   0  0  0  0  0  0
  -25.1304  -36.1913   25.0813 H   0  0  0  0  0  0
  -20.9972  -28.3278   24.1395 H   0  0  0  0  0  0
  -20.5714  -26.2280   23.3619 H   0  0  0  0  0  0
  -21.6632  -26.7445   22.1187 H   0  0  0  0  0  0
  -19.6923  -25.6293   21.1250 H   0  0  0  0  0  0
  -19.6717  -27.3198   20.6760 H   0  0  0  0  0  0
  -17.4204  -26.6685   21.4010 H   0  0  0  0  0  0
  -18.0305  -26.0095   22.9032 H   0  0  0  0  0  0
  -19.7946  -30.7288   24.2224 H   0  0  0  0  0  0
  -17.5021  -31.6275   24.5163 H   0  0  0  0  0  0
  -15.5348  -30.2976   23.7704 H   0  0  0  0  0  0
  -15.8669  -28.0848   22.7042 H   0  0  0  0  0  0
  -24.5888  -30.7106   25.7760 H   0  0  0  0  0  0
  -24.8909  -32.2929   26.4829 H   0  0  0  0  0  0
  -25.8020  -30.8940   27.0233 H   0  0  0  0  0  0
  -26.2956  -29.6731   24.1254 H   0  0  0  0  0  0
  -27.4024  -29.7277   25.4766 H   0  0  0  0  0  0
  -27.8829  -30.4274   23.9497 H   0  0  0  0  0  0
  -27.2653  -33.3651   26.2026 H   0  0  0  0  0  0
  -28.3867  -32.6873   25.0329 H   0  0  0  0  0  0
  -28.0689  -31.8491   26.5451 H   0  0  0  0  0  0
  -28.2581  -38.0105   24.7502 H   0  0  0  0  0  0
  -28.1085  -36.2633   24.6282 H   0  0  0  0  0  0
  -27.2290  -37.1428   25.8862 H   0  0  0  0  0  0
  -20.9394  -29.8773   21.6872 H   0  0  0  0  0  0
  -26.0172  -38.2834   24.1421 H   0  0  0  0  0  0
  -26.0968  -24.8621   21.0497 H   0  0  0  0  0  0
  -27.4106  -24.6456   22.1924 H   0  0  0  0  0  0
  -26.9166  -23.3342   21.1353 H   0  0  0  0  0  0
  -29.7485  -23.9979   21.3101 H   0  0  0  0  0  0
  -27.7160  -24.6667   19.1404 H   0  0  0  0  0  0
  -30.9686  -20.8395   18.2454 H   0  0  0  0  0  0
  -31.3363  -19.3086   17.6038 H   0  0  0  0  0  0
  -29.0220  -15.5269   21.3946 H   0  0  0  0  0  0
  -29.0967  -22.1146   19.0853 H   0  0  0  0  0  0
  1 25  1  0  0  0
  1 30  2  0  0  0
  1 81  1  0  0  0
  2  3  1  0  0  0
  2 25  1  0  0  0
  2 88  1  0  0  0
  2 89  1  0  0  0
  3  4  1  0  0  0
  3 90  1  0  0  0
  3 91  1  0  0  0
  4  5  1  0  0  0
  4 92  1  0  0  0
  4 93  1  0  0  0
  5  6  1  0  0  0
  5 26  1  0  0  0
  5 94  1  0  0  0
  6 25  1  0  0  0
  6 95  1  0  0  0
  6 96  1  0  0  0
  7  8  2  0  0  0
  7 26  1  0  0  0
  7 29  1  0  0  0
  8  9  1  0  0  0
  8 22  1  0  0  0
  9 10  1  0  0  0
  9 27  2  0  0  0
 10 11  2  0  0  0
 10 15  1  0  0  0
 11 12  1  0  0  0
 11 97  1  0  0  0
 12 13  2  0  0  0
 12 98  1  0  0  0
 13 14  1  0  0  0
 13 31  1  0  0  0
 14 15  2  0  0  0
 14 99  1  0  0  0
 15100  1  0  0  0
 16 17  2  0  0  0
 16 21  1  0  0  0
 16 31  1  0  0  0
 17 18  1  0  0  0
 17101  1  0  0  0
 18 19  2  0  0  0
 18102  1  0  0  0
 19 20  1  0  0  0
 19 24  1  0  0  0
 20 21  2  0  0  0
 20103  1  0  0  0
 21 23  1  0  0  0
 22 28  1  0  0  0
 22 32  2  0  0  0
 26 27  1  0  0  0
 28104  1  0  0  0
 28105  1  0  0  0
 29106  1  0  0  0
 29107  1  0  0  0
 33 34  1  0  0  0
 33 66  1  0  0  0
 33 70  2  0  0  0
 34 36  1  0  0  0
 34 59  1  0  0  0
 34108  1  0  0  0
 35 44  2  0  0  0
 35 45  1  0  0  0
 35 68  1  0  0  0
 36 56  1  0  0  0
 36109  1  0  0  0
 37 39  1  0  0  0
 37 47  1  0  0  0
 37 66  1  0  0  0
 37110  1  0  0  0
 38 43  2  0  0  0
 38 46  1  0  0  0
 38 47  1  0  0  0
 39 64  1  0  0  0
 39 67  2  0  0  0
 40 52  1  0  0  0
 40 53  2  0  0  0
 40 58  1  0  0  0
 41111  1  0  0  0
 41112  1  0  0  0
 41113  1  0  0  0
 41 48  1  0  0  0
 42 43  1  0  0  0
 42 66  1  0  0  0
 42114  1  0  0  0
 42115  1  0  0  0
 43 44  1  0  0  0
 44116  1  0  0  0
 45 46  2  0  0  0
 45117  1  0  0  0
 46118  1  0  0  0
 47119  1  0  0  0
 47120  1  0  0  0
 48 56  1  0  0  0
 48 65  1  0  0  0
 48121  1  0  0  0
 49 50  1  0  0  0
 49 53  1  0  0  0
 49 64  1  0  0  0
 49122  1  0  0  0
 50 51  1  0  0  0
 50123  1  0  0  0
 50124  1  0  0  0
 51 52  1  0  0  0
 51125  1  0  0  0
 51126  1  0  0  0
 52127  1  0  0  0
 52128  1  0  0  0
 53 54  1  0  0  0
 54 55  2  0  0  0
 54129  1  0  0  0
 55 57  1  0  0  0
 55130  1  0  0  0
 56 69  2  0  0  0
 57 58  2  0  0  0
 57131  1  0  0  0
 58132  1  0  0  0
 59 60  1  0  0  0
 59 61  1  0  0  0
 59 62  1  0  0  0
 60133  1  0  0  0
 60134  1  0  0  0
 60135  1  0  0  0
 61136  1  0  0  0
 61137  1  0  0  0
 61138  1  0  0  0
 62139  1  0  0  0
 62140  1  0  0  0
 62141  1  0  0  0
 63 65  1  0  0  0
 63142  1  0  0  0
 63143  1  0  0  0
 63144  1  0  0  0
 64145  1  0  0  0
 65146  1  0  0  0
 68 77  1  0  0  0
 71 72  2  0  0  0
 71 74  1  0  0  0
 71 87  1  0  0  0
 72 79  1  0  0  0
 72 80  1  0  0  0
 73 79  2  0  0  0
 73 81  1  0  0  0
 73 87  1  0  0  0
 74 82  1  0  0  0
 74 83  2  0  0  0
 75147  1  0  0  0
 75148  1  0  0  0
 75149  1  0  0  0
 75 77  1  0  0  0
 76 77  1  0  0  0
 76 78  1  0  0  0
 76 82  1  0  0  0
 76150  1  0  0  0
 77151  1  0  0  0
 78 84  1  0  0  0
 78 85  1  0  0  0
 78 86  1  0  0  0
 80152  1  0  0  0
 80153  1  0  0  0
 81154  1  0  0  0
 82155  1  0  0  0
M  ISO  4   1 100  68 101  77 101  81 100
M  END
> <chiral flag>
0

> <version>
0

> <s_m_source_file>
/data/baiqing/PycharmProjects/Reinvent-master-3.2/result/LINK_invent/BTK/process_docking_weight1_custom_product_contain_oxygen_bond_distance_aromatic_linkinvent_7_9_3/rearranged_h_0183.sdf

> <i_m_source_file_index>
68

> <r_mmod_Potential_Energy-OPLS-2005>
-8.49856281280518

> <r_mmod_Stretch_Energy-OPLS-2005>
114.864532470703

> <r_mmod_Bend_Energy-OPLS-2005>
171.874450683594

> <r_mmod_Torsional_Energy-OPLS-2005>
247.142303466797

> <r_mmod_Improper_Torsional_Energy-OPLS-2005>
6.31030035018921

> <r_mmod_Van_der_Waal_Energy-OPLS-2005>
120.250534057617

> <r_mmod_Electrostatic_Energy-OPLS-2005>
-503.057159423828

> <r_mmod_Solvation_Energy-OPLS-2005>
-245.318389892578

> <b_mmod_Minimization_Converged-OPLS-2005>
0

> <r_mmod_RMS_Derivative-OPLS-2005>
2.16789269447327

$$$$
68
                    3D
 Structure written by MMmdl.
150158  0  0  1  0            999 V2000
  -30.6051  -14.7908   20.4566 C   0  0  0  0  0  0
  -30.4270  -12.4916   19.4674 C   0  0  0  0  0  0
  -29.5030  -12.5191   18.2306 C   0  0  0  0  0  0
  -28.0318  -12.3367   18.6481 C   0  0  0  0  0  0
  -27.6351  -13.2407   19.8453 C   0  0  2  0  0  0
  -28.6824  -13.1997   20.9785 C   0  0  0  0  0  0
  -25.2469  -13.8213   20.5720 C   0  0  0  0  0  0
  -24.1780  -13.0440   20.9231 C   0  0  0  0  0  0
  -24.6385  -11.6924   20.8746 C   0  0  0  0  0  0
  -23.9061  -10.4294   21.0398 C   0  0  0  0  0  0
  -24.3623   -9.4209   21.9173 C   0  0  0  0  0  0
  -23.6295   -8.2243   22.0748 C   0  0  0  0  0  0
  -22.4277   -8.0279   21.3539 C   0  0  0  0  0  0
  -21.9909   -9.0249   20.4643 C   0  0  0  0  0  0
  -22.7234  -10.2127   20.3044 C   0  0  0  0  0  0
  -21.6856   -6.0727   22.5275 C   0  0  0  0  0  0
  -21.4013   -6.5633   23.8203 C   0  0  0  0  0  0
  -21.3661   -5.6795   24.9172 C   0  0  0  0  0  0
  -21.6044   -4.3053   24.7231 C   0  0  0  0  0  0
  -21.8819   -3.8138   23.4351 C   0  0  0  0  0  0
  -21.9191   -4.6954   22.3403 C   0  0  0  0  0  0
  -22.7800  -13.5205   21.1890 C   0  0  0  0  0  0
  -22.1665   -4.2136   21.0980 F   0  0  0  0  0  0
  -21.5628   -3.4540   25.7741 F   0  0  0  0  0  0
  -29.9741  -13.5646   20.3849 N   0  0  0  0  0  0
  -26.2915  -12.9444   20.3290 N   0  0  0  0  0  0
  -25.9324  -11.6572   20.5750 N   0  0  0  0  0  0
  -22.0463  -12.8174   22.0442 N   0  0  0  0  0  0
  -25.4097  -15.1947   20.4142 N   0  0  0  0  0  0
  -31.8054  -14.8651   20.1804 O   0  0  0  0  0  0
  -21.6650   -6.8869   21.4233 O   0  0  0  0  0  0
  -22.3468  -14.5511   20.6746 O   0  0  0  0  0  0
  -24.6359  -31.8518   23.1944 C   0  0  0  0  0  0
  -25.9179  -32.4735   23.8302 C   0  0  1  0  0  0
  -27.2268  -27.2390   20.1504 C   0  0  0  0  0  0
  -25.5972  -33.8529   24.2249 N   0  0  0  0  0  0
  -23.4334  -30.4718   21.5380 C   0  0  2  0  0  0
  -24.8808  -28.9036   20.1177 C   0  0  0  0  0  0
  -22.7533  -29.4585   22.4899 C   0  0  0  0  0  0
  -18.0291  -28.1384   22.8483 C   0  0  0  0  0  0
  -24.1475  -36.7256   23.2638 C   0  0  0  0  0  0
  -25.9782  -30.7588   21.3732 C   0  0  0  0  0  0
  -26.0534  -29.3754   20.7231 C   0  0  0  0  0  0
  -27.2309  -28.5595   20.7204 C   0  0  0  0  0  0
  -26.0341  -26.8301   19.5210 C   0  0  0  0  0  0
  -24.8762  -27.6381   19.5066 C   0  0  0  0  0  0
  -23.6548  -29.7981   20.1574 C   0  0  0  0  0  0
  -25.4112  -36.3058   24.0328 C   0  0  1  0  0  0
  -20.5903  -28.3698   23.1259 C   0  0  2  0  0  0
  -20.6780  -26.9409   22.5404 C   0  0  0  0  0  0
  -19.5750  -26.6380   21.5213 C   0  0  0  0  0  0
  -18.1931  -26.7930   22.1618 C   0  0  0  0  0  0
  -19.1551  -28.8862   23.2856 C   0  0  0  0  0  0
  -18.9469  -30.1467   23.8858 C   0  0  0  0  0  0
  -17.6470  -30.6576   24.0568 C   0  0  0  0  0  0
  -25.9059  -34.9429   23.5092 C   0  0  0  0  0  0
  -16.5368  -29.9067   23.6343 C   0  0  0  0  0  0
  -16.7279  -28.6491   23.0355 C   0  0  0  0  0  0
  -26.4529  -31.6562   25.0699 C   0  0  0  0  0  0
  -25.3736  -31.3728   26.1420 C   0  0  0  0  0  0
  -27.0402  -30.2975   24.6207 C   0  0  0  0  0  0
  -27.6081  -32.4307   25.7468 C   0  0  0  0  0  0
  -27.5564  -37.1784   24.8471 C   0  0  0  0  0  0
  -21.4231  -29.3032   22.3645 N   0  0  0  0  0  0
  -26.4270  -37.3778   23.9426 N   0  0  0  0  0  0
  -24.7014  -31.0477   22.0913 N   0  0  0  0  0  0
  -23.4217  -28.8142   23.3029 O   0  0  0  0  0  0
  -28.3353  -26.3573   20.1346 O   0  0  0  0  0  0
  -26.5613  -34.8912   22.4648 O   0  0  0  0  0  0
  -23.5505  -32.1336   23.7228 O   0  0  0  0  0  0
  -28.6010  -18.7271   19.2751 C   0  0  0  0  0  0
  -29.5086  -18.6830   20.3072 C   0  0  0  0  0  0
  -28.9718  -21.0439   20.2042 C   0  0  0  0  0  0
  -28.4524  -23.6338   20.0240 C   0  0  0  0  0  0
  -27.2387  -24.9026   21.9163 C   0  0  0  0  0  0
  -30.3223  -17.4032   20.8084 C   0  0  0  0  0  0
  -28.3493  -25.0180   20.8547 C   0  0  2  0  0  0
  -29.6780  -20.0323   20.8246 N   0  0  0  0  0  0
  -28.9651  -22.4764   20.6162 N   0  0  0  0  0  0
  -29.8496  -15.9476   20.6446 N   0  0  0  0  0  0
  -28.0707  -23.6369   18.8506 O   0  0  0  0  0  0
  -27.9983  -20.3516   18.9055 S   0  0  0  0  0  0
  -31.4655  -12.6220   19.1612 H   0  0  0  0  0  0
  -30.3804  -11.5205   19.9615 H   0  0  0  0  0  0
  -29.7913  -11.7393   17.5251 H   0  0  0  0  0  0
  -29.6212  -13.4670   17.7021 H   0  0  0  0  0  0
  -27.8932  -11.2884   18.9133 H   0  0  0  0  0  0
  -27.3713  -12.5248   17.7995 H   0  0  0  0  0  0
  -27.6185  -14.2598   19.4564 H   0  0  0  0  0  0
  -28.7326  -12.2094   21.4337 H   0  0  0  0  0  0
  -28.4126  -13.8925   21.7768 H   0  0  0  0  0  0
  -25.2766   -9.5689   22.4749 H   0  0  0  0  0  0
  -24.0009   -7.4626   22.7457 H   0  0  0  0  0  0
  -21.0847   -8.8758   19.8936 H   0  0  0  0  0  0
  -22.3689  -10.9666   19.6155 H   0  0  0  0  0  0
  -21.2004   -7.6141   23.9704 H   0  0  0  0  0  0
  -21.1486   -6.0526   25.9071 H   0  0  0  0  0  0
  -22.0595   -2.7600   23.2862 H   0  0  0  0  0  0
  -22.4115  -11.9859   22.4850 H   0  0  0  0  0  0
  -21.1064  -13.1148   22.2630 H   0  0  0  0  0  0
  -24.6322  -15.8383   20.5102 H   0  0  0  0  0  0
  -26.2535  -15.6431   20.0842 H   0  0  0  0  0  0
  -26.7239  -32.5376   23.1034 H   0  0  0  0  0  0
  -25.0241  -33.9656   25.0481 H   0  0  0  0  0  0
  -22.7334  -31.2950   21.3856 H   0  0  0  0  0  0
  -23.3758  -35.9567   23.3294 H   0  0  0  0  0  0
  -24.3546  -36.8877   22.2049 H   0  0  0  0  0  0
  -23.7191  -37.6443   23.6653 H   0  0  0  0  0  0
  -26.1233  -31.5158   20.6018 H   0  0  0  0  0  0
  -26.8541  -30.8078   22.0086 H   0  0  0  0  0  0
  -28.1348  -28.9237   21.1865 H   0  0  0  0  0  0
  -25.9962  -25.8552   19.0552 H   0  0  0  0  0  0
  -23.9789  -27.2680   19.0301 H   0  0  0  0  0  0
  -23.7882  -30.5714   19.3999 H   0  0  0  0  0  0
  -22.7727  -29.2336   19.8491 H   0  0  0  0  0  0
  -25.1281  -36.1907   25.0818 H   0  0  0  0  0  0
  -20.9984  -28.3280   24.1389 H   0  0  0  0  0  0
  -20.5696  -26.2300   23.3613 H   0  0  0  0  0  0
  -21.6644  -26.7436   22.1190 H   0  0  0  0  0  0
  -19.6913  -25.6292   21.1242 H   0  0  0  0  0  0
  -19.6692  -27.3190   20.6749 H   0  0  0  0  0  0
  -17.4213  -26.6686   21.4012 H   0  0  0  0  0  0
  -18.0300  -26.0070   22.9004 H   0  0  0  0  0  0
  -19.7955  -30.7304   24.2181 H   0  0  0  0  0  0
  -17.5028  -31.6252   24.5184 H   0  0  0  0  0  0
  -15.5367  -30.2964   23.7678 H   0  0  0  0  0  0
  -15.8679  -28.0812   22.7069 H   0  0  0  0  0  0
  -24.5926  -30.7057   25.7750 H   0  0  0  0  0  0
  -24.8917  -32.2903   26.4816 H   0  0  0  0  0  0
  -25.8042  -30.8936   27.0227 H   0  0  0  0  0  0
  -26.3000  -29.6672   24.1268 H   0  0  0  0  0  0
  -27.4131  -29.7282   25.4735 H   0  0  0  0  0  0
  -27.8839  -30.4238   23.9411 H   0  0  0  0  0  0
  -27.2713  -33.3644   26.1986 H   0  0  0  0  0  0
  -28.3917  -32.6821   25.0302 H   0  0  0  0  0  0
  -28.0715  -31.8469   26.5432 H   0  0  0  0  0  0
  -28.2606  -38.0068   24.7551 H   0  0  0  0  0  0
  -28.1037  -36.2611   24.6259 H   0  0  0  0  0  0
  -27.2282  -37.1380   25.8873 H   0  0  0  0  0  0
  -20.9425  -29.8730   21.6821 H   0  0  0  0  0  0
  -26.0148  -38.2843   24.1476 H   0  0  0  0  0  0
  -28.2689  -17.8927   18.6716 H   0  0  0  0  0  0
  -27.3418  -23.9824   22.4935 H   0  0  0  0  0  0
  -26.2459  -24.8819   21.4667 H   0  0  0  0  0  0
  -27.2774  -25.7310   22.6234 H   0  0  0  0  0  0
  -30.5100  -17.5233   21.8753 H   0  0  0  0  0  0
  -31.3148  -17.4566   20.3586 H   0  0  0  0  0  0
  -29.2887  -25.0549   21.4089 H   0  0  0  0  0  0
  -29.3572  -22.6341   21.5328 H   0  0  0  0  0  0
  -28.8612  -15.8044   20.7814 H   0  0  0  0  0  0
  1 25  1  0  0  0
  1 30  2  0  0  0
  1 80  1  0  0  0
  2  3  1  0  0  0
  2 25  1  0  0  0
  2 83  1  0  0  0
  2 84  1  0  0  0
  3  4  1  0  0  0
  3 85  1  0  0  0
  3 86  1  0  0  0
  4  5  1  0  0  0
  4 87  1  0  0  0
  4 88  1  0  0  0
  5  6  1  0  0  0
  5 26  1  0  0  0
  5 89  1  0  0  0
  6 25  1  0  0  0
  6 90  1  0  0  0
  6 91  1  0  0  0
  7  8  2  0  0  0
  7 26  1  0  0  0
  7 29  1  0  0  0
  8  9  1  0  0  0
  8 22  1  0  0  0
  9 10  1  0  0  0
  9 27  2  0  0  0
 10 11  2  0  0  0
 10 15  1  0  0  0
 11 12  1  0  0  0
 11 92  1  0  0  0
 12 13  2  0  0  0
 12 93  1  0  0  0
 13 14  1  0  0  0
 13 31  1  0  0  0
 14 15  2  0  0  0
 14 94  1  0  0  0
 15 95  1  0  0  0
 16 17  2  0  0  0
 16 21  1  0  0  0
 16 31  1  0  0  0
 17 18  1  0  0  0
 17 96  1  0  0  0
 18 19  2  0  0  0
 18 97  1  0  0  0
 19 20  1  0  0  0
 19 24  1  0  0  0
 20 21  2  0  0  0
 20 98  1  0  0  0
 21 23  1  0  0  0
 22 28  1  0  0  0
 22 32  2  0  0  0
 26 27  1  0  0  0
 28 99  1  0  0  0
 28100  1  0  0  0
 29101  1  0  0  0
 29102  1  0  0  0
 33 34  1  0  0  0
 33 66  1  0  0  0
 33 70  2  0  0  0
 34 36  1  0  0  0
 34 59  1  0  0  0
 34103  1  0  0  0
 35 44  2  0  0  0
 35 45  1  0  0  0
 35 68  1  0  0  0
 36 56  1  0  0  0
 36104  1  0  0  0
 37 39  1  0  0  0
 37 47  1  0  0  0
 37 66  1  0  0  0
 37105  1  0  0  0
 38 43  2  0  0  0
 38 46  1  0  0  0
 38 47  1  0  0  0
 39 64  1  0  0  0
 39 67  2  0  0  0
 40 52  1  0  0  0
 40 53  2  0  0  0
 40 58  1  0  0  0
 41106  1  0  0  0
 41107  1  0  0  0
 41108  1  0  0  0
 41 48  1  0  0  0
 42 43  1  0  0  0
 42 66  1  0  0  0
 42109  1  0  0  0
 42110  1  0  0  0
 43 44  1  0  0  0
 44111  1  0  0  0
 45 46  2  0  0  0
 45112  1  0  0  0
 46113  1  0  0  0
 47114  1  0  0  0
 47115  1  0  0  0
 48 56  1  0  0  0
 48 65  1  0  0  0
 48116  1  0  0  0
 49 50  1  0  0  0
 49 53  1  0  0  0
 49 64  1  0  0  0
 49117  1  0  0  0
 50 51  1  0  0  0
 50118  1  0  0  0
 50119  1  0  0  0
 51 52  1  0  0  0
 51120  1  0  0  0
 51121  1  0  0  0
 52122  1  0  0  0
 52123  1  0  0  0
 53 54  1  0  0  0
 54 55  2  0  0  0
 54124  1  0  0  0
 55 57  1  0  0  0
 55125  1  0  0  0
 56 69  2  0  0  0
 57 58  2  0  0  0
 57126  1  0  0  0
 58127  1  0  0  0
 59 60  1  0  0  0
 59 61  1  0  0  0
 59 62  1  0  0  0
 60128  1  0  0  0
 60129  1  0  0  0
 60130  1  0  0  0
 61131  1  0  0  0
 61132  1  0  0  0
 61133  1  0  0  0
 62134  1  0  0  0
 62135  1  0  0  0
 62136  1  0  0  0
 63 65  1  0  0  0
 63137  1  0  0  0
 63138  1  0  0  0
 63139  1  0  0  0
 64140  1  0  0  0
 65141  1  0  0  0
 68 77  1  0  0  0
 71 72  2  0  0  0
 71 82  1  0  0  0
 71142  1  0  0  0
 72 76  1  0  0  0
 72 78  1  0  0  0
 73 78  2  0  0  0
 73 79  1  0  0  0
 73 82  1  0  0  0
 74 77  1  0  0  0
 74 79  1  0  0  0
 74 81  2  0  0  0
 75143  1  0  0  0
 75144  1  0  0  0
 75145  1  0  0  0
 75 77  1  0  0  0
 76 80  1  0  0  0
 76146  1  0  0  0
 76147  1  0  0  0
 77148  1  0  0  0
 79149  1  0  0  0
 80150  1  0  0  0
M  ISO  4   1 100  68 101  77 101  80 100
M  END
> <chiral flag>
0

> <version>
0

> <s_m_source_file>
/data/baiqing/PycharmProjects/Reinvent-master-3.2/result/LINK_invent/BTK/process_docking_weight1_custom_product_contain_oxygen_bond_distance_aromatic_linkinvent_7_9_3/rearranged_h_0183.sdf

> <i_m_source_file_index>
69

> <r_mmod_Potential_Energy-OPLS-2005>
-11.4225645065308

> <r_mmod_Stretch_Energy-OPLS-2005>
136.038696289062

> <r_mmod_Bend_Energy-OPLS-2005>
183.537933349609

> <r_mmod_Torsional_Energy-OPLS-2005>
231.875244140625

> <r_mmod_Improper_Torsional_Energy-OPLS-2005>
4.48356628417969

> <r_mmod_Van_der_Waal_Energy-OPLS-2005>
109.373924255371

> <r_mmod_Electrostatic_Energy-OPLS-2005>
-529.539611816406

> <r_mmod_Solvation_Energy-OPLS-2005>
-247.83740234375

> <b_mmod_Minimization_Converged-OPLS-2005>
0

> <r_mmod_RMS_Derivative-OPLS-2005>
2.33405089378357

$$$$
69
                    3D
 Structure written by MMmdl.
157165  0  0  1  0            999 V2000
  -30.1096  -14.2068   21.0034 C   0  0  0  0  0  0
  -30.8152  -12.3665   19.3364 C   0  0  0  0  0  0
  -30.0130  -12.4196   17.9509 C   0  0  0  0  0  0
  -28.4868  -12.4620   18.0098 C   0  0  0  0  0  0
  -28.2196  -13.2873   19.2004 C   0  0  2  0  0  0
  -28.8096  -12.3835   20.3586 C   0  0  0  0  0  0
  -24.6667  -14.9536   21.4524 C   0  0  0  0  0  0
  -24.1214  -13.5571   21.7345 C   0  0  0  0  0  0
  -24.6576  -12.0338   20.9725 C   0  0  0  0  0  0
  -23.9127  -10.6216   21.0452 C   0  0  0  0  0  0
  -24.3391   -9.5983   21.9197 C   0  0  0  0  0  0
  -23.6368   -8.3459   22.0664 C   0  0  0  0  0  0
  -22.4582   -8.0922   21.3522 C   0  0  0  0  0  0
  -22.0387   -9.0607   20.4245 C   0  0  0  0  0  0
  -22.7689  -10.2659   20.2717 C   0  0  0  0  0  0
  -21.7049   -6.1035   22.5450 C   0  0  0  0  0  0
  -21.4116   -6.5851   23.8515 C   0  0  0  0  0  0
  -21.3671   -5.6714   24.9314 C   0  0  0  0  0  0
  -21.5977   -4.3138   24.7195 C   0  0  0  0  0  0
  -21.8712   -3.8261   23.4230 C   0  0  0  0  0  0
  -21.9230   -4.7306   22.3423 C   0  0  0  0  0  0
  -22.5613  -13.9898   22.0093 C   0  0  0  0  0  0
  -22.1722   -4.2529   21.0977 F   0  0  0  0  0  0
  -21.5509   -3.4373   25.7619 F   0  0  0  0  0  0
  -30.0637  -12.9565   20.4983 N   0  0  0  0  0  0
  -26.7032  -13.1975   19.2193 N   0  0  0  0  0  0
  -25.9826  -11.9520   19.8294 N   0  0  0  0  0  0
  -21.7977  -12.8512   22.3021 N   0  0  0  0  0  0
  -25.3589  -16.2209   22.3860 N   0  0  0  0  0  0
  -31.1324  -14.8669   20.7236 O   0  0  0  0  0  0
  -21.6942   -6.9287   21.4379 O   0  0  0  0  0  0
  -22.1020  -14.7694   21.0896 O   0  0  0  0  0  0
  -24.7034  -31.7857   23.1367 C   0  0  0  0  0  0
  -25.9548  -32.4368   23.7933 C   0  0  1  0  0  0
  -26.8544  -26.4950   20.1293 C   0  0  0  0  0  0
  -25.6089  -33.8203   24.1863 N   0  0  0  0  0  0
  -23.5058  -30.4122   21.5121 C   0  0  2  0  0  0
  -24.8798  -28.7476   20.0717 C   0  0  0  0  0  0
  -22.7786  -29.4297   22.4757 C   0  0  0  0  0  0
  -18.0284  -28.1417   22.8409 C   0  0  0  0  0  0
  -24.1520  -36.7167   23.2633 C   0  0  0  0  0  0
  -26.0914  -30.4220   21.4180 C   0  0  0  0  0  0
  -26.0760  -28.9855   20.7496 C   0  0  0  0  0  0
  -27.0835  -27.8647   20.7573 C   0  0  0  0  0  0
  -25.7059  -26.5346   19.3321 C   0  0  0  0  0  0
  -24.7523  -27.5668   19.3264 C   0  0  0  0  0  0
  -23.7214  -29.7514   20.1314 C   0  0  0  0  0  0
  -25.4178  -36.2916   24.0276 C   0  0  1  0  0  0
  -20.5932  -28.3763   23.1227 C   0  0  2  0  0  0
  -20.6779  -26.9455   22.5427 C   0  0  0  0  0  0
  -19.5774  -26.6399   21.5187 C   0  0  0  0  0  0
  -18.1951  -26.7926   22.1577 C   0  0  0  0  0  0
  -19.1560  -28.8917   23.2766 C   0  0  0  0  0  0
  -18.9450  -30.1500   23.8838 C   0  0  0  0  0  0
  -17.6449  -30.6622   24.0553 C   0  0  0  0  0  0
  -25.9184  -34.9280   23.4941 C   0  0  0  0  0  0
  -16.5345  -29.9132   23.6342 C   0  0  0  0  0  0
  -16.7250  -28.6544   23.0342 C   0  0  0  0  0  0
  -26.4670  -31.6401   25.0558 C   0  0  0  0  0  0
  -25.3661  -31.3623   26.1086 C   0  0  0  0  0  0
  -27.0561  -30.2756   24.6437 C   0  0  0  0  0  0
  -27.6163  -32.4176   25.7361 C   0  0  0  0  0  0
  -27.5617  -37.1724   24.8458 C   0  0  0  0  0  0
  -21.4404  -29.3016   22.3587 N   0  0  0  0  0  0
  -26.4303  -37.3695   23.9424 N   0  0  0  0  0  0
  -24.7974  -30.9162   22.0770 N   0  0  0  0  0  0
  -23.4290  -28.7882   23.3039 O   0  0  0  0  0  0
  -27.4610  -25.0578   20.2087 O   0  0  0  0  0  0
  -26.5854  -34.8900   22.4590 O   0  0  0  0  0  0
  -23.6015  -32.1101   23.6320 O   0  0  0  0  0  0
  -26.4681  -14.0251   21.2337 C   0  0  0  0  0  0
  -24.7019  -14.1368   19.4415 C   0  0  0  0  0  0
  -25.7673  -16.6655   19.3229 C   0  0  0  0  0  0
  -27.6170  -14.2218   22.1207 C   0  0  0  0  0  0
  -23.5306  -13.2000   18.8660 C   0  0  0  0  0  0
  -26.8966  -21.6035   20.1485 C   0  0  0  0  0  0
  -24.1342  -12.5780   17.5085 C   0  0  0  0  0  0
  -24.7804  -20.2285   18.9192 C   0  0  0  0  0  0
  -26.7639  -23.4767   19.7233 C   0  0  0  0  0  0
  -26.2283  -19.8997   19.3721 C   0  0  2  0  0  0
  -26.0021  -15.2902   19.7679 N   0  0  0  0  0  0
  -26.3016  -18.1788   19.8044 N   0  0  0  0  0  0
  -28.9042  -14.6340   21.7647 N   0  0  0  0  0  0
  -27.3464  -14.1479   23.3565 O   0  0  0  0  0  0
  -22.5834  -12.8384   18.9416 O   0  0  0  0  0  0
  -27.5527  -21.4191   21.1456 O   0  0  0  0  0  0
  -24.4726  -15.7440   18.5927 S   0  0  0  0  0  0
  -31.8014  -12.8205   19.1933 H   0  0  0  0  0  0
  -31.0551  -11.3127   19.5385 H   0  0  0  0  0  0
  -30.3295  -11.6069   17.2932 H   0  0  0  0  0  0
  -30.3196  -13.3402   17.4538 H   0  0  0  0  0  0
  -28.0009  -11.4833   18.1310 H   0  0  0  0  0  0
  -28.0921  -12.9554   17.1099 H   0  0  0  0  0  0
  -28.7933  -14.2703   18.9643 H   0  0  0  0  0  0
  -28.9235  -11.3391   20.0346 H   0  0  0  0  0  0
  -28.2202  -12.0839   21.2227 H   0  0  0  0  0  0
  -25.2052   -9.7673   22.5226 H   0  0  0  0  0  0
  -24.0274   -7.6106   22.7609 H   0  0  0  0  0  0
  -21.1709   -8.8787   19.8243 H   0  0  0  0  0  0
  -22.3723  -10.8447   19.5042 H   0  0  0  0  0  0
  -21.2147   -7.6262   24.0404 H   0  0  0  0  0  0
  -21.1429   -6.0175   25.9349 H   0  0  0  0  0  0
  -22.0261   -2.7757   23.2564 H   0  0  0  0  0  0
  -22.1674  -12.2587   22.9439 H   0  0  0  0  0  0
  -20.8007  -12.8951   22.0594 H   0  0  0  0  0  0
  -25.2663  -16.2889   23.1872 H   0  0  0  0  0  0
  -26.2344  -16.6627   22.4177 H   0  0  0  0  0  0
  -26.7572  -32.4714   23.0525 H   0  0  0  0  0  0
  -25.0034  -33.9157   24.9896 H   0  0  0  0  0  0
  -22.8277  -31.2616   21.3527 H   0  0  0  0  0  0
  -23.3849  -35.9423   23.3194 H   0  0  0  0  0  0
  -24.3590  -36.8954   22.2069 H   0  0  0  0  0  0
  -23.7178  -37.6272   23.6775 H   0  0  0  0  0  0
  -26.3199  -31.1206   20.6119 H   0  0  0  0  0  0
  -26.9583  -30.4749   22.0711 H   0  0  0  0  0  0
  -27.9719  -27.9862   21.3516 H   0  0  0  0  0  0
  -25.4386  -25.6556   18.7619 H   0  0  0  0  0  0
  -23.8533  -27.4291   18.7341 H   0  0  0  0  0  0
  -23.9301  -30.5214   19.3873 H   0  0  0  0  0  0
  -22.8049  -29.2719   19.7940 H   0  0  0  0  0  0
  -25.1370  -36.1688   25.0758 H   0  0  0  0  0  0
  -20.9828  -28.3279   24.1404 H   0  0  0  0  0  0
  -20.5688  -26.2319   23.3606 H   0  0  0  0  0  0
  -21.6653  -26.7507   22.1224 H   0  0  0  0  0  0
  -19.7008  -25.6304   21.1240 H   0  0  0  0  0  0
  -19.6731  -27.3180   20.6685 H   0  0  0  0  0  0
  -17.4215  -26.6572   21.4007 H   0  0  0  0  0  0
  -18.0441  -26.0116   22.9028 H   0  0  0  0  0  0
  -19.7949  -30.7301   24.2222 H   0  0  0  0  0  0
  -17.5033  -31.6272   24.5192 H   0  0  0  0  0  0
  -15.5371  -30.3033   23.7736 H   0  0  0  0  0  0
  -15.8598  -28.0875   22.7116 H   0  0  0  0  0  0
  -24.6016  -30.6821   25.7284 H   0  0  0  0  0  0
  -24.8597  -32.2740   26.4269 H   0  0  0  0  0  0
  -25.7805  -30.8897   27.0012 H   0  0  0  0  0  0
  -26.3294  -29.6422   24.1324 H   0  0  0  0  0  0
  -27.3910  -29.7102   25.5158 H   0  0  0  0  0  0
  -27.9312  -30.3930   24.0024 H   0  0  0  0  0  0
  -27.2847  -33.3599   26.1755 H   0  0  0  0  0  0
  -28.4081  -32.6531   25.0207 H   0  0  0  0  0  0
  -28.0725  -31.8329   26.5377 H   0  0  0  0  0  0
  -28.2555  -38.0111   24.7672 H   0  0  0  0  0  0
  -28.1224  -36.2657   24.6122 H   0  0  0  0  0  0
  -27.2331  -37.1138   25.8849 H   0  0  0  0  0  0
  -20.9777  -29.8655   21.6612 H   0  0  0  0  0  0
  -26.0169  -38.2753   24.1475 H   0  0  0  0  0  0
  -24.2705  -11.5126   17.5830 H   0  0  0  0  0  0
  -25.1540  -13.0279   17.2006 H   0  0  0  0  0  0
  -23.5930  -12.5883   16.5204 H   0  0  0  0  0  0
  -24.7753  -21.2398   18.5072 H   0  0  0  0  0  0
  -24.0707  -20.2145   19.7506 H   0  0  0  0  0  0
  -24.4019  -19.5343   18.1749 H   0  0  0  0  0  0
  -25.6828  -23.6584   19.7742 H   0  0  0  0  0  0
  -26.9191  -23.4499   18.6535 H   0  0  0  0  0  0
  -26.7676  -19.8655   18.4038 H   0  0  0  0  0  0
  -26.9171  -18.0535   20.4349 H   0  0  0  0  0  0
  -29.2288  -15.2865   22.4516 H   0  0  0  0  0  0
  1 25  1  0  0  0
  1 30  2  0  0  0
  1 83  1  0  0  0
  2  3  1  0  0  0
  2 25  1  0  0  0
  2 88  1  0  0  0
  2 89  1  0  0  0
  3  4  1  0  0  0
  3 90  1  0  0  0
  3 91  1  0  0  0
  4  5  1  0  0  0
  4 92  1  0  0  0
  4 93  1  0  0  0
  5  6  1  0  0  0
  5 26  1  0  0  0
  5 94  1  0  0  0
  6 25  1  0  0  0
  6 95  1  0  0  0
  6 96  1  0  0  0
  7  8  2  0  0  0
  7 26  1  0  0  0
  7 29  1  0  0  0
  8  9  1  0  0  0
  8 22  1  0  0  0
  9 10  1  0  0  0
  9 27  2  0  0  0
 10 11  2  0  0  0
 10 15  1  0  0  0
 11 12  1  0  0  0
 11 97  1  0  0  0
 12 13  2  0  0  0
 12 98  1  0  0  0
 13 14  1  0  0  0
 13 31  1  0  0  0
 14 15  2  0  0  0
 14 99  1  0  0  0
 15100  1  0  0  0
 16 17  2  0  0  0
 16 21  1  0  0  0
 16 31  1  0  0  0
 17 18  1  0  0  0
 17101  1  0  0  0
 18 19  2  0  0  0
 18102  1  0  0  0
 19 20  1  0  0  0
 19 24  1  0  0  0
 20 21  2  0  0  0
 20103  1  0  0  0
 21 23  1  0  0  0
 22 28  1  0  0  0
 22 32  2  0  0  0
 26 27  1  0  0  0
 28104  1  0  0  0
 28105  1  0  0  0
 29106  1  0  0  0
 29107  1  0  0  0
 33 34  1  0  0  0
 33 66  1  0  0  0
 33 70  2  0  0  0
 34 36  1  0  0  0
 34 59  1  0  0  0
 34108  1  0  0  0
 35 44  2  0  0  0
 35 45  1  0  0  0
 35 68  1  0  0  0
 36 56  1  0  0  0
 36109  1  0  0  0
 37 39  1  0  0  0
 37 47  1  0  0  0
 37 66  1  0  0  0
 37110  1  0  0  0
 38 43  2  0  0  0
 38 46  1  0  0  0
 38 47  1  0  0  0
 39 64  1  0  0  0
 39 67  2  0  0  0
 40 52  1  0  0  0
 40 53  2  0  0  0
 40 58  1  0  0  0
 41111  1  0  0  0
 41112  1  0  0  0
 41113  1  0  0  0
 41 48  1  0  0  0
 42 43  1  0  0  0
 42 66  1  0  0  0
 42114  1  0  0  0
 42115  1  0  0  0
 43 44  1  0  0  0
 44116  1  0  0  0
 45 46  2  0  0  0
 45117  1  0  0  0
 46118  1  0  0  0
 47119  1  0  0  0
 47120  1  0  0  0
 48 56  1  0  0  0
 48 65  1  0  0  0
 48121  1  0  0  0
 49 50  1  0  0  0
 49 53  1  0  0  0
 49 64  1  0  0  0
 49122  1  0  0  0
 50 51  1  0  0  0
 50123  1  0  0  0
 50124  1  0  0  0
 51 52  1  0  0  0
 51125  1  0  0  0
 51126  1  0  0  0
 52127  1  0  0  0
 52128  1  0  0  0
 53 54  1  0  0  0
 54 55  2  0  0  0
 54129  1  0  0  0
 55 57  1  0  0  0
 55130  1  0  0  0
 56 69  2  0  0  0
 57 58  2  0  0  0
 57131  1  0  0  0
 58132  1  0  0  0
 59 60  1  0  0  0
 59 61  1  0  0  0
 59 62  1  0  0  0
 60133  1  0  0  0
 60134  1  0  0  0
 60135  1  0  0  0
 61136  1  0  0  0
 61137  1  0  0  0
 61138  1  0  0  0
 62139  1  0  0  0
 62140  1  0  0  0
 62141  1  0  0  0
 63 65  1  0  0  0
 63142  1  0  0  0
 63143  1  0  0  0
 63144  1  0  0  0
 64145  1  0  0  0
 65146  1  0  0  0
 68 79  1  0  0  0
 71 72  2  0  0  0
 71 74  1  0  0  0
 71 81  1  0  0  0
 72 75  1  0  0  0
 72 87  1  0  0  0
 73 81  2  0  0  0
 73 82  1  0  0  0
 73 87  1  0  0  0
 74 83  1  0  0  0
 74 84  2  0  0  0
 75 77  1  0  0  0
 75 85  2  0  0  0
 76 79  1  0  0  0
 76 80  1  0  0  0
 76 86  2  0  0  0
 77147  1  0  0  0
 77148  1  0  0  0
 77149  1  0  0  0
 78150  1  0  0  0
 78151  1  0  0  0
 78152  1  0  0  0
 78 80  1  0  0  0
 79153  1  0  0  0
 79154  1  0  0  0
 80 82  1  0  0  0
 80155  1  0  0  0
 82156  1  0  0  0
 83157  1  0  0  0
M  ISO  4   1 100  68 101  79 101  83 100
M  END
> <chiral flag>
0

> <version>
0

> <s_m_source_file>
/data/baiqing/PycharmProjects/Reinvent-master-3.2/result/LINK_invent/BTK/process_docking_weight1_custom_product_contain_oxygen_bond_distance_aromatic_linkinvent_7_9_3/rearranged_h_0183.sdf

> <i_m_source_file_index>
70

> <r_mmod_Potential_Energy-OPLS-2005>
21486.537109375

> <r_mmod_Stretch_Energy-OPLS-2005>
14024.9423828125

> <r_mmod_Bend_Energy-OPLS-2005>
2037.30859375

> <r_mmod_Torsional_Energy-OPLS-2005>
600.085632324219

> <r_mmod_Improper_Torsional_Energy-OPLS-2005>
134.494445800781

> <r_mmod_Van_der_Waal_Energy-OPLS-2005>
3207.95141601562

> <r_mmod_Electrostatic_Energy-OPLS-2005>
-601.158752441406

> <r_mmod_Solvation_Energy-OPLS-2005>
-250.841949462891

> <b_mmod_Minimization_Converged-OPLS-2005>
0

> <r_mmod_RMS_Derivative-OPLS-2005>
99.9990005493164

$$$$
70
                    3D
 Structure written by MMmdl.
153161  0  0  1  0            999 V2000
  -30.5988  -14.7798   20.4201 C   0  0  0  0  0  0
  -30.4307  -12.4703   19.4807 C   0  0  0  0  0  0
  -29.5120  -12.5048   18.2390 C   0  0  0  0  0  0
  -28.0381  -12.3254   18.6517 C   0  0  0  0  0  0
  -27.6369  -13.2352   19.8436 C   0  0  2  0  0  0
  -28.6804  -13.1939   20.9803 C   0  0  0  0  0  0
  -25.2488  -13.8199   20.5690 C   0  0  0  0  0  0
  -24.1789  -13.0437   20.9211 C   0  0  0  0  0  0
  -24.6386  -11.6918   20.8744 C   0  0  0  0  0  0
  -23.9067  -10.4291   21.0402 C   0  0  0  0  0  0
  -24.3620   -9.4207   21.9182 C   0  0  0  0  0  0
  -23.6294   -8.2240   22.0753 C   0  0  0  0  0  0
  -22.4275   -8.0279   21.3544 C   0  0  0  0  0  0
  -21.9910   -9.0252   20.4647 C   0  0  0  0  0  0
  -22.7237  -10.2131   20.3055 C   0  0  0  0  0  0
  -21.6854   -6.0735   22.5277 C   0  0  0  0  0  0
  -21.4018   -6.5640   23.8211 C   0  0  0  0  0  0
  -21.3662   -5.6793   24.9174 C   0  0  0  0  0  0
  -21.6042   -4.3055   24.7224 C   0  0  0  0  0  0
  -21.8819   -3.8146   23.4346 C   0  0  0  0  0  0
  -21.9192   -4.6962   22.3402 C   0  0  0  0  0  0
  -22.7812  -13.5216   21.1870 C   0  0  0  0  0  0
  -22.1658   -4.2148   21.0980 F   0  0  0  0  0  0
  -21.5628   -3.4541   25.7738 F   0  0  0  0  0  0
  -29.9784  -13.5472   20.3938 N   0  0  0  0  0  0
  -26.2911  -12.9413   20.3247 N   0  0  0  0  0  0
  -25.9315  -11.6554   20.5737 N   0  0  0  0  0  0
  -22.0456  -12.8215   22.0430 N   0  0  0  0  0  0
  -25.4161  -15.1927   20.4109 N   0  0  0  0  0  0
  -31.8120  -14.8257   20.1943 O   0  0  0  0  0  0
  -21.6639   -6.8877   21.4239 O   0  0  0  0  0  0
  -22.3498  -14.5517   20.6707 O   0  0  0  0  0  0
  -24.6326  -31.8536   23.1956 C   0  0  0  0  0  0
  -25.9141  -32.4747   23.8316 C   0  0  1  0  0  0
  -27.2188  -27.2472   20.1424 C   0  0  0  0  0  0
  -25.5928  -33.8549   24.2237 N   0  0  0  0  0  0
  -23.4306  -30.4739   21.5398 C   0  0  2  0  0  0
  -24.8788  -28.9126   20.1152 C   0  0  0  0  0  0
  -22.7509  -29.4591   22.4910 C   0  0  0  0  0  0
  -18.0293  -28.1386   22.8485 C   0  0  0  0  0  0
  -24.1490  -36.7280   23.2641 C   0  0  0  0  0  0
  -25.9771  -30.7628   21.3766 C   0  0  0  0  0  0
  -26.0513  -29.3821   20.7222 C   0  0  0  0  0  0
  -27.2286  -28.5642   20.7182 C   0  0  0  0  0  0
  -26.0254  -26.8414   19.5132 C   0  0  0  0  0  0
  -24.8712  -27.6508   19.4981 C   0  0  0  0  0  0
  -23.6508  -29.8031   20.1581 C   0  0  0  0  0  0
  -25.4118  -36.3064   24.0323 C   0  0  1  0  0  0
  -20.5898  -28.3698   23.1267 C   0  0  2  0  0  0
  -20.6780  -26.9414   22.5408 C   0  0  0  0  0  0
  -19.5756  -26.6381   21.5212 C   0  0  0  0  0  0
  -18.1937  -26.7928   22.1624 C   0  0  0  0  0  0
  -19.1547  -28.8859   23.2870 C   0  0  0  0  0  0
  -18.9468  -30.1460   23.8890 C   0  0  0  0  0  0
  -17.6465  -30.6588   24.0560 C   0  0  0  0  0  0
  -25.9059  -34.9436   23.5084 C   0  0  0  0  0  0
  -16.5357  -29.9084   23.6331 C   0  0  0  0  0  0
  -16.7279  -28.6500   23.0356 C   0  0  0  0  0  0
  -26.4499  -31.6582   25.0717 C   0  0  0  0  0  0
  -25.3712  -31.3742   26.1431 C   0  0  0  0  0  0
  -27.0353  -30.2999   24.6217 C   0  0  0  0  0  0
  -27.6044  -32.4332   25.7496 C   0  0  0  0  0  0
  -27.5577  -37.1796   24.8463 C   0  0  0  0  0  0
  -21.4215  -29.3040   22.3653 N   0  0  0  0  0  0
  -26.4290  -37.3765   23.9406 N   0  0  0  0  0  0
  -24.6993  -31.0487   22.0937 N   0  0  0  0  0  0
  -23.4201  -28.8135   23.3019 O   0  0  0  0  0  0
  -28.3046  -26.3432   20.1405 O   0  0  0  0  0  0
  -26.5639  -34.8915   22.4658 O   0  0  0  0  0  0
  -23.5472  -32.1360   23.7242 O   0  0  0  0  0  0
  -31.0316  -18.8431   18.4185 C   0  0  0  0  0  0
  -30.8331  -17.5466   18.9318 C   0  0  0  0  0  0
  -30.3742  -19.9558   18.9691 C   0  0  0  0  0  0
  -30.0036  -17.3394   20.0672 C   0  0  0  0  0  0
  -29.5048  -19.7664   20.0605 C   0  0  0  0  0  0
  -28.5544  -23.6348   20.0346 C   0  0  0  0  0  0
  -30.6131  -22.4925   21.1545 C   0  0  0  0  0  0
  -28.1192  -24.9928   20.7924 C   0  0  0  0  0  0
  -29.1078  -22.3324   20.8644 C   0  0  2  0  0  0
  -29.3335  -18.4716   20.5758 N   0  0  0  0  0  0
  -29.8169  -15.9330   20.5515 N   0  0  0  0  0  0
  -28.7110  -20.8867   20.5330 N   0  0  0  0  0  0
  -28.4526  -23.5973   18.8055 O   0  0  0  0  0  0
  -31.4040  -16.5169   18.2626 F   0  0  0  0  0  0
  -30.5241  -21.1692   18.3843 F   0  0  0  0  0  0
  -31.4723  -12.5931   19.1788 H   0  0  0  0  0  0
  -30.3768  -11.5006   19.9782 H   0  0  0  0  0  0
  -29.8001  -11.7244   17.5334 H   0  0  0  0  0  0
  -29.6354  -13.4537   17.7139 H   0  0  0  0  0  0
  -27.9007  -11.2786   18.9256 H   0  0  0  0  0  0
  -27.3814  -12.5043   17.7993 H   0  0  0  0  0  0
  -27.6233  -14.2512   19.4487 H   0  0  0  0  0  0
  -28.7219  -12.2039   21.4366 H   0  0  0  0  0  0
  -28.4113  -13.8880   21.7780 H   0  0  0  0  0  0
  -25.2763   -9.5688   22.4757 H   0  0  0  0  0  0
  -24.0004   -7.4635   22.7473 H   0  0  0  0  0  0
  -21.0841   -8.8771   19.8955 H   0  0  0  0  0  0
  -22.3691  -10.9671   19.6166 H   0  0  0  0  0  0
  -21.2013   -7.6148   23.9716 H   0  0  0  0  0  0
  -21.1484   -6.0523   25.9078 H   0  0  0  0  0  0
  -22.0595   -2.7608   23.2845 H   0  0  0  0  0  0
  -22.4081  -11.9891   22.4836 H   0  0  0  0  0  0
  -21.1068  -13.1235   22.2622 H   0  0  0  0  0  0
  -24.6437  -15.8411   20.5204 H   0  0  0  0  0  0
  -26.2550  -15.6362   20.0607 H   0  0  0  0  0  0
  -26.7208  -32.5393   23.1056 H   0  0  0  0  0  0
  -25.0062  -33.9682   25.0374 H   0  0  0  0  0  0
  -22.7277  -31.2962   21.3905 H   0  0  0  0  0  0
  -23.3753  -35.9611   23.3300 H   0  0  0  0  0  0
  -24.3579  -36.8911   22.2056 H   0  0  0  0  0  0
  -23.7242  -37.6477   23.6675 H   0  0  0  0  0  0
  -26.1167  -31.5210   20.6049 H   0  0  0  0  0  0
  -26.8539  -30.8138   22.0107 H   0  0  0  0  0  0
  -28.1306  -28.9221   21.1945 H   0  0  0  0  0  0
  -25.9807  -25.8713   19.0382 H   0  0  0  0  0  0
  -23.9740  -27.2861   19.0170 H   0  0  0  0  0  0
  -23.7787  -30.5770   19.4003 H   0  0  0  0  0  0
  -22.7684  -29.2382   19.8521 H   0  0  0  0  0  0
  -25.1302  -36.1905   25.0816 H   0  0  0  0  0  0
  -20.9992  -28.3278   24.1387 H   0  0  0  0  0  0
  -20.5679  -26.2309   23.3616 H   0  0  0  0  0  0
  -21.6650  -26.7436   22.1204 H   0  0  0  0  0  0
  -19.6918  -25.6289   21.1250 H   0  0  0  0  0  0
  -19.6693  -27.3186   20.6737 H   0  0  0  0  0  0
  -17.4206  -26.6675   21.4027 H   0  0  0  0  0  0
  -18.0336  -26.0072   22.9023 H   0  0  0  0  0  0
  -19.7945  -30.7277   24.2258 H   0  0  0  0  0  0
  -17.5020  -31.6269   24.5160 H   0  0  0  0  0  0
  -15.5356  -30.2982   23.7659 H   0  0  0  0  0  0
  -15.8681  -28.0812   22.7079 H   0  0  0  0  0  0
  -24.5885  -30.7097   25.7754 H   0  0  0  0  0  0
  -24.8908  -32.2918   26.4839 H   0  0  0  0  0  0
  -25.8018  -30.8926   27.0219 H   0  0  0  0  0  0
  -26.2946  -29.6742   24.1226 H   0  0  0  0  0  0
  -27.4013  -29.7268   25.4745 H   0  0  0  0  0  0
  -27.8829  -30.4271   23.9480 H   0  0  0  0  0  0
  -27.2642  -33.3635   26.2058 H   0  0  0  0  0  0
  -28.3864  -32.6892   25.0334 H   0  0  0  0  0  0
  -28.0704  -31.8472   26.5428 H   0  0  0  0  0  0
  -28.2591  -38.0096   24.7512 H   0  0  0  0  0  0
  -28.1078  -36.2627   24.6290 H   0  0  0  0  0  0
  -27.2298  -37.1443   25.8867 H   0  0  0  0  0  0
  -20.9406  -29.8755   21.6847 H   0  0  0  0  0  0
  -26.0165  -38.2838   24.1408 H   0  0  0  0  0  0
  -31.6608  -18.9762   17.5520 H   0  0  0  0  0  0
  -30.8208  -23.4641   21.6052 H   0  0  0  0  0  0
  -31.2218  -22.4290   20.2543 H   0  0  0  0  0  0
  -30.9659  -21.7351   21.8547 H   0  0  0  0  0  0
  -28.6644  -25.0192   21.7355 H   0  0  0  0  0  0
  -27.0714  -24.8766   21.0708 H   0  0  0  0  0  0
  -28.6455  -22.4496   21.8453 H   0  0  0  0  0  0
  -28.9016  -15.7561   20.9290 H   0  0  0  0  0  0
  -27.9159  -20.5847   21.0822 H   0  0  0  0  0  0
  1 25  1  0  0  0
  1 30  2  0  0  0
  1 81  1  0  0  0
  2  3  1  0  0  0
  2 25  1  0  0  0
  2 86  1  0  0  0
  2 87  1  0  0  0
  3  4  1  0  0  0
  3 88  1  0  0  0
  3 89  1  0  0  0
  4  5  1  0  0  0
  4 90  1  0  0  0
  4 91  1  0  0  0
  5  6  1  0  0  0
  5 26  1  0  0  0
  5 92  1  0  0  0
  6 25  1  0  0  0
  6 93  1  0  0  0
  6 94  1  0  0  0
  7  8  2  0  0  0
  7 26  1  0  0  0
  7 29  1  0  0  0
  8  9  1  0  0  0
  8 22  1  0  0  0
  9 10  1  0  0  0
  9 27  2  0  0  0
 10 11  2  0  0  0
 10 15  1  0  0  0
 11 12  1  0  0  0
 11 95  1  0  0  0
 12 13  2  0  0  0
 12 96  1  0  0  0
 13 14  1  0  0  0
 13 31  1  0  0  0
 14 15  2  0  0  0
 14 97  1  0  0  0
 15 98  1  0  0  0
 16 17  2  0  0  0
 16 21  1  0  0  0
 16 31  1  0  0  0
 17 18  1  0  0  0
 17 99  1  0  0  0
 18 19  2  0  0  0
 18100  1  0  0  0
 19 20  1  0  0  0
 19 24  1  0  0  0
 20 21  2  0  0  0
 20101  1  0  0  0
 21 23  1  0  0  0
 22 28  1  0  0  0
 22 32  2  0  0  0
 26 27  1  0  0  0
 28102  1  0  0  0
 28103  1  0  0  0
 29104  1  0  0  0
 29105  1  0  0  0
 33 34  1  0  0  0
 33 66  1  0  0  0
 33 70  2  0  0  0
 34 36  1  0  0  0
 34 59  1  0  0  0
 34106  1  0  0  0
 35 44  2  0  0  0
 35 45  1  0  0  0
 35 68  1  0  0  0
 36 56  1  0  0  0
 36107  1  0  0  0
 37 39  1  0  0  0
 37 47  1  0  0  0
 37 66  1  0  0  0
 37108  1  0  0  0
 38 43  2  0  0  0
 38 46  1  0  0  0
 38 47  1  0  0  0
 39 64  1  0  0  0
 39 67  2  0  0  0
 40 52  1  0  0  0
 40 53  2  0  0  0
 40 58  1  0  0  0
 41109  1  0  0  0
 41110  1  0  0  0
 41111  1  0  0  0
 41 48  1  0  0  0
 42 43  1  0  0  0
 42 66  1  0  0  0
 42112  1  0  0  0
 42113  1  0  0  0
 43 44  1  0  0  0
 44114  1  0  0  0
 45 46  2  0  0  0
 45115  1  0  0  0
 46116  1  0  0  0
 47117  1  0  0  0
 47118  1  0  0  0
 48 56  1  0  0  0
 48 65  1  0  0  0
 48119  1  0  0  0
 49 50  1  0  0  0
 49 53  1  0  0  0
 49 64  1  0  0  0
 49120  1  0  0  0
 50 51  1  0  0  0
 50121  1  0  0  0
 50122  1  0  0  0
 51 52  1  0  0  0
 51123  1  0  0  0
 51124  1  0  0  0
 52125  1  0  0  0
 52126  1  0  0  0
 53 54  1  0  0  0
 54 55  2  0  0  0
 54127  1  0  0  0
 55 57  1  0  0  0
 55128  1  0  0  0
 56 69  2  0  0  0
 57 58  2  0  0  0
 57129  1  0  0  0
 58130  1  0  0  0
 59 60  1  0  0  0
 59 61  1  0  0  0
 59 62  1  0  0  0
 60131  1  0  0  0
 60132  1  0  0  0
 60133  1  0  0  0
 61134  1  0  0  0
 61135  1  0  0  0
 61136  1  0  0  0
 62137  1  0  0  0
 62138  1  0  0  0
 62139  1  0  0  0
 63 65  1  0  0  0
 63140  1  0  0  0
 63141  1  0  0  0
 63142  1  0  0  0
 64143  1  0  0  0
 65144  1  0  0  0
 68 78  1  0  0  0
 71 72  2  0  0  0
 71 73  1  0  0  0
 71145  1  0  0  0
 72 74  1  0  0  0
 72 84  1  0  0  0
 73 75  2  0  0  0
 73 85  1  0  0  0
 74 80  2  0  0  0
 74 81  1  0  0  0
 75 80  1  0  0  0
 75 82  1  0  0  0
 76 78  1  0  0  0
 76 79  1  0  0  0
 76 83  2  0  0  0
 77146  1  0  0  0
 77147  1  0  0  0
 77148  1  0  0  0
 77 79  1  0  0  0
 78149  1  0  0  0
 78150  1  0  0  0
 79 82  1  0  0  0
 79151  1  0  0  0
 81152  1  0  0  0
 82153  1  0  0  0
M  ISO  4   1 100  68 101  78 101  81 100
M  END
> <chiral flag>
0

> <version>
0

> <s_m_source_file>
/data/baiqing/PycharmProjects/Reinvent-master-3.2/result/LINK_invent/BTK/process_docking_weight1_custom_product_contain_oxygen_bond_distance_aromatic_linkinvent_7_9_3/rearranged_h_0183.sdf

> <i_m_source_file_index>
71

> <r_mmod_Potential_Energy-OPLS-2005>
127.996459960938

> <r_mmod_Stretch_Energy-OPLS-2005>
145.205230712891

> <r_mmod_Bend_Energy-OPLS-2005>
195.76904296875

> <r_mmod_Torsional_Energy-OPLS-2005>
260.833953857422

> <r_mmod_Improper_Torsional_Energy-OPLS-2005>
6.51380395889282

> <r_mmod_Van_der_Waal_Energy-OPLS-2005>
137.382293701172

> <r_mmod_Electrostatic_Energy-OPLS-2005>
-461.521392822266

> <r_mmod_Solvation_Energy-OPLS-2005>
-254.834548950195

> <b_mmod_Minimization_Converged-OPLS-2005>
0

> <r_mmod_RMS_Derivative-OPLS-2005>
0.554744362831116

$$$$
71
                    3D
 Structure written by MMmdl.
155163  0  0  1  0            999 V2000
  -30.6831  -14.4957   20.5412 C   0  0  0  0  0  0
  -30.4203  -12.3129   19.4224 C   0  0  0  0  0  0
  -29.4919  -12.5001   18.2042 C   0  0  0  0  0  0
  -28.0131  -12.3612   18.6171 C   0  0  0  0  0  0
  -27.6570  -13.2065   19.8696 C   0  0  2  0  0  0
  -28.7001  -13.0007   20.9915 C   0  0  0  0  0  0
  -25.2565  -13.8159   20.5650 C   0  0  0  0  0  0
  -24.1830  -13.0439   20.9191 C   0  0  0  0  0  0
  -24.6387  -11.6908   20.8753 C   0  0  0  0  0  0
  -23.9061  -10.4295   21.0419 C   0  0  0  0  0  0
  -24.3617   -9.4207   21.9192 C   0  0  0  0  0  0
  -23.6292   -8.2241   22.0757 C   0  0  0  0  0  0
  -22.4273   -8.0283   21.3549 C   0  0  0  0  0  0
  -21.9910   -9.0258   20.4653 C   0  0  0  0  0  0
  -22.7236  -10.2137   20.3066 C   0  0  0  0  0  0
  -21.6853   -6.0738   22.5284 C   0  0  0  0  0  0
  -21.4011   -6.5643   23.8216 C   0  0  0  0  0  0
  -21.3658   -5.6794   24.9177 C   0  0  0  0  0  0
  -21.6044   -4.3057   24.7228 C   0  0  0  0  0  0
  -21.8817   -3.8151   23.4349 C   0  0  0  0  0  0
  -21.9189   -4.6966   22.3406 C   0  0  0  0  0  0
  -22.7856  -13.5240   21.1853 C   0  0  0  0  0  0
  -22.1660   -4.2152   21.0983 F   0  0  0  0  0  0
  -21.5627   -3.4542   25.7739 F   0  0  0  0  0  0
  -30.0269  -13.3067   20.4341 N   0  0  0  0  0  0
  -26.2996  -12.9326   20.3335 N   0  0  0  0  0  0
  -25.9312  -11.6494   20.5774 N   0  0  0  0  0  0
  -22.0494  -12.8239   22.0407 N   0  0  0  0  0  0
  -25.4272  -15.1872   20.3988 N   0  0  0  0  0  0
  -31.8354  -14.6416   20.1192 O   0  0  0  0  0  0
  -21.6638   -6.8880   21.4244 O   0  0  0  0  0  0
  -22.3548  -14.5549   20.6701 O   0  0  0  0  0  0
  -24.6140  -31.8662   23.2082 C   0  0  0  0  0  0
  -25.9035  -32.4807   23.8378 C   0  0  1  0  0  0
  -27.2325  -27.4282   20.1060 C   0  0  0  0  0  0
  -25.5898  -33.8606   24.2323 N   0  0  0  0  0  0
  -23.4032  -30.4892   21.5465 C   0  0  2  0  0  0
  -24.8501  -28.9488   20.1150 C   0  0  0  0  0  0
  -22.7407  -29.4651   22.4969 C   0  0  0  0  0  0
  -18.0270  -28.1393   22.8473 C   0  0  0  0  0  0
  -24.1494  -36.7309   23.2643 C   0  0  0  0  0  0
  -25.9307  -30.8318   21.3594 C   0  0  0  0  0  0
  -26.0089  -29.4641   20.7091 C   0  0  0  0  0  0
  -27.2055  -28.7128   20.6962 C   0  0  0  0  0  0
  -26.0615  -26.9231   19.5063 C   0  0  0  0  0  0
  -24.8717  -27.6791   19.5080 C   0  0  0  0  0  0
  -23.6134  -29.8188   20.1613 C   0  0  0  0  0  0
  -25.4110  -36.3102   24.0349 C   0  0  1  0  0  0
  -20.5863  -28.3666   23.1313 C   0  0  2  0  0  0
  -20.6760  -26.9402   22.5413 C   0  0  0  0  0  0
  -19.5744  -26.6394   21.5206 C   0  0  0  0  0  0
  -18.1916  -26.7934   22.1612 C   0  0  0  0  0  0
  -19.1522  -28.8840   23.2891 C   0  0  0  0  0  0
  -18.9458  -30.1438   23.8908 C   0  0  0  0  0  0
  -17.6464  -30.6586   24.0569 C   0  0  0  0  0  0
  -25.9040  -34.9466   23.5139 C   0  0  0  0  0  0
  -16.5353  -29.9095   23.6331 C   0  0  0  0  0  0
  -16.7258  -28.6524   23.0333 C   0  0  0  0  0  0
  -26.4463  -31.6572   25.0697 C   0  0  0  0  0  0
  -25.3745  -31.3686   26.1464 C   0  0  0  0  0  0
  -27.0269  -30.3013   24.6047 C   0  0  0  0  0  0
  -27.6064  -32.4262   25.7451 C   0  0  0  0  0  0
  -27.5581  -37.1806   24.8468 C   0  0  0  0  0  0
  -21.4134  -29.3036   22.3717 N   0  0  0  0  0  0
  -26.4294  -37.3783   23.9413 N   0  0  0  0  0  0
  -24.6676  -31.0772   22.0972 N   0  0  0  0  0  0
  -23.4175  -28.8194   23.3010 O   0  0  0  0  0  0
  -28.4016  -26.6991   20.0875 O   0  0  0  0  0  0
  -26.5597  -34.8921   22.4695 O   0  0  0  0  0  0
  -23.5330  -32.1407   23.7481 O   0  0  0  0  0  0
  -31.4519  -18.8379   20.7724 C   0  0  0  0  0  0
  -30.2093  -19.4376   20.7489 C   0  0  0  0  0  0
  -30.1966  -16.9344   20.8953 C   0  0  0  0  0  0
  -29.3552  -23.0812   20.4430 C   0  0  0  0  0  0
  -28.9374  -21.5689   20.5233 C   0  0  0  0  0  0
  -32.7779  -19.5334   20.6977 C   0  0  0  0  0  0
  -27.7038  -25.5848   22.2294 C   0  0  0  0  0  0
  -28.2874  -24.1670   20.1491 C   0  0  0  0  0  0
  -28.5026  -25.5141   20.9114 C   0  0  1  0  0  0
  -31.4320  -17.4414   20.8621 N   0  0  0  0  0  0
  -30.0308  -20.7915   20.6627 N   0  0  0  0  0  0
  -29.9228  -15.5311   20.9663 N   0  0  0  0  0  0
  -30.5454  -23.4007   20.5704 O   0  0  0  0  0  0
  -27.7701  -21.1686   20.4618 O   0  0  0  0  0  0
  -28.9543  -18.1990   20.8598 S   0  0  0  0  0  0
  -31.4642  -12.4111   19.1199 H   0  0  0  0  0  0
  -30.3230  -11.3050   19.8282 H   0  0  0  0  0  0
  -29.7330  -11.7692   17.4313 H   0  0  0  0  0  0
  -29.6579  -13.4816   17.7575 H   0  0  0  0  0  0
  -27.8249  -11.3059   18.8172 H   0  0  0  0  0  0
  -27.3623  -12.6309   17.7846 H   0  0  0  0  0  0
  -27.6955  -14.2512   19.5622 H   0  0  0  0  0  0
  -28.6798  -11.9677   21.3426 H   0  0  0  0  0  0
  -28.4650  -13.6105   21.8649 H   0  0  0  0  0  0
  -25.2764   -9.5676   22.4763 H   0  0  0  0  0  0
  -24.0003   -7.4630   22.7473 H   0  0  0  0  0  0
  -21.0841   -8.8781   19.8957 H   0  0  0  0  0  0
  -22.3703  -10.9679   19.6176 H   0  0  0  0  0  0
  -21.2006   -7.6148   23.9720 H   0  0  0  0  0  0
  -21.1480   -6.0525   25.9078 H   0  0  0  0  0  0
  -22.0596   -2.7614   23.2851 H   0  0  0  0  0  0
  -22.4103  -11.9895   22.4793 H   0  0  0  0  0  0
  -21.1115  -13.1280   22.2625 H   0  0  0  0  0  0
  -24.6488  -15.8328   20.4767 H   0  0  0  0  0  0
  -26.2572  -15.6179   20.0115 H   0  0  0  0  0  0
  -26.7104  -32.5529   23.1142 H   0  0  0  0  0  0
  -25.0040  -33.9760   25.0465 H   0  0  0  0  0  0
  -22.6937  -31.3071   21.4057 H   0  0  0  0  0  0
  -23.3751  -35.9645   23.3307 H   0  0  0  0  0  0
  -24.3597  -36.8917   22.2057 H   0  0  0  0  0  0
  -23.7251  -37.6520   23.6652 H   0  0  0  0  0  0
  -26.0409  -31.5952   20.5881 H   0  0  0  0  0  0
  -26.8192  -30.8878   21.9756 H   0  0  0  0  0  0
  -28.1043  -29.1082   21.1494 H   0  0  0  0  0  0
  -26.0733  -25.9502   19.0366 H   0  0  0  0  0  0
  -23.9817  -27.2812   19.0408 H   0  0  0  0  0  0
  -23.7261  -30.5936   19.4024 H   0  0  0  0  0  0
  -22.7367  -29.2422   19.8615 H   0  0  0  0  0  0
  -25.1285  -36.1964   25.0842 H   0  0  0  0  0  0
  -20.9947  -28.3228   24.1435 H   0  0  0  0  0  0
  -20.5677  -26.2264   23.3593 H   0  0  0  0  0  0
  -21.6629  -26.7448   22.1202 H   0  0  0  0  0  0
  -19.6915  -25.6312   21.1213 H   0  0  0  0  0  0
  -19.6703  -27.3216   20.6750 H   0  0  0  0  0  0
  -17.4194  -26.6676   21.4010 H   0  0  0  0  0  0
  -18.0321  -26.0077   22.9014 H   0  0  0  0  0  0
  -19.7938  -30.7236   24.2290 H   0  0  0  0  0  0
  -17.5033  -31.6273   24.5156 H   0  0  0  0  0  0
  -15.5357  -30.3010   23.7656 H   0  0  0  0  0  0
  -15.8660  -28.0866   22.7021 H   0  0  0  0  0  0
  -24.5927  -30.7021   25.7813 H   0  0  0  0  0  0
  -24.8932  -32.2842   26.4903 H   0  0  0  0  0  0
  -25.8111  -30.8869   27.0221 H   0  0  0  0  0  0
  -26.2783  -29.6791   24.1131 H   0  0  0  0  0  0
  -27.4077  -29.7230   25.4473 H   0  0  0  0  0  0
  -27.8609  -30.4331   23.9153 H   0  0  0  0  0  0
  -27.2720  -33.3565   26.2046 H   0  0  0  0  0  0
  -28.3861  -32.6793   25.0259 H   0  0  0  0  0  0
  -28.0738  -31.8359   26.5342 H   0  0  0  0  0  0
  -28.2596  -38.0101   24.7490 H   0  0  0  0  0  0
  -28.1074  -36.2628   24.6312 H   0  0  0  0  0  0
  -27.2303  -37.1479   25.8872 H   0  0  0  0  0  0
  -20.9285  -29.8780   21.6966 H   0  0  0  0  0  0
  -26.0187  -38.2863   24.1414 H   0  0  0  0  0  0
  -32.8586  -20.3178   21.4499 H   0  0  0  0  0  0
  -32.9243  -19.9951   19.7211 H   0  0  0  0  0  0
  -33.6067  -18.8441   20.8589 H   0  0  0  0  0  0
  -27.9413  -24.7389   22.8744 H   0  0  0  0  0  0
  -26.6273  -25.5674   22.0536 H   0  0  0  0  0  0
  -27.9369  -26.4935   22.7853 H   0  0  0  0  0  0
  -27.2916  -23.7715   20.3489 H   0  0  0  0  0  0
  -28.3297  -24.3538   19.0770 H   0  0  0  0  0  0
  -29.5457  -25.5637   21.2235 H   0  0  0  0  0  0
  -30.8726  -21.3562   20.6812 H   0  0  0  0  0  0
  -28.9781  -15.2861   21.2147 H   0  0  0  0  0  0
  1 25  1  0  0  0
  1 30  2  0  0  0
  1 82  1  0  0  0
  2  3  1  0  0  0
  2 25  1  0  0  0
  2 86  1  0  0  0
  2 87  1  0  0  0
  3  4  1  0  0  0
  3 88  1  0  0  0
  3 89  1  0  0  0
  4  5  1  0  0  0
  4 90  1  0  0  0
  4 91  1  0  0  0
  5  6  1  0  0  0
  5 26  1  0  0  0
  5 92  1  0  0  0
  6 25  1  0  0  0
  6 93  1  0  0  0
  6 94  1  0  0  0
  7  8  2  0  0  0
  7 26  1  0  0  0
  7 29  1  0  0  0
  8  9  1  0  0  0
  8 22  1  0  0  0
  9 10  1  0  0  0
  9 27  2  0  0  0
 10 11  2  0  0  0
 10 15  1  0  0  0
 11 12  1  0  0  0
 11 95  1  0  0  0
 12 13  2  0  0  0
 12 96  1  0  0  0
 13 14  1  0  0  0
 13 31  1  0  0  0
 14 15  2  0  0  0
 14 97  1  0  0  0
 15 98  1  0  0  0
 16 17  2  0  0  0
 16 21  1  0  0  0
 16 31  1  0  0  0
 17 18  1  0  0  0
 17 99  1  0  0  0
 18 19  2  0  0  0
 18100  1  0  0  0
 19 20  1  0  0  0
 19 24  1  0  0  0
 20 21  2  0  0  0
 20101  1  0  0  0
 21 23  1  0  0  0
 22 28  1  0  0  0
 22 32  2  0  0  0
 26 27  1  0  0  0
 28102  1  0  0  0
 28103  1  0  0  0
 29104  1  0  0  0
 29105  1  0  0  0
 33 34  1  0  0  0
 33 66  1  0  0  0
 33 70  2  0  0  0
 34 36  1  0  0  0
 34 59  1  0  0  0
 34106  1  0  0  0
 35 44  2  0  0  0
 35 45  1  0  0  0
 35 68  1  0  0  0
 36 56  1  0  0  0
 36107  1  0  0  0
 37 39  1  0  0  0
 37 47  1  0  0  0
 37 66  1  0  0  0
 37108  1  0  0  0
 38 43  2  0  0  0
 38 46  1  0  0  0
 38 47  1  0  0  0
 39 64  1  0  0  0
 39 67  2  0  0  0
 40 52  1  0  0  0
 40 53  2  0  0  0
 40 58  1  0  0  0
 41109  1  0  0  0
 41110  1  0  0  0
 41111  1  0  0  0
 41 48  1  0  0  0
 42 43  1  0  0  0
 42 66  1  0  0  0
 42112  1  0  0  0
 42113  1  0  0  0
 43 44  1  0  0  0
 44114  1  0  0  0
 45 46  2  0  0  0
 45115  1  0  0  0
 46116  1  0  0  0
 47117  1  0  0  0
 47118  1  0  0  0
 48 56  1  0  0  0
 48 65  1  0  0  0
 48119  1  0  0  0
 49 50  1  0  0  0
 49 53  1  0  0  0
 49 64  1  0  0  0
 49120  1  0  0  0
 50 51  1  0  0  0
 50121  1  0  0  0
 50122  1  0  0  0
 51 52  1  0  0  0
 51123  1  0  0  0
 51124  1  0  0  0
 52125  1  0  0  0
 52126  1  0  0  0
 53 54  1  0  0  0
 54 55  2  0  0  0
 54127  1  0  0  0
 55 57  1  0  0  0
 55128  1  0  0  0
 56 69  2  0  0  0
 57 58  2  0  0  0
 57129  1  0  0  0
 58130  1  0  0  0
 59 60  1  0  0  0
 59 61  1  0  0  0
 59 62  1  0  0  0
 60131  1  0  0  0
 60132  1  0  0  0
 60133  1  0  0  0
 61134  1  0  0  0
 61135  1  0  0  0
 61136  1  0  0  0
 62137  1  0  0  0
 62138  1  0  0  0
 62139  1  0  0  0
 63 65  1  0  0  0
 63140  1  0  0  0
 63141  1  0  0  0
 63142  1  0  0  0
 64143  1  0  0  0
 65144  1  0  0  0
 68 79  1  0  0  0
 71 72  2  0  0  0
 71 76  1  0  0  0
 71 80  1  0  0  0
 72 81  1  0  0  0
 72 85  1  0  0  0
 73 80  2  0  0  0
 73 82  1  0  0  0
 73 85  1  0  0  0
 74 75  1  0  0  0
 74 78  1  0  0  0
 74 83  2  0  0  0
 75 81  1  0  0  0
 75 84  2  0  0  0
 76145  1  0  0  0
 76146  1  0  0  0
 76147  1  0  0  0
 77148  1  0  0  0
 77149  1  0  0  0
 77150  1  0  0  0
 77 79  1  0  0  0
 78 79  1  0  0  0
 78151  1  0  0  0
 78152  1  0  0  0
 79153  1  0  0  0
 81154  1  0  0  0
 82155  1  0  0  0
M  ISO  4   1 100  68 101  79 101  82 100
M  END
> <chiral flag>
0

> <version>
0

> <s_m_source_file>
/data/baiqing/PycharmProjects/Reinvent-master-3.2/result/LINK_invent/BTK/process_docking_weight1_custom_product_contain_oxygen_bond_distance_aromatic_linkinvent_7_9_3/rearranged_h_0183.sdf

> <i_m_source_file_index>
72

> <r_mmod_Potential_Energy-OPLS-2005>
-107.727096557617

> <r_mmod_Stretch_Energy-OPLS-2005>
40.9278831481934

> <r_mmod_Bend_Energy-OPLS-2005>
125.885627746582

> <r_mmod_Torsional_Energy-OPLS-2005>
224.473251342773

> <r_mmod_Improper_Torsional_Energy-OPLS-2005>
4.91808605194092

> <r_mmod_Van_der_Waal_Energy-OPLS-2005>
131.713165283203

> <r_mmod_Electrostatic_Energy-OPLS-2005>
-408.096252441406

> <r_mmod_Solvation_Energy-OPLS-2005>
-242.336059570312

> <b_mmod_Minimization_Converged-OPLS-2005>
0

> <r_mmod_RMS_Derivative-OPLS-2005>
1.28027427196503

$$$$
72
                    3D
 Structure written by MMmdl.
153161  0  0  1  0            999 V2000
  -30.5208  -14.8637   20.4544 C   0  0  0  0  0  0
  -30.4533  -12.5318   19.4839 C   0  0  0  0  0  0
  -29.5220  -12.5288   18.2477 C   0  0  0  0  0  0
  -28.0504  -12.3267   18.6612 C   0  0  0  0  0  0
  -27.6417  -13.2317   19.8525 C   0  0  2  0  0  0
  -28.6861  -13.1777   20.9890 C   0  0  0  0  0  0
  -25.2518  -13.8189   20.5707 C   0  0  0  0  0  0
  -24.1807  -13.0437   20.9216 C   0  0  0  0  0  0
  -24.6394  -11.6912   20.8748 C   0  0  0  0  0  0
  -23.9069  -10.4290   21.0405 C   0  0  0  0  0  0
  -24.3619   -9.4206   21.9183 C   0  0  0  0  0  0
  -23.6294   -8.2243   22.0752 C   0  0  0  0  0  0
  -22.4278   -8.0281   21.3542 C   0  0  0  0  0  0
  -21.9913   -9.0254   20.4644 C   0  0  0  0  0  0
  -22.7241  -10.2133   20.3054 C   0  0  0  0  0  0
  -21.6853   -6.0735   22.5280 C   0  0  0  0  0  0
  -21.4012   -6.5638   23.8212 C   0  0  0  0  0  0
  -21.3662   -5.6791   24.9175 C   0  0  0  0  0  0
  -21.6044   -4.3055   24.7224 C   0  0  0  0  0  0
  -21.8821   -3.8146   23.4346 C   0  0  0  0  0  0
  -21.9192   -4.6963   22.3401 C   0  0  0  0  0  0
  -22.7829  -13.5220   21.1876 C   0  0  0  0  0  0
  -22.1663   -4.2148   21.0981 F   0  0  0  0  0  0
  -21.5629   -3.4539   25.7737 F   0  0  0  0  0  0
  -29.9757  -13.5885   20.4126 N   0  0  0  0  0  0
  -26.2938  -12.9388   20.3280 N   0  0  0  0  0  0
  -25.9325  -11.6533   20.5745 N   0  0  0  0  0  0
  -22.0473  -12.8206   22.0427 N   0  0  0  0  0  0
  -25.4220  -15.1917   20.4141 N   0  0  0  0  0  0
  -31.6964  -15.0227   20.1046 O   0  0  0  0  0  0
  -21.6641   -6.8878   21.4240 O   0  0  0  0  0  0
  -22.3516  -14.5525   20.6720 O   0  0  0  0  0  0
  -24.6390  -31.8478   23.1908 C   0  0  0  0  0  0
  -25.9179  -32.4716   23.8287 C   0  0  1  0  0  0
  -27.2299  -27.1924   20.1301 C   0  0  0  0  0  0
  -25.5940  -33.8520   24.2208 N   0  0  0  0  0  0
  -23.4408  -30.4672   21.5349 C   0  0  2  0  0  0
  -24.8926  -28.9028   20.1059 C   0  0  0  0  0  0
  -22.7547  -29.4566   22.4868 C   0  0  0  0  0  0
  -18.0298  -28.1400   22.8480 C   0  0  0  0  0  0
  -24.1490  -36.7267   23.2643 C   0  0  0  0  0  0
  -25.9930  -30.7380   21.3822 C   0  0  0  0  0  0
  -26.0672  -29.3544   20.7217 C   0  0  0  0  0  0
  -27.2349  -28.5108   20.7251 C   0  0  0  0  0  0
  -26.0247  -26.8221   19.4940 C   0  0  0  0  0  0
  -24.8803  -27.6470   19.4796 C   0  0  0  0  0  0
  -23.6650  -29.7970   20.1532 C   0  0  0  0  0  0
  -25.4121  -36.3046   24.0319 C   0  0  1  0  0  0
  -20.5908  -28.3723   23.1244 C   0  0  2  0  0  0
  -20.6782  -26.9429   22.5408 C   0  0  0  0  0  0
  -19.5758  -26.6389   21.5214 C   0  0  0  0  0  0
  -18.1939  -26.7939   22.1625 C   0  0  0  0  0  0
  -19.1554  -28.8877   23.2856 C   0  0  0  0  0  0
  -18.9472  -30.1472   23.8886 C   0  0  0  0  0  0
  -17.6470  -30.6598   24.0561 C   0  0  0  0  0  0
  -25.9066  -34.9419   23.5070 C   0  0  0  0  0  0
  -16.5359  -29.9092   23.6339 C   0  0  0  0  0  0
  -16.7283  -28.6509   23.0361 C   0  0  0  0  0  0
  -26.4518  -31.6569   25.0711 C   0  0  0  0  0  0
  -25.3714  -31.3745   26.1414 C   0  0  0  0  0  0
  -27.0380  -30.2970   24.6265 C   0  0  0  0  0  0
  -27.6052  -32.4327   25.7500 C   0  0  0  0  0  0
  -27.5573  -37.1794   24.8470 C   0  0  0  0  0  0
  -21.4242  -29.3053   22.3618 N   0  0  0  0  0  0
  -26.4292  -37.3749   23.9400 N   0  0  0  0  0  0
  -24.7103  -31.0376   22.0916 N   0  0  0  0  0  0
  -23.4209  -28.8115   23.3005 O   0  0  0  0  0  0
  -28.2746  -26.2128   20.2440 O   0  0  0  0  0  0
  -26.5651  -34.8908   22.4648 O   0  0  0  0  0  0
  -23.5519  -32.1331   23.7155 O   0  0  0  0  0  0
  -29.1032  -18.0918   21.8685 C   0  0  0  0  0  0
  -28.9511  -19.5350   21.6621 C   0  0  0  0  0  0
  -29.6284  -17.3541   20.8121 C   0  0  0  0  0  0
  -29.3046  -20.0706   20.4385 C   0  0  0  0  0  0
  -28.7659  -23.7747   19.3068 C   0  0  0  0  0  0
  -28.5298  -25.1831   19.2697 C   0  0  0  0  0  0
  -28.8338  -22.6846   20.3832 C   0  0  0  0  0  0
  -28.6677  -17.4321   23.1458 C   0  0  0  0  0  0
  -28.6229  -25.8740   17.9033 C   0  0  0  0  0  0
  -29.1903  -21.3972   19.9133 N   0  0  0  0  0  0
  -29.6478  -15.9226   20.7576 N   0  0  0  0  0  0
  -28.6110  -22.8957   21.5751 O   0  0  0  0  0  0
  -28.9890  -23.2452   18.0892 O   0  0  0  0  0  0
  -28.4376  -20.2754   22.6175 F   0  0  0  0  0  0
  -29.9276  -18.6093   19.5344 S   0  0  0  0  0  0
  -31.4855  -12.7028   19.1738 H   0  0  0  0  0  0
  -30.4478  -11.5584   19.9770 H   0  0  0  0  0  0
  -29.8251  -11.7487   17.5479 H   0  0  0  0  0  0
  -29.6228  -13.4749   17.7136 H   0  0  0  0  0  0
  -27.9273  -11.2787   18.9372 H   0  0  0  0  0  0
  -27.3896  -12.4961   17.8102 H   0  0  0  0  0  0
  -27.6290  -14.2498   19.4631 H   0  0  0  0  0  0
  -28.7522  -12.1722   21.4072 H   0  0  0  0  0  0
  -28.3959  -13.8280   21.8157 H   0  0  0  0  0  0
  -25.2762   -9.5685   22.4761 H   0  0  0  0  0  0
  -24.0003   -7.4633   22.7469 H   0  0  0  0  0  0
  -21.0845   -8.8772   19.8950 H   0  0  0  0  0  0
  -22.3698  -10.9673   19.6165 H   0  0  0  0  0  0
  -21.2004   -7.6146   23.9716 H   0  0  0  0  0  0
  -21.1484   -6.0522   25.9078 H   0  0  0  0  0  0
  -22.0598   -2.7608   23.2847 H   0  0  0  0  0  0
  -22.4091  -11.9863   22.4808 H   0  0  0  0  0  0
  -21.1089  -13.1225   22.2634 H   0  0  0  0  0  0
  -24.6512  -15.8415   20.5240 H   0  0  0  0  0  0
  -26.2579  -15.6310   20.0516 H   0  0  0  0  0  0
  -26.7249  -32.5342   23.1024 H   0  0  0  0  0  0
  -25.0059  -33.9644   25.0335 H   0  0  0  0  0  0
  -22.7411  -31.2914   21.3823 H   0  0  0  0  0  0
  -23.3751  -35.9603   23.3316 H   0  0  0  0  0  0
  -24.3567  -36.8880   22.2053 H   0  0  0  0  0  0
  -23.7257  -37.6471   23.6671 H   0  0  0  0  0  0
  -26.1415  -31.4957   20.6117 H   0  0  0  0  0  0
  -26.8660  -30.7878   22.0215 H   0  0  0  0  0  0
  -28.1279  -28.8443   21.2349 H   0  0  0  0  0  0
  -25.9425  -25.8456   19.0396 H   0  0  0  0  0  0
  -23.9795  -27.2901   18.9995 H   0  0  0  0  0  0
  -23.7931  -30.5718   19.3966 H   0  0  0  0  0  0
  -22.7824  -29.2329   19.8469 H   0  0  0  0  0  0
  -25.1309  -36.1883   25.0813 H   0  0  0  0  0  0
  -21.0000  -28.3320   24.1364 H   0  0  0  0  0  0
  -20.5671  -26.2339   23.3626 H   0  0  0  0  0  0
  -21.6648  -26.7437   22.1205 H   0  0  0  0  0  0
  -19.6913  -25.6297   21.1255 H   0  0  0  0  0  0
  -19.6692  -27.3190   20.6736 H   0  0  0  0  0  0
  -17.4202  -26.6684   21.4034 H   0  0  0  0  0  0
  -18.0337  -26.0088   22.9027 H   0  0  0  0  0  0
  -19.7947  -30.7290   24.2256 H   0  0  0  0  0  0
  -17.5025  -31.6278   24.5163 H   0  0  0  0  0  0
  -15.5359  -30.2989   23.7680 H   0  0  0  0  0  0
  -15.8681  -28.0826   22.7088 H   0  0  0  0  0  0
  -24.5907  -30.7076   25.7742 H   0  0  0  0  0  0
  -24.8890  -32.2920   26.4790 H   0  0  0  0  0  0
  -25.8007  -30.8958   27.0224 H   0  0  0  0  0  0
  -26.2988  -29.6698   24.1269 H   0  0  0  0  0  0
  -27.4000  -29.7262   25.4827 H   0  0  0  0  0  0
  -27.8891  -30.4212   23.9565 H   0  0  0  0  0  0
  -27.2649  -33.3647   26.2032 H   0  0  0  0  0  0
  -28.3898  -32.6857   25.0354 H   0  0  0  0  0  0
  -28.0689  -31.8482   26.5458 H   0  0  0  0  0  0
  -28.2606  -38.0076   24.7482 H   0  0  0  0  0  0
  -28.1052  -36.2602   24.6342 H   0  0  0  0  0  0
  -27.2280  -37.1492   25.8870 H   0  0  0  0  0  0
  -20.9447  -29.8760   21.6796 H   0  0  0  0  0  0
  -26.0165  -38.2822   24.1383 H   0  0  0  0  0  0
  -28.4934  -18.1582   23.9398 H   0  0  0  0  0  0
  -29.4199  -16.7328   23.5108 H   0  0  0  0  0  0
  -27.7403  -16.8769   23.0051 H   0  0  0  0  0  0
  -29.5458  -25.6078   17.3858 H   0  0  0  0  0  0
  -28.6414  -26.9610   17.9830 H   0  0  0  0  0  0
  -27.7756  -25.6016   17.2730 H   0  0  0  0  0  0
  -29.3830  -21.4594   18.9214 H   0  0  0  0  0  0
  -28.7849  -15.5274   21.0988 H   0  0  0  0  0  0
  -28.9328  -23.9616   17.4696 H   0  0  0  0  0  0
  1 25  1  0  0  0
  1 30  2  0  0  0
  1 81  1  0  0  0
  2  3  1  0  0  0
  2 25  1  0  0  0
  2 86  1  0  0  0
  2 87  1  0  0  0
  3  4  1  0  0  0
  3 88  1  0  0  0
  3 89  1  0  0  0
  4  5  1  0  0  0
  4 90  1  0  0  0
  4 91  1  0  0  0
  5  6  1  0  0  0
  5 26  1  0  0  0
  5 92  1  0  0  0
  6 25  1  0  0  0
  6 93  1  0  0  0
  6 94  1  0  0  0
  7  8  2  0  0  0
  7 26  1  0  0  0
  7 29  1  0  0  0
  8  9  1  0  0  0
  8 22  1  0  0  0
  9 10  1  0  0  0
  9 27  2  0  0  0
 10 11  2  0  0  0
 10 15  1  0  0  0
 11 12  1  0  0  0
 11 95  1  0  0  0
 12 13  2  0  0  0
 12 96  1  0  0  0
 13 14  1  0  0  0
 13 31  1  0  0  0
 14 15  2  0  0  0
 14 97  1  0  0  0
 15 98  1  0  0  0
 16 17  2  0  0  0
 16 21  1  0  0  0
 16 31  1  0  0  0
 17 18  1  0  0  0
 17 99  1  0  0  0
 18 19  2  0  0  0
 18100  1  0  0  0
 19 20  1  0  0  0
 19 24  1  0  0  0
 20 21  2  0  0  0
 20101  1  0  0  0
 21 23  1  0  0  0
 22 28  1  0  0  0
 22 32  2  0  0  0
 26 27  1  0  0  0
 28102  1  0  0  0
 28103  1  0  0  0
 29104  1  0  0  0
 29105  1  0  0  0
 33 34  1  0  0  0
 33 66  1  0  0  0
 33 70  2  0  0  0
 34 36  1  0  0  0
 34 59  1  0  0  0
 34106  1  0  0  0
 35 44  2  0  0  0
 35 45  1  0  0  0
 35 68  1  0  0  0
 36 56  1  0  0  0
 36107  1  0  0  0
 37 39  1  0  0  0
 37 47  1  0  0  0
 37 66  1  0  0  0
 37108  1  0  0  0
 38 43  2  0  0  0
 38 46  1  0  0  0
 38 47  1  0  0  0
 39 64  1  0  0  0
 39 67  2  0  0  0
 40 52  1  0  0  0
 40 53  2  0  0  0
 40 58  1  0  0  0
 41109  1  0  0  0
 41110  1  0  0  0
 41111  1  0  0  0
 41 48  1  0  0  0
 42 43  1  0  0  0
 42 66  1  0  0  0
 42112  1  0  0  0
 42113  1  0  0  0
 43 44  1  0  0  0
 44114  1  0  0  0
 45 46  2  0  0  0
 45115  1  0  0  0
 46116  1  0  0  0
 47117  1  0  0  0
 47118  1  0  0  0
 48 56  1  0  0  0
 48 65  1  0  0  0
 48119  1  0  0  0
 49 50  1  0  0  0
 49 53  1  0  0  0
 49 64  1  0  0  0
 49120  1  0  0  0
 50 51  1  0  0  0
 50121  1  0  0  0
 50122  1  0  0  0
 51 52  1  0  0  0
 51123  1  0  0  0
 51124  1  0  0  0
 52125  1  0  0  0
 52126  1  0  0  0
 53 54  1  0  0  0
 54 55  2  0  0  0
 54127  1  0  0  0
 55 57  1  0  0  0
 55128  1  0  0  0
 56 69  2  0  0  0
 57 58  2  0  0  0
 57129  1  0  0  0
 58130  1  0  0  0
 59 60  1  0  0  0
 59 61  1  0  0  0
 59 62  1  0  0  0
 60131  1  0  0  0
 60132  1  0  0  0
 60133  1  0  0  0
 61134  1  0  0  0
 61135  1  0  0  0
 61136  1  0  0  0
 62137  1  0  0  0
 62138  1  0  0  0
 62139  1  0  0  0
 63 65  1  0  0  0
 63140  1  0  0  0
 63141  1  0  0  0
 63142  1  0  0  0
 64143  1  0  0  0
 65144  1  0  0  0
 68 76  1  0  0  0
 71 72  1  0  0  0
 71 73  2  0  0  0
 71 78  1  0  0  0
 72 74  2  0  0  0
 72 84  1  0  0  0
 73 81  1  0  0  0
 73 85  1  0  0  0
 74 80  1  0  0  0
 74 85  1  0  0  0
 75 76  2  0  0  0
 75 77  1  0  0  0
 75 83  1  0  0  0
 76 79  1  0  0  0
 77 80  1  0  0  0
 77 82  2  0  0  0
 78145  1  0  0  0
 78146  1  0  0  0
 78147  1  0  0  0
 79148  1  0  0  0
 79149  1  0  0  0
 79150  1  0  0  0
 80151  1  0  0  0
 81152  1  0  0  0
 83153  1  0  0  0
M  ISO  4   1 100  68 101  76 101  81 100
M  END
> <chiral flag>
0

> <version>
0

> <s_m_source_file>
/data/baiqing/PycharmProjects/Reinvent-master-3.2/result/LINK_invent/BTK/process_docking_weight1_custom_product_contain_oxygen_bond_distance_aromatic_linkinvent_7_9_3/rearranged_h_0183.sdf

> <i_m_source_file_index>
73

> <r_mmod_Potential_Energy-OPLS-2005>
327.668273925781

> <r_mmod_Stretch_Energy-OPLS-2005>
170.69743347168

> <r_mmod_Bend_Energy-OPLS-2005>
286.405395507812

> <r_mmod_Torsional_Energy-OPLS-2005>
228.145385742188

> <r_mmod_Improper_Torsional_Energy-OPLS-2005>
5.6479868888855

> <r_mmod_Van_der_Waal_Energy-OPLS-2005>
131.038513183594

> <r_mmod_Electrostatic_Energy-OPLS-2005>
-405.262664794922

> <r_mmod_Solvation_Energy-OPLS-2005>
-236.954498291016

> <b_mmod_Minimization_Converged-OPLS-2005>
0

> <r_mmod_RMS_Derivative-OPLS-2005>
0.697045743465424

$$$$
73
                    3D
 Structure written by MMmdl.
146154  0  0  1  0            999 V2000
  -30.5183  -14.9940   20.4223 C   0  0  0  0  0  0
  -30.4432  -12.6190   19.5040 C   0  0  0  0  0  0
  -29.5260  -12.5425   18.2598 C   0  0  0  0  0  0
  -28.0579  -12.3235   18.6715 C   0  0  0  0  0  0
  -27.6262  -13.2538   19.8356 C   0  0  2  0  0  0
  -28.6677  -13.2918   20.9750 C   0  0  0  0  0  0
  -25.2439  -13.8231   20.5716 C   0  0  0  0  0  0
  -24.1756  -13.0447   20.9232 C   0  0  0  0  0  0
  -24.6370  -11.6930   20.8742 C   0  0  0  0  0  0
  -23.9058  -10.4298   21.0388 C   0  0  0  0  0  0
  -24.3609   -9.4216   21.9166 C   0  0  0  0  0  0
  -23.6283   -8.2253   22.0749 C   0  0  0  0  0  0
  -22.4265   -8.0282   21.3540 C   0  0  0  0  0  0
  -21.9896   -9.0253   20.4646 C   0  0  0  0  0  0
  -22.7226  -10.2134   20.3043 C   0  0  0  0  0  0
  -21.6853   -6.0726   22.5265 C   0  0  0  0  0  0
  -21.4019   -6.5628   23.8205 C   0  0  0  0  0  0
  -21.3666   -5.6777   24.9163 C   0  0  0  0  0  0
  -21.6039   -4.3036   24.7218 C   0  0  0  0  0  0
  -21.8823   -3.8135   23.4335 C   0  0  0  0  0  0
  -21.9201   -4.6955   22.3391 C   0  0  0  0  0  0
  -22.7784  -13.5232   21.1888 C   0  0  0  0  0  0
  -22.1665   -4.2132   21.0966 F   0  0  0  0  0  0
  -21.5636   -3.4520   25.7733 F   0  0  0  0  0  0
  -29.9410  -13.7209   20.3789 N   0  0  0  0  0  0
  -26.2856  -12.9464   20.3221 N   0  0  0  0  0  0
  -25.9301  -11.6584   20.5714 N   0  0  0  0  0  0
  -22.0417  -12.8232   22.0440 N   0  0  0  0  0  0
  -25.4124  -15.1966   20.4174 N   0  0  0  0  0  0
  -31.7253  -15.0570   20.1538 O   0  0  0  0  0  0
  -21.6646   -6.8866   21.4230 O   0  0  0  0  0  0
  -22.3465  -14.5530   20.6725 O   0  0  0  0  0  0
  -24.6473  -31.8393   23.1840 C   0  0  0  0  0  0
  -25.9231  -32.4671   23.8242 C   0  0  1  0  0  0
  -27.2198  -27.0972   20.1553 C   0  0  0  0  0  0
  -25.5967  -33.8485   24.2183 N   0  0  0  0  0  0
  -23.4530  -30.4585   21.5299 C   0  0  2  0  0  0
  -24.9041  -28.8777   20.1074 C   0  0  0  0  0  0
  -22.7584  -29.4532   22.4828 C   0  0  0  0  0  0
  -18.0314  -28.1398   22.8469 C   0  0  0  0  0  0
  -24.1492  -36.7242   23.2636 C   0  0  0  0  0  0
  -26.0120  -30.7015   21.3868 C   0  0  0  0  0  0
  -26.0838  -29.3097   20.7272 C   0  0  0  0  0  0
  -27.2416  -28.4382   20.7283 C   0  0  0  0  0  0
  -26.0137  -26.7751   19.4956 C   0  0  0  0  0  0
  -24.8866  -27.6270   19.4716 C   0  0  0  0  0  0
  -23.6817  -29.7850   20.1504 C   0  0  0  0  0  0
  -25.4126  -36.3021   24.0309 C   0  0  1  0  0  0
  -20.5919  -28.3743   23.1211 C   0  0  2  0  0  0
  -20.6808  -26.9426   22.5434 C   0  0  0  0  0  0
  -19.5785  -26.6362   21.5242 C   0  0  0  0  0  0
  -18.1962  -26.7925   22.1645 C   0  0  0  0  0  0
  -19.1568  -28.8896   23.2818 C   0  0  0  0  0  0
  -18.9481  -30.1479   23.8870 C   0  0  0  0  0  0
  -17.6481  -30.6596   24.0560 C   0  0  0  0  0  0
  -25.9076  -34.9394   23.5052 C   0  0  0  0  0  0
  -16.5369  -29.9082   23.6342 C   0  0  0  0  0  0
  -16.7301  -28.6504   23.0360 C   0  0  0  0  0  0
  -26.4536  -31.6553   25.0705 C   0  0  0  0  0  0
  -25.3710  -31.3749   26.1391 C   0  0  0  0  0  0
  -27.0402  -30.2939   24.6324 C   0  0  0  0  0  0
  -27.6059  -32.4331   25.7493 C   0  0  0  0  0  0
  -27.5575  -37.1783   24.8463 C   0  0  0  0  0  0
  -21.4274  -29.3062   22.3580 N   0  0  0  0  0  0
  -26.4290  -37.3737   23.9400 N   0  0  0  0  0  0
  -24.7246  -31.0214   22.0888 N   0  0  0  0  0  0
  -23.4212  -28.8086   23.2998 O   0  0  0  0  0  0
  -28.2631  -26.0905   20.2310 O   0  0  0  0  0  0
  -26.5667  -34.8902   22.4638 O   0  0  0  0  0  0
  -23.5586  -32.1296   23.7031 O   0  0  0  0  0  0
  -30.8132  -20.0988   20.3439 C   0  0  0  0  0  0
  -29.4343  -20.1577   20.3955 C   0  0  0  0  0  0
  -29.9391  -17.6878   20.4806 C   0  0  0  0  0  0
  -27.9774  -24.5427   20.1003 C   0  0  0  0  0  0
  -28.4882  -21.5364   20.3111 C   0  0  0  0  0  0
  -28.9785  -23.1789   20.3743 C   0  0  0  0  0  0
  -28.9915  -18.7312   20.4778 N   0  0  0  0  0  0
  -29.7065  -16.1655   20.5600 N   0  0  0  0  0  0
  -27.5655  -21.4648   21.2715 F   0  0  0  0  0  0
  -27.8041  -21.4851   19.1689 F   0  0  0  0  0  0
  -29.9800  -23.2872   19.5015 F   0  0  0  0  0  0
  -29.4987  -23.3557   21.5891 F   0  0  0  0  0  0
  -31.5229  -18.4601   20.3809 S   0  0  0  0  0  0
  -31.4770  -12.7846   19.1935 H   0  0  0  0  0  0
  -30.4451  -11.6717   20.0437 H   0  0  0  0  0  0
  -29.8528  -11.7431   17.5924 H   0  0  0  0  0  0
  -29.6100  -13.4693   17.6911 H   0  0  0  0  0  0
  -27.9508  -11.2823   18.9752 H   0  0  0  0  0  0
  -27.4014  -12.4598   17.8114 H   0  0  0  0  0  0
  -27.5850  -14.2550   19.4034 H   0  0  0  0  0  0
  -28.7639  -12.3166   21.4542 H   0  0  0  0  0  0
  -28.3580  -13.9887   21.7567 H   0  0  0  0  0  0
  -25.2742   -9.5707   22.4754 H   0  0  0  0  0  0
  -23.9992   -7.4652   22.7467 H   0  0  0  0  0  0
  -21.0831   -8.8772   19.8953 H   0  0  0  0  0  0
  -22.3664  -10.9678   19.6171 H   0  0  0  0  0  0
  -21.2007   -7.6139   23.9700 H   0  0  0  0  0  0
  -21.1487   -6.0507   25.9069 H   0  0  0  0  0  0
  -22.0599   -2.7593   23.2836 H   0  0  0  0  0  0
  -22.4021  -11.9911   22.4877 H   0  0  0  0  0  0
  -21.1031  -13.1272   22.2616 H   0  0  0  0  0  0
  -24.6448  -15.8500   20.5341 H   0  0  0  0  0  0
  -26.2529  -15.6404   20.0708 H   0  0  0  0  0  0
  -26.7297  -32.5279   23.0960 H   0  0  0  0  0  0
  -25.0091  -33.9598   25.0317 H   0  0  0  0  0  0
  -22.7568  -31.2851   21.3732 H   0  0  0  0  0  0
  -23.3760  -35.9568   23.3292 H   0  0  0  0  0  0
  -24.3546  -36.8897   22.2051 H   0  0  0  0  0  0
  -23.7267  -37.6441   23.6678 H   0  0  0  0  0  0
  -26.1712  -31.4528   20.6119 H   0  0  0  0  0  0
  -26.8803  -30.7508   22.0323 H   0  0  0  0  0  0
  -28.1413  -28.7667   21.2290 H   0  0  0  0  0  0
  -25.9052  -25.8177   19.0104 H   0  0  0  0  0  0
  -23.9891  -27.2915   18.9705 H   0  0  0  0  0  0
  -23.8220  -30.5595   19.3956 H   0  0  0  0  0  0
  -22.7957  -29.2303   19.8363 H   0  0  0  0  0  0
  -25.1316  -36.1830   25.0803 H   0  0  0  0  0  0
  -20.9979  -28.3390   24.1336 H   0  0  0  0  0  0
  -20.5695  -26.2357   23.3671 H   0  0  0  0  0  0
  -21.6669  -26.7413   22.1232 H   0  0  0  0  0  0
  -19.6936  -25.6255   21.1303 H   0  0  0  0  0  0
  -19.6750  -27.3137   20.6739 H   0  0  0  0  0  0
  -17.4235  -26.6622   21.4041 H   0  0  0  0  0  0
  -18.0359  -26.0076   22.9071 H   0  0  0  0  0  0
  -19.7960  -30.7300   24.2226 H   0  0  0  0  0  0
  -17.5017  -31.6281   24.5147 H   0  0  0  0  0  0
  -15.5359  -30.2983   23.7661 H   0  0  0  0  0  0
  -15.8699  -28.0834   22.7078 H   0  0  0  0  0  0
  -24.5897  -30.7094   25.7700 H   0  0  0  0  0  0
  -24.8898  -32.2940   26.4751 H   0  0  0  0  0  0
  -25.7989  -30.8962   27.0212 H   0  0  0  0  0  0
  -26.3027  -29.6661   24.1321 H   0  0  0  0  0  0
  -27.3962  -29.7243   25.4918 H   0  0  0  0  0  0
  -27.8951  -30.4145   23.9670 H   0  0  0  0  0  0
  -27.2631  -33.3643   26.2009 H   0  0  0  0  0  0
  -28.3887  -32.6895   25.0341 H   0  0  0  0  0  0
  -28.0693  -31.8513   26.5470 H   0  0  0  0  0  0
  -28.2581  -38.0091   24.7487 H   0  0  0  0  0  0
  -28.1085  -36.2614   24.6306 H   0  0  0  0  0  0
  -27.2263  -37.1437   25.8861 H   0  0  0  0  0  0
  -20.9488  -29.8810   21.6782 H   0  0  0  0  0  0
  -26.0146  -38.2793   24.1437 H   0  0  0  0  0  0
  -31.4810  -20.9466   20.2660 H   0  0  0  0  0  0
  -27.0935  -24.3727   20.7154 H   0  0  0  0  0  0
  -27.6328  -24.4140   19.0745 H   0  0  0  0  0  0
  -28.7415  -15.9310   20.7214 H   0  0  0  0  0  0
  1 25  1  0  0  0
  1 30  2  0  0  0
  1 78  1  0  0  0
  2  3  1  0  0  0
  2 25  1  0  0  0
  2 84  1  0  0  0
  2 85  1  0  0  0
  3  4  1  0  0  0
  3 86  1  0  0  0
  3 87  1  0  0  0
  4  5  1  0  0  0
  4 88  1  0  0  0
  4 89  1  0  0  0
  5  6  1  0  0  0
  5 26  1  0  0  0
  5 90  1  0  0  0
  6 25  1  0  0  0
  6 91  1  0  0  0
  6 92  1  0  0  0
  7  8  2  0  0  0
  7 26  1  0  0  0
  7 29  1  0  0  0
  8  9  1  0  0  0
  8 22  1  0  0  0
  9 10  1  0  0  0
  9 27  2  0  0  0
 10 11  2  0  0  0
 10 15  1  0  0  0
 11 12  1  0  0  0
 11 93  1  0  0  0
 12 13  2  0  0  0
 12 94  1  0  0  0
 13 14  1  0  0  0
 13 31  1  0  0  0
 14 15  2  0  0  0
 14 95  1  0  0  0
 15 96  1  0  0  0
 16 17  2  0  0  0
 16 21  1  0  0  0
 16 31  1  0  0  0
 17 18  1  0  0  0
 17 97  1  0  0  0
 18 19  2  0  0  0
 18 98  1  0  0  0
 19 20  1  0  0  0
 19 24  1  0  0  0
 20 21  2  0  0  0
 20 99  1  0  0  0
 21 23  1  0  0  0
 22 28  1  0  0  0
 22 32  2  0  0  0
 26 27  1  0  0  0
 28100  1  0  0  0
 28101  1  0  0  0
 29102  1  0  0  0
 29103  1  0  0  0
 33 34  1  0  0  0
 33 66  1  0  0  0
 33 70  2  0  0  0
 34 36  1  0  0  0
 34 59  1  0  0  0
 34104  1  0  0  0
 35 44  2  0  0  0
 35 45  1  0  0  0
 35 68  1  0  0  0
 36 56  1  0  0  0
 36105  1  0  0  0
 37 39  1  0  0  0
 37 47  1  0  0  0
 37 66  1  0  0  0
 37106  1  0  0  0
 38 43  2  0  0  0
 38 46  1  0  0  0
 38 47  1  0  0  0
 39 64  1  0  0  0
 39 67  2  0  0  0
 40 52  1  0  0  0
 40 53  2  0  0  0
 40 58  1  0  0  0
 41107  1  0  0  0
 41108  1  0  0  0
 41109  1  0  0  0
 41 48  1  0  0  0
 42 43  1  0  0  0
 42 66  1  0  0  0
 42110  1  0  0  0
 42111  1  0  0  0
 43 44  1  0  0  0
 44112  1  0  0  0
 45 46  2  0  0  0
 45113  1  0  0  0
 46114  1  0  0  0
 47115  1  0  0  0
 47116  1  0  0  0
 48 56  1  0  0  0
 48 65  1  0  0  0
 48117  1  0  0  0
 49 50  1  0  0  0
 49 53  1  0  0  0
 49 64  1  0  0  0
 49118  1  0  0  0
 50 51  1  0  0  0
 50119  1  0  0  0
 50120  1  0  0  0
 51 52  1  0  0  0
 51121  1  0  0  0
 51122  1  0  0  0
 52123  1  0  0  0
 52124  1  0  0  0
 53 54  1  0  0  0
 54 55  2  0  0  0
 54125  1  0  0  0
 55 57  1  0  0  0
 55126  1  0  0  0
 56 69  2  0  0  0
 57 58  2  0  0  0
 57127  1  0  0  0
 58128  1  0  0  0
 59 60  1  0  0  0
 59 61  1  0  0  0
 59 62  1  0  0  0
 60129  1  0  0  0
 60130  1  0  0  0
 60131  1  0  0  0
 61132  1  0  0  0
 61133  1  0  0  0
 61134  1  0  0  0
 62135  1  0  0  0
 62136  1  0  0  0
 62137  1  0  0  0
 63 65  1  0  0  0
 63138  1  0  0  0
 63139  1  0  0  0
 63140  1  0  0  0
 64141  1  0  0  0
 65142  1  0  0  0
 68 74  1  0  0  0
 71 72  2  0  0  0
 71 83  1  0  0  0
 71143  1  0  0  0
 72 75  1  0  0  0
 72 77  1  0  0  0
 73 77  2  0  0  0
 73 78  1  0  0  0
 73 83  1  0  0  0
 74 76  1  0  0  0
 74144  1  0  0  0
 74145  1  0  0  0
 75 76  1  0  0  0
 75 79  1  0  0  0
 75 80  1  0  0  0
 76 81  1  0  0  0
 76 82  1  0  0  0
 78146  1  0  0  0
M  ISO  4   1 100  68 101  74 101  78 100
M  END
> <chiral flag>
0

> <version>
0

> <s_m_source_file>
/data/baiqing/PycharmProjects/Reinvent-master-3.2/result/LINK_invent/BTK/process_docking_weight1_custom_product_contain_oxygen_bond_distance_aromatic_linkinvent_7_9_3/rearranged_h_0183.sdf

> <i_m_source_file_index>
74

> <r_mmod_Potential_Energy-OPLS-2005>
549.267700195312

> <r_mmod_Stretch_Energy-OPLS-2005>
303.862213134766

> <r_mmod_Bend_Energy-OPLS-2005>
268.88818359375

> <r_mmod_Torsional_Energy-OPLS-2005>
193.714569091797

> <r_mmod_Improper_Torsional_Energy-OPLS-2005>
4.42158651351929

> <r_mmod_Van_der_Waal_Energy-OPLS-2005>
108.739700317383

> <r_mmod_Electrostatic_Energy-OPLS-2005>
-349.614837646484

> <r_mmod_Solvation_Energy-OPLS-2005>
-207.267700195312

> <b_mmod_Minimization_Converged-OPLS-2005>
0

> <r_mmod_RMS_Derivative-OPLS-2005>
2.37274026870728

$$$$
74
                    3D
 Structure written by MMmdl.
148156  0  0  1  0            999 V2000
  -30.5600  -14.8380   20.4355 C   0  0  0  0  0  0
  -30.4391  -12.5091   19.4916 C   0  0  0  0  0  0
  -29.5194  -12.5209   18.2489 C   0  0  0  0  0  0
  -28.0467  -12.3269   18.6599 C   0  0  0  0  0  0
  -27.6383  -13.2367   19.8485 C   0  0  2  0  0  0
  -28.6801  -13.1993   20.9881 C   0  0  0  0  0  0
  -25.2490  -13.8202   20.5678 C   0  0  0  0  0  0
  -24.1793  -13.0440   20.9208 C   0  0  0  0  0  0
  -24.6392  -11.6920   20.8742 C   0  0  0  0  0  0
  -23.9071  -10.4291   21.0405 C   0  0  0  0  0  0
  -24.3622   -9.4207   21.9181 C   0  0  0  0  0  0
  -23.6297   -8.2244   22.0753 C   0  0  0  0  0  0
  -22.4281   -8.0280   21.3540 C   0  0  0  0  0  0
  -21.9916   -9.0255   20.4644 C   0  0  0  0  0  0
  -22.7245  -10.2134   20.3052 C   0  0  0  0  0  0
  -21.6852   -6.0735   22.5276 C   0  0  0  0  0  0
  -21.4016   -6.5640   23.8210 C   0  0  0  0  0  0
  -21.3662   -5.6790   24.9172 C   0  0  0  0  0  0
  -21.6047   -4.3052   24.7222 C   0  0  0  0  0  0
  -21.8819   -3.8147   23.4341 C   0  0  0  0  0  0
  -21.9191   -4.6961   22.3399 C   0  0  0  0  0  0
  -22.7813  -13.5215   21.1874 C   0  0  0  0  0  0
  -22.1656   -4.2146   21.0975 F   0  0  0  0  0  0
  -21.5633   -3.4537   25.7733 F   0  0  0  0  0  0
  -29.9733  -13.5827   20.4068 N   0  0  0  0  0  0
  -26.2918  -12.9413   20.3258 N   0  0  0  0  0  0
  -25.9324  -11.6553   20.5743 N   0  0  0  0  0  0
  -22.0454  -12.8208   22.0430 N   0  0  0  0  0  0
  -25.4171  -15.1931   20.4084 N   0  0  0  0  0  0
  -31.7513  -14.9294   20.1157 O   0  0  0  0  0  0
  -21.6640   -6.8883   21.4240 O   0  0  0  0  0  0
  -22.3496  -14.5519   20.6719 O   0  0  0  0  0  0
  -24.6358  -31.8482   23.1898 C   0  0  0  0  0  0
  -25.9157  -32.4715   23.8277 C   0  0  1  0  0  0
  -27.2295  -27.2051   20.1316 C   0  0  0  0  0  0
  -25.5935  -33.8520   24.2207 N   0  0  0  0  0  0
  -23.4354  -30.4660   21.5354 C   0  0  2  0  0  0
  -24.8828  -28.8963   20.1091 C   0  0  0  0  0  0
  -22.7516  -29.4568   22.4898 C   0  0  0  0  0  0
  -18.0294  -28.1389   22.8483 C   0  0  0  0  0  0
  -24.1496  -36.7266   23.2641 C   0  0  0  0  0  0
  -25.9834  -30.7441   21.3740 C   0  0  0  0  0  0
  -26.0550  -29.3599   20.7169 C   0  0  0  0  0  0
  -27.2242  -28.5266   20.7133 C   0  0  0  0  0  0
  -26.0238  -26.8087   19.5153 C   0  0  0  0  0  0
  -24.8750  -27.6312   19.4982 C   0  0  0  0  0  0
  -23.6545  -29.7883   20.1555 C   0  0  0  0  0  0
  -25.4123  -36.3047   24.0321 C   0  0  1  0  0  0
  -20.5898  -28.3699   23.1267 C   0  0  2  0  0  0
  -20.6781  -26.9414   22.5411 C   0  0  0  0  0  0
  -19.5761  -26.6382   21.5211 C   0  0  0  0  0  0
  -18.1939  -26.7933   22.1621 C   0  0  0  0  0  0
  -19.1546  -28.8862   23.2871 C   0  0  0  0  0  0
  -18.9465  -30.1464   23.8889 C   0  0  0  0  0  0
  -17.6461  -30.6591   24.0557 C   0  0  0  0  0  0
  -25.9066  -34.9418   23.5070 C   0  0  0  0  0  0
  -16.5353  -29.9081   23.6336 C   0  0  0  0  0  0
  -16.7278  -28.6500   23.0355 C   0  0  0  0  0  0
  -26.4507  -31.6565   25.0694 C   0  0  0  0  0  0
  -25.3709  -31.3727   26.1401 C   0  0  0  0  0  0
  -27.0363  -30.2980   24.6208 C   0  0  0  0  0  0
  -27.6060  -32.4306   25.7471 C   0  0  0  0  0  0
  -27.5581  -37.1783   24.8462 C   0  0  0  0  0  0
  -21.4217  -29.3036   22.3644 N   0  0  0  0  0  0
  -26.4291  -37.3750   23.9410 N   0  0  0  0  0  0
  -24.7047  -31.0392   22.0899 N   0  0  0  0  0  0
  -23.4190  -28.8127   23.3035 O   0  0  0  0  0  0
  -28.3532  -26.3335   20.2343 O   0  0  0  0  0  0
  -26.5647  -34.8905   22.4647 O   0  0  0  0  0  0
  -23.5496  -32.1332   23.7163 O   0  0  0  0  0  0
  -29.2701  -19.6929   20.4437 C   0  0  0  0  0  0
  -29.9054  -17.4370   20.4261 C   0  0  0  0  0  0
  -28.5237  -21.0558   20.7678 C   0  0  0  0  0  0
  -28.2022  -23.5801   20.4611 C   0  0  0  0  0  0
  -28.2575  -24.8366   18.1520 C   0  0  0  0  0  0
  -28.5941  -24.9344   19.6499 C   0  0  1  0  0  0
  -28.9577  -18.3870   20.7798 N   0  0  0  0  0  0
  -30.9890  -17.9558   19.8067 N   0  0  0  0  0  0
  -29.7491  -15.9615   20.6654 N   0  0  0  0  0  0
  -28.8006  -22.3212   20.2146 N   0  0  0  0  0  0
  -27.6000  -20.9273   21.5807 O   0  0  0  0  0  0
  -27.3283  -23.7235   21.3225 O   0  0  0  0  0  0
  -30.8332  -19.6718   19.6641 S   0  0  0  0  0  0
  -31.4785  -12.6480   19.1895 H   0  0  0  0  0  0
  -30.4025  -11.5399   19.9914 H   0  0  0  0  0  0
  -29.8201  -11.7403   17.5491 H   0  0  0  0  0  0
  -29.6316  -13.4680   17.7185 H   0  0  0  0  0  0
  -27.9194  -11.2802   18.9392 H   0  0  0  0  0  0
  -27.3882  -12.4952   17.8067 H   0  0  0  0  0  0
  -27.6223  -14.2523   19.4526 H   0  0  0  0  0  0
  -28.7362  -12.2045   21.4322 H   0  0  0  0  0  0
  -28.3963  -13.8772   21.7946 H   0  0  0  0  0  0
  -25.2764   -9.5685   22.4757 H   0  0  0  0  0  0
  -24.0004   -7.4635   22.7475 H   0  0  0  0  0  0
  -21.0843   -8.8779   19.8952 H   0  0  0  0  0  0
  -22.3702  -10.9675   19.6164 H   0  0  0  0  0  0
  -21.2010   -7.6144   23.9715 H   0  0  0  0  0  0
  -21.1487   -6.0516   25.9076 H   0  0  0  0  0  0
  -22.0598   -2.7605   23.2837 H   0  0  0  0  0  0
  -22.4066  -11.9872   22.4828 H   0  0  0  0  0  0
  -21.1074  -13.1242   22.2633 H   0  0  0  0  0  0
  -24.6457  -15.8432   20.5163 H   0  0  0  0  0  0
  -26.2538  -15.6326   20.0486 H   0  0  0  0  0  0
  -26.7219  -32.5344   23.1008 H   0  0  0  0  0  0
  -25.0063  -33.9644   25.0342 H   0  0  0  0  0  0
  -22.7357  -31.2902   21.3815 H   0  0  0  0  0  0
  -23.3761  -35.9593   23.3282 H   0  0  0  0  0  0
  -24.3589  -36.8914   22.2061 H   0  0  0  0  0  0
  -23.7243  -37.6456   23.6683 H   0  0  0  0  0  0
  -26.1247  -31.4992   20.5993 H   0  0  0  0  0  0
  -26.8604  -30.7984   22.0080 H   0  0  0  0  0  0
  -28.1222  -28.8771   21.2027 H   0  0  0  0  0  0
  -25.9258  -25.8260   19.0875 H   0  0  0  0  0  0
  -23.9706  -27.2617   19.0343 H   0  0  0  0  0  0
  -23.7779  -30.5581   19.3932 H   0  0  0  0  0  0
  -22.7722  -29.2194   19.8562 H   0  0  0  0  0  0
  -25.1308  -36.1880   25.0811 H   0  0  0  0  0  0
  -20.9994  -28.3280   24.1386 H   0  0  0  0  0  0
  -20.5676  -26.2305   23.3612 H   0  0  0  0  0  0
  -21.6648  -26.7435   22.1205 H   0  0  0  0  0  0
  -19.6921  -25.6288   21.1252 H   0  0  0  0  0  0
  -19.6709  -27.3180   20.6731 H   0  0  0  0  0  0
  -17.4209  -26.6677   21.4024 H   0  0  0  0  0  0
  -18.0346  -26.0079   22.9021 H   0  0  0  0  0  0
  -19.7937  -30.7285   24.2257 H   0  0  0  0  0  0
  -17.5011  -31.6272   24.5151 H   0  0  0  0  0  0
  -15.5351  -30.2972   23.7671 H   0  0  0  0  0  0
  -15.8679  -28.0811   22.7077 H   0  0  0  0  0  0
  -24.5889  -30.7079   25.7713 H   0  0  0  0  0  0
  -24.8892  -32.2898   26.4804 H   0  0  0  0  0  0
  -25.8002  -30.8909   27.0195 H   0  0  0  0  0  0
  -26.2957  -29.6711   24.1230 H   0  0  0  0  0  0
  -27.4035  -29.7263   25.4742 H   0  0  0  0  0  0
  -27.8834  -30.4251   23.9463 H   0  0  0  0  0  0
  -27.2683  -33.3618   26.2028 H   0  0  0  0  0  0
  -28.3883  -32.6841   25.0303 H   0  0  0  0  0  0
  -28.0714  -31.8439   26.5402 H   0  0  0  0  0  0
  -28.2580  -38.0099   24.7522 H   0  0  0  0  0  0
  -28.1098  -36.2627   24.6270 H   0  0  0  0  0  0
  -27.2301  -37.1403   25.8865 H   0  0  0  0  0  0
  -20.9409  -29.8733   21.6820 H   0  0  0  0  0  0
  -26.0164  -38.2819   24.1414 H   0  0  0  0  0  0
  -28.5067  -25.7631   17.6351 H   0  0  0  0  0  0
  -27.2101  -24.6077   17.9668 H   0  0  0  0  0  0
  -28.8336  -24.0407   17.6797 H   0  0  0  0  0  0
  -29.6837  -24.8970   19.6807 H   0  0  0  0  0  0
  -28.8303  -15.7143   20.9929 H   0  0  0  0  0  0
  -29.5345  -22.3241   19.5253 H   0  0  0  0  0  0
  1 25  1  0  0  0
  1 30  2  0  0  0
  1 79  1  0  0  0
  2  3  1  0  0  0
  2 25  1  0  0  0
  2 84  1  0  0  0
  2 85  1  0  0  0
  3  4  1  0  0  0
  3 86  1  0  0  0
  3 87  1  0  0  0
  4  5  1  0  0  0
  4 88  1  0  0  0
  4 89  1  0  0  0
  5  6  1  0  0  0
  5 26  1  0  0  0
  5 90  1  0  0  0
  6 25  1  0  0  0
  6 91  1  0  0  0
  6 92  1  0  0  0
  7  8  2  0  0  0
  7 26  1  0  0  0
  7 29  1  0  0  0
  8  9  1  0  0  0
  8 22  1  0  0  0
  9 10  1  0  0  0
  9 27  2  0  0  0
 10 11  2  0  0  0
 10 15  1  0  0  0
 11 12  1  0  0  0
 11 93  1  0  0  0
 12 13  2  0  0  0
 12 94  1  0  0  0
 13 14  1  0  0  0
 13 31  1  0  0  0
 14 15  2  0  0  0
 14 95  1  0  0  0
 15 96  1  0  0  0
 16 17  2  0  0  0
 16 21  1  0  0  0
 16 31  1  0  0  0
 17 18  1  0  0  0
 17 97  1  0  0  0
 18 19  2  0  0  0
 18 98  1  0  0  0
 19 20  1  0  0  0
 19 24  1  0  0  0
 20 21  2  0  0  0
 20 99  1  0  0  0
 21 23  1  0  0  0
 22 28  1  0  0  0
 22 32  2  0  0  0
 26 27  1  0  0  0
 28100  1  0  0  0
 28101  1  0  0  0
 29102  1  0  0  0
 29103  1  0  0  0
 33 34  1  0  0  0
 33 66  1  0  0  0
 33 70  2  0  0  0
 34 36  1  0  0  0
 34 59  1  0  0  0
 34104  1  0  0  0
 35 44  2  0  0  0
 35 45  1  0  0  0
 35 68  1  0  0  0
 36 56  1  0  0  0
 36105  1  0  0  0
 37 39  1  0  0  0
 37 47  1  0  0  0
 37 66  1  0  0  0
 37106  1  0  0  0
 38 43  2  0  0  0
 38 46  1  0  0  0
 38 47  1  0  0  0
 39 64  1  0  0  0
 39 67  2  0  0  0
 40 52  1  0  0  0
 40 53  2  0  0  0
 40 58  1  0  0  0
 41107  1  0  0  0
 41108  1  0  0  0
 41109  1  0  0  0
 41 48  1  0  0  0
 42 43  1  0  0  0
 42 66  1  0  0  0
 42110  1  0  0  0
 42111  1  0  0  0
 43 44  1  0  0  0
 44112  1  0  0  0
 45 46  2  0  0  0
 45113  1  0  0  0
 46114  1  0  0  0
 47115  1  0  0  0
 47116  1  0  0  0
 48 56  1  0  0  0
 48 65  1  0  0  0
 48117  1  0  0  0
 49 50  1  0  0  0
 49 53  1  0  0  0
 49 64  1  0  0  0
 49118  1  0  0  0
 50 51  1  0  0  0
 50119  1  0  0  0
 50120  1  0  0  0
 51 52  1  0  0  0
 51121  1  0  0  0
 51122  1  0  0  0
 52123  1  0  0  0
 52124  1  0  0  0
 53 54  1  0  0  0
 54 55  2  0  0  0
 54125  1  0  0  0
 55 57  1  0  0  0
 55126  1  0  0  0
 56 69  2  0  0  0
 57 58  2  0  0  0
 57127  1  0  0  0
 58128  1  0  0  0
 59 60  1  0  0  0
 59 61  1  0  0  0
 59 62  1  0  0  0
 60129  1  0  0  0
 60130  1  0  0  0
 60131  1  0  0  0
 61132  1  0  0  0
 61133  1  0  0  0
 61134  1  0  0  0
 62135  1  0  0  0
 62136  1  0  0  0
 62137  1  0  0  0
 63 65  1  0  0  0
 63138  1  0  0  0
 63139  1  0  0  0
 63140  1  0  0  0
 64141  1  0  0  0
 65142  1  0  0  0
 68 76  1  0  0  0
 71 73  1  0  0  0
 71 77  2  0  0  0
 71 83  1  0  0  0
 72 77  1  0  0  0
 72 78  2  0  0  0
 72 79  1  0  0  0
 73 80  1  0  0  0
 73 81  2  0  0  0
 74 76  1  0  0  0
 74 80  1  0  0  0
 74 82  2  0  0  0
 75143  1  0  0  0
 75144  1  0  0  0
 75145  1  0  0  0
 75 76  1  0  0  0
 76146  1  0  0  0
 78 83  1  0  0  0
 79147  1  0  0  0
 80148  1  0  0  0
M  ISO  4   1 100  68 101  76 101  79 100
M  END
> <chiral flag>
0

> <version>
0

> <s_m_source_file>
/data/baiqing/PycharmProjects/Reinvent-master-3.2/result/LINK_invent/BTK/process_docking_weight1_custom_product_contain_oxygen_bond_distance_aromatic_linkinvent_7_9_3/rearranged_h_0183.sdf

> <i_m_source_file_index>
75

> <r_mmod_Potential_Energy-OPLS-2005>
67.7435836791992

> <r_mmod_Stretch_Energy-OPLS-2005>
165.899398803711

> <r_mmod_Bend_Energy-OPLS-2005>
239.392486572266

> <r_mmod_Torsional_Energy-OPLS-2005>
221.674682617188

> <r_mmod_Improper_Torsional_Energy-OPLS-2005>
4.17681741714478

> <r_mmod_Van_der_Waal_Energy-OPLS-2005>
114.19083404541

> <r_mmod_Electrostatic_Energy-OPLS-2005>
-494.515960693359

> <r_mmod_Solvation_Energy-OPLS-2005>
-305.826782226562

> <b_mmod_Minimization_Converged-OPLS-2005>
0

> <r_mmod_RMS_Derivative-OPLS-2005>
0.98076605796814

$$$$
75
                    3D
 Structure written by MMmdl.
151159  0  0  1  0            999 V2000
  -30.5980  -14.7382   20.4351 C   0  0  0  0  0  0
  -30.4290  -12.4411   19.4867 C   0  0  0  0  0  0
  -29.5151  -12.5077   18.2419 C   0  0  0  0  0  0
  -28.0366  -12.3393   18.6453 C   0  0  0  0  0  0
  -27.6432  -13.2319   19.8551 C   0  0  2  0  0  0
  -28.6833  -13.1547   20.9929 C   0  0  0  0  0  0
  -25.2513  -13.8202   20.5716 C   0  0  0  0  0  0
  -24.1795  -13.0447   20.9221 C   0  0  0  0  0  0
  -24.6383  -11.6921   20.8736 C   0  0  0  0  0  0
  -23.9058  -10.4301   21.0400 C   0  0  0  0  0  0
  -24.3610   -9.4219   21.9170 C   0  0  0  0  0  0
  -23.6294   -8.2249   22.0737 C   0  0  0  0  0  0
  -22.4279   -8.0280   21.3533 C   0  0  0  0  0  0
  -21.9913   -9.0255   20.4637 C   0  0  0  0  0  0
  -22.7236  -10.2143   20.3046 C   0  0  0  0  0  0
  -21.6855   -6.0744   22.5281 C   0  0  0  0  0  0
  -21.4020   -6.5635   23.8215 C   0  0  0  0  0  0
  -21.3653   -5.6784   24.9167 C   0  0  0  0  0  0
  -21.6056   -4.3050   24.7212 C   0  0  0  0  0  0
  -21.8813   -3.8146   23.4331 C   0  0  0  0  0  0
  -21.9190   -4.6968   22.3390 C   0  0  0  0  0  0
  -22.7821  -13.5247   21.1877 C   0  0  0  0  0  0
  -22.1663   -4.2154   21.0962 F   0  0  0  0  0  0
  -21.5625   -3.4531   25.7723 F   0  0  0  0  0  0
  -29.9874  -13.5032   20.4195 N   0  0  0  0  0  0
  -26.2929  -12.9410   20.3302 N   0  0  0  0  0  0
  -25.9308  -11.6553   20.5750 N   0  0  0  0  0  0
  -22.0433  -12.8254   22.0411 N   0  0  0  0  0  0
  -25.4254  -15.1924   20.4135 N   0  0  0  0  0  0
  -31.7876  -14.8258   20.1128 O   0  0  0  0  0  0
  -21.6640   -6.8882   21.4242 O   0  0  0  0  0  0
  -22.3520  -14.5559   20.6719 O   0  0  0  0  0  0
  -24.6342  -31.8559   23.1998 C   0  0  0  0  0  0
  -25.9174  -32.4742   23.8334 C   0  0  1  0  0  0
  -27.2002  -27.2469   20.1207 C   0  0  0  0  0  0
  -25.5985  -33.8550   24.2261 N   0  0  0  0  0  0
  -23.4295  -30.4841   21.5426 C   0  0  2  0  0  0
  -24.8697  -28.9334   20.1071 C   0  0  0  0  0  0
  -22.7500  -29.4642   22.4883 C   0  0  0  0  0  0
  -18.0300  -28.1389   22.8464 C   0  0  0  0  0  0
  -24.1502  -36.7284   23.2633 C   0  0  0  0  0  0
  -25.9787  -30.7598   21.3854 C   0  0  0  0  0  0
  -26.0444  -29.3848   20.7221 C   0  0  0  0  0  0
  -27.2124  -28.5530   20.7222 C   0  0  0  0  0  0
  -26.0081  -26.8855   19.4508 C   0  0  0  0  0  0
  -24.8567  -27.6906   19.4627 C   0  0  0  0  0  0
  -23.6473  -29.8263   20.1569 C   0  0  0  0  0  0
  -25.4123  -36.3063   24.0320 C   0  0  1  0  0  0
  -20.5904  -28.3731   23.1221 C   0  0  2  0  0  0
  -20.6801  -26.9443   22.5383 C   0  0  0  0  0  0
  -19.5782  -26.6379   21.5188 C   0  0  0  0  0  0
  -18.1954  -26.7929   22.1597 C   0  0  0  0  0  0
  -19.1556  -28.8870   23.2843 C   0  0  0  0  0  0
  -18.9480  -30.1464   23.8865 C   0  0  0  0  0  0
  -17.6481  -30.6586   24.0557 C   0  0  0  0  0  0
  -25.9072  -34.9431   23.5082 C   0  0  0  0  0  0
  -16.5368  -29.9079   23.6332 C   0  0  0  0  0  0
  -16.7286  -28.6503   23.0341 C   0  0  0  0  0  0
  -26.4525  -31.6570   25.0740 C   0  0  0  0  0  0
  -25.3741  -31.3735   26.1461 C   0  0  0  0  0  0
  -27.0382  -30.2972   24.6264 C   0  0  0  0  0  0
  -27.6069  -32.4319   25.7521 C   0  0  0  0  0  0
  -27.5583  -37.1800   24.8456 C   0  0  0  0  0  0
  -21.4215  -29.3083   22.3607 N   0  0  0  0  0  0
  -26.4287  -37.3768   23.9405 N   0  0  0  0  0  0
  -24.6999  -31.0522   22.0980 N   0  0  0  0  0  0
  -23.4185  -28.8175   23.2985 O   0  0  0  0  0  0
  -28.2619  -26.3101   20.2083 O   0  0  0  0  0  0
  -26.5620  -34.8907   22.4639 O   0  0  0  0  0  0
  -23.5493  -32.1386   23.7287 O   0  0  0  0  0  0
  -30.3974  -17.2532   18.6997 C   0  0  0  0  0  0
  -30.4783  -18.4599   17.9924 C   0  0  0  0  0  0
  -30.0739  -19.6675   18.5828 C   0  0  0  0  0  0
  -29.9123  -17.2219   20.0199 C   0  0  0  0  0  0
  -29.5359  -19.6675   19.8939 C   0  0  0  0  0  0
  -28.6927  -22.1521   19.8738 C   0  0  0  0  0  0
  -27.9542  -24.8458   19.9801 C   0  0  0  0  0  0
  -28.8283  -23.6017   20.5646 C   0  0  1  0  0  0
  -29.4776  -18.4365   20.5745 N   0  0  0  0  0  0
  -29.1936  -20.9981   20.4703 N   0  0  0  0  0  0
  -29.8209  -15.8748   20.6449 N   0  0  0  0  0  0
  -28.0524  -22.0846   18.8203 O   0  0  0  0  0  0
  -28.5046  -23.4589   21.9413 O   0  0  0  0  0  0
  -30.9657  -18.4553   16.7274 F   0  0  0  0  0  0
  -30.2575  -20.8154   17.8813 F   0  0  0  0  0  0
  -31.4736  -12.5541   19.1906 H   0  0  0  0  0  0
  -30.3611  -11.4626   19.9647 H   0  0  0  0  0  0
  -29.8041  -11.7386   17.5241 H   0  0  0  0  0  0
  -29.6527  -13.4624   17.7328 H   0  0  0  0  0  0
  -27.8795  -11.2908   18.8990 H   0  0  0  0  0  0
  -27.3868  -12.5466   17.7931 H   0  0  0  0  0  0
  -27.6431  -14.2570   19.4824 H   0  0  0  0  0  0
  -28.7111  -12.1541   21.4279 H   0  0  0  0  0  0
  -28.4207  -13.8303   21.8068 H   0  0  0  0  0  0
  -25.2743   -9.5733   22.4751 H   0  0  0  0  0  0
  -24.0016   -7.4654   22.7455 H   0  0  0  0  0  0
  -21.0836   -8.8778   19.8935 H   0  0  0  0  0  0
  -22.3676  -10.9684   19.6161 H   0  0  0  0  0  0
  -21.2017   -7.6144   23.9737 H   0  0  0  0  0  0
  -21.1486   -6.0493   25.9080 H   0  0  0  0  0  0
  -22.0597   -2.7612   23.2816 H   0  0  0  0  0  0
  -22.4026  -11.9922   22.4845 H   0  0  0  0  0  0
  -21.1047  -13.1308   22.2562 H   0  0  0  0  0  0
  -24.6661  -15.8537   20.5362 H   0  0  0  0  0  0
  -26.2761  -15.6274   20.0822 H   0  0  0  0  0  0
  -26.7239  -32.5376   23.1066 H   0  0  0  0  0  0
  -25.0188  -33.9685   25.0444 H   0  0  0  0  0  0
  -22.7282  -31.3105   21.3995 H   0  0  0  0  0  0
  -23.3760  -35.9621   23.3275 H   0  0  0  0  0  0
  -24.3604  -36.8922   22.2053 H   0  0  0  0  0  0
  -23.7253  -37.6477   23.6668 H   0  0  0  0  0  0
  -26.1308  -31.5222   20.6208 H   0  0  0  0  0  0
  -26.8517  -30.7968   22.0260 H   0  0  0  0  0  0
  -28.1039  -28.8885   21.2325 H   0  0  0  0  0  0
  -25.9240  -25.9496   18.9196 H   0  0  0  0  0  0
  -23.9599  -27.3395   18.9685 H   0  0  0  0  0  0
  -23.7823  -30.6066   19.4069 H   0  0  0  0  0  0
  -22.7612  -29.2717   19.8439 H   0  0  0  0  0  0
  -25.1305  -36.1902   25.0809 H   0  0  0  0  0  0
  -21.0004  -28.3330   24.1341 H   0  0  0  0  0  0
  -20.5703  -26.2355   23.3604 H   0  0  0  0  0  0
  -21.6671  -26.7478   22.1186 H   0  0  0  0  0  0
  -19.6961  -25.6282   21.1247 H   0  0  0  0  0  0
  -19.6706  -27.3163   20.6693 H   0  0  0  0  0  0
  -17.4230  -26.6653   21.3997 H   0  0  0  0  0  0
  -18.0373  -26.0071   22.9000 H   0  0  0  0  0  0
  -19.7962  -30.7289   24.2205 H   0  0  0  0  0  0
  -17.5043  -31.6262   24.5177 H   0  0  0  0  0  0
  -15.5371  -30.2979   23.7680 H   0  0  0  0  0  0
  -15.8684  -28.0826   22.7050 H   0  0  0  0  0  0
  -24.5917  -30.7075   25.7802 H   0  0  0  0  0  0
  -24.8938  -32.2913   26.4864 H   0  0  0  0  0  0
  -25.8069  -30.8936   27.0245 H   0  0  0  0  0  0
  -26.2980  -29.6695   24.1287 H   0  0  0  0  0  0
  -27.4027  -29.7266   25.4813 H   0  0  0  0  0  0
  -27.8878  -30.4210   23.9544 H   0  0  0  0  0  0
  -27.2661  -33.3615   26.2077 H   0  0  0  0  0  0
  -28.3897  -32.6868   25.0373 H   0  0  0  0  0  0
  -28.0711  -31.8456   26.5454 H   0  0  0  0  0  0
  -28.2581  -38.0118   24.7534 H   0  0  0  0  0  0
  -28.1101  -36.2650   24.6248 H   0  0  0  0  0  0
  -27.2311  -37.1411   25.8861 H   0  0  0  0  0  0
  -20.9394  -29.8810   21.6821 H   0  0  0  0  0  0
  -26.0162  -38.2838   24.1406 H   0  0  0  0  0  0
  -30.7204  -16.3537   18.1952 H   0  0  0  0  0  0
  -26.9355  -24.6473   20.3178 H   0  0  0  0  0  0
  -27.9254  -24.7348   18.8954 H   0  0  0  0  0  0
  -29.8817  -23.8717   20.4852 H   0  0  0  0  0  0
  -29.4428  -21.1258   21.4394 H   0  0  0  0  0  0
  -28.9536  -15.6989   21.1270 H   0  0  0  0  0  0
  -28.5378  -24.3285   22.3264 H   0  0  0  0  0  0
  1 25  1  0  0  0
  1 30  2  0  0  0
  1 81  1  0  0  0
  2  3  1  0  0  0
  2 25  1  0  0  0
  2 86  1  0  0  0
  2 87  1  0  0  0
  3  4  1  0  0  0
  3 88  1  0  0  0
  3 89  1  0  0  0
  4  5  1  0  0  0
  4 90  1  0  0  0
  4 91  1  0  0  0
  5  6  1  0  0  0
  5 26  1  0  0  0
  5 92  1  0  0  0
  6 25  1  0  0  0
  6 93  1  0  0  0
  6 94  1  0  0  0
  7  8  2  0  0  0
  7 26  1  0  0  0
  7 29  1  0  0  0
  8  9  1  0  0  0
  8 22  1  0  0  0
  9 10  1  0  0  0
  9 27  2  0  0  0
 10 11  2  0  0  0
 10 15  1  0  0  0
 11 12  1  0  0  0
 11 95  1  0  0  0
 12 13  2  0  0  0
 12 96  1  0  0  0
 13 14  1  0  0  0
 13 31  1  0  0  0
 14 15  2  0  0  0
 14 97  1  0  0  0
 15 98  1  0  0  0
 16 17  2  0  0  0
 16 21  1  0  0  0
 16 31  1  0  0  0
 17 18  1  0  0  0
 17 99  1  0  0  0
 18 19  2  0  0  0
 18100  1  0  0  0
 19 20  1  0  0  0
 19 24  1  0  0  0
 20 21  2  0  0  0
 20101  1  0  0  0
 21 23  1  0  0  0
 22 28  1  0  0  0
 22 32  2  0  0  0
 26 27  1  0  0  0
 28102  1  0  0  0
 28103  1  0  0  0
 29104  1  0  0  0
 29105  1  0  0  0
 33 34  1  0  0  0
 33 66  1  0  0  0
 33 70  2  0  0  0
 34 36  1  0  0  0
 34 59  1  0  0  0
 34106  1  0  0  0
 35 44  2  0  0  0
 35 45  1  0  0  0
 35 68  1  0  0  0
 36 56  1  0  0  0
 36107  1  0  0  0
 37 39  1  0  0  0
 37 47  1  0  0  0
 37 66  1  0  0  0
 37108  1  0  0  0
 38 43  2  0  0  0
 38 46  1  0  0  0
 38 47  1  0  0  0
 39 64  1  0  0  0
 39 67  2  0  0  0
 40 52  1  0  0  0
 40 53  2  0  0  0
 40 58  1  0  0  0
 41109  1  0  0  0
 41110  1  0  0  0
 41111  1  0  0  0
 41 48  1  0  0  0
 42 43  1  0  0  0
 42 66  1  0  0  0
 42112  1  0  0  0
 42113  1  0  0  0
 43 44  1  0  0  0
 44114  1  0  0  0
 45 46  2  0  0  0
 45115  1  0  0  0
 46116  1  0  0  0
 47117  1  0  0  0
 47118  1  0  0  0
 48 56  1  0  0  0
 48 65  1  0  0  0
 48119  1  0  0  0
 49 50  1  0  0  0
 49 53  1  0  0  0
 49 64  1  0  0  0
 49120  1  0  0  0
 50 51  1  0  0  0
 50121  1  0  0  0
 50122  1  0  0  0
 51 52  1  0  0  0
 51123  1  0  0  0
 51124  1  0  0  0
 52125  1  0  0  0
 52126  1  0  0  0
 53 54  1  0  0  0
 54 55  2  0  0  0
 54127  1  0  0  0
 55 57  1  0  0  0
 55128  1  0  0  0
 56 69  2  0  0  0
 57 58  2  0  0  0
 57129  1  0  0  0
 58130  1  0  0  0
 59 60  1  0  0  0
 59 61  1  0  0  0
 59 62  1  0  0  0
 60131  1  0  0  0
 60132  1  0  0  0
 60133  1  0  0  0
 61134  1  0  0  0
 61135  1  0  0  0
 61136  1  0  0  0
 62137  1  0  0  0
 62138  1  0  0  0
 62139  1  0  0  0
 63 65  1  0  0  0
 63140  1  0  0  0
 63141  1  0  0  0
 63142  1  0  0  0
 64143  1  0  0  0
 65144  1  0  0  0
 68 77  1  0  0  0
 71 72  2  0  0  0
 71 74  1  0  0  0
 71145  1  0  0  0
 72 73  1  0  0  0
 72 84  1  0  0  0
 73 75  2  0  0  0
 73 85  1  0  0  0
 74 79  2  0  0  0
 74 81  1  0  0  0
 75 79  1  0  0  0
 75 80  1  0  0  0
 76 78  1  0  0  0
 76 80  1  0  0  0
 76 82  2  0  0  0
 77 78  1  0  0  0
 77146  1  0  0  0
 77147  1  0  0  0
 78 83  1  0  0  0
 78148  1  0  0  0
 80149  1  0  0  0
 81150  1  0  0  0
 83151  1  0  0  0
M  ISO  4   1 100  68 101  77 101  81 100
M  END
> <chiral flag>
0

> <version>
0

> <s_m_source_file>
/data/baiqing/PycharmProjects/Reinvent-master-3.2/result/LINK_invent/BTK/process_docking_weight1_custom_product_contain_oxygen_bond_distance_aromatic_linkinvent_7_9_3/rearranged_h_0183.sdf

> <i_m_source_file_index>
76

> <r_mmod_Potential_Energy-OPLS-2005>
30.5417766571045

> <r_mmod_Stretch_Energy-OPLS-2005>
134.520126342773

> <r_mmod_Bend_Energy-OPLS-2005>
158.8642578125

> <r_mmod_Torsional_Energy-OPLS-2005>
261.087036132812

> <r_mmod_Improper_Torsional_Energy-OPLS-2005>
5.68204259872437

> <r_mmod_Van_der_Waal_Energy-OPLS-2005>
154.253646850586

> <r_mmod_Electrostatic_Energy-OPLS-2005>
-533.41748046875

> <r_mmod_Solvation_Energy-OPLS-2005>
-243.16926574707

> <b_mmod_Minimization_Converged-OPLS-2005>
0

> <r_mmod_RMS_Derivative-OPLS-2005>
2.79119801521301

$$$$
76
                    3D
 Structure written by MMmdl.
151159  0  0  1  0            999 V2000
  -30.6086  -14.6684   20.4976 C   0  0  0  0  0  0
  -30.4369  -12.4070   19.4636 C   0  0  0  0  0  0
  -29.5072  -12.4997   18.2312 C   0  0  0  0  0  0
  -28.0321  -12.3330   18.6431 C   0  0  0  0  0  0
  -27.6513  -13.2158   19.8606 C   0  0  2  0  0  0
  -28.6927  -13.0864   20.9946 C   0  0  0  0  0  0
  -25.2556  -13.8174   20.5675 C   0  0  0  0  0  0
  -24.1825  -13.0440   20.9186 C   0  0  0  0  0  0
  -24.6399  -11.6911   20.8740 C   0  0  0  0  0  0
  -23.9070  -10.4290   21.0415 C   0  0  0  0  0  0
  -24.3625   -9.4204   21.9193 C   0  0  0  0  0  0
  -23.6293   -8.2237   22.0768 C   0  0  0  0  0  0
  -22.4275   -8.0283   21.3553 C   0  0  0  0  0  0
  -21.9913   -9.0252   20.4649 C   0  0  0  0  0  0
  -22.7244  -10.2131   20.3056 C   0  0  0  0  0  0
  -21.6851   -6.0743   22.5277 C   0  0  0  0  0  0
  -21.4012   -6.5656   23.8214 C   0  0  0  0  0  0
  -21.3651   -5.6806   24.9173 C   0  0  0  0  0  0
  -21.6041   -4.3064   24.7220 C   0  0  0  0  0  0
  -21.8819   -3.8159   23.4344 C   0  0  0  0  0  0
  -21.9193   -4.6975   22.3394 C   0  0  0  0  0  0
  -22.7846  -13.5230   21.1829 C   0  0  0  0  0  0
  -22.1666   -4.2164   21.0971 F   0  0  0  0  0  0
  -21.5618   -3.4546   25.7733 F   0  0  0  0  0  0
  -30.0075  -13.4358   20.4355 N   0  0  0  0  0  0
  -26.2974  -12.9351   20.3303 N   0  0  0  0  0  0
  -25.9328  -11.6506   20.5756 N   0  0  0  0  0  0
  -22.0490  -12.8222   22.0390 N   0  0  0  0  0  0
  -25.4294  -15.1888   20.4081 N   0  0  0  0  0  0
  -31.7691  -14.8209   20.1009 O   0  0  0  0  0  0
  -21.6635   -6.8882   21.4242 O   0  0  0  0  0  0
  -22.3532  -14.5540   20.6682 O   0  0  0  0  0  0
  -24.6265  -31.8573   23.2023 C   0  0  0  0  0  0
  -25.9106  -32.4774   23.8342 C   0  0  1  0  0  0
  -27.2151  -27.2900   20.1230 C   0  0  0  0  0  0
  -25.5916  -33.8578   24.2256 N   0  0  0  0  0  0
  -23.4216  -30.4823   21.5428 C   0  0  2  0  0  0
  -24.8678  -28.9398   20.1072 C   0  0  0  0  0  0
  -22.7463  -29.4611   22.4895 C   0  0  0  0  0  0
  -18.0272  -28.1395   22.8476 C   0  0  0  0  0  0
  -24.1481  -36.7285   23.2640 C   0  0  0  0  0  0
  -25.9653  -30.7780   21.3791 C   0  0  0  0  0  0
  -26.0347  -29.4035   20.7223 C   0  0  0  0  0  0
  -27.2074  -28.5887   20.7269 C   0  0  0  0  0  0
  -26.0279  -26.8977   19.4609 C   0  0  0  0  0  0
  -24.8678  -27.6940   19.4673 C   0  0  0  0  0  0
  -23.6367  -29.8208   20.1566 C   0  0  0  0  0  0
  -25.4108  -36.3081   24.0323 C   0  0  1  0  0  0
  -20.5878  -28.3693   23.1264 C   0  0  2  0  0  0
  -20.6773  -26.9411   22.5404 C   0  0  0  0  0  0
  -19.5756  -26.6382   21.5210 C   0  0  0  0  0  0
  -18.1926  -26.7936   22.1604 C   0  0  0  0  0  0
  -19.1528  -28.8857   23.2872 C   0  0  0  0  0  0
  -18.9467  -30.1457   23.8905 C   0  0  0  0  0  0
  -17.6475  -30.6604   24.0575 C   0  0  0  0  0  0
  -25.9045  -34.9448   23.5090 C   0  0  0  0  0  0
  -16.5351  -29.9107   23.6344 C   0  0  0  0  0  0
  -16.7260  -28.6515   23.0365 C   0  0  0  0  0  0
  -26.4494  -31.6596   25.0724 C   0  0  0  0  0  0
  -25.3708  -31.3746   26.1442 C   0  0  0  0  0  0
  -27.0352  -30.3015   24.6195 C   0  0  0  0  0  0
  -27.6044  -32.4342   25.7497 C   0  0  0  0  0  0
  -27.5576  -37.1796   24.8460 C   0  0  0  0  0  0
  -21.4175  -29.3044   22.3645 N   0  0  0  0  0  0
  -26.4284  -37.3779   23.9409 N   0  0  0  0  0  0
  -24.6897  -31.0561   22.0985 N   0  0  0  0  0  0
  -23.4182  -28.8128   23.2961 O   0  0  0  0  0  0
  -28.3285  -26.4292   20.2115 O   0  0  0  0  0  0
  -26.5633  -34.8929   22.4664 O   0  0  0  0  0  0
  -23.5421  -32.1372   23.7337 O   0  0  0  0  0  0
  -29.6750  -19.7423   20.7962 C   0  0  0  0  0  0
  -30.5275  -19.2212   19.8334 C   0  0  0  0  0  0
  -29.9029  -17.1707   20.7291 C   0  0  0  0  0  0
  -28.8082  -23.8990   20.7654 C   0  0  0  0  0  0
  -29.1291  -22.4222   20.2385 C   0  0  0  0  0  0
  -28.2475  -24.9999   19.7747 C   0  0  0  0  0  0
  -29.4202  -21.2189   21.2718 C   0  0  2  0  0  0
  -30.6471  -17.8088   19.8088 N   0  0  0  0  0  0
  -31.2889  -19.9622   18.9295 N   0  0  0  0  0  0
  -29.8156  -15.7161   20.9031 N   0  0  0  0  0  0
  -28.9609  -24.1922   21.9559 O   0  0  0  0  0  0
  -30.5108  -21.6039   22.0944 O   0  0  0  0  0  0
  -28.9310  -18.3614   21.6446 S   0  0  0  0  0  0
  -31.4780  -12.5334   19.1592 H   0  0  0  0  0  0
  -30.3805  -11.4145   19.9143 H   0  0  0  0  0  0
  -29.7758  -11.7379   17.4983 H   0  0  0  0  0  0
  -29.6449  -13.4621   17.7362 H   0  0  0  0  0  0
  -27.8749  -11.2823   18.8882 H   0  0  0  0  0  0
  -27.3748  -12.5473   17.8005 H   0  0  0  0  0  0
  -27.6651  -14.2477   19.5089 H   0  0  0  0  0  0
  -28.7085  -12.0675   21.3834 H   0  0  0  0  0  0
  -28.4277  -13.7209   21.8410 H   0  0  0  0  0  0
  -25.2770   -9.5678   22.4773 H   0  0  0  0  0  0
  -23.9997   -7.4632   22.7501 H   0  0  0  0  0  0
  -21.0839   -8.8764   19.8959 H   0  0  0  0  0  0
  -22.3702  -10.9666   19.6161 H   0  0  0  0  0  0
  -21.2016   -7.6169   23.9720 H   0  0  0  0  0  0
  -21.1465   -6.0537   25.9075 H   0  0  0  0  0  0
  -22.0607   -2.7626   23.2832 H   0  0  0  0  0  0
  -22.4096  -11.9860   22.4739 H   0  0  0  0  0  0
  -21.1113  -13.1254   22.2615 H   0  0  0  0  0  0
  -24.6625  -15.8428   20.5132 H   0  0  0  0  0  0
  -26.2730  -15.6226   20.0567 H   0  0  0  0  0  0
  -26.7158  -32.5416   23.1070 H   0  0  0  0  0  0
  -25.0052  -33.9716   25.0396 H   0  0  0  0  0  0
  -22.7187  -31.3042   21.3986 H   0  0  0  0  0  0
  -23.3761  -35.9605   23.3299 H   0  0  0  0  0  0
  -24.3573  -36.8917   22.2058 H   0  0  0  0  0  0
  -23.7222  -37.6476   23.6667 H   0  0  0  0  0  0
  -26.1016  -31.5366   20.6067 H   0  0  0  0  0  0
  -26.8472  -30.8255   22.0074 H   0  0  0  0  0  0
  -28.0977  -28.9359   21.2310 H   0  0  0  0  0  0
  -25.9411  -25.9641   18.9297 H   0  0  0  0  0  0
  -23.9763  -27.3364   18.9707 H   0  0  0  0  0  0
  -23.7547  -30.5981   19.4002 H   0  0  0  0  0  0
  -22.7589  -29.2489   19.8529 H   0  0  0  0  0  0
  -25.1290  -36.1930   25.0816 H   0  0  0  0  0  0
  -20.9969  -28.3274   24.1384 H   0  0  0  0  0  0
  -20.5683  -26.2290   23.3593 H   0  0  0  0  0  0
  -21.6639  -26.7446   22.1193 H   0  0  0  0  0  0
  -19.6935  -25.6301   21.1226 H   0  0  0  0  0  0
  -19.6736  -27.3200   20.6755 H   0  0  0  0  0  0
  -17.4200  -26.6671   21.4007 H   0  0  0  0  0  0
  -18.0346  -26.0092   22.9011 H   0  0  0  0  0  0
  -19.7948  -30.7253   24.2282 H   0  0  0  0  0  0
  -17.5038  -31.6298   24.5161 H   0  0  0  0  0  0
  -15.5361  -30.3032   23.7685 H   0  0  0  0  0  0
  -15.8637  -28.0853   22.7107 H   0  0  0  0  0  0
  -24.5881  -30.7099   25.7753 H   0  0  0  0  0  0
  -24.8913  -32.2937   26.4836 H   0  0  0  0  0  0
  -25.8018  -30.8934   27.0232 H   0  0  0  0  0  0
  -26.2938  -29.6759   24.1212 H   0  0  0  0  0  0
  -27.4051  -29.7283   25.4707 H   0  0  0  0  0  0
  -27.8804  -30.4320   23.9426 H   0  0  0  0  0  0
  -27.2644  -33.3659   26.2037 H   0  0  0  0  0  0
  -28.3876  -32.6876   25.0330 H   0  0  0  0  0  0
  -28.0686  -31.8486   26.5449 H   0  0  0  0  0  0
  -28.2575  -38.0112   24.7530 H   0  0  0  0  0  0
  -28.1091  -36.2643   24.6257 H   0  0  0  0  0  0
  -27.2298  -37.1398   25.8864 H   0  0  0  0  0  0
  -20.9322  -29.8773   21.6882 H   0  0  0  0  0  0
  -26.0166  -38.2845   24.1454 H   0  0  0  0  0  0
  -29.9755  -22.5129   19.5587 H   0  0  0  0  0  0
  -28.2853  -22.1285   19.6132 H   0  0  0  0  0  0
  -27.2256  -24.6800   19.6007 H   0  0  0  0  0  0
  -28.7659  -24.9021   18.8208 H   0  0  0  0  0  0
  -28.5513  -21.1877   21.9327 H   0  0  0  0  0  0
  -31.4285  -20.9530   19.0897 H   0  0  0  0  0  0
  -32.0361  -19.5098   18.4155 H   0  0  0  0  0  0
  -28.9608  -15.4114   21.3397 H   0  0  0  0  0  0
  -30.4568  -21.0988   22.9007 H   0  0  0  0  0  0
  1 25  1  0  0  0
  1 30  2  0  0  0
  1 80  1  0  0  0
  2  3  1  0  0  0
  2 25  1  0  0  0
  2 84  1  0  0  0
  2 85  1  0  0  0
  3  4  1  0  0  0
  3 86  1  0  0  0
  3 87  1  0  0  0
  4  5  1  0  0  0
  4 88  1  0  0  0
  4 89  1  0  0  0
  5  6  1  0  0  0
  5 26  1  0  0  0
  5 90  1  0  0  0
  6 25  1  0  0  0
  6 91  1  0  0  0
  6 92  1  0  0  0
  7  8  2  0  0  0
  7 26  1  0  0  0
  7 29  1  0  0  0
  8  9  1  0  0  0
  8 22  1  0  0  0
  9 10  1  0  0  0
  9 27  2  0  0  0
 10 11  2  0  0  0
 10 15  1  0  0  0
 11 12  1  0  0  0
 11 93  1  0  0  0
 12 13  2  0  0  0
 12 94  1  0  0  0
 13 14  1  0  0  0
 13 31  1  0  0  0
 14 15  2  0  0  0
 14 95  1  0  0  0
 15 96  1  0  0  0
 16 17  2  0  0  0
 16 21  1  0  0  0
 16 31  1  0  0  0
 17 18  1  0  0  0
 17 97  1  0  0  0
 18 19  2  0  0  0
 18 98  1  0  0  0
 19 20  1  0  0  0
 19 24  1  0  0  0
 20 21  2  0  0  0
 20 99  1  0  0  0
 21 23  1  0  0  0
 22 28  1  0  0  0
 22 32  2  0  0  0
 26 27  1  0  0  0
 28100  1  0  0  0
 28101  1  0  0  0
 29102  1  0  0  0
 29103  1  0  0  0
 33 34  1  0  0  0
 33 66  1  0  0  0
 33 70  2  0  0  0
 34 36  1  0  0  0
 34 59  1  0  0  0
 34104  1  0  0  0
 35 44  2  0  0  0
 35 45  1  0  0  0
 35 68  1  0  0  0
 36 56  1  0  0  0
 36105  1  0  0  0
 37 39  1  0  0  0
 37 47  1  0  0  0
 37 66  1  0  0  0
 37106  1  0  0  0
 38 43  2  0  0  0
 38 46  1  0  0  0
 38 47  1  0  0  0
 39 64  1  0  0  0
 39 67  2  0  0  0
 40 52  1  0  0  0
 40 53  2  0  0  0
 40 58  1  0  0  0
 41107  1  0  0  0
 41108  1  0  0  0
 41109  1  0  0  0
 41 48  1  0  0  0
 42 43  1  0  0  0
 42 66  1  0  0  0
 42110  1  0  0  0
 42111  1  0  0  0
 43 44  1  0  0  0
 44112  1  0  0  0
 45 46  2  0  0  0
 45113  1  0  0  0
 46114  1  0  0  0
 47115  1  0  0  0
 47116  1  0  0  0
 48 56  1  0  0  0
 48 65  1  0  0  0
 48117  1  0  0  0
 49 50  1  0  0  0
 49 53  1  0  0  0
 49 64  1  0  0  0
 49118  1  0  0  0
 50 51  1  0  0  0
 50119  1  0  0  0
 50120  1  0  0  0
 51 52  1  0  0  0
 51121  1  0  0  0
 51122  1  0  0  0
 52123  1  0  0  0
 52124  1  0  0  0
 53 54  1  0  0  0
 54 55  2  0  0  0
 54125  1  0  0  0
 55 57  1  0  0  0
 55126  1  0  0  0
 56 69  2  0  0  0
 57 58  2  0  0  0
 57127  1  0  0  0
 58128  1  0  0  0
 59 60  1  0  0  0
 59 61  1  0  0  0
 59 62  1  0  0  0
 60129  1  0  0  0
 60130  1  0  0  0
 60131  1  0  0  0
 61132  1  0  0  0
 61133  1  0  0  0
 61134  1  0  0  0
 62135  1  0  0  0
 62136  1  0  0  0
 62137  1  0  0  0
 63 65  1  0  0  0
 63138  1  0  0  0
 63139  1  0  0  0
 63140  1  0  0  0
 64141  1  0  0  0
 65142  1  0  0  0
 68 76  1  0  0  0
 71 72  2  0  0  0
 71 77  1  0  0  0
 71 83  1  0  0  0
 72 78  1  0  0  0
 72 79  1  0  0  0
 73 78  2  0  0  0
 73 80  1  0  0  0
 73 83  1  0  0  0
 74 75  1  0  0  0
 74 76  1  0  0  0
 74 81  2  0  0  0
 75 77  1  0  0  0
 75143  1  0  0  0
 75144  1  0  0  0
 76145  1  0  0  0
 76146  1  0  0  0
 77 82  1  0  0  0
 77147  1  0  0  0
 79148  1  0  0  0
 79149  1  0  0  0
 80150  1  0  0  0
 82151  1  0  0  0
M  ISO  4   1 100  68 101  76 101  80 100
M  END
> <chiral flag>
0

> <version>
0

> <s_m_source_file>
/data/baiqing/PycharmProjects/Reinvent-master-3.2/result/LINK_invent/BTK/process_docking_weight1_custom_product_contain_oxygen_bond_distance_aromatic_linkinvent_7_9_3/rearranged_h_0183.sdf

> <i_m_source_file_index>
77

> <r_mmod_Potential_Energy-OPLS-2005>
-3.42364311218262

> <r_mmod_Stretch_Energy-OPLS-2005>
93.4117965698242

> <r_mmod_Bend_Energy-OPLS-2005>
161.515365600586

> <r_mmod_Torsional_Energy-OPLS-2005>
198.751708984375

> <r_mmod_Improper_Torsional_Energy-OPLS-2005>
5.7880072593689

> <r_mmod_Van_der_Waal_Energy-OPLS-2005>
119.529327392578

> <r_mmod_Electrostatic_Energy-OPLS-2005>
-361.018463134766

> <r_mmod_Solvation_Energy-OPLS-2005>
-282.206329345703

> <b_mmod_Minimization_Converged-OPLS-2005>
0

> <r_mmod_RMS_Derivative-OPLS-2005>
2.4550507068634

$$$$
77
                    3D
 Structure written by MMmdl.
150158  0  0  1  0            999 V2000
  -30.6346  -14.7194   20.4724 C   0  0  0  0  0  0
  -30.4277  -12.4438   19.4668 C   0  0  0  0  0  0
  -29.5061  -12.5025   18.2302 C   0  0  0  0  0  0
  -28.0318  -12.3333   18.6449 C   0  0  0  0  0  0
  -27.6407  -13.2321   19.8490 C   0  0  2  0  0  0
  -28.6864  -13.1655   20.9827 C   0  0  0  0  0  0
  -25.2510  -13.8206   20.5699 C   0  0  0  0  0  0
  -24.1803  -13.0443   20.9203 C   0  0  0  0  0  0
  -24.6396  -11.6920   20.8743 C   0  0  0  0  0  0
  -23.9070  -10.4296   21.0402 C   0  0  0  0  0  0
  -24.3622   -9.4209   21.9179 C   0  0  0  0  0  0
  -23.6295   -8.2245   22.0756 C   0  0  0  0  0  0
  -22.4275   -8.0285   21.3545 C   0  0  0  0  0  0
  -21.9911   -9.0257   20.4643 C   0  0  0  0  0  0
  -22.7242  -10.2137   20.3048 C   0  0  0  0  0  0
  -21.6856   -6.0731   22.5275 C   0  0  0  0  0  0
  -21.4014   -6.5636   23.8206 C   0  0  0  0  0  0
  -21.3659   -5.6792   24.9171 C   0  0  0  0  0  0
  -21.6048   -4.3054   24.7223 C   0  0  0  0  0  0
  -21.8819   -3.8143   23.4343 C   0  0  0  0  0  0
  -21.9192   -4.6959   22.3400 C   0  0  0  0  0  0
  -22.7820  -13.5218   21.1864 C   0  0  0  0  0  0
  -22.1660   -4.2144   21.0976 F   0  0  0  0  0  0
  -21.5632   -3.4539   25.7735 F   0  0  0  0  0  0
  -29.9856  -13.5093   20.3948 N   0  0  0  0  0  0
  -26.2933  -12.9411   20.3281 N   0  0  0  0  0  0
  -25.9325  -11.6550   20.5752 N   0  0  0  0  0  0
  -22.0467  -12.8206   22.0421 N   0  0  0  0  0  0
  -25.4199  -15.1935   20.4132 N   0  0  0  0  0  0
  -31.8285  -14.7913   20.1702 O   0  0  0  0  0  0
  -21.6644   -6.8880   21.4237 O   0  0  0  0  0  0
  -22.3497  -14.5523   20.6715 O   0  0  0  0  0  0
  -24.6295  -31.8556   23.1984 C   0  0  0  0  0  0
  -25.9126  -32.4754   23.8330 C   0  0  1  0  0  0
  -27.2240  -27.2798   20.1316 C   0  0  0  0  0  0
  -25.5927  -33.8556   24.2255 N   0  0  0  0  0  0
  -23.4269  -30.4766   21.5404 C   0  0  2  0  0  0
  -24.8757  -28.9207   20.1150 C   0  0  0  0  0  0
  -22.7495  -29.4601   22.4912 C   0  0  0  0  0  0
  -18.0288  -28.1402   22.8479 C   0  0  0  0  0  0
  -24.1488  -36.7283   23.2640 C   0  0  0  0  0  0
  -25.9716  -30.7741   21.3756 C   0  0  0  0  0  0
  -26.0465  -29.3963   20.7212 C   0  0  0  0  0  0
  -27.2274  -28.5890   20.7158 C   0  0  0  0  0  0
  -26.0333  -26.8615   19.5049 C   0  0  0  0  0  0
  -24.8721  -27.6593   19.4976 C   0  0  0  0  0  0
  -23.6463  -29.8067   20.1583 C   0  0  0  0  0  0
  -25.4113  -36.3068   24.0327 C   0  0  1  0  0  0
  -20.5890  -28.3700   23.1278 C   0  0  2  0  0  0
  -20.6781  -26.9421   22.5412 C   0  0  0  0  0  0
  -19.5759  -26.6392   21.5217 C   0  0  0  0  0  0
  -18.1936  -26.7943   22.1621 C   0  0  0  0  0  0
  -19.1542  -28.8864   23.2874 C   0  0  0  0  0  0
  -18.9466  -30.1466   23.8889 C   0  0  0  0  0  0
  -17.6470  -30.6595   24.0563 C   0  0  0  0  0  0
  -25.9054  -34.9441   23.5089 C   0  0  0  0  0  0
  -16.5357  -29.9095   23.6337 C   0  0  0  0  0  0
  -16.7279  -28.6517   23.0348 C   0  0  0  0  0  0
  -26.4494  -31.6582   25.0718 C   0  0  0  0  0  0
  -25.3719  -31.3758   26.1443 C   0  0  0  0  0  0
  -27.0337  -30.2993   24.6210 C   0  0  0  0  0  0
  -27.6045  -32.4323   25.7495 C   0  0  0  0  0  0
  -27.5574  -37.1799   24.8465 C   0  0  0  0  0  0
  -21.4202  -29.3044   22.3663 N   0  0  0  0  0  0
  -26.4288  -37.3769   23.9410 N   0  0  0  0  0  0
  -24.6951  -31.0529   22.0949 N   0  0  0  0  0  0
  -23.4202  -28.8144   23.3006 O   0  0  0  0  0  0
  -28.3177  -26.3926   20.1215 O   0  0  0  0  0  0
  -26.5631  -34.8909   22.4663 O   0  0  0  0  0  0
  -23.5445  -32.1368   23.7281 O   0  0  0  0  0  0
  -29.3625  -19.1682   19.3424 C   0  0  0  0  0  0
  -29.7528  -18.6357   20.5619 C   0  0  0  0  0  0
  -29.0853  -21.1589   20.5345 C   0  0  0  0  0  0
  -28.6480  -23.7378   20.1053 C   0  0  0  0  0  0
  -28.9033  -25.2771   22.1711 C   0  0  0  0  0  0
  -30.4780  -17.2745   20.9084 C   0  0  0  0  0  0
  -28.1625  -25.0853   20.8370 C   0  0  1  0  0  0
  -29.0043  -20.5547   19.3343 N   0  0  0  0  0  0
  -28.7480  -22.5669   20.8392 N   0  0  0  0  0  0
  -29.9056  -15.8761   20.7053 N   0  0  0  0  0  0
  -28.9123  -23.7782   18.9001 O   0  0  0  0  0  0
  -29.5862  -19.9463   21.7649 S   0  0  0  0  0  0
  -31.4689  -12.5611   19.1618 H   0  0  0  0  0  0
  -30.3672  -11.4670   19.9497 H   0  0  0  0  0  0
  -29.7844  -11.7285   17.5134 H   0  0  0  0  0  0
  -29.6382  -13.4569   17.7174 H   0  0  0  0  0  0
  -27.8828  -11.2845   18.9050 H   0  0  0  0  0  0
  -27.3754  -12.5321   17.7971 H   0  0  0  0  0  0
  -27.6362  -14.2543   19.4700 H   0  0  0  0  0  0
  -28.7194  -12.1694   21.4270 H   0  0  0  0  0  0
  -28.4272  -13.8531   21.7896 H   0  0  0  0  0  0
  -25.2767   -9.5688   22.4751 H   0  0  0  0  0  0
  -24.0002   -7.4639   22.7481 H   0  0  0  0  0  0
  -21.0840   -8.8774   19.8949 H   0  0  0  0  0  0
  -22.3698  -10.9673   19.6156 H   0  0  0  0  0  0
  -21.2005   -7.6144   23.9708 H   0  0  0  0  0  0
  -21.1483   -6.0522   25.9075 H   0  0  0  0  0  0
  -22.0599   -2.7604   23.2845 H   0  0  0  0  0  0
  -22.4087  -11.9861   22.4793 H   0  0  0  0  0  0
  -21.1087  -13.1230   22.2635 H   0  0  0  0  0  0
  -24.6537  -15.8479   20.5310 H   0  0  0  0  0  0
  -26.2678  -15.6350   20.0810 H   0  0  0  0  0  0
  -26.7189  -32.5404   23.1072 H   0  0  0  0  0  0
  -25.0078  -33.9697   25.0397 H   0  0  0  0  0  0
  -22.7229  -31.2980   21.3910 H   0  0  0  0  0  0
  -23.3750  -35.9616   23.3310 H   0  0  0  0  0  0
  -24.3579  -36.8904   22.2053 H   0  0  0  0  0  0
  -23.7245  -37.6485   23.6664 H   0  0  0  0  0  0
  -26.1093  -31.5339   20.6048 H   0  0  0  0  0  0
  -26.8500  -30.8232   22.0081 H   0  0  0  0  0  0
  -28.1284  -28.9495   21.1909 H   0  0  0  0  0  0
  -25.9976  -25.8921   19.0280 H   0  0  0  0  0  0
  -23.9747  -27.2890   19.0214 H   0  0  0  0  0  0
  -23.7723  -30.5810   19.4005 H   0  0  0  0  0  0
  -22.7650  -29.2400   19.8517 H   0  0  0  0  0  0
  -25.1300  -36.1913   25.0822 H   0  0  0  0  0  0
  -20.9977  -28.3270   24.1399 H   0  0  0  0  0  0
  -20.5688  -26.2303   23.3608 H   0  0  0  0  0  0
  -21.6647  -26.7453   22.1196 H   0  0  0  0  0  0
  -19.6921  -25.6302   21.1244 H   0  0  0  0  0  0
  -19.6700  -27.3195   20.6745 H   0  0  0  0  0  0
  -17.4206  -26.6683   21.4023 H   0  0  0  0  0  0
  -18.0332  -26.0093   22.9021 H   0  0  0  0  0  0
  -19.7945  -30.7287   24.2247 H   0  0  0  0  0  0
  -17.5027  -31.6273   24.5170 H   0  0  0  0  0  0
  -15.5360  -30.3000   23.7678 H   0  0  0  0  0  0
  -15.8675  -28.0845   22.7069 H   0  0  0  0  0  0
  -24.5888  -30.7105   25.7792 H   0  0  0  0  0  0
  -24.8910  -32.2938   26.4830 H   0  0  0  0  0  0
  -25.8026  -30.8969   27.0244 H   0  0  0  0  0  0
  -26.2922  -29.6745   24.1214 H   0  0  0  0  0  0
  -27.3999  -29.7251   25.4732 H   0  0  0  0  0  0
  -27.8807  -30.4268   23.9468 H   0  0  0  0  0  0
  -27.2664  -33.3652   26.2020 H   0  0  0  0  0  0
  -28.3889  -32.6839   25.0343 H   0  0  0  0  0  0
  -28.0674  -31.8477   26.5457 H   0  0  0  0  0  0
  -28.2597  -38.0090   24.7504 H   0  0  0  0  0  0
  -28.1069  -36.2622   24.6305 H   0  0  0  0  0  0
  -27.2294  -37.1464   25.8869 H   0  0  0  0  0  0
  -20.9387  -29.8770   21.6871 H   0  0  0  0  0  0
  -26.0164  -38.2843   24.1411 H   0  0  0  0  0  0
  -29.3830  -18.6475   18.3947 H   0  0  0  0  0  0
  -28.7654  -24.4300   22.8428 H   0  0  0  0  0  0
  -28.5413  -26.1647   22.6905 H   0  0  0  0  0  0
  -29.9741  -25.4061   22.0097 H   0  0  0  0  0  0
  -30.7578  -17.3132   21.9620 H   0  0  0  0  0  0
  -31.4351  -17.3028   20.3856 H   0  0  0  0  0  0
  -27.1076  -24.9264   21.0660 H   0  0  0  0  0  0
  -28.5799  -22.7222   21.8228 H   0  0  0  0  0  0
  -28.9193  -15.7580   20.8802 H   0  0  0  0  0  0
  1 25  1  0  0  0
  1 30  2  0  0  0
  1 80  1  0  0  0
  2  3  1  0  0  0
  2 25  1  0  0  0
  2 83  1  0  0  0
  2 84  1  0  0  0
  3  4  1  0  0  0
  3 85  1  0  0  0
  3 86  1  0  0  0
  4  5  1  0  0  0
  4 87  1  0  0  0
  4 88  1  0  0  0
  5  6  1  0  0  0
  5 26  1  0  0  0
  5 89  1  0  0  0
  6 25  1  0  0  0
  6 90  1  0  0  0
  6 91  1  0  0  0
  7  8  2  0  0  0
  7 26  1  0  0  0
  7 29  1  0  0  0
  8  9  1  0  0  0
  8 22  1  0  0  0
  9 10  1  0  0  0
  9 27  2  0  0  0
 10 11  2  0  0  0
 10 15  1  0  0  0
 11 12  1  0  0  0
 11 92  1  0  0  0
 12 13  2  0  0  0
 12 93  1  0  0  0
 13 14  1  0  0  0
 13 31  1  0  0  0
 14 15  2  0  0  0
 14 94  1  0  0  0
 15 95  1  0  0  0
 16 17  2  0  0  0
 16 21  1  0  0  0
 16 31  1  0  0  0
 17 18  1  0  0  0
 17 96  1  0  0  0
 18 19  2  0  0  0
 18 97  1  0  0  0
 19 20  1  0  0  0
 19 24  1  0  0  0
 20 21  2  0  0  0
 20 98  1  0  0  0
 21 23  1  0  0  0
 22 28  1  0  0  0
 22 32  2  0  0  0
 26 27  1  0  0  0
 28 99  1  0  0  0
 28100  1  0  0  0
 29101  1  0  0  0
 29102  1  0  0  0
 33 34  1  0  0  0
 33 66  1  0  0  0
 33 70  2  0  0  0
 34 36  1  0  0  0
 34 59  1  0  0  0
 34103  1  0  0  0
 35 44  2  0  0  0
 35 45  1  0  0  0
 35 68  1  0  0  0
 36 56  1  0  0  0
 36104  1  0  0  0
 37 39  1  0  0  0
 37 47  1  0  0  0
 37 66  1  0  0  0
 37105  1  0  0  0
 38 43  2  0  0  0
 38 46  1  0  0  0
 38 47  1  0  0  0
 39 64  1  0  0  0
 39 67  2  0  0  0
 40 52  1  0  0  0
 40 53  2  0  0  0
 40 58  1  0  0  0
 41106  1  0  0  0
 41107  1  0  0  0
 41108  1  0  0  0
 41 48  1  0  0  0
 42 43  1  0  0  0
 42 66  1  0  0  0
 42109  1  0  0  0
 42110  1  0  0  0
 43 44  1  0  0  0
 44111  1  0  0  0
 45 46  2  0  0  0
 45112  1  0  0  0
 46113  1  0  0  0
 47114  1  0  0  0
 47115  1  0  0  0
 48 56  1  0  0  0
 48 65  1  0  0  0
 48116  1  0  0  0
 49 50  1  0  0  0
 49 53  1  0  0  0
 49 64  1  0  0  0
 49117  1  0  0  0
 50 51  1  0  0  0
 50118  1  0  0  0
 50119  1  0  0  0
 51 52  1  0  0  0
 51120  1  0  0  0
 51121  1  0  0  0
 52122  1  0  0  0
 52123  1  0  0  0
 53 54  1  0  0  0
 54 55  2  0  0  0
 54124  1  0  0  0
 55 57  1  0  0  0
 55125  1  0  0  0
 56 69  2  0  0  0
 57 58  2  0  0  0
 57126  1  0  0  0
 58127  1  0  0  0
 59 60  1  0  0  0
 59 61  1  0  0  0
 59 62  1  0  0  0
 60128  1  0  0  0
 60129  1  0  0  0
 60130  1  0  0  0
 61131  1  0  0  0
 61132  1  0  0  0
 61133  1  0  0  0
 62134  1  0  0  0
 62135  1  0  0  0
 62136  1  0  0  0
 63 65  1  0  0  0
 63137  1  0  0  0
 63138  1  0  0  0
 63139  1  0  0  0
 64140  1  0  0  0
 65141  1  0  0  0
 68 77  1  0  0  0
 71 72  2  0  0  0
 71 78  1  0  0  0
 71142  1  0  0  0
 72 76  1  0  0  0
 72 82  1  0  0  0
 73 78  2  0  0  0
 73 79  1  0  0  0
 73 82  1  0  0  0
 74 77  1  0  0  0
 74 79  1  0  0  0
 74 81  2  0  0  0
 75143  1  0  0  0
 75144  1  0  0  0
 75145  1  0  0  0
 75 77  1  0  0  0
 76 80  1  0  0  0
 76146  1  0  0  0
 76147  1  0  0  0
 77148  1  0  0  0
 79149  1  0  0  0
 80150  1  0  0  0
M  ISO  4   1 100  68 101  77 101  80 100
M  END
> <chiral flag>
0

> <version>
0

> <s_m_source_file>
/data/baiqing/PycharmProjects/Reinvent-master-3.2/result/LINK_invent/BTK/process_docking_weight1_custom_product_contain_oxygen_bond_distance_aromatic_linkinvent_7_9_3/rearranged_h_0183.sdf

> <i_m_source_file_index>
78

> <r_mmod_Potential_Energy-OPLS-2005>
23.0016574859619

> <r_mmod_Stretch_Energy-OPLS-2005>
105.019172668457

> <r_mmod_Bend_Energy-OPLS-2005>
172.702011108398

> <r_mmod_Torsional_Energy-OPLS-2005>
237.640914916992

> <r_mmod_Improper_Torsional_Energy-OPLS-2005>
5.19096374511719

> <r_mmod_Van_der_Waal_Energy-OPLS-2005>
114.116310119629

> <r_mmod_Electrostatic_Energy-OPLS-2005>
-426.018371582031

> <r_mmod_Solvation_Energy-OPLS-2005>
-260.577392578125

> <b_mmod_Minimization_Converged-OPLS-2005>
0

> <r_mmod_RMS_Derivative-OPLS-2005>
1.21463596820831

$$$$
78
                    3D
 Structure written by MMmdl.
153161  0  0  1  0            999 V2000
  -30.6917  -14.5349   20.5951 C   0  0  0  0  0  0
  -30.4366  -12.3417   19.4778 C   0  0  0  0  0  0
  -29.5225  -12.5227   18.2439 C   0  0  0  0  0  0
  -28.0334  -12.3901   18.6324 C   0  0  0  0  0  0
  -27.6680  -13.2267   19.8901 C   0  0  2  0  0  0
  -28.6968  -13.0330   21.0239 C   0  0  0  0  0  0
  -25.2552  -13.8189   20.5605 C   0  0  0  0  0  0
  -24.1813  -13.0437   20.9173 C   0  0  0  0  0  0
  -24.6426  -11.6913   20.8796 C   0  0  0  0  0  0
  -23.9112  -10.4290   21.0433 C   0  0  0  0  0  0
  -24.3625   -9.4176   21.9200 C   0  0  0  0  0  0
  -23.6278   -8.2220   22.0751 C   0  0  0  0  0  0
  -22.4256   -8.0294   21.3540 C   0  0  0  0  0  0
  -21.9919   -9.0278   20.4628 C   0  0  0  0  0  0
  -22.7283  -10.2144   20.3064 C   0  0  0  0  0  0
  -21.6835   -6.0727   22.5281 C   0  0  0  0  0  0
  -21.3999   -6.5618   23.8226 C   0  0  0  0  0  0
  -21.3645   -5.6770   24.9190 C   0  0  0  0  0  0
  -21.6057   -4.3043   24.7222 C   0  0  0  0  0  0
  -21.8799   -3.8117   23.4345 C   0  0  0  0  0  0
  -21.9177   -4.6944   22.3409 C   0  0  0  0  0  0
  -22.7791  -13.5182   21.1820 C   0  0  0  0  0  0
  -22.1641   -4.2120   21.1003 F   0  0  0  0  0  0
  -21.5622   -3.4548   25.7749 F   0  0  0  0  0  0
  -30.0346  -13.3382   20.4965 N   0  0  0  0  0  0
  -26.3048  -12.9420   20.3387 N   0  0  0  0  0  0
  -25.9383  -11.6573   20.5817 N   0  0  0  0  0  0
  -22.0421  -12.8243   22.0432 N   0  0  0  0  0  0
  -25.4242  -15.1901   20.3883 N   0  0  0  0  0  0
  -31.7790  -14.7245   20.0507 O   0  0  0  0  0  0
  -21.6612   -6.8875   21.4244 O   0  0  0  0  0  0
  -22.3497  -14.5498   20.6674 O   0  0  0  0  0  0
  -24.6164  -31.8709   23.2065 C   0  0  0  0  0  0
  -25.9032  -32.4808   23.8370 C   0  0  1  0  0  0
  -27.2284  -27.4225   20.1265 C   0  0  0  0  0  0
  -25.5902  -33.8594   24.2291 N   0  0  0  0  0  0
  -23.4029  -30.4882   21.5517 C   0  0  2  0  0  0
  -24.8549  -28.9629   20.1020 C   0  0  0  0  0  0
  -22.7398  -29.4644   22.5035 C   0  0  0  0  0  0
  -18.0319  -28.1332   22.8517 C   0  0  0  0  0  0
  -24.1494  -36.7305   23.2629 C   0  0  0  0  0  0
  -25.9305  -30.8428   21.3502 C   0  0  0  0  0  0
  -26.0116  -29.4727   20.7053 C   0  0  0  0  0  0
  -27.2114  -28.7142   20.7030 C   0  0  0  0  0  0
  -26.0629  -26.9388   19.5000 C   0  0  0  0  0  0
  -24.8816  -27.7022   19.4810 C   0  0  0  0  0  0
  -23.6076  -29.8206   20.1620 C   0  0  0  0  0  0
  -25.4083  -36.3059   24.0312 C   0  0  1  0  0  0
  -20.5904  -28.3607   23.1387 C   0  0  2  0  0  0
  -20.6844  -26.9370   22.5391 C   0  0  0  0  0  0
  -19.5816  -26.6451   21.5146 C   0  0  0  0  0  0
  -18.1994  -26.7940   22.1568 C   0  0  0  0  0  0
  -19.1571  -28.8813   23.2894 C   0  0  0  0  0  0
  -18.9460  -30.1400   23.8973 C   0  0  0  0  0  0
  -17.6453  -30.6523   24.0532 C   0  0  0  0  0  0
  -25.9012  -34.9431   23.5074 C   0  0  0  0  0  0
  -16.5356  -29.9035   23.6323 C   0  0  0  0  0  0
  -16.7297  -28.6462   23.0370 C   0  0  0  0  0  0
  -26.4476  -31.6583   25.0681 C   0  0  0  0  0  0
  -25.3757  -31.3742   26.1435 C   0  0  0  0  0  0
  -27.0292  -30.3022   24.6064 C   0  0  0  0  0  0
  -27.6049  -32.4288   25.7481 C   0  0  0  0  0  0
  -27.5549  -37.1787   24.8450 C   0  0  0  0  0  0
  -21.4113  -29.3003   22.3782 N   0  0  0  0  0  0
  -26.4256  -37.3743   23.9400 N   0  0  0  0  0  0
  -24.6681  -31.0820   22.0940 N   0  0  0  0  0  0
  -23.4225  -28.8212   23.3050 O   0  0  0  0  0  0
  -28.3580  -26.6291   20.1679 O   0  0  0  0  0  0
  -26.5592  -34.8910   22.4655 O   0  0  0  0  0  0
  -23.5345  -32.1442   23.7453 O   0  0  0  0  0  0
  -29.0527  -18.6373   19.0255 C   0  0  0  0  0  0
  -29.1291  -19.0317   20.3559 C   0  0  0  0  0  0
  -29.6858  -16.7796   20.5813 C   0  0  0  0  0  0
  -28.3231  -21.4666   20.4113 C   0  0  0  0  0  0
  -28.7916  -19.4071   17.7625 C   0  0  0  0  0  0
  -28.5111  -24.1114   20.2529 C   0  0  0  0  0  0
  -28.2279  -25.4488   20.9920 C   0  0  0  0  0  0
  -28.5043  -22.8292   21.1578 C   0  0  2  0  0  0
  -29.4742  -17.9521   21.2177 N   0  0  0  0  0  0
  -29.0079  -20.3811   20.8618 N   0  0  0  0  0  0
  -30.0749  -15.5608   21.2293 N   0  0  0  0  0  0
  -27.5368  -21.4183   19.4665 O   0  0  0  0  0  0
  -29.6226  -22.7962   21.8889 F   0  0  0  0  0  0
  -29.3933  -16.9174   18.8478 S   0  0  0  0  0  0
  -31.4823  -12.4480   19.1818 H   0  0  0  0  0  0
  -30.3478  -11.3287   19.8796 H   0  0  0  0  0  0
  -29.7724  -11.7907   17.4702 H   0  0  0  0  0  0
  -29.6947  -13.5079   17.7960 H   0  0  0  0  0  0
  -27.8271  -11.3342   18.8228 H   0  0  0  0  0  0
  -27.4050  -12.6770   17.7883 H   0  0  0  0  0  0
  -27.7108  -14.2759   19.5915 H   0  0  0  0  0  0
  -28.6701  -12.0069   21.3940 H   0  0  0  0  0  0
  -28.4501  -13.6622   21.8820 H   0  0  0  0  0  0
  -25.2733   -9.5625   22.4846 H   0  0  0  0  0  0
  -23.9925   -7.4597   22.7502 H   0  0  0  0  0  0
  -21.0808   -8.8859   19.8972 H   0  0  0  0  0  0
  -22.3734  -10.9721   19.6207 H   0  0  0  0  0  0
  -21.2015   -7.6132   23.9741 H   0  0  0  0  0  0
  -21.1473   -6.0498   25.9112 H   0  0  0  0  0  0
  -22.0595   -2.7584   23.2877 H   0  0  0  0  0  0
  -22.3960  -11.9888   22.4864 H   0  0  0  0  0  0
  -21.1104  -13.1407   22.2655 H   0  0  0  0  0  0
  -24.6554  -15.8493   20.4746 H   0  0  0  0  0  0
  -26.2790  -15.6259   20.0686 H   0  0  0  0  0  0
  -26.7095  -32.5552   23.1153 H   0  0  0  0  0  0
  -25.0080  -33.9779   25.0437 H   0  0  0  0  0  0
  -22.6862  -31.2989   21.4101 H   0  0  0  0  0  0
  -23.3734  -35.9678   23.3303 H   0  0  0  0  0  0
  -24.3618  -36.8939   22.2063 H   0  0  0  0  0  0
  -23.7313  -37.6515   23.6664 H   0  0  0  0  0  0
  -26.0295  -31.6112   20.5791 H   0  0  0  0  0  0
  -26.8208  -30.9121   21.9624 H   0  0  0  0  0  0
  -28.1028  -29.1038   21.1715 H   0  0  0  0  0  0
  -26.0680  -25.9614   19.0368 H   0  0  0  0  0  0
  -23.9952  -27.3065   19.0046 H   0  0  0  0  0  0
  -23.6862  -30.5940   19.3949 H   0  0  0  0  0  0
  -22.7403  -29.2200   19.8772 H   0  0  0  0  0  0
  -25.1280  -36.1884   25.0802 H   0  0  0  0  0  0
  -20.9986  -28.3161   24.1544 H   0  0  0  0  0  0
  -20.5923  -26.2129   23.3516 H   0  0  0  0  0  0
  -21.6655  -26.7548   22.1020 H   0  0  0  0  0  0
  -19.6997  -25.6419   21.0988 H   0  0  0  0  0  0
  -19.6735  -27.3475   20.6843 H   0  0  0  0  0  0
  -18.0322  -25.9989   22.8842 H   0  0  0  0  0  0
  -17.4263  -26.6865   21.3935 H   0  0  0  0  0  0
  -19.7934  -30.7208   24.2436 H   0  0  0  0  0  0
  -17.4999  -31.6261   24.5086 H   0  0  0  0  0  0
  -15.5340  -30.2930   23.7633 H   0  0  0  0  0  0
  -15.8719  -28.0741   22.7133 H   0  0  0  0  0  0
  -24.5911  -30.7093   25.7824 H   0  0  0  0  0  0
  -24.8943  -32.2911   26.4818 H   0  0  0  0  0  0
  -25.8077  -30.8977   27.0234 H   0  0  0  0  0  0
  -26.2845  -29.6834   24.1052 H   0  0  0  0  0  0
  -27.4013  -29.7194   25.4501 H   0  0  0  0  0  0
  -27.8689  -30.4345   23.9248 H   0  0  0  0  0  0
  -27.2655  -33.3579   26.2087 H   0  0  0  0  0  0
  -28.3877  -32.6886   25.0332 H   0  0  0  0  0  0
  -28.0716  -31.8399   26.5405 H   0  0  0  0  0  0
  -28.2533  -38.0101   24.7441 H   0  0  0  0  0  0
  -28.1066  -36.2623   24.6298 H   0  0  0  0  0  0
  -27.2285  -37.1461   25.8858 H   0  0  0  0  0  0
  -20.9229  -29.8818   21.7108 H   0  0  0  0  0  0
  -26.0148  -38.2817   24.1385 H   0  0  0  0  0  0
  -27.7257  -19.5256   17.5706 H   0  0  0  0  0  0
  -29.2036  -18.8881   16.8966 H   0  0  0  0  0  0
  -29.2529  -20.3895   17.7813 H   0  0  0  0  0  0
  -29.4835  -24.1896   19.7706 H   0  0  0  0  0  0
  -27.7900  -24.0037   19.4450 H   0  0  0  0  0  0
  -28.9349  -25.5612   21.8140 H   0  0  0  0  0  0
  -27.2475  -25.3929   21.4707 H   0  0  0  0  0  0
  -27.6882  -22.9087   21.8797 H   0  0  0  0  0  0
  -29.4923  -20.5531   21.7310 H   0  0  0  0  0  0
  -29.6328  -15.3661   22.1229 H   0  0  0  0  0  0
  1 25  1  0  0  0
  1 30  2  0  0  0
  1 81  1  0  0  0
  2  3  1  0  0  0
  2 25  1  0  0  0
  2 85  1  0  0  0
  2 86  1  0  0  0
  3  4  1  0  0  0
  3 87  1  0  0  0
  3 88  1  0  0  0
  4  5  1  0  0  0
  4 89  1  0  0  0
  4 90  1  0  0  0
  5  6  1  0  0  0
  5 26  1  0  0  0
  5 91  1  0  0  0
  6 25  1  0  0  0
  6 92  1  0  0  0
  6 93  1  0  0  0
  7  8  2  0  0  0
  7 26  1  0  0  0
  7 29  1  0  0  0
  8  9  1  0  0  0
  8 22  1  0  0  0
  9 10  1  0  0  0
  9 27  2  0  0  0
 10 11  2  0  0  0
 10 15  1  0  0  0
 11 12  1  0  0  0
 11 94  1  0  0  0
 12 13  2  0  0  0
 12 95  1  0  0  0
 13 14  1  0  0  0
 13 31  1  0  0  0
 14 15  2  0  0  0
 14 96  1  0  0  0
 15 97  1  0  0  0
 16 17  2  0  0  0
 16 21  1  0  0  0
 16 31  1  0  0  0
 17 18  1  0  0  0
 17 98  1  0  0  0
 18 19  2  0  0  0
 18 99  1  0  0  0
 19 20  1  0  0  0
 19 24  1  0  0  0
 20 21  2  0  0  0
 20100  1  0  0  0
 21 23  1  0  0  0
 22 28  1  0  0  0
 22 32  2  0  0  0
 26 27  1  0  0  0
 28101  1  0  0  0
 28102  1  0  0  0
 29103  1  0  0  0
 29104  1  0  0  0
 33 34  1  0  0  0
 33 66  1  0  0  0
 33 70  2  0  0  0
 34 36  1  0  0  0
 34 59  1  0  0  0
 34105  1  0  0  0
 35 44  2  0  0  0
 35 45  1  0  0  0
 35 68  1  0  0  0
 36 56  1  0  0  0
 36106  1  0  0  0
 37 39  1  0  0  0
 37 47  1  0  0  0
 37 66  1  0  0  0
 37107  1  0  0  0
 38 43  2  0  0  0
 38 46  1  0  0  0
 38 47  1  0  0  0
 39 64  1  0  0  0
 39 67  2  0  0  0
 40 52  1  0  0  0
 40 53  2  0  0  0
 40 58  1  0  0  0
 41108  1  0  0  0
 41109  1  0  0  0
 41110  1  0  0  0
 41 48  1  0  0  0
 42 43  1  0  0  0
 42 66  1  0  0  0
 42111  1  0  0  0
 42112  1  0  0  0
 43 44  1  0  0  0
 44113  1  0  0  0
 45 46  2  0  0  0
 45114  1  0  0  0
 46115  1  0  0  0
 47116  1  0  0  0
 47117  1  0  0  0
 48 56  1  0  0  0
 48 65  1  0  0  0
 48118  1  0  0  0
 49 50  1  0  0  0
 49 53  1  0  0  0
 49 64  1  0  0  0
 49119  1  0  0  0
 50 51  1  0  0  0
 50120  1  0  0  0
 50121  1  0  0  0
 51 52  1  0  0  0
 51122  1  0  0  0
 51123  1  0  0  0
 52124  1  0  0  0
 52125  1  0  0  0
 53 54  1  0  0  0
 54 55  2  0  0  0
 54126  1  0  0  0
 55 57  1  0  0  0
 55127  1  0  0  0
 56 69  2  0  0  0
 57 58  2  0  0  0
 57128  1  0  0  0
 58129  1  0  0  0
 59 60  1  0  0  0
 59 61  1  0  0  0
 59 62  1  0  0  0
 60130  1  0  0  0
 60131  1  0  0  0
 60132  1  0  0  0
 61133  1  0  0  0
 61134  1  0  0  0
 61135  1  0  0  0
 62136  1  0  0  0
 62137  1  0  0  0
 62138  1  0  0  0
 63 65  1  0  0  0
 63139  1  0  0  0
 63140  1  0  0  0
 63141  1  0  0  0
 64142  1  0  0  0
 65143  1  0  0  0
 68 77  1  0  0  0
 71 72  2  0  0  0
 71 75  1  0  0  0
 71 84  1  0  0  0
 72 79  1  0  0  0
 72 80  1  0  0  0
 73 79  2  0  0  0
 73 81  1  0  0  0
 73 84  1  0  0  0
 74 78  1  0  0  0
 74 80  1  0  0  0
 74 82  2  0  0  0
 75144  1  0  0  0
 75145  1  0  0  0
 75146  1  0  0  0
 76 77  1  0  0  0
 76 78  1  0  0  0
 76147  1  0  0  0
 76148  1  0  0  0
 77149  1  0  0  0
 77150  1  0  0  0
 78 83  1  0  0  0
 78151  1  0  0  0
 80152  1  0  0  0
 81153  1  0  0  0
M  ISO  4   1 100  68 101  77 101  81 100
M  END
> <chiral flag>
0

> <version>
0

> <s_m_source_file>
/data/baiqing/PycharmProjects/Reinvent-master-3.2/result/LINK_invent/BTK/process_docking_weight1_custom_product_contain_oxygen_bond_distance_aromatic_linkinvent_7_9_3/rearranged_h_0183.sdf

> <i_m_source_file_index>
79

> <r_mmod_Potential_Energy-OPLS-2005>
-120.706535339355

> <r_mmod_Stretch_Energy-OPLS-2005>
48.7871131896973

> <r_mmod_Bend_Energy-OPLS-2005>
115.665985107422

> <r_mmod_Torsional_Energy-OPLS-2005>
277.906219482422

> <r_mmod_Improper_Torsional_Energy-OPLS-2005>
4.28404569625854

> <r_mmod_Van_der_Waal_Energy-OPLS-2005>
121.107902526855

> <r_mmod_Electrostatic_Energy-OPLS-2005>
-487.983764648438

> <r_mmod_Solvation_Energy-OPLS-2005>
-220.9951171875

> <b_mmod_Minimization_Converged-OPLS-2005>
0

> <r_mmod_RMS_Derivative-OPLS-2005>
11.1352968215942

$$$$
79
                    3D
 Structure written by MMmdl.
157165  0  0  1  0            999 V2000
  -30.6677  -14.5265   20.5255 C   0  0  0  0  0  0
  -30.4257  -12.3235   19.4402 C   0  0  0  0  0  0
  -29.5010  -12.5022   18.2168 C   0  0  0  0  0  0
  -28.0210  -12.3603   18.6244 C   0  0  0  0  0  0
  -27.6583  -13.2097   19.8716 C   0  0  2  0  0  0
  -28.6994  -13.0150   20.9979 C   0  0  0  0  0  0
  -25.2583  -13.8165   20.5684 C   0  0  0  0  0  0
  -24.1833  -13.0440   20.9183 C   0  0  0  0  0  0
  -24.6388  -11.6905   20.8731 C   0  0  0  0  0  0
  -23.9055  -10.4293   21.0405 C   0  0  0  0  0  0
  -24.3610   -9.4208   21.9182 C   0  0  0  0  0  0
  -23.6287   -8.2243   22.0754 C   0  0  0  0  0  0
  -22.4270   -8.0280   21.3545 C   0  0  0  0  0  0
  -21.9902   -9.0253   20.4649 C   0  0  0  0  0  0
  -22.7228  -10.2133   20.3057 C   0  0  0  0  0  0
  -21.6851   -6.0733   22.5278 C   0  0  0  0  0  0
  -21.4015   -6.5640   23.8212 C   0  0  0  0  0  0
  -21.3658   -5.6792   24.9176 C   0  0  0  0  0  0
  -21.6044   -4.3054   24.7225 C   0  0  0  0  0  0
  -21.8818   -3.8145   23.4347 C   0  0  0  0  0  0
  -21.9193   -4.6962   22.3405 C   0  0  0  0  0  0
  -22.7860  -13.5240   21.1841 C   0  0  0  0  0  0
  -22.1661   -4.2148   21.0981 F   0  0  0  0  0  0
  -21.5627   -3.4540   25.7738 F   0  0  0  0  0  0
  -30.0288  -13.3236   20.4465 N   0  0  0  0  0  0
  -26.3007  -12.9335   20.3344 N   0  0  0  0  0  0
  -25.9317  -11.6497   20.5755 N   0  0  0  0  0  0
  -22.0499  -12.8240   22.0402 N   0  0  0  0  0  0
  -25.4323  -15.1885   20.4106 N   0  0  0  0  0  0
  -31.8254  -14.6725   20.1173 O   0  0  0  0  0  0
  -21.6636   -6.8877   21.4240 O   0  0  0  0  0  0
  -22.3554  -14.5553   20.6695 O   0  0  0  0  0  0
  -24.6170  -31.8655   23.2069 C   0  0  0  0  0  0
  -25.9051  -32.4815   23.8383 C   0  0  1  0  0  0
  -27.2376  -27.4083   20.1113 C   0  0  0  0  0  0
  -25.5892  -33.8610   24.2313 N   0  0  0  0  0  0
  -23.4078  -30.4864   21.5474 C   0  0  2  0  0  0
  -24.8568  -28.9462   20.1165 C   0  0  0  0  0  0
  -22.7430  -29.4639   22.4975 C   0  0  0  0  0  0
  -18.0269  -28.1385   22.8487 C   0  0  0  0  0  0
  -24.1488  -36.7313   23.2640 C   0  0  0  0  0  0
  -25.9381  -30.8258   21.3608 C   0  0  0  0  0  0
  -26.0184  -29.4571   20.7101 C   0  0  0  0  0  0
  -27.2147  -28.6995   20.6944 C   0  0  0  0  0  0
  -26.0590  -26.9164   19.5111 C   0  0  0  0  0  0
  -24.8734  -27.6774   19.5103 C   0  0  0  0  0  0
  -23.6196  -29.8151   20.1634 C   0  0  0  0  0  0
  -25.4111  -36.3107   24.0334 C   0  0  1  0  0  0
  -20.5860  -28.3673   23.1313 C   0  0  2  0  0  0
  -20.6758  -26.9407   22.5419 C   0  0  0  0  0  0
  -19.5740  -26.6389   21.5213 C   0  0  0  0  0  0
  -18.1917  -26.7928   22.1622 C   0  0  0  0  0  0
  -19.1519  -28.8847   23.2892 C   0  0  0  0  0  0
  -18.9445  -30.1447   23.8910 C   0  0  0  0  0  0
  -17.6448  -30.6587   24.0566 C   0  0  0  0  0  0
  -25.9036  -34.9468   23.5125 C   0  0  0  0  0  0
  -16.5339  -29.9091   23.6323 C   0  0  0  0  0  0
  -16.7256  -28.6507   23.0347 C   0  0  0  0  0  0
  -26.4477  -31.6593   25.0712 C   0  0  0  0  0  0
  -25.3744  -31.3695   26.1460 C   0  0  0  0  0  0
  -27.0309  -30.3035   24.6089 C   0  0  0  0  0  0
  -27.6051  -32.4311   25.7475 C   0  0  0  0  0  0
  -27.5575  -37.1820   24.8471 C   0  0  0  0  0  0
  -21.4152  -29.3033   22.3721 N   0  0  0  0  0  0
  -26.4302  -37.3785   23.9398 N   0  0  0  0  0  0
  -24.6729  -31.0739   22.0974 N   0  0  0  0  0  0
  -23.4191  -28.8178   23.3026 O   0  0  0  0  0  0
  -28.3944  -26.6520   20.1120 O   0  0  0  0  0  0
  -26.5599  -34.8920   22.4688 O   0  0  0  0  0  0
  -23.5351  -32.1408   23.7450 O   0  0  0  0  0  0
  -28.5859  -19.0096   20.2964 C   0  0  0  0  0  0
  -28.7754  -17.7216   20.8630 C   0  0  0  0  0  0
  -29.5087  -19.4868   19.3437 C   0  0  0  0  0  0
  -29.8863  -16.9245   20.4915 C   0  0  0  0  0  0
  -30.6476  -18.6807   19.1238 C   0  0  0  0  0  0
  -29.2331  -20.6573   18.4633 C   0  0  0  0  0  0
  -28.6952  -24.2183   19.6145 C   0  0  0  0  0  0
  -30.1833  -22.5671   20.9303 C   0  0  0  0  0  0
  -28.2873  -25.3036   20.6433 C   0  0  0  0  0  0
  -28.9094  -22.7324   20.0697 C   0  0  2  0  0  0
  -30.8270  -17.4538   19.6748 N   0  0  0  0  0  0
  -29.9029  -15.5618   20.9549 N   0  0  0  0  0  0
  -28.9880  -21.9472   18.8199 N   0  0  0  0  0  0
  -29.1837  -20.4378   17.1358 N   0  3  0  0  0  0
  -28.8302  -24.5381   18.4264 O   0  0  0  0  0  0
  -31.5889  -19.1039   18.2480 F   0  0  0  0  0  0
  -31.4715  -12.4195   19.1427 H   0  0  0  0  0  0
  -30.3252  -11.3184   19.8521 H   0  0  0  0  0  0
  -29.7474  -11.7690   17.4477 H   0  0  0  0  0  0
  -29.6659  -13.4828   17.7675 H   0  0  0  0  0  0
  -27.8352  -11.3052   18.8290 H   0  0  0  0  0  0
  -27.3723  -12.6235   17.7882 H   0  0  0  0  0  0
  -27.6935  -14.2533   19.5590 H   0  0  0  0  0  0
  -28.6820  -11.9845   21.3568 H   0  0  0  0  0  0
  -28.4581  -13.6302   21.8667 H   0  0  0  0  0  0
  -25.2755   -9.5685   22.4753 H   0  0  0  0  0  0
  -23.9997   -7.4637   22.7472 H   0  0  0  0  0  0
  -21.0833   -8.8769   19.8959 H   0  0  0  0  0  0
  -22.3682  -10.9670   19.6167 H   0  0  0  0  0  0
  -21.2008   -7.6148   23.9716 H   0  0  0  0  0  0
  -21.1482   -6.0522   25.9077 H   0  0  0  0  0  0
  -22.0599   -2.7608   23.2847 H   0  0  0  0  0  0
  -22.4104  -11.9892   22.4785 H   0  0  0  0  0  0
  -21.1125  -13.1278   22.2616 H   0  0  0  0  0  0
  -24.6647  -15.8424   20.5160 H   0  0  0  0  0  0
  -26.2781  -15.6246   20.0665 H   0  0  0  0  0  0
  -26.7125  -32.5533   23.1149 H   0  0  0  0  0  0
  -25.0049  -33.9772   25.0462 H   0  0  0  0  0  0
  -22.6964  -31.3024   21.4043 H   0  0  0  0  0  0
  -23.3740  -35.9659   23.3327 H   0  0  0  0  0  0
  -24.3573  -36.8908   22.2050 H   0  0  0  0  0  0
  -23.7260  -37.6531   23.6643 H   0  0  0  0  0  0
  -26.0486  -31.5897   20.5900 H   0  0  0  0  0  0
  -26.8260  -30.8851   21.9784 H   0  0  0  0  0  0
  -28.1143  -29.0929   21.1464 H   0  0  0  0  0  0
  -26.0557  -25.9452   19.0376 H   0  0  0  0  0  0
  -23.9822  -27.2806   19.0439 H   0  0  0  0  0  0
  -23.7325  -30.5878   19.4024 H   0  0  0  0  0  0
  -22.7441  -29.2350   19.8665 H   0  0  0  0  0  0
  -25.1295  -36.1972   25.0829 H   0  0  0  0  0  0
  -20.9945  -28.3242   24.1435 H   0  0  0  0  0  0
  -20.5662  -26.2283   23.3609 H   0  0  0  0  0  0
  -21.6630  -26.7449   22.1214 H   0  0  0  0  0  0
  -19.6905  -25.6304   21.1232 H   0  0  0  0  0  0
  -19.6681  -27.3208   20.6751 H   0  0  0  0  0  0
  -17.4188  -26.6667   21.4021 H   0  0  0  0  0  0
  -18.0318  -26.0070   22.9021 H   0  0  0  0  0  0
  -19.7921  -30.7253   24.2296 H   0  0  0  0  0  0
  -17.5005  -31.6269   24.5168 H   0  0  0  0  0  0
  -15.5342  -30.3003   23.7642 H   0  0  0  0  0  0
  -15.8648  -28.0834   22.7063 H   0  0  0  0  0  0
  -24.5911  -30.7051   25.7789 H   0  0  0  0  0  0
  -24.8942  -32.2853   26.4920 H   0  0  0  0  0  0
  -25.8099  -30.8848   27.0208 H   0  0  0  0  0  0
  -26.2855  -29.6794   24.1147 H   0  0  0  0  0  0
  -27.4089  -29.7269   25.4542 H   0  0  0  0  0  0
  -27.8684  -30.4350   23.9232 H   0  0  0  0  0  0
  -27.2668  -33.3595   26.2086 H   0  0  0  0  0  0
  -28.3845  -32.6899   25.0296 H   0  0  0  0  0  0
  -28.0740  -31.8417   26.5365 H   0  0  0  0  0  0
  -28.2627  -38.0080   24.7469 H   0  0  0  0  0  0
  -28.1037  -36.2613   24.6365 H   0  0  0  0  0  0
  -27.2283  -37.1553   25.8872 H   0  0  0  0  0  0
  -20.9324  -29.8762   21.6942 H   0  0  0  0  0  0
  -26.0192  -38.2872   24.1365 H   0  0  0  0  0  0
  -27.6936  -19.5759   20.5182 H   0  0  0  0  0  0
  -28.0203  -17.3346   21.5341 H   0  0  0  0  0  0
  -29.9564  -22.0215   21.8473 H   0  0  0  0  0  0
  -30.6209  -23.5199   21.2296 H   0  0  0  0  0  0
  -30.9629  -22.0127   20.4074 H   0  0  0  0  0  0
  -27.2794  -25.0937   21.0036 H   0  0  0  0  0  0
  -28.9485  -25.2263   21.5057 H   0  0  0  0  0  0
  -28.0350  -22.4064   20.6336 H   0  0  0  0  0  0
  -29.0616  -15.2696   21.4229 H   0  0  0  0  0  0
  -28.8684  -22.6133   18.0647 H   0  0  0  0  0  0
  -29.2833  -19.5101   16.7516 H   0  0  0  0  0  0
  -28.9865  -21.1676   16.4655 H   0  0  0  0  0  0
  1 25  1  0  0  0
  1 30  2  0  0  0
  1 82  1  0  0  0
  2  3  1  0  0  0
  2 25  1  0  0  0
  2 87  1  0  0  0
  2 88  1  0  0  0
  3  4  1  0  0  0
  3 89  1  0  0  0
  3 90  1  0  0  0
  4  5  1  0  0  0
  4 91  1  0  0  0
  4 92  1  0  0  0
  5  6  1  0  0  0
  5 26  1  0  0  0
  5 93  1  0  0  0
  6 25  1  0  0  0
  6 94  1  0  0  0
  6 95  1  0  0  0
  7  8  2  0  0  0
  7 26  1  0  0  0
  7 29  1  0  0  0
  8  9  1  0  0  0
  8 22  1  0  0  0
  9 10  1  0  0  0
  9 27  2  0  0  0
 10 11  2  0  0  0
 10 15  1  0  0  0
 11 12  1  0  0  0
 11 96  1  0  0  0
 12 13  2  0  0  0
 12 97  1  0  0  0
 13 14  1  0  0  0
 13 31  1  0  0  0
 14 15  2  0  0  0
 14 98  1  0  0  0
 15 99  1  0  0  0
 16 17  2  0  0  0
 16 21  1  0  0  0
 16 31  1  0  0  0
 17 18  1  0  0  0
 17100  1  0  0  0
 18 19  2  0  0  0
 18101  1  0  0  0
 19 20  1  0  0  0
 19 24  1  0  0  0
 20 21  2  0  0  0
 20102  1  0  0  0
 21 23  1  0  0  0
 22 28  1  0  0  0
 22 32  2  0  0  0
 26 27  1  0  0  0
 28103  1  0  0  0
 28104  1  0  0  0
 29105  1  0  0  0
 29106  1  0  0  0
 33 34  1  0  0  0
 33 66  1  0  0  0
 33 70  2  0  0  0
 34 36  1  0  0  0
 34 59  1  0  0  0
 34107  1  0  0  0
 35 44  2  0  0  0
 35 45  1  0  0  0
 35 68  1  0  0  0
 36 56  1  0  0  0
 36108  1  0  0  0
 37 39  1  0  0  0
 37 47  1  0  0  0
 37 66  1  0  0  0
 37109  1  0  0  0
 38 43  2  0  0  0
 38 46  1  0  0  0
 38 47  1  0  0  0
 39 64  1  0  0  0
 39 67  2  0  0  0
 40 52  1  0  0  0
 40 53  2  0  0  0
 40 58  1  0  0  0
 41110  1  0  0  0
 41111  1  0  0  0
 41112  1  0  0  0
 41 48  1  0  0  0
 42 43  1  0  0  0
 42 66  1  0  0  0
 42113  1  0  0  0
 42114  1  0  0  0
 43 44  1  0  0  0
 44115  1  0  0  0
 45 46  2  0  0  0
 45116  1  0  0  0
 46117  1  0  0  0
 47118  1  0  0  0
 47119  1  0  0  0
 48 56  1  0  0  0
 48 65  1  0  0  0
 48120  1  0  0  0
 49 50  1  0  0  0
 49 53  1  0  0  0
 49 64  1  0  0  0
 49121  1  0  0  0
 50 51  1  0  0  0
 50122  1  0  0  0
 50123  1  0  0  0
 51 52  1  0  0  0
 51124  1  0  0  0
 51125  1  0  0  0
 52126  1  0  0  0
 52127  1  0  0  0
 53 54  1  0  0  0
 54 55  2  0  0  0
 54128  1  0  0  0
 55 57  1  0  0  0
 55129  1  0  0  0
 56 69  2  0  0  0
 57 58  2  0  0  0
 57130  1  0  0  0
 58131  1  0  0  0
 59 60  1  0  0  0
 59 61  1  0  0  0
 59 62  1  0  0  0
 60132  1  0  0  0
 60133  1  0  0  0
 60134  1  0  0  0
 61135  1  0  0  0
 61136  1  0  0  0
 61137  1  0  0  0
 62138  1  0  0  0
 62139  1  0  0  0
 62140  1  0  0  0
 63 65  1  0  0  0
 63141  1  0  0  0
 63142  1  0  0  0
 63143  1  0  0  0
 64144  1  0  0  0
 65145  1  0  0  0
 68 79  1  0  0  0
 71 72  2  0  0  0
 71 73  1  0  0  0
 71146  1  0  0  0
 72 74  1  0  0  0
 72147  1  0  0  0
 73 75  2  0  0  0
 73 76  1  0  0  0
 74 81  2  0  0  0
 74 82  1  0  0  0
 75 81  1  0  0  0
 75 86  1  0  0  0
 76 83  1  0  0  0
 76 84  2  0  0  0
 77 79  1  0  0  0
 77 80  1  0  0  0
 77 85  2  0  0  0
 78148  1  0  0  0
 78149  1  0  0  0
 78150  1  0  0  0
 78 80  1  0  0  0
 79151  1  0  0  0
 79152  1  0  0  0
 80 83  1  0  0  0
 80153  1  0  0  0
 82154  1  0  0  0
 83155  1  0  0  0
 84156  1  0  0  0
 84157  1  0  0  0
M  CHG  1  84   1
M  ISO  4   1 100  68 101  79 101  82 100
M  END
> <chiral flag>
0

> <version>
0

> <s_m_source_file>
/data/baiqing/PycharmProjects/Reinvent-master-3.2/result/LINK_invent/BTK/process_docking_weight1_custom_product_contain_oxygen_bond_distance_aromatic_linkinvent_7_9_3/rearranged_h_0183.sdf

> <i_m_source_file_index>
80

> <r_mmod_Potential_Energy-OPLS-2005>
-227.349075317383

> <r_mmod_Stretch_Energy-OPLS-2005>
46.5973701477051

> <r_mmod_Bend_Energy-OPLS-2005>
130.675811767578

> <r_mmod_Torsional_Energy-OPLS-2005>
240.312347412109

> <r_mmod_Improper_Torsional_Energy-OPLS-2005>
5.88284826278687

> <r_mmod_Van_der_Waal_Energy-OPLS-2005>
148.16796875

> <r_mmod_Electrostatic_Energy-OPLS-2005>
-317.337371826172

> <r_mmod_Solvation_Energy-OPLS-2005>
-500.572113037109

> <b_mmod_Minimization_Converged-OPLS-2005>
0

> <r_mmod_RMS_Derivative-OPLS-2005>
1.24923574924469

$$$$
80
                    3D
 Structure written by MMmdl.
150158  0  0  1  0            999 V2000
  -30.7306  -14.4588   20.6204 C   0  0  0  0  0  0
  -30.4178  -12.3191   19.4226 C   0  0  0  0  0  0
  -29.4918  -12.5208   18.2066 C   0  0  0  0  0  0
  -28.0137  -12.3722   18.6157 C   0  0  0  0  0  0
  -27.6596  -13.2070   19.8746 C   0  0  2  0  0  0
  -28.6964  -12.9788   20.9956 C   0  0  0  0  0  0
  -25.2579  -13.8165   20.5676 C   0  0  0  0  0  0
  -24.1831  -13.0441   20.9171 C   0  0  0  0  0  0
  -24.6386  -11.6906   20.8724 C   0  0  0  0  0  0
  -23.9054  -10.4293   21.0398 C   0  0  0  0  0  0
  -24.3612   -9.4213   21.9177 C   0  0  0  0  0  0
  -23.6291   -8.2245   22.0749 C   0  0  0  0  0  0
  -22.4271   -8.0281   21.3543 C   0  0  0  0  0  0
  -21.9902   -9.0252   20.4644 C   0  0  0  0  0  0
  -22.7225  -10.2135   20.3051 C   0  0  0  0  0  0
  -21.6854   -6.0735   22.5280 C   0  0  0  0  0  0
  -21.4012   -6.5639   23.8214 C   0  0  0  0  0  0
  -21.3661   -5.6792   24.9177 C   0  0  0  0  0  0
  -21.6045   -4.3055   24.7226 C   0  0  0  0  0  0
  -21.8820   -3.8146   23.4346 C   0  0  0  0  0  0
  -21.9192   -4.6963   22.3403 C   0  0  0  0  0  0
  -22.7857  -13.5238   21.1849 C   0  0  0  0  0  0
  -22.1661   -4.2150   21.0981 F   0  0  0  0  0  0
  -21.5631   -3.4539   25.7738 F   0  0  0  0  0  0
  -30.0299  -13.2968   20.4558 N   0  0  0  0  0  0
  -26.3007  -12.9333   20.3346 N   0  0  0  0  0  0
  -25.9309  -11.6493   20.5742 N   0  0  0  0  0  0
  -22.0502  -12.8228   22.0407 N   0  0  0  0  0  0
  -25.4313  -15.1884   20.4104 N   0  0  0  0  0  0
  -31.8083  -14.6741   20.0512 O   0  0  0  0  0  0
  -21.6637   -6.8876   21.4241 O   0  0  0  0  0  0
  -22.3544  -14.5551   20.6709 O   0  0  0  0  0  0
  -24.6158  -31.8662   23.2084 C   0  0  0  0  0  0
  -25.9046  -32.4806   23.8381 C   0  0  1  0  0  0
  -27.2322  -27.4154   20.0891 C   0  0  0  0  0  0
  -25.5893  -33.8606   24.2311 N   0  0  0  0  0  0
  -23.4041  -30.4907   21.5495 C   0  0  2  0  0  0
  -24.8480  -28.9546   20.1130 C   0  0  0  0  0  0
  -22.7414  -29.4650   22.4974 C   0  0  0  0  0  0
  -18.0273  -28.1383   22.8495 C   0  0  0  0  0  0
  -24.1488  -36.7322   23.2639 C   0  0  0  0  0  0
  -25.9353  -30.8244   21.3651 C   0  0  0  0  0  0
  -26.0090  -29.4579   20.7106 C   0  0  0  0  0  0
  -27.2002  -28.6946   20.6972 C   0  0  0  0  0  0
  -26.0457  -26.9294   19.4909 C   0  0  0  0  0  0
  -24.8615  -27.6897   19.5025 C   0  0  0  0  0  0
  -23.6124  -29.8249   20.1633 C   0  0  0  0  0  0
  -25.4105  -36.3103   24.0336 C   0  0  1  0  0  0
  -20.5867  -28.3665   23.1321 C   0  0  2  0  0  0
  -20.6766  -26.9401   22.5422 C   0  0  0  0  0  0
  -19.5744  -26.6390   21.5218 C   0  0  0  0  0  0
  -18.1922  -26.7931   22.1628 C   0  0  0  0  0  0
  -19.1524  -28.8839   23.2907 C   0  0  0  0  0  0
  -18.9452  -30.1449   23.8914 C   0  0  0  0  0  0
  -17.6453  -30.6587   24.0569 C   0  0  0  0  0  0
  -25.9033  -34.9468   23.5122 C   0  0  0  0  0  0
  -16.5344  -29.9090   23.6327 C   0  0  0  0  0  0
  -16.7262  -28.6511   23.0339 C   0  0  0  0  0  0
  -26.4464  -31.6587   25.0715 C   0  0  0  0  0  0
  -25.3729  -31.3723   26.1473 C   0  0  0  0  0  0
  -27.0284  -30.3018   24.6109 C   0  0  0  0  0  0
  -27.6042  -32.4305   25.7472 C   0  0  0  0  0  0
  -27.5583  -37.1808   24.8459 C   0  0  0  0  0  0
  -21.4139  -29.3032   22.3723 N   0  0  0  0  0  0
  -26.4292  -37.3786   23.9406 N   0  0  0  0  0  0
  -24.6703  -31.0752   22.0991 N   0  0  0  0  0  0
  -23.4182  -28.8188   23.3016 O   0  0  0  0  0  0
  -28.4154  -26.6940   20.1136 O   0  0  0  0  0  0
  -26.5605  -34.8922   22.4691 O   0  0  0  0  0  0
  -23.5345  -32.1420   23.7471 O   0  0  0  0  0  0
  -29.5648  -17.2930   19.6629 C   0  0  0  0  0  0
  -29.3218  -18.6998   19.5276 C   0  0  0  0  0  0
  -29.8133  -16.9045   20.9568 C   0  0  0  0  0  0
  -29.3940  -19.4042   20.7109 C   0  0  0  0  0  0
  -30.1190  -15.5781   21.5419 C   0  0  0  0  0  0
  -28.8700  -23.1357   20.8652 C   0  0  0  0  0  0
  -28.8436  -21.7417   20.1519 C   0  0  0  0  0  0
  -28.4823  -25.3660   19.5437 C   0  0  0  0  0  0
  -27.8640  -24.2136   20.3965 C   0  0  2  0  0  0
  -29.2554  -20.7408   20.9629 N   0  0  0  0  0  0
  -29.9735  -15.3718   22.7530 O   0  0  0  0  0  0
  -29.6482  -23.3622   21.8023 O   0  0  0  0  0  0
  -28.4744  -21.6011   18.9806 O   0  0  0  0  0  0
  -27.2349  -24.7259   21.4614 F   0  0  0  0  0  0
  -29.7474  -18.2931   22.0240 S   0  0  0  0  0  0
  -31.4624  -12.4148   19.1210 H   0  0  0  0  0  0
  -30.3186  -11.3041   19.8114 H   0  0  0  0  0  0
  -29.7360  -11.8028   17.4227 H   0  0  0  0  0  0
  -29.6579  -13.5106   17.7784 H   0  0  0  0  0  0
  -27.8271  -11.3151   18.8081 H   0  0  0  0  0  0
  -27.3626  -12.6480   17.7850 H   0  0  0  0  0  0
  -27.7068  -14.2566   19.5838 H   0  0  0  0  0  0
  -28.6761  -11.9367   21.3187 H   0  0  0  0  0  0
  -28.4291  -13.5519   21.8819 H   0  0  0  0  0  0
  -25.2759   -9.5693   22.4747 H   0  0  0  0  0  0
  -24.0006   -7.4637   22.7466 H   0  0  0  0  0  0
  -21.0834   -8.8767   19.8950 H   0  0  0  0  0  0
  -22.3681  -10.9672   19.6160 H   0  0  0  0  0  0
  -21.2001   -7.6147   23.9719 H   0  0  0  0  0  0
  -21.1484   -6.0522   25.9081 H   0  0  0  0  0  0
  -22.0596   -2.7607   23.2847 H   0  0  0  0  0  0
  -22.4112  -11.9881   22.4786 H   0  0  0  0  0  0
  -21.1126  -13.1259   22.2626 H   0  0  0  0  0  0
  -24.6661  -15.8445   20.5228 H   0  0  0  0  0  0
  -26.2880  -15.6306   20.1020 H   0  0  0  0  0  0
  -26.7113  -32.5507   23.1140 H   0  0  0  0  0  0
  -25.0012  -33.9759   25.0434 H   0  0  0  0  0  0
  -22.6943  -31.3088   21.4107 H   0  0  0  0  0  0
  -23.3737  -35.9668   23.3296 H   0  0  0  0  0  0
  -24.3585  -36.8946   22.2054 H   0  0  0  0  0  0
  -23.7252  -37.6532   23.6657 H   0  0  0  0  0  0
  -26.0522  -31.5901   20.5970 H   0  0  0  0  0  0
  -26.8226  -30.8753   21.9849 H   0  0  0  0  0  0
  -28.0970  -29.0802   21.1619 H   0  0  0  0  0  0
  -26.0049  -25.9605   19.0177 H   0  0  0  0  0  0
  -23.9671  -27.2944   19.0410 H   0  0  0  0  0  0
  -23.7234  -30.6012   19.4053 H   0  0  0  0  0  0
  -22.7349  -29.2484   19.8646 H   0  0  0  0  0  0
  -25.1278  -36.1970   25.0828 H   0  0  0  0  0  0
  -20.9966  -28.3237   24.1438 H   0  0  0  0  0  0
  -20.5680  -26.2271   23.3609 H   0  0  0  0  0  0
  -21.6635  -26.7452   22.1205 H   0  0  0  0  0  0
  -19.6909  -25.6306   21.1235 H   0  0  0  0  0  0
  -19.6685  -27.3215   20.6761 H   0  0  0  0  0  0
  -17.4192  -26.6682   21.4027 H   0  0  0  0  0  0
  -18.0315  -26.0072   22.9023 H   0  0  0  0  0  0
  -19.7925  -30.7261   24.2294 H   0  0  0  0  0  0
  -17.5004  -31.6267   24.5167 H   0  0  0  0  0  0
  -15.5344  -30.2992   23.7643 H   0  0  0  0  0  0
  -15.8665  -28.0839   22.7034 H   0  0  0  0  0  0
  -24.5877  -30.7092   25.7822 H   0  0  0  0  0  0
  -24.8954  -32.2896   26.4925 H   0  0  0  0  0  0
  -25.8079  -30.8881   27.0228 H   0  0  0  0  0  0
  -26.2832  -29.6791   24.1144 H   0  0  0  0  0  0
  -27.4021  -29.7239   25.4573 H   0  0  0  0  0  0
  -27.8685  -30.4315   23.9280 H   0  0  0  0  0  0
  -27.2663  -33.3596   26.2071 H   0  0  0  0  0  0
  -28.3838  -32.6879   25.0288 H   0  0  0  0  0  0
  -28.0726  -31.8416   26.5367 H   0  0  0  0  0  0
  -28.2597  -38.0108   24.7500 H   0  0  0  0  0  0
  -28.1079  -36.2638   24.6279 H   0  0  0  0  0  0
  -27.2303  -37.1459   25.8863 H   0  0  0  0  0  0
  -20.9292  -29.8758   21.6954 H   0  0  0  0  0  0
  -26.0182  -38.2869   24.1397 H   0  0  0  0  0  0
  -29.5474  -16.6298   18.8093 H   0  0  0  0  0  0
  -29.1162  -19.1356   18.5596 H   0  0  0  0  0  0
  -28.0607  -25.3626   18.5380 H   0  0  0  0  0  0
  -29.5422  -25.1653   19.3824 H   0  0  0  0  0  0
  -27.0923  -23.7129   19.8121 H   0  0  0  0  0  0
  -29.4975  -21.0543   21.8951 H   0  0  0  0  0  0
  1 25  1  0  0  0
  1 30  2  0  0  0
  1 75  1  0  0  0
  2  3  1  0  0  0
  2 25  1  0  0  0
  2 86  1  0  0  0
  2 87  1  0  0  0
  3  4  1  0  0  0
  3 88  1  0  0  0
  3 89  1  0  0  0
  4  5  1  0  0  0
  4 90  1  0  0  0
  4 91  1  0  0  0
  5  6  1  0  0  0
  5 26  1  0  0  0
  5 92  1  0  0  0
  6 25  1  0  0  0
  6 93  1  0  0  0
  6 94  1  0  0  0
  7  8  2  0  0  0
  7 26  1  0  0  0
  7 29  1  0  0  0
  8  9  1  0  0  0
  8 22  1  0  0  0
  9 10  1  0  0  0
  9 27  2  0  0  0
 10 11  2  0  0  0
 10 15  1  0  0  0
 11 12  1  0  0  0
 11 95  1  0  0  0
 12 13  2  0  0  0
 12 96  1  0  0  0
 13 14  1  0  0  0
 13 31  1  0  0  0
 14 15  2  0  0  0
 14 97  1  0  0  0
 15 98  1  0  0  0
 16 17  2  0  0  0
 16 21  1  0  0  0
 16 31  1  0  0  0
 17 18  1  0  0  0
 17 99  1  0  0  0
 18 19  2  0  0  0
 18100  1  0  0  0
 19 20  1  0  0  0
 19 24  1  0  0  0
 20 21  2  0  0  0
 20101  1  0  0  0
 21 23  1  0  0  0
 22 28  1  0  0  0
 22 32  2  0  0  0
 26 27  1  0  0  0
 28102  1  0  0  0
 28103  1  0  0  0
 29104  1  0  0  0
 29105  1  0  0  0
 33 34  1  0  0  0
 33 66  1  0  0  0
 33 70  2  0  0  0
 34 36  1  0  0  0
 34 59  1  0  0  0
 34106  1  0  0  0
 35 44  2  0  0  0
 35 45  1  0  0  0
 35 68  1  0  0  0
 36 56  1  0  0  0
 36107  1  0  0  0
 37 39  1  0  0  0
 37 47  1  0  0  0
 37 66  1  0  0  0
 37108  1  0  0  0
 38 43  2  0  0  0
 38 46  1  0  0  0
 38 47  1  0  0  0
 39 64  1  0  0  0
 39 67  2  0  0  0
 40 52  1  0  0  0
 40 53  2  0  0  0
 40 58  1  0  0  0
 41109  1  0  0  0
 41110  1  0  0  0
 41111  1  0  0  0
 41 48  1  0  0  0
 42 43  1  0  0  0
 42 66  1  0  0  0
 42112  1  0  0  0
 42113  1  0  0  0
 43 44  1  0  0  0
 44114  1  0  0  0
 45 46  2  0  0  0
 45115  1  0  0  0
 46116  1  0  0  0
 47117  1  0  0  0
 47118  1  0  0  0
 48 56  1  0  0  0
 48 65  1  0  0  0
 48119  1  0  0  0
 49 50  1  0  0  0
 49 53  1  0  0  0
 49 64  1  0  0  0
 49120  1  0  0  0
 50 51  1  0  0  0
 50121  1  0  0  0
 50122  1  0  0  0
 51 52  1  0  0  0
 51123  1  0  0  0
 51124  1  0  0  0
 52125  1  0  0  0
 52126  1  0  0  0
 53 54  1  0  0  0
 54 55  2  0  0  0
 54127  1  0  0  0
 55 57  1  0  0  0
 55128  1  0  0  0
 56 69  2  0  0  0
 57 58  2  0  0  0
 57129  1  0  0  0
 58130  1  0  0  0
 59 60  1  0  0  0
 59 61  1  0  0  0
 59 62  1  0  0  0
 60131  1  0  0  0
 60132  1  0  0  0
 60133  1  0  0  0
 61134  1  0  0  0
 61135  1  0  0  0
 61136  1  0  0  0
 62137  1  0  0  0
 62138  1  0  0  0
 62139  1  0  0  0
 63 65  1  0  0  0
 63140  1  0  0  0
 63141  1  0  0  0
 63142  1  0  0  0
 64143  1  0  0  0
 65144  1  0  0  0
 68 78  1  0  0  0
 71 72  1  0  0  0
 71 73  2  0  0  0
 71145  1  0  0  0
 72 74  2  0  0  0
 72146  1  0  0  0
 73 75  1  0  0  0
 73 85  1  0  0  0
 74 80  1  0  0  0
 74 85  1  0  0  0
 75 81  2  0  0  0
 76 77  1  0  0  0
 76 79  1  0  0  0
 76 82  2  0  0  0
 77 80  1  0  0  0
 77 83  2  0  0  0
 78 79  1  0  0  0
 78147  1  0  0  0
 78148  1  0  0  0
 79 84  1  0  0  0
 79149  1  0  0  0
 80150  1  0  0  0
M  ISO  4   1 100  68 101  75 100  78 101
M  END
> <chiral flag>
0

> <version>
0

> <s_m_source_file>
/data/baiqing/PycharmProjects/Reinvent-master-3.2/result/LINK_invent/BTK/process_docking_weight1_custom_product_contain_oxygen_bond_distance_aromatic_linkinvent_7_9_3/rearranged_h_0183.sdf

> <i_m_source_file_index>
81

> <r_mmod_Potential_Energy-OPLS-2005>
90.9340438842773

> <r_mmod_Stretch_Energy-OPLS-2005>
43.7365875244141

> <r_mmod_Bend_Energy-OPLS-2005>
117.578857421875

> <r_mmod_Torsional_Energy-OPLS-2005>
193.38444519043

> <r_mmod_Improper_Torsional_Energy-OPLS-2005>
2.37216472625732

> <r_mmod_Van_der_Waal_Energy-OPLS-2005>
129.635314941406

> <r_mmod_Electrostatic_Energy-OPLS-2005>
-180.570571899414

> <r_mmod_Solvation_Energy-OPLS-2005>
-227.554901123047

> <b_mmod_Minimization_Converged-OPLS-2005>
0

> <r_mmod_RMS_Derivative-OPLS-2005>
0.660385310649872

$$$$
81
                    3D
 Structure written by MMmdl.
153161  0  0  1  0            999 V2000
  -30.6282  -14.7526   20.4292 C   0  0  0  0  0  0
  -30.4281  -12.4565   19.4587 C   0  0  0  0  0  0
  -29.5127  -12.5097   18.2196 C   0  0  0  0  0  0
  -28.0302  -12.3618   18.6211 C   0  0  0  0  0  0
  -27.6401  -13.2402   19.8419 C   0  0  2  0  0  0
  -28.6939  -13.1886   20.9677 C   0  0  0  0  0  0
  -25.2534  -13.8200   20.5673 C   0  0  0  0  0  0
  -24.1823  -13.0444   20.9167 C   0  0  0  0  0  0
  -24.6379  -11.6920   20.8689 C   0  0  0  0  0  0
  -23.9054  -10.4288   21.0328 C   0  0  0  0  0  0
  -24.3617   -9.4233   21.9135 C   0  0  0  0  0  0
  -23.6297   -8.2271   22.0723 C   0  0  0  0  0  0
  -22.4281   -8.0259   21.3523 C   0  0  0  0  0  0
  -21.9875   -9.0233   20.4655 C   0  0  0  0  0  0
  -22.7183  -10.2124   20.3045 C   0  0  0  0  0  0
  -21.6873   -6.0704   22.5227 C   0  0  0  0  0  0
  -21.4036   -6.5611   23.8164 C   0  0  0  0  0  0
  -21.3684   -5.6778   24.9135 C   0  0  0  0  0  0
  -21.6057   -4.3025   24.7183 C   0  0  0  0  0  0
  -21.8838   -3.8107   23.4307 C   0  0  0  0  0  0
  -21.9218   -4.6942   22.3359 C   0  0  0  0  0  0
  -22.7871  -13.5258   21.1846 C   0  0  0  0  0  0
  -22.1697   -4.2121   21.0947 F   0  0  0  0  0  0
  -21.5642   -3.4510   25.7695 F   0  0  0  0  0  0
  -29.9820  -13.5392   20.3633 N   0  0  0  0  0  0
  -26.2940  -12.9391   20.3257 N   0  0  0  0  0  0
  -25.9316  -11.6531   20.5703 N   0  0  0  0  0  0
  -22.0543  -12.8267   22.0423 N   0  0  0  0  0  0
  -25.4265  -15.1916   20.4064 N   0  0  0  0  0  0
  -31.8436  -14.7753   20.2127 O   0  0  0  0  0  0
  -21.6666   -6.8840   21.4203 O   0  0  0  0  0  0
  -22.3545  -14.5533   20.6647 O   0  0  0  0  0  0
  -24.6386  -31.8502   23.2026 C   0  0  0  0  0  0
  -25.9216  -32.4724   23.8305 C   0  0  1  0  0  0
  -27.1743  -27.2209   20.0985 C   0  0  0  0  0  0
  -25.6018  -33.8502   24.2236 N   0  0  0  0  0  0
  -23.4275  -30.4851   21.5501 C   0  0  2  0  0  0
  -24.8596  -28.9426   20.1084 C   0  0  0  0  0  0
  -22.7491  -29.4593   22.4911 C   0  0  0  0  0  0
  -18.0312  -28.1384   22.8544 C   0  0  0  0  0  0
  -24.1488  -36.7227   23.2650 C   0  0  0  0  0  0
  -25.9802  -30.7580   21.3797 C   0  0  0  0  0  0
  -26.0438  -29.3802   20.7172 C   0  0  0  0  0  0
  -27.2016  -28.5269   20.7084 C   0  0  0  0  0  0
  -25.9566  -26.8783   19.4567 C   0  0  0  0  0  0
  -24.8227  -27.7033   19.4708 C   0  0  0  0  0  0
  -23.6382  -29.8342   20.1620 C   0  0  0  0  0  0
  -25.4128  -36.2985   24.0309 C   0  0  1  0  0  0
  -20.5907  -28.3644   23.1279 C   0  0  2  0  0  0
  -20.6782  -26.9362   22.5400 C   0  0  0  0  0  0
  -19.5730  -26.6377   21.5221 C   0  0  0  0  0  0
  -18.1928  -26.7939   22.1659 C   0  0  0  0  0  0
  -19.1572  -28.8847   23.2899 C   0  0  0  0  0  0
  -18.9479  -30.1472   23.8860 C   0  0  0  0  0  0
  -17.6466  -30.6577   24.0576 C   0  0  0  0  0  0
  -25.9084  -34.9387   23.5035 C   0  0  0  0  0  0
  -16.5365  -29.9068   23.6343 C   0  0  0  0  0  0
  -16.7291  -28.6500   23.0359 C   0  0  0  0  0  0
  -26.4645  -31.6561   25.0668 C   0  0  0  0  0  0
  -25.3927  -31.3596   26.1407 C   0  0  0  0  0  0
  -27.0527  -30.3013   24.6070 C   0  0  0  0  0  0
  -27.6159  -32.4329   25.7461 C   0  0  0  0  0  0
  -27.5560  -37.1745   24.8458 C   0  0  0  0  0  0
  -21.4201  -29.3015   22.3662 N   0  0  0  0  0  0
  -26.4256  -37.3731   23.9430 N   0  0  0  0  0  0
  -24.7029  -31.0446   22.1021 N   0  0  0  0  0  0
  -23.4224  -28.8086   23.2932 O   0  0  0  0  0  0
  -28.2353  -26.2669   20.1561 O   0  0  0  0  0  0
  -26.5597  -34.8878   22.4560 O   0  0  0  0  0  0
  -23.5541  -32.1307   23.7364 O   0  0  0  0  0  0
  -28.3754  -18.6509   19.3215 C   0  0  0  0  0  0
  -27.9267  -20.0236   19.1449 C   0  0  0  0  0  0
  -29.4228  -18.4673   20.1993 C   0  0  0  0  0  0
  -28.6097  -20.9849   19.8778 C   0  0  0  0  0  0
  -30.3040  -17.2383   20.5501 C   0  0  0  0  0  0
  -28.7598  -23.5753   20.2182 C   0  0  0  0  0  0
  -26.8136  -20.4103   18.1976 C   0  0  0  0  0  0
  -28.2245  -24.9019   18.0939 C   0  0  0  0  0  0
  -27.9987  -24.8655   19.6236 C   0  0  2  0  0  0
  -28.2810  -22.3452   19.7990 N   0  0  0  0  0  0
  -29.8686  -15.9206   20.4601 N   0  0  0  0  0  0
  -31.4502  -17.4991   20.9305 O   0  0  0  0  0  0
  -29.7097  -23.6937   20.9934 O   0  0  0  0  0  0
  -29.8691  -20.1088   20.8022 S   0  0  0  0  0  0
  -31.4766  -12.5636   19.1736 H   0  0  0  0  0  0
  -30.3529  -11.4906   19.9575 H   0  0  0  0  0  0
  -29.7782  -11.7245   17.5138 H   0  0  0  0  0  0
  -29.6599  -13.4567   17.6935 H   0  0  0  0  0  0
  -27.8515  -11.3115   18.8438 H   0  0  0  0  0  0
  -27.3899  -12.6065   17.7732 H   0  0  0  0  0  0
  -27.6193  -14.2644   19.4633 H   0  0  0  0  0  0
  -28.7426  -12.1931   21.4149 H   0  0  0  0  0  0
  -28.4393  -13.8797   21.7730 H   0  0  0  0  0  0
  -25.2766   -9.5718   22.4677 H   0  0  0  0  0  0
  -24.0026   -7.4661   22.7432 H   0  0  0  0  0  0
  -21.0802   -8.8732   19.8960 H   0  0  0  0  0  0
  -22.3602  -10.9658   19.6160 H   0  0  0  0  0  0
  -21.2037   -7.6119   23.9646 H   0  0  0  0  0  0
  -21.1519   -6.0502   25.9032 H   0  0  0  0  0  0
  -22.0612   -2.7564   23.2788 H   0  0  0  0  0  0
  -22.4198  -11.9963   22.4856 H   0  0  0  0  0  0
  -21.1160  -13.1268   22.2637 H   0  0  0  0  0  0
  -24.6629  -15.8521   20.5055 H   0  0  0  0  0  0
  -26.2786  -15.6144   20.0635 H   0  0  0  0  0  0
  -26.7215  -32.5346   23.0965 H   0  0  0  0  0  0
  -25.0248  -33.9661   25.0437 H   0  0  0  0  0  0
  -22.7243  -31.3082   21.4108 H   0  0  0  0  0  0
  -23.3748  -35.9551   23.3284 H   0  0  0  0  0  0
  -24.3543  -36.8922   22.2065 H   0  0  0  0  0  0
  -23.7249  -37.6395   23.6746 H   0  0  0  0  0  0
  -26.0967  -31.5172   20.6055 H   0  0  0  0  0  0
  -26.8689  -30.8149   21.9971 H   0  0  0  0  0  0
  -28.1076  -28.8442   21.2020 H   0  0  0  0  0  0
  -25.7936  -25.9484   18.9403 H   0  0  0  0  0  0
  -23.9123  -27.3699   18.9885 H   0  0  0  0  0  0
  -23.7549  -30.6110   19.4037 H   0  0  0  0  0  0
  -22.7547  -29.2678   19.8620 H   0  0  0  0  0  0
  -25.1332  -36.1754   25.0800 H   0  0  0  0  0  0
  -21.0022  -28.3209   24.1386 H   0  0  0  0  0  0
  -20.5679  -26.2240   23.3604 H   0  0  0  0  0  0
  -21.6650  -26.7402   22.1171 H   0  0  0  0  0  0
  -19.6865  -25.6279   21.1259 H   0  0  0  0  0  0
  -19.6677  -27.3186   20.6749 H   0  0  0  0  0  0
  -17.4202  -26.6703   21.4070 H   0  0  0  0  0  0
  -18.0327  -26.0068   22.9035 H   0  0  0  0  0  0
  -19.7931  -30.7347   24.2175 H   0  0  0  0  0  0
  -17.4992  -31.6262   24.5161 H   0  0  0  0  0  0
  -15.5346  -30.2958   23.7660 H   0  0  0  0  0  0
  -15.8708  -28.0808   22.7065 H   0  0  0  0  0  0
  -24.6071  -30.7033   25.7671 H   0  0  0  0  0  0
  -24.9222  -32.2743   26.4993 H   0  0  0  0  0  0
  -25.8312  -30.8601   27.0057 H   0  0  0  0  0  0
  -26.3106  -29.6688   24.1187 H   0  0  0  0  0  0
  -27.4389  -29.7297   25.4518 H   0  0  0  0  0  0
  -27.8876  -30.4321   23.9174 H   0  0  0  0  0  0
  -27.2719  -33.3607   26.2007 H   0  0  0  0  0  0
  -28.3981  -32.6935   25.0332 H   0  0  0  0  0  0
  -28.0815  -31.8502   26.5411 H   0  0  0  0  0  0
  -28.2541  -38.0087   24.7539 H   0  0  0  0  0  0
  -28.1107  -36.2606   24.6241 H   0  0  0  0  0  0
  -27.2277  -37.1310   25.8864 H   0  0  0  0  0  0
  -20.9365  -29.8748   21.6901 H   0  0  0  0  0  0
  -26.0091  -38.2737   24.1587 H   0  0  0  0  0  0
  -27.9375  -17.8385   18.7558 H   0  0  0  0  0  0
  -26.2119  -19.5577   17.8796 H   0  0  0  0  0  0
  -27.2115  -20.8884   17.3002 H   0  0  0  0  0  0
  -26.1251  -21.1275   18.6491 H   0  0  0  0  0  0
  -27.4907  -25.5296   17.5889 H   0  0  0  0  0  0
  -28.1648  -23.9145   17.6336 H   0  0  0  0  0  0
  -29.2074  -25.3072   17.8569 H   0  0  0  0  0  0
  -26.9716  -24.5753   19.8493 H   0  0  0  0  0  0
  -27.4780  -22.4897   19.2053 H   0  0  0  0  0  0
  -28.8767  -15.8029   20.3600 H   0  0  0  0  0  0
  1 25  1  0  0  0
  1 30  2  0  0  0
  1 81  1  0  0  0
  2  3  1  0  0  0
  2 25  1  0  0  0
  2 85  1  0  0  0
  2 86  1  0  0  0
  3  4  1  0  0  0
  3 87  1  0  0  0
  3 88  1  0  0  0
  4  5  1  0  0  0
  4 89  1  0  0  0
  4 90  1  0  0  0
  5  6  1  0  0  0
  5 26  1  0  0  0
  5 91  1  0  0  0
  6 25  1  0  0  0
  6 92  1  0  0  0
  6 93  1  0  0  0
  7  8  2  0  0  0
  7 26  1  0  0  0
  7 29  1  0  0  0
  8  9  1  0  0  0
  8 22  1  0  0  0
  9 10  1  0  0  0
  9 27  2  0  0  0
 10 11  2  0  0  0
 10 15  1  0  0  0
 11 12  1  0  0  0
 11 94  1  0  0  0
 12 13  2  0  0  0
 12 95  1  0  0  0
 13 14  1  0  0  0
 13 31  1  0  0  0
 14 15  2  0  0  0
 14 96  1  0  0  0
 15 97  1  0  0  0
 16 17  2  0  0  0
 16 21  1  0  0  0
 16 31  1  0  0  0
 17 18  1  0  0  0
 17 98  1  0  0  0
 18 19  2  0  0  0
 18 99  1  0  0  0
 19 20  1  0  0  0
 19 24  1  0  0  0
 20 21  2  0  0  0
 20100  1  0  0  0
 21 23  1  0  0  0
 22 28  1  0  0  0
 22 32  2  0  0  0
 26 27  1  0  0  0
 28101  1  0  0  0
 28102  1  0  0  0
 29103  1  0  0  0
 29104  1  0  0  0
 33 34  1  0  0  0
 33 66  1  0  0  0
 33 70  2  0  0  0
 34 36  1  0  0  0
 34 59  1  0  0  0
 34105  1  0  0  0
 35 44  2  0  0  0
 35 45  1  0  0  0
 35 68  1  0  0  0
 36 56  1  0  0  0
 36106  1  0  0  0
 37 39  1  0  0  0
 37 47  1  0  0  0
 37 66  1  0  0  0
 37107  1  0  0  0
 38 43  2  0  0  0
 38 46  1  0  0  0
 38 47  1  0  0  0
 39 64  1  0  0  0
 39 67  2  0  0  0
 40 52  1  0  0  0
 40 53  2  0  0  0
 40 58  1  0  0  0
 41108  1  0  0  0
 41109  1  0  0  0
 41110  1  0  0  0
 41 48  1  0  0  0
 42 43  1  0  0  0
 42 66  1  0  0  0
 42111  1  0  0  0
 42112  1  0  0  0
 43 44  1  0  0  0
 44113  1  0  0  0
 45 46  2  0  0  0
 45114  1  0  0  0
 46115  1  0  0  0
 47116  1  0  0  0
 47117  1  0  0  0
 48 56  1  0  0  0
 48 65  1  0  0  0
 48118  1  0  0  0
 49 50  1  0  0  0
 49 53  1  0  0  0
 49 64  1  0  0  0
 49119  1  0  0  0
 50 51  1  0  0  0
 50120  1  0  0  0
 50121  1  0  0  0
 51 52  1  0  0  0
 51122  1  0  0  0
 51123  1  0  0  0
 52124  1  0  0  0
 52125  1  0  0  0
 53 54  1  0  0  0
 54 55  2  0  0  0
 54126  1  0  0  0
 55 57  1  0  0  0
 55127  1  0  0  0
 56 69  2  0  0  0
 57 58  2  0  0  0
 57128  1  0  0  0
 58129  1  0  0  0
 59 60  1  0  0  0
 59 61  1  0  0  0
 59 62  1  0  0  0
 60130  1  0  0  0
 60131  1  0  0  0
 60132  1  0  0  0
 61133  1  0  0  0
 61134  1  0  0  0
 61135  1  0  0  0
 62136  1  0  0  0
 62137  1  0  0  0
 62138  1  0  0  0
 63 65  1  0  0  0
 63139  1  0  0  0
 63140  1  0  0  0
 63141  1  0  0  0
 64142  1  0  0  0
 65143  1  0  0  0
 68 79  1  0  0  0
 71 72  1  0  0  0
 71 73  2  0  0  0
 71144  1  0  0  0
 72 74  2  0  0  0
 72 77  1  0  0  0
 73 75  1  0  0  0
 73 84  1  0  0  0
 74 80  1  0  0  0
 74 84  1  0  0  0
 75 81  1  0  0  0
 75 82  2  0  0  0
 76 79  1  0  0  0
 76 80  1  0  0  0
 76 83  2  0  0  0
 77145  1  0  0  0
 77146  1  0  0  0
 77147  1  0  0  0
 78148  1  0  0  0
 78149  1  0  0  0
 78150  1  0  0  0
 78 79  1  0  0  0
 79151  1  0  0  0
 80152  1  0  0  0
 81153  1  0  0  0
M  ISO  4   1 100  68 101  79 101  81 100
M  END
> <chiral flag>
0

> <version>
0

> <s_m_source_file>
/data/baiqing/PycharmProjects/Reinvent-master-3.2/result/LINK_invent/BTK/process_docking_weight1_custom_product_contain_oxygen_bond_distance_aromatic_linkinvent_7_9_3/rearranged_h_0183.sdf

> <i_m_source_file_index>
82

> <r_mmod_Potential_Energy-OPLS-2005>
78.3066635131836

> <r_mmod_Stretch_Energy-OPLS-2005>
117.867523193359

> <r_mmod_Bend_Energy-OPLS-2005>
211.379913330078

> <r_mmod_Torsional_Energy-OPLS-2005>
226.353652954102

> <r_mmod_Improper_Torsional_Energy-OPLS-2005>
7.21232080459595

> <r_mmod_Van_der_Waal_Energy-OPLS-2005>
132.447982788086

> <r_mmod_Electrostatic_Energy-OPLS-2005>
-451.518920898438

> <r_mmod_Solvation_Energy-OPLS-2005>
-271.633605957031

> <b_mmod_Minimization_Converged-OPLS-2005>
0

> <r_mmod_RMS_Derivative-OPLS-2005>
6.49589681625366

$$$$
82
                    3D
 Structure written by MMmdl.
147155  0  0  1  0            999 V2000
  -30.7088  -14.7898   20.4742 C   0  0  0  0  0  0
  -30.4320  -12.4956   19.4888 C   0  0  0  0  0  0
  -29.5173  -12.4808   18.2484 C   0  0  0  0  0  0
  -28.0478  -12.3065   18.6721 C   0  0  0  0  0  0
  -27.6393  -13.2423   19.8367 C   0  0  2  0  0  0
  -28.6946  -13.2778   20.9687 C   0  0  0  0  0  0
  -25.2470  -13.8216   20.5669 C   0  0  0  0  0  0
  -24.1806  -13.0428   20.9225 C   0  0  0  0  0  0
  -24.6449  -11.6944   20.8805 C   0  0  0  0  0  0
  -23.9127  -10.4296   21.0431 C   0  0  0  0  0  0
  -24.3676   -9.4212   21.9203 C   0  0  0  0  0  0
  -23.6321   -8.2260   22.0776 C   0  0  0  0  0  0
  -22.4293   -8.0331   21.3580 C   0  0  0  0  0  0
  -21.9944   -9.0344   20.4698 C   0  0  0  0  0  0
  -22.7323  -10.2183   20.3103 C   0  0  0  0  0  0
  -21.6864   -6.0752   22.5278 C   0  0  0  0  0  0
  -21.4045   -6.5668   23.8193 C   0  0  0  0  0  0
  -21.3654   -5.6795   24.9157 C   0  0  0  0  0  0
  -21.6019   -4.3057   24.7184 C   0  0  0  0  0  0
  -21.8833   -3.8166   23.4312 C   0  0  0  0  0  0
  -21.9185   -4.7005   22.3378 C   0  0  0  0  0  0
  -22.7802  -13.5205   21.1840 C   0  0  0  0  0  0
  -22.1650   -4.2186   21.0954 F   0  0  0  0  0  0
  -21.5614   -3.4530   25.7720 F   0  0  0  0  0  0
  -29.9875  -13.6139   20.3567 N   0  0  0  0  0  0
  -26.2951  -12.9474   20.3284 N   0  0  0  0  0  0
  -25.9392  -11.6596   20.5831 N   0  0  0  0  0  0
  -22.0437  -12.8271   22.0437 N   0  0  0  0  0  0
  -25.3968  -15.1953   20.3928 N   0  0  0  0  0  0
  -31.9145  -14.7663   20.2128 O   0  0  0  0  0  0
  -21.6659   -6.8947   21.4258 O   0  0  0  0  0  0
  -22.3483  -14.5489   20.6670 O   0  0  0  0  0  0
  -24.6326  -31.8514   23.1971 C   0  0  0  0  0  0
  -25.9122  -32.4735   23.8349 C   0  0  1  0  0  0
  -27.2352  -27.2366   20.1463 C   0  0  0  0  0  0
  -25.5913  -33.8534   24.2242 N   0  0  0  0  0  0
  -23.4333  -30.4729   21.5354 C   0  0  2  0  0  0
  -24.8893  -28.9151   20.1082 C   0  0  0  0  0  0
  -22.7505  -29.4580   22.4854 C   0  0  0  0  0  0
  -18.0304  -28.1402   22.8489 C   0  0  0  0  0  0
  -24.1482  -36.7276   23.2631 C   0  0  0  0  0  0
  -25.9814  -30.7520   21.3912 C   0  0  0  0  0  0
  -26.0575  -29.3729   20.7339 C   0  0  0  0  0  0
  -27.2291  -28.5462   20.7446 C   0  0  0  0  0  0
  -26.0501  -26.8594   19.4772 C   0  0  0  0  0  0
  -24.8961  -27.6670   19.4638 C   0  0  0  0  0  0
  -23.6610  -29.8059   20.1518 C   0  0  0  0  0  0
  -25.4111  -36.3045   24.0313 C   0  0  1  0  0  0
  -20.5896  -28.3725   23.1244 C   0  0  2  0  0  0
  -20.6792  -26.9440   22.5388 C   0  0  0  0  0  0
  -19.5752  -26.6382   21.5209 C   0  0  0  0  0  0
  -18.1941  -26.7938   22.1645 C   0  0  0  0  0  0
  -19.1547  -28.8881   23.2868 C   0  0  0  0  0  0
  -18.9481  -30.1481   23.8898 C   0  0  0  0  0  0
  -17.6479  -30.6612   24.0557 C   0  0  0  0  0  0
  -25.9046  -34.9427   23.5087 C   0  0  0  0  0  0
  -16.5375  -29.9109   23.6337 C   0  0  0  0  0  0
  -16.7286  -28.6515   23.0388 C   0  0  0  0  0  0
  -26.4494  -31.6607   25.0775 C   0  0  0  0  0  0
  -25.3738  -31.3819   26.1536 C   0  0  0  0  0  0
  -27.0342  -30.3013   24.6313 C   0  0  0  0  0  0
  -27.6037  -32.4388   25.7529 C   0  0  0  0  0  0
  -27.5570  -37.1779   24.8460 C   0  0  0  0  0  0
  -21.4199  -29.3064   22.3596 N   0  0  0  0  0  0
  -26.4270  -37.3768   23.9413 N   0  0  0  0  0  0
  -24.7002  -31.0442   22.0976 N   0  0  0  0  0  0
  -23.4175  -28.8121   23.2953 O   0  0  0  0  0  0
  -28.3231  -26.3213   20.2206 O   0  0  0  0  0  0
  -26.5633  -34.8890   22.4654 O   0  0  0  0  0  0
  -23.5460  -32.1350   23.7229 O   0  0  0  0  0  0
  -30.7116  -17.3711   20.7853 C   0  0  0  0  0  0
  -29.6531  -18.1476   20.3882 C   0  0  0  0  0  0
  -29.6924  -20.7861   20.5971 C   0  0  0  0  0  0
  -28.0565  -24.8272   20.1416 C   0  0  0  0  0  0
  -29.1582  -23.6635   20.5064 C   0  0  1  0  0  0
  -28.7901  -22.0843   20.2138 C   0  0  0  0  0  0
  -30.1139  -16.0370   20.6893 N   0  0  0  0  0  0
  -29.2532  -19.5401   20.1608 N   0  0  0  0  0  0
  -30.7039  -20.9025   21.2976 O   0  0  0  0  0  0
  -30.3027  -23.9671   19.8871 F   0  0  0  0  0  0
  -28.5502  -21.9983   18.9051 F   0  0  0  0  0  0
  -27.6230  -21.8914   20.8280 F   0  0  0  0  0  0
  -28.6600  -16.7463   20.0470 S   0  0  0  0  0  0
  -31.4760  -12.5904   19.1799 H   0  0  0  0  0  0
  -30.3732  -11.5498   20.0305 H   0  0  0  0  0  0
  -29.8118  -11.6707   17.5809 H   0  0  0  0  0  0
  -29.6366  -13.4034   17.6763 H   0  0  0  0  0  0
  -27.9190  -11.2675   18.9758 H   0  0  0  0  0  0
  -27.3890  -12.4596   17.8167 H   0  0  0  0  0  0
  -27.5984  -14.2346   19.3910 H   0  0  0  0  0  0
  -28.7492  -12.3273   21.4998 H   0  0  0  0  0  0
  -28.4241  -14.0326   21.7074 H   0  0  0  0  0  0
  -25.2826   -9.5652   22.4780 H   0  0  0  0  0  0
  -24.0014   -7.4641   22.7508 H   0  0  0  0  0  0
  -21.0864   -8.8944   19.9024 H   0  0  0  0  0  0
  -22.3833  -10.9754   19.6247 H   0  0  0  0  0  0
  -21.2096   -7.6161   23.9735 H   0  0  0  0  0  0
  -21.1433   -6.0505   25.9055 H   0  0  0  0  0  0
  -22.0609   -2.7641   23.2784 H   0  0  0  0  0  0
  -22.3996  -11.9961   22.4909 H   0  0  0  0  0  0
  -21.1100  -13.1420   22.2664 H   0  0  0  0  0  0
  -24.6063  -15.8251   20.4810 H   0  0  0  0  0  0
  -26.2207  -15.6446   20.0180 H   0  0  0  0  0  0
  -26.7185  -32.5354   23.1080 H   0  0  0  0  0  0
  -25.0066  -33.9699   25.0391 H   0  0  0  0  0  0
  -22.7319  -31.2969   21.3861 H   0  0  0  0  0  0
  -23.3734  -35.9618   23.3290 H   0  0  0  0  0  0
  -24.3583  -36.8908   22.2049 H   0  0  0  0  0  0
  -23.7250  -37.6474   23.6675 H   0  0  0  0  0  0
  -26.1336  -31.5110   20.6238 H   0  0  0  0  0  0
  -26.8527  -30.7977   22.0336 H   0  0  0  0  0  0
  -28.1131  -28.8857   21.2670 H   0  0  0  0  0  0
  -25.9908  -25.9123   18.9616 H   0  0  0  0  0  0
  -24.0135  -27.3168   18.9470 H   0  0  0  0  0  0
  -23.7946  -30.5865   19.4019 H   0  0  0  0  0  0
  -22.7783  -29.2486   19.8332 H   0  0  0  0  0  0
  -25.1281  -36.1884   25.0806 H   0  0  0  0  0  0
  -21.0025  -28.3322   24.1349 H   0  0  0  0  0  0
  -20.5731  -26.2323   23.3593 H   0  0  0  0  0  0
  -21.6655  -26.7477   22.1152 H   0  0  0  0  0  0
  -19.6917  -25.6276   21.1279 H   0  0  0  0  0  0
  -19.6687  -27.3152   20.6705 H   0  0  0  0  0  0
  -17.4192  -26.6657   21.4078 H   0  0  0  0  0  0
  -18.0397  -26.0102   22.9075 H   0  0  0  0  0  0
  -19.7964  -30.7288   24.2260 H   0  0  0  0  0  0
  -17.5057  -31.6303   24.5148 H   0  0  0  0  0  0
  -15.5383  -30.3037   23.7658 H   0  0  0  0  0  0
  -15.8685  -28.0823   22.7158 H   0  0  0  0  0  0
  -24.5678  -30.7473   25.7845 H   0  0  0  0  0  0
  -24.9245  -32.3054   26.5208 H   0  0  0  0  0  0
  -25.8025  -30.8715   27.0171 H   0  0  0  0  0  0
  -26.2950  -29.6782   24.1275 H   0  0  0  0  0  0
  -27.3925  -29.7273   25.4862 H   0  0  0  0  0  0
  -27.8877  -30.4267   23.9652 H   0  0  0  0  0  0
  -27.2598  -33.3642   26.2165 H   0  0  0  0  0  0
  -28.3810  -32.7052   25.0357 H   0  0  0  0  0  0
  -28.0772  -31.8522   26.5412 H   0  0  0  0  0  0
  -28.2550  -38.0109   24.7536 H   0  0  0  0  0  0
  -28.1098  -36.2635   24.6244 H   0  0  0  0  0  0
  -27.2292  -37.1387   25.8863 H   0  0  0  0  0  0
  -20.9385  -29.8751   21.6777 H   0  0  0  0  0  0
  -26.0127  -38.2811   24.1491 H   0  0  0  0  0  0
  -31.7375  -17.4432   21.1456 H   0  0  0  0  0  0
  -27.1976  -24.6486   20.7937 H   0  0  0  0  0  0
  -27.6886  -24.6067   19.1375 H   0  0  0  0  0  0
  -29.3923  -23.7571   21.5705 H   0  0  0  0  0  0
  -28.4466  -19.6306   19.5531 H   0  0  0  0  0  0
  1 25  1  0  0  0
  1 30  2  0  0  0
  1 77  1  0  0  0
  2  3  1  0  0  0
  2 25  1  0  0  0
  2 84  1  0  0  0
  2 85  1  0  0  0
  3  4  1  0  0  0
  3 86  1  0  0  0
  3 87  1  0  0  0
  4  5  1  0  0  0
  4 88  1  0  0  0
  4 89  1  0  0  0
  5  6  1  0  0  0
  5 26  1  0  0  0
  5 90  1  0  0  0
  6 25  1  0  0  0
  6 91  1  0  0  0
  6 92  1  0  0  0
  7  8  2  0  0  0
  7 26  1  0  0  0
  7 29  1  0  0  0
  8  9  1  0  0  0
  8 22  1  0  0  0
  9 10  1  0  0  0
  9 27  2  0  0  0
 10 11  2  0  0  0
 10 15  1  0  0  0
 11 12  1  0  0  0
 11 93  1  0  0  0
 12 13  2  0  0  0
 12 94  1  0  0  0
 13 14  1  0  0  0
 13 31  1  0  0  0
 14 15  2  0  0  0
 14 95  1  0  0  0
 15 96  1  0  0  0
 16 17  2  0  0  0
 16 21  1  0  0  0
 16 31  1  0  0  0
 17 18  1  0  0  0
 17 97  1  0  0  0
 18 19  2  0  0  0
 18 98  1  0  0  0
 19 20  1  0  0  0
 19 24  1  0  0  0
 20 21  2  0  0  0
 20 99  1  0  0  0
 21 23  1  0  0  0
 22 28  1  0  0  0
 22 32  2  0  0  0
 26 27  1  0  0  0
 28100  1  0  0  0
 28101  1  0  0  0
 29102  1  0  0  0
 29103  1  0  0  0
 33 34  1  0  0  0
 33 66  1  0  0  0
 33 70  2  0  0  0
 34 36  1  0  0  0
 34 59  1  0  0  0
 34104  1  0  0  0
 35 44  2  0  0  0
 35 45  1  0  0  0
 35 68  1  0  0  0
 36 56  1  0  0  0
 36105  1  0  0  0
 37 39  1  0  0  0
 37 47  1  0  0  0
 37 66  1  0  0  0
 37106  1  0  0  0
 38 43  2  0  0  0
 38 46  1  0  0  0
 38 47  1  0  0  0
 39 64  1  0  0  0
 39 67  2  0  0  0
 40 52  1  0  0  0
 40 53  2  0  0  0
 40 58  1  0  0  0
 41107  1  0  0  0
 41108  1  0  0  0
 41109  1  0  0  0
 41 48  1  0  0  0
 42 43  1  0  0  0
 42 66  1  0  0  0
 42110  1  0  0  0
 42111  1  0  0  0
 43 44  1  0  0  0
 44112  1  0  0  0
 45 46  2  0  0  0
 45113  1  0  0  0
 46114  1  0  0  0
 47115  1  0  0  0
 47116  1  0  0  0
 48 56  1  0  0  0
 48 65  1  0  0  0
 48117  1  0  0  0
 49 50  1  0  0  0
 49 53  1  0  0  0
 49 64  1  0  0  0
 49118  1  0  0  0
 50 51  1  0  0  0
 50119  1  0  0  0
 50120  1  0  0  0
 51 52  1  0  0  0
 51121  1  0  0  0
 51122  1  0  0  0
 52123  1  0  0  0
 52124  1  0  0  0
 53 54  1  0  0  0
 54 55  2  0  0  0
 54125  1  0  0  0
 55 57  1  0  0  0
 55126  1  0  0  0
 56 69  2  0  0  0
 57 58  2  0  0  0
 57127  1  0  0  0
 58128  1  0  0  0
 59 60  1  0  0  0
 59 61  1  0  0  0
 59 62  1  0  0  0
 60129  1  0  0  0
 60130  1  0  0  0
 60131  1  0  0  0
 61132  1  0  0  0
 61133  1  0  0  0
 61134  1  0  0  0
 62135  1  0  0  0
 62136  1  0  0  0
 62137  1  0  0  0
 63 65  1  0  0  0
 63138  1  0  0  0
 63139  1  0  0  0
 63140  1  0  0  0
 64141  1  0  0  0
 65142  1  0  0  0
 68 74  1  0  0  0
 71 72  2  0  0  0
 71 77  1  0  0  0
 71143  1  0  0  0
 72 78  1  0  0  0
 72 83  1  0  0  0
 73 76  1  0  0  0
 73 78  1  0  0  0
 73 79  2  0  0  0
 74 75  1  0  0  0
 74144  1  0  0  0
 74145  1  0  0  0
 75 76  1  0  0  0
 75 80  1  0  0  0
 75146  1  0  0  0
 76 81  1  0  0  0
 76 82  1  0  0  0
 77 83  1  0  0  0
 78147  1  0  0  0
M  ISO  4   1 100  68 101  74 101  77 100
M  END
> <chiral flag>
0

> <version>
0

> <s_m_source_file>
/data/baiqing/PycharmProjects/Reinvent-master-3.2/result/LINK_invent/BTK/process_docking_weight1_custom_product_contain_oxygen_bond_distance_aromatic_linkinvent_7_9_3/rearranged_h_0183.sdf

> <i_m_source_file_index>
83

> <r_mmod_Potential_Energy-OPLS-2005>
306.863922119141

> <r_mmod_Stretch_Energy-OPLS-2005>
148.606811523438

> <r_mmod_Bend_Energy-OPLS-2005>
281.734436035156

> <r_mmod_Torsional_Energy-OPLS-2005>
226.546203613281

> <r_mmod_Improper_Torsional_Energy-OPLS-2005>
7.93012285232544

> <r_mmod_Van_der_Waal_Energy-OPLS-2005>
114.170341491699

> <r_mmod_Electrostatic_Energy-OPLS-2005>
-366.926483154297

> <r_mmod_Solvation_Energy-OPLS-2005>
-219.734558105469

> <b_mmod_Minimization_Converged-OPLS-2005>
0

> <r_mmod_RMS_Derivative-OPLS-2005>
7.38621616363525

$$$$
83
                    3D
 Structure written by MMmdl.
151159  0  0  1  0            999 V2000
  -30.6055  -14.7566   20.4388 C   0  0  0  0  0  0
  -30.4358  -12.4506   19.4880 C   0  0  0  0  0  0
  -29.5186  -12.5109   18.2451 C   0  0  0  0  0  0
  -28.0421  -12.3320   18.6497 C   0  0  0  0  0  0
  -27.6417  -13.2335   19.8470 C   0  0  2  0  0  0
  -28.6840  -13.1766   20.9826 C   0  0  0  0  0  0
  -25.2493  -13.8121   20.5727 C   0  0  0  0  0  0
  -24.1780  -13.0381   20.9197 C   0  0  0  0  0  0
  -24.6389  -11.6873   20.8732 C   0  0  0  0  0  0
  -23.9067  -10.4262   21.0396 C   0  0  0  0  0  0
  -24.3616   -9.4186   21.9181 C   0  0  0  0  0  0
  -23.6287   -8.2227   22.0757 C   0  0  0  0  0  0
  -22.4268   -8.0267   21.3545 C   0  0  0  0  0  0
  -21.9902   -9.0237   20.4643 C   0  0  0  0  0  0
  -22.7238  -10.2112   20.3046 C   0  0  0  0  0  0
  -21.6846   -6.0728   22.5280 C   0  0  0  0  0  0
  -21.4010   -6.5637   23.8214 C   0  0  0  0  0  0
  -21.3662   -5.6792   24.9179 C   0  0  0  0  0  0
  -21.6044   -4.3052   24.7228 C   0  0  0  0  0  0
  -21.8820   -3.8142   23.4350 C   0  0  0  0  0  0
  -21.9191   -4.6957   22.3404 C   0  0  0  0  0  0
  -22.7809  -13.5181   21.1868 C   0  0  0  0  0  0
  -22.1661   -4.2145   21.0979 F   0  0  0  0  0  0
  -21.5631   -3.4537   25.7741 F   0  0  0  0  0  0
  -29.9966  -13.5181   20.4173 N   0  0  0  0  0  0
  -26.2939  -12.9370   20.3273 N   0  0  0  0  0  0
  -25.9324  -11.6506   20.5724 N   0  0  0  0  0  0
  -22.0457  -12.8176   22.0430 N   0  0  0  0  0  0
  -25.4164  -15.1817   20.4242 N   0  0  0  0  0  0
  -31.8019  -14.8151   20.1463 O   0  0  0  0  0  0
  -21.6628   -6.8869   21.4241 O   0  0  0  0  0  0
  -22.3499  -14.5501   20.6731 O   0  0  0  0  0  0
  -24.6330  -31.8562   23.2010 C   0  0  0  0  0  0
  -25.9154  -32.4759   23.8347 C   0  0  1  0  0  0
  -27.2174  -27.2518   20.1135 C   0  0  0  0  0  0
  -25.5953  -33.8562   24.2266 N   0  0  0  0  0  0
  -23.4293  -30.4836   21.5449 C   0  0  2  0  0  0
  -24.8748  -28.9371   20.1102 C   0  0  0  0  0  0
  -22.7512  -29.4622   22.4907 C   0  0  0  0  0  0
  -18.0302  -28.1387   22.8486 C   0  0  0  0  0  0
  -24.1488  -36.7280   23.2636 C   0  0  0  0  0  0
  -25.9797  -30.7634   21.3874 C   0  0  0  0  0  0
  -26.0495  -29.3870   20.7259 C   0  0  0  0  0  0
  -27.2198  -28.5558   20.7234 C   0  0  0  0  0  0
  -26.0135  -26.8907   19.4566 C   0  0  0  0  0  0
  -24.8632  -27.6958   19.4666 C   0  0  0  0  0  0
  -23.6479  -29.8254   20.1594 C   0  0  0  0  0  0
  -25.4116  -36.3073   24.0319 C   0  0  1  0  0  0
  -20.5907  -28.3706   23.1258 C   0  0  2  0  0  0
  -20.6795  -26.9424   22.5400 C   0  0  0  0  0  0
  -19.5765  -26.6385   21.5212 C   0  0  0  0  0  0
  -18.1945  -26.7932   22.1624 C   0  0  0  0  0  0
  -19.1555  -28.8863   23.2866 C   0  0  0  0  0  0
  -18.9473  -30.1464   23.8886 C   0  0  0  0  0  0
  -17.6470  -30.6587   24.0563 C   0  0  0  0  0  0
  -25.9060  -34.9441   23.5093 C   0  0  0  0  0  0
  -16.5361  -29.9082   23.6330 C   0  0  0  0  0  0
  -16.7287  -28.6499   23.0354 C   0  0  0  0  0  0
  -26.4511  -31.6585   25.0738 C   0  0  0  0  0  0
  -25.3718  -31.3739   26.1445 C   0  0  0  0  0  0
  -27.0372  -30.2997   24.6250 C   0  0  0  0  0  0
  -27.6064  -32.4334   25.7506 C   0  0  0  0  0  0
  -27.5580  -37.1796   24.8463 C   0  0  0  0  0  0
  -21.4218  -29.3055   22.3643 N   0  0  0  0  0  0
  -26.4295  -37.3772   23.9404 N   0  0  0  0  0  0
  -24.6998  -31.0518   22.1001 N   0  0  0  0  0  0
  -23.4207  -28.8154   23.3005 O   0  0  0  0  0  0
  -28.3043  -26.3327   20.1875 O   0  0  0  0  0  0
  -26.5626  -34.8917   22.4660 O   0  0  0  0  0  0
  -23.5476  -32.1407   23.7287 O   0  0  0  0  0  0
  -29.5046  -18.4884   20.3524 C   0  0  0  0  0  0
  -28.2178  -18.7522   19.9089 C   0  0  0  0  0  0
  -28.8092  -21.0064   20.1638 C   0  0  0  0  0  0
  -30.2305  -17.1423   20.4829 C   0  0  0  0  0  0
  -28.9605  -23.6850   20.2536 C   0  0  0  0  0  0
  -27.1789  -17.7729   19.4615 C   0  0  0  0  0  0
  -28.4349  -25.0131   18.1355 C   0  0  0  0  0  0
  -28.1398  -24.9309   19.6454 C   0  0  2  0  0  0
  -27.8625  -20.1225   19.8215 N   0  0  0  0  0  0
  -29.7560  -15.9119   20.5975 N   0  0  0  0  0  0
  -28.4544  -22.4290   19.9770 N   0  0  0  0  0  0
  -29.9855  -23.8641   20.9165 O   0  0  0  0  0  0
  -30.2854  -20.0944   20.6665 S   0  0  0  0  0  0
  -31.4797  -12.5591   19.1898 H   0  0  0  0  0  0
  -30.3662  -11.4751   19.9718 H   0  0  0  0  0  0
  -29.8044  -11.7422   17.5262 H   0  0  0  0  0  0
  -29.6472  -13.4688   17.7380 H   0  0  0  0  0  0
  -27.8998  -11.2837   18.9148 H   0  0  0  0  0  0
  -27.3881  -12.5211   17.7977 H   0  0  0  0  0  0
  -27.6339  -14.2545   19.4659 H   0  0  0  0  0  0
  -28.7103  -12.1850   21.4368 H   0  0  0  0  0  0
  -28.4160  -13.8708   21.7806 H   0  0  0  0  0  0
  -25.2759   -9.5666   22.4758 H   0  0  0  0  0  0
  -23.9992   -7.4617   22.7480 H   0  0  0  0  0  0
  -21.0833   -8.8755   19.8949 H   0  0  0  0  0  0
  -22.3695  -10.9651   19.6154 H   0  0  0  0  0  0
  -21.2003   -7.6146   23.9717 H   0  0  0  0  0  0
  -21.1486   -6.0522   25.9083 H   0  0  0  0  0  0
  -22.0598   -2.7602   23.2849 H   0  0  0  0  0  0
  -22.4071  -11.9829   22.4806 H   0  0  0  0  0  0
  -21.1084  -13.1214   22.2656 H   0  0  0  0  0  0
  -24.6612  -15.8438   20.5608 H   0  0  0  0  0  0
  -26.2988  -15.6124   20.1856 H   0  0  0  0  0  0
  -26.7216  -32.5399   23.1083 H   0  0  0  0  0  0
  -25.0101  -33.9698   25.0413 H   0  0  0  0  0  0
  -22.7258  -31.3067   21.4018 H   0  0  0  0  0  0
  -23.3758  -35.9609   23.3302 H   0  0  0  0  0  0
  -24.3579  -36.8907   22.2052 H   0  0  0  0  0  0
  -23.7239  -37.6476   23.6665 H   0  0  0  0  0  0
  -26.1253  -31.5253   20.6204 H   0  0  0  0  0  0
  -26.8556  -30.8072   22.0235 H   0  0  0  0  0  0
  -28.1141  -28.8947   21.2275 H   0  0  0  0  0  0
  -25.8999  -25.9630   18.9208 H   0  0  0  0  0  0
  -23.9676  -27.3490   18.9695 H   0  0  0  0  0  0
  -23.7737  -30.6052   19.4071 H   0  0  0  0  0  0
  -22.7658  -29.2616   19.8508 H   0  0  0  0  0  0
  -25.1301  -36.1925   25.0814 H   0  0  0  0  0  0
  -21.0000  -28.3298   24.1377 H   0  0  0  0  0  0
  -20.5714  -26.2316   23.3605 H   0  0  0  0  0  0
  -21.6658  -26.7459   22.1181 H   0  0  0  0  0  0
  -19.6924  -25.6293   21.1249 H   0  0  0  0  0  0
  -19.6698  -27.3186   20.6733 H   0  0  0  0  0  0
  -17.4215  -26.6680   21.4025 H   0  0  0  0  0  0
  -18.0344  -26.0075   22.9020 H   0  0  0  0  0  0
  -19.7951  -30.7285   24.2247 H   0  0  0  0  0  0
  -17.5028  -31.6271   24.5162 H   0  0  0  0  0  0
  -15.5362  -30.2984   23.7660 H   0  0  0  0  0  0
  -15.8688  -28.0816   22.7072 H   0  0  0  0  0  0
  -24.5906  -30.7073   25.7768 H   0  0  0  0  0  0
  -24.8883  -32.2904   26.4835 H   0  0  0  0  0  0
  -25.8023  -30.8940   27.0243 H   0  0  0  0  0  0
  -26.2975  -29.6721   24.1264 H   0  0  0  0  0  0
  -27.4035  -29.7287   25.4792 H   0  0  0  0  0  0
  -27.8862  -30.4267   23.9530 H   0  0  0  0  0  0
  -27.2682  -33.3657   26.2045 H   0  0  0  0  0  0
  -28.3892  -32.6859   25.0338 H   0  0  0  0  0  0
  -28.0714  -31.8477   26.5446 H   0  0  0  0  0  0
  -28.2592  -38.0098   24.7523 H   0  0  0  0  0  0
  -28.1086  -36.2628   24.6288 H   0  0  0  0  0  0
  -27.2294  -37.1446   25.8866 H   0  0  0  0  0  0
  -20.9405  -29.8772   21.6840 H   0  0  0  0  0  0
  -26.0173  -38.2846   24.1417 H   0  0  0  0  0  0
  -31.3158  -17.2725   20.4350 H   0  0  0  0  0  0
  -27.5831  -16.7738   19.3132 H   0  0  0  0  0  0
  -26.7357  -18.0756   18.5125 H   0  0  0  0  0  0
  -26.3720  -17.7138   20.1909 H   0  0  0  0  0  0
  -28.2737  -24.0557   17.6390 H   0  0  0  0  0  0
  -29.4711  -25.3044   17.9612 H   0  0  0  0  0  0
  -27.8043  -25.7453   17.6331 H   0  0  0  0  0  0
  -27.1157  -24.6053   19.8128 H   0  0  0  0  0  0
  -27.5783  -22.5139   19.4846 H   0  0  0  0  0  0
  1 25  1  0  0  0
  1 30  2  0  0  0
  1 80  1  0  0  0
  2  3  1  0  0  0
  2 25  1  0  0  0
  2 84  1  0  0  0
  2 85  1  0  0  0
  3  4  1  0  0  0
  3 86  1  0  0  0
  3 87  1  0  0  0
  4  5  1  0  0  0
  4 88  1  0  0  0
  4 89  1  0  0  0
  5  6  1  0  0  0
  5 26  1  0  0  0
  5 90  1  0  0  0
  6 25  1  0  0  0
  6 91  1  0  0  0
  6 92  1  0  0  0
  7  8  2  0  0  0
  7 26  1  0  0  0
  7 29  1  0  0  0
  8  9  1  0  0  0
  8 22  1  0  0  0
  9 10  1  0  0  0
  9 27  2  0  0  0
 10 11  2  0  0  0
 10 15  1  0  0  0
 11 12  1  0  0  0
 11 93  1  0  0  0
 12 13  2  0  0  0
 12 94  1  0  0  0
 13 14  1  0  0  0
 13 31  1  0  0  0
 14 15  2  0  0  0
 14 95  1  0  0  0
 15 96  1  0  0  0
 16 17  2  0  0  0
 16 21  1  0  0  0
 16 31  1  0  0  0
 17 18  1  0  0  0
 17 97  1  0  0  0
 18 19  2  0  0  0
 18 98  1  0  0  0
 19 20  1  0  0  0
 19 24  1  0  0  0
 20 21  2  0  0  0
 20 99  1  0  0  0
 21 23  1  0  0  0
 22 28  1  0  0  0
 22 32  2  0  0  0
 26 27  1  0  0  0
 28100  1  0  0  0
 28101  1  0  0  0
 29102  1  0  0  0
 29103  1  0  0  0
 33 34  1  0  0  0
 33 66  1  0  0  0
 33 70  2  0  0  0
 34 36  1  0  0  0
 34 59  1  0  0  0
 34104  1  0  0  0
 35 44  2  0  0  0
 35 45  1  0  0  0
 35 68  1  0  0  0
 36 56  1  0  0  0
 36105  1  0  0  0
 37 39  1  0  0  0
 37 47  1  0  0  0
 37 66  1  0  0  0
 37106  1  0  0  0
 38 43  2  0  0  0
 38 46  1  0  0  0
 38 47  1  0  0  0
 39 64  1  0  0  0
 39 67  2  0  0  0
 40 52  1  0  0  0
 40 53  2  0  0  0
 40 58  1  0  0  0
 41107  1  0  0  0
 41108  1  0  0  0
 41109  1  0  0  0
 41 48  1  0  0  0
 42 43  1  0  0  0
 42 66  1  0  0  0
 42110  1  0  0  0
 42111  1  0  0  0
 43 44  1  0  0  0
 44112  1  0  0  0
 45 46  2  0  0  0
 45113  1  0  0  0
 46114  1  0  0  0
 47115  1  0  0  0
 47116  1  0  0  0
 48 56  1  0  0  0
 48 65  1  0  0  0
 48117  1  0  0  0
 49 50  1  0  0  0
 49 53  1  0  0  0
 49 64  1  0  0  0
 49118  1  0  0  0
 50 51  1  0  0  0
 50119  1  0  0  0
 50120  1  0  0  0
 51 52  1  0  0  0
 51121  1  0  0  0
 51122  1  0  0  0
 52123  1  0  0  0
 52124  1  0  0  0
 53 54  1  0  0  0
 54 55  2  0  0  0
 54125  1  0  0  0
 55 57  1  0  0  0
 55126  1  0  0  0
 56 69  2  0  0  0
 57 58  2  0  0  0
 57127  1  0  0  0
 58128  1  0  0  0
 59 60  1  0  0  0
 59 61  1  0  0  0
 59 62  1  0  0  0
 60129  1  0  0  0
 60130  1  0  0  0
 60131  1  0  0  0
 61132  1  0  0  0
 61133  1  0  0  0
 61134  1  0  0  0
 62135  1  0  0  0
 62136  1  0  0  0
 62137  1  0  0  0
 63 65  1  0  0  0
 63138  1  0  0  0
 63139  1  0  0  0
 63140  1  0  0  0
 64141  1  0  0  0
 65142  1  0  0  0
 68 78  1  0  0  0
 71 72  2  0  0  0
 71 74  1  0  0  0
 71 83  1  0  0  0
 72 76  1  0  0  0
 72 79  1  0  0  0
 73 79  2  0  0  0
 73 81  1  0  0  0
 73 83  1  0  0  0
 74 80  2  0  0  0
 74143  1  0  0  0
 75 78  1  0  0  0
 75 81  1  0  0  0
 75 82  2  0  0  0
 76144  1  0  0  0
 76145  1  0  0  0
 76146  1  0  0  0
 77147  1  0  0  0
 77148  1  0  0  0
 77149  1  0  0  0
 77 78  1  0  0  0
 78150  1  0  0  0
 81151  1  0  0  0
M  ISO  4   1 100  68 101  78 101  80 100
M  END
> <chiral flag>
0

> <version>
0

> <s_m_source_file>
/data/baiqing/PycharmProjects/Reinvent-master-3.2/result/LINK_invent/BTK/process_docking_weight1_custom_product_contain_oxygen_bond_distance_aromatic_linkinvent_7_9_3/rearranged_h_0183.sdf

> <i_m_source_file_index>
84

> <r_mmod_Potential_Energy-OPLS-2005>
93.3808898925781

> <r_mmod_Stretch_Energy-OPLS-2005>
121.733253479004

> <r_mmod_Bend_Energy-OPLS-2005>
203.42317199707

> <r_mmod_Torsional_Energy-OPLS-2005>
177.431991577148

> <r_mmod_Improper_Torsional_Energy-OPLS-2005>
5.05837202072144

> <r_mmod_Van_der_Waal_Energy-OPLS-2005>
128.155746459961

> <r_mmod_Electrostatic_Energy-OPLS-2005>
-419.016326904297

> <r_mmod_Solvation_Energy-OPLS-2005>
-215.321670532227

> <b_mmod_Minimization_Converged-OPLS-2005>
0

> <r_mmod_RMS_Derivative-OPLS-2005>
0.897727370262146

$$$$
84
                    3D
 Structure written by MMmdl.
153161  0  0  1  0            999 V2000
  -29.2104  -15.9296   20.7608 C   0  0  0  0  0  0
  -30.1830  -13.4677   19.7458 C   0  0  0  0  0  0
  -29.5120  -12.8215   18.4749 C   0  0  0  0  0  0
  -28.1123  -12.2886   18.8058 C   0  0  0  0  0  0
  -27.4619  -13.2433   19.8231 C   0  0  2  0  0  0
  -28.2951  -13.5008   21.0699 C   0  0  0  0  0  0
  -25.1620  -13.7971   20.5618 C   0  0  0  0  0  0
  -24.1110  -13.0201   20.9242 C   0  0  0  0  0  0
  -24.5818  -11.6713   20.8723 C   0  0  0  0  0  0
  -23.8718  -10.4134   21.0471 C   0  0  0  0  0  0
  -24.3436   -9.4122   21.9227 C   0  0  0  0  0  0
  -23.6195   -8.2124   22.0758 C   0  0  0  0  0  0
  -22.4185   -8.0146   21.3533 C   0  0  0  0  0  0
  -21.9731   -9.0078   20.4645 C   0  0  0  0  0  0
  -22.6958  -10.1983   20.3078 C   0  0  0  0  0  0
  -21.6808   -6.0659   22.5291 C   0  0  0  0  0  0
  -21.3976   -6.5592   23.8215 C   0  0  0  0  0  0
  -21.3647   -5.6762   24.9188 C   0  0  0  0  0  0
  -21.6051   -4.3026   24.7249 C   0  0  0  0  0  0
  -21.8829   -3.8099   23.4376 C   0  0  0  0  0  0
  -21.9180   -4.6899   22.3422 C   0  0  0  0  0  0
  -22.7268  -13.5071   21.2028 C   0  0  0  0  0  0
  -22.1653   -4.2089   21.0998 F   0  0  0  0  0  0
  -21.5640   -3.4521   25.7769 F   0  0  0  0  0  0
  -29.2379  -14.4451   20.5596 N   0  0  0  0  0  0
  -26.1649  -12.9052   20.2635 N   0  0  0  0  0  0
  -25.8589  -11.6244   20.5369 N   0  0  0  0  0  0
  -21.9995  -12.8097   22.0646 N   0  0  0  0  0  0
  -25.3448  -15.1715   20.4418 N   0  0  0  0  0  0
  -30.4480  -16.1169   20.4758 O   0  0  0  0  0  0
  -21.6570   -6.8754   21.4236 O   0  0  0  0  0  0
  -22.3062  -14.5451   20.6931 O   0  0  0  0  0  0
  -24.6542  -31.9539   23.2302 C   0  0  0  0  0  0
  -25.9519  -32.5121   23.8600 C   0  0  1  0  0  0
  -24.9879  -27.3111   20.7942 C   0  0  0  0  0  0
  -25.6404  -33.8869   24.2567 N   0  0  0  0  0  0
  -23.4488  -30.5374   21.6615 C   0  0  2  0  0  0
  -24.8612  -29.4765   19.6495 C   0  0  0  0  0  0
  -23.2613  -29.4030   22.7519 C   0  0  0  0  0  0
  -19.0074  -26.8930   22.4963 C   0  0  0  0  0  0
  -24.1522  -36.7370   23.2593 C   0  0  0  0  0  0
  -25.9608  -30.8348   21.4221 C   0  0  0  0  0  0
  -25.8233  -29.5463   20.6464 C   0  0  0  0  0  0
  -26.0451  -28.2719   21.1870 C   0  0  0  0  0  0
  -25.3772  -27.1040   19.4681 C   0  0  0  0  0  0
  -24.8602  -28.2683   18.8612 C   0  0  0  0  0  0
  -23.5656  -30.1794   20.0957 C   0  0  0  0  0  0
  -25.4148  -36.3232   24.0319 C   0  0  1  0  0  0
  -21.8790  -27.5430   23.7251 C   0  0  2  0  0  0
  -22.8031  -26.2904   22.5264 C   0  0  0  0  0  0
  -21.4409  -25.4669   20.7853 C   0  0  0  0  0  0
  -19.5311  -25.8813   21.2253 C   0  0  0  0  0  0
  -20.2343  -27.7445   23.7331 C   0  0  0  0  0  0
  -19.8579  -29.5042   24.1547 C   0  0  0  0  0  0
  -18.4938  -30.3180   23.4816 C   0  0  0  0  0  0
  -25.9166  -34.9638   23.5144 C   0  0  0  0  0  0
  -17.4161  -29.5511   22.4347 C   0  0  0  0  0  0
  -17.5908  -27.8926   21.9491 C   0  0  0  0  0  0
  -26.4660  -31.6740   25.0948 C   0  0  0  0  0  0
  -25.3751  -31.3750   26.1500 C   0  0  0  0  0  0
  -27.0683  -30.3228   24.6474 C   0  0  0  0  0  0
  -27.6126  -32.4435   25.7878 C   0  0  0  0  0  0
  -27.5609  -37.1900   24.8462 C   0  0  0  0  0  0
  -22.1497  -29.0028   23.2920 N   0  0  0  0  0  0
  -26.4313  -37.3926   23.9421 N   0  0  0  0  0  0
  -24.6976  -31.2076   22.0987 N   0  0  0  0  0  0
  -24.1897  -28.8416   23.2821 O   0  0  0  0  0  0
  -23.3857  -27.6153   20.7177 O   0  0  0  0  0  0
  -26.5529  -34.9030   22.4589 O   0  0  0  0  0  0
  -23.5769  -32.2145   23.7871 O   0  0  0  0  0  0
  -25.8672  -18.6577   20.1728 C   0  0  0  0  0  0
  -26.7167  -18.4498   21.2758 C   0  0  0  0  0  0
  -24.6749  -20.7506   21.8445 C   0  0  0  0  0  0
  -22.2242  -23.1938   22.4335 C   0  0  0  0  0  0
  -25.9843  -17.9072   18.8857 C   0  0  0  0  0  0
  -21.0897  -24.9665   22.9292 C   0  0  0  0  0  0
  -21.3166  -27.5656   21.4581 C   0  0  1  0  0  0
  -19.7233  -28.8791   21.9403 C   0  0  0  0  0  0
  -25.9193  -19.7471   22.1298 N   0  0  0  0  0  0
  -28.0694  -17.0794   21.3336 N   0  0  0  0  0  0
  -23.6551  -22.2699   22.4524 N   0  0  0  0  0  0
  -21.4024  -22.4635   21.8757 O   0  0  0  0  0  0
  -20.3371  -30.0967   21.8420 F   0  0  0  0  0  0
  -19.2508  -28.9807   20.6604 F   0  0  0  0  0  0
  -18.2428  -28.2464   23.8765 F   0  0  0  0  0  0
  -24.4701  -19.9441   20.2265 S   0  0  0  0  0  0
  -31.0718  -14.0054   19.4150 H   0  0  0  0  0  0
  -30.5795  -12.6869   20.3973 H   0  0  0  0  0  0
  -30.1405  -12.0368   18.0532 H   0  0  0  0  0  0
  -29.4234  -13.5867   17.7029 H   0  0  0  0  0  0
  -28.2057  -11.2931   19.2416 H   0  0  0  0  0  0
  -27.5080  -12.1872   17.9038 H   0  0  0  0  0  0
  -27.3251  -14.1665   19.2546 H   0  0  0  0  0  0
  -28.7155  -12.5920   21.5045 H   0  0  0  0  0  0
  -27.7143  -13.9825   21.8601 H   0  0  0  0  0  0
  -25.2588   -9.5670   22.4779 H   0  0  0  0  0  0
  -23.9938   -7.4514   22.7454 H   0  0  0  0  0  0
  -21.0674   -8.8557   19.8949 H   0  0  0  0  0  0
  -22.3412  -10.9534   19.6200 H   0  0  0  0  0  0
  -21.1946   -7.6100   23.9699 H   0  0  0  0  0  0
  -21.1470   -6.0497   25.9089 H   0  0  0  0  0  0
  -22.0628   -2.7562   23.2893 H   0  0  0  0  0  0
  -22.3631  -11.9735   22.4976 H   0  0  0  0  0  0
  -21.0662  -13.1176   22.2992 H   0  0  0  0  0  0
  -24.5891  -15.8245   20.6138 H   0  0  0  0  0  0
  -26.1990  -15.6208   20.1480 H   0  0  0  0  0  0
  -26.7580  -32.5542   23.1293 H   0  0  0  0  0  0
  -25.0732  -34.0046   25.0834 H   0  0  0  0  0  0
  -22.6054  -31.2238   21.7523 H   0  0  0  0  0  0
  -23.3821  -35.9664   23.3249 H   0  0  0  0  0  0
  -24.3629  -36.8991   22.2011 H   0  0  0  0  0  0
  -23.7222  -37.6557   23.6592 H   0  0  0  0  0  0
  -26.2404  -31.6349   20.7350 H   0  0  0  0  0  0
  -26.8010  -30.6937   22.0918 H   0  0  0  0  0  0
  -26.5416  -28.1720   22.1419 H   0  0  0  0  0  0
  -25.0935  -26.1939   18.9585 H   0  0  0  0  0  0
  -24.2117  -28.1589   18.0027 H   0  0  0  0  0  0
  -23.5322  -31.1178   19.5411 H   0  0  0  0  0  0
  -22.6805  -29.6429   19.7536 H   0  0  0  0  0  0
  -25.1296  -36.2106   25.0807 H   0  0  0  0  0  0
  -22.2313  -27.4108   24.7496 H   0  0  0  0  0  0
  -23.2133  -25.5109   23.1816 H   0  0  0  0  0  0
  -23.8550  -26.4441   22.4859 H   0  0  0  0  0  0
  -21.5572  -24.4439   20.4444 H   0  0  0  0  0  0
  -21.7443  -25.8805   19.8152 H   0  0  0  0  0  0
  -19.1000  -26.2973   20.3138 H   0  0  0  0  0  0
  -18.9715  -24.9454   21.3018 H   0  0  0  0  0  0
  -20.5191  -30.0771   24.7942 H   0  0  0  0  0  0
  -18.3251  -31.3549   23.7360 H   0  0  0  0  0  0
  -16.5908  -30.1219   22.0343 H   0  0  0  0  0  0
  -16.9298  -27.5075   21.1846 H   0  0  0  0  0  0
  -24.6044  -30.7050   25.7672 H   0  0  0  0  0  0
  -24.8817  -32.2859   26.4897 H   0  0  0  0  0  0
  -25.7974  -30.8915   27.0315 H   0  0  0  0  0  0
  -26.3439  -29.6906   24.1423 H   0  0  0  0  0  0
  -27.4294  -29.7514   25.5036 H   0  0  0  0  0  0
  -27.9234  -30.4602   23.9848 H   0  0  0  0  0  0
  -27.2673  -33.3678   26.2523 H   0  0  0  0  0  0
  -28.3989  -32.7087   25.0798 H   0  0  0  0  0  0
  -28.0740  -31.8507   26.5789 H   0  0  0  0  0  0
  -28.2598  -38.0230   24.7586 H   0  0  0  0  0  0
  -28.1144  -36.2773   24.6202 H   0  0  0  0  0  0
  -27.2331  -37.1443   25.8863 H   0  0  0  0  0  0
  -21.3455  -29.6001   23.1495 H   0  0  0  0  0  0
  -26.0196  -38.2991   24.1474 H   0  0  0  0  0  0
  -26.7807  -17.1637   18.9104 H   0  0  0  0  0  0
  -26.1945  -18.5921   18.0642 H   0  0  0  0  0  0
  -25.0502  -17.3958   18.6503 H   0  0  0  0  0  0
  -21.2808  -25.1067   23.9985 H   0  0  0  0  0  0
  -20.0805  -24.5789   23.0777 H   0  0  0  0  0  0
  -20.9849  -27.6567   20.4153 H   0  0  0  0  0  0
  -28.5953  -17.3539   22.1521 H   0  0  0  0  0  0
  -24.2639  -22.7857   23.0732 H   0  0  0  0  0  0
  1 25  1  0  0  0
  1 30  2  0  0  0
  1 80  1  0  0  0
  2  3  1  0  0  0
  2 25  1  0  0  0
  2 87  1  0  0  0
  2 88  1  0  0  0
  3  4  1  0  0  0
  3 89  1  0  0  0
  3 90  1  0  0  0
  4  5  1  0  0  0
  4 91  1  0  0  0
  4 92  1  0  0  0
  5  6  1  0  0  0
  5 26  1  0  0  0
  5 93  1  0  0  0
  6 25  1  0  0  0
  6 94  1  0  0  0
  6 95  1  0  0  0
  7  8  2  0  0  0
  7 26  1  0  0  0
  7 29  1  0  0  0
  8  9  1  0  0  0
  8 22  1  0  0  0
  9 10  1  0  0  0
  9 27  2  0  0  0
 10 11  2  0  0  0
 10 15  1  0  0  0
 11 12  1  0  0  0
 11 96  1  0  0  0
 12 13  2  0  0  0
 12 97  1  0  0  0
 13 14  1  0  0  0
 13 31  1  0  0  0
 14 15  2  0  0  0
 14 98  1  0  0  0
 15 99  1  0  0  0
 16 17  2  0  0  0
 16 21  1  0  0  0
 16 31  1  0  0  0
 17 18  1  0  0  0
 17100  1  0  0  0
 18 19  2  0  0  0
 18101  1  0  0  0
 19 20  1  0  0  0
 19 24  1  0  0  0
 20 21  2  0  0  0
 20102  1  0  0  0
 21 23  1  0  0  0
 22 28  1  0  0  0
 22 32  2  0  0  0
 26 27  1  0  0  0
 28103  1  0  0  0
 28104  1  0  0  0
 29105  1  0  0  0
 29106  1  0  0  0
 33 34  1  0  0  0
 33 66  1  0  0  0
 33 70  2  0  0  0
 34 36  1  0  0  0
 34 59  1  0  0  0
 34107  1  0  0  0
 35 44  2  0  0  0
 35 45  1  0  0  0
 35 68  1  0  0  0
 36 56  1  0  0  0
 36108  1  0  0  0
 37 39  1  0  0  0
 37 47  1  0  0  0
 37 66  1  0  0  0
 37109  1  0  0  0
 38 43  2  0  0  0
 38 46  1  0  0  0
 38 47  1  0  0  0
 39 64  1  0  0  0
 39 67  2  0  0  0
 40 52  1  0  0  0
 40 53  2  0  0  0
 40 58  1  0  0  0
 41110  1  0  0  0
 41111  1  0  0  0
 41112  1  0  0  0
 41 48  1  0  0  0
 42 43  1  0  0  0
 42 66  1  0  0  0
 42113  1  0  0  0
 42114  1  0  0  0
 43 44  1  0  0  0
 44115  1  0  0  0
 45 46  2  0  0  0
 45116  1  0  0  0
 46117  1  0  0  0
 47118  1  0  0  0
 47119  1  0  0  0
 48 56  1  0  0  0
 48 65  1  0  0  0
 48120  1  0  0  0
 49 50  1  0  0  0
 49 53  1  0  0  0
 49 64  1  0  0  0
 49121  1  0  0  0
 50 51  1  0  0  0
 50122  1  0  0  0
 50123  1  0  0  0
 51 52  1  0  0  0
 51124  1  0  0  0
 51125  1  0  0  0
 52126  1  0  0  0
 52127  1  0  0  0
 53 54  1  0  0  0
 54 55  2  0  0  0
 54128  1  0  0  0
 55 57  1  0  0  0
 55129  1  0  0  0
 56 69  2  0  0  0
 57 58  2  0  0  0
 57130  1  0  0  0
 58131  1  0  0  0
 59 60  1  0  0  0
 59 61  1  0  0  0
 59 62  1  0  0  0
 60132  1  0  0  0
 60133  1  0  0  0
 60134  1  0  0  0
 61135  1  0  0  0
 61136  1  0  0  0
 61137  1  0  0  0
 62138  1  0  0  0
 62139  1  0  0  0
 62140  1  0  0  0
 63 65  1  0  0  0
 63141  1  0  0  0
 63142  1  0  0  0
 63143  1  0  0  0
 64144  1  0  0  0
 65145  1  0  0  0
 68 77  1  0  0  0
 71 72  2  0  0  0
 71 75  1  0  0  0
 71 86  1  0  0  0
 72 79  1  0  0  0
 72 80  1  0  0  0
 73 79  2  0  0  0
 73 81  1  0  0  0
 73 86  1  0  0  0
 74 76  1  0  0  0
 74 81  1  0  0  0
 74 82  2  0  0  0
 75146  1  0  0  0
 75147  1  0  0  0
 75148  1  0  0  0
 76149  1  0  0  0
 76150  1  0  0  0
 76 77  1  0  0  0
 77 78  1  0  0  0
 77151  1  0  0  0
 78 83  1  0  0  0
 78 84  1  0  0  0
 78 85  1  0  0  0
 80152  1  0  0  0
 81153  1  0  0  0
M  ISO  4   1 100  68 101  77 101  80 100
M  END
> <chiral flag>
0

> <version>
0

> <s_m_source_file>
/data/baiqing/PycharmProjects/Reinvent-master-3.2/result/LINK_invent/BTK/process_docking_weight1_custom_product_contain_oxygen_bond_distance_aromatic_linkinvent_7_9_3/rearranged_h_0183.sdf

> <i_m_source_file_index>
85

> <r_mmod_Potential_Energy-OPLS-2005>
25559.37890625

> <r_mmod_Stretch_Energy-OPLS-2005>
11669.892578125

> <r_mmod_Bend_Energy-OPLS-2005>
1770.17175292969

> <r_mmod_Torsional_Energy-OPLS-2005>
723.105834960938

> <r_mmod_Improper_Torsional_Energy-OPLS-2005>
90.4622344970703

> <r_mmod_Van_der_Waal_Energy-OPLS-2005>
3888.61840820312

> <r_mmod_Electrostatic_Energy-OPLS-2005>
-499.16357421875

> <r_mmod_Solvation_Energy-OPLS-2005>
-217.611480712891

> <b_mmod_Minimization_Converged-OPLS-2005>
0

> <r_mmod_RMS_Derivative-OPLS-2005>
2.75502419471741

$$$$
85
                    3D
 Structure written by MMmdl.
155163  0  0  1  0            999 V2000
  -30.6551  -14.6020   20.5064 C   0  0  0  0  0  0
  -30.4402  -12.3704   19.4425 C   0  0  0  0  0  0
  -29.5143  -12.5184   18.2176 C   0  0  0  0  0  0
  -28.0330  -12.3688   18.6245 C   0  0  0  0  0  0
  -27.6607  -13.2181   19.8695 C   0  0  2  0  0  0
  -28.7084  -13.0549   20.9934 C   0  0  0  0  0  0
  -25.2616  -13.8172   20.5719 C   0  0  0  0  0  0
  -24.1867  -13.0432   20.9219 C   0  0  0  0  0  0
  -24.6428  -11.6903   20.8729 C   0  0  0  0  0  0
  -23.9071  -10.4298   21.0398 C   0  0  0  0  0  0
  -24.3617   -9.4222   21.9179 C   0  0  0  0  0  0
  -23.6305   -8.2255   22.0745 C   0  0  0  0  0  0
  -22.4291   -8.0277   21.3535 C   0  0  0  0  0  0
  -21.9924   -9.0253   20.4643 C   0  0  0  0  0  0
  -22.7242  -10.2149   20.3057 C   0  0  0  0  0  0
  -21.6877   -6.0740   22.5277 C   0  0  0  0  0  0
  -21.4016   -6.5640   23.8210 C   0  0  0  0  0  0
  -21.3665   -5.6791   24.9170 C   0  0  0  0  0  0
  -21.6054   -4.3050   24.7223 C   0  0  0  0  0  0
  -21.8826   -3.8146   23.4344 C   0  0  0  0  0  0
  -21.9203   -4.6966   22.3403 C   0  0  0  0  0  0
  -22.7893  -13.5254   21.1853 C   0  0  0  0  0  0
  -22.1669   -4.2160   21.0979 F   0  0  0  0  0  0
  -21.5639   -3.4529   25.7738 F   0  0  0  0  0  0
  -30.0247  -13.3896   20.4273 N   0  0  0  0  0  0
  -26.3038  -12.9350   20.3346 N   0  0  0  0  0  0
  -25.9361  -11.6496   20.5741 N   0  0  0  0  0  0
  -22.0493  -12.8249   22.0381 N   0  0  0  0  0  0
  -25.4344  -15.1881   20.4118 N   0  0  0  0  0  0
  -31.8340  -14.7270   20.1554 O   0  0  0  0  0  0
  -21.6644   -6.8878   21.4248 O   0  0  0  0  0  0
  -22.3590  -14.5553   20.6692 O   0  0  0  0  0  0
  -24.6257  -31.8610   23.2040 C   0  0  0  0  0  0
  -25.9093  -32.4794   23.8386 C   0  0  1  0  0  0
  -27.2429  -27.3441   20.1249 C   0  0  0  0  0  0
  -25.5905  -33.8598   24.2294 N   0  0  0  0  0  0
  -23.4210  -30.4795   21.5456 C   0  0  2  0  0  0
  -24.8747  -28.9288   20.1224 C   0  0  0  0  0  0
  -22.7483  -29.4594   22.4941 C   0  0  0  0  0  0
  -18.0289  -28.1369   22.8493 C   0  0  0  0  0  0
  -24.1471  -36.7287   23.2636 C   0  0  0  0  0  0
  -25.9604  -30.7967   21.3755 C   0  0  0  0  0  0
  -26.0399  -29.4227   20.7263 C   0  0  0  0  0  0
  -27.2292  -28.6392   20.7204 C   0  0  0  0  0  0
  -26.0590  -26.8869   19.5135 C   0  0  0  0  0  0
  -24.8819  -27.6617   19.5135 C   0  0  0  0  0  0
  -23.6420  -29.8095   20.1639 C   0  0  0  0  0  0
  -25.4106  -36.3103   24.0335 C   0  0  1  0  0  0
  -20.5888  -28.3668   23.1295 C   0  0  2  0  0  0
  -20.6770  -26.9380   22.5424 C   0  0  0  0  0  0
  -19.5737  -26.6367   21.5231 C   0  0  0  0  0  0
  -18.1918  -26.7908   22.1641 C   0  0  0  0  0  0
  -19.1544  -28.8838   23.2880 C   0  0  0  0  0  0
  -18.9462  -30.1447   23.8887 C   0  0  0  0  0  0
  -17.6462  -30.6572   24.0573 C   0  0  0  0  0  0
  -25.9046  -34.9470   23.5124 C   0  0  0  0  0  0
  -16.5356  -29.9073   23.6334 C   0  0  0  0  0  0
  -16.7277  -28.6495   23.0346 C   0  0  0  0  0  0
  -26.4480  -31.6608   25.0763 C   0  0  0  0  0  0
  -25.3715  -31.3738   26.1494 C   0  0  0  0  0  0
  -27.0355  -30.3046   24.6223 C   0  0  0  0  0  0
  -27.6046  -32.4350   25.7501 C   0  0  0  0  0  0
  -27.5558  -37.1795   24.8460 C   0  0  0  0  0  0
  -21.4196  -29.3022   22.3700 N   0  0  0  0  0  0
  -26.4273  -37.3803   23.9424 N   0  0  0  0  0  0
  -24.6876  -31.0615   22.0994 N   0  0  0  0  0  0
  -23.4208  -28.8137   23.3013 O   0  0  0  0  0  0
  -28.3744  -26.5343   20.0544 O   0  0  0  0  0  0
  -26.5625  -34.8920   22.4695 O   0  0  0  0  0  0
  -23.5422  -32.1384   23.7373 O   0  0  0  0  0  0
  -29.1358  -18.0996   20.6459 C   0  0  0  0  0  0
  -31.0761  -19.0510   20.6792 C   0  0  0  0  0  0
  -30.1134  -17.1091   20.7003 C   0  0  0  0  0  0
  -29.4862  -23.2535   19.8166 C   0  0  0  0  0  0
  -29.7947  -21.9026   19.8183 C   0  0  0  0  0  0
  -28.3729  -23.9678   20.5313 C   0  0  0  0  0  0
  -31.1947  -22.1218   17.8546 C   0  0  0  0  0  0
  -28.5054  -25.4572   21.0391 C   0  0  0  0  0  0
  -29.1538  -20.7524   20.6633 C   0  0  2  0  0  0
  -31.3599  -17.7401   20.7111 N   0  0  0  0  0  0
  -29.7683  -19.3702   20.6236 N   0  0  0  0  0  0
  -29.8549  -15.6791   20.7834 N   0  0  0  0  0  0
  -27.3132  -23.3771   20.7636 O   0  0  0  0  0  0
  -27.7977  -20.6176   20.2869 O   0  0  0  0  0  0
  -30.7730  -21.3745   18.9973 O   0  0  0  0  0  0
  -31.4829  -12.4828   19.1405 H   0  0  0  0  0  0
  -30.3606  -11.3682   19.8673 H   0  0  0  0  0  0
  -29.7660  -11.7774   17.4580 H   0  0  0  0  0  0
  -29.6782  -13.4935   17.7548 H   0  0  0  0  0  0
  -27.8510  -11.3130   18.8285 H   0  0  0  0  0  0
  -27.3879  -12.6342   17.7863 H   0  0  0  0  0  0
  -27.6857  -14.2573   19.5449 H   0  0  0  0  0  0
  -28.7166  -12.0296   21.3650 H   0  0  0  0  0  0
  -28.4703  -13.6852   21.8516 H   0  0  0  0  0  0
  -25.2756   -9.5734   22.4747 H   0  0  0  0  0  0
  -24.0039   -7.4658   22.7454 H   0  0  0  0  0  0
  -21.0853   -8.8758   19.8933 H   0  0  0  0  0  0
  -22.3664  -10.9689   19.6168 H   0  0  0  0  0  0
  -21.1985   -7.6142   23.9731 H   0  0  0  0  0  0
  -21.1486   -6.0498   25.9081 H   0  0  0  0  0  0
  -22.0597   -2.7606   23.2834 H   0  0  0  0  0  0
  -22.4065  -11.9922   22.4827 H   0  0  0  0  0  0
  -21.1106  -13.1287   22.2521 H   0  0  0  0  0  0
  -24.6691  -15.8436   20.5222 H   0  0  0  0  0  0
  -26.2725  -15.6198   20.0431 H   0  0  0  0  0  0
  -26.7187  -32.5477   23.1159 H   0  0  0  0  0  0
  -25.0104  -33.9763   25.0468 H   0  0  0  0  0  0
  -22.7156  -31.2998   21.3974 H   0  0  0  0  0  0
  -23.3748  -35.9599   23.3334 H   0  0  0  0  0  0
  -24.3535  -36.8878   22.2030 H   0  0  0  0  0  0
  -23.7192  -37.6483   23.6654 H   0  0  0  0  0  0
  -26.0927  -31.5596   20.6071 H   0  0  0  0  0  0
  -26.8395  -30.8472   22.0055 H   0  0  0  0  0  0
  -28.1302  -29.0204   21.1798 H   0  0  0  0  0  0
  -26.0536  -25.9208   19.0299 H   0  0  0  0  0  0
  -23.9905  -27.2703   19.0462 H   0  0  0  0  0  0
  -23.7700  -30.5851   19.4081 H   0  0  0  0  0  0
  -22.7631  -29.2402   19.8556 H   0  0  0  0  0  0
  -25.1269  -36.1970   25.0827 H   0  0  0  0  0  0
  -20.9988  -28.3231   24.1413 H   0  0  0  0  0  0
  -20.5665  -26.2259   23.3623 H   0  0  0  0  0  0
  -21.6632  -26.7395   22.1198 H   0  0  0  0  0  0
  -19.6887  -25.6285   21.1231 H   0  0  0  0  0  0
  -19.6666  -27.3215   20.6798 H   0  0  0  0  0  0
  -17.4177  -26.6683   21.4041 H   0  0  0  0  0  0
  -18.0286  -26.0044   22.9030 H   0  0  0  0  0  0
  -19.7943  -30.7286   24.2198 H   0  0  0  0  0  0
  -17.5016  -31.6244   24.5195 H   0  0  0  0  0  0
  -15.5344  -30.2982   23.7642 H   0  0  0  0  0  0
  -15.8679  -28.0839   22.7021 H   0  0  0  0  0  0
  -24.5873  -30.7123   25.7797 H   0  0  0  0  0  0
  -24.8925  -32.2907   26.4952 H   0  0  0  0  0  0
  -25.8011  -30.8870   27.0264 H   0  0  0  0  0  0
  -26.2975  -29.6776   24.1221 H   0  0  0  0  0  0
  -27.4035  -29.7311   25.4739 H   0  0  0  0  0  0
  -27.8833  -30.4339   23.9494 H   0  0  0  0  0  0
  -27.2687  -33.3662   26.2078 H   0  0  0  0  0  0
  -28.3832  -32.6902   25.0301 H   0  0  0  0  0  0
  -28.0776  -31.8501   26.5401 H   0  0  0  0  0  0
  -28.2597  -38.0076   24.7544 H   0  0  0  0  0  0
  -28.1046  -36.2615   24.6276 H   0  0  0  0  0  0
  -27.2287  -37.1429   25.8866 H   0  0  0  0  0  0
  -20.9369  -29.8782   21.6952 H   0  0  0  0  0  0
  -26.0162  -38.2869   24.1492 H   0  0  0  0  0  0
  -28.0562  -18.0199   20.6338 H   0  0  0  0  0  0
  -31.8461  -19.8097   20.7178 H   0  0  0  0  0  0
  -30.0762  -23.9278   19.2185 H   0  0  0  0  0  0
  -31.7472  -23.0250   18.1134 H   0  0  0  0  0  0
  -30.3502  -22.3830   17.2135 H   0  0  0  0  0  0
  -31.8624  -21.4983   17.2610 H   0  0  0  0  0  0
  -29.4779  -25.5561   21.5189 H   0  0  0  0  0  0
  -27.7723  -25.6092   21.8333 H   0  0  0  0  0  0
  -29.1952  -21.0744   21.7058 H   0  0  0  0  0  0
  -28.9013  -15.4279   20.9952 H   0  0  0  0  0  0
  -27.4278  -21.4990   20.3367 H   0  0  0  0  0  0
  1 25  1  0  0  0
  1 30  2  0  0  0
  1 82  1  0  0  0
  2  3  1  0  0  0
  2 25  1  0  0  0
  2 86  1  0  0  0
  2 87  1  0  0  0
  3  4  1  0  0  0
  3 88  1  0  0  0
  3 89  1  0  0  0
  4  5  1  0  0  0
  4 90  1  0  0  0
  4 91  1  0  0  0
  5  6  1  0  0  0
  5 26  1  0  0  0
  5 92  1  0  0  0
  6 25  1  0  0  0
  6 93  1  0  0  0
  6 94  1  0  0  0
  7  8  2  0  0  0
  7 26  1  0  0  0
  7 29  1  0  0  0
  8  9  1  0  0  0
  8 22  1  0  0  0
  9 10  1  0  0  0
  9 27  2  0  0  0
 10 11  2  0  0  0
 10 15  1  0  0  0
 11 12  1  0  0  0
 11 95  1  0  0  0
 12 13  2  0  0  0
 12 96  1  0  0  0
 13 14  1  0  0  0
 13 31  1  0  0  0
 14 15  2  0  0  0
 14 97  1  0  0  0
 15 98  1  0  0  0
 16 17  2  0  0  0
 16 21  1  0  0  0
 16 31  1  0  0  0
 17 18  1  0  0  0
 17 99  1  0  0  0
 18 19  2  0  0  0
 18100  1  0  0  0
 19 20  1  0  0  0
 19 24  1  0  0  0
 20 21  2  0  0  0
 20101  1  0  0  0
 21 23  1  0  0  0
 22 28  1  0  0  0
 22 32  2  0  0  0
 26 27  1  0  0  0
 28102  1  0  0  0
 28103  1  0  0  0
 29104  1  0  0  0
 29105  1  0  0  0
 33 34  1  0  0  0
 33 66  1  0  0  0
 33 70  2  0  0  0
 34 36  1  0  0  0
 34 59  1  0  0  0
 34106  1  0  0  0
 35 44  2  0  0  0
 35 45  1  0  0  0
 35 68  1  0  0  0
 36 56  1  0  0  0
 36107  1  0  0  0
 37 39  1  0  0  0
 37 47  1  0  0  0
 37 66  1  0  0  0
 37108  1  0  0  0
 38 43  2  0  0  0
 38 46  1  0  0  0
 38 47  1  0  0  0
 39 64  1  0  0  0
 39 67  2  0  0  0
 40 52  1  0  0  0
 40 53  2  0  0  0
 40 58  1  0  0  0
 41109  1  0  0  0
 41110  1  0  0  0
 41111  1  0  0  0
 41 48  1  0  0  0
 42 43  1  0  0  0
 42 66  1  0  0  0
 42112  1  0  0  0
 42113  1  0  0  0
 43 44  1  0  0  0
 44114  1  0  0  0
 45 46  2  0  0  0
 45115  1  0  0  0
 46116  1  0  0  0
 47117  1  0  0  0
 47118  1  0  0  0
 48 56  1  0  0  0
 48 65  1  0  0  0
 48119  1  0  0  0
 49 50  1  0  0  0
 49 53  1  0  0  0
 49 64  1  0  0  0
 49120  1  0  0  0
 50 51  1  0  0  0
 50121  1  0  0  0
 50122  1  0  0  0
 51 52  1  0  0  0
 51123  1  0  0  0
 51124  1  0  0  0
 52125  1  0  0  0
 52126  1  0  0  0
 53 54  1  0  0  0
 54 55  2  0  0  0
 54127  1  0  0  0
 55 57  1  0  0  0
 55128  1  0  0  0
 56 69  2  0  0  0
 57 58  2  0  0  0
 57129  1  0  0  0
 58130  1  0  0  0
 59 60  1  0  0  0
 59 61  1  0  0  0
 59 62  1  0  0  0
 60131  1  0  0  0
 60132  1  0  0  0
 60133  1  0  0  0
 61134  1  0  0  0
 61135  1  0  0  0
 61136  1  0  0  0
 62137  1  0  0  0
 62138  1  0  0  0
 62139  1  0  0  0
 63 65  1  0  0  0
 63140  1  0  0  0
 63141  1  0  0  0
 63142  1  0  0  0
 64143  1  0  0  0
 65144  1  0  0  0
 68 78  1  0  0  0
 71 73  2  0  0  0
 71 81  1  0  0  0
 71145  1  0  0  0
 72 80  2  0  0  0
 72 81  1  0  0  0
 72146  1  0  0  0
 73 80  1  0  0  0
 73 82  1  0  0  0
 74 75  2  0  0  0
 74 76  1  0  0  0
 74147  1  0  0  0
 75 79  1  0  0  0
 75 85  1  0  0  0
 76 78  1  0  0  0
 76 83  2  0  0  0
 77 85  1  0  0  0
 77148  1  0  0  0
 77149  1  0  0  0
 77150  1  0  0  0
 78151  1  0  0  0
 78152  1  0  0  0
 79 81  1  0  0  0
 79 84  1  0  0  0
 79153  1  0  0  0
 82154  1  0  0  0
 84155  1  0  0  0
M  ISO  4   1 100  68 101  78 101  82 100
M  END
> <chiral flag>
0

> <version>
0

> <s_m_source_file>
/data/baiqing/PycharmProjects/Reinvent-master-3.2/result/LINK_invent/BTK/process_docking_weight1_custom_product_contain_oxygen_bond_distance_aromatic_linkinvent_7_9_3/rearranged_h_0183.sdf

> <i_m_source_file_index>
86

> <r_mmod_Potential_Energy-OPLS-2005>
-31.7000503540039

> <r_mmod_Stretch_Energy-OPLS-2005>
73.2439270019531

> <r_mmod_Bend_Energy-OPLS-2005>
156.056564331055

> <r_mmod_Torsional_Energy-OPLS-2005>
235.767303466797

> <r_mmod_Improper_Torsional_Energy-OPLS-2005>
5.67385005950928

> <r_mmod_Van_der_Waal_Energy-OPLS-2005>
126.709449768066

> <r_mmod_Electrostatic_Energy-OPLS-2005>
-400.944152832031

> <r_mmod_Solvation_Energy-OPLS-2005>
-263.682464599609

> <b_mmod_Minimization_Converged-OPLS-2005>
0

> <r_mmod_RMS_Derivative-OPLS-2005>
3.63858675956726

$$$$
86
                    3D
 Structure written by MMmdl.
153161  0  0  1  0            999 V2000
  -30.6070  -14.7813   20.4209 C   0  0  0  0  0  0
  -30.4362  -12.4808   19.4634 C   0  0  0  0  0  0
  -29.5113  -12.5185   18.2283 C   0  0  0  0  0  0
  -28.0390  -12.3341   18.6423 C   0  0  0  0  0  0
  -27.6434  -13.2349   19.8413 C   0  0  2  0  0  0
  -28.6931  -13.1891   20.9751 C   0  0  0  0  0  0
  -25.2545  -13.8181   20.5696 C   0  0  0  0  0  0
  -24.1820  -13.0437   20.9191 C   0  0  0  0  0  0
  -24.6393  -11.6902   20.8710 C   0  0  0  0  0  0
  -23.9046  -10.4278   21.0355 C   0  0  0  0  0  0
  -24.3581   -9.4203   21.9121 C   0  0  0  0  0  0
  -23.6274   -8.2244   22.0714 C   0  0  0  0  0  0
  -22.4271   -8.0258   21.3505 C   0  0  0  0  0  0
  -21.9895   -9.0209   20.4603 C   0  0  0  0  0  0
  -22.7206  -10.2096   20.3012 C   0  0  0  0  0  0
  -21.6875   -6.0701   22.5257 C   0  0  0  0  0  0
  -21.4017   -6.5592   23.8175 C   0  0  0  0  0  0
  -21.3677   -5.6761   24.9143 C   0  0  0  0  0  0
  -21.6076   -4.3032   24.7206 C   0  0  0  0  0  0
  -21.8831   -3.8113   23.4335 C   0  0  0  0  0  0
  -21.9189   -4.6922   22.3384 C   0  0  0  0  0  0
  -22.7829  -13.5186   21.1851 C   0  0  0  0  0  0
  -22.1664   -4.2082   21.0970 F   0  0  0  0  0  0
  -21.5642   -3.4533   25.7748 F   0  0  0  0  0  0
  -29.9931  -13.5463   20.3938 N   0  0  0  0  0  0
  -26.2963  -12.9393   20.3232 N   0  0  0  0  0  0
  -25.9356  -11.6524   20.5726 N   0  0  0  0  0  0
  -22.0500  -12.8163   22.0416 N   0  0  0  0  0  0
  -25.4305  -15.1901   20.4120 N   0  0  0  0  0  0
  -31.7851  -14.8761   20.0644 O   0  0  0  0  0  0
  -21.6678   -6.8837   21.4222 O   0  0  0  0  0  0
  -22.3504  -14.5465   20.6668 O   0  0  0  0  0  0
  -24.6277  -31.8567   23.2047 C   0  0  0  0  0  0
  -25.9133  -32.4753   23.8350 C   0  0  1  0  0  0
  -27.2058  -27.2660   20.1314 C   0  0  0  0  0  0
  -25.5983  -33.8571   24.2301 N   0  0  0  0  0  0
  -23.4210  -30.4828   21.5449 C   0  0  2  0  0  0
  -24.8726  -28.9404   20.1019 C   0  0  0  0  0  0
  -22.7474  -29.4595   22.4913 C   0  0  0  0  0  0
  -18.0291  -28.1372   22.8473 C   0  0  0  0  0  0
  -24.1504  -36.7299   23.2629 C   0  0  0  0  0  0
  -25.9645  -30.7731   21.3835 C   0  0  0  0  0  0
  -26.0391  -29.3964   20.7284 C   0  0  0  0  0  0
  -27.2054  -28.5658   20.7431 C   0  0  0  0  0  0
  -26.0309  -26.9038   19.4345 C   0  0  0  0  0  0
  -24.8735  -27.7033   19.4429 C   0  0  0  0  0  0
  -23.6427  -29.8254   20.1557 C   0  0  0  0  0  0
  -25.4119  -36.3067   24.0325 C   0  0  1  0  0  0
  -20.5896  -28.3675   23.1279 C   0  0  2  0  0  0
  -20.6784  -26.9397   22.5409 C   0  0  0  0  0  0
  -19.5767  -26.6375   21.5213 C   0  0  0  0  0  0
  -18.1943  -26.7913   22.1614 C   0  0  0  0  0  0
  -19.1537  -28.8845   23.2875 C   0  0  0  0  0  0
  -18.9451  -30.1451   23.8874 C   0  0  0  0  0  0
  -17.6438  -30.6566   24.0559 C   0  0  0  0  0  0
  -25.9051  -34.9440   23.5104 C   0  0  0  0  0  0
  -16.5338  -29.9045   23.6325 C   0  0  0  0  0  0
  -16.7271  -28.6485   23.0326 C   0  0  0  0  0  0
  -26.4547  -31.6520   25.0686 C   0  0  0  0  0  0
  -25.3808  -31.3635   26.1427 C   0  0  0  0  0  0
  -27.0371  -30.2920   24.6130 C   0  0  0  0  0  0
  -27.6093  -32.4234   25.7478 C   0  0  0  0  0  0
  -27.5592  -37.1807   24.8460 C   0  0  0  0  0  0
  -21.4189  -29.3030   22.3680 N   0  0  0  0  0  0
  -26.4309  -37.3747   23.9411 N   0  0  0  0  0  0
  -24.6894  -31.0543   22.1011 N   0  0  0  0  0  0
  -23.4195  -28.8110   23.2985 O   0  0  0  0  0  0
  -28.2789  -26.3485   20.2266 O   0  0  0  0  0  0
  -26.5576  -34.8907   22.4643 O   0  0  0  0  0  0
  -23.5435  -32.1409   23.7362 O   0  0  0  0  0  0
  -30.0586  -19.4454   18.8824 C   0  0  0  0  0  0
  -29.5637  -19.6794   20.1558 C   0  0  0  0  0  0
  -29.9417  -17.3039   20.2413 C   0  0  0  0  0  0
  -28.6988  -22.1807   20.1147 C   0  0  0  0  0  0
  -30.3221  -20.4196   17.7694 C   0  0  0  0  0  0
  -28.0052  -24.8740   20.0220 C   0  0  0  0  0  0
  -28.8356  -23.6712   20.7361 C   0  0  1  0  0  0
  -28.5124  -23.6709   22.2523 C   0  0  0  0  0  0
  -29.5104  -18.4345   20.9030 N   0  0  0  0  0  0
  -29.2886  -21.0481   20.6849 N   0  0  0  0  0  0
  -29.8490  -15.9059   20.7292 N   0  0  0  0  0  0
  -28.0083  -22.0647   19.0987 O   0  0  0  0  0  0
  -28.7429  -24.8760   22.7818 F   0  0  0  0  0  0
  -29.2761  -22.7873   22.8958 F   0  0  0  0  0  0
  -27.2346  -23.3456   22.4679 F   0  0  0  0  0  0
  -30.4614  -17.7396   18.6135 S   0  0  0  0  0  0
  -31.4704  -12.6142   19.1467 H   0  0  0  0  0  0
  -30.3913  -11.5053   19.9518 H   0  0  0  0  0  0
  -29.7992  -11.7434   17.5174 H   0  0  0  0  0  0
  -29.6298  -13.4707   17.7090 H   0  0  0  0  0  0
  -27.9048  -11.2848   18.9070 H   0  0  0  0  0  0
  -27.3824  -12.5266   17.7926 H   0  0  0  0  0  0
  -27.6310  -14.2546   19.4518 H   0  0  0  0  0  0
  -28.7471  -12.1976   21.4272 H   0  0  0  0  0  0
  -28.4221  -13.8793   21.7736 H   0  0  0  0  0  0
  -25.2730   -9.5705   22.4699 H   0  0  0  0  0  0
  -23.9975   -7.4674   22.7480 H   0  0  0  0  0  0
  -21.0802   -8.8688   19.8952 H   0  0  0  0  0  0
  -22.3598  -10.9598   19.6131 H   0  0  0  0  0  0
  -21.2003   -7.6111   23.9620 H   0  0  0  0  0  0
  -21.1512   -6.0526   25.9019 H   0  0  0  0  0  0
  -22.0605   -2.7574   23.2874 H   0  0  0  0  0  0
  -22.4146  -11.9837   22.4817 H   0  0  0  0  0  0
  -21.1082  -13.1134   22.2574 H   0  0  0  0  0  0
  -24.6812  -15.8613   20.5360 H   0  0  0  0  0  0
  -26.2786  -15.6172   20.0642 H   0  0  0  0  0  0
  -26.7165  -32.5414   23.1060 H   0  0  0  0  0  0
  -25.0219  -33.9720   25.0512 H   0  0  0  0  0  0
  -22.7103  -31.3010   21.4043 H   0  0  0  0  0  0
  -23.3757  -35.9638   23.3246 H   0  0  0  0  0  0
  -24.3594  -36.8971   22.2050 H   0  0  0  0  0  0
  -23.7280  -37.6504   23.6669 H   0  0  0  0  0  0
  -26.0950  -31.5354   20.6129 H   0  0  0  0  0  0
  -26.8437  -30.8248   22.0141 H   0  0  0  0  0  0
  -28.0884  -28.8993   21.2680 H   0  0  0  0  0  0
  -25.9774  -25.9788   18.8774 H   0  0  0  0  0  0
  -23.9845  -27.3642   18.9272 H   0  0  0  0  0  0
  -23.7759  -30.6118   19.4107 H   0  0  0  0  0  0
  -22.7582  -29.2690   19.8371 H   0  0  0  0  0  0
  -25.1304  -36.1902   25.0812 H   0  0  0  0  0  0
  -20.9970  -28.3246   24.1408 H   0  0  0  0  0  0
  -20.5692  -26.2274   23.3602 H   0  0  0  0  0  0
  -21.6644  -26.7433   22.1194 H   0  0  0  0  0  0
  -19.6915  -25.6288   21.1238 H   0  0  0  0  0  0
  -19.6710  -27.3194   20.6748 H   0  0  0  0  0  0
  -17.4213  -26.6681   21.3999 H   0  0  0  0  0  0
  -18.0325  -26.0049   22.9002 H   0  0  0  0  0  0
  -19.7922  -30.7304   24.2212 H   0  0  0  0  0  0
  -17.4975  -31.6237   24.5174 H   0  0  0  0  0  0
  -15.5328  -30.2919   23.7671 H   0  0  0  0  0  0
  -15.8693  -28.0805   22.6990 H   0  0  0  0  0  0
  -24.6012  -30.6935   25.7774 H   0  0  0  0  0  0
  -24.8987  -32.2791   26.4843 H   0  0  0  0  0  0
  -25.8190  -30.8838   27.0185 H   0  0  0  0  0  0
  -26.2915  -29.6630   24.1237 H   0  0  0  0  0  0
  -27.4143  -29.7193   25.4609 H   0  0  0  0  0  0
  -27.8763  -30.4150   23.9280 H   0  0  0  0  0  0
  -27.2702  -33.3544   26.2017 H   0  0  0  0  0  0
  -28.3963  -32.6750   25.0360 H   0  0  0  0  0  0
  -28.0673  -31.8359   26.5448 H   0  0  0  0  0  0
  -28.2571  -38.0133   24.7505 H   0  0  0  0  0  0
  -28.1135  -36.2663   24.6280 H   0  0  0  0  0  0
  -27.2308  -37.1444   25.8861 H   0  0  0  0  0  0
  -20.9347  -29.8794   21.6949 H   0  0  0  0  0  0
  -26.0179  -38.2828   24.1380 H   0  0  0  0  0  0
  -31.0438  -21.1807   18.0696 H   0  0  0  0  0  0
  -29.4100  -20.9147   17.4408 H   0  0  0  0  0  0
  -30.7159  -19.9083   16.8925 H   0  0  0  0  0  0
  -26.9728  -24.6755   20.3156 H   0  0  0  0  0  0
  -28.0448  -24.7102   18.9449 H   0  0  0  0  0  0
  -29.8899  -23.9257   20.6220 H   0  0  0  0  0  0
  -29.5970  -21.1922   21.6401 H   0  0  0  0  0  0
  -28.9732  -15.6887   21.1771 H   0  0  0  0  0  0
  1 25  1  0  0  0
  1 30  2  0  0  0
  1 81  1  0  0  0
  2  3  1  0  0  0
  2 25  1  0  0  0
  2 87  1  0  0  0
  2 88  1  0  0  0
  3  4  1  0  0  0
  3 89  1  0  0  0
  3 90  1  0  0  0
  4  5  1  0  0  0
  4 91  1  0  0  0
  4 92  1  0  0  0
  5  6  1  0  0  0
  5 26  1  0  0  0
  5 93  1  0  0  0
  6 25  1  0  0  0
  6 94  1  0  0  0
  6 95  1  0  0  0
  7  8  2  0  0  0
  7 26  1  0  0  0
  7 29  1  0  0  0
  8  9  1  0  0  0
  8 22  1  0  0  0
  9 10  1  0  0  0
  9 27  2  0  0  0
 10 11  2  0  0  0
 10 15  1  0  0  0
 11 12  1  0  0  0
 11 96  1  0  0  0
 12 13  2  0  0  0
 12 97  1  0  0  0
 13 14  1  0  0  0
 13 31  1  0  0  0
 14 15  2  0  0  0
 14 98  1  0  0  0
 15 99  1  0  0  0
 16 17  2  0  0  0
 16 21  1  0  0  0
 16 31  1  0  0  0
 17 18  1  0  0  0
 17100  1  0  0  0
 18 19  2  0  0  0
 18101  1  0  0  0
 19 20  1  0  0  0
 19 24  1  0  0  0
 20 21  2  0  0  0
 20102  1  0  0  0
 21 23  1  0  0  0
 22 28  1  0  0  0
 22 32  2  0  0  0
 26 27  1  0  0  0
 28103  1  0  0  0
 28104  1  0  0  0
 29105  1  0  0  0
 29106  1  0  0  0
 33 34  1  0  0  0
 33 66  1  0  0  0
 33 70  2  0  0  0
 34 36  1  0  0  0
 34 59  1  0  0  0
 34107  1  0  0  0
 35 44  2  0  0  0
 35 45  1  0  0  0
 35 68  1  0  0  0
 36 56  1  0  0  0
 36108  1  0  0  0
 37 39  1  0  0  0
 37 47  1  0  0  0
 37 66  1  0  0  0
 37109  1  0  0  0
 38 43  2  0  0  0
 38 46  1  0  0  0
 38 47  1  0  0  0
 39 64  1  0  0  0
 39 67  2  0  0  0
 40 52  1  0  0  0
 40 53  2  0  0  0
 40 58  1  0  0  0
 41110  1  0  0  0
 41111  1  0  0  0
 41112  1  0  0  0
 41 48  1  0  0  0
 42 43  1  0  0  0
 42 66  1  0  0  0
 42113  1  0  0  0
 42114  1  0  0  0
 43 44  1  0  0  0
 44115  1  0  0  0
 45 46  2  0  0  0
 45116  1  0  0  0
 46117  1  0  0  0
 47118  1  0  0  0
 47119  1  0  0  0
 48 56  1  0  0  0
 48 65  1  0  0  0
 48120  1  0  0  0
 49 50  1  0  0  0
 49 53  1  0  0  0
 49 64  1  0  0  0
 49121  1  0  0  0
 50 51  1  0  0  0
 50122  1  0  0  0
 50123  1  0  0  0
 51 52  1  0  0  0
 51124  1  0  0  0
 51125  1  0  0  0
 52126  1  0  0  0
 52127  1  0  0  0
 53 54  1  0  0  0
 54 55  2  0  0  0
 54128  1  0  0  0
 55 57  1  0  0  0
 55129  1  0  0  0
 56 69  2  0  0  0
 57 58  2  0  0  0
 57130  1  0  0  0
 58131  1  0  0  0
 59 60  1  0  0  0
 59 61  1  0  0  0
 59 62  1  0  0  0
 60132  1  0  0  0
 60133  1  0  0  0
 60134  1  0  0  0
 61135  1  0  0  0
 61136  1  0  0  0
 61137  1  0  0  0
 62138  1  0  0  0
 62139  1  0  0  0
 62140  1  0  0  0
 63 65  1  0  0  0
 63141  1  0  0  0
 63142  1  0  0  0
 63143  1  0  0  0
 64144  1  0  0  0
 65145  1  0  0  0
 68 76  1  0  0  0
 71 72  2  0  0  0
 71 75  1  0  0  0
 71 86  1  0  0  0
 72 79  1  0  0  0
 72 80  1  0  0  0
 73 79  2  0  0  0
 73 81  1  0  0  0
 73 86  1  0  0  0
 74 77  1  0  0  0
 74 80  1  0  0  0
 74 82  2  0  0  0
 75146  1  0  0  0
 75147  1  0  0  0
 75148  1  0  0  0
 76149  1  0  0  0
 76150  1  0  0  0
 76 77  1  0  0  0
 77 78  1  0  0  0
 77151  1  0  0  0
 78 83  1  0  0  0
 78 84  1  0  0  0
 78 85  1  0  0  0
 80152  1  0  0  0
 81153  1  0  0  0
M  ISO  4   1 100  68 101  76 101  81 100
M  END
> <chiral flag>
0

> <version>
0

> <s_m_source_file>
/data/baiqing/PycharmProjects/Reinvent-master-3.2/result/LINK_invent/BTK/process_docking_weight1_custom_product_contain_oxygen_bond_distance_aromatic_linkinvent_7_9_3/rearranged_h_0183.sdf

> <i_m_source_file_index>
87

> <r_mmod_Potential_Energy-OPLS-2005>
118.844085693359

> <r_mmod_Stretch_Energy-OPLS-2005>
129.152694702148

> <r_mmod_Bend_Energy-OPLS-2005>
168.782028198242

> <r_mmod_Torsional_Energy-OPLS-2005>
240.834060668945

> <r_mmod_Improper_Torsional_Energy-OPLS-2005>
4.65318918228149

> <r_mmod_Van_der_Waal_Energy-OPLS-2005>
125.269538879395

> <r_mmod_Electrostatic_Energy-OPLS-2005>
-423.715850830078

> <r_mmod_Solvation_Energy-OPLS-2005>
-224.043273925781

> <b_mmod_Minimization_Converged-OPLS-2005>
0

> <r_mmod_RMS_Derivative-OPLS-2005>
5.02619600296021

$$$$
87
                    3D
 Structure written by MMmdl.
153161  0  0  1  0            999 V2000
  -30.6130  -14.7641   20.4476 C   0  0  0  0  0  0
  -30.4313  -12.4636   19.4855 C   0  0  0  0  0  0
  -29.5143  -12.5107   18.2434 C   0  0  0  0  0  0
  -28.0408  -12.3314   18.6544 C   0  0  0  0  0  0
  -27.6414  -13.2358   19.8508 C   0  0  2  0  0  0
  -28.6838  -13.1833   20.9897 C   0  0  0  0  0  0
  -25.2503  -13.8205   20.5691 C   0  0  0  0  0  0
  -24.1802  -13.0440   20.9202 C   0  0  0  0  0  0
  -24.6400  -11.6920   20.8748 C   0  0  0  0  0  0
  -23.9081  -10.4290   21.0407 C   0  0  0  0  0  0
  -24.3630   -9.4206   21.9184 C   0  0  0  0  0  0
  -23.6299   -8.2247   22.0756 C   0  0  0  0  0  0
  -22.4282   -8.0285   21.3547 C   0  0  0  0  0  0
  -21.9921   -9.0258   20.4652 C   0  0  0  0  0  0
  -22.7254  -10.2132   20.3058 C   0  0  0  0  0  0
  -21.6856   -6.0738   22.5281 C   0  0  0  0  0  0
  -21.4016   -6.5641   23.8212 C   0  0  0  0  0  0
  -21.3662   -5.6795   24.9176 C   0  0  0  0  0  0
  -21.6046   -4.3058   24.7229 C   0  0  0  0  0  0
  -21.8819   -3.8150   23.4350 C   0  0  0  0  0  0
  -21.9192   -4.6966   22.3406 C   0  0  0  0  0  0
  -22.7820  -13.5215   21.1857 C   0  0  0  0  0  0
  -22.1657   -4.2154   21.0983 F   0  0  0  0  0  0
  -21.5630   -3.4540   25.7739 F   0  0  0  0  0  0
  -29.9869  -13.5343   20.4112 N   0  0  0  0  0  0
  -26.2935  -12.9419   20.3275 N   0  0  0  0  0  0
  -25.9333  -11.6555   20.5754 N   0  0  0  0  0  0
  -22.0473  -12.8209   22.0421 N   0  0  0  0  0  0
  -25.4187  -15.1933   20.4105 N   0  0  0  0  0  0
  -31.7998  -14.8342   20.1160 O   0  0  0  0  0  0
  -21.6645   -6.8884   21.4243 O   0  0  0  0  0  0
  -22.3501  -14.5516   20.6697 O   0  0  0  0  0  0
  -24.6340  -31.8547   23.1991 C   0  0  0  0  0  0
  -25.9158  -32.4756   23.8339 C   0  0  1  0  0  0
  -27.2138  -27.2459   20.1253 C   0  0  0  0  0  0
  -25.5945  -33.8556   24.2256 N   0  0  0  0  0  0
  -23.4307  -30.4796   21.5436 C   0  0  2  0  0  0
  -24.8774  -28.9303   20.1080 C   0  0  0  0  0  0
  -22.7512  -29.4608   22.4914 C   0  0  0  0  0  0
  -18.0294  -28.1389   22.8481 C   0  0  0  0  0  0
  -24.1489  -36.7283   23.2639 C   0  0  0  0  0  0
  -25.9795  -30.7630   21.3823 C   0  0  0  0  0  0
  -26.0511  -29.3852   20.7223 C   0  0  0  0  0  0
  -27.2215  -28.5549   20.7230 C   0  0  0  0  0  0
  -26.0172  -26.8749   19.4661 C   0  0  0  0  0  0
  -24.8672  -27.6846   19.4681 C   0  0  0  0  0  0
  -23.6492  -29.8182   20.1583 C   0  0  0  0  0  0
  -25.4117  -36.3073   24.0322 C   0  0  1  0  0  0
  -20.5900  -28.3705   23.1264 C   0  0  2  0  0  0
  -20.6787  -26.9423   22.5406 C   0  0  0  0  0  0
  -19.5762  -26.6383   21.5212 C   0  0  0  0  0  0
  -18.1940  -26.7931   22.1620 C   0  0  0  0  0  0
  -19.1548  -28.8863   23.2868 C   0  0  0  0  0  0
  -18.9466  -30.1459   23.8893 C   0  0  0  0  0  0
  -17.6466  -30.6591   24.0560 C   0  0  0  0  0  0
  -25.9060  -34.9440   23.5094 C   0  0  0  0  0  0
  -16.5357  -29.9086   23.6331 C   0  0  0  0  0  0
  -16.7279  -28.6500   23.0360 C   0  0  0  0  0  0
  -26.4512  -31.6587   25.0736 C   0  0  0  0  0  0
  -25.3723  -31.3732   26.1447 C   0  0  0  0  0  0
  -27.0358  -30.3004   24.6229 C   0  0  0  0  0  0
  -27.6070  -32.4320   25.7512 C   0  0  0  0  0  0
  -27.5579  -37.1800   24.8464 C   0  0  0  0  0  0
  -21.4216  -29.3056   22.3655 N   0  0  0  0  0  0
  -26.4290  -37.3773   23.9409 N   0  0  0  0  0  0
  -24.7009  -31.0501   22.0977 N   0  0  0  0  0  0
  -23.4204  -28.8143   23.3015 O   0  0  0  0  0  0
  -28.2845  -26.3153   20.2019 O   0  0  0  0  0  0
  -26.5631  -34.8916   22.4663 O   0  0  0  0  0  0
  -23.5487  -32.1375   23.7275 O   0  0  0  0  0  0
  -31.0374  -19.5366   19.5255 C   0  0  0  0  0  0
  -29.9405  -19.7325   20.3382 C   0  0  0  0  0  0
  -30.1461  -17.3340   20.3687 C   0  0  0  0  0  0
  -28.9603  -23.6815   20.3766 C   0  0  0  0  0  0
  -31.8914  -20.5755   18.8688 C   0  0  0  0  0  0
  -27.9694  -24.8635   19.9155 C   0  0  0  0  0  0
  -28.6012  -22.0985   20.1257 C   0  0  1  0  0  0
  -28.3714  -21.8353   18.6136 C   0  0  0  0  0  0
  -29.4362  -18.4463   20.7855 N   0  0  0  0  0  0
  -29.5165  -21.0656   20.7775 N   0  0  0  0  0  0
  -29.8597  -15.9096   20.6985 N   0  0  0  0  0  0
  -30.0152  -23.9859   20.9451 O   0  0  0  0  0  0
  -27.3649  -22.5822   18.1627 F   0  0  0  0  0  0
  -28.0492  -20.5618   18.3851 F   0  0  0  0  0  0
  -29.4611  -22.1401   17.9106 F   0  0  0  0  0  0
  -31.4548  -17.8404   19.3033 S   0  0  0  0  0  0
  -31.4737  -12.5799   19.1835 H   0  0  0  0  0  0
  -30.3720  -11.4900   19.9744 H   0  0  0  0  0  0
  -29.8011  -11.7354   17.5318 H   0  0  0  0  0  0
  -29.6405  -13.4637   17.7274 H   0  0  0  0  0  0
  -27.9021  -11.2832   18.9223 H   0  0  0  0  0  0
  -27.3845  -12.5165   17.8036 H   0  0  0  0  0  0
  -27.6314  -14.2553   19.4637 H   0  0  0  0  0  0
  -28.7196  -12.1901   21.4395 H   0  0  0  0  0  0
  -28.4129  -13.8719   21.7916 H   0  0  0  0  0  0
  -25.2777   -9.5677   22.4756 H   0  0  0  0  0  0
  -24.0010   -7.4639   22.7475 H   0  0  0  0  0  0
  -21.0854   -8.8779   19.8955 H   0  0  0  0  0  0
  -22.3718  -10.9671   19.6168 H   0  0  0  0  0  0
  -21.2008   -7.6148   23.9717 H   0  0  0  0  0  0
  -21.1482   -6.0526   25.9077 H   0  0  0  0  0  0
  -22.0597   -2.7612   23.2849 H   0  0  0  0  0  0
  -22.4093  -11.9877   22.4821 H   0  0  0  0  0  0
  -21.1088  -13.1230   22.2620 H   0  0  0  0  0  0
  -24.6485  -15.8451   20.5168 H   0  0  0  0  0  0
  -26.2634  -15.6357   20.0714 H   0  0  0  0  0  0
  -26.7228  -32.5401   23.1084 H   0  0  0  0  0  0
  -25.0102  -33.9686   25.0410 H   0  0  0  0  0  0
  -22.7289  -31.3038   21.3994 H   0  0  0  0  0  0
  -23.3757  -35.9611   23.3293 H   0  0  0  0  0  0
  -24.3589  -36.8914   22.2058 H   0  0  0  0  0  0
  -23.7227  -37.6474   23.6671 H   0  0  0  0  0  0
  -26.1205  -31.5235   20.6129 H   0  0  0  0  0  0
  -26.8562  -30.8123   22.0164 H   0  0  0  0  0  0
  -28.1153  -28.8937   21.2286 H   0  0  0  0  0  0
  -25.9265  -25.9311   18.9502 H   0  0  0  0  0  0
  -23.9716  -27.3354   18.9730 H   0  0  0  0  0  0
  -23.7744  -30.5963   19.4045 H   0  0  0  0  0  0
  -22.7664  -29.2541   19.8514 H   0  0  0  0  0  0
  -25.1300  -36.1923   25.0814 H   0  0  0  0  0  0
  -20.9985  -28.3288   24.1387 H   0  0  0  0  0  0
  -20.5694  -26.2316   23.3612 H   0  0  0  0  0  0
  -21.6656  -26.7458   22.1197 H   0  0  0  0  0  0
  -19.6930  -25.6290   21.1252 H   0  0  0  0  0  0
  -19.6701  -27.3184   20.6734 H   0  0  0  0  0  0
  -17.4212  -26.6674   21.4021 H   0  0  0  0  0  0
  -18.0347  -26.0072   22.9014 H   0  0  0  0  0  0
  -19.7941  -30.7270   24.2271 H   0  0  0  0  0  0
  -17.5021  -31.6272   24.5157 H   0  0  0  0  0  0
  -15.5356  -30.2991   23.7651 H   0  0  0  0  0  0
  -15.8677  -28.0807   22.7100 H   0  0  0  0  0  0
  -24.5920  -30.7060   25.7771 H   0  0  0  0  0  0
  -24.8889  -32.2892   26.4851 H   0  0  0  0  0  0
  -25.8035  -30.8927   27.0238 H   0  0  0  0  0  0
  -26.2943  -29.6753   24.1240 H   0  0  0  0  0  0
  -27.4023  -29.7273   25.4755 H   0  0  0  0  0  0
  -27.8832  -30.4283   23.9489 H   0  0  0  0  0  0
  -27.2694  -33.3635   26.2069 H   0  0  0  0  0  0
  -28.3897  -32.6847   25.0347 H   0  0  0  0  0  0
  -28.0719  -31.8448   26.5441 H   0  0  0  0  0  0
  -28.2593  -38.0102   24.7525 H   0  0  0  0  0  0
  -28.1074  -36.2632   24.6273 H   0  0  0  0  0  0
  -27.2299  -37.1431   25.8867 H   0  0  0  0  0  0
  -20.9412  -29.8769   21.6843 H   0  0  0  0  0  0
  -26.0166  -38.2846   24.1416 H   0  0  0  0  0  0
  -31.7730  -21.5550   19.3325 H   0  0  0  0  0  0
  -31.6374  -20.6710   17.8131 H   0  0  0  0  0  0
  -32.9464  -20.3097   18.9333 H   0  0  0  0  0  0
  -27.0057  -24.6235   20.3648 H   0  0  0  0  0  0
  -27.8444  -24.7803   18.8366 H   0  0  0  0  0  0
  -27.6353  -21.9325   20.6023 H   0  0  0  0  0  0
  -30.3377  -21.5977   21.0483 H   0  0  0  0  0  0
  -28.9392  -15.7361   21.0686 H   0  0  0  0  0  0
  1 25  1  0  0  0
  1 30  2  0  0  0
  1 81  1  0  0  0
  2  3  1  0  0  0
  2 25  1  0  0  0
  2 87  1  0  0  0
  2 88  1  0  0  0
  3  4  1  0  0  0
  3 89  1  0  0  0
  3 90  1  0  0  0
  4  5  1  0  0  0
  4 91  1  0  0  0
  4 92  1  0  0  0
  5  6  1  0  0  0
  5 26  1  0  0  0
  5 93  1  0  0  0
  6 25  1  0  0  0
  6 94  1  0  0  0
  6 95  1  0  0  0
  7  8  2  0  0  0
  7 26  1  0  0  0
  7 29  1  0  0  0
  8  9  1  0  0  0
  8 22  1  0  0  0
  9 10  1  0  0  0
  9 27  2  0  0  0
 10 11  2  0  0  0
 10 15  1  0  0  0
 11 12  1  0  0  0
 11 96  1  0  0  0
 12 13  2  0  0  0
 12 97  1  0  0  0
 13 14  1  0  0  0
 13 31  1  0  0  0
 14 15  2  0  0  0
 14 98  1  0  0  0
 15 99  1  0  0  0
 16 17  2  0  0  0
 16 21  1  0  0  0
 16 31  1  0  0  0
 17 18  1  0  0  0
 17100  1  0  0  0
 18 19  2  0  0  0
 18101  1  0  0  0
 19 20  1  0  0  0
 19 24  1  0  0  0
 20 21  2  0  0  0
 20102  1  0  0  0
 21 23  1  0  0  0
 22 28  1  0  0  0
 22 32  2  0  0  0
 26 27  1  0  0  0
 28103  1  0  0  0
 28104  1  0  0  0
 29105  1  0  0  0
 29106  1  0  0  0
 33 34  1  0  0  0
 33 66  1  0  0  0
 33 70  2  0  0  0
 34 36  1  0  0  0
 34 59  1  0  0  0
 34107  1  0  0  0
 35 44  2  0  0  0
 35 45  1  0  0  0
 35 68  1  0  0  0
 36 56  1  0  0  0
 36108  1  0  0  0
 37 39  1  0  0  0
 37 47  1  0  0  0
 37 66  1  0  0  0
 37109  1  0  0  0
 38 43  2  0  0  0
 38 46  1  0  0  0
 38 47  1  0  0  0
 39 64  1  0  0  0
 39 67  2  0  0  0
 40 52  1  0  0  0
 40 53  2  0  0  0
 40 58  1  0  0  0
 41110  1  0  0  0
 41111  1  0  0  0
 41112  1  0  0  0
 41 48  1  0  0  0
 42 43  1  0  0  0
 42 66  1  0  0  0
 42113  1  0  0  0
 42114  1  0  0  0
 43 44  1  0  0  0
 44115  1  0  0  0
 45 46  2  0  0  0
 45116  1  0  0  0
 46117  1  0  0  0
 47118  1  0  0  0
 47119  1  0  0  0
 48 56  1  0  0  0
 48 65  1  0  0  0
 48120  1  0  0  0
 49 50  1  0  0  0
 49 53  1  0  0  0
 49 64  1  0  0  0
 49121  1  0  0  0
 50 51  1  0  0  0
 50122  1  0  0  0
 50123  1  0  0  0
 51 52  1  0  0  0
 51124  1  0  0  0
 51125  1  0  0  0
 52126  1  0  0  0
 52127  1  0  0  0
 53 54  1  0  0  0
 54 55  2  0  0  0
 54128  1  0  0  0
 55 57  1  0  0  0
 55129  1  0  0  0
 56 69  2  0  0  0
 57 58  2  0  0  0
 57130  1  0  0  0
 58131  1  0  0  0
 59 60  1  0  0  0
 59 61  1  0  0  0
 59 62  1  0  0  0
 60132  1  0  0  0
 60133  1  0  0  0
 60134  1  0  0  0
 61135  1  0  0  0
 61136  1  0  0  0
 61137  1  0  0  0
 62138  1  0  0  0
 62139  1  0  0  0
 62140  1  0  0  0
 63 65  1  0  0  0
 63141  1  0  0  0
 63142  1  0  0  0
 63143  1  0  0  0
 64144  1  0  0  0
 65145  1  0  0  0
 68 76  1  0  0  0
 71 72  2  0  0  0
 71 75  1  0  0  0
 71 86  1  0  0  0
 72 79  1  0  0  0
 72 80  1  0  0  0
 73 79  2  0  0  0
 73 81  1  0  0  0
 73 86  1  0  0  0
 74 76  1  0  0  0
 74 77  1  0  0  0
 74 82  2  0  0  0
 75146  1  0  0  0
 75147  1  0  0  0
 75148  1  0  0  0
 76149  1  0  0  0
 76150  1  0  0  0
 77 78  1  0  0  0
 77 80  1  0  0  0
 77151  1  0  0  0
 78 83  1  0  0  0
 78 84  1  0  0  0
 78 85  1  0  0  0
 80152  1  0  0  0
 81153  1  0  0  0
M  ISO  4   1 100  68 101  76 101  81 100
M  END
> <chiral flag>
0

> <version>
0

> <s_m_source_file>
/data/baiqing/PycharmProjects/Reinvent-master-3.2/result/LINK_invent/BTK/process_docking_weight1_custom_product_contain_oxygen_bond_distance_aromatic_linkinvent_7_9_3/rearranged_h_0183.sdf

> <i_m_source_file_index>
88

> <r_mmod_Potential_Energy-OPLS-2005>
46.086540222168

> <r_mmod_Stretch_Energy-OPLS-2005>
132.915603637695

> <r_mmod_Bend_Energy-OPLS-2005>
173.418762207031

> <r_mmod_Torsional_Energy-OPLS-2005>
222.341049194336

> <r_mmod_Improper_Torsional_Energy-OPLS-2005>
9.38147068023682

> <r_mmod_Van_der_Waal_Energy-OPLS-2005>
125.030288696289

> <r_mmod_Electrostatic_Energy-OPLS-2005>
-485.141754150391

> <r_mmod_Solvation_Energy-OPLS-2005>
-228.626770019531

> <b_mmod_Minimization_Converged-OPLS-2005>
0

> <r_mmod_RMS_Derivative-OPLS-2005>
0.879017412662506

$$$$
88
                    3D
 Structure written by MMmdl.
161169  0  0  1  0            999 V2000
  -30.6806  -14.5095   20.5243 C   0  0  0  0  0  0
  -30.4302  -12.3058   19.4512 C   0  0  0  0  0  0
  -29.5061  -12.4559   18.2238 C   0  0  0  0  0  0
  -28.0209  -12.3533   18.6274 C   0  0  0  0  0  0
  -27.6608  -13.2090   19.8723 C   0  0  2  0  0  0
  -28.7005  -13.0183   21.0004 C   0  0  0  0  0  0
  -25.2583  -13.8149   20.5681 C   0  0  0  0  0  0
  -24.1840  -13.0421   20.9178 C   0  0  0  0  0  0
  -24.6396  -11.6887   20.8727 C   0  0  0  0  0  0
  -23.9050  -10.4278   21.0399 C   0  0  0  0  0  0
  -24.3605   -9.4196   21.9181 C   0  0  0  0  0  0
  -23.6286   -8.2227   22.0758 C   0  0  0  0  0  0
  -22.4265   -8.0265   21.3552 C   0  0  0  0  0  0
  -21.9889   -9.0231   20.4652 C   0  0  0  0  0  0
  -22.7214  -10.2109   20.3052 C   0  0  0  0  0  0
  -21.6844   -6.0732   22.5287 C   0  0  0  0  0  0
  -21.3994   -6.5639   23.8213 C   0  0  0  0  0  0
  -21.3668   -5.6802   24.9186 C   0  0  0  0  0  0
  -21.6053   -4.3065   24.7237 C   0  0  0  0  0  0
  -21.8816   -3.8148   23.4358 C   0  0  0  0  0  0
  -21.9189   -4.6963   22.3412 C   0  0  0  0  0  0
  -22.7869  -13.5214   21.1864 C   0  0  0  0  0  0
  -22.1661   -4.2146   21.0991 F   0  0  0  0  0  0
  -21.5646   -3.4545   25.7752 F   0  0  0  0  0  0
  -30.0312  -13.3149   20.4472 N   0  0  0  0  0  0
  -26.3025  -12.9329   20.3350 N   0  0  0  0  0  0
  -25.9328  -11.6487   20.5777 N   0  0  0  0  0  0
  -22.0523  -12.8200   22.0433 N   0  0  0  0  0  0
  -25.4247  -15.1868   20.4073 N   0  0  0  0  0  0
  -31.8332  -14.6648   20.1100 O   0  0  0  0  0  0
  -21.6630   -6.8866   21.4241 O   0  0  0  0  0  0
  -22.3559  -14.5536   20.6739 O   0  0  0  0  0  0
  -24.6177  -31.8676   23.2089 C   0  0  0  0  0  0
  -25.9066  -32.4820   23.8377 C   0  0  1  0  0  0
  -27.2181  -27.4064   20.1042 C   0  0  0  0  0  0
  -25.5919  -33.8618   24.2308 N   0  0  0  0  0  0
  -23.4044  -30.4940   21.5522 C   0  0  2  0  0  0
  -24.8462  -28.9640   20.1087 C   0  0  0  0  0  0
  -22.7415  -29.4674   22.4994 C   0  0  0  0  0  0
  -18.0273  -28.1388   22.8500 C   0  0  0  0  0  0
  -24.1494  -36.7312   23.2638 C   0  0  0  0  0  0
  -25.9363  -30.8266   21.3648 C   0  0  0  0  0  0
  -26.0104  -29.4615   20.7082 C   0  0  0  0  0  0
  -27.2011  -28.6925   20.6987 C   0  0  0  0  0  0
  -26.0359  -26.9432   19.4779 C   0  0  0  0  0  0
  -24.8572  -27.7084   19.4834 C   0  0  0  0  0  0
  -23.6088  -29.8307   20.1646 C   0  0  0  0  0  0
  -25.4118  -36.3107   24.0328 C   0  0  1  0  0  0
  -20.5867  -28.3680   23.1316 C   0  0  2  0  0  0
  -20.6770  -26.9416   22.5418 C   0  0  0  0  0  0
  -19.5750  -26.6392   21.5218 C   0  0  0  0  0  0
  -18.1928  -26.7937   22.1624 C   0  0  0  0  0  0
  -19.1526  -28.8853   23.2907 C   0  0  0  0  0  0
  -18.9451  -30.1457   23.8916 C   0  0  0  0  0  0
  -17.6452  -30.6592   24.0571 C   0  0  0  0  0  0
  -25.9046  -34.9474   23.5114 C   0  0  0  0  0  0
  -16.5341  -29.9092   23.6332 C   0  0  0  0  0  0
  -16.7262  -28.6508   23.0360 C   0  0  0  0  0  0
  -26.4475  -31.6611   25.0719 C   0  0  0  0  0  0
  -25.3723  -31.3723   26.1452 C   0  0  0  0  0  0
  -27.0297  -30.3050   24.6112 C   0  0  0  0  0  0
  -27.6061  -32.4321   25.7472 C   0  0  0  0  0  0
  -27.5587  -37.1806   24.8457 C   0  0  0  0  0  0
  -21.4144  -29.3042   22.3715 N   0  0  0  0  0  0
  -26.4300  -37.3795   23.9401 N   0  0  0  0  0  0
  -24.6716  -31.0767   22.1003 N   0  0  0  0  0  0
  -23.4180  -28.8222   23.3044 O   0  0  0  0  0  0
  -28.3567  -26.6183   20.1599 O   0  0  0  0  0  0
  -26.5611  -34.8927   22.4677 O   0  0  0  0  0  0
  -23.5368  -32.1435   23.7483 O   0  0  0  0  0  0
  -29.9310  -17.1470   19.0305 C   0  0  0  0  0  0
  -29.9852  -16.8868   20.3860 C   0  0  0  0  0  0
  -29.9567  -19.1872   20.4502 C   0  0  0  0  0  0
  -29.2802  -24.3459   20.6834 C   0  0  0  0  0  0
  -30.6193  -22.0230   19.0940 C   0  0  0  0  0  0
  -29.8487  -16.2031   17.8740 C   0  0  0  0  0  0
  -32.3960  -21.8379   17.2511 C   0  0  0  0  0  0
  -29.0179  -22.8300   20.9000 C   0  0  0  0  0  0
  -32.0996  -21.8292   18.7611 C   0  0  0  0  0  0
  -28.1080  -25.1912   20.1439 C   0  0  0  0  0  0
  -30.2128  -21.8778   20.5749 C   0  0  1  0  0  0
  -29.9545  -18.0558   21.1780 N   0  0  0  0  0  0
  -29.9361  -15.5621   20.9312 N   0  0  0  0  0  0
  -29.9810  -20.4763   21.0096 N   0  0  0  0  0  0
  -30.3792  -24.8468   20.9403 O   0  0  0  0  0  0
  -29.7987  -22.2500   18.2005 O   0  0  0  0  0  0
  -29.9269  -18.8634   18.7175 S   0  0  0  0  0  0
  -31.4745  -12.4063   19.1486 H   0  0  0  0  0  0
  -30.3399  -11.3063   19.8801 H   0  0  0  0  0  0
  -29.7387  -11.6826   17.4907 H   0  0  0  0  0  0
  -29.6985  -13.4024   17.7240 H   0  0  0  0  0  0
  -27.8196  -11.3017   18.8360 H   0  0  0  0  0  0
  -27.3806  -12.6240   17.7859 H   0  0  0  0  0  0
  -27.6932  -14.2520   19.5596 H   0  0  0  0  0  0
  -28.6785  -11.9921   21.3711 H   0  0  0  0  0  0
  -28.4616  -13.6458   21.8602 H   0  0  0  0  0  0
  -25.2749   -9.5680   22.4752 H   0  0  0  0  0  0
  -24.0014   -7.4618   22.7472 H   0  0  0  0  0  0
  -21.0814   -8.8709   19.8966 H   0  0  0  0  0  0
  -22.3651  -10.9628   19.6152 H   0  0  0  0  0  0
  -21.1953   -7.6139   23.9707 H   0  0  0  0  0  0
  -21.1517   -6.0542   25.9093 H   0  0  0  0  0  0
  -22.0594   -2.7610   23.2851 H   0  0  0  0  0  0
  -22.4126  -11.9836   22.4784 H   0  0  0  0  0  0
  -21.1155  -13.1238   22.2705 H   0  0  0  0  0  0
  -24.6494  -15.8315   20.5166 H   0  0  0  0  0  0
  -26.2628  -15.6349   20.0605 H   0  0  0  0  0  0
  -26.7141  -32.5517   23.1137 H   0  0  0  0  0  0
  -25.0071  -33.9776   25.0455 H   0  0  0  0  0  0
  -22.6958  -31.3134   21.4166 H   0  0  0  0  0  0
  -23.3754  -35.9647   23.3302 H   0  0  0  0  0  0
  -24.3590  -36.8929   22.2051 H   0  0  0  0  0  0
  -23.7238  -37.6513   23.6657 H   0  0  0  0  0  0
  -26.0522  -31.5949   20.5986 H   0  0  0  0  0  0
  -26.8230  -30.8758   21.9851 H   0  0  0  0  0  0
  -28.0956  -29.0688   21.1753 H   0  0  0  0  0  0
  -25.9973  -25.9866   18.9781 H   0  0  0  0  0  0
  -23.9665  -27.3283   19.0006 H   0  0  0  0  0  0
  -23.7075  -30.6054   19.4042 H   0  0  0  0  0  0
  -22.7328  -29.2482   19.8738 H   0  0  0  0  0  0
  -25.1300  -36.1966   25.0823 H   0  0  0  0  0  0
  -20.9968  -28.3246   24.1431 H   0  0  0  0  0  0
  -20.5686  -26.2288   23.3608 H   0  0  0  0  0  0
  -21.6641  -26.7474   22.1197 H   0  0  0  0  0  0
  -19.6914  -25.6303   21.1249 H   0  0  0  0  0  0
  -19.6693  -27.3200   20.6751 H   0  0  0  0  0  0
  -17.4204  -26.6709   21.4017 H   0  0  0  0  0  0
  -18.0316  -26.0061   22.9002 H   0  0  0  0  0  0
  -19.7927  -30.7275   24.2286 H   0  0  0  0  0  0
  -17.5005  -31.6276   24.5168 H   0  0  0  0  0  0
  -15.5346  -30.3006   23.7641 H   0  0  0  0  0  0
  -15.8662  -28.0827   22.7081 H   0  0  0  0  0  0
  -24.5898  -30.7083   25.7761 H   0  0  0  0  0  0
  -24.8915  -32.2884   26.4897 H   0  0  0  0  0  0
  -25.8048  -30.8872   27.0212 H   0  0  0  0  0  0
  -26.2840  -29.6818   24.1169 H   0  0  0  0  0  0
  -27.4052  -29.7288   25.4576 H   0  0  0  0  0  0
  -27.8686  -30.4358   23.9272 H   0  0  0  0  0  0
  -27.2702  -33.3615   26.2082 H   0  0  0  0  0  0
  -28.3850  -32.6890   25.0279 H   0  0  0  0  0  0
  -28.0759  -31.8423   26.5353 H   0  0  0  0  0  0
  -28.2602  -38.0107   24.7524 H   0  0  0  0  0  0
  -28.1085  -36.2640   24.6261 H   0  0  0  0  0  0
  -27.2310  -37.1427   25.8861 H   0  0  0  0  0  0
  -20.9307  -29.8745   21.6918 H   0  0  0  0  0  0
  -26.0188  -38.2873   24.1408 H   0  0  0  0  0  0
  -30.7499  -15.5953   17.7890 H   0  0  0  0  0  0
  -29.7327  -16.7413   16.9335 H   0  0  0  0  0  0
  -28.9879  -15.5442   17.9764 H   0  0  0  0  0  0
  -33.4615  -21.7038   17.0652 H   0  0  0  0  0  0
  -32.0947  -22.7801   16.7907 H   0  0  0  0  0  0
  -31.8652  -21.0335   16.7396 H   0  0  0  0  0  0
  -28.1494  -22.5447   20.3060 H   0  0  0  0  0  0
  -28.7260  -22.7043   21.9427 H   0  0  0  0  0  0
  -32.4224  -20.8845   19.1981 H   0  0  0  0  0  0
  -32.6676  -22.6159   19.2576 H   0  0  0  0  0  0
  -27.2348  -24.9597   20.7563 H   0  0  0  0  0  0
  -27.8943  -24.8613   19.1268 H   0  0  0  0  0  0
  -31.0605  -22.2202   21.1714 H   0  0  0  0  0  0
  -29.1016  -15.3356   21.4495 H   0  0  0  0  0  0
  -29.9787  -20.4078   22.0207 H   0  0  0  0  0  0
  1 25  1  0  0  0
  1 30  2  0  0  0
  1 83  1  0  0  0
  2  3  1  0  0  0
  2 25  1  0  0  0
  2 88  1  0  0  0
  2 89  1  0  0  0
  3  4  1  0  0  0
  3 90  1  0  0  0
  3 91  1  0  0  0
  4  5  1  0  0  0
  4 92  1  0  0  0
  4 93  1  0  0  0
  5  6  1  0  0  0
  5 26  1  0  0  0
  5 94  1  0  0  0
  6 25  1  0  0  0
  6 95  1  0  0  0
  6 96  1  0  0  0
  7  8  2  0  0  0
  7 26  1  0  0  0
  7 29  1  0  0  0
  8  9  1  0  0  0
  8 22  1  0  0  0
  9 10  1  0  0  0
  9 27  2  0  0  0
 10 11  2  0  0  0
 10 15  1  0  0  0
 11 12  1  0  0  0
 11 97  1  0  0  0
 12 13  2  0  0  0
 12 98  1  0  0  0
 13 14  1  0  0  0
 13 31  1  0  0  0
 14 15  2  0  0  0
 14 99  1  0  0  0
 15100  1  0  0  0
 16 17  2  0  0  0
 16 21  1  0  0  0
 16 31  1  0  0  0
 17 18  1  0  0  0
 17101  1  0  0  0
 18 19  2  0  0  0
 18102  1  0  0  0
 19 20  1  0  0  0
 19 24  1  0  0  0
 20 21  2  0  0  0
 20103  1  0  0  0
 21 23  1  0  0  0
 22 28  1  0  0  0
 22 32  2  0  0  0
 26 27  1  0  0  0
 28104  1  0  0  0
 28105  1  0  0  0
 29106  1  0  0  0
 29107  1  0  0  0
 33 34  1  0  0  0
 33 66  1  0  0  0
 33 70  2  0  0  0
 34 36  1  0  0  0
 34 59  1  0  0  0
 34108  1  0  0  0
 35 44  2  0  0  0
 35 45  1  0  0  0
 35 68  1  0  0  0
 36 56  1  0  0  0
 36109  1  0  0  0
 37 39  1  0  0  0
 37 47  1  0  0  0
 37 66  1  0  0  0
 37110  1  0  0  0
 38 43  2  0  0  0
 38 46  1  0  0  0
 38 47  1  0  0  0
 39 64  1  0  0  0
 39 67  2  0  0  0
 40 52  1  0  0  0
 40 53  2  0  0  0
 40 58  1  0  0  0
 41111  1  0  0  0
 41112  1  0  0  0
 41113  1  0  0  0
 41 48  1  0  0  0
 42 43  1  0  0  0
 42 66  1  0  0  0
 42114  1  0  0  0
 42115  1  0  0  0
 43 44  1  0  0  0
 44116  1  0  0  0
 45 46  2  0  0  0
 45117  1  0  0  0
 46118  1  0  0  0
 47119  1  0  0  0
 47120  1  0  0  0
 48 56  1  0  0  0
 48 65  1  0  0  0
 48121  1  0  0  0
 49 50  1  0  0  0
 49 53  1  0  0  0
 49 64  1  0  0  0
 49122  1  0  0  0
 50 51  1  0  0  0
 50123  1  0  0  0
 50124  1  0  0  0
 51 52  1  0  0  0
 51125  1  0  0  0
 51126  1  0  0  0
 52127  1  0  0  0
 52128  1  0  0  0
 53 54  1  0  0  0
 54 55  2  0  0  0
 54129  1  0  0  0
 55 57  1  0  0  0
 55130  1  0  0  0
 56 69  2  0  0  0
 57 58  2  0  0  0
 57131  1  0  0  0
 58132  1  0  0  0
 59 60  1  0  0  0
 59 61  1  0  0  0
 59 62  1  0  0  0
 60133  1  0  0  0
 60134  1  0  0  0
 60135  1  0  0  0
 61136  1  0  0  0
 61137  1  0  0  0
 61138  1  0  0  0
 62139  1  0  0  0
 62140  1  0  0  0
 62141  1  0  0  0
 63 65  1  0  0  0
 63142  1  0  0  0
 63143  1  0  0  0
 63144  1  0  0  0
 64145  1  0  0  0
 65146  1  0  0  0
 68 80  1  0  0  0
 71 72  2  0  0  0
 71 76  1  0  0  0
 71 87  1  0  0  0
 72 82  1  0  0  0
 72 83  1  0  0  0
 73 82  2  0  0  0
 73 84  1  0  0  0
 73 87  1  0  0  0
 74 78  1  0  0  0
 74 80  1  0  0  0
 74 85  2  0  0  0
 75 79  1  0  0  0
 75 81  1  0  0  0
 75 86  2  0  0  0
 76147  1  0  0  0
 76148  1  0  0  0
 76149  1  0  0  0
 77 79  1  0  0  0
 77150  1  0  0  0
 77151  1  0  0  0
 77152  1  0  0  0
 78153  1  0  0  0
 78154  1  0  0  0
 78 81  1  0  0  0
 79155  1  0  0  0
 79156  1  0  0  0
 80157  1  0  0  0
 80158  1  0  0  0
 81 84  1  0  0  0
 81159  1  0  0  0
 83160  1  0  0  0
 84161  1  0  0  0
M  ISO  4   1 100  68 101  80 101  83 100
M  END
> <chiral flag>
0

> <version>
0

> <s_m_source_file>
/data/baiqing/PycharmProjects/Reinvent-master-3.2/result/LINK_invent/BTK/process_docking_weight1_custom_product_contain_oxygen_bond_distance_aromatic_linkinvent_7_9_3/rearranged_h_0183.sdf

> <i_m_source_file_index>
89

> <r_mmod_Potential_Energy-OPLS-2005>
-132.601776123047

> <r_mmod_Stretch_Energy-OPLS-2005>
42.6566390991211

> <r_mmod_Bend_Energy-OPLS-2005>
103.615852355957

> <r_mmod_Torsional_Energy-OPLS-2005>
233.67219543457

> <r_mmod_Improper_Torsional_Energy-OPLS-2005>
5.60076951980591

> <r_mmod_Van_der_Waal_Energy-OPLS-2005>
132.458374023438

> <r_mmod_Electrostatic_Energy-OPLS-2005>
-428.006195068359

> <r_mmod_Solvation_Energy-OPLS-2005>
-243.72233581543

> <b_mmod_Minimization_Converged-OPLS-2005>
0

> <r_mmod_RMS_Derivative-OPLS-2005>
1.89778888225555

$$$$
89
                    3D
 Structure written by MMmdl.
155163  0  0  1  0            999 V2000
  -30.5717  -14.7387   20.4730 C   0  0  0  0  0  0
  -30.4454  -12.4525   19.4642 C   0  0  0  0  0  0
  -29.5138  -12.5092   18.2317 C   0  0  0  0  0  0
  -28.0386  -12.3284   18.6451 C   0  0  0  0  0  0
  -27.6452  -13.2187   19.8526 C   0  0  2  0  0  0
  -28.6897  -13.1215   20.9866 C   0  0  0  0  0  0
  -25.2535  -13.8167   20.5667 C   0  0  0  0  0  0
  -24.1815  -13.0431   20.9205 C   0  0  0  0  0  0
  -24.6389  -11.6904   20.8753 C   0  0  0  0  0  0
  -23.9064  -10.4286   21.0415 C   0  0  0  0  0  0
  -24.3618   -9.4201   21.9189 C   0  0  0  0  0  0
  -23.6290   -8.2240   22.0759 C   0  0  0  0  0  0
  -22.4272   -8.0281   21.3549 C   0  0  0  0  0  0
  -21.9909   -9.0254   20.4650 C   0  0  0  0  0  0
  -22.7241  -10.2132   20.3059 C   0  0  0  0  0  0
  -21.6851   -6.0735   22.5281 C   0  0  0  0  0  0
  -21.4014   -6.5640   23.8212 C   0  0  0  0  0  0
  -21.3656   -5.6794   24.9173 C   0  0  0  0  0  0
  -21.6043   -4.3059   24.7228 C   0  0  0  0  0  0
  -21.8818   -3.8148   23.4348 C   0  0  0  0  0  0
  -21.9192   -4.6962   22.3403 C   0  0  0  0  0  0
  -22.7841  -13.5228   21.1864 C   0  0  0  0  0  0
  -22.1661   -4.2148   21.0982 F   0  0  0  0  0  0
  -21.5625   -3.4541   25.7740 F   0  0  0  0  0  0
  -29.9930  -13.4907   20.4151 N   0  0  0  0  0  0
  -26.2946  -12.9344   20.3257 N   0  0  0  0  0  0
  -25.9312  -11.6504   20.5745 N   0  0  0  0  0  0
  -22.0479  -12.8220   22.0419 N   0  0  0  0  0  0
  -25.4226  -15.1889   20.4054 N   0  0  0  0  0  0
  -31.7577  -14.8880   20.1570 O   0  0  0  0  0  0
  -21.6639   -6.8877   21.4243 O   0  0  0  0  0  0
  -22.3535  -14.5534   20.6709 O   0  0  0  0  0  0
  -24.6291  -31.8544   23.1971 C   0  0  0  0  0  0
  -25.9123  -32.4748   23.8322 C   0  0  1  0  0  0
  -27.2247  -27.2717   20.1437 C   0  0  0  0  0  0
  -25.5924  -33.8550   24.2250 N   0  0  0  0  0  0
  -23.4275  -30.4736   21.5398 C   0  0  2  0  0  0
  -24.8755  -28.9132   20.1156 C   0  0  0  0  0  0
  -22.7498  -29.4587   22.4918 C   0  0  0  0  0  0
  -18.0288  -28.1384   22.8476 C   0  0  0  0  0  0
  -24.1491  -36.7288   23.2643 C   0  0  0  0  0  0
  -25.9696  -30.7723   21.3721 C   0  0  0  0  0  0
  -26.0442  -29.3920   20.7219 C   0  0  0  0  0  0
  -27.2240  -28.5847   20.7194 C   0  0  0  0  0  0
  -26.0377  -26.8503   19.5125 C   0  0  0  0  0  0
  -24.8754  -27.6497   19.4996 C   0  0  0  0  0  0
  -23.6462  -29.8013   20.1579 C   0  0  0  0  0  0
  -25.4112  -36.3068   24.0333 C   0  0  1  0  0  0
  -20.5893  -28.3686   23.1272 C   0  0  2  0  0  0
  -20.6775  -26.9403   22.5410 C   0  0  0  0  0  0
  -19.5756  -26.6377   21.5208 C   0  0  0  0  0  0
  -18.1935  -26.7926   22.1619 C   0  0  0  0  0  0
  -19.1542  -28.8850   23.2865 C   0  0  0  0  0  0
  -18.9467  -30.1452   23.8881 C   0  0  0  0  0  0
  -17.6468  -30.6586   24.0558 C   0  0  0  0  0  0
  -25.9057  -34.9436   23.5095 C   0  0  0  0  0  0
  -16.5356  -29.9087   23.6326 C   0  0  0  0  0  0
  -16.7273  -28.6507   23.0343 C   0  0  0  0  0  0
  -26.4488  -31.6573   25.0709 C   0  0  0  0  0  0
  -25.3717  -31.3725   26.1438 C   0  0  0  0  0  0
  -27.0339  -30.2999   24.6177 C   0  0  0  0  0  0
  -27.6038  -32.4314   25.7486 C   0  0  0  0  0  0
  -27.5573  -37.1800   24.8464 C   0  0  0  0  0  0
  -21.4208  -29.3033   22.3669 N   0  0  0  0  0  0
  -26.4286  -37.3764   23.9405 N   0  0  0  0  0  0
  -24.6943  -31.0523   22.0935 N   0  0  0  0  0  0
  -23.4195  -28.8129   23.3023 O   0  0  0  0  0  0
  -28.3439  -26.4148   20.1405 O   0  0  0  0  0  0
  -26.5634  -34.8912   22.4666 O   0  0  0  0  0  0
  -23.5444  -32.1358   23.7276 O   0  0  0  0  0  0
  -29.3940  -19.8285   20.2057 C   0  0  0  0  0  0
  -30.5458  -19.4535   20.8879 C   0  0  0  0  0  0
  -29.7950  -17.2667   20.5440 C   0  0  0  0  0  0
  -28.3319  -23.7513   19.9079 C   0  0  0  0  0  0
  -29.6775  -21.3733   18.2409 C   0  0  0  0  0  0
  -27.2766  -24.9640   21.9269 C   0  0  0  0  0  0
  -28.9166  -21.2048   19.5713 C   0  0  2  0  0  0
  -28.3433  -25.0678   20.8200 C   0  0  2  0  0  0
  -30.7501  -18.0538   21.0742 N   0  0  0  0  0  0
  -31.5229  -20.3289   21.3577 N   0  0  0  0  0  0
  -29.7033  -15.7966   20.6799 N   0  0  0  0  0  0
  -28.8914  -22.5426   20.3212 N   0  0  0  0  0  0
  -27.7756  -23.8358   18.8114 O   0  0  0  0  0  0
  -28.5230  -18.3107   19.8251 S   0  0  0  0  0  0
  -31.4816  -12.6029   19.1589 H   0  0  0  0  0  0
  -30.4097  -11.4674   19.9319 H   0  0  0  0  0  0
  -29.7958  -11.7414   17.5098 H   0  0  0  0  0  0
  -29.6358  -13.4662   17.7216 H   0  0  0  0  0  0
  -27.8961  -11.2781   18.9019 H   0  0  0  0  0  0
  -27.3804  -12.5251   17.7976 H   0  0  0  0  0  0
  -27.6449  -14.2429   19.4806 H   0  0  0  0  0  0
  -28.7254  -12.1103   21.3940 H   0  0  0  0  0  0
  -28.4213  -13.7711   21.8211 H   0  0  0  0  0  0
  -25.2762   -9.5676   22.4765 H   0  0  0  0  0  0
  -23.9995   -7.4632   22.7480 H   0  0  0  0  0  0
  -21.0839   -8.8776   19.8957 H   0  0  0  0  0  0
  -22.3700  -10.9673   19.6171 H   0  0  0  0  0  0
  -21.2009   -7.6149   23.9714 H   0  0  0  0  0  0
  -21.1476   -6.0526   25.9075 H   0  0  0  0  0  0
  -22.0601   -2.7611   23.2852 H   0  0  0  0  0  0
  -22.4089  -11.9877   22.4804 H   0  0  0  0  0  0
  -21.1102  -13.1257   22.2624 H   0  0  0  0  0  0
  -24.6450  -15.8330   20.5006 H   0  0  0  0  0  0
  -26.2445  -15.6248   20.0104 H   0  0  0  0  0  0
  -26.7185  -32.5407   23.1063 H   0  0  0  0  0  0
  -25.0041  -33.9676   25.0378 H   0  0  0  0  0  0
  -22.7233  -31.2940   21.3894 H   0  0  0  0  0  0
  -23.3750  -35.9625   23.3306 H   0  0  0  0  0  0
  -24.3589  -36.8914   22.2056 H   0  0  0  0  0  0
  -23.7248  -37.6492   23.6672 H   0  0  0  0  0  0
  -26.1009  -31.5295   20.5977 H   0  0  0  0  0  0
  -26.8497  -30.8282   22.0007 H   0  0  0  0  0  0
  -28.1247  -28.9488   21.1926 H   0  0  0  0  0  0
  -26.0067  -25.8796   19.0375 H   0  0  0  0  0  0
  -23.9816  -27.2773   19.0185 H   0  0  0  0  0  0
  -23.7738  -30.5744   19.3995 H   0  0  0  0  0  0
  -22.7656  -29.2341   19.8523 H   0  0  0  0  0  0
  -25.1292  -36.1915   25.0826 H   0  0  0  0  0  0
  -20.9969  -28.3265   24.1397 H   0  0  0  0  0  0
  -20.5673  -26.2296   23.3613 H   0  0  0  0  0  0
  -21.6641  -26.7428   22.1203 H   0  0  0  0  0  0
  -19.6922  -25.6285   21.1244 H   0  0  0  0  0  0
  -19.6700  -27.3182   20.6731 H   0  0  0  0  0  0
  -17.4201  -26.6659   21.4025 H   0  0  0  0  0  0
  -18.0331  -26.0072   22.9018 H   0  0  0  0  0  0
  -19.7946  -30.7263   24.2252 H   0  0  0  0  0  0
  -17.5028  -31.6267   24.5158 H   0  0  0  0  0  0
  -15.5358  -30.2984   23.7666 H   0  0  0  0  0  0
  -15.8672  -28.0831   22.7050 H   0  0  0  0  0  0
  -24.5891  -30.7067   25.7778 H   0  0  0  0  0  0
  -24.8903  -32.2893   26.4849 H   0  0  0  0  0  0
  -25.8035  -30.8916   27.0224 H   0  0  0  0  0  0
  -26.2915  -29.6739   24.1211 H   0  0  0  0  0  0
  -27.4049  -29.7259   25.4682 H   0  0  0  0  0  0
  -27.8777  -30.4292   23.9394 H   0  0  0  0  0  0
  -27.2644  -33.3621   26.2038 H   0  0  0  0  0  0
  -28.3857  -32.6864   25.0322 H   0  0  0  0  0  0
  -28.0695  -31.8459   26.5422 H   0  0  0  0  0  0
  -28.2586  -38.0102   24.7500 H   0  0  0  0  0  0
  -28.1078  -36.2631   24.6301 H   0  0  0  0  0  0
  -27.2301  -37.1448   25.8872 H   0  0  0  0  0  0
  -20.9399  -29.8768   21.6878 H   0  0  0  0  0  0
  -26.0173  -38.2841   24.1409 H   0  0  0  0  0  0
  -29.5591  -20.4890   17.6136 H   0  0  0  0  0  0
  -30.7454  -21.5078   18.4153 H   0  0  0  0  0  0
  -29.3290  -22.2186   17.6499 H   0  0  0  0  0  0
  -27.3515  -25.7962   22.6259 H   0  0  0  0  0  0
  -27.3970  -24.0460   22.5025 H   0  0  0  0  0  0
  -26.2670  -24.9544   21.5161 H   0  0  0  0  0  0
  -27.8710  -21.0518   19.2982 H   0  0  0  0  0  0
  -29.3075  -25.0377   21.3284 H   0  0  0  0  0  0
  -31.5537  -21.2821   21.0147 H   0  0  0  0  0  0
  -32.4163  -19.9637   21.6694 H   0  0  0  0  0  0
  -28.7587  -15.4720   20.8080 H   0  0  0  0  0  0
  -29.3080  -22.5432   21.2430 H   0  0  0  0  0  0
  1 25  1  0  0  0
  1 30  2  0  0  0
  1 81  1  0  0  0
  2  3  1  0  0  0
  2 25  1  0  0  0
  2 85  1  0  0  0
  2 86  1  0  0  0
  3  4  1  0  0  0
  3 87  1  0  0  0
  3 88  1  0  0  0
  4  5  1  0  0  0
  4 89  1  0  0  0
  4 90  1  0  0  0
  5  6  1  0  0  0
  5 26  1  0  0  0
  5 91  1  0  0  0
  6 25  1  0  0  0
  6 92  1  0  0  0
  6 93  1  0  0  0
  7  8  2  0  0  0
  7 26  1  0  0  0
  7 29  1  0  0  0
  8  9  1  0  0  0
  8 22  1  0  0  0
  9 10  1  0  0  0
  9 27  2  0  0  0
 10 11  2  0  0  0
 10 15  1  0  0  0
 11 12  1  0  0  0
 11 94  1  0  0  0
 12 13  2  0  0  0
 12 95  1  0  0  0
 13 14  1  0  0  0
 13 31  1  0  0  0
 14 15  2  0  0  0
 14 96  1  0  0  0
 15 97  1  0  0  0
 16 17  2  0  0  0
 16 21  1  0  0  0
 16 31  1  0  0  0
 17 18  1  0  0  0
 17 98  1  0  0  0
 18 19  2  0  0  0
 18 99  1  0  0  0
 19 20  1  0  0  0
 19 24  1  0  0  0
 20 21  2  0  0  0
 20100  1  0  0  0
 21 23  1  0  0  0
 22 28  1  0  0  0
 22 32  2  0  0  0
 26 27  1  0  0  0
 28101  1  0  0  0
 28102  1  0  0  0
 29103  1  0  0  0
 29104  1  0  0  0
 33 34  1  0  0  0
 33 66  1  0  0  0
 33 70  2  0  0  0
 34 36  1  0  0  0
 34 59  1  0  0  0
 34105  1  0  0  0
 35 44  2  0  0  0
 35 45  1  0  0  0
 35 68  1  0  0  0
 36 56  1  0  0  0
 36106  1  0  0  0
 37 39  1  0  0  0
 37 47  1  0  0  0
 37 66  1  0  0  0
 37107  1  0  0  0
 38 43  2  0  0  0
 38 46  1  0  0  0
 38 47  1  0  0  0
 39 64  1  0  0  0
 39 67  2  0  0  0
 40 52  1  0  0  0
 40 53  2  0  0  0
 40 58  1  0  0  0
 41108  1  0  0  0
 41109  1  0  0  0
 41110  1  0  0  0
 41 48  1  0  0  0
 42 43  1  0  0  0
 42 66  1  0  0  0
 42111  1  0  0  0
 42112  1  0  0  0
 43 44  1  0  0  0
 44113  1  0  0  0
 45 46  2  0  0  0
 45114  1  0  0  0
 46115  1  0  0  0
 47116  1  0  0  0
 47117  1  0  0  0
 48 56  1  0  0  0
 48 65  1  0  0  0
 48118  1  0  0  0
 49 50  1  0  0  0
 49 53  1  0  0  0
 49 64  1  0  0  0
 49119  1  0  0  0
 50 51  1  0  0  0
 50120  1  0  0  0
 50121  1  0  0  0
 51 52  1  0  0  0
 51122  1  0  0  0
 51123  1  0  0  0
 52124  1  0  0  0
 52125  1  0  0  0
 53 54  1  0  0  0
 54 55  2  0  0  0
 54126  1  0  0  0
 55 57  1  0  0  0
 55127  1  0  0  0
 56 69  2  0  0  0
 57 58  2  0  0  0
 57128  1  0  0  0
 58129  1  0  0  0
 59 60  1  0  0  0
 59 61  1  0  0  0
 59 62  1  0  0  0
 60130  1  0  0  0
 60131  1  0  0  0
 60132  1  0  0  0
 61133  1  0  0  0
 61134  1  0  0  0
 61135  1  0  0  0
 62136  1  0  0  0
 62137  1  0  0  0
 62138  1  0  0  0
 63 65  1  0  0  0
 63139  1  0  0  0
 63140  1  0  0  0
 63141  1  0  0  0
 64142  1  0  0  0
 65143  1  0  0  0
 68 78  1  0  0  0
 71 72  2  0  0  0
 71 77  1  0  0  0
 71 84  1  0  0  0
 72 79  1  0  0  0
 72 80  1  0  0  0
 73 79  2  0  0  0
 73 81  1  0  0  0
 73 84  1  0  0  0
 74 78  1  0  0  0
 74 82  1  0  0  0
 74 83  2  0  0  0
 75144  1  0  0  0
 75145  1  0  0  0
 75146  1  0  0  0
 75 77  1  0  0  0
 76147  1  0  0  0
 76148  1  0  0  0
 76149  1  0  0  0
 76 78  1  0  0  0
 77 82  1  0  0  0
 77150  1  0  0  0
 78151  1  0  0  0
 80152  1  0  0  0
 80153  1  0  0  0
 81154  1  0  0  0
 82155  1  0  0  0
M  ISO  4   1 100  68 101  78 101  81 100
M  END
> <chiral flag>
0

> <version>
0

> <s_m_source_file>
/data/baiqing/PycharmProjects/Reinvent-master-3.2/result/LINK_invent/BTK/process_docking_weight1_custom_product_contain_oxygen_bond_distance_aromatic_linkinvent_7_9_3/rearranged_h_0183.sdf

> <i_m_source_file_index>
90

> <r_mmod_Potential_Energy-OPLS-2005>
16.5318603515625

> <r_mmod_Stretch_Energy-OPLS-2005>
112.333770751953

> <r_mmod_Bend_Energy-OPLS-2005>
188.081146240234

> <r_mmod_Torsional_Energy-OPLS-2005>
235.206527709961

> <r_mmod_Improper_Torsional_Energy-OPLS-2005>
9.08605575561523

> <r_mmod_Van_der_Waal_Energy-OPLS-2005>
108.662216186523

> <r_mmod_Electrostatic_Energy-OPLS-2005>
-459.635925292969

> <r_mmod_Solvation_Energy-OPLS-2005>
-255.203720092773

> <b_mmod_Minimization_Converged-OPLS-2005>
0

> <r_mmod_RMS_Derivative-OPLS-2005>
1.08527100086212

$$$$
90
                    3D
 Structure written by MMmdl.
157165  0  0  1  0            999 V2000
  -30.5868  -14.7389   20.4580 C   0  0  0  0  0  0
  -30.4442  -12.4491   19.4725 C   0  0  0  0  0  0
  -29.5177  -12.4988   18.2369 C   0  0  0  0  0  0
  -28.0434  -12.3186   18.6515 C   0  0  0  0  0  0
  -27.6451  -13.2209   19.8498 C   0  0  2  0  0  0
  -28.6875  -13.1402   20.9862 C   0  0  0  0  0  0
  -25.2535  -13.8175   20.5680 C   0  0  0  0  0  0
  -24.1813  -13.0440   20.9207 C   0  0  0  0  0  0
  -24.6377  -11.6910   20.8736 C   0  0  0  0  0  0
  -23.9046  -10.4293   21.0402 C   0  0  0  0  0  0
  -24.3609   -9.4210   21.9168 C   0  0  0  0  0  0
  -23.6294   -8.2239   22.0734 C   0  0  0  0  0  0
  -22.4272   -8.0274   21.3533 C   0  0  0  0  0  0
  -21.9904   -9.0246   20.4630 C   0  0  0  0  0  0
  -22.7225  -10.2129   20.3041 C   0  0  0  0  0  0
  -21.6852   -6.0731   22.5286 C   0  0  0  0  0  0
  -21.4014   -6.5629   23.8221 C   0  0  0  0  0  0
  -21.3668   -5.6776   24.9178 C   0  0  0  0  0  0
  -21.6053   -4.3042   24.7223 C   0  0  0  0  0  0
  -21.8820   -3.8138   23.4341 C   0  0  0  0  0  0
  -21.9186   -4.6959   22.3403 C   0  0  0  0  0  0
  -22.7839  -13.5237   21.1877 C   0  0  0  0  0  0
  -22.1659   -4.2145   21.0980 F   0  0  0  0  0  0
  -21.5628   -3.4526   25.7736 F   0  0  0  0  0  0
  -29.9922  -13.4984   20.4123 N   0  0  0  0  0  0
  -26.2943  -12.9358   20.3252 N   0  0  0  0  0  0
  -25.9299  -11.6517   20.5716 N   0  0  0  0  0  0
  -22.0464  -12.8236   22.0431 N   0  0  0  0  0  0
  -25.4233  -15.1901   20.4094 N   0  0  0  0  0  0
  -31.7731  -14.8738   20.1458 O   0  0  0  0  0  0
  -21.6634   -6.8874   21.4247 O   0  0  0  0  0  0
  -22.3531  -14.5542   20.6717 O   0  0  0  0  0  0
  -24.6286  -31.8571   23.1959 C   0  0  0  0  0  0
  -25.9102  -32.4772   23.8321 C   0  0  1  0  0  0
  -27.2252  -27.2784   20.1346 C   0  0  0  0  0  0
  -25.5879  -33.8572   24.2234 N   0  0  0  0  0  0
  -23.4249  -30.4766   21.5412 C   0  0  2  0  0  0
  -24.8741  -28.9190   20.1179 C   0  0  0  0  0  0
  -22.7490  -29.4608   22.4935 C   0  0  0  0  0  0
  -18.0281  -28.1389   22.8479 C   0  0  0  0  0  0
  -24.1480  -36.7308   23.2646 C   0  0  0  0  0  0
  -25.9694  -30.7764   21.3706 C   0  0  0  0  0  0
  -26.0468  -29.3974   20.7190 C   0  0  0  0  0  0
  -27.2298  -28.5917   20.7104 C   0  0  0  0  0  0
  -26.0311  -26.8564   19.5170 C   0  0  0  0  0  0
  -24.8698  -27.6544   19.5081 C   0  0  0  0  0  0
  -23.6424  -29.8035   20.1612 C   0  0  0  0  0  0
  -25.4103  -36.3081   24.0328 C   0  0  1  0  0  0
  -20.5889  -28.3687   23.1287 C   0  0  2  0  0  0
  -20.6767  -26.9404   22.5422 C   0  0  0  0  0  0
  -19.5743  -26.6378   21.5215 C   0  0  0  0  0  0
  -18.1922  -26.7932   22.1622 C   0  0  0  0  0  0
  -19.1542  -28.8855   23.2875 C   0  0  0  0  0  0
  -18.9469  -30.1459   23.8887 C   0  0  0  0  0  0
  -17.6474  -30.6588   24.0571 C   0  0  0  0  0  0
  -25.9045  -34.9454   23.5091 C   0  0  0  0  0  0
  -16.5358  -29.9093   23.6332 C   0  0  0  0  0  0
  -16.7279  -28.6516   23.0337 C   0  0  0  0  0  0
  -26.4467  -31.6600   25.0711 C   0  0  0  0  0  0
  -25.3690  -31.3776   26.1442 C   0  0  0  0  0  0
  -27.0317  -30.3014   24.6197 C   0  0  0  0  0  0
  -27.6019  -32.4361   25.7474 C   0  0  0  0  0  0
  -27.5576  -37.1803   24.8459 C   0  0  0  0  0  0
  -21.4200  -29.3029   22.3675 N   0  0  0  0  0  0
  -26.4280  -37.3783   23.9416 N   0  0  0  0  0  0
  -24.6935  -31.0554   22.0919 N   0  0  0  0  0  0
  -23.4200  -28.8163   23.3031 O   0  0  0  0  0  0
  -28.3283  -26.3998   20.1183 O   0  0  0  0  0  0
  -26.5660  -34.8934   22.4683 O   0  0  0  0  0  0
  -23.5446  -32.1380   23.7257 O   0  0  0  0  0  0
  -31.1845  -17.9910   20.2645 C   0  0  0  0  0  0
  -29.0174  -18.3171   20.4208 C   0  0  0  0  0  0
  -29.9612  -17.2890   20.4656 C   0  0  0  0  0  0
  -28.6392  -25.3108   22.1873 C   0  0  0  0  0  0
  -28.8879  -23.7316   20.0394 C   0  0  0  0  0  0
  -29.1001  -20.9526   19.8042 C   0  0  0  0  0  0
  -28.1955  -25.0401   20.7410 C   0  0  2  0  0  0
  -29.1466  -22.2731   20.7585 C   0  0  1  0  0  0
  -30.5010  -22.2720   21.5354 C   0  0  0  0  0  0
  -30.9915  -19.3097   20.0831 N   0  0  0  0  0  0
  -29.6528  -19.5663   20.1849 N   0  0  0  0  0  0
  -29.7514  -15.8289   20.6500 N   0  0  0  0  0  0
  -28.0943  -22.0763   21.6964 O   0  0  0  0  0  0
  -30.6561  -23.3526   22.2917 F   0  0  0  0  0  0
  -30.5637  -21.2129   22.3447 F   0  0  0  0  0  0
  -31.5257  -22.2365   20.6829 F   0  0  0  0  0  0
  -31.4825  -12.5911   19.1686 H   0  0  0  0  0  0
  -30.4002  -11.4686   19.9495 H   0  0  0  0  0  0
  -29.8035  -11.7258   17.5219 H   0  0  0  0  0  0
  -29.6418  -13.4517   17.7198 H   0  0  0  0  0  0
  -27.9059  -11.2704   18.9213 H   0  0  0  0  0  0
  -27.3866  -12.4980   17.8000 H   0  0  0  0  0  0
  -27.6436  -14.2426   19.4691 H   0  0  0  0  0  0
  -28.7187  -12.1378   21.4166 H   0  0  0  0  0  0
  -28.4159  -13.8109   21.8038 H   0  0  0  0  0  0
  -25.2756   -9.5696   22.4730 H   0  0  0  0  0  0
  -24.0010   -7.4632   22.7454 H   0  0  0  0  0  0
  -21.0830   -8.8768   19.8942 H   0  0  0  0  0  0
  -22.3683  -10.9664   19.6143 H   0  0  0  0  0  0
  -21.2007   -7.6135   23.9728 H   0  0  0  0  0  0
  -21.1493   -6.0496   25.9082 H   0  0  0  0  0  0
  -22.0587   -2.7598   23.2834 H   0  0  0  0  0  0
  -22.4071  -11.9920   22.4877 H   0  0  0  0  0  0
  -21.1072  -13.1264   22.2591 H   0  0  0  0  0  0
  -24.6525  -15.8404   20.5124 H   0  0  0  0  0  0
  -26.2562  -15.6269   20.0365 H   0  0  0  0  0  0
  -26.7165  -32.5430   23.1070 H   0  0  0  0  0  0
  -24.9915  -33.9720   25.0302 H   0  0  0  0  0  0
  -22.7185  -31.2959   21.3933 H   0  0  0  0  0  0
  -23.3744  -35.9637   23.3296 H   0  0  0  0  0  0
  -24.3572  -36.8952   22.2063 H   0  0  0  0  0  0
  -23.7241  -37.6503   23.6698 H   0  0  0  0  0  0
  -26.1029  -31.5334   20.5968 H   0  0  0  0  0  0
  -26.8477  -30.8332   22.0017 H   0  0  0  0  0  0
  -28.1332  -28.9587   21.1770 H   0  0  0  0  0  0
  -25.9912  -25.8853   19.0437 H   0  0  0  0  0  0
  -23.9705  -27.2800   19.0390 H   0  0  0  0  0  0
  -23.7603  -30.5756   19.4001 H   0  0  0  0  0  0
  -22.7621  -29.2316   19.8627 H   0  0  0  0  0  0
  -25.1287  -36.1912   25.0824 H   0  0  0  0  0  0
  -20.9987  -28.3261   24.1406 H   0  0  0  0  0  0
  -20.5654  -26.2291   23.3624 H   0  0  0  0  0  0
  -21.6638  -26.7415   22.1225 H   0  0  0  0  0  0
  -19.6899  -25.6283   21.1250 H   0  0  0  0  0  0
  -19.6688  -27.3186   20.6744 H   0  0  0  0  0  0
  -17.4192  -26.6676   21.4028 H   0  0  0  0  0  0
  -18.0327  -26.0078   22.9025 H   0  0  0  0  0  0
  -19.7948  -30.7273   24.2258 H   0  0  0  0  0  0
  -17.5029  -31.6269   24.5168 H   0  0  0  0  0  0
  -15.5360  -30.2994   23.7666 H   0  0  0  0  0  0
  -15.8677  -28.0850   22.7039 H   0  0  0  0  0  0
  -24.5820  -30.7184   25.7762 H   0  0  0  0  0  0
  -24.8935  -32.2967   26.4886 H   0  0  0  0  0  0
  -25.7987  -30.8918   27.0212 H   0  0  0  0  0  0
  -26.2906  -29.6766   24.1199 H   0  0  0  0  0  0
  -27.3974  -29.7277   25.4725 H   0  0  0  0  0  0
  -27.8792  -30.4290   23.9459 H   0  0  0  0  0  0
  -27.2599  -33.3650   26.2060 H   0  0  0  0  0  0
  -28.3804  -32.6954   25.0288 H   0  0  0  0  0  0
  -28.0726  -31.8503   26.5382 H   0  0  0  0  0  0
  -28.2587  -38.0107   24.7516 H   0  0  0  0  0  0
  -28.1075  -36.2643   24.6248 H   0  0  0  0  0  0
  -27.2317  -37.1412   25.8869 H   0  0  0  0  0  0
  -20.9382  -29.8754   21.6889 H   0  0  0  0  0  0
  -26.0153  -38.2856   24.1419 H   0  0  0  0  0  0
  -32.1924  -17.6003   20.2184 H   0  0  0  0  0  0
  -27.9394  -18.2664   20.4866 H   0  0  0  0  0  0
  -28.5362  -24.4304   22.8202 H   0  0  0  0  0  0
  -28.0248  -26.0897   22.6396 H   0  0  0  0  0  0
  -29.6727  -25.6564   22.2289 H   0  0  0  0  0  0
  -29.8456  -24.0517   19.6305 H   0  0  0  0  0  0
  -28.2829  -23.5312   19.1547 H   0  0  0  0  0  0
  -29.6356  -21.2322   18.8964 H   0  0  0  0  0  0
  -28.0735  -20.8093   19.4653 H   0  0  0  0  0  0
  -27.1357  -24.7911   20.8064 H   0  0  0  0  0  0
  -28.8027  -15.5580   20.8586 H   0  0  0  0  0  0
  -28.4333  -21.4767   22.3544 H   0  0  0  0  0  0
  1 25  1  0  0  0
  1 30  2  0  0  0
  1 82  1  0  0  0
  2  3  1  0  0  0
  2 25  1  0  0  0
  2 87  1  0  0  0
  2 88  1  0  0  0
  3  4  1  0  0  0
  3 89  1  0  0  0
  3 90  1  0  0  0
  4  5  1  0  0  0
  4 91  1  0  0  0
  4 92  1  0  0  0
  5  6  1  0  0  0
  5 26  1  0  0  0
  5 93  1  0  0  0
  6 25  1  0  0  0
  6 94  1  0  0  0
  6 95  1  0  0  0
  7  8  2  0  0  0
  7 26  1  0  0  0
  7 29  1  0  0  0
  8  9  1  0  0  0
  8 22  1  0  0  0
  9 10  1  0  0  0
  9 27  2  0  0  0
 10 11  2  0  0  0
 10 15  1  0  0  0
 11 12  1  0  0  0
 11 96  1  0  0  0
 12 13  2  0  0  0
 12 97  1  0  0  0
 13 14  1  0  0  0
 13 31  1  0  0  0
 14 15  2  0  0  0
 14 98  1  0  0  0
 15 99  1  0  0  0
 16 17  2  0  0  0
 16 21  1  0  0  0
 16 31  1  0  0  0
 17 18  1  0  0  0
 17100  1  0  0  0
 18 19  2  0  0  0
 18101  1  0  0  0
 19 20  1  0  0  0
 19 24  1  0  0  0
 20 21  2  0  0  0
 20102  1  0  0  0
 21 23  1  0  0  0
 22 28  1  0  0  0
 22 32  2  0  0  0
 26 27  1  0  0  0
 28103  1  0  0  0
 28104  1  0  0  0
 29105  1  0  0  0
 29106  1  0  0  0
 33 34  1  0  0  0
 33 66  1  0  0  0
 33 70  2  0  0  0
 34 36  1  0  0  0
 34 59  1  0  0  0
 34107  1  0  0  0
 35 44  2  0  0  0
 35 45  1  0  0  0
 35 68  1  0  0  0
 36 56  1  0  0  0
 36108  1  0  0  0
 37 39  1  0  0  0
 37 47  1  0  0  0
 37 66  1  0  0  0
 37109  1  0  0  0
 38 43  2  0  0  0
 38 46  1  0  0  0
 38 47  1  0  0  0
 39 64  1  0  0  0
 39 67  2  0  0  0
 40 52  1  0  0  0
 40 53  2  0  0  0
 40 58  1  0  0  0
 41110  1  0  0  0
 41111  1  0  0  0
 41112  1  0  0  0
 41 48  1  0  0  0
 42 43  1  0  0  0
 42 66  1  0  0  0
 42113  1  0  0  0
 42114  1  0  0  0
 43 44  1  0  0  0
 44115  1  0  0  0
 45 46  2  0  0  0
 45116  1  0  0  0
 46117  1  0  0  0
 47118  1  0  0  0
 47119  1  0  0  0
 48 56  1  0  0  0
 48 65  1  0  0  0
 48120  1  0  0  0
 49 50  1  0  0  0
 49 53  1  0  0  0
 49 64  1  0  0  0
 49121  1  0  0  0
 50 51  1  0  0  0
 50122  1  0  0  0
 50123  1  0  0  0
 51 52  1  0  0  0
 51124  1  0  0  0
 51125  1  0  0  0
 52126  1  0  0  0
 52127  1  0  0  0
 53 54  1  0  0  0
 54 55  2  0  0  0
 54128  1  0  0  0
 55 57  1  0  0  0
 55129  1  0  0  0
 56 69  2  0  0  0
 57 58  2  0  0  0
 57130  1  0  0  0
 58131  1  0  0  0
 59 60  1  0  0  0
 59 61  1  0  0  0
 59 62  1  0  0  0
 60132  1  0  0  0
 60133  1  0  0  0
 60134  1  0  0  0
 61135  1  0  0  0
 61136  1  0  0  0
 61137  1  0  0  0
 62138  1  0  0  0
 62139  1  0  0  0
 62140  1  0  0  0
 63 65  1  0  0  0
 63141  1  0  0  0
 63142  1  0  0  0
 63143  1  0  0  0
 64144  1  0  0  0
 65145  1  0  0  0
 68 77  1  0  0  0
 71 73  1  0  0  0
 71 80  2  0  0  0
 71146  1  0  0  0
 72 73  2  0  0  0
 72 81  1  0  0  0
 72147  1  0  0  0
 73 82  1  0  0  0
 74148  1  0  0  0
 74149  1  0  0  0
 74150  1  0  0  0
 74 77  1  0  0  0
 75 77  1  0  0  0
 75 78  1  0  0  0
 75151  1  0  0  0
 75152  1  0  0  0
 76 78  1  0  0  0
 76 81  1  0  0  0
 76153  1  0  0  0
 76154  1  0  0  0
 77155  1  0  0  0
 78 79  1  0  0  0
 78 83  1  0  0  0
 79 84  1  0  0  0
 79 85  1  0  0  0
 79 86  1  0  0  0
 80 81  1  0  0  0
 82156  1  0  0  0
 83157  1  0  0  0
M  ISO  4   1 100  68 101  77 101  82 100
M  END
> <chiral flag>
0

> <version>
0

> <s_m_source_file>
/data/baiqing/PycharmProjects/Reinvent-master-3.2/result/LINK_invent/BTK/process_docking_weight1_custom_product_contain_oxygen_bond_distance_aromatic_linkinvent_7_9_3/rearranged_h_0183.sdf

> <i_m_source_file_index>
91

> <r_mmod_Potential_Energy-OPLS-2005>
220.014144897461

> <r_mmod_Stretch_Energy-OPLS-2005>
128.975021362305

> <r_mmod_Bend_Energy-OPLS-2005>
187.077850341797

> <r_mmod_Torsional_Energy-OPLS-2005>
265.447631835938

> <r_mmod_Improper_Torsional_Energy-OPLS-2005>
6.29262590408325

> <r_mmod_Van_der_Waal_Energy-OPLS-2005>
116.712875366211

> <r_mmod_Electrostatic_Energy-OPLS-2005>
-334.627288818359

> <r_mmod_Solvation_Energy-OPLS-2005>
-228.375991821289

> <b_mmod_Minimization_Converged-OPLS-2005>
0

> <r_mmod_RMS_Derivative-OPLS-2005>
2.18329405784607

$$$$
91
                    3D
 Structure written by MMmdl.
152160  0  0  1  0            999 V2000
  -30.6385  -14.5752   20.5442 C   0  0  0  0  0  0
  -30.4429  -12.3627   19.4393 C   0  0  0  0  0  0
  -29.5067  -12.5089   18.2199 C   0  0  0  0  0  0
  -28.0292  -12.3511   18.6327 C   0  0  0  0  0  0
  -27.6621  -13.2050   19.8742 C   0  0  2  0  0  0
  -28.7059  -13.0136   20.9978 C   0  0  0  0  0  0
  -25.2608  -13.8148   20.5685 C   0  0  0  0  0  0
  -24.1854  -13.0439   20.9178 C   0  0  0  0  0  0
  -24.6385  -11.6897   20.8742 C   0  0  0  0  0  0
  -23.9048  -10.4295   21.0403 C   0  0  0  0  0  0
  -24.3597   -9.4213   21.9178 C   0  0  0  0  0  0
  -23.6279   -8.2246   22.0756 C   0  0  0  0  0  0
  -22.4267   -8.0275   21.3533 C   0  0  0  0  0  0
  -21.9896   -9.0251   20.4645 C   0  0  0  0  0  0
  -22.7225  -10.2129   20.3056 C   0  0  0  0  0  0
  -21.6848   -6.0720   22.5270 C   0  0  0  0  0  0
  -21.4011   -6.5624   23.8204 C   0  0  0  0  0  0
  -21.3671   -5.6780   24.9162 C   0  0  0  0  0  0
  -21.6053   -4.3048   24.7218 C   0  0  0  0  0  0
  -21.8823   -3.8134   23.4336 C   0  0  0  0  0  0
  -21.9195   -4.6945   22.3393 C   0  0  0  0  0  0
  -22.7878  -13.5250   21.1831 C   0  0  0  0  0  0
  -22.1664   -4.2131   21.0968 F   0  0  0  0  0  0
  -21.5634   -3.4537   25.7732 F   0  0  0  0  0  0
  -30.0264  -13.3571   20.4424 N   0  0  0  0  0  0
  -26.3036  -12.9303   20.3366 N   0  0  0  0  0  0
  -25.9319  -11.6468   20.5782 N   0  0  0  0  0  0
  -22.0501  -12.8257   22.0375 N   0  0  0  0  0  0
  -25.4353  -15.1864   20.4084 N   0  0  0  0  0  0
  -31.7844  -14.7748   20.1288 O   0  0  0  0  0  0
  -21.6628   -6.8866   21.4232 O   0  0  0  0  0  0
  -22.3584  -14.5567   20.6686 O   0  0  0  0  0  0
  -24.6180  -31.8639   23.2051 C   0  0  0  0  0  0
  -25.9043  -32.4793   23.8386 C   0  0  1  0  0  0
  -27.2368  -27.3740   20.1322 C   0  0  0  0  0  0
  -25.5897  -33.8600   24.2300 N   0  0  0  0  0  0
  -23.4130  -30.4800   21.5460 C   0  0  2  0  0  0
  -24.8642  -28.9350   20.1218 C   0  0  0  0  0  0
  -22.7449  -29.4608   22.4972 C   0  0  0  0  0  0
  -18.0258  -28.1345   22.8453 C   0  0  0  0  0  0
  -24.1486  -36.7321   23.2635 C   0  0  0  0  0  0
  -25.9454  -30.8104   21.3681 C   0  0  0  0  0  0
  -26.0253  -29.4355   20.7268 C   0  0  0  0  0  0
  -27.2175  -28.6645   20.7259 C   0  0  0  0  0  0
  -26.0626  -26.9019   19.5147 C   0  0  0  0  0  0
  -24.8802  -27.6685   19.5115 C   0  0  0  0  0  0
  -23.6298  -29.8100   20.1617 C   0  0  0  0  0  0
  -25.4102  -36.3102   24.0342 C   0  0  1  0  0  0
  -20.5868  -28.3654   23.1276 C   0  0  2  0  0  0
  -20.6755  -26.9378   22.5401 C   0  0  0  0  0  0
  -19.5740  -26.6362   21.5189 C   0  0  0  0  0  0
  -18.1912  -26.7880   22.1599 C   0  0  0  0  0  0
  -19.1520  -28.8812   23.2856 C   0  0  0  0  0  0
  -18.9457  -30.1404   23.8889 C   0  0  0  0  0  0
  -17.6466  -30.6559   24.0536 C   0  0  0  0  0  0
  -25.9037  -34.9464   23.5114 C   0  0  0  0  0  0
  -16.5353  -29.9061   23.6311 C   0  0  0  0  0  0
  -16.7259  -28.6473   23.0334 C   0  0  0  0  0  0
  -26.4466  -31.6579   25.0733 C   0  0  0  0  0  0
  -25.3724  -31.3729   26.1480 C   0  0  0  0  0  0
  -27.0283  -30.3009   24.6135 C   0  0  0  0  0  0
  -27.6048  -32.4306   25.7492 C   0  0  0  0  0  0
  -27.5587  -37.1784   24.8450 C   0  0  0  0  0  0
  -21.4173  -29.3027   22.3710 N   0  0  0  0  0  0
  -26.4269  -37.3792   23.9435 N   0  0  0  0  0  0
  -24.6767  -31.0681   22.0980 N   0  0  0  0  0  0
  -23.4186  -28.8149   23.3037 O   0  0  0  0  0  0
  -28.3813  -26.5954   20.0454 O   0  0  0  0  0  0
  -26.5635  -34.8934   22.4691 O   0  0  0  0  0  0
  -23.5354  -32.1425   23.7412 O   0  0  0  0  0  0
  -30.5994  -17.7973   21.8136 C   0  0  0  0  0  0
  -29.9951  -16.9455   20.9112 C   0  0  0  0  0  0
  -29.7021  -19.4363   20.4609 C   0  0  0  0  0  0
  -29.4523  -20.7782   19.7701 C   0  0  0  0  0  0
  -28.9043  -23.1520   20.1406 C   0  0  0  0  0  0
  -27.9784  -23.6129   22.4977 C   0  0  0  0  0  0
  -28.6699  -25.6512   21.1128 C   0  0  0  0  0  0
  -28.1259  -24.1616   21.0585 C   0  0  1  0  0  0
  -30.4233  -19.1784   21.5632 N   0  0  0  0  0  0
  -29.8417  -15.5795   20.9972 N   0  0  0  0  0  0
  -29.0983  -21.8528   20.5363 N   0  0  0  0  0  0
  -29.5501  -20.8159   18.5377 O   0  0  0  0  0  0
  -29.2891  -23.5833   19.0490 O   0  0  0  0  0  0
  -29.2182  -17.9166   19.6592 S   0  0  0  0  0  0
  -31.4827  -12.4960   19.1359 H   0  0  0  0  0  0
  -30.3821  -11.3575   19.8588 H   0  0  0  0  0  0
  -29.7630  -11.7694   17.4614 H   0  0  0  0  0  0
  -29.6547  -13.4853   17.7587 H   0  0  0  0  0  0
  -27.8565  -11.2972   18.8476 H   0  0  0  0  0  0
  -27.3757  -12.6005   17.7965 H   0  0  0  0  0  0
  -27.6979  -14.2478   19.5591 H   0  0  0  0  0  0
  -28.7065  -11.9787   21.3430 H   0  0  0  0  0  0
  -28.4588  -13.6128   21.8761 H   0  0  0  0  0  0
  -25.2736   -9.5687   22.4762 H   0  0  0  0  0  0
  -23.9980   -7.4640   22.7492 H   0  0  0  0  0  0
  -21.0821   -8.8785   19.8952 H   0  0  0  0  0  0
  -22.3690  -10.9672   19.6174 H   0  0  0  0  0  0
  -21.2002   -7.6131   23.9701 H   0  0  0  0  0  0
  -21.1494   -6.0505   25.9066 H   0  0  0  0  0  0
  -22.0596   -2.7596   23.2841 H   0  0  0  0  0  0
  -22.4082  -11.9895   22.4741 H   0  0  0  0  0  0
  -21.1140  -13.1333   22.2610 H   0  0  0  0  0  0
  -24.6688  -15.8436   20.5126 H   0  0  0  0  0  0
  -26.2833  -15.6209   20.0669 H   0  0  0  0  0  0
  -26.7131  -32.5517   23.1165 H   0  0  0  0  0  0
  -25.0007  -33.9770   25.0408 H   0  0  0  0  0  0
  -22.6996  -31.2943   21.3990 H   0  0  0  0  0  0
  -23.3759  -35.9642   23.3260 H   0  0  0  0  0  0
  -24.3604  -36.8985   22.2064 H   0  0  0  0  0  0
  -23.7223  -37.6500   23.6687 H   0  0  0  0  0  0
  -26.0598  -31.5664   20.5913 H   0  0  0  0  0  0
  -26.8314  -30.8721   21.9887 H   0  0  0  0  0  0
  -28.1209  -29.0534   21.1749 H   0  0  0  0  0  0
  -26.0668  -25.9379   19.0265 H   0  0  0  0  0  0
  -23.9924  -27.2723   19.0387 H   0  0  0  0  0  0
  -23.7465  -30.5869   19.4035 H   0  0  0  0  0  0
  -22.7539  -29.2325   19.8602 H   0  0  0  0  0  0
  -25.1242  -36.1972   25.0835 H   0  0  0  0  0  0
  -20.9922  -28.3233   24.1413 H   0  0  0  0  0  0
  -20.5636  -26.2269   23.3589 H   0  0  0  0  0  0
  -21.6621  -26.7376   22.1214 H   0  0  0  0  0  0
  -19.6909  -25.6280   21.1210 H   0  0  0  0  0  0
  -19.6706  -27.3172   20.6719 H   0  0  0  0  0  0
  -17.4174  -26.6620   21.4014 H   0  0  0  0  0  0
  -18.0318  -26.0005   22.8984 H   0  0  0  0  0  0
  -19.7961  -30.7171   24.2315 H   0  0  0  0  0  0
  -17.5045  -31.6259   24.5101 H   0  0  0  0  0  0
  -15.5356  -30.2956   23.7651 H   0  0  0  0  0  0
  -15.8650  -28.0794   22.7059 H   0  0  0  0  0  0
  -24.5870  -30.7082   25.7828 H   0  0  0  0  0  0
  -24.8930  -32.2894   26.4929 H   0  0  0  0  0  0
  -25.8040  -30.8892   27.0250 H   0  0  0  0  0  0
  -26.2812  -29.6794   24.1161 H   0  0  0  0  0  0
  -27.3988  -29.7224   25.4606 H   0  0  0  0  0  0
  -27.8690  -30.4295   23.9318 H   0  0  0  0  0  0
  -27.2656  -33.3601   26.2084 H   0  0  0  0  0  0
  -28.3835  -32.6868   25.0298 H   0  0  0  0  0  0
  -28.0727  -31.8421   26.5394 H   0  0  0  0  0  0
  -28.2514  -38.0159   24.7563 H   0  0  0  0  0  0
  -28.1158  -36.2678   24.6143 H   0  0  0  0  0  0
  -27.2338  -37.1284   25.8860 H   0  0  0  0  0  0
  -20.9353  -29.8788   21.6958 H   0  0  0  0  0  0
  -26.0159  -38.2864   24.1500 H   0  0  0  0  0  0
  -31.1436  -17.5056   22.7023 H   0  0  0  0  0  0
  -27.3845  -24.2881   23.1156 H   0  0  0  0  0  0
  -28.9466  -23.4974   22.9862 H   0  0  0  0  0  0
  -27.4725  -22.6471   22.5192 H   0  0  0  0  0  0
  -28.3486  -26.1156   22.0448 H   0  0  0  0  0  0
  -29.7558  -25.6062   21.1960 H   0  0  0  0  0  0
  -27.1180  -24.2032   20.6476 H   0  0  0  0  0  0
  -28.9205  -15.2679   21.2659 H   0  0  0  0  0  0
  -28.9084  -21.6298   21.4998 H   0  0  0  0  0  0
  1 25  1  0  0  0
  1 30  2  0  0  0
  1 80  1  0  0  0
  2  3  1  0  0  0
  2 25  1  0  0  0
  2 85  1  0  0  0
  2 86  1  0  0  0
  3  4  1  0  0  0
  3 87  1  0  0  0
  3 88  1  0  0  0
  4  5  1  0  0  0
  4 89  1  0  0  0
  4 90  1  0  0  0
  5  6  1  0  0  0
  5 26  1  0  0  0
  5 91  1  0  0  0
  6 25  1  0  0  0
  6 92  1  0  0  0
  6 93  1  0  0  0
  7  8  2  0  0  0
  7 26  1  0  0  0
  7 29  1  0  0  0
  8  9  1  0  0  0
  8 22  1  0  0  0
  9 10  1  0  0  0
  9 27  2  0  0  0
 10 11  2  0  0  0
 10 15  1  0  0  0
 11 12  1  0  0  0
 11 94  1  0  0  0
 12 13  2  0  0  0
 12 95  1  0  0  0
 13 14  1  0  0  0
 13 31  1  0  0  0
 14 15  2  0  0  0
 14 96  1  0  0  0
 15 97  1  0  0  0
 16 17  2  0  0  0
 16 21  1  0  0  0
 16 31  1  0  0  0
 17 18  1  0  0  0
 17 98  1  0  0  0
 18 19  2  0  0  0
 18 99  1  0  0  0
 19 20  1  0  0  0
 19 24  1  0  0  0
 20 21  2  0  0  0
 20100  1  0  0  0
 21 23  1  0  0  0
 22 28  1  0  0  0
 22 32  2  0  0  0
 26 27  1  0  0  0
 28101  1  0  0  0
 28102  1  0  0  0
 29103  1  0  0  0
 29104  1  0  0  0
 33 34  1  0  0  0
 33 66  1  0  0  0
 33 70  2  0  0  0
 34 36  1  0  0  0
 34 59  1  0  0  0
 34105  1  0  0  0
 35 44  2  0  0  0
 35 45  1  0  0  0
 35 68  1  0  0  0
 36 56  1  0  0  0
 36106  1  0  0  0
 37 39  1  0  0  0
 37 47  1  0  0  0
 37 66  1  0  0  0
 37107  1  0  0  0
 38 43  2  0  0  0
 38 46  1  0  0  0
 38 47  1  0  0  0
 39 64  1  0  0  0
 39 67  2  0  0  0
 40 52  1  0  0  0
 40 53  2  0  0  0
 40 58  1  0  0  0
 41108  1  0  0  0
 41109  1  0  0  0
 41110  1  0  0  0
 41 48  1  0  0  0
 42 43  1  0  0  0
 42 66  1  0  0  0
 42111  1  0  0  0
 42112  1  0  0  0
 43 44  1  0  0  0
 44113  1  0  0  0
 45 46  2  0  0  0
 45114  1  0  0  0
 46115  1  0  0  0
 47116  1  0  0  0
 47117  1  0  0  0
 48 56  1  0  0  0
 48 65  1  0  0  0
 48118  1  0  0  0
 49 50  1  0  0  0
 49 53  1  0  0  0
 49 64  1  0  0  0
 49119  1  0  0  0
 50 51  1  0  0  0
 50120  1  0  0  0
 50121  1  0  0  0
 51 52  1  0  0  0
 51122  1  0  0  0
 51123  1  0  0  0
 52124  1  0  0  0
 52125  1  0  0  0
 53 54  1  0  0  0
 54 55  2  0  0  0
 54126  1  0  0  0
 55 57  1  0  0  0
 55127  1  0  0  0
 56 69  2  0  0  0
 57 58  2  0  0  0
 57128  1  0  0  0
 58129  1  0  0  0
 59 60  1  0  0  0
 59 61  1  0  0  0
 59 62  1  0  0  0
 60130  1  0  0  0
 60131  1  0  0  0
 60132  1  0  0  0
 61133  1  0  0  0
 61134  1  0  0  0
 61135  1  0  0  0
 62136  1  0  0  0
 62137  1  0  0  0
 62138  1  0  0  0
 63 65  1  0  0  0
 63139  1  0  0  0
 63140  1  0  0  0
 63141  1  0  0  0
 64142  1  0  0  0
 65143  1  0  0  0
 68 77  1  0  0  0
 71 72  2  0  0  0
 71 79  1  0  0  0
 71144  1  0  0  0
 72 80  1  0  0  0
 72 84  1  0  0  0
 73 74  1  0  0  0
 73 79  2  0  0  0
 73 84  1  0  0  0
 74 81  1  0  0  0
 74 82  2  0  0  0
 75 78  1  0  0  0
 75 81  1  0  0  0
 75 83  2  0  0  0
 76145  1  0  0  0
 76146  1  0  0  0
 76147  1  0  0  0
 76 78  1  0  0  0
 77 78  1  0  0  0
 77148  1  0  0  0
 77149  1  0  0  0
 78150  1  0  0  0
 80151  1  0  0  0
 81152  1  0  0  0
M  ISO  4   1 100  68 101  77 101  80 100
M  END
> <chiral flag>
0

> <version>
0

> <s_m_source_file>
/data/baiqing/PycharmProjects/Reinvent-master-3.2/result/LINK_invent/BTK/process_docking_weight1_custom_product_contain_oxygen_bond_distance_aromatic_linkinvent_7_9_3/rearranged_h_0183.sdf

> <i_m_source_file_index>
92

> <r_mmod_Potential_Energy-OPLS-2005>
-103.322387695312

> <r_mmod_Stretch_Energy-OPLS-2005>
56.3404388427734

> <r_mmod_Bend_Energy-OPLS-2005>
128.461013793945

> <r_mmod_Torsional_Energy-OPLS-2005>
292.363555908203

> <r_mmod_Improper_Torsional_Energy-OPLS-2005>
5.56191968917847

> <r_mmod_Van_der_Waal_Energy-OPLS-2005>
122.300399780273

> <r_mmod_Electrostatic_Energy-OPLS-2005>
-456.732788085938

> <r_mmod_Solvation_Energy-OPLS-2005>
-278.1494140625

> <b_mmod_Minimization_Converged-OPLS-2005>
0

> <r_mmod_RMS_Derivative-OPLS-2005>
2.98962807655334

$$$$
92
                    3D
 Structure written by MMmdl.
155163  0  0  1  0            999 V2000
  -30.4599  -15.0290   20.4365 C   0  0  0  0  0  0
  -30.4578  -12.6434   19.5061 C   0  0  0  0  0  0
  -29.5310  -12.5566   18.2658 C   0  0  0  0  0  0
  -28.0675  -12.3149   18.6851 C   0  0  0  0  0  0
  -27.6342  -13.2449   19.8475 C   0  0  2  0  0  0
  -28.6768  -13.2626   20.9875 C   0  0  0  0  0  0
  -25.2461  -13.8151   20.5671 C   0  0  0  0  0  0
  -24.1772  -13.0386   20.9215 C   0  0  0  0  0  0
  -24.6392  -11.6887   20.8754 C   0  0  0  0  0  0
  -23.9080  -10.4256   21.0406 C   0  0  0  0  0  0
  -24.3610   -9.4179   21.9192 C   0  0  0  0  0  0
  -23.6276   -8.2223   22.0765 C   0  0  0  0  0  0
  -22.4271   -8.0270   21.3554 C   0  0  0  0  0  0
  -21.9913   -9.0244   20.4663 C   0  0  0  0  0  0
  -22.7250  -10.2107   20.3073 C   0  0  0  0  0  0
  -21.6843   -6.0728   22.5268 C   0  0  0  0  0  0
  -21.4025   -6.5631   23.8211 C   0  0  0  0  0  0
  -21.3663   -5.6786   24.9176 C   0  0  0  0  0  0
  -21.6043   -4.3047   24.7223 C   0  0  0  0  0  0
  -21.8823   -3.8138   23.4348 C   0  0  0  0  0  0
  -21.9195   -4.6957   22.3401 C   0  0  0  0  0  0
  -22.7810  -13.5182   21.1847 C   0  0  0  0  0  0
  -22.1657   -4.2143   21.0979 F   0  0  0  0  0  0
  -21.5630   -3.4544   25.7735 F   0  0  0  0  0  0
  -29.9467  -13.7225   20.4037 N   0  0  0  0  0  0
  -26.2895  -12.9386   20.3266 N   0  0  0  0  0  0
  -25.9325  -11.6527   20.5744 N   0  0  0  0  0  0
  -22.0452  -12.8189   22.0414 N   0  0  0  0  0  0
  -25.4099  -15.1869   20.4033 N   0  0  0  0  0  0
  -31.6476  -15.1650   20.1159 O   0  0  0  0  0  0
  -21.6654   -6.8867   21.4228 O   0  0  0  0  0  0
  -22.3502  -14.5497   20.6707 O   0  0  0  0  0  0
  -24.6510  -31.8408   23.1815 C   0  0  0  0  0  0
  -25.9250  -32.4662   23.8225 C   0  0  1  0  0  0
  -27.2217  -27.0972   20.1653 C   0  0  0  0  0  0
  -25.5974  -33.8472   24.2150 N   0  0  0  0  0  0
  -23.4560  -30.4509   21.5329 C   0  0  2  0  0  0
  -24.9039  -28.8662   20.1160 C   0  0  0  0  0  0
  -22.7610  -29.4492   22.4888 C   0  0  0  0  0  0
  -18.0277  -28.1391   22.8425 C   0  0  0  0  0  0
  -24.1500  -36.7284   23.2653 C   0  0  0  0  0  0
  -26.0123  -30.7031   21.3785 C   0  0  0  0  0  0
  -26.0837  -29.3070   20.7271 C   0  0  0  0  0  0
  -27.2475  -28.4436   20.7203 C   0  0  0  0  0  0
  -26.0128  -26.7536   19.5258 C   0  0  0  0  0  0
  -24.8804  -27.6030   19.5009 C   0  0  0  0  0  0
  -23.6870  -29.7807   20.1547 C   0  0  0  0  0  0
  -25.4127  -36.3033   24.0308 C   0  0  1  0  0  0
  -20.5904  -28.3740   23.1240 C   0  0  2  0  0  0
  -20.6788  -26.9455   22.5419 C   0  0  0  0  0  0
  -19.5772  -26.6379   21.5212 C   0  0  0  0  0  0
  -18.1931  -26.7920   22.1598 C   0  0  0  0  0  0
  -19.1539  -28.8874   23.2792 C   0  0  0  0  0  0
  -18.9481  -30.1447   23.8850 C   0  0  0  0  0  0
  -17.6490  -30.6581   24.0550 C   0  0  0  0  0  0
  -25.9091  -34.9396   23.5051 C   0  0  0  0  0  0
  -16.5362  -29.9093   23.6324 C   0  0  0  0  0  0
  -16.7263  -28.6517   23.0315 C   0  0  0  0  0  0
  -26.4526  -31.6524   25.0691 C   0  0  0  0  0  0
  -25.3693  -31.3730   26.1381 C   0  0  0  0  0  0
  -27.0340  -30.2904   24.6223 C   0  0  0  0  0  0
  -27.6029  -32.4313   25.7497 C   0  0  0  0  0  0
  -27.5563  -37.1789   24.8460 C   0  0  0  0  0  0
  -21.4305  -29.3048   22.3632 N   0  0  0  0  0  0
  -26.4283  -37.3753   23.9417 N   0  0  0  0  0  0
  -24.7277  -31.0196   22.0888 N   0  0  0  0  0  0
  -23.4213  -28.8072   23.3090 O   0  0  0  0  0  0
  -28.2879  -26.1178   20.1555 O   0  0  0  0  0  0
  -26.5681  -34.8923   22.4640 O   0  0  0  0  0  0
  -23.5603  -32.1359   23.6976 O   0  0  0  0  0  0
  -28.9693  -20.1506   20.5596 C   0  0  0  0  0  0
  -27.6594  -19.7086   20.7061 C   0  0  0  0  0  0
  -29.2028  -17.6209   20.5959 C   0  0  0  0  0  0
  -29.2693  -21.7836   20.6784 C   0  0  0  0  0  0
  -27.4697  -22.7612   18.9210 C   0  0  0  0  0  0
  -31.8399  -21.8427   22.9929 C   0  0  0  0  0  0
  -28.1515  -24.6257   20.6427 C   0  0  0  0  0  0
  -28.5949  -23.1478   19.8966 C   0  0  1  0  0  0
  -29.8238  -18.8910   20.5171 N   0  0  0  0  0  0
  -30.1914  -22.1981   21.4604 N   0  0  0  0  0  0
  -26.4805  -20.4337   20.8997 N   0  0  0  0  0  0
  -29.5560  -16.1030   20.7281 N   0  0  0  0  0  0
  -30.8297  -21.2055   22.2160 O   0  0  0  0  0  0
  -27.4723  -17.9493   20.7311 S   0  0  0  0  0  0
  -31.4897  -12.8317   19.1992 H   0  0  0  0  0  0
  -30.4758  -11.6877   20.0331 H   0  0  0  0  0  0
  -29.8672  -11.7653   17.5942 H   0  0  0  0  0  0
  -29.5917  -13.4870   17.7002 H   0  0  0  0  0  0
  -27.9781  -11.2735   18.9935 H   0  0  0  0  0  0
  -27.3991  -12.4387   17.8324 H   0  0  0  0  0  0
  -27.5974  -14.2482   19.4197 H   0  0  0  0  0  0
  -28.7804  -12.2712   21.4327 H   0  0  0  0  0  0
  -28.3588  -13.9212   21.7973 H   0  0  0  0  0  0
  -25.2758   -9.5659   22.4763 H   0  0  0  0  0  0
  -23.9993   -7.4629   22.7489 H   0  0  0  0  0  0
  -21.0856   -8.8772   19.8962 H   0  0  0  0  0  0
  -22.3726  -10.9650   19.6186 H   0  0  0  0  0  0
  -21.2026   -7.6145   23.9705 H   0  0  0  0  0  0
  -21.1480   -6.0530   25.9079 H   0  0  0  0  0  0
  -22.0598   -2.7602   23.2855 H   0  0  0  0  0  0
  -22.4076  -11.9849   22.4781 H   0  0  0  0  0  0
  -21.1080  -13.1244   22.2641 H   0  0  0  0  0  0
  -24.6249  -15.8246   20.4982 H   0  0  0  0  0  0
  -26.2261  -15.6201   19.9908 H   0  0  0  0  0  0
  -26.7313  -32.5244   23.0947 H   0  0  0  0  0  0
  -25.0036  -33.9546   25.0232 H   0  0  0  0  0  0
  -22.7630  -31.2781   21.3715 H   0  0  0  0  0  0
  -23.3750  -35.9634   23.3308 H   0  0  0  0  0  0
  -24.3622  -36.8945   22.2082 H   0  0  0  0  0  0
  -23.7273  -37.6479   23.6713 H   0  0  0  0  0  0
  -26.1534  -31.4516   20.5945 H   0  0  0  0  0  0
  -26.8888  -30.7692   22.0103 H   0  0  0  0  0  0
  -28.1583  -28.7911   21.1894 H   0  0  0  0  0  0
  -25.9324  -25.7881   19.0471 H   0  0  0  0  0  0
  -23.9821  -27.2559   19.0084 H   0  0  0  0  0  0
  -23.8481  -30.5636   19.4124 H   0  0  0  0  0  0
  -22.7970  -29.2444   19.8247 H   0  0  0  0  0  0
  -25.1291  -36.1867   25.0790 H   0  0  0  0  0  0
  -20.9855  -28.3318   24.1417 H   0  0  0  0  0  0
  -20.5727  -26.2354   23.3635 H   0  0  0  0  0  0
  -21.6659  -26.7509   22.1196 H   0  0  0  0  0  0
  -19.7000  -25.6286   21.1257 H   0  0  0  0  0  0
  -19.6717  -27.3158   20.6715 H   0  0  0  0  0  0
  -17.4228  -26.6603   21.3971 H   0  0  0  0  0  0
  -18.0338  -26.0058   22.9002 H   0  0  0  0  0  0
  -19.7970  -30.7208   24.2237 H   0  0  0  0  0  0
  -17.5083  -31.6275   24.5169 H   0  0  0  0  0  0
  -15.5371  -30.3023   23.7680 H   0  0  0  0  0  0
  -15.8642  -28.0859   22.7054 H   0  0  0  0  0  0
  -24.5927  -30.6983   25.7754 H   0  0  0  0  0  0
  -24.8788  -32.2890   26.4681 H   0  0  0  0  0  0
  -25.7987  -30.9054   27.0239 H   0  0  0  0  0  0
  -26.2900  -29.6681   24.1234 H   0  0  0  0  0  0
  -27.3934  -29.7145   25.4754 H   0  0  0  0  0  0
  -27.8826  -30.4140   23.9501 H   0  0  0  0  0  0
  -27.2567  -33.3673   26.1911 H   0  0  0  0  0  0
  -28.3898  -32.6799   25.0354 H   0  0  0  0  0  0
  -28.0604  -31.8558   26.5546 H   0  0  0  0  0  0
  -28.2520  -38.0131   24.7502 H   0  0  0  0  0  0
  -28.1078  -36.2645   24.6241 H   0  0  0  0  0  0
  -27.2284  -37.1382   25.8859 H   0  0  0  0  0  0
  -20.9609  -29.8867   21.6850 H   0  0  0  0  0  0
  -26.0141  -38.2803   24.1463 H   0  0  0  0  0  0
  -27.6893  -21.8382   18.3873 H   0  0  0  0  0  0
  -27.3168  -23.5431   18.1776 H   0  0  0  0  0  0
  -26.5259  -22.6370   19.4449 H   0  0  0  0  0  0
  -31.4206  -22.5730   23.6883 H   0  0  0  0  0  0
  -32.5714  -22.3540   22.3626 H   0  0  0  0  0  0
  -32.3813  -21.1011   23.5782 H   0  0  0  0  0  0
  -27.1199  -24.5092   20.9727 H   0  0  0  0  0  0
  -28.7013  -24.6393   21.5834 H   0  0  0  0  0  0
  -29.4144  -23.4557   19.2481 H   0  0  0  0  0  0
  -26.4308  -21.4390   21.0341 H   0  0  0  0  0  0
  -25.5844  -19.9798   21.0539 H   0  0  0  0  0  0
  -28.7149  -15.6279   21.0139 H   0  0  0  0  0  0
  1 25  1  0  0  0
  1 30  2  0  0  0
  1 82  1  0  0  0
  2  3  1  0  0  0
  2 25  1  0  0  0
  2 85  1  0  0  0
  2 86  1  0  0  0
  3  4  1  0  0  0
  3 87  1  0  0  0
  3 88  1  0  0  0
  4  5  1  0  0  0
  4 89  1  0  0  0
  4 90  1  0  0  0
  5  6  1  0  0  0
  5 26  1  0  0  0
  5 91  1  0  0  0
  6 25  1  0  0  0
  6 92  1  0  0  0
  6 93  1  0  0  0
  7  8  2  0  0  0
  7 26  1  0  0  0
  7 29  1  0  0  0
  8  9  1  0  0  0
  8 22  1  0  0  0
  9 10  1  0  0  0
  9 27  2  0  0  0
 10 11  2  0  0  0
 10 15  1  0  0  0
 11 12  1  0  0  0
 11 94  1  0  0  0
 12 13  2  0  0  0
 12 95  1  0  0  0
 13 14  1  0  0  0
 13 31  1  0  0  0
 14 15  2  0  0  0
 14 96  1  0  0  0
 15 97  1  0  0  0
 16 17  2  0  0  0
 16 21  1  0  0  0
 16 31  1  0  0  0
 17 18  1  0  0  0
 17 98  1  0  0  0
 18 19  2  0  0  0
 18 99  1  0  0  0
 19 20  1  0  0  0
 19 24  1  0  0  0
 20 21  2  0  0  0
 20100  1  0  0  0
 21 23  1  0  0  0
 22 28  1  0  0  0
 22 32  2  0  0  0
 26 27  1  0  0  0
 28101  1  0  0  0
 28102  1  0  0  0
 29103  1  0  0  0
 29104  1  0  0  0
 33 34  1  0  0  0
 33 66  1  0  0  0
 33 70  2  0  0  0
 34 36  1  0  0  0
 34 59  1  0  0  0
 34105  1  0  0  0
 35 44  2  0  0  0
 35 45  1  0  0  0
 35 68  1  0  0  0
 36 56  1  0  0  0
 36106  1  0  0  0
 37 39  1  0  0  0
 37 47  1  0  0  0
 37 66  1  0  0  0
 37107  1  0  0  0
 38 43  2  0  0  0
 38 46  1  0  0  0
 38 47  1  0  0  0
 39 64  1  0  0  0
 39 67  2  0  0  0
 40 52  1  0  0  0
 40 53  2  0  0  0
 40 58  1  0  0  0
 41108  1  0  0  0
 41109  1  0  0  0
 41110  1  0  0  0
 41 48  1  0  0  0
 42 43  1  0  0  0
 42 66  1  0  0  0
 42111  1  0  0  0
 42112  1  0  0  0
 43 44  1  0  0  0
 44113  1  0  0  0
 45 46  2  0  0  0
 45114  1  0  0  0
 46115  1  0  0  0
 47116  1  0  0  0
 47117  1  0  0  0
 48 56  1  0  0  0
 48 65  1  0  0  0
 48118  1  0  0  0
 49 50  1  0  0  0
 49 53  1  0  0  0
 49 64  1  0  0  0
 49119  1  0  0  0
 50 51  1  0  0  0
 50120  1  0  0  0
 50121  1  0  0  0
 51 52  1  0  0  0
 51122  1  0  0  0
 51123  1  0  0  0
 52124  1  0  0  0
 52125  1  0  0  0
 53 54  1  0  0  0
 54 55  2  0  0  0
 54126  1  0  0  0
 55 57  1  0  0  0
 55127  1  0  0  0
 56 69  2  0  0  0
 57 58  2  0  0  0
 57128  1  0  0  0
 58129  1  0  0  0
 59 60  1  0  0  0
 59 61  1  0  0  0
 59 62  1  0  0  0
 60130  1  0  0  0
 60131  1  0  0  0
 60132  1  0  0  0
 61133  1  0  0  0
 61134  1  0  0  0
 61135  1  0  0  0
 62136  1  0  0  0
 62137  1  0  0  0
 62138  1  0  0  0
 63 65  1  0  0  0
 63139  1  0  0  0
 63140  1  0  0  0
 63141  1  0  0  0
 64142  1  0  0  0
 65143  1  0  0  0
 68 77  1  0  0  0
 71 72  2  0  0  0
 71 74  1  0  0  0
 71 79  1  0  0  0
 72 81  1  0  0  0
 72 84  1  0  0  0
 73 79  2  0  0  0
 73 82  1  0  0  0
 73 84  1  0  0  0
 74 78  1  0  0  0
 74 80  2  0  0  0
 75144  1  0  0  0
 75145  1  0  0  0
 75146  1  0  0  0
 75 78  1  0  0  0
 76 83  1  0  0  0
 76147  1  0  0  0
 76148  1  0  0  0
 76149  1  0  0  0
 77 78  1  0  0  0
 77150  1  0  0  0
 77151  1  0  0  0
 78152  1  0  0  0
 80 83  1  0  0  0
 81153  1  0  0  0
 81154  1  0  0  0
 82155  1  0  0  0
M  ISO  4   1 100  68 101  77 101  82 100
M  END
> <chiral flag>
0

> <version>
0

> <s_m_source_file>
/data/baiqing/PycharmProjects/Reinvent-master-3.2/result/LINK_invent/BTK/process_docking_weight1_custom_product_contain_oxygen_bond_distance_aromatic_linkinvent_7_9_3/rearranged_h_0183.sdf

> <i_m_source_file_index>
93

> <r_mmod_Potential_Energy-OPLS-2005>
856.536499023438

> <r_mmod_Stretch_Energy-OPLS-2005>
343.968994140625

> <r_mmod_Bend_Energy-OPLS-2005>
395.353973388672

> <r_mmod_Torsional_Energy-OPLS-2005>
230.918243408203

> <r_mmod_Improper_Torsional_Energy-OPLS-2005>
5.30744123458862

> <r_mmod_Van_der_Waal_Energy-OPLS-2005>
105.000221252441

> <r_mmod_Electrostatic_Energy-OPLS-2005>
-215.41569519043

> <r_mmod_Solvation_Energy-OPLS-2005>
-247.181060791016

> <b_mmod_Minimization_Converged-OPLS-2005>
0

> <r_mmod_RMS_Derivative-OPLS-2005>
4.62208461761475

$$$$
93
                    3D
 Structure written by MMmdl.
151159  0  0  1  0            999 V2000
  -30.6193  -14.8073   20.4591 C   0  0  0  0  0  0
  -30.4361  -12.5043   19.4651 C   0  0  0  0  0  0
  -29.5106  -12.5053   18.2306 C   0  0  0  0  0  0
  -28.0379  -12.3232   18.6500 C   0  0  0  0  0  0
  -27.6348  -13.2376   19.8378 C   0  0  2  0  0  0
  -28.6872  -13.2212   20.9655 C   0  0  0  0  0  0
  -25.2500  -13.8207   20.5701 C   0  0  0  0  0  0
  -24.1805  -13.0441   20.9231 C   0  0  0  0  0  0
  -24.6404  -11.6922   20.8758 C   0  0  0  0  0  0
  -23.9084  -10.4292   21.0401 C   0  0  0  0  0  0
  -24.3635   -9.4203   21.9175 C   0  0  0  0  0  0
  -23.6305   -8.2241   22.0741 C   0  0  0  0  0  0
  -22.4285   -8.0283   21.3533 C   0  0  0  0  0  0
  -21.9926   -9.0258   20.4632 C   0  0  0  0  0  0
  -22.7260  -10.2136   20.3043 C   0  0  0  0  0  0
  -21.6856   -6.0734   22.5268 C   0  0  0  0  0  0
  -21.4019   -6.5635   23.8203 C   0  0  0  0  0  0
  -21.3665   -5.6785   24.9164 C   0  0  0  0  0  0
  -21.6053   -4.3050   24.7208 C   0  0  0  0  0  0
  -21.8827   -3.8146   23.4325 C   0  0  0  0  0  0
  -21.9201   -4.6964   22.3386 C   0  0  0  0  0  0
  -22.7824  -13.5212   21.1891 C   0  0  0  0  0  0
  -22.1664   -4.2149   21.0961 F   0  0  0  0  0  0
  -21.5634   -3.4533   25.7720 F   0  0  0  0  0  0
  -29.9681  -13.5928   20.3539 N   0  0  0  0  0  0
  -26.2923  -12.9419   20.3263 N   0  0  0  0  0  0
  -25.9333  -11.6559   20.5758 N   0  0  0  0  0  0
  -22.0475  -12.8196   22.0442 N   0  0  0  0  0  0
  -25.4182  -15.1933   20.4097 N   0  0  0  0  0  0
  -31.8394  -14.8296   20.2767 O   0  0  0  0  0  0
  -21.6646   -6.8880   21.4230 O   0  0  0  0  0  0
  -22.3505  -14.5515   20.6731 O   0  0  0  0  0  0
  -24.6399  -31.8498   23.1964 C   0  0  0  0  0  0
  -25.9194  -32.4733   23.8324 C   0  0  1  0  0  0
  -27.2097  -27.2035   20.1166 C   0  0  0  0  0  0
  -25.5956  -33.8537   24.2228 N   0  0  0  0  0  0
  -23.4373  -30.4765   21.5441 C   0  0  2  0  0  0
  -24.8779  -28.9211   20.1140 C   0  0  0  0  0  0
  -22.7537  -29.4600   22.4921 C   0  0  0  0  0  0
  -18.0301  -28.1400   22.8483 C   0  0  0  0  0  0
  -24.1483  -36.7268   23.2640 C   0  0  0  0  0  0
  -25.9913  -30.7447   21.3849 C   0  0  0  0  0  0
  -26.0595  -29.3652   20.7214 C   0  0  0  0  0  0
  -27.2271  -28.5221   20.7080 C   0  0  0  0  0  0
  -25.9842  -26.8425   19.5036 C   0  0  0  0  0  0
  -24.8485  -27.6683   19.4954 C   0  0  0  0  0  0
  -23.6540  -29.8140   20.1611 C   0  0  0  0  0  0
  -25.4116  -36.3053   24.0317 C   0  0  1  0  0  0
  -20.5906  -28.3718   23.1251 C   0  0  2  0  0  0
  -20.6792  -26.9432   22.5396 C   0  0  0  0  0  0
  -19.5762  -26.6393   21.5210 C   0  0  0  0  0  0
  -18.1945  -26.7940   22.1627 C   0  0  0  0  0  0
  -19.1551  -28.8880   23.2856 C   0  0  0  0  0  0
  -18.9469  -30.1482   23.8873 C   0  0  0  0  0  0
  -17.6464  -30.6595   24.0564 C   0  0  0  0  0  0
  -25.9067  -34.9433   23.5078 C   0  0  0  0  0  0
  -16.5358  -29.9083   23.6346 C   0  0  0  0  0  0
  -16.7282  -28.6505   23.0361 C   0  0  0  0  0  0
  -26.4521  -31.6588   25.0749 C   0  0  0  0  0  0
  -25.3711  -31.3765   26.1447 C   0  0  0  0  0  0
  -27.0381  -30.2986   24.6309 C   0  0  0  0  0  0
  -27.6054  -32.4350   25.7526 C   0  0  0  0  0  0
  -27.5572  -37.1791   24.8465 C   0  0  0  0  0  0
  -21.4239  -29.3054   22.3641 N   0  0  0  0  0  0
  -26.4284  -37.3759   23.9408 N   0  0  0  0  0  0
  -24.7100  -31.0411   22.0978 N   0  0  0  0  0  0
  -23.4201  -28.8138   23.3046 O   0  0  0  0  0  0
  -28.2880  -26.2595   20.1583 O   0  0  0  0  0  0
  -26.5626  -34.8918   22.4640 O   0  0  0  0  0  0
  -23.5531  -32.1357   23.7212 O   0  0  0  0  0  0
  -29.6597  -18.6093   20.1318 C   0  0  0  0  0  0
  -29.4415  -18.7844   18.7688 C   0  0  0  0  0  0
  -29.1232  -20.9806   20.0022 C   0  0  0  0  0  0
  -30.2888  -17.2926   20.7762 C   0  0  0  0  0  0
  -29.0710  -23.6113   20.1188 C   0  0  0  0  0  0
  -28.1175  -24.8396   18.1588 C   0  0  0  0  0  0
  -28.0604  -24.8152   19.7048 C   0  0  2  0  0  0
  -29.4355  -19.8957   20.8004 N   0  0  0  0  0  0
  -29.5502  -17.8753   17.7136 N   0  0  0  0  0  0
  -28.6104  -22.3253   20.4030 N   0  0  0  0  0  0
  -29.8762  -15.9938   20.4580 N   0  0  0  0  0  0
  -31.1894  -17.4536   21.6104 O   0  0  0  0  0  0
  -30.2808  -23.8569   20.1546 O   0  0  0  0  0  0
  -29.0390  -20.4499   18.3269 S   0  0  0  0  0  0
  -31.4730  -12.6429   19.1546 H   0  0  0  0  0  0
  -30.4014  -11.5426   19.9809 H   0  0  0  0  0  0
  -29.8031  -11.7133   17.5398 H   0  0  0  0  0  0
  -29.6257  -13.4454   17.6895 H   0  0  0  0  0  0
  -27.9048  -11.2776   18.9296 H   0  0  0  0  0  0
  -27.3777  -12.4962   17.7990 H   0  0  0  0  0  0
  -27.6115  -14.2489   19.4337 H   0  0  0  0  0  0
  -28.7477  -12.2359   21.4300 H   0  0  0  0  0  0
  -28.4208  -13.9243   21.7558 H   0  0  0  0  0  0
  -25.2776   -9.5682   22.4757 H   0  0  0  0  0  0
  -24.0013   -7.4633   22.7459 H   0  0  0  0  0  0
  -21.0857   -8.8782   19.8932 H   0  0  0  0  0  0
  -22.3716  -10.9678   19.6158 H   0  0  0  0  0  0
  -21.2003   -7.6143   23.9705 H   0  0  0  0  0  0
  -21.1486   -6.0509   25.9067 H   0  0  0  0  0  0
  -22.0605   -2.7607   23.2820 H   0  0  0  0  0  0
  -22.4093  -11.9849   22.4819 H   0  0  0  0  0  0
  -21.1081  -13.1198   22.2621 H   0  0  0  0  0  0
  -24.6548  -15.8504   20.5269 H   0  0  0  0  0  0
  -26.2604  -15.6302   20.0602 H   0  0  0  0  0  0
  -26.7268  -32.5349   23.1068 H   0  0  0  0  0  0
  -25.0112  -33.9665   25.0381 H   0  0  0  0  0  0
  -22.7396  -31.3029   21.3982 H   0  0  0  0  0  0
  -23.3751  -35.9592   23.3296 H   0  0  0  0  0  0
  -24.3572  -36.8904   22.2058 H   0  0  0  0  0  0
  -23.7240  -37.6469   23.6670 H   0  0  0  0  0  0
  -26.1400  -31.5060   20.6173 H   0  0  0  0  0  0
  -26.8665  -30.7877   22.0228 H   0  0  0  0  0  0
  -28.1309  -28.8580   21.1962 H   0  0  0  0  0  0
  -25.8370  -25.8845   19.0341 H   0  0  0  0  0  0
  -23.9408  -27.3147   19.0253 H   0  0  0  0  0  0
  -23.7805  -30.5898   19.4054 H   0  0  0  0  0  0
  -22.7699  -29.2504   19.8568 H   0  0  0  0  0  0
  -25.1304  -36.1894   25.0810 H   0  0  0  0  0  0
  -20.9992  -28.3298   24.1373 H   0  0  0  0  0  0
  -20.5713  -26.2326   23.3605 H   0  0  0  0  0  0
  -21.6659  -26.7467   22.1175 H   0  0  0  0  0  0
  -19.6925  -25.6297   21.1261 H   0  0  0  0  0  0
  -19.6699  -27.3188   20.6731 H   0  0  0  0  0  0
  -17.4210  -26.6681   21.4035 H   0  0  0  0  0  0
  -18.0347  -26.0083   22.9031 H   0  0  0  0  0  0
  -19.7942  -30.7312   24.2222 H   0  0  0  0  0  0
  -17.5015  -31.6275   24.5167 H   0  0  0  0  0  0
  -15.5356  -30.2976   23.7694 H   0  0  0  0  0  0
  -15.8684  -28.0824   22.7085 H   0  0  0  0  0  0
  -24.5889  -30.7115   25.7768 H   0  0  0  0  0  0
  -24.8903  -32.2946   26.4829 H   0  0  0  0  0  0
  -25.8002  -30.8970   27.0256 H   0  0  0  0  0  0
  -26.2997  -29.6726   24.1284 H   0  0  0  0  0  0
  -27.3967  -29.7271   25.4883 H   0  0  0  0  0  0
  -27.8916  -30.4224   23.9637 H   0  0  0  0  0  0
  -27.2638  -33.3659   26.2059 H   0  0  0  0  0  0
  -28.3879  -32.6905   25.0367 H   0  0  0  0  0  0
  -28.0701  -31.8515   26.5485 H   0  0  0  0  0  0
  -28.2590  -38.0087   24.7510 H   0  0  0  0  0  0
  -28.1073  -36.2626   24.6292 H   0  0  0  0  0  0
  -27.2290  -37.1436   25.8867 H   0  0  0  0  0  0
  -20.9440  -29.8750   21.6813 H   0  0  0  0  0  0
  -26.0162  -38.2832   24.1407 H   0  0  0  0  0  0
  -27.7813  -23.8910   17.7383 H   0  0  0  0  0  0
  -29.1381  -25.0081   17.8117 H   0  0  0  0  0  0
  -27.5122  -25.6209   17.7065 H   0  0  0  0  0  0
  -27.0793  -24.4895   20.0500 H   0  0  0  0  0  0
  -29.9232  -16.9335   17.7883 H   0  0  0  0  0  0
  -29.4499  -18.1624   16.7429 H   0  0  0  0  0  0
  -27.6123  -22.3172   20.5510 H   0  0  0  0  0  0
  -28.9378  -15.9234   20.1054 H   0  0  0  0  0  0
  1 25  1  0  0  0
  1 30  2  0  0  0
  1 81  1  0  0  0
  2  3  1  0  0  0
  2 25  1  0  0  0
  2 85  1  0  0  0
  2 86  1  0  0  0
  3  4  1  0  0  0
  3 87  1  0  0  0
  3 88  1  0  0  0
  4  5  1  0  0  0
  4 89  1  0  0  0
  4 90  1  0  0  0
  5  6  1  0  0  0
  5 26  1  0  0  0
  5 91  1  0  0  0
  6 25  1  0  0  0
  6 92  1  0  0  0
  6 93  1  0  0  0
  7  8  2  0  0  0
  7 26  1  0  0  0
  7 29  1  0  0  0
  8  9  1  0  0  0
  8 22  1  0  0  0
  9 10  1  0  0  0
  9 27  2  0  0  0
 10 11  2  0  0  0
 10 15  1  0  0  0
 11 12  1  0  0  0
 11 94  1  0  0  0
 12 13  2  0  0  0
 12 95  1  0  0  0
 13 14  1  0  0  0
 13 31  1  0  0  0
 14 15  2  0  0  0
 14 96  1  0  0  0
 15 97  1  0  0  0
 16 17  2  0  0  0
 16 21  1  0  0  0
 16 31  1  0  0  0
 17 18  1  0  0  0
 17 98  1  0  0  0
 18 19  2  0  0  0
 18 99  1  0  0  0
 19 20  1  0  0  0
 19 24  1  0  0  0
 20 21  2  0  0  0
 20100  1  0  0  0
 21 23  1  0  0  0
 22 28  1  0  0  0
 22 32  2  0  0  0
 26 27  1  0  0  0
 28101  1  0  0  0
 28102  1  0  0  0
 29103  1  0  0  0
 29104  1  0  0  0
 33 34  1  0  0  0
 33 66  1  0  0  0
 33 70  2  0  0  0
 34 36  1  0  0  0
 34 59  1  0  0  0
 34105  1  0  0  0
 35 44  2  0  0  0
 35 45  1  0  0  0
 35 68  1  0  0  0
 36 56  1  0  0  0
 36106  1  0  0  0
 37 39  1  0  0  0
 37 47  1  0  0  0
 37 66  1  0  0  0
 37107  1  0  0  0
 38 43  2  0  0  0
 38 46  1  0  0  0
 38 47  1  0  0  0
 39 64  1  0  0  0
 39 67  2  0  0  0
 40 52  1  0  0  0
 40 53  2  0  0  0
 40 58  1  0  0  0
 41108  1  0  0  0
 41109  1  0  0  0
 41110  1  0  0  0
 41 48  1  0  0  0
 42 43  1  0  0  0
 42 66  1  0  0  0
 42111  1  0  0  0
 42112  1  0  0  0
 43 44  1  0  0  0
 44113  1  0  0  0
 45 46  2  0  0  0
 45114  1  0  0  0
 46115  1  0  0  0
 47116  1  0  0  0
 47117  1  0  0  0
 48 56  1  0  0  0
 48 65  1  0  0  0
 48118  1  0  0  0
 49 50  1  0  0  0
 49 53  1  0  0  0
 49 64  1  0  0  0
 49119  1  0  0  0
 50 51  1  0  0  0
 50120  1  0  0  0
 50121  1  0  0  0
 51 52  1  0  0  0
 51122  1  0  0  0
 51123  1  0  0  0
 52124  1  0  0  0
 52125  1  0  0  0
 53 54  1  0  0  0
 54 55  2  0  0  0
 54126  1  0  0  0
 55 57  1  0  0  0
 55127  1  0  0  0
 56 69  2  0  0  0
 57 58  2  0  0  0
 57128  1  0  0  0
 58129  1  0  0  0
 59 60  1  0  0  0
 59 61  1  0  0  0
 59 62  1  0  0  0
 60130  1  0  0  0
 60131  1  0  0  0
 60132  1  0  0  0
 61133  1  0  0  0
 61134  1  0  0  0
 61135  1  0  0  0
 62136  1  0  0  0
 62137  1  0  0  0
 62138  1  0  0  0
 63 65  1  0  0  0
 63139  1  0  0  0
 63140  1  0  0  0
 63141  1  0  0  0
 64142  1  0  0  0
 65143  1  0  0  0
 68 77  1  0  0  0
 71 72  2  0  0  0
 71 74  1  0  0  0
 71 78  1  0  0  0
 72 79  1  0  0  0
 72 84  1  0  0  0
 73 78  2  0  0  0
 73 80  1  0  0  0
 73 84  1  0  0  0
 74 81  1  0  0  0
 74 82  2  0  0  0
 75 77  1  0  0  0
 75 80  1  0  0  0
 75 83  2  0  0  0
 76144  1  0  0  0
 76145  1  0  0  0
 76146  1  0  0  0
 76 77  1  0  0  0
 77147  1  0  0  0
 79148  1  0  0  0
 79149  1  0  0  0
 80150  1  0  0  0
 81151  1  0  0  0
M  ISO  4   1 100  68 101  77 101  81 100
M  END
> <chiral flag>
0

> <version>
0

> <s_m_source_file>
/data/baiqing/PycharmProjects/Reinvent-master-3.2/result/LINK_invent/BTK/process_docking_weight1_custom_product_contain_oxygen_bond_distance_aromatic_linkinvent_7_9_3/rearranged_h_0183.sdf

> <i_m_source_file_index>
94

> <r_mmod_Potential_Energy-OPLS-2005>
290.439788818359

> <r_mmod_Stretch_Energy-OPLS-2005>
156.256240844727

> <r_mmod_Bend_Energy-OPLS-2005>
198.322875976562

> <r_mmod_Torsional_Energy-OPLS-2005>
298.385864257812

> <r_mmod_Improper_Torsional_Energy-OPLS-2005>
12.5217885971069

> <r_mmod_Van_der_Waal_Energy-OPLS-2005>
121.872337341309

> <r_mmod_Electrostatic_Energy-OPLS-2005>
-340.180389404297

> <r_mmod_Solvation_Energy-OPLS-2005>
-280.698089599609

> <b_mmod_Minimization_Converged-OPLS-2005>
0

> <r_mmod_RMS_Derivative-OPLS-2005>
1.49921035766602

$$$$
94
                    3D
 Structure written by MMmdl.
152160  0  0  1  0            999 V2000
  -30.6463  -14.6371   20.4761 C   0  0  0  0  0  0
  -30.4271  -12.3834   19.4647 C   0  0  0  0  0  0
  -29.5066  -12.4990   18.2301 C   0  0  0  0  0  0
  -28.0292  -12.3435   18.6400 C   0  0  0  0  0  0
  -27.6502  -13.2231   19.8617 C   0  0  2  0  0  0
  -28.6935  -13.1024   20.9956 C   0  0  0  0  0  0
  -25.2541  -13.8187   20.5698 C   0  0  0  0  0  0
  -24.1816  -13.0440   20.9196 C   0  0  0  0  0  0
  -24.6395  -11.6914   20.8741 C   0  0  0  0  0  0
  -23.9065  -10.4294   21.0405 C   0  0  0  0  0  0
  -24.3616   -9.4208   21.9183 C   0  0  0  0  0  0
  -23.6291   -8.2243   22.0753 C   0  0  0  0  0  0
  -22.4273   -8.0283   21.3544 C   0  0  0  0  0  0
  -21.9907   -9.0256   20.4647 C   0  0  0  0  0  0
  -22.7236  -10.2136   20.3055 C   0  0  0  0  0  0
  -21.6853   -6.0735   22.5279 C   0  0  0  0  0  0
  -21.4016   -6.5639   23.8213 C   0  0  0  0  0  0
  -21.3660   -5.6792   24.9174 C   0  0  0  0  0  0
  -21.6044   -4.3055   24.7224 C   0  0  0  0  0  0
  -21.8820   -3.8146   23.4344 C   0  0  0  0  0  0
  -21.9192   -4.6963   22.3401 C   0  0  0  0  0  0
  -22.7838  -13.5228   21.1856 C   0  0  0  0  0  0
  -22.1662   -4.2148   21.0979 F   0  0  0  0  0  0
  -21.5625   -3.4538   25.7736 F   0  0  0  0  0  0
  -30.0103  -13.4235   20.4278 N   0  0  0  0  0  0
  -26.2975  -12.9382   20.3324 N   0  0  0  0  0  0
  -25.9326  -11.6529   20.5764 N   0  0  0  0  0  0
  -22.0482  -12.8223   22.0414 N   0  0  0  0  0  0
  -25.4239  -15.1912   20.4125 N   0  0  0  0  0  0
  -31.8213  -14.7407   20.1109 O   0  0  0  0  0  0
  -21.6638   -6.8879   21.4242 O   0  0  0  0  0  0
  -22.3524  -14.5535   20.6703 O   0  0  0  0  0  0
  -24.6246  -31.8603   23.2033 C   0  0  0  0  0  0
  -25.9099  -32.4782   23.8360 C   0  0  1  0  0  0
  -27.2290  -27.3385   20.1046 C   0  0  0  0  0  0
  -25.5919  -33.8584   24.2286 N   0  0  0  0  0  0
  -23.4182  -30.4839   21.5450 C   0  0  2  0  0  0
  -24.8663  -28.9421   20.1070 C   0  0  0  0  0  0
  -22.7470  -29.4623   22.4935 C   0  0  0  0  0  0
  -18.0285  -28.1384   22.8486 C   0  0  0  0  0  0
  -24.1487  -36.7297   23.2639 C   0  0  0  0  0  0
  -25.9579  -30.7956   21.3729 C   0  0  0  0  0  0
  -26.0335  -29.4250   20.7128 C   0  0  0  0  0  0
  -27.2168  -28.6309   20.7095 C   0  0  0  0  0  0
  -26.0363  -26.8963   19.4895 C   0  0  0  0  0  0
  -24.8680  -27.6817   19.4883 C   0  0  0  0  0  0
  -23.6325  -29.8196   20.1592 C   0  0  0  0  0  0
  -25.4112  -36.3087   24.0330 C   0  0  1  0  0  0
  -20.5884  -28.3687   23.1286 C   0  0  2  0  0  0
  -20.6773  -26.9411   22.5412 C   0  0  0  0  0  0
  -19.5750  -26.6383   21.5213 C   0  0  0  0  0  0
  -18.1930  -26.7926   22.1625 C   0  0  0  0  0  0
  -19.1537  -28.8852   23.2881 C   0  0  0  0  0  0
  -18.9461  -30.1454   23.8897 C   0  0  0  0  0  0
  -17.6461  -30.6586   24.0564 C   0  0  0  0  0  0
  -25.9048  -34.9455   23.5108 C   0  0  0  0  0  0
  -16.5352  -29.9086   23.6330 C   0  0  0  0  0  0
  -16.7272  -28.6503   23.0351 C   0  0  0  0  0  0
  -26.4492  -31.6590   25.0726 C   0  0  0  0  0  0
  -25.3733  -31.3725   26.1459 C   0  0  0  0  0  0
  -27.0337  -30.3017   24.6173 C   0  0  0  0  0  0
  -27.6050  -32.4329   25.7495 C   0  0  0  0  0  0
  -27.5578  -37.1805   24.8465 C   0  0  0  0  0  0
  -21.4184  -29.3039   22.3679 N   0  0  0  0  0  0
  -26.4292  -37.3780   23.9406 N   0  0  0  0  0  0
  -24.6855  -31.0626   22.0975 N   0  0  0  0  0  0
  -23.4198  -28.8166   23.3013 O   0  0  0  0  0  0
  -28.3236  -26.4705   20.1882 O   0  0  0  0  0  0
  -26.5616  -34.8920   22.4674 O   0  0  0  0  0  0
  -23.5412  -32.1395   23.7369 O   0  0  0  0  0  0
  -31.0236  -17.6012   19.5412 C   0  0  0  0  0  0
  -30.0953  -17.1499   20.4507 C   0  0  0  0  0  0
  -29.6862  -19.4739   20.5202 C   0  0  0  0  0  0
  -28.5725  -25.5780   19.1471 C   0  0  0  0  0  0
  -28.8375  -24.2240   19.1168 C   0  0  0  0  0  0
  -28.9081  -23.2649   20.2700 C   0  0  0  0  0  0
  -28.0438  -21.3495   18.8813 C   0  0  0  0  0  0
  -29.1398  -20.8343   21.0338 C   0  0  0  0  0  0
  -29.3337  -18.2366   20.9791 N   0  0  0  0  0  0
  -29.8845  -15.7399   20.7806 N   0  0  0  0  0  0
  -28.8089  -21.8976   20.0129 N   0  0  0  0  0  0
  -29.1238  -23.6568   21.4200 O   0  0  0  0  0  0
  -29.1016  -23.7443   17.8896 O   0  0  0  0  0  0
  -30.9962  -19.3461   19.3467 S   0  0  0  0  0  0
  -31.4722  -12.4842   19.1664 H   0  0  0  0  0  0
  -30.3422  -11.3942   19.9176 H   0  0  0  0  0  0
  -29.7699  -11.7415   17.4907 H   0  0  0  0  0  0
  -29.6556  -13.4648   17.7446 H   0  0  0  0  0  0
  -27.8644  -11.2920   18.8779 H   0  0  0  0  0  0
  -27.3768  -12.5684   17.7956 H   0  0  0  0  0  0
  -27.6621  -14.2548   19.5099 H   0  0  0  0  0  0
  -28.6996  -12.0921   21.4075 H   0  0  0  0  0  0
  -28.4438  -13.7642   21.8264 H   0  0  0  0  0  0
  -25.2761   -9.5680   22.4757 H   0  0  0  0  0  0
  -23.9998   -7.4633   22.7470 H   0  0  0  0  0  0
  -21.0838   -8.8776   19.8954 H   0  0  0  0  0  0
  -22.3694  -10.9674   19.6164 H   0  0  0  0  0  0
  -21.2014   -7.6148   23.9716 H   0  0  0  0  0  0
  -21.1481   -6.0522   25.9078 H   0  0  0  0  0  0
  -22.0598   -2.7607   23.2845 H   0  0  0  0  0  0
  -22.4097  -11.9887   22.4808 H   0  0  0  0  0  0
  -21.1101  -13.1251   22.2619 H   0  0  0  0  0  0
  -24.6560  -15.8441   20.5257 H   0  0  0  0  0  0
  -26.2736  -15.6349   20.0867 H   0  0  0  0  0  0
  -26.7167  -32.5458   23.1110 H   0  0  0  0  0  0
  -25.0069  -33.9733   25.0432 H   0  0  0  0  0  0
  -22.7111  -31.3039   21.4031 H   0  0  0  0  0  0
  -23.3748  -35.9632   23.3308 H   0  0  0  0  0  0
  -24.3577  -36.8910   22.2052 H   0  0  0  0  0  0
  -23.7244  -37.6502   23.6657 H   0  0  0  0  0  0
  -26.0884  -31.5613   20.6071 H   0  0  0  0  0  0
  -26.8382  -30.8432   22.0022 H   0  0  0  0  0  0
  -28.1104  -28.9898   21.2005 H   0  0  0  0  0  0
  -25.9871  -25.9165   19.0365 H   0  0  0  0  0  0
  -23.9699  -27.3014   19.0212 H   0  0  0  0  0  0
  -23.7492  -30.5972   19.4036 H   0  0  0  0  0  0
  -22.7531  -29.2481   19.8571 H   0  0  0  0  0  0
  -25.1293  -36.1943   25.0823 H   0  0  0  0  0  0
  -20.9975  -28.3262   24.1407 H   0  0  0  0  0  0
  -20.5676  -26.2297   23.3612 H   0  0  0  0  0  0
  -21.6643  -26.7442   22.1206 H   0  0  0  0  0  0
  -19.6914  -25.6295   21.1241 H   0  0  0  0  0  0
  -19.6687  -27.3195   20.6744 H   0  0  0  0  0  0
  -17.4199  -26.6672   21.4027 H   0  0  0  0  0  0
  -18.0330  -26.0068   22.9021 H   0  0  0  0  0  0
  -19.7938  -30.7268   24.2267 H   0  0  0  0  0  0
  -17.5018  -31.6267   24.5165 H   0  0  0  0  0  0
  -15.5353  -30.2990   23.7654 H   0  0  0  0  0  0
  -15.8671  -28.0824   22.7066 H   0  0  0  0  0  0
  -24.5903  -30.7076   25.7794 H   0  0  0  0  0  0
  -24.8930  -32.2891   26.4893 H   0  0  0  0  0  0
  -25.8066  -30.8900   27.0229 H   0  0  0  0  0  0
  -26.2911  -29.6767   24.1198 H   0  0  0  0  0  0
  -27.4042  -29.7272   25.4674 H   0  0  0  0  0  0
  -27.8776  -30.4308   23.9392 H   0  0  0  0  0  0
  -27.2655  -33.3624   26.2077 H   0  0  0  0  0  0
  -28.3857  -32.6898   25.0323 H   0  0  0  0  0  0
  -28.0723  -31.8455   26.5409 H   0  0  0  0  0  0
  -28.2602  -38.0095   24.7504 H   0  0  0  0  0  0
  -28.1067  -36.2627   24.6302 H   0  0  0  0  0  0
  -27.2295  -37.1467   25.8868 H   0  0  0  0  0  0
  -20.9361  -29.8763   21.6891 H   0  0  0  0  0  0
  -26.0175  -38.2857   24.1403 H   0  0  0  0  0  0
  -31.7321  -17.0220   18.9632 H   0  0  0  0  0  0
  -28.5555  -26.1332   18.2186 H   0  0  0  0  0  0
  -27.2566  -22.0290   18.5515 H   0  0  0  0  0  0
  -27.5427  -20.4167   19.1422 H   0  0  0  0  0  0
  -28.7014  -21.1458   18.0360 H   0  0  0  0  0  0
  -29.8808  -21.2236   21.7331 H   0  0  0  0  0  0
  -28.2437  -20.6441   21.6252 H   0  0  0  0  0  0
  -28.9887  -15.5265   21.1899 H   0  0  0  0  0  0
  -29.0356  -24.4643   17.2771 H   0  0  0  0  0  0
  1 25  1  0  0  0
  1 30  2  0  0  0
  1 80  1  0  0  0
  2  3  1  0  0  0
  2 25  1  0  0  0
  2 85  1  0  0  0
  2 86  1  0  0  0
  3  4  1  0  0  0
  3 87  1  0  0  0
  3 88  1  0  0  0
  4  5  1  0  0  0
  4 89  1  0  0  0
  4 90  1  0  0  0
  5  6  1  0  0  0
  5 26  1  0  0  0
  5 91  1  0  0  0
  6 25  1  0  0  0
  6 92  1  0  0  0
  6 93  1  0  0  0
  7  8  2  0  0  0
  7 26  1  0  0  0
  7 29  1  0  0  0
  8  9  1  0  0  0
  8 22  1  0  0  0
  9 10  1  0  0  0
  9 27  2  0  0  0
 10 11  2  0  0  0
 10 15  1  0  0  0
 11 12  1  0  0  0
 11 94  1  0  0  0
 12 13  2  0  0  0
 12 95  1  0  0  0
 13 14  1  0  0  0
 13 31  1  0  0  0
 14 15  2  0  0  0
 14 96  1  0  0  0
 15 97  1  0  0  0
 16 17  2  0  0  0
 16 21  1  0  0  0
 16 31  1  0  0  0
 17 18  1  0  0  0
 17 98  1  0  0  0
 18 19  2  0  0  0
 18 99  1  0  0  0
 19 20  1  0  0  0
 19 24  1  0  0  0
 20 21  2  0  0  0
 20100  1  0  0  0
 21 23  1  0  0  0
 22 28  1  0  0  0
 22 32  2  0  0  0
 26 27  1  0  0  0
 28101  1  0  0  0
 28102  1  0  0  0
 29103  1  0  0  0
 29104  1  0  0  0
 33 34  1  0  0  0
 33 66  1  0  0  0
 33 70  2  0  0  0
 34 36  1  0  0  0
 34 59  1  0  0  0
 34105  1  0  0  0
 35 44  2  0  0  0
 35 45  1  0  0  0
 35 68  1  0  0  0
 36 56  1  0  0  0
 36106  1  0  0  0
 37 39  1  0  0  0
 37 47  1  0  0  0
 37 66  1  0  0  0
 37107  1  0  0  0
 38 43  2  0  0  0
 38 46  1  0  0  0
 38 47  1  0  0  0
 39 64  1  0  0  0
 39 67  2  0  0  0
 40 52  1  0  0  0
 40 53  2  0  0  0
 40 58  1  0  0  0
 41108  1  0  0  0
 41109  1  0  0  0
 41110  1  0  0  0
 41 48  1  0  0  0
 42 43  1  0  0  0
 42 66  1  0  0  0
 42111  1  0  0  0
 42112  1  0  0  0
 43 44  1  0  0  0
 44113  1  0  0  0
 45 46  2  0  0  0
 45114  1  0  0  0
 46115  1  0  0  0
 47116  1  0  0  0
 47117  1  0  0  0
 48 56  1  0  0  0
 48 65  1  0  0  0
 48118  1  0  0  0
 49 50  1  0  0  0
 49 53  1  0  0  0
 49 64  1  0  0  0
 49119  1  0  0  0
 50 51  1  0  0  0
 50120  1  0  0  0
 50121  1  0  0  0
 51 52  1  0  0  0
 51122  1  0  0  0
 51123  1  0  0  0
 52124  1  0  0  0
 52125  1  0  0  0
 53 54  1  0  0  0
 54 55  2  0  0  0
 54126  1  0  0  0
 55 57  1  0  0  0
 55127  1  0  0  0
 56 69  2  0  0  0
 57 58  2  0  0  0
 57128  1  0  0  0
 58129  1  0  0  0
 59 60  1  0  0  0
 59 61  1  0  0  0
 59 62  1  0  0  0
 60130  1  0  0  0
 60131  1  0  0  0
 60132  1  0  0  0
 61133  1  0  0  0
 61134  1  0  0  0
 61135  1  0  0  0
 62136  1  0  0  0
 62137  1  0  0  0
 62138  1  0  0  0
 63 65  1  0  0  0
 63139  1  0  0  0
 63140  1  0  0  0
 63141  1  0  0  0
 64142  1  0  0  0
 65143  1  0  0  0
 68 74  1  0  0  0
 71 72  2  0  0  0
 71 84  1  0  0  0
 71144  1  0  0  0
 72 79  1  0  0  0
 72 80  1  0  0  0
 73 78  1  0  0  0
 73 79  2  0  0  0
 73 84  1  0  0  0
 74 75  2  0  0  0
 74145  1  0  0  0
 75 76  1  0  0  0
 75 83  1  0  0  0
 76 81  1  0  0  0
 76 82  2  0  0  0
 77 81  1  0  0  0
 77146  1  0  0  0
 77147  1  0  0  0
 77148  1  0  0  0
 78 81  1  0  0  0
 78149  1  0  0  0
 78150  1  0  0  0
 80151  1  0  0  0
 83152  1  0  0  0
M  ISO  4   1 100  68 101  74 101  80 100
M  END
> <chiral flag>
0

> <version>
0

> <s_m_source_file>
/data/baiqing/PycharmProjects/Reinvent-master-3.2/result/LINK_invent/BTK/process_docking_weight1_custom_product_contain_oxygen_bond_distance_aromatic_linkinvent_7_9_3/rearranged_h_0183.sdf

> <i_m_source_file_index>
95

> <r_mmod_Potential_Energy-OPLS-2005>
45.8828544616699

> <r_mmod_Stretch_Energy-OPLS-2005>
79.1852340698242

> <r_mmod_Bend_Energy-OPLS-2005>
155.279769897461

> <r_mmod_Torsional_Energy-OPLS-2005>
234.268325805664

> <r_mmod_Improper_Torsional_Energy-OPLS-2005>
5.86080408096313

> <r_mmod_Van_der_Waal_Energy-OPLS-2005>
139.379699707031

> <r_mmod_Electrostatic_Energy-OPLS-2005>
-375.925476074219

> <r_mmod_Solvation_Energy-OPLS-2005>
-240.499710083008

> <b_mmod_Minimization_Converged-OPLS-2005>
0

> <r_mmod_RMS_Derivative-OPLS-2005>
0.389473855495453

$$$$
95
                    3D
 Structure written by MMmdl.
155163  0  0  1  0            999 V2000
  -30.6257  -14.7126   20.4795 C   0  0  0  0  0  0
  -30.4412  -12.4356   19.4703 C   0  0  0  0  0  0
  -29.5127  -12.4945   18.2368 C   0  0  0  0  0  0
  -28.0401  -12.3171   18.6546 C   0  0  0  0  0  0
  -27.6476  -13.2215   19.8523 C   0  0  2  0  0  0
  -28.6929  -13.1415   20.9880 C   0  0  0  0  0  0
  -25.2555  -13.8178   20.5689 C   0  0  0  0  0  0
  -24.1833  -13.0443   20.9212 C   0  0  0  0  0  0
  -24.6403  -11.6913   20.8750 C   0  0  0  0  0  0
  -23.9068  -10.4297   21.0412 C   0  0  0  0  0  0
  -24.3617   -9.4211   21.9192 C   0  0  0  0  0  0
  -23.6292   -8.2245   22.0758 C   0  0  0  0  0  0
  -22.4277   -8.0284   21.3544 C   0  0  0  0  0  0
  -21.9915   -9.0258   20.4645 C   0  0  0  0  0  0
  -22.7244  -10.2137   20.3059 C   0  0  0  0  0  0
  -21.6850   -6.0739   22.5282 C   0  0  0  0  0  0
  -21.4011   -6.5641   23.8216 C   0  0  0  0  0  0
  -21.3656   -5.6793   24.9176 C   0  0  0  0  0  0
  -21.6041   -4.3056   24.7228 C   0  0  0  0  0  0
  -21.8820   -3.8151   23.4349 C   0  0  0  0  0  0
  -21.9193   -4.6967   22.3406 C   0  0  0  0  0  0
  -22.7852  -13.5237   21.1856 C   0  0  0  0  0  0
  -22.1664   -4.2153   21.0984 F   0  0  0  0  0  0
  -21.5626   -3.4539   25.7740 F   0  0  0  0  0  0
  -30.0012  -13.4875   20.4139 N   0  0  0  0  0  0
  -26.2969  -12.9362   20.3286 N   0  0  0  0  0  0
  -25.9333  -11.6521   20.5759 N   0  0  0  0  0  0
  -22.0485  -12.8225   22.0405 N   0  0  0  0  0  0
  -25.4271  -15.1904   20.4090 N   0  0  0  0  0  0
  -31.8105  -14.8123   20.1451 O   0  0  0  0  0  0
  -21.6639   -6.8885   21.4245 O   0  0  0  0  0  0
  -22.3542  -14.5544   20.6703 O   0  0  0  0  0  0
  -24.6297  -31.8560   23.1992 C   0  0  0  0  0  0
  -25.9125  -32.4761   23.8329 C   0  0  1  0  0  0
  -27.2243  -27.2804   20.1244 C   0  0  0  0  0  0
  -25.5916  -33.8559   24.2251 N   0  0  0  0  0  0
  -23.4256  -30.4778   21.5429 C   0  0  2  0  0  0
  -24.8731  -28.9288   20.1092 C   0  0  0  0  0  0
  -22.7502  -29.4580   22.4915 C   0  0  0  0  0  0
  -18.0286  -28.1377   22.8471 C   0  0  0  0  0  0
  -24.1491  -36.7289   23.2641 C   0  0  0  0  0  0
  -25.9684  -30.7767   21.3736 C   0  0  0  0  0  0
  -26.0439  -29.3996   20.7178 C   0  0  0  0  0  0
  -27.2222  -28.5874   20.7140 C   0  0  0  0  0  0
  -26.0293  -26.8780   19.4805 C   0  0  0  0  0  0
  -24.8703  -27.6757   19.4798 C   0  0  0  0  0  0
  -23.6428  -29.8130   20.1588 C   0  0  0  0  0  0
  -25.4113  -36.3064   24.0329 C   0  0  1  0  0  0
  -20.5889  -28.3670   23.1266 C   0  0  2  0  0  0
  -20.6776  -26.9388   22.5400 C   0  0  0  0  0  0
  -19.5751  -26.6364   21.5201 C   0  0  0  0  0  0
  -18.1927  -26.7919   22.1616 C   0  0  0  0  0  0
  -19.1545  -28.8846   23.2864 C   0  0  0  0  0  0
  -18.9470  -30.1451   23.8869 C   0  0  0  0  0  0
  -17.6472  -30.6581   24.0550 C   0  0  0  0  0  0
  -25.9051  -34.9436   23.5093 C   0  0  0  0  0  0
  -16.5357  -29.9072   23.6321 C   0  0  0  0  0  0
  -16.7279  -28.6493   23.0332 C   0  0  0  0  0  0
  -26.4505  -31.6586   25.0713 C   0  0  0  0  0  0
  -25.3734  -31.3718   26.1442 C   0  0  0  0  0  0
  -27.0357  -30.3011   24.6163 C   0  0  0  0  0  0
  -27.6046  -32.4333   25.7496 C   0  0  0  0  0  0
  -27.5573  -37.1795   24.8467 C   0  0  0  0  0  0
  -21.4211  -29.3026   22.3672 N   0  0  0  0  0  0
  -26.4284  -37.3761   23.9413 N   0  0  0  0  0  0
  -24.6940  -31.0545   22.0953 N   0  0  0  0  0  0
  -23.4231  -28.8117   23.2990 O   0  0  0  0  0  0
  -28.3270  -26.3980   20.1975 O   0  0  0  0  0  0
  -26.5631  -34.8917   22.4663 O   0  0  0  0  0  0
  -23.5450  -32.1365   23.7298 O   0  0  0  0  0  0
  -31.3299  -19.2328   20.6365 C   0  0  0  0  0  0
  -30.1001  -19.8777   20.6114 C   0  0  0  0  0  0
  -30.0846  -17.2708   20.6484 C   0  0  0  0  0  0
  -32.6675  -19.9087   20.6721 C   0  0  0  0  0  0
  -27.6438  -21.9152   21.3818 C   0  0  0  0  0  0
  -28.0969  -24.9330   19.9796 C   0  0  0  0  0  0
  -28.7763  -22.2316   20.3923 C   0  0  1  0  0  0
  -29.1590  -23.8140   20.4569 C   0  0  1  0  0  0
  -31.3091  -17.8143   20.6493 N   0  0  0  0  0  0
  -29.9525  -21.3269   20.6352 N   0  0  0  0  0  0
  -29.8292  -15.8169   20.7193 N   0  0  0  0  0  0
  -30.3050  -23.9531   19.6327 O   0  0  0  0  0  0
  -28.8479  -18.5986   20.6026 S   0  0  0  0  0  0
  -31.4802  -12.5635   19.1617 H   0  0  0  0  0  0
  -30.3936  -11.4551   19.9473 H   0  0  0  0  0  0
  -29.7928  -11.7233   17.5174 H   0  0  0  0  0  0
  -29.6385  -13.4507   17.7262 H   0  0  0  0  0  0
  -27.9021  -11.2696   18.9262 H   0  0  0  0  0  0
  -27.3791  -12.4970   17.8068 H   0  0  0  0  0  0
  -27.6472  -14.2426   19.4697 H   0  0  0  0  0  0
  -28.7217  -12.1386   21.4168 H   0  0  0  0  0  0
  -28.4291  -13.8124   21.8072 H   0  0  0  0  0  0
  -25.2758   -9.5683   22.4774 H   0  0  0  0  0  0
  -23.9996   -7.4634   22.7478 H   0  0  0  0  0  0
  -21.0850   -8.8778   19.8949 H   0  0  0  0  0  0
  -22.3706  -10.9677   19.6167 H   0  0  0  0  0  0
  -21.2001   -7.6147   23.9720 H   0  0  0  0  0  0
  -21.1476   -6.0523   25.9080 H   0  0  0  0  0  0
  -22.0602   -2.7613   23.2851 H   0  0  0  0  0  0
  -22.4086  -11.9873   22.4780 H   0  0  0  0  0  0
  -21.1113  -13.1267   22.2609 H   0  0  0  0  0  0
  -24.6545  -15.8405   20.5059 H   0  0  0  0  0  0
  -26.2610  -15.6253   20.0366 H   0  0  0  0  0  0
  -26.7188  -32.5446   23.1074 H   0  0  0  0  0  0
  -25.0050  -33.9681   25.0391 H   0  0  0  0  0  0
  -22.7205  -31.2991   21.3974 H   0  0  0  0  0  0
  -23.3748  -35.9627   23.3302 H   0  0  0  0  0  0
  -24.3577  -36.8919   22.2053 H   0  0  0  0  0  0
  -23.7255  -37.6489   23.6678 H   0  0  0  0  0  0
  -26.0967  -31.5361   20.6015 H   0  0  0  0  0  0
  -26.8503  -30.8299   22.0006 H   0  0  0  0  0  0
  -28.1189  -28.9389   21.2056 H   0  0  0  0  0  0
  -25.9546  -25.9216   18.9848 H   0  0  0  0  0  0
  -23.9748  -27.3105   18.9954 H   0  0  0  0  0  0
  -23.7646  -30.5906   19.4032 H   0  0  0  0  0  0
  -22.7618  -29.2429   19.8562 H   0  0  0  0  0  0
  -25.1287  -36.1898   25.0818 H   0  0  0  0  0  0
  -20.9969  -28.3254   24.1397 H   0  0  0  0  0  0
  -20.5663  -26.2286   23.3606 H   0  0  0  0  0  0
  -21.6646  -26.7410   22.1196 H   0  0  0  0  0  0
  -19.6912  -25.6269   21.1242 H   0  0  0  0  0  0
  -19.6697  -27.3174   20.6727 H   0  0  0  0  0  0
  -17.4188  -26.6651   21.4021 H   0  0  0  0  0  0
  -18.0329  -26.0074   22.9025 H   0  0  0  0  0  0
  -19.7957  -30.7259   24.2241 H   0  0  0  0  0  0
  -17.5029  -31.6263   24.5149 H   0  0  0  0  0  0
  -15.5355  -30.2959   23.7676 H   0  0  0  0  0  0
  -15.8681  -28.0821   22.7036 H   0  0  0  0  0  0
  -24.5918  -30.7052   25.7784 H   0  0  0  0  0  0
  -24.8917  -32.2873   26.4866 H   0  0  0  0  0  0
  -25.8056  -30.8908   27.0225 H   0  0  0  0  0  0
  -26.2921  -29.6743   24.1219 H   0  0  0  0  0  0
  -27.4095  -29.7276   25.4655 H   0  0  0  0  0  0
  -27.8775  -30.4306   23.9361 H   0  0  0  0  0  0
  -27.2640  -33.3649   26.2030 H   0  0  0  0  0  0
  -28.3879  -32.6867   25.0343 H   0  0  0  0  0  0
  -28.0685  -31.8489   26.5449 H   0  0  0  0  0  0
  -28.2572  -38.0109   24.7500 H   0  0  0  0  0  0
  -28.1080  -36.2623   24.6296 H   0  0  0  0  0  0
  -27.2290  -37.1447   25.8872 H   0  0  0  0  0  0
  -20.9396  -29.8775   21.6904 H   0  0  0  0  0  0
  -26.0165  -38.2832   24.1428 H   0  0  0  0  0  0
  -32.6940  -20.6869   21.4346 H   0  0  0  0  0  0
  -32.8964  -20.3754   19.7146 H   0  0  0  0  0  0
  -33.4724  -19.2083   20.8984 H   0  0  0  0  0  0
  -26.7693  -22.5370   21.1903 H   0  0  0  0  0  0
  -27.9497  -22.0884   22.4146 H   0  0  0  0  0  0
  -27.3088  -20.8826   21.3025 H   0  0  0  0  0  0
  -27.1702  -24.6921   20.5012 H   0  0  0  0  0  0
  -27.8944  -24.7765   18.9186 H   0  0  0  0  0  0
  -28.4134  -22.0182   19.3852 H   0  0  0  0  0  0
  -29.4520  -24.0517   21.4814 H   0  0  0  0  0  0
  -30.8188  -21.8553   20.5523 H   0  0  0  0  0  0
  -28.8720  -15.5783   20.9218 H   0  0  0  0  0  0
  -30.6026  -24.8543   19.7219 H   0  0  0  0  0  0
  1 25  1  0  0  0
  1 30  2  0  0  0
  1 81  1  0  0  0
  2  3  1  0  0  0
  2 25  1  0  0  0
  2 84  1  0  0  0
  2 85  1  0  0  0
  3  4  1  0  0  0
  3 86  1  0  0  0
  3 87  1  0  0  0
  4  5  1  0  0  0
  4 88  1  0  0  0
  4 89  1  0  0  0
  5  6  1  0  0  0
  5 26  1  0  0  0
  5 90  1  0  0  0
  6 25  1  0  0  0
  6 91  1  0  0  0
  6 92  1  0  0  0
  7  8  2  0  0  0
  7 26  1  0  0  0
  7 29  1  0  0  0
  8  9  1  0  0  0
  8 22  1  0  0  0
  9 10  1  0  0  0
  9 27  2  0  0  0
 10 11  2  0  0  0
 10 15  1  0  0  0
 11 12  1  0  0  0
 11 93  1  0  0  0
 12 13  2  0  0  0
 12 94  1  0  0  0
 13 14  1  0  0  0
 13 31  1  0  0  0
 14 15  2  0  0  0
 14 95  1  0  0  0
 15 96  1  0  0  0
 16 17  2  0  0  0
 16 21  1  0  0  0
 16 31  1  0  0  0
 17 18  1  0  0  0
 17 97  1  0  0  0
 18 19  2  0  0  0
 18 98  1  0  0  0
 19 20  1  0  0  0
 19 24  1  0  0  0
 20 21  2  0  0  0
 20 99  1  0  0  0
 21 23  1  0  0  0
 22 28  1  0  0  0
 22 32  2  0  0  0
 26 27  1  0  0  0
 28100  1  0  0  0
 28101  1  0  0  0
 29102  1  0  0  0
 29103  1  0  0  0
 33 34  1  0  0  0
 33 66  1  0  0  0
 33 70  2  0  0  0
 34 36  1  0  0  0
 34 59  1  0  0  0
 34104  1  0  0  0
 35 44  2  0  0  0
 35 45  1  0  0  0
 35 68  1  0  0  0
 36 56  1  0  0  0
 36105  1  0  0  0
 37 39  1  0  0  0
 37 47  1  0  0  0
 37 66  1  0  0  0
 37106  1  0  0  0
 38 43  2  0  0  0
 38 46  1  0  0  0
 38 47  1  0  0  0
 39 64  1  0  0  0
 39 67  2  0  0  0
 40 52  1  0  0  0
 40 53  2  0  0  0
 40 58  1  0  0  0
 41107  1  0  0  0
 41108  1  0  0  0
 41109  1  0  0  0
 41 48  1  0  0  0
 42 43  1  0  0  0
 42 66  1  0  0  0
 42110  1  0  0  0
 42111  1  0  0  0
 43 44  1  0  0  0
 44112  1  0  0  0
 45 46  2  0  0  0
 45113  1  0  0  0
 46114  1  0  0  0
 47115  1  0  0  0
 47116  1  0  0  0
 48 56  1  0  0  0
 48 65  1  0  0  0
 48117  1  0  0  0
 49 50  1  0  0  0
 49 53  1  0  0  0
 49 64  1  0  0  0
 49118  1  0  0  0
 50 51  1  0  0  0
 50119  1  0  0  0
 50120  1  0  0  0
 51 52  1  0  0  0
 51121  1  0  0  0
 51122  1  0  0  0
 52123  1  0  0  0
 52124  1  0  0  0
 53 54  1  0  0  0
 54 55  2  0  0  0
 54125  1  0  0  0
 55 57  1  0  0  0
 55126  1  0  0  0
 56 69  2  0  0  0
 57 58  2  0  0  0
 57127  1  0  0  0
 58128  1  0  0  0
 59 60  1  0  0  0
 59 61  1  0  0  0
 59 62  1  0  0  0
 60129  1  0  0  0
 60130  1  0  0  0
 60131  1  0  0  0
 61132  1  0  0  0
 61133  1  0  0  0
 61134  1  0  0  0
 62135  1  0  0  0
 62136  1  0  0  0
 62137  1  0  0  0
 63 65  1  0  0  0
 63138  1  0  0  0
 63139  1  0  0  0
 63140  1  0  0  0
 64141  1  0  0  0
 65142  1  0  0  0
 68 76  1  0  0  0
 71 72  2  0  0  0
 71 74  1  0  0  0
 71 79  1  0  0  0
 72 80  1  0  0  0
 72 83  1  0  0  0
 73 79  2  0  0  0
 73 81  1  0  0  0
 73 83  1  0  0  0
 74143  1  0  0  0
 74144  1  0  0  0
 74145  1  0  0  0
 75146  1  0  0  0
 75147  1  0  0  0
 75148  1  0  0  0
 75 77  1  0  0  0
 76 78  1  0  0  0
 76149  1  0  0  0
 76150  1  0  0  0
 77 78  1  0  0  0
 77 80  1  0  0  0
 77151  1  0  0  0
 78 82  1  0  0  0
 78152  1  0  0  0
 80153  1  0  0  0
 81154  1  0  0  0
 82155  1  0  0  0
M  ISO  4   1 100  68 101  76 101  81 100
M  END
> <chiral flag>
0

> <version>
0

> <s_m_source_file>
/data/baiqing/PycharmProjects/Reinvent-master-3.2/result/LINK_invent/BTK/process_docking_weight1_custom_product_contain_oxygen_bond_distance_aromatic_linkinvent_7_9_3/rearranged_h_0183.sdf

> <i_m_source_file_index>
96

> <r_mmod_Potential_Energy-OPLS-2005>
61.4716682434082

> <r_mmod_Stretch_Energy-OPLS-2005>
105.737167358398

> <r_mmod_Bend_Energy-OPLS-2005>
177.368087768555

> <r_mmod_Torsional_Energy-OPLS-2005>
227.165161132812

> <r_mmod_Improper_Torsional_Energy-OPLS-2005>
5.84234046936035

> <r_mmod_Van_der_Waal_Energy-OPLS-2005>
122.043663024902

> <r_mmod_Electrostatic_Energy-OPLS-2005>
-404.781494140625

> <r_mmod_Solvation_Energy-OPLS-2005>
-244.946517944336

> <b_mmod_Minimization_Converged-OPLS-2005>
0

> <r_mmod_RMS_Derivative-OPLS-2005>
1.7790310382843

$$$$
