0
                    3D
 Structure written by MMmdl.
164173  0  0  1  0            999 V2000
  -30.5885  -14.7205   20.4850 C   0  0  0  0  0  0
  -30.4439  -12.4409   19.4693 C   0  0  0  0  0  0
  -29.5154  -12.5203   18.2362 C   0  0  0  0  0  0
  -28.0408  -12.3384   18.6488 C   0  0  0  0  0  0
  -27.6503  -13.2230   19.8632 C   0  0  2  0  0  0
  -28.6949  -13.1092   20.9968 C   0  0  0  0  0  0
  -25.2543  -13.8176   20.5728 C   0  0  0  0  0  0
  -24.1805  -13.0428   20.9175 C   0  0  0  0  0  0
  -24.6384  -11.6907   20.8714 C   0  0  0  0  0  0
  -23.9055  -10.4293   21.0388 C   0  0  0  0  0  0
  -24.3605   -9.4217   21.9171 C   0  0  0  0  0  0
  -23.6292   -8.2245   22.0746 C   0  0  0  0  0  0
  -22.4270   -8.0278   21.3541 C   0  0  0  0  0  0
  -21.9904   -9.0246   20.4643 C   0  0  0  0  0  0
  -22.7226  -10.2131   20.3042 C   0  0  0  0  0  0
  -21.6852   -6.0731   22.5286 C   0  0  0  0  0  0
  -21.4010   -6.5634   23.8214 C   0  0  0  0  0  0
  -21.3660   -5.6782   24.9181 C   0  0  0  0  0  0
  -21.6046   -4.3046   24.7225 C   0  0  0  0  0  0
  -21.8820   -3.8138   23.4345 C   0  0  0  0  0  0
  -21.9194   -4.6957   22.3407 C   0  0  0  0  0  0
  -22.7835  -13.5223   21.1860 C   0  0  0  0  0  0
  -22.1662   -4.2147   21.0980 F   0  0  0  0  0  0
  -21.5636   -3.4520   25.7732 F   0  0  0  0  0  0
  -30.0033  -13.4746   20.4318 N   0  0  0  0  0  0
  -26.2971  -12.9372   20.3328 N   0  0  0  0  0  0
  -25.9316  -11.6516   20.5736 N   0  0  0  0  0  0
  -22.0475  -12.8212   22.0410 N   0  0  0  0  0  0
  -25.4246  -15.1905   20.4297 N   0  0  0  0  0  0
  -31.7488  -14.8845   20.0957 O   0  0  0  0  0  0
  -21.6636   -6.8873   21.4247 O   0  0  0  0  0  0
  -22.3527  -14.5537   20.6718 O   0  0  0  0  0  0
  -24.6295  -31.8573   23.1986 C   0  0  0  0  0  0
  -25.9119  -32.4772   23.8334 C   0  0  1  0  0  0
  -27.2198  -27.2685   20.1430 C   0  0  0  0  0  0
  -25.5929  -33.8571   24.2258 N   0  0  0  0  0  0
  -23.4266  -30.4794   21.5405 C   0  0  2  0  0  0
  -24.8749  -28.9278   20.1089 C   0  0  0  0  0  0
  -22.7495  -29.4614   22.4902 C   0  0  0  0  0  0
  -18.0292  -28.1408   22.8496 C   0  0  0  0  0  0
  -24.1479  -36.7260   23.2642 C   0  0  0  0  0  0
  -25.9706  -30.7740   21.3773 C   0  0  0  0  0  0
  -26.0435  -29.3953   20.7228 C   0  0  0  0  0  0
  -27.2169  -28.5776   20.7302 C   0  0  0  0  0  0
  -26.0336  -26.8758   19.4805 C   0  0  0  0  0  0
  -24.8752  -27.6770   19.4750 C   0  0  0  0  0  0
  -23.6447  -29.8121   20.1564 C   0  0  0  0  0  0
  -25.4109  -36.3069   24.0334 C   0  0  1  0  0  0
  -20.5898  -28.3702   23.1280 C   0  0  2  0  0  0
  -20.6770  -26.9417   22.5429 C   0  0  0  0  0  0
  -19.5757  -26.6399   21.5222 C   0  0  0  0  0  0
  -18.1927  -26.7966   22.1608 C   0  0  0  0  0  0
  -19.1549  -28.8873   23.2888 C   0  0  0  0  0  0
  -18.9467  -30.1470   23.8908 C   0  0  0  0  0  0
  -17.6468  -30.6608   24.0570 C   0  0  0  0  0  0
  -25.9059  -34.9445   23.5097 C   0  0  0  0  0  0
  -16.5359  -29.9099   23.6347 C   0  0  0  0  0  0
  -16.7281  -28.6520   23.0371 C   0  0  0  0  0  0
  -26.4491  -31.6606   25.0724 C   0  0  0  0  0  0
  -25.3711  -31.3771   26.1448 C   0  0  0  0  0  0
  -27.0319  -30.3017   24.6203 C   0  0  0  0  0  0
  -27.6068  -32.4333   25.7489 C   0  0  0  0  0  0
  -27.5580  -37.1768   24.8455 C   0  0  0  0  0  0
  -21.4205  -29.3043   22.3655 N   0  0  0  0  0  0
  -26.4271  -37.3777   23.9438 N   0  0  0  0  0  0
  -24.6943  -31.0559   22.0950 N   0  0  0  0  0  0
  -23.4206  -28.8176   23.3012 O   0  0  0  0  0  0
  -28.3206  -26.3838   20.2337 O   0  0  0  0  0  0
  -26.5616  -34.8926   22.4660 O   0  0  0  0  0  0
  -23.5450  -32.1379   23.7293 O   0  0  0  0  0  0
  -30.4940  -19.4340   19.7384 C   0  0  0  0  0  0
  -30.6375  -18.0092   19.8719 C   0  0  0  0  0  0
  -28.7005  -19.4246   21.3124 C   0  0  0  0  0  0
  -29.5196  -20.2064   20.4478 C   0  0  0  0  0  0
  -29.7977  -17.2398   20.7249 C   0  0  0  0  0  0
  -28.8299  -18.0008   21.4452 C   0  0  0  0  0  0
  -28.7744  -23.9884   21.2657 C   0  0  0  0  0  0
  -29.2500  -22.6647   21.2991 C   0  0  0  0  0  0
  -29.4502  -23.4084   18.4597 C   0  0  0  0  0  0
  -28.3315  -24.4220   18.6655 C   0  0  0  0  0  0
  -29.1227  -21.9643   18.8558 C   0  0  0  0  0  0
  -28.1319  -24.8887   20.1242 C   0  0  2  0  0  0
  -28.7964  -24.8471   22.5330 C   0  0  0  0  0  0
  -29.8773  -22.1646   22.6058 C   0  0  0  0  0  0
  -29.3454  -21.6500   20.2756 N   0  0  0  0  0  0
  -27.9675  -17.3201   22.3092 N   0  0  0  0  0  0
  -29.7731  -15.7661   20.8661 N   0  0  0  0  0  0
  -30.5532  -23.7334   18.0085 O   0  0  0  0  0  0
  -31.4848  -12.5773   19.1709 H   0  0  0  0  0  0
  -30.3917  -11.4523   19.9272 H   0  0  0  0  0  0
  -29.7978  -11.7651   17.5017 H   0  0  0  0  0  0
  -29.6404  -13.4870   17.7450 H   0  0  0  0  0  0
  -27.8988  -11.2872   18.9007 H   0  0  0  0  0  0
  -27.3821  -12.5404   17.8039 H   0  0  0  0  0  0
  -27.6575  -14.2531   19.5054 H   0  0  0  0  0  0
  -28.7260  -12.0933   21.3945 H   0  0  0  0  0  0
  -28.4262  -13.7496   21.8382 H   0  0  0  0  0  0
  -25.2756   -9.5699   22.4742 H   0  0  0  0  0  0
  -24.0008   -7.4638   22.7460 H   0  0  0  0  0  0
  -21.0835   -8.8759   19.8948 H   0  0  0  0  0  0
  -22.3684  -10.9658   19.6139 H   0  0  0  0  0  0
  -21.1990   -7.6142   23.9719 H   0  0  0  0  0  0
  -21.1484   -6.0509   25.9082 H   0  0  0  0  0  0
  -22.0594   -2.7602   23.2835 H   0  0  0  0  0  0
  -22.4072  -11.9864   22.4790 H   0  0  0  0  0  0
  -21.1097  -13.1250   22.2617 H   0  0  0  0  0  0
  -24.6743  -15.8433   20.6263 H   0  0  0  0  0  0
  -26.3123  -15.6521   20.2696 H   0  0  0  0  0  0
  -26.7193  -32.5429   23.1086 H   0  0  0  0  0  0
  -25.0097  -33.9718   25.0421 H   0  0  0  0  0  0
  -22.7230  -31.3017   21.3941 H   0  0  0  0  0  0
  -23.3769  -35.9557   23.3270 H   0  0  0  0  0  0
  -24.3585  -36.8919   22.2065 H   0  0  0  0  0  0
  -23.7186  -37.6436   23.6682 H   0  0  0  0  0  0
  -26.1081  -31.5344   20.6065 H   0  0  0  0  0  0
  -26.8497  -30.8259   22.0080 H   0  0  0  0  0  0
  -28.1090  -28.9269   21.2309 H   0  0  0  0  0  0
  -25.9715  -25.9267   18.9701 H   0  0  0  0  0  0
  -23.9830  -27.3182   18.9791 H   0  0  0  0  0  0
  -23.7641  -30.5865   19.3981 H   0  0  0  0  0  0
  -22.7644  -29.2418   19.8538 H   0  0  0  0  0  0
  -25.1289  -36.1907   25.0824 H   0  0  0  0  0  0
  -21.0005  -28.3284   24.1395 H   0  0  0  0  0  0
  -20.5657  -26.2316   23.3642 H   0  0  0  0  0  0
  -21.6645  -26.7431   22.1240 H   0  0  0  0  0  0
  -19.6907  -25.6304   21.1266 H   0  0  0  0  0  0
  -19.6725  -27.3199   20.6753 H   0  0  0  0  0  0
  -17.4222  -26.6767   21.3979 H   0  0  0  0  0  0
  -18.0274  -26.0102   22.8991 H   0  0  0  0  0  0
  -19.7942  -30.7282   24.2294 H   0  0  0  0  0  0
  -17.5028  -31.6290   24.5157 H   0  0  0  0  0  0
  -15.5360  -30.2999   23.7688 H   0  0  0  0  0  0
  -15.8685  -28.0842   22.7080 H   0  0  0  0  0  0
  -24.5957  -30.7018   25.7817 H   0  0  0  0  0  0
  -24.8797  -32.2924   26.4748 H   0  0  0  0  0  0
  -25.8041  -30.9097   27.0297 H   0  0  0  0  0  0
  -26.2882  -29.6785   24.1215 H   0  0  0  0  0  0
  -27.3982  -29.7279   25.4725 H   0  0  0  0  0  0
  -27.8782  -30.4301   23.9449 H   0  0  0  0  0  0
  -27.2713  -33.3668   26.2017 H   0  0  0  0  0  0
  -28.3894  -32.6825   25.0313 H   0  0  0  0  0  0
  -28.0699  -31.8469   26.5435 H   0  0  0  0  0  0
  -28.2570  -38.0094   24.7556 H   0  0  0  0  0  0
  -28.1099  -36.2629   24.6191 H   0  0  0  0  0  0
  -27.2325  -37.1315   25.8863 H   0  0  0  0  0  0
  -20.9382  -29.8754   21.6857 H   0  0  0  0  0  0
  -26.0141  -38.2837   24.1501 H   0  0  0  0  0  0
  -31.1726  -19.9407   19.0672 H   0  0  0  0  0  0
  -31.3933  -17.5103   19.2827 H   0  0  0  0  0  0
  -27.9353  -19.9383   21.8753 H   0  0  0  0  0  0
  -27.4112  -23.9634   18.3068 H   0  0  0  0  0  0
  -28.5084  -25.2801   18.0185 H   0  0  0  0  0  0
  -29.6992  -21.3117   18.2010 H   0  0  0  0  0  0
  -28.0748  -21.7745   18.6219 H   0  0  0  0  0  0
  -27.0824  -24.6987   20.3493 H   0  0  0  0  0  0
  -28.9457  -24.3086   23.4651 H   0  0  0  0  0  0
  -27.8423  -25.3631   22.6467 H   0  0  0  0  0  0
  -29.5750  -25.6070   22.4588 H   0  0  0  0  0  0
  -29.1073  -21.9919   23.3577 H   0  0  0  0  0  0
  -30.5833  -22.8983   22.9965 H   0  0  0  0  0  0
  -30.4597  -21.2479   22.5187 H   0  0  0  0  0  0
  -27.4311  -17.8899   22.9544 H   0  0  0  0  0  0
  -28.3447  -16.5047   22.7772 H   0  0  0  0  0  0
  -28.9004  -15.4453   21.2557 H   0  0  0  0  0  0
  1 25  1  0  0  0
  1 30  2  0  0  0
  1 87  1  0  0  0
  2  3  1  0  0  0
  2 25  1  0  0  0
  2 89  1  0  0  0
  2 90  1  0  0  0
  3  4  1  0  0  0
  3 91  1  0  0  0
  3 92  1  0  0  0
  4  5  1  0  0  0
  4 93  1  0  0  0
  4 94  1  0  0  0
  5  6  1  0  0  0
  5 26  1  0  0  0
  5 95  1  0  0  0
  6 25  1  0  0  0
  6 96  1  0  0  0
  6 97  1  0  0  0
  7  8  2  0  0  0
  7 26  1  0  0  0
  7 29  1  0  0  0
  8  9  1  0  0  0
  8 22  1  0  0  0
  9 10  1  0  0  0
  9 27  2  0  0  0
 10 11  2  0  0  0
 10 15  1  0  0  0
 11 12  1  0  0  0
 11 98  1  0  0  0
 12 13  2  0  0  0
 12 99  1  0  0  0
 13 14  1  0  0  0
 13 31  1  0  0  0
 14 15  2  0  0  0
 14100  1  0  0  0
 15101  1  0  0  0
 16 17  2  0  0  0
 16 21  1  0  0  0
 16 31  1  0  0  0
 17 18  1  0  0  0
 17102  1  0  0  0
 18 19  2  0  0  0
 18103  1  0  0  0
 19 20  1  0  0  0
 19 24  1  0  0  0
 20 21  2  0  0  0
 20104  1  0  0  0
 21 23  1  0  0  0
 22 28  1  0  0  0
 22 32  2  0  0  0
 26 27  1  0  0  0
 28105  1  0  0  0
 28106  1  0  0  0
 29107  1  0  0  0
 29108  1  0  0  0
 33 34  1  0  0  0
 33 66  1  0  0  0
 33 70  2  0  0  0
 34 36  1  0  0  0
 34 59  1  0  0  0
 34109  1  0  0  0
 35 44  2  0  0  0
 35 45  1  0  0  0
 35 68  1  0  0  0
 36 56  1  0  0  0
 36110  1  0  0  0
 37 39  1  0  0  0
 37 47  1  0  0  0
 37 66  1  0  0  0
 37111  1  0  0  0
 38 43  2  0  0  0
 38 46  1  0  0  0
 38 47  1  0  0  0
 39 64  1  0  0  0
 39 67  2  0  0  0
 40 52  1  0  0  0
 40 53  2  0  0  0
 40 58  1  0  0  0
 41112  1  0  0  0
 41113  1  0  0  0
 41114  1  0  0  0
 41 48  1  0  0  0
 42 43  1  0  0  0
 42 66  1  0  0  0
 42115  1  0  0  0
 42116  1  0  0  0
 43 44  1  0  0  0
 44117  1  0  0  0
 45 46  2  0  0  0
 45118  1  0  0  0
 46119  1  0  0  0
 47120  1  0  0  0
 47121  1  0  0  0
 48 56  1  0  0  0
 48 65  1  0  0  0
 48122  1  0  0  0
 49 50  1  0  0  0
 49 53  1  0  0  0
 49 64  1  0  0  0
 49123  1  0  0  0
 50 51  1  0  0  0
 50124  1  0  0  0
 50125  1  0  0  0
 51 52  1  0  0  0
 51126  1  0  0  0
 51127  1  0  0  0
 52128  1  0  0  0
 52129  1  0  0  0
 53 54  1  0  0  0
 54 55  2  0  0  0
 54130  1  0  0  0
 55 57  1  0  0  0
 55131  1  0  0  0
 56 69  2  0  0  0
 57 58  2  0  0  0
 57132  1  0  0  0
 58133  1  0  0  0
 59 60  1  0  0  0
 59 61  1  0  0  0
 59 62  1  0  0  0
 60134  1  0  0  0
 60135  1  0  0  0
 60136  1  0  0  0
 61137  1  0  0  0
 61138  1  0  0  0
 61139  1  0  0  0
 62140  1  0  0  0
 62141  1  0  0  0
 62142  1  0  0  0
 63 65  1  0  0  0
 63143  1  0  0  0
 63144  1  0  0  0
 63145  1  0  0  0
 64146  1  0  0  0
 65147  1  0  0  0
 68 82  1  0  0  0
 71 72  2  0  0  0
 71 74  1  0  0  0
 71148  1  0  0  0
 72 75  1  0  0  0
 72149  1  0  0  0
 73 74  2  0  0  0
 73 76  1  0  0  0
 73150  1  0  0  0
 74 85  1  0  0  0
 75 76  2  0  0  0
 75 87  1  0  0  0
 76 86  1  0  0  0
 77 78  2  0  0  0
 77 82  1  0  0  0
 77 83  1  0  0  0
 78 84  1  0  0  0
 78 85  1  0  0  0
 79 80  1  0  0  0
 79 81  1  0  0  0
 79 88  2  0  0  0
 80 82  1  0  0  0
 80151  1  0  0  0
 80152  1  0  0  0
 81 85  1  0  0  0
 81153  1  0  0  0
 81154  1  0  0  0
 82155  1  0  0  0
 83156  1  0  0  0
 83157  1  0  0  0
 83158  1  0  0  0
 84159  1  0  0  0
 84160  1  0  0  0
 84161  1  0  0  0
 86162  1  0  0  0
 86163  1  0  0  0
 87164  1  0  0  0
M  ISO  4   1 100  68 101  82 101  87 100
M  END
> <chiral flag>
0

> <version>
0

> <s_m_source_file>
/data/baiqing/PycharmProjects/Reinvent-master-3.2/result/LINK_invent/BTK/process_docking_weight1_custom_product_contain_oxygen_bond_distance_aromatic_linkinvent_7_9_3/rearranged_h_0158.sdf

> <i_m_source_file_index>
1

> <r_mmod_Potential_Energy-OPLS-2005>
92.5937805175781

> <r_mmod_Stretch_Energy-OPLS-2005>
119.295631408691

> <r_mmod_Bend_Energy-OPLS-2005>
190.436569213867

> <r_mmod_Torsional_Energy-OPLS-2005>
247.140274047852

> <r_mmod_Improper_Torsional_Energy-OPLS-2005>
8.02149391174316

> <r_mmod_Van_der_Waal_Energy-OPLS-2005>
168.524810791016

> <r_mmod_Electrostatic_Energy-OPLS-2005>
-492.854522705078

> <r_mmod_Solvation_Energy-OPLS-2005>
-226.233032226562

> <b_mmod_Minimization_Converged-OPLS-2005>
0

> <r_mmod_RMS_Derivative-OPLS-2005>
1.84836566448212

$$$$
1
                    3D
 Structure written by MMmdl.
159168  0  0  1  0            999 V2000
  -30.6583  -14.5588   20.4457 C   0  0  0  0  0  0
  -30.4248  -12.3213   19.4510 C   0  0  0  0  0  0
  -29.5061  -12.4926   18.2198 C   0  0  0  0  0  0
  -28.0216  -12.3617   18.6189 C   0  0  0  0  0  0
  -27.6519  -13.2162   19.8606 C   0  0  2  0  0  0
  -28.6991  -13.0601   20.9847 C   0  0  0  0  0  0
  -25.2572  -13.8172   20.5805 C   0  0  0  0  0  0
  -24.1812  -13.0424   20.9190 C   0  0  0  0  0  0
  -24.6376  -11.6905   20.8699 C   0  0  0  0  0  0
  -23.9059  -10.4286   21.0373 C   0  0  0  0  0  0
  -24.3609   -9.4210   21.9162 C   0  0  0  0  0  0
  -23.6282   -8.2249   22.0743 C   0  0  0  0  0  0
  -22.4265   -8.0280   21.3538 C   0  0  0  0  0  0
  -21.9897   -9.0253   20.4638 C   0  0  0  0  0  0
  -22.7227  -10.2131   20.3032 C   0  0  0  0  0  0
  -21.6854   -6.0733   22.5277 C   0  0  0  0  0  0
  -21.4010   -6.5641   23.8207 C   0  0  0  0  0  0
  -21.3657   -5.6796   24.9173 C   0  0  0  0  0  0
  -21.6035   -4.3057   24.7218 C   0  0  0  0  0  0
  -21.8821   -3.8142   23.4349 C   0  0  0  0  0  0
  -21.9192   -4.6958   22.3407 C   0  0  0  0  0  0
  -22.7831  -13.5218   21.1855 C   0  0  0  0  0  0
  -22.1673   -4.2144   21.0982 F   0  0  0  0  0  0
  -21.5623   -3.4543   25.7738 F   0  0  0  0  0  0
  -30.0314  -13.3463   20.4306 N   0  0  0  0  0  0
  -26.2984  -12.9349   20.3332 N   0  0  0  0  0  0
  -25.9297  -11.6497   20.5693 N   0  0  0  0  0  0
  -22.0462  -12.8226   22.0414 N   0  0  0  0  0  0
  -25.4318  -15.1901   20.4481 N   0  0  0  0  0  0
  -31.8599  -14.6378   20.1763 O   0  0  0  0  0  0
  -21.6630   -6.8873   21.4238 O   0  0  0  0  0  0
  -22.3518  -14.5526   20.6701 O   0  0  0  0  0  0
  -24.6186  -31.8654   23.2059 C   0  0  0  0  0  0
  -25.9064  -32.4805   23.8360 C   0  0  1  0  0  0
  -27.2304  -27.3940   20.1127 C   0  0  0  0  0  0
  -25.5910  -33.8605   24.2304 N   0  0  0  0  0  0
  -23.4086  -30.4874   21.5474 C   0  0  2  0  0  0
  -24.8558  -28.9488   20.1127 C   0  0  0  0  0  0
  -22.7427  -29.4647   22.4970 C   0  0  0  0  0  0
  -18.0278  -28.1376   22.8491 C   0  0  0  0  0  0
  -24.1487  -36.7308   23.2632 C   0  0  0  0  0  0
  -25.9390  -30.8224   21.3610 C   0  0  0  0  0  0
  -26.0187  -29.4528   20.7103 C   0  0  0  0  0  0
  -27.2117  -28.6862   20.6999 C   0  0  0  0  0  0
  -26.0536  -26.9213   19.4934 C   0  0  0  0  0  0
  -24.8717  -27.6859   19.4961 C   0  0  0  0  0  0
  -23.6188  -29.8185   20.1633 C   0  0  0  0  0  0
  -25.4108  -36.3104   24.0333 C   0  0  1  0  0  0
  -20.5868  -28.3672   23.1314 C   0  0  2  0  0  0
  -20.6770  -26.9400   22.5426 C   0  0  0  0  0  0
  -19.5753  -26.6381   21.5215 C   0  0  0  0  0  0
  -18.1930  -26.7919   22.1626 C   0  0  0  0  0  0
  -19.1527  -28.8836   23.2903 C   0  0  0  0  0  0
  -18.9451  -30.1437   23.8916 C   0  0  0  0  0  0
  -17.6453  -30.6583   24.0559 C   0  0  0  0  0  0
  -25.9032  -34.9469   23.5115 C   0  0  0  0  0  0
  -16.5347  -29.9082   23.6313 C   0  0  0  0  0  0
  -16.7264  -28.6497   23.0341 C   0  0  0  0  0  0
  -26.4480  -31.6588   25.0695 C   0  0  0  0  0  0
  -25.3737  -31.3723   26.1445 C   0  0  0  0  0  0
  -27.0282  -30.3020   24.6067 C   0  0  0  0  0  0
  -27.6058  -32.4293   25.7465 C   0  0  0  0  0  0
  -27.5584  -37.1817   24.8462 C   0  0  0  0  0  0
  -21.4147  -29.3044   22.3712 N   0  0  0  0  0  0
  -26.4294  -37.3788   23.9401 N   0  0  0  0  0  0
  -24.6740  -31.0734   22.0964 N   0  0  0  0  0  0
  -23.4175  -28.8178   23.3027 O   0  0  0  0  0  0
  -28.3746  -26.6124   20.1221 O   0  0  0  0  0  0
  -26.5602  -34.8929   22.4679 O   0  0  0  0  0  0
  -23.5372  -32.1415   23.7436 O   0  0  0  0  0  0
  -29.8047  -19.4101   20.2226 C   0  0  0  0  0  0
  -29.5220  -18.0546   19.8005 C   0  0  0  0  0  0
  -28.6211  -18.0037   18.7538 C   0  0  0  0  0  0
  -29.1321  -20.3813   19.4955 C   0  0  0  0  0  0
  -30.2646  -16.8440   20.3095 C   0  0  0  0  0  0
  -28.9324  -22.7015   20.3151 C   0  0  0  0  0  0
  -27.0615  -16.4243   16.0831 C   0  0  0  0  0  0
  -26.6848  -16.6775   17.5425 C   0  0  0  0  0  0
  -28.4850  -16.8862   16.3949 C   0  0  0  0  0  0
  -28.1700  -16.8473   17.8986 C   0  0  0  0  0  0
  -29.0098  -24.1750   19.8092 C   0  0  0  0  0  0
  -28.2367  -25.2547   20.6334 C   0  0  0  0  0  0
  -29.7818  -15.6587   20.4962 N   0  0  0  0  0  0
  -29.2793  -21.7412   19.4296 N   0  0  0  0  0  0
  -28.6022  -22.4464   21.4761 O   0  0  0  0  0  0
  -28.0752  -19.6126   18.3414 S   0  0  0  0  0  0
  -31.4736  -12.3988   19.1573 H   0  0  0  0  0  0
  -30.3102  -11.3256   19.8822 H   0  0  0  0  0  0
  -29.7512  -11.7514   17.4581 H   0  0  0  0  0  0
  -29.6806  -13.4678   17.7613 H   0  0  0  0  0  0
  -27.8256  -11.3090   18.8238 H   0  0  0  0  0  0
  -27.3842  -12.6318   17.7762 H   0  0  0  0  0  0
  -27.6698  -14.2539   19.5370 H   0  0  0  0  0  0
  -28.6775  -12.0479   21.3914 H   0  0  0  0  0  0
  -28.4731  -13.7253   21.8200 H   0  0  0  0  0  0
  -25.2754   -9.5687   22.4737 H   0  0  0  0  0  0
  -23.9978   -7.4652   22.7475 H   0  0  0  0  0  0
  -21.0818   -8.8780   19.8968 H   0  0  0  0  0  0
  -22.3683  -10.9666   19.6139 H   0  0  0  0  0  0
  -21.2005   -7.6146   23.9715 H   0  0  0  0  0  0
  -21.1473   -6.0523   25.9077 H   0  0  0  0  0  0
  -22.0596   -2.7605   23.2857 H   0  0  0  0  0  0
  -22.4081  -11.9907   22.4845 H   0  0  0  0  0  0
  -21.1084  -13.1269   22.2625 H   0  0  0  0  0  0
  -24.6741  -15.8524   20.5700 H   0  0  0  0  0  0
  -26.3124  -15.6304   20.2132 H   0  0  0  0  0  0
  -26.7127  -32.5517   23.1116 H   0  0  0  0  0  0
  -25.0064  -33.9745   25.0458 H   0  0  0  0  0  0
  -22.6997  -31.3058   21.4066 H   0  0  0  0  0  0
  -23.3744  -35.9646   23.3304 H   0  0  0  0  0  0
  -24.3584  -36.8914   22.2045 H   0  0  0  0  0  0
  -23.7244  -37.6518   23.6637 H   0  0  0  0  0  0
  -26.0485  -31.5853   20.5885 H   0  0  0  0  0  0
  -26.8258  -30.8804   21.9797 H   0  0  0  0  0  0
  -28.1097  -29.0698   21.1641 H   0  0  0  0  0  0
  -26.0458  -25.9543   19.0101 H   0  0  0  0  0  0
  -23.9816  -27.2957   19.0226 H   0  0  0  0  0  0
  -23.7274  -30.5926   19.4029 H   0  0  0  0  0  0
  -22.7410  -29.2404   19.8673 H   0  0  0  0  0  0
  -25.1281  -36.1966   25.0825 H   0  0  0  0  0  0
  -20.9967  -28.3240   24.1428 H   0  0  0  0  0  0
  -20.5665  -26.2269   23.3613 H   0  0  0  0  0  0
  -21.6640  -26.7438   22.1220 H   0  0  0  0  0  0
  -19.6921  -25.6290   21.1237 H   0  0  0  0  0  0
  -19.6696  -27.3195   20.6746 H   0  0  0  0  0  0
  -17.4199  -26.6661   21.4034 H   0  0  0  0  0  0
  -18.0340  -26.0055   22.9015 H   0  0  0  0  0  0
  -19.7924  -30.7249   24.2305 H   0  0  0  0  0  0
  -17.5003  -31.6265   24.5156 H   0  0  0  0  0  0
  -15.5344  -30.2994   23.7623 H   0  0  0  0  0  0
  -15.8667  -28.0824   22.7048 H   0  0  0  0  0  0
  -24.5911  -30.7063   25.7799 H   0  0  0  0  0  0
  -24.8924  -32.2881   26.4880 H   0  0  0  0  0  0
  -25.8089  -30.8913   27.0211 H   0  0  0  0  0  0
  -26.2819  -29.6821   24.1079 H   0  0  0  0  0  0
  -27.3998  -29.7229   25.4529 H   0  0  0  0  0  0
  -27.8677  -30.4334   23.9236 H   0  0  0  0  0  0
  -27.2688  -33.3584   26.2084 H   0  0  0  0  0  0
  -28.3858  -32.6874   25.0283 H   0  0  0  0  0  0
  -28.0727  -31.8374   26.5355 H   0  0  0  0  0  0
  -28.2611  -38.0106   24.7494 H   0  0  0  0  0  0
  -28.1071  -36.2638   24.6295 H   0  0  0  0  0  0
  -27.2297  -37.1473   25.8866 H   0  0  0  0  0  0
  -20.9302  -29.8774   21.6944 H   0  0  0  0  0  0
  -26.0186  -38.2866   24.1397 H   0  0  0  0  0  0
  -30.5421  -19.6210   20.9848 H   0  0  0  0  0  0
  -31.3303  -17.0369   20.4730 H   0  0  0  0  0  0
  -26.5312  -17.0587   15.3711 H   0  0  0  0  0  0
  -27.0056  -15.3709   15.8069 H   0  0  0  0  0  0
  -26.2063  -15.8190   18.0092 H   0  0  0  0  0  0
  -26.0925  -17.5825   17.6758 H   0  0  0  0  0  0
  -28.6930  -17.8880   16.0171 H   0  0  0  0  0  0
  -29.2565  -16.1802   16.0849 H   0  0  0  0  0  0
  -28.5464  -15.9022   18.2819 H   0  0  0  0  0  0
  -28.6394  -24.1971   18.7845 H   0  0  0  0  0  0
  -30.0630  -24.4530   19.7608 H   0  0  0  0  0  0
  -28.6289  -25.2656   21.6505 H   0  0  0  0  0  0
  -27.1951  -24.9484   20.7355 H   0  0  0  0  0  0
  -29.4687  -22.0978   18.5021 H   0  0  0  0  0  0
  1 25  1  0  0  0
  1 30  2  0  0  0
  1 83  1  0  0  0
  2  3  1  0  0  0
  2 25  1  0  0  0
  2 87  1  0  0  0
  2 88  1  0  0  0
  3  4  1  0  0  0
  3 89  1  0  0  0
  3 90  1  0  0  0
  4  5  1  0  0  0
  4 91  1  0  0  0
  4 92  1  0  0  0
  5  6  1  0  0  0
  5 26  1  0  0  0
  5 93  1  0  0  0
  6 25  1  0  0  0
  6 94  1  0  0  0
  6 95  1  0  0  0
  7  8  2  0  0  0
  7 26  1  0  0  0
  7 29  1  0  0  0
  8  9  1  0  0  0
  8 22  1  0  0  0
  9 10  1  0  0  0
  9 27  2  0  0  0
 10 11  2  0  0  0
 10 15  1  0  0  0
 11 12  1  0  0  0
 11 96  1  0  0  0
 12 13  2  0  0  0
 12 97  1  0  0  0
 13 14  1  0  0  0
 13 31  1  0  0  0
 14 15  2  0  0  0
 14 98  1  0  0  0
 15 99  1  0  0  0
 16 17  2  0  0  0
 16 21  1  0  0  0
 16 31  1  0  0  0
 17 18  1  0  0  0
 17100  1  0  0  0
 18 19  2  0  0  0
 18101  1  0  0  0
 19 20  1  0  0  0
 19 24  1  0  0  0
 20 21  2  0  0  0
 20102  1  0  0  0
 21 23  1  0  0  0
 22 28  1  0  0  0
 22 32  2  0  0  0
 26 27  1  0  0  0
 28103  1  0  0  0
 28104  1  0  0  0
 29105  1  0  0  0
 29106  1  0  0  0
 33 34  1  0  0  0
 33 66  1  0  0  0
 33 70  2  0  0  0
 34 36  1  0  0  0
 34 59  1  0  0  0
 34107  1  0  0  0
 35 44  2  0  0  0
 35 45  1  0  0  0
 35 68  1  0  0  0
 36 56  1  0  0  0
 36108  1  0  0  0
 37 39  1  0  0  0
 37 47  1  0  0  0
 37 66  1  0  0  0
 37109  1  0  0  0
 38 43  2  0  0  0
 38 46  1  0  0  0
 38 47  1  0  0  0
 39 64  1  0  0  0
 39 67  2  0  0  0
 40 52  1  0  0  0
 40 53  2  0  0  0
 40 58  1  0  0  0
 41110  1  0  0  0
 41111  1  0  0  0
 41112  1  0  0  0
 41 48  1  0  0  0
 42 43  1  0  0  0
 42 66  1  0  0  0
 42113  1  0  0  0
 42114  1  0  0  0
 43 44  1  0  0  0
 44115  1  0  0  0
 45 46  2  0  0  0
 45116  1  0  0  0
 46117  1  0  0  0
 47118  1  0  0  0
 47119  1  0  0  0
 48 56  1  0  0  0
 48 65  1  0  0  0
 48120  1  0  0  0
 49 50  1  0  0  0
 49 53  1  0  0  0
 49 64  1  0  0  0
 49121  1  0  0  0
 50 51  1  0  0  0
 50122  1  0  0  0
 50123  1  0  0  0
 51 52  1  0  0  0
 51124  1  0  0  0
 51125  1  0  0  0
 52126  1  0  0  0
 52127  1  0  0  0
 53 54  1  0  0  0
 54 55  2  0  0  0
 54128  1  0  0  0
 55 57  1  0  0  0
 55129  1  0  0  0
 56 69  2  0  0  0
 57 58  2  0  0  0
 57130  1  0  0  0
 58131  1  0  0  0
 59 60  1  0  0  0
 59 61  1  0  0  0
 59 62  1  0  0  0
 60132  1  0  0  0
 60133  1  0  0  0
 60134  1  0  0  0
 61135  1  0  0  0
 61136  1  0  0  0
 61137  1  0  0  0
 62138  1  0  0  0
 62139  1  0  0  0
 62140  1  0  0  0
 63 65  1  0  0  0
 63141  1  0  0  0
 63142  1  0  0  0
 63143  1  0  0  0
 64144  1  0  0  0
 65145  1  0  0  0
 68 82  1  0  0  0
 71 72  1  0  0  0
 71 74  2  0  0  0
 71146  1  0  0  0
 72 73  2  0  0  0
 72 75  1  0  0  0
 73 86  1  0  0  0
 73 80  1  0  0  0
 74 84  1  0  0  0
 74 86  1  0  0  0
 75 83  2  0  0  0
 75147  1  0  0  0
 76 81  1  0  0  0
 76 84  1  0  0  0
 76 85  2  0  0  0
 77 78  1  0  0  0
 77 79  1  0  0  0
 77148  1  0  0  0
 77149  1  0  0  0
 78 80  1  0  0  0
 78150  1  0  0  0
 78151  1  0  0  0
 79 80  1  0  0  0
 79152  1  0  0  0
 79153  1  0  0  0
 80154  1  0  0  0
 81 82  1  0  0  0
 81155  1  0  0  0
 81156  1  0  0  0
 82157  1  0  0  0
 82158  1  0  0  0
 84159  1  0  0  0
M  ISO  4   1 100  68 101  82 101  83 100
M  END
> <chiral flag>
0

> <version>
0

> <s_m_source_file>
/data/baiqing/PycharmProjects/Reinvent-master-3.2/result/LINK_invent/BTK/process_docking_weight1_custom_product_contain_oxygen_bond_distance_aromatic_linkinvent_7_9_3/rearranged_h_0158.sdf

> <i_m_source_file_index>
2

> <r_mmod_Potential_Energy-OPLS-2005>
-9.26406192779541

> <r_mmod_Stretch_Energy-OPLS-2005>
48.8735160827637

> <r_mmod_Bend_Energy-OPLS-2005>
122.622665405273

> <r_mmod_Torsional_Energy-OPLS-2005>
254.653930664062

> <r_mmod_Improper_Torsional_Energy-OPLS-2005>
9.90027141571045

> <r_mmod_Van_der_Waal_Energy-OPLS-2005>
124.418159484863

> <r_mmod_Electrostatic_Energy-OPLS-2005>
-393.605529785156

> <r_mmod_Solvation_Energy-OPLS-2005>
-204.672897338867

> <b_mmod_Minimization_Converged-OPLS-2005>
0

> <r_mmod_RMS_Derivative-OPLS-2005>
1.98806190490723

$$$$
2
                    3D
 Structure written by MMmdl.
158166  0  0  1  0            999 V2000
  -30.6622  -14.6368   20.4671 C   0  0  0  0  0  0
  -30.4223  -12.3841   19.4664 C   0  0  0  0  0  0
  -29.5052  -12.5003   18.2301 C   0  0  0  0  0  0
  -28.0284  -12.3448   18.6400 C   0  0  0  0  0  0
  -27.6490  -13.2272   19.8600 C   0  0  2  0  0  0
  -28.6929  -13.1211   20.9948 C   0  0  0  0  0  0
  -25.2541  -13.8194   20.5698 C   0  0  0  0  0  0
  -24.1818  -13.0444   20.9193 C   0  0  0  0  0  0
  -24.6402  -11.6920   20.8742 C   0  0  0  0  0  0
  -23.9074  -10.4296   21.0406 C   0  0  0  0  0  0
  -24.3627   -9.4211   21.9185 C   0  0  0  0  0  0
  -23.6301   -8.2247   22.0754 C   0  0  0  0  0  0
  -22.4282   -8.0284   21.3547 C   0  0  0  0  0  0
  -21.9919   -9.0256   20.4647 C   0  0  0  0  0  0
  -22.7246  -10.2137   20.3056 C   0  0  0  0  0  0
  -21.6854   -6.0740   22.5276 C   0  0  0  0  0  0
  -21.4015   -6.5644   23.8211 C   0  0  0  0  0  0
  -21.3659   -5.6797   24.9174 C   0  0  0  0  0  0
  -21.6042   -4.3059   24.7221 C   0  0  0  0  0  0
  -21.8818   -3.8150   23.4342 C   0  0  0  0  0  0
  -21.9195   -4.6970   22.3401 C   0  0  0  0  0  0
  -22.7839  -13.5232   21.1852 C   0  0  0  0  0  0
  -22.1664   -4.2157   21.0979 F   0  0  0  0  0  0
  -21.5630   -3.4541   25.7734 F   0  0  0  0  0  0
  -30.0090  -13.4328   20.4227 N   0  0  0  0  0  0
  -26.2974  -12.9398   20.3320 N   0  0  0  0  0  0
  -25.9336  -11.6541   20.5769 N   0  0  0  0  0  0
  -22.0488  -12.8214   22.0407 N   0  0  0  0  0  0
  -25.4247  -15.1917   20.4114 N   0  0  0  0  0  0
  -31.8466  -14.7145   20.1321 O   0  0  0  0  0  0
  -21.6644   -6.8882   21.4239 O   0  0  0  0  0  0
  -22.3526  -14.5544   20.6712 O   0  0  0  0  0  0
  -24.6273  -31.8605   23.2047 C   0  0  0  0  0  0
  -25.9125  -32.4782   23.8364 C   0  0  1  0  0  0
  -27.2146  -27.3163   20.1144 C   0  0  0  0  0  0
  -25.5945  -33.8584   24.2296 N   0  0  0  0  0  0
  -23.4199  -30.4878   21.5470 C   0  0  2  0  0  0
  -24.8645  -28.9500   20.1067 C   0  0  0  0  0  0
  -22.7477  -29.4635   22.4925 C   0  0  0  0  0  0
  -18.0285  -28.1386   22.8479 C   0  0  0  0  0  0
  -24.1489  -36.7294   23.2636 C   0  0  0  0  0  0
  -25.9630  -30.7907   21.3767 C   0  0  0  0  0  0
  -26.0347  -29.4208   20.7147 C   0  0  0  0  0  0
  -27.2135  -28.6162   20.7096 C   0  0  0  0  0  0
  -26.0239  -26.9139   19.4625 C   0  0  0  0  0  0
  -24.8617  -27.7026   19.4700 C   0  0  0  0  0  0
  -23.6336  -29.8297   20.1598 C   0  0  0  0  0  0
  -25.4114  -36.3086   24.0332 C   0  0  1  0  0  0
  -20.5890  -28.3696   23.1274 C   0  0  2  0  0  0
  -20.6779  -26.9417   22.5404 C   0  0  0  0  0  0
  -19.5757  -26.6384   21.5207 C   0  0  0  0  0  0
  -18.1935  -26.7931   22.1614 C   0  0  0  0  0  0
  -19.1538  -28.8853   23.2877 C   0  0  0  0  0  0
  -18.9461  -30.1454   23.8896 C   0  0  0  0  0  0
  -17.6462  -30.6590   24.0564 C   0  0  0  0  0  0
  -25.9052  -34.9456   23.5109 C   0  0  0  0  0  0
  -16.5353  -29.9088   23.6333 C   0  0  0  0  0  0
  -16.7271  -28.6507   23.0348 C   0  0  0  0  0  0
  -26.4503  -31.6584   25.0729 C   0  0  0  0  0  0
  -25.3739  -31.3728   26.1460 C   0  0  0  0  0  0
  -27.0327  -30.2999   24.6184 C   0  0  0  0  0  0
  -27.6071  -32.4307   25.7497 C   0  0  0  0  0  0
  -27.5582  -37.1804   24.8464 C   0  0  0  0  0  0
  -21.4189  -29.3054   22.3668 N   0  0  0  0  0  0
  -26.4290  -37.3783   23.9412 N   0  0  0  0  0  0
  -24.6891  -31.0626   22.0997 N   0  0  0  0  0  0
  -23.4200  -28.8165   23.2995 O   0  0  0  0  0  0
  -28.3151  -26.4416   20.1936 O   0  0  0  0  0  0
  -26.5608  -34.8922   22.4667 O   0  0  0  0  0  0
  -23.5440  -32.1395   23.7386 O   0  0  0  0  0  0
  -31.1910  -18.6741   18.5973 C   0  0  0  0  0  0
  -30.9608  -17.3766   19.0984 C   0  0  0  0  0  0
  -30.6213  -19.8026   19.2169 C   0  0  0  0  0  0
  -29.5645  -18.3154   20.8502 C   0  0  0  0  0  0
  -30.1602  -17.1467   20.2470 C   0  0  0  0  0  0
  -29.7976  -19.6475   20.3459 C   0  0  0  0  0  0
  -27.2228  -24.6763   21.5290 C   0  0  0  0  0  0
  -28.1470  -22.2828   18.7479 C   0  0  0  0  0  0
  -29.2957  -23.9766   20.2453 C   0  0  0  0  0  0
  -28.0528  -24.9750   20.2645 C   0  0  2  0  0  0
  -29.9231  -15.7711   20.7186 N   0  0  0  0  0  0
  -29.0110  -22.5043   19.9182 N   0  0  0  0  0  0
  -27.6849  -20.8998   21.4939 O   0  0  0  0  0  0
  -30.0180  -21.6290   22.1603 O   0  0  0  0  0  0
  -29.0795  -21.1826   21.1184 S   0  0  0  0  0  0
  -31.4681  -12.4751   19.1683 H   0  0  0  0  0  0
  -30.3298  -11.3979   19.9238 H   0  0  0  0  0  0
  -29.7704  -11.7439   17.4904 H   0  0  0  0  0  0
  -29.6541  -13.4673   17.7467 H   0  0  0  0  0  0
  -27.8645  -11.2938   18.8792 H   0  0  0  0  0  0
  -27.3761  -12.5697   17.7954 H   0  0  0  0  0  0
  -27.6582  -14.2575   19.5035 H   0  0  0  0  0  0
  -28.6975  -12.1184   21.4251 H   0  0  0  0  0  0
  -28.4464  -13.8011   21.8115 H   0  0  0  0  0  0
  -25.2776   -9.5690   22.4757 H   0  0  0  0  0  0
  -24.0015   -7.4639   22.7473 H   0  0  0  0  0  0
  -21.0852   -8.8767   19.8952 H   0  0  0  0  0  0
  -22.3702  -10.9674   19.6163 H   0  0  0  0  0  0
  -21.2002   -7.6152   23.9714 H   0  0  0  0  0  0
  -21.1485   -6.0529   25.9077 H   0  0  0  0  0  0
  -22.0599   -2.7613   23.2835 H   0  0  0  0  0  0
  -22.4121  -11.9878   22.4785 H   0  0  0  0  0  0
  -21.1105  -13.1229   22.2615 H   0  0  0  0  0  0
  -24.6563  -15.8451   20.5163 H   0  0  0  0  0  0
  -26.2723  -15.6297   20.0734 H   0  0  0  0  0  0
  -26.7188  -32.5446   23.1107 H   0  0  0  0  0  0
  -25.0113  -33.9725   25.0455 H   0  0  0  0  0  0
  -22.7142  -31.3095   21.4072 H   0  0  0  0  0  0
  -23.3756  -35.9621   23.3294 H   0  0  0  0  0  0
  -24.3585  -36.8915   22.2051 H   0  0  0  0  0  0
  -23.7236  -37.6496   23.6654 H   0  0  0  0  0  0
  -26.0959  -31.5562   20.6110 H   0  0  0  0  0  0
  -26.8443  -30.8352   22.0052 H   0  0  0  0  0  0
  -28.1078  -28.9693   21.2036 H   0  0  0  0  0  0
  -25.9449  -25.9699   18.9489 H   0  0  0  0  0  0
  -23.9677  -27.3401   18.9812 H   0  0  0  0  0  0
  -23.7541  -30.6105   19.4081 H   0  0  0  0  0  0
  -22.7525  -29.2620   19.8543 H   0  0  0  0  0  0
  -25.1295  -36.1932   25.0824 H   0  0  0  0  0  0
  -20.9981  -28.3268   24.1394 H   0  0  0  0  0  0
  -20.5675  -26.2307   23.3607 H   0  0  0  0  0  0
  -21.6648  -26.7447   22.1197 H   0  0  0  0  0  0
  -19.6926  -25.6294   21.1242 H   0  0  0  0  0  0
  -19.6703  -27.3192   20.6737 H   0  0  0  0  0  0
  -17.4208  -26.6672   21.4015 H   0  0  0  0  0  0
  -18.0339  -26.0069   22.9008 H   0  0  0  0  0  0
  -19.7939  -30.7268   24.2264 H   0  0  0  0  0  0
  -17.5020  -31.6271   24.5165 H   0  0  0  0  0  0
  -15.5356  -30.2991   23.7667 H   0  0  0  0  0  0
  -15.8667  -28.0833   22.7061 H   0  0  0  0  0  0
  -24.5924  -30.7059   25.7805 H   0  0  0  0  0  0
  -24.8919  -32.2891   26.4874 H   0  0  0  0  0  0
  -25.8069  -30.8923   27.0241 H   0  0  0  0  0  0
  -26.2888  -29.6758   24.1216 H   0  0  0  0  0  0
  -27.4019  -29.7248   25.4687 H   0  0  0  0  0  0
  -27.8768  -30.4274   23.9404 H   0  0  0  0  0  0
  -27.2700  -33.3624   26.2051 H   0  0  0  0  0  0
  -28.3897  -32.6831   25.0330 H   0  0  0  0  0  0
  -28.0713  -31.8434   26.5429 H   0  0  0  0  0  0
  -28.2598  -38.0104   24.7516 H   0  0  0  0  0  0
  -28.1076  -36.2635   24.6276 H   0  0  0  0  0  0
  -27.2301  -37.1442   25.8867 H   0  0  0  0  0  0
  -20.9359  -29.8781   21.6888 H   0  0  0  0  0  0
  -26.0170  -38.2855   24.1419 H   0  0  0  0  0  0
  -31.8125  -18.8026   17.7221 H   0  0  0  0  0  0
  -31.4124  -16.5553   18.5611 H   0  0  0  0  0  0
  -30.8155  -20.7913   18.8267 H   0  0  0  0  0  0
  -28.9312  -18.2080   21.7181 H   0  0  0  0  0  0
  -27.0064  -23.6117   21.6147 H   0  0  0  0  0  0
  -26.2633  -25.1904   21.5341 H   0  0  0  0  0  0
  -27.7622  -24.9760   22.4275 H   0  0  0  0  0  0
  -27.0970  -22.3923   19.0219 H   0  0  0  0  0  0
  -28.2837  -21.2751   18.3549 H   0  0  0  0  0  0
  -28.3822  -22.9861   17.9479 H   0  0  0  0  0  0
  -29.8389  -24.0417   21.1884 H   0  0  0  0  0  0
  -29.9943  -24.3407   19.4918 H   0  0  0  0  0  0
  -27.4740  -24.7126   19.3848 H   0  0  0  0  0  0
  -29.0303  -15.6033   21.1579 H   0  0  0  0  0  0
  1 25  1  0  0  0
  1 30  2  0  0  0
  1 81  1  0  0  0
  2  3  1  0  0  0
  2 25  1  0  0  0
  2 86  1  0  0  0
  2 87  1  0  0  0
  3  4  1  0  0  0
  3 88  1  0  0  0
  3 89  1  0  0  0
  4  5  1  0  0  0
  4 90  1  0  0  0
  4 91  1  0  0  0
  5  6  1  0  0  0
  5 26  1  0  0  0
  5 92  1  0  0  0
  6 25  1  0  0  0
  6 93  1  0  0  0
  6 94  1  0  0  0
  7  8  2  0  0  0
  7 26  1  0  0  0
  7 29  1  0  0  0
  8  9  1  0  0  0
  8 22  1  0  0  0
  9 10  1  0  0  0
  9 27  2  0  0  0
 10 11  2  0  0  0
 10 15  1  0  0  0
 11 12  1  0  0  0
 11 95  1  0  0  0
 12 13  2  0  0  0
 12 96  1  0  0  0
 13 14  1  0  0  0
 13 31  1  0  0  0
 14 15  2  0  0  0
 14 97  1  0  0  0
 15 98  1  0  0  0
 16 17  2  0  0  0
 16 21  1  0  0  0
 16 31  1  0  0  0
 17 18  1  0  0  0
 17 99  1  0  0  0
 18 19  2  0  0  0
 18100  1  0  0  0
 19 20  1  0  0  0
 19 24  1  0  0  0
 20 21  2  0  0  0
 20101  1  0  0  0
 21 23  1  0  0  0
 22 28  1  0  0  0
 22 32  2  0  0  0
 26 27  1  0  0  0
 28102  1  0  0  0
 28103  1  0  0  0
 29104  1  0  0  0
 29105  1  0  0  0
 33 34  1  0  0  0
 33 66  1  0  0  0
 33 70  2  0  0  0
 34 36  1  0  0  0
 34 59  1  0  0  0
 34106  1  0  0  0
 35 44  2  0  0  0
 35 45  1  0  0  0
 35 68  1  0  0  0
 36 56  1  0  0  0
 36107  1  0  0  0
 37 39  1  0  0  0
 37 47  1  0  0  0
 37 66  1  0  0  0
 37108  1  0  0  0
 38 43  2  0  0  0
 38 46  1  0  0  0
 38 47  1  0  0  0
 39 64  1  0  0  0
 39 67  2  0  0  0
 40 52  1  0  0  0
 40 53  2  0  0  0
 40 58  1  0  0  0
 41109  1  0  0  0
 41110  1  0  0  0
 41111  1  0  0  0
 41 48  1  0  0  0
 42 43  1  0  0  0
 42 66  1  0  0  0
 42112  1  0  0  0
 42113  1  0  0  0
 43 44  1  0  0  0
 44114  1  0  0  0
 45 46  2  0  0  0
 45115  1  0  0  0
 46116  1  0  0  0
 47117  1  0  0  0
 47118  1  0  0  0
 48 56  1  0  0  0
 48 65  1  0  0  0
 48119  1  0  0  0
 49 50  1  0  0  0
 49 53  1  0  0  0
 49 64  1  0  0  0
 49120  1  0  0  0
 50 51  1  0  0  0
 50121  1  0  0  0
 50122  1  0  0  0
 51 52  1  0  0  0
 51123  1  0  0  0
 51124  1  0  0  0
 52125  1  0  0  0
 52126  1  0  0  0
 53 54  1  0  0  0
 54 55  2  0  0  0
 54127  1  0  0  0
 55 57  1  0  0  0
 55128  1  0  0  0
 56 69  2  0  0  0
 57 58  2  0  0  0
 57129  1  0  0  0
 58130  1  0  0  0
 59 60  1  0  0  0
 59 61  1  0  0  0
 59 62  1  0  0  0
 60131  1  0  0  0
 60132  1  0  0  0
 60133  1  0  0  0
 61134  1  0  0  0
 61135  1  0  0  0
 61136  1  0  0  0
 62137  1  0  0  0
 62138  1  0  0  0
 62139  1  0  0  0
 63 65  1  0  0  0
 63140  1  0  0  0
 63141  1  0  0  0
 63142  1  0  0  0
 64143  1  0  0  0
 65144  1  0  0  0
 68 80  1  0  0  0
 71 72  2  0  0  0
 71 73  1  0  0  0
 71145  1  0  0  0
 72 75  1  0  0  0
 72146  1  0  0  0
 73 76  2  0  0  0
 73147  1  0  0  0
 74 75  2  0  0  0
 74 76  1  0  0  0
 74148  1  0  0  0
 75 81  1  0  0  0
 76 85  1  0  0  0
 77149  1  0  0  0
 77150  1  0  0  0
 77151  1  0  0  0
 77 80  1  0  0  0
 78 82  1  0  0  0
 78152  1  0  0  0
 78153  1  0  0  0
 78154  1  0  0  0
 79 80  1  0  0  0
 79 82  1  0  0  0
 79155  1  0  0  0
 79156  1  0  0  0
 80157  1  0  0  0
 81158  1  0  0  0
 82 85  1  0  0  0
 83 85  2  0  0  0
 84 85  2  0  0  0
M  ISO  4   1 100  68 101  80 101  81 100
M  END
> <chiral flag>
0

> <version>
0

> <s_m_source_file>
/data/baiqing/PycharmProjects/Reinvent-master-3.2/result/LINK_invent/BTK/process_docking_weight1_custom_product_contain_oxygen_bond_distance_aromatic_linkinvent_7_9_3/rearranged_h_0158.sdf

> <i_m_source_file_index>
3

> <r_mmod_Potential_Energy-OPLS-2005>
-37.1568336486816

> <r_mmod_Stretch_Energy-OPLS-2005>
89.7339935302734

> <r_mmod_Bend_Energy-OPLS-2005>
134.110809326172

> <r_mmod_Torsional_Energy-OPLS-2005>
214.240997314453

> <r_mmod_Improper_Torsional_Energy-OPLS-2005>
5.8431282043457

> <r_mmod_Van_der_Waal_Energy-OPLS-2005>
143.521133422852

> <r_mmod_Electrostatic_Energy-OPLS-2005>
-433.301788330078

> <r_mmod_Solvation_Energy-OPLS-2005>
-244.812637329102

> <b_mmod_Minimization_Converged-OPLS-2005>
0

> <r_mmod_RMS_Derivative-OPLS-2005>
0.798445761203766

$$$$
3
                    3D
 Structure written by MMmdl.
162171  0  0  1  0            999 V2000
  -30.6066  -14.7286   20.4679 C   0  0  0  0  0  0
  -30.4376  -12.4544   19.4537 C   0  0  0  0  0  0
  -29.5018  -12.4895   18.2235 C   0  0  0  0  0  0
  -28.0312  -12.3098   18.6479 C   0  0  0  0  0  0
  -27.6413  -13.2195   19.8446 C   0  0  2  0  0  0
  -28.6893  -13.1403   20.9749 C   0  0  0  0  0  0
  -25.2526  -13.8179   20.5687 C   0  0  0  0  0  0
  -24.1808  -13.0428   20.9204 C   0  0  0  0  0  0
  -24.6398  -11.6901   20.8753 C   0  0  0  0  0  0
  -23.9088  -10.4276   21.0408 C   0  0  0  0  0  0
  -24.3647   -9.4182   21.9165 C   0  0  0  0  0  0
  -23.6308   -8.2232   22.0760 C   0  0  0  0  0  0
  -22.4289   -8.0285   21.3550 C   0  0  0  0  0  0
  -21.9922   -9.0255   20.4647 C   0  0  0  0  0  0
  -22.7273  -10.2116   20.3039 C   0  0  0  0  0  0
  -21.6845   -6.0739   22.5282 C   0  0  0  0  0  0
  -21.3993   -6.5637   23.8209 C   0  0  0  0  0  0
  -21.3658   -5.6782   24.9167 C   0  0  0  0  0  0
  -21.6039   -4.3051   24.7201 C   0  0  0  0  0  0
  -21.8841   -3.8154   23.4330 C   0  0  0  0  0  0
  -21.9184   -4.6969   22.3390 C   0  0  0  0  0  0
  -22.7828  -13.5209   21.1841 C   0  0  0  0  0  0
  -22.1661   -4.2170   21.0961 F   0  0  0  0  0  0
  -21.5625   -3.4531   25.7706 F   0  0  0  0  0  0
  -29.9858  -13.5039   20.3930 N   0  0  0  0  0  0
  -26.2926  -12.9363   20.3247 N   0  0  0  0  0  0
  -25.9314  -11.6523   20.5752 N   0  0  0  0  0  0
  -22.0475  -12.8205   22.0408 N   0  0  0  0  0  0
  -25.4159  -15.1913   20.4091 N   0  0  0  0  0  0
  -31.7953  -14.8315   20.1499 O   0  0  0  0  0  0
  -21.6653   -6.8892   21.4250 O   0  0  0  0  0  0
  -22.3503  -14.5508   20.6683 O   0  0  0  0  0  0
  -24.6257  -31.8501   23.1979 C   0  0  0  0  0  0
  -25.9078  -32.4719   23.8330 C   0  0  1  0  0  0
  -27.2433  -27.2751   20.1198 C   0  0  0  0  0  0
  -25.5914  -33.8529   24.2219 N   0  0  0  0  0  0
  -23.4290  -30.4704   21.5326 C   0  0  2  0  0  0
  -24.8913  -28.9252   20.1114 C   0  0  0  0  0  0
  -22.7503  -29.4532   22.4819 C   0  0  0  0  0  0
  -18.0271  -28.1335   22.8454 C   0  0  0  0  0  0
  -24.1514  -36.7267   23.2643 C   0  0  0  0  0  0
  -25.9793  -30.7676   21.3867 C   0  0  0  0  0  0
  -26.0575  -29.3957   20.7209 C   0  0  0  0  0  0
  -27.2356  -28.5827   20.7158 C   0  0  0  0  0  0
  -26.0511  -26.8746   19.4793 C   0  0  0  0  0  0
  -24.8893  -27.6702   19.4831 C   0  0  0  0  0  0
  -23.6607  -29.8046   20.1512 C   0  0  0  0  0  0
  -25.4139  -36.3031   24.0292 C   0  0  1  0  0  0
  -20.5863  -28.3616   23.1193 C   0  0  2  0  0  0
  -20.6750  -26.9310   22.5374 C   0  0  0  0  0  0
  -19.5711  -26.6279   21.5190 C   0  0  0  0  0  0
  -18.1901  -26.7907   22.1551 C   0  0  0  0  0  0
  -19.1540  -28.8800   23.2813 C   0  0  0  0  0  0
  -18.9473  -30.1394   23.8852 C   0  0  0  0  0  0
  -17.6489  -30.6546   24.0559 C   0  0  0  0  0  0
  -25.9052  -34.9418   23.5039 C   0  0  0  0  0  0
  -16.5378  -29.9059   23.6321 C   0  0  0  0  0  0
  -16.7275  -28.6469   23.0346 C   0  0  0  0  0  0
  -26.4529  -31.6551   25.0684 C   0  0  0  0  0  0
  -25.3772  -31.3682   26.1390 C   0  0  0  0  0  0
  -27.0418  -30.2964   24.6218 C   0  0  0  0  0  0
  -27.6052  -32.4328   25.7459 C   0  0  0  0  0  0
  -27.5576  -37.1798   24.8464 C   0  0  0  0  0  0
  -21.4182  -29.2974   22.3588 N   0  0  0  0  0  0
  -26.4315  -37.3718   23.9376 N   0  0  0  0  0  0
  -24.6958  -31.0514   22.0924 N   0  0  0  0  0  0
  -23.4235  -28.8081   23.2912 O   0  0  0  0  0  0
  -28.3655  -26.4099   20.2145 O   0  0  0  0  0  0
  -26.5630  -34.8892   22.4610 O   0  0  0  0  0  0
  -23.5411  -32.1265   23.7290 O   0  0  0  0  0  0
  -31.6406  -19.0323   21.6072 C   0  0  0  0  0  0
  -30.6780  -20.0417   21.3959 C   0  0  0  0  0  0
  -31.3768  -17.6888   21.2914 C   0  0  0  0  0  0
  -29.1863  -18.3753   20.5042 C   0  0  0  0  0  0
  -29.4319  -19.7997   20.7770 C   0  0  0  0  0  0
  -30.1208  -17.2922   20.7845 C   0  0  0  0  0  0
  -27.9491  -23.5150   20.2845 C   0  0  0  0  0  0
  -28.7789  -22.3677   20.3136 C   0  0  0  0  0  0
  -26.0089  -21.0841   20.3910 C   0  0  0  0  0  0
  -26.4016  -23.5513   20.4737 C   0  0  0  0  0  0
  -25.6164  -22.3764   21.0500 C   0  0  0  0  0  0
  -27.1971  -20.4301   21.0450 C   0  0  0  0  0  0
  -30.2273  -22.6122   19.8863 C   0  0  0  0  0  0
  -28.4313  -24.9685   19.7467 C   0  0  0  0  0  0
  -28.5019  -20.9308   20.5761 N   0  0  0  0  0  0
  -29.8005  -15.8462   20.6607 N   0  0  0  0  0  0
  -25.4385  -20.6250   19.3960 O   0  0  0  0  0  0
  -31.4710  -12.6008   19.1317 H   0  0  0  0  0  0
  -30.4120  -11.4752   19.9341 H   0  0  0  0  0  0
  -29.7846  -11.7058   17.5193 H   0  0  0  0  0  0
  -29.6163  -13.4333   17.6892 H   0  0  0  0  0  0
  -27.8992  -11.2618   18.9248 H   0  0  0  0  0  0
  -27.3652  -12.4815   17.8004 H   0  0  0  0  0  0
  -27.6401  -14.2397   19.4585 H   0  0  0  0  0  0
  -28.7378  -12.1324   21.3894 H   0  0  0  0  0  0
  -28.4221  -13.7947   21.8072 H   0  0  0  0  0  0
  -25.2807   -9.5642   22.4706 H   0  0  0  0  0  0
  -24.0026   -7.4612   22.7484 H   0  0  0  0  0  0
  -21.0855   -8.8759   19.8946 H   0  0  0  0  0  0
  -22.3760  -10.9631   19.6119 H   0  0  0  0  0  0
  -21.1998   -7.6148   23.9710 H   0  0  0  0  0  0
  -21.1455   -6.0516   25.9069 H   0  0  0  0  0  0
  -22.0635   -2.7626   23.2808 H   0  0  0  0  0  0
  -22.4137  -11.9904   22.4843 H   0  0  0  0  0  0
  -21.1038  -13.1134   22.2539 H   0  0  0  0  0  0
  -24.6346  -15.8302   20.5220 H   0  0  0  0  0  0
  -26.2488  -15.6435   20.0580 H   0  0  0  0  0  0
  -26.7090  -32.5410   23.1049 H   0  0  0  0  0  0
  -25.0102  -33.9680   25.0394 H   0  0  0  0  0  0
  -22.7197  -31.2872   21.3796 H   0  0  0  0  0  0
  -23.3750  -35.9631   23.3320 H   0  0  0  0  0  0
  -24.3574  -36.8895   22.2064 H   0  0  0  0  0  0
  -23.7356  -37.6488   23.6680 H   0  0  0  0  0  0
  -26.1327  -31.5371   20.6301 H   0  0  0  0  0  0
  -26.8444  -30.8030   22.0366 H   0  0  0  0  0  0
  -28.1324  -28.9358   21.2050 H   0  0  0  0  0  0
  -25.9729  -25.9212   18.9841 H   0  0  0  0  0  0
  -23.9922  -27.3071   19.0026 H   0  0  0  0  0  0
  -23.8044  -30.5783   19.3979 H   0  0  0  0  0  0
  -22.7881  -29.2327   19.8327 H   0  0  0  0  0  0
  -25.1366  -36.1837   25.0784 H   0  0  0  0  0  0
  -20.9992  -28.3276   24.1299 H   0  0  0  0  0  0
  -20.5604  -26.2208   23.3592 H   0  0  0  0  0  0
  -21.6627  -26.7275   22.1189 H   0  0  0  0  0  0
  -19.6766  -25.6140   21.1245 H   0  0  0  0  0  0
  -19.6678  -27.3034   20.6699 H   0  0  0  0  0  0
  -17.4190  -26.6739   21.3926 H   0  0  0  0  0  0
  -18.0229  -26.0010   22.8876 H   0  0  0  0  0  0
  -19.7966  -30.7195   24.2208 H   0  0  0  0  0  0
  -17.5056  -31.6217   24.5168 H   0  0  0  0  0  0
  -15.5401  -30.2976   23.7633 H   0  0  0  0  0  0
  -15.8640  -28.0825   22.7043 H   0  0  0  0  0  0
  -24.5927  -30.7064   25.7689 H   0  0  0  0  0  0
  -24.9011  -32.2866   26.4838 H   0  0  0  0  0  0
  -25.8084  -30.8817   27.0144 H   0  0  0  0  0  0
  -26.3009  -29.6602   24.1347 H   0  0  0  0  0  0
  -27.4198  -29.7317   25.4756 H   0  0  0  0  0  0
  -27.8849  -30.4195   23.9402 H   0  0  0  0  0  0
  -27.2604  -33.3606   26.2031 H   0  0  0  0  0  0
  -28.3872  -32.6916   25.0307 H   0  0  0  0  0  0
  -28.0709  -31.8474   26.5400 H   0  0  0  0  0  0
  -28.2592  -38.0088   24.7439 H   0  0  0  0  0  0
  -28.1061  -36.2604   24.6380 H   0  0  0  0  0  0
  -27.2240  -37.1560   25.8849 H   0  0  0  0  0  0
  -20.9292  -29.8791   21.6908 H   0  0  0  0  0  0
  -26.0155  -38.2763   24.1378 H   0  0  0  0  0  0
  -32.5933  -19.2992   22.0427 H   0  0  0  0  0  0
  -30.9271  -21.0279   21.7449 H   0  0  0  0  0  0
  -32.1450  -16.9576   21.4954 H   0  0  0  0  0  0
  -28.2491  -18.0658   20.0656 H   0  0  0  0  0  0
  -25.9862  -23.7371   19.4852 H   0  0  0  0  0  0
  -26.1166  -24.4120   21.0799 H   0  0  0  0  0  0
  -25.7736  -22.3003   22.1253 H   0  0  0  0  0  0
  -24.5475  -22.5310   20.9123 H   0  0  0  0  0  0
  -27.0271  -19.3655   20.9131 H   0  0  0  0  0  0
  -27.1303  -20.5972   22.1207 H   0  0  0  0  0  0
  -30.8383  -22.9113   20.7389 H   0  0  0  0  0  0
  -30.3328  -23.3997   19.1414 H   0  0  0  0  0  0
  -30.6714  -21.7361   19.4225 H   0  0  0  0  0  0
  -28.0066  -25.1141   20.7318 H   0  0  0  0  0  0
  -27.8396  -25.0165   18.8355 H   0  0  0  0  0  0
  -28.8235  -15.6182   20.7704 H   0  0  0  0  0  0
  1 25  1  0  0  0
  1 30  2  0  0  0
  1 86  1  0  0  0
  2  3  1  0  0  0
  2 25  1  0  0  0
  2 88  1  0  0  0
  2 89  1  0  0  0
  3  4  1  0  0  0
  3 90  1  0  0  0
  3 91  1  0  0  0
  4  5  1  0  0  0
  4 92  1  0  0  0
  4 93  1  0  0  0
  5  6  1  0  0  0
  5 26  1  0  0  0
  5 94  1  0  0  0
  6 25  1  0  0  0
  6 95  1  0  0  0
  6 96  1  0  0  0
  7  8  2  0  0  0
  7 26  1  0  0  0
  7 29  1  0  0  0
  8  9  1  0  0  0
  8 22  1  0  0  0
  9 10  1  0  0  0
  9 27  2  0  0  0
 10 11  2  0  0  0
 10 15  1  0  0  0
 11 12  1  0  0  0
 11 97  1  0  0  0
 12 13  2  0  0  0
 12 98  1  0  0  0
 13 14  1  0  0  0
 13 31  1  0  0  0
 14 15  2  0  0  0
 14 99  1  0  0  0
 15100  1  0  0  0
 16 17  2  0  0  0
 16 21  1  0  0  0
 16 31  1  0  0  0
 17 18  1  0  0  0
 17101  1  0  0  0
 18 19  2  0  0  0
 18102  1  0  0  0
 19 20  1  0  0  0
 19 24  1  0  0  0
 20 21  2  0  0  0
 20103  1  0  0  0
 21 23  1  0  0  0
 22 28  1  0  0  0
 22 32  2  0  0  0
 26 27  1  0  0  0
 28104  1  0  0  0
 28105  1  0  0  0
 29106  1  0  0  0
 29107  1  0  0  0
 33 34  1  0  0  0
 33 66  1  0  0  0
 33 70  2  0  0  0
 34 36  1  0  0  0
 34 59  1  0  0  0
 34108  1  0  0  0
 35 44  2  0  0  0
 35 45  1  0  0  0
 35 68  1  0  0  0
 36 56  1  0  0  0
 36109  1  0  0  0
 37 39  1  0  0  0
 37 47  1  0  0  0
 37 66  1  0  0  0
 37110  1  0  0  0
 38 43  2  0  0  0
 38 46  1  0  0  0
 38 47  1  0  0  0
 39 64  1  0  0  0
 39 67  2  0  0  0
 40 52  1  0  0  0
 40 53  2  0  0  0
 40 58  1  0  0  0
 41111  1  0  0  0
 41112  1  0  0  0
 41113  1  0  0  0
 41 48  1  0  0  0
 42 43  1  0  0  0
 42 66  1  0  0  0
 42114  1  0  0  0
 42115  1  0  0  0
 43 44  1  0  0  0
 44116  1  0  0  0
 45 46  2  0  0  0
 45117  1  0  0  0
 46118  1  0  0  0
 47119  1  0  0  0
 47120  1  0  0  0
 48 56  1  0  0  0
 48 65  1  0  0  0
 48121  1  0  0  0
 49 50  1  0  0  0
 49 53  1  0  0  0
 49 64  1  0  0  0
 49122  1  0  0  0
 50 51  1  0  0  0
 50123  1  0  0  0
 50124  1  0  0  0
 51 52  1  0  0  0
 51125  1  0  0  0
 51126  1  0  0  0
 52127  1  0  0  0
 52128  1  0  0  0
 53 54  1  0  0  0
 54 55  2  0  0  0
 54129  1  0  0  0
 55 57  1  0  0  0
 55130  1  0  0  0
 56 69  2  0  0  0
 57 58  2  0  0  0
 57131  1  0  0  0
 58132  1  0  0  0
 59 60  1  0  0  0
 59 61  1  0  0  0
 59 62  1  0  0  0
 60133  1  0  0  0
 60134  1  0  0  0
 60135  1  0  0  0
 61136  1  0  0  0
 61137  1  0  0  0
 61138  1  0  0  0
 62139  1  0  0  0
 62140  1  0  0  0
 62141  1  0  0  0
 63 65  1  0  0  0
 63142  1  0  0  0
 63143  1  0  0  0
 63144  1  0  0  0
 64145  1  0  0  0
 65146  1  0  0  0
 68 84  1  0  0  0
 71 72  2  0  0  0
 71 73  1  0  0  0
 71147  1  0  0  0
 72 75  1  0  0  0
 72148  1  0  0  0
 73 76  2  0  0  0
 73149  1  0  0  0
 74 75  2  0  0  0
 74 76  1  0  0  0
 74150  1  0  0  0
 75 85  1  0  0  0
 76 86  1  0  0  0
 77 78  2  0  0  0
 77 80  1  0  0  0
 77 84  1  0  0  0
 78 83  1  0  0  0
 78 85  1  0  0  0
 79 81  1  0  0  0
 79 82  1  0  0  0
 79 87  2  0  0  0
 80 81  1  0  0  0
 80151  1  0  0  0
 80152  1  0  0  0
 81153  1  0  0  0
 81154  1  0  0  0
 82 85  1  0  0  0
 82155  1  0  0  0
 82156  1  0  0  0
 83157  1  0  0  0
 83158  1  0  0  0
 83159  1  0  0  0
 84160  1  0  0  0
 84161  1  0  0  0
 86162  1  0  0  0
M  ISO  4   1 100  68 101  84 101  86 100
M  END
> <chiral flag>
0

> <version>
0

> <s_m_source_file>
/data/baiqing/PycharmProjects/Reinvent-master-3.2/result/LINK_invent/BTK/process_docking_weight1_custom_product_contain_oxygen_bond_distance_aromatic_linkinvent_7_9_3/rearranged_h_0158.sdf

> <i_m_source_file_index>
4

> <r_mmod_Potential_Energy-OPLS-2005>
531.7939453125

> <r_mmod_Stretch_Energy-OPLS-2005>
164.052291870117

> <r_mmod_Bend_Energy-OPLS-2005>
434.125061035156

> <r_mmod_Torsional_Energy-OPLS-2005>
223.161468505859

> <r_mmod_Improper_Torsional_Energy-OPLS-2005>
7.46631479263306

> <r_mmod_Van_der_Waal_Energy-OPLS-2005>
183.384826660156

> <r_mmod_Electrostatic_Energy-OPLS-2005>
-336.423919677734

> <r_mmod_Solvation_Energy-OPLS-2005>
-222.387145996094

> <b_mmod_Minimization_Converged-OPLS-2005>
0

> <r_mmod_RMS_Derivative-OPLS-2005>
6.64473581314087

$$$$
4
                    3D
 Structure written by MMmdl.
157165  0  0  1  0            999 V2000
  -30.6871  -14.4750   20.5368 C   0  0  0  0  0  0
  -30.4165  -12.2910   19.4357 C   0  0  0  0  0  0
  -29.4958  -12.4861   18.2115 C   0  0  0  0  0  0
  -28.0131  -12.3605   18.6188 C   0  0  0  0  0  0
  -27.6597  -13.2089   19.8718 C   0  0  2  0  0  0
  -28.6983  -12.9863   20.9927 C   0  0  0  0  0  0
  -25.2578  -13.8155   20.5660 C   0  0  0  0  0  0
  -24.1841  -13.0435   20.9160 C   0  0  0  0  0  0
  -24.6418  -11.6892   20.8765 C   0  0  0  0  0  0
  -23.9117  -10.4273   21.0435 C   0  0  0  0  0  0
  -24.3653   -9.4172   21.9205 C   0  0  0  0  0  0
  -23.6303   -8.2228   22.0765 C   0  0  0  0  0  0
  -22.4285   -8.0303   21.3564 C   0  0  0  0  0  0
  -21.9942   -9.0279   20.4663 C   0  0  0  0  0  0
  -22.7296  -10.2136   20.3074 C   0  0  0  0  0  0
  -21.6836   -6.0757   22.5278 C   0  0  0  0  0  0
  -21.4000   -6.5653   23.8216 C   0  0  0  0  0  0
  -21.3658   -5.6803   24.9171 C   0  0  0  0  0  0
  -21.6039   -4.3070   24.7206 C   0  0  0  0  0  0
  -21.8821   -3.8167   23.4329 C   0  0  0  0  0  0
  -21.9178   -4.6985   22.3387 C   0  0  0  0  0  0
  -22.7860  -13.5215   21.1808 C   0  0  0  0  0  0
  -22.1656   -4.2186   21.0964 F   0  0  0  0  0  0
  -21.5630   -3.4548   25.7719 F   0  0  0  0  0  0
  -30.0310  -13.2864   20.4454 N   0  0  0  0  0  0
  -26.3016  -12.9333   20.3348 N   0  0  0  0  0  0
  -25.9335  -11.6507   20.5779 N   0  0  0  0  0  0
  -22.0521  -12.8239   22.0396 N   0  0  0  0  0  0
  -25.4331  -15.1862   20.4049 N   0  0  0  0  0  0
  -31.8272  -14.6322   20.0843 O   0  0  0  0  0  0
  -21.6630   -6.8917   21.4255 O   0  0  0  0  0  0
  -22.3551  -14.5529   20.6654 O   0  0  0  0  0  0
  -24.6155  -31.8667   23.2105 C   0  0  0  0  0  0
  -25.9068  -32.4790   23.8378 C   0  0  1  0  0  0
  -27.2291  -27.4576   20.0852 C   0  0  0  0  0  0
  -25.5923  -33.8584   24.2311 N   0  0  0  0  0  0
  -23.3989  -30.4914   21.5528 C   0  0  2  0  0  0
  -24.8420  -28.9605   20.1146 C   0  0  0  0  0  0
  -22.7400  -29.4640   22.5013 C   0  0  0  0  0  0
  -18.0258  -28.1376   22.8481 C   0  0  0  0  0  0
  -24.1487  -36.7326   23.2634 C   0  0  0  0  0  0
  -25.9256  -30.8412   21.3578 C   0  0  0  0  0  0
  -26.0023  -29.4785   20.7050 C   0  0  0  0  0  0
  -27.2036  -28.7365   20.6807 C   0  0  0  0  0  0
  -26.0531  -26.9433   19.5004 C   0  0  0  0  0  0
  -24.8602  -27.6920   19.5086 C   0  0  0  0  0  0
  -23.6020  -29.8233   20.1669 C   0  0  0  0  0  0
  -25.4108  -36.3087   24.0321 C   0  0  1  0  0  0
  -20.5839  -28.3648   23.1334 C   0  0  2  0  0  0
  -20.6747  -26.9386   22.5424 C   0  0  0  0  0  0
  -19.5735  -26.6384   21.5210 C   0  0  0  0  0  0
  -18.1910  -26.7915   22.1621 C   0  0  0  0  0  0
  -19.1499  -28.8834   23.2899 C   0  0  0  0  0  0
  -18.9435  -30.1441   23.8902 C   0  0  0  0  0  0
  -17.6438  -30.6579   24.0565 C   0  0  0  0  0  0
  -25.9046  -34.9447   23.5121 C   0  0  0  0  0  0
  -16.5333  -29.9084   23.6323 C   0  0  0  0  0  0
  -16.7245  -28.6507   23.0335 C   0  0  0  0  0  0
  -26.4517  -31.6563   25.0700 C   0  0  0  0  0  0
  -25.3754  -31.3689   26.1422 C   0  0  0  0  0  0
  -27.0372  -30.2992   24.6107 C   0  0  0  0  0  0
  -27.6100  -32.4273   25.7473 C   0  0  0  0  0  0
  -27.5568  -37.1814   24.8453 C   0  0  0  0  0  0
  -21.4132  -29.3021   22.3766 N   0  0  0  0  0  0
  -26.4286  -37.3777   23.9404 N   0  0  0  0  0  0
  -24.6646  -31.0783   22.0995 N   0  0  0  0  0  0
  -23.4174  -28.8165   23.3041 O   0  0  0  0  0  0
  -28.3917  -26.7253   20.0631 O   0  0  0  0  0  0
  -26.5603  -34.8916   22.4680 O   0  0  0  0  0  0
  -23.5362  -32.1416   23.7528 O   0  0  0  0  0  0
  -29.8016  -19.1863   21.5069 C   0  0  0  0  0  0
  -29.6665  -17.7987   21.7307 C   0  0  0  0  0  0
  -30.3889  -19.6512   20.3091 C   0  0  0  0  0  0
  -30.1132  -16.8809   20.7576 C   0  0  0  0  0  0
  -30.7585  -18.6597   19.3672 C   0  0  0  0  0  0
  -30.6815  -21.0952   20.1496 C   0  0  0  0  0  0
  -28.7593  -24.2872   19.9092 C   0  0  0  0  0  0
  -29.9707  -23.5101   20.4095 C   0  0  0  0  0  0
  -28.3238  -25.4758   20.7630 C   0  0  0  0  0  0
  -30.6181  -17.3374   19.5833 N   0  0  0  0  0  0
  -28.1456  -23.9682   18.8449 N   0  0  0  0  0  0
  -31.3473  -18.9604   18.1456 N   0  0  0  0  0  0
  -29.9746  -15.4941   21.0554 N   0  0  0  0  0  0
  -29.7404  -22.0486   20.3490 N   0  0  0  0  0  0
  -31.9373  -21.4673   19.8440 N   0  3  0  0  0  0
  -31.4664  -12.3657   19.1464 H   0  0  0  0  0  0
  -30.2943  -11.2877   19.8483 H   0  0  0  0  0  0
  -29.7348  -11.7452   17.4473 H   0  0  0  0  0  0
  -29.6705  -13.4637   17.7576 H   0  0  0  0  0  0
  -27.8178  -11.3056   18.8178 H   0  0  0  0  0  0
  -27.3631  -12.6299   17.7850 H   0  0  0  0  0  0
  -27.7084  -14.2556   19.5738 H   0  0  0  0  0  0
  -28.6678  -11.9447   21.3150 H   0  0  0  0  0  0
  -28.4635  -13.5724   21.8828 H   0  0  0  0  0  0
  -25.2808   -9.5599   22.4767 H   0  0  0  0  0  0
  -23.9995   -7.4596   22.7463 H   0  0  0  0  0  0
  -21.0878   -8.8802   19.8964 H   0  0  0  0  0  0
  -22.3785  -10.9670   19.6165 H   0  0  0  0  0  0
  -21.2011   -7.6168   23.9727 H   0  0  0  0  0  0
  -21.1478   -6.0537   25.9077 H   0  0  0  0  0  0
  -22.0610   -2.7643   23.2798 H   0  0  0  0  0  0
  -22.4189  -11.9899   22.4742 H   0  0  0  0  0  0
  -21.1138  -13.1246   22.2632 H   0  0  0  0  0  0
  -24.6710  -15.8446   20.5225 H   0  0  0  0  0  0
  -26.2878  -15.6195   20.0776 H   0  0  0  0  0  0
  -26.7141  -32.5505   23.1150 H   0  0  0  0  0  0
  -25.0028  -33.9737   25.0425 H   0  0  0  0  0  0
  -22.6873  -31.3080   21.4190 H   0  0  0  0  0  0
  -23.3700  -35.9702   23.3299 H   0  0  0  0  0  0
  -24.3581  -36.8943   22.2042 H   0  0  0  0  0  0
  -23.7296  -37.6562   23.6660 H   0  0  0  0  0  0
  -26.0305  -31.6072   20.5877 H   0  0  0  0  0  0
  -26.8181  -30.8936   21.9700 H   0  0  0  0  0  0
  -28.1032  -29.1360   21.1262 H   0  0  0  0  0  0
  -26.0590  -25.9659   19.0366 H   0  0  0  0  0  0
  -23.9679  -27.2877   19.0481 H   0  0  0  0  0  0
  -23.7009  -30.5975   19.4058 H   0  0  0  0  0  0
  -22.7281  -29.2376   19.8762 H   0  0  0  0  0  0
  -25.1284  -36.1937   25.0811 H   0  0  0  0  0  0
  -20.9917  -28.3194   24.1460 H   0  0  0  0  0  0
  -20.5636  -26.2251   23.3601 H   0  0  0  0  0  0
  -21.6622  -26.7427   22.1230 H   0  0  0  0  0  0
  -19.6896  -25.6303   21.1220 H   0  0  0  0  0  0
  -19.6678  -27.3209   20.6751 H   0  0  0  0  0  0
  -17.4184  -26.6640   21.4025 H   0  0  0  0  0  0
  -18.0315  -26.0060   22.9023 H   0  0  0  0  0  0
  -19.7918  -30.7252   24.2262 H   0  0  0  0  0  0
  -17.5006  -31.6251   24.5172 H   0  0  0  0  0  0
  -15.5339  -30.2999   23.7655 H   0  0  0  0  0  0
  -15.8641  -28.0853   22.7034 H   0  0  0  0  0  0
  -24.5904  -30.7084   25.7731 H   0  0  0  0  0  0
  -24.8971  -32.2856   26.4874 H   0  0  0  0  0  0
  -25.8041  -30.8816   27.0181 H   0  0  0  0  0  0
  -26.2944  -29.6701   24.1178 H   0  0  0  0  0  0
  -27.4161  -29.7277   25.4604 H   0  0  0  0  0  0
  -27.8769  -30.4307   23.9265 H   0  0  0  0  0  0
  -27.2718  -33.3540   26.2133 H   0  0  0  0  0  0
  -28.3878  -32.6875   25.0270 H   0  0  0  0  0  0
  -28.0816  -31.8325   26.5317 H   0  0  0  0  0  0
  -28.2589  -38.0108   24.7478 H   0  0  0  0  0  0
  -28.1056  -36.2630   24.6294 H   0  0  0  0  0  0
  -27.2278  -37.1485   25.8857 H   0  0  0  0  0  0
  -20.9286  -29.8774   21.7016 H   0  0  0  0  0  0
  -26.0142  -38.2852   24.1402 H   0  0  0  0  0  0
  -29.5043  -19.8822   22.2768 H   0  0  0  0  0  0
  -29.2586  -17.4578   22.6715 H   0  0  0  0  0  0
  -30.1928  -23.7799   21.4418 H   0  0  0  0  0  0
  -30.8320  -23.7965   19.8096 H   0  0  0  0  0  0
  -28.9656  -25.5664   21.6390 H   0  0  0  0  0  0
  -27.3263  -25.2660   21.1523 H   0  0  0  0  0  0
  -28.5696  -23.1684   18.3905 H   0  0  0  0  0  0
  -31.4224  -18.2075   17.4715 H   0  0  0  0  0  0
  -31.1817  -19.8667   17.7225 H   0  0  0  0  0  0
  -29.1615  -15.2376   21.5896 H   0  0  0  0  0  0
  -28.7755  -21.7726   20.4819 H   0  0  0  0  0  0
  -32.6203  -20.7530   19.6301 H   0  0  0  0  0  0
  -32.2604  -22.4222   19.8226 H   0  0  0  0  0  0
  1 25  1  0  0  0
  1 30  2  0  0  0
  1 83  1  0  0  0
  2  3  1  0  0  0
  2 25  1  0  0  0
  2 86  1  0  0  0
  2 87  1  0  0  0
  3  4  1  0  0  0
  3 88  1  0  0  0
  3 89  1  0  0  0
  4  5  1  0  0  0
  4 90  1  0  0  0
  4 91  1  0  0  0
  5  6  1  0  0  0
  5 26  1  0  0  0
  5 92  1  0  0  0
  6 25  1  0  0  0
  6 93  1  0  0  0
  6 94  1  0  0  0
  7  8  2  0  0  0
  7 26  1  0  0  0
  7 29  1  0  0  0
  8  9  1  0  0  0
  8 22  1  0  0  0
  9 10  1  0  0  0
  9 27  2  0  0  0
 10 11  2  0  0  0
 10 15  1  0  0  0
 11 12  1  0  0  0
 11 95  1  0  0  0
 12 13  2  0  0  0
 12 96  1  0  0  0
 13 14  1  0  0  0
 13 31  1  0  0  0
 14 15  2  0  0  0
 14 97  1  0  0  0
 15 98  1  0  0  0
 16 17  2  0  0  0
 16 21  1  0  0  0
 16 31  1  0  0  0
 17 18  1  0  0  0
 17 99  1  0  0  0
 18 19  2  0  0  0
 18100  1  0  0  0
 19 20  1  0  0  0
 19 24  1  0  0  0
 20 21  2  0  0  0
 20101  1  0  0  0
 21 23  1  0  0  0
 22 28  1  0  0  0
 22 32  2  0  0  0
 26 27  1  0  0  0
 28102  1  0  0  0
 28103  1  0  0  0
 29104  1  0  0  0
 29105  1  0  0  0
 33 34  1  0  0  0
 33 66  1  0  0  0
 33 70  2  0  0  0
 34 36  1  0  0  0
 34 59  1  0  0  0
 34106  1  0  0  0
 35 44  2  0  0  0
 35 45  1  0  0  0
 35 68  1  0  0  0
 36 56  1  0  0  0
 36107  1  0  0  0
 37 39  1  0  0  0
 37 47  1  0  0  0
 37 66  1  0  0  0
 37108  1  0  0  0
 38 43  2  0  0  0
 38 46  1  0  0  0
 38 47  1  0  0  0
 39 64  1  0  0  0
 39 67  2  0  0  0
 40 52  1  0  0  0
 40 53  2  0  0  0
 40 58  1  0  0  0
 41109  1  0  0  0
 41110  1  0  0  0
 41111  1  0  0  0
 41 48  1  0  0  0
 42 43  1  0  0  0
 42 66  1  0  0  0
 42112  1  0  0  0
 42113  1  0  0  0
 43 44  1  0  0  0
 44114  1  0  0  0
 45 46  2  0  0  0
 45115  1  0  0  0
 46116  1  0  0  0
 47117  1  0  0  0
 47118  1  0  0  0
 48 56  1  0  0  0
 48 65  1  0  0  0
 48119  1  0  0  0
 49 50  1  0  0  0
 49 53  1  0  0  0
 49 64  1  0  0  0
 49120  1  0  0  0
 50 51  1  0  0  0
 50121  1  0  0  0
 50122  1  0  0  0
 51 52  1  0  0  0
 51123  1  0  0  0
 51124  1  0  0  0
 52125  1  0  0  0
 52126  1  0  0  0
 53 54  1  0  0  0
 54 55  2  0  0  0
 54127  1  0  0  0
 55 57  1  0  0  0
 55128  1  0  0  0
 56 69  2  0  0  0
 57 58  2  0  0  0
 57129  1  0  0  0
 58130  1  0  0  0
 59 60  1  0  0  0
 59 61  1  0  0  0
 59 62  1  0  0  0
 60131  1  0  0  0
 60132  1  0  0  0
 60133  1  0  0  0
 61134  1  0  0  0
 61135  1  0  0  0
 61136  1  0  0  0
 62137  1  0  0  0
 62138  1  0  0  0
 62139  1  0  0  0
 63 65  1  0  0  0
 63140  1  0  0  0
 63141  1  0  0  0
 63142  1  0  0  0
 64143  1  0  0  0
 65144  1  0  0  0
 68 79  1  0  0  0
 71 72  2  0  0  0
 71 73  1  0  0  0
 71145  1  0  0  0
 72 74  1  0  0  0
 72146  1  0  0  0
 73 75  2  0  0  0
 73 76  1  0  0  0
 74 80  2  0  0  0
 74 83  1  0  0  0
 75 80  1  0  0  0
 75 82  1  0  0  0
 76 84  1  0  0  0
 76 85  2  0  0  0
 77 78  1  0  0  0
 77 79  1  0  0  0
 77 81  2  0  0  0
 78 84  1  0  0  0
 78147  1  0  0  0
 78148  1  0  0  0
 79149  1  0  0  0
 79150  1  0  0  0
 81151  1  0  0  0
 82152  1  0  0  0
 82153  1  0  0  0
 83154  1  0  0  0
 84155  1  0  0  0
 85156  1  0  0  0
 85157  1  0  0  0
M  CHG  1  85   1
M  ISO  4   1 100  68 101  79 101  83 100
M  END
> <chiral flag>
0

> <version>
0

> <s_m_source_file>
/data/baiqing/PycharmProjects/Reinvent-master-3.2/result/LINK_invent/BTK/process_docking_weight1_custom_product_contain_oxygen_bond_distance_aromatic_linkinvent_7_9_3/rearranged_h_0158.sdf

> <i_m_source_file_index>
5

> <r_mmod_Potential_Energy-OPLS-2005>
-281.076263427734

> <r_mmod_Stretch_Energy-OPLS-2005>
35.7228889465332

> <r_mmod_Bend_Energy-OPLS-2005>
99.5608749389648

> <r_mmod_Torsional_Energy-OPLS-2005>
243.164413452148

> <r_mmod_Improper_Torsional_Energy-OPLS-2005>
6.65029573440552

> <r_mmod_Van_der_Waal_Energy-OPLS-2005>
158.552886962891

> <r_mmod_Electrostatic_Energy-OPLS-2005>
-320.15380859375

> <r_mmod_Solvation_Energy-OPLS-2005>
-516.885925292969

> <b_mmod_Minimization_Converged-OPLS-2005>
0

> <r_mmod_RMS_Derivative-OPLS-2005>
4.01521873474121

$$$$
5
                    3D
 Structure written by MMmdl.
161169  0  0  1  0            999 V2000
  -30.5924  -14.7586   20.4609 C   0  0  0  0  0  0
  -30.4396  -12.4602   19.4820 C   0  0  0  0  0  0
  -29.5177  -12.5183   18.2425 C   0  0  0  0  0  0
  -28.0426  -12.3384   18.6511 C   0  0  0  0  0  0
  -27.6471  -13.2320   19.8571 C   0  0  2  0  0  0
  -28.6898  -13.1522   20.9947 C   0  0  0  0  0  0
  -25.2528  -13.8201   20.5693 C   0  0  0  0  0  0
  -24.1814  -13.0446   20.9200 C   0  0  0  0  0  0
  -24.6406  -11.6926   20.8746 C   0  0  0  0  0  0
  -23.9080  -10.4300   21.0407 C   0  0  0  0  0  0
  -24.3629   -9.4215   21.9183 C   0  0  0  0  0  0
  -23.6303   -8.2249   22.0751 C   0  0  0  0  0  0
  -22.4286   -8.0286   21.3542 C   0  0  0  0  0  0
  -21.9924   -9.0263   20.4644 C   0  0  0  0  0  0
  -22.7253  -10.2140   20.3055 C   0  0  0  0  0  0
  -21.6855   -6.0743   22.5283 C   0  0  0  0  0  0
  -21.4014   -6.5644   23.8219 C   0  0  0  0  0  0
  -21.3662   -5.6793   24.9177 C   0  0  0  0  0  0
  -21.6047   -4.3055   24.7226 C   0  0  0  0  0  0
  -21.8816   -3.8151   23.4345 C   0  0  0  0  0  0
  -21.9189   -4.6970   22.3403 C   0  0  0  0  0  0
  -22.7832  -13.5229   21.1861 C   0  0  0  0  0  0
  -22.1656   -4.2156   21.0980 F   0  0  0  0  0  0
  -21.5631   -3.4538   25.7736 F   0  0  0  0  0  0
  -29.9948  -13.5149   20.4253 N   0  0  0  0  0  0
  -26.2963  -12.9410   20.3294 N   0  0  0  0  0  0
  -25.9337  -11.6550   20.5752 N   0  0  0  0  0  0
  -22.0464  -12.8229   22.0416 N   0  0  0  0  0  0
  -25.4220  -15.1926   20.4124 N   0  0  0  0  0  0
  -31.7623  -14.8819   20.0824 O   0  0  0  0  0  0
  -21.6642   -6.8890   21.4246 O   0  0  0  0  0  0
  -22.3516  -14.5532   20.6698 O   0  0  0  0  0  0
  -24.6333  -31.8538   23.1977 C   0  0  0  0  0  0
  -25.9152  -32.4745   23.8326 C   0  0  1  0  0  0
  -27.2148  -27.2339   20.1280 C   0  0  0  0  0  0
  -25.5945  -33.8548   24.2248 N   0  0  0  0  0  0
  -23.4314  -30.4776   21.5408 C   0  0  2  0  0  0
  -24.8794  -28.9261   20.1059 C   0  0  0  0  0  0
  -22.7512  -29.4595   22.4887 C   0  0  0  0  0  0
  -18.0297  -28.1383   22.8481 C   0  0  0  0  0  0
  -24.1492  -36.7279   23.2640 C   0  0  0  0  0  0
  -25.9809  -30.7555   21.3862 C   0  0  0  0  0  0
  -26.0510  -29.3770   20.7265 C   0  0  0  0  0  0
  -27.2179  -28.5411   20.7327 C   0  0  0  0  0  0
  -26.0258  -26.8772   19.4485 C   0  0  0  0  0  0
  -24.8737  -27.6851   19.4561 C   0  0  0  0  0  0
  -23.6517  -29.8155   20.1559 C   0  0  0  0  0  0
  -25.4120  -36.3064   24.0323 C   0  0  1  0  0  0
  -20.5901  -28.3700   23.1255 C   0  0  2  0  0  0
  -20.6783  -26.9414   22.5402 C   0  0  0  0  0  0
  -19.5761  -26.6378   21.5206 C   0  0  0  0  0  0
  -18.1942  -26.7925   22.1618 C   0  0  0  0  0  0
  -19.1549  -28.8856   23.2865 C   0  0  0  0  0  0
  -18.9470  -30.1455   23.8889 C   0  0  0  0  0  0
  -17.6471  -30.6586   24.0557 C   0  0  0  0  0  0
  -25.9061  -34.9435   23.5087 C   0  0  0  0  0  0
  -16.5361  -29.9082   23.6331 C   0  0  0  0  0  0
  -16.7283  -28.6498   23.0358 C   0  0  0  0  0  0
  -26.4508  -31.6579   25.0727 C   0  0  0  0  0  0
  -25.3720  -31.3739   26.1440 C   0  0  0  0  0  0
  -27.0361  -30.2989   24.6244 C   0  0  0  0  0  0
  -27.6056  -32.4325   25.7505 C   0  0  0  0  0  0
  -27.5578  -37.1799   24.8466 C   0  0  0  0  0  0
  -21.4213  -29.3048   22.3639 N   0  0  0  0  0  0
  -26.4294  -37.3765   23.9404 N   0  0  0  0  0  0
  -24.7008  -31.0476   22.0973 N   0  0  0  0  0  0
  -23.4202  -28.8132   23.2993 O   0  0  0  0  0  0
  -28.2901  -26.3055   20.2224 O   0  0  0  0  0  0
  -26.5633  -34.8912   22.4657 O   0  0  0  0  0  0
  -23.5475  -32.1381   23.7250 O   0  0  0  0  0  0
  -30.7052  -17.9161   19.4534 C   0  0  0  0  0  0
  -29.3258  -18.3940   21.1426 C   0  0  0  0  0  0
  -29.9491  -17.3189   20.5045 C   0  0  0  0  0  0
  -30.5697  -19.2924   19.5143 C   0  0  0  0  0  0
  -31.1780  -20.3158   18.6949 C   0  0  0  0  0  0
  -28.7658  -22.2799   20.2821 C   0  0  0  0  0  0
  -28.8251  -23.6466   20.6088 C   0  0  0  0  0  0
  -27.9903  -21.7986   19.0672 C   0  0  0  0  0  0
  -29.5995  -24.1504   21.8154 C   0  0  0  0  0  0
  -29.3946  -21.0570   21.1104 C   0  0  0  0  0  0
  -28.0832  -24.8476   19.8517 C   0  0  0  0  0  0
  -29.7100  -19.6465   20.5683 N   0  0  0  0  0  0
  -31.1432  -20.1876   17.3679 N   0  0  0  0  0  0
  -29.8120  -15.8616   20.7953 N   0  0  0  0  0  0
  -31.8114  -21.3587   19.2396 N   0  3  0  0  0  0
  -31.4807  -12.5886   19.1812 H   0  0  0  0  0  0
  -30.3874  -11.4788   19.9562 H   0  0  0  0  0  0
  -29.8043  -11.7512   17.5221 H   0  0  0  0  0  0
  -29.6427  -13.4765   17.7355 H   0  0  0  0  0  0
  -27.8979  -11.2882   18.9066 H   0  0  0  0  0  0
  -27.3875  -12.5360   17.8018 H   0  0  0  0  0  0
  -27.6460  -14.2572   19.4851 H   0  0  0  0  0  0
  -28.7242  -12.1478   21.4193 H   0  0  0  0  0  0
  -28.4189  -13.8173   21.8157 H   0  0  0  0  0  0
  -25.2772   -9.5689   22.4759 H   0  0  0  0  0  0
  -24.0009   -7.4641   22.7473 H   0  0  0  0  0  0
  -21.0851   -8.8792   19.8953 H   0  0  0  0  0  0
  -22.3717  -10.9680   19.6167 H   0  0  0  0  0  0
  -21.2009   -7.6151   23.9730 H   0  0  0  0  0  0
  -21.1488   -6.0518   25.9083 H   0  0  0  0  0  0
  -22.0591   -2.7612   23.2842 H   0  0  0  0  0  0
  -22.4072  -11.9901   22.4831 H   0  0  0  0  0  0
  -21.1078  -13.1256   22.2602 H   0  0  0  0  0  0
  -24.6542  -15.8452   20.5273 H   0  0  0  0  0  0
  -26.2709  -15.6349   20.0825 H   0  0  0  0  0  0
  -26.7215  -32.5385   23.1058 H   0  0  0  0  0  0
  -25.0089  -33.9683   25.0391 H   0  0  0  0  0  0
  -22.7297  -31.3016   21.3946 H   0  0  0  0  0  0
  -23.3754  -35.9611   23.3302 H   0  0  0  0  0  0
  -24.3582  -36.8902   22.2054 H   0  0  0  0  0  0
  -23.7245  -37.6478   23.6667 H   0  0  0  0  0  0
  -26.1272  -31.5157   20.6176 H   0  0  0  0  0  0
  -26.8559  -30.8016   22.0227 H   0  0  0  0  0  0
  -28.1072  -28.8746   21.2488 H   0  0  0  0  0  0
  -25.9428  -25.9477   18.9072 H   0  0  0  0  0  0
  -23.9818  -27.3422   18.9497 H   0  0  0  0  0  0
  -23.7784  -30.5939   19.4026 H   0  0  0  0  0  0
  -22.7696  -29.2512   19.8478 H   0  0  0  0  0  0
  -25.1301  -36.1907   25.0816 H   0  0  0  0  0  0
  -20.9996  -28.3282   24.1375 H   0  0  0  0  0  0
  -20.5674  -26.2312   23.3610 H   0  0  0  0  0  0
  -21.6652  -26.7433   22.1203 H   0  0  0  0  0  0
  -19.6924  -25.6284   21.1250 H   0  0  0  0  0  0
  -19.6701  -27.3173   20.6724 H   0  0  0  0  0  0
  -17.4209  -26.6664   21.4025 H   0  0  0  0  0  0
  -18.0351  -26.0069   22.9017 H   0  0  0  0  0  0
  -19.7948  -30.7269   24.2260 H   0  0  0  0  0  0
  -17.5028  -31.6269   24.5153 H   0  0  0  0  0  0
  -15.5361  -30.2984   23.7658 H   0  0  0  0  0  0
  -15.8681  -28.0810   22.7086 H   0  0  0  0  0  0
  -24.5902  -30.7082   25.7765 H   0  0  0  0  0  0
  -24.8906  -32.2912   26.4841 H   0  0  0  0  0  0
  -25.8030  -30.8933   27.0232 H   0  0  0  0  0  0
  -26.2956  -29.6727   24.1256 H   0  0  0  0  0  0
  -27.4013  -29.7265   25.4781 H   0  0  0  0  0  0
  -27.8849  -30.4249   23.9519 H   0  0  0  0  0  0
  -27.2663  -33.3636   26.2055 H   0  0  0  0  0  0
  -28.3885  -32.6865   25.0346 H   0  0  0  0  0  0
  -28.0704  -31.8468   26.5445 H   0  0  0  0  0  0
  -28.2596  -38.0094   24.7505 H   0  0  0  0  0  0
  -28.1072  -36.2624   24.6302 H   0  0  0  0  0  0
  -27.2296  -37.1457   25.8871 H   0  0  0  0  0  0
  -20.9394  -29.8776   21.6848 H   0  0  0  0  0  0
  -26.0168  -38.2839   24.1398 H   0  0  0  0  0  0
  -31.3181  -17.4020   18.7262 H   0  0  0  0  0  0
  -28.6589  -18.3929   21.9949 H   0  0  0  0  0  0
  -27.4902  -22.6025   18.5306 H   0  0  0  0  0  0
  -27.2257  -21.0846   19.3745 H   0  0  0  0  0  0
  -28.6541  -21.2969   18.3645 H   0  0  0  0  0  0
  -29.9917  -23.3582   22.4489 H   0  0  0  0  0  0
  -28.9503  -24.7666   22.4379 H   0  0  0  0  0  0
  -30.4352  -24.7701   21.4892 H   0  0  0  0  0  0
  -28.7020  -20.9048   21.9389 H   0  0  0  0  0  0
  -30.3093  -21.4040   21.5866 H   0  0  0  0  0  0
  -27.0403  -24.5854   20.0199 H   0  0  0  0  0  0
  -28.2627  -24.7491   18.7808 H   0  0  0  0  0  0
  -30.6698  -19.3932   16.9649 H   0  0  0  0  0  0
  -31.5626  -20.8437   16.7294 H   0  0  0  0  0  0
  -28.9449  -15.6025   21.2428 H   0  0  0  0  0  0
  -31.9408  -21.3842   20.2384 H   0  0  0  0  0  0
  -32.2531  -22.0809   18.6947 H   0  0  0  0  0  0
  1 25  1  0  0  0
  1 30  2  0  0  0
  1 84  1  0  0  0
  2  3  1  0  0  0
  2 25  1  0  0  0
  2 86  1  0  0  0
  2 87  1  0  0  0
  3  4  1  0  0  0
  3 88  1  0  0  0
  3 89  1  0  0  0
  4  5  1  0  0  0
  4 90  1  0  0  0
  4 91  1  0  0  0
  5  6  1  0  0  0
  5 26  1  0  0  0
  5 92  1  0  0  0
  6 25  1  0  0  0
  6 93  1  0  0  0
  6 94  1  0  0  0
  7  8  2  0  0  0
  7 26  1  0  0  0
  7 29  1  0  0  0
  8  9  1  0  0  0
  8 22  1  0  0  0
  9 10  1  0  0  0
  9 27  2  0  0  0
 10 11  2  0  0  0
 10 15  1  0  0  0
 11 12  1  0  0  0
 11 95  1  0  0  0
 12 13  2  0  0  0
 12 96  1  0  0  0
 13 14  1  0  0  0
 13 31  1  0  0  0
 14 15  2  0  0  0
 14 97  1  0  0  0
 15 98  1  0  0  0
 16 17  2  0  0  0
 16 21  1  0  0  0
 16 31  1  0  0  0
 17 18  1  0  0  0
 17 99  1  0  0  0
 18 19  2  0  0  0
 18100  1  0  0  0
 19 20  1  0  0  0
 19 24  1  0  0  0
 20 21  2  0  0  0
 20101  1  0  0  0
 21 23  1  0  0  0
 22 28  1  0  0  0
 22 32  2  0  0  0
 26 27  1  0  0  0
 28102  1  0  0  0
 28103  1  0  0  0
 29104  1  0  0  0
 29105  1  0  0  0
 33 34  1  0  0  0
 33 66  1  0  0  0
 33 70  2  0  0  0
 34 36  1  0  0  0
 34 59  1  0  0  0
 34106  1  0  0  0
 35 44  2  0  0  0
 35 45  1  0  0  0
 35 68  1  0  0  0
 36 56  1  0  0  0
 36107  1  0  0  0
 37 39  1  0  0  0
 37 47  1  0  0  0
 37 66  1  0  0  0
 37108  1  0  0  0
 38 43  2  0  0  0
 38 46  1  0  0  0
 38 47  1  0  0  0
 39 64  1  0  0  0
 39 67  2  0  0  0
 40 52  1  0  0  0
 40 53  2  0  0  0
 40 58  1  0  0  0
 41109  1  0  0  0
 41110  1  0  0  0
 41111  1  0  0  0
 41 48  1  0  0  0
 42 43  1  0  0  0
 42 66  1  0  0  0
 42112  1  0  0  0
 42113  1  0  0  0
 43 44  1  0  0  0
 44114  1  0  0  0
 45 46  2  0  0  0
 45115  1  0  0  0
 46116  1  0  0  0
 47117  1  0  0  0
 47118  1  0  0  0
 48 56  1  0  0  0
 48 65  1  0  0  0
 48119  1  0  0  0
 49 50  1  0  0  0
 49 53  1  0  0  0
 49 64  1  0  0  0
 49120  1  0  0  0
 50 51  1  0  0  0
 50121  1  0  0  0
 50122  1  0  0  0
 51 52  1  0  0  0
 51123  1  0  0  0
 51124  1  0  0  0
 52125  1  0  0  0
 52126  1  0  0  0
 53 54  1  0  0  0
 54 55  2  0  0  0
 54127  1  0  0  0
 55 57  1  0  0  0
 55128  1  0  0  0
 56 69  2  0  0  0
 57 58  2  0  0  0
 57129  1  0  0  0
 58130  1  0  0  0
 59 60  1  0  0  0
 59 61  1  0  0  0
 59 62  1  0  0  0
 60131  1  0  0  0
 60132  1  0  0  0
 60133  1  0  0  0
 61134  1  0  0  0
 61135  1  0  0  0
 61136  1  0  0  0
 62137  1  0  0  0
 62138  1  0  0  0
 62139  1  0  0  0
 63 65  1  0  0  0
 63140  1  0  0  0
 63141  1  0  0  0
 63142  1  0  0  0
 64143  1  0  0  0
 65144  1  0  0  0
 68 81  1  0  0  0
 71 73  1  0  0  0
 71 74  2  0  0  0
 71145  1  0  0  0
 72 73  2  0  0  0
 72 82  1  0  0  0
 72146  1  0  0  0
 73 84  1  0  0  0
 74 75  1  0  0  0
 74 82  1  0  0  0
 75 83  1  0  0  0
 75 85  2  0  0  0
 76 77  2  0  0  0
 76 78  1  0  0  0
 76 80  1  0  0  0
 77 79  1  0  0  0
 77 81  1  0  0  0
 78147  1  0  0  0
 78148  1  0  0  0
 78149  1  0  0  0
 79150  1  0  0  0
 79151  1  0  0  0
 79152  1  0  0  0
 80 82  1  0  0  0
 80153  1  0  0  0
 80154  1  0  0  0
 81155  1  0  0  0
 81156  1  0  0  0
 83157  1  0  0  0
 83158  1  0  0  0
 84159  1  0  0  0
 85160  1  0  0  0
 85161  1  0  0  0
M  CHG  1  85   1
M  ISO  4   1 100  68 101  81 101  84 100
M  END
> <chiral flag>
0

> <version>
0

> <s_m_source_file>
/data/baiqing/PycharmProjects/Reinvent-master-3.2/result/LINK_invent/BTK/process_docking_weight1_custom_product_contain_oxygen_bond_distance_aromatic_linkinvent_7_9_3/rearranged_h_0158.sdf

> <i_m_source_file_index>
6

> <r_mmod_Potential_Energy-OPLS-2005>
-22.8281440734863

> <r_mmod_Stretch_Energy-OPLS-2005>
136.745697021484

> <r_mmod_Bend_Energy-OPLS-2005>
189.026809692383

> <r_mmod_Torsional_Energy-OPLS-2005>
239.259155273438

> <r_mmod_Improper_Torsional_Energy-OPLS-2005>
5.02841711044312

> <r_mmod_Van_der_Waal_Energy-OPLS-2005>
120.673622131348

> <r_mmod_Electrostatic_Energy-OPLS-2005>
-344.134155273438

> <r_mmod_Solvation_Energy-OPLS-2005>
-467.672576904297

> <b_mmod_Minimization_Converged-OPLS-2005>
0

> <r_mmod_RMS_Derivative-OPLS-2005>
0.856180608272552

$$$$
6
                    3D
 Structure written by MMmdl.
158166  0  0  1  0            999 V2000
  -30.7657  -14.4621   20.4752 C   0  0  0  0  0  0
  -30.4002  -12.2806   19.4404 C   0  0  0  0  0  0
  -29.4931  -12.4737   18.2100 C   0  0  0  0  0  0
  -28.0123  -12.3550   18.6184 C   0  0  0  0  0  0
  -27.6529  -13.2225   19.8563 C   0  0  2  0  0  0
  -28.7011  -13.0819   20.9850 C   0  0  0  0  0  0
  -25.2554  -13.8196   20.5671 C   0  0  0  0  0  0
  -24.1833  -13.0450   20.9193 C   0  0  0  0  0  0
  -24.6412  -11.6921   20.8745 C   0  0  0  0  0  0
  -23.9089  -10.4293   21.0400 C   0  0  0  0  0  0
  -24.3636   -9.4201   21.9175 C   0  0  0  0  0  0
  -23.6305   -8.2240   22.0751 C   0  0  0  0  0  0
  -22.4287   -8.0280   21.3538 C   0  0  0  0  0  0
  -21.9926   -9.0258   20.4647 C   0  0  0  0  0  0
  -22.7259  -10.2133   20.3052 C   0  0  0  0  0  0
  -21.6853   -6.0740   22.5276 C   0  0  0  0  0  0
  -21.4017   -6.5647   23.8209 C   0  0  0  0  0  0
  -21.3660   -5.6793   24.9168 C   0  0  0  0  0  0
  -21.6047   -4.3055   24.7214 C   0  0  0  0  0  0
  -21.8817   -3.8153   23.4338 C   0  0  0  0  0  0
  -21.9188   -4.6974   22.3394 C   0  0  0  0  0  0
  -22.7844  -13.5229   21.1837 C   0  0  0  0  0  0
  -22.1651   -4.2162   21.0969 F   0  0  0  0  0  0
  -21.5633   -3.4534   25.7726 F   0  0  0  0  0  0
  -30.0289  -13.3229   20.4069 N   0  0  0  0  0  0
  -26.2995  -12.9396   20.3306 N   0  0  0  0  0  0
  -25.9348  -11.6549   20.5775 N   0  0  0  0  0  0
  -22.0477  -12.8233   22.0396 N   0  0  0  0  0  0
  -25.4250  -15.1917   20.4063 N   0  0  0  0  0  0
  -31.9710  -14.4581   20.2458 O   0  0  0  0  0  0
  -21.6640   -6.8889   21.4237 O   0  0  0  0  0  0
  -22.3523  -14.5515   20.6657 O   0  0  0  0  0  0
  -24.6161  -31.8714   23.2156 C   0  0  0  0  0  0
  -25.9060  -32.4837   23.8437 C   0  0  1  0  0  0
  -27.2135  -27.4235   20.0881 C   0  0  0  0  0  0
  -25.5922  -33.8637   24.2365 N   0  0  0  0  0  0
  -23.4019  -30.5033   21.5575 C   0  0  2  0  0  0
  -24.8418  -28.9820   20.1136 C   0  0  0  0  0  0
  -22.7420  -29.4691   22.4988 C   0  0  0  0  0  0
  -18.0274  -28.1370   22.8491 C   0  0  0  0  0  0
  -24.1493  -36.7320   23.2637 C   0  0  0  0  0  0
  -25.9378  -30.8324   21.3750 C   0  0  0  0  0  0
  -26.0088  -29.4715   20.7134 C   0  0  0  0  0  0
  -27.1977  -28.7004   20.7004 C   0  0  0  0  0  0
  -26.0182  -26.9692   19.4700 C   0  0  0  0  0  0
  -24.8414  -27.7290   19.4907 C   0  0  0  0  0  0
  -23.6088  -29.8518   20.1678 C   0  0  0  0  0  0
  -25.4111  -36.3124   24.0343 C   0  0  1  0  0  0
  -20.5868  -28.3672   23.1300 C   0  0  2  0  0  0
  -20.6776  -26.9409   22.5413 C   0  0  0  0  0  0
  -19.5750  -26.6378   21.5218 C   0  0  0  0  0  0
  -18.1924  -26.7914   22.1624 C   0  0  0  0  0  0
  -19.1525  -28.8834   23.2890 C   0  0  0  0  0  0
  -18.9458  -30.1437   23.8904 C   0  0  0  0  0  0
  -17.6463  -30.6581   24.0557 C   0  0  0  0  0  0
  -25.9040  -34.9487   23.5147 C   0  0  0  0  0  0
  -16.5353  -29.9085   23.6317 C   0  0  0  0  0  0
  -16.7263  -28.6496   23.0347 C   0  0  0  0  0  0
  -26.4480  -31.6602   25.0756 C   0  0  0  0  0  0
  -25.3732  -31.3717   26.1493 C   0  0  0  0  0  0
  -27.0313  -30.3040   24.6140 C   0  0  0  0  0  0
  -27.6060  -32.4311   25.7516 C   0  0  0  0  0  0
  -27.5583  -37.1816   24.8457 C   0  0  0  0  0  0
  -21.4149  -29.3042   22.3710 N   0  0  0  0  0  0
  -26.4296  -37.3807   23.9403 N   0  0  0  0  0  0
  -24.6704  -31.0817   22.1069 N   0  0  0  0  0  0
  -23.4202  -28.8208   23.3005 O   0  0  0  0  0  0
  -28.3603  -26.6406   20.1253 O   0  0  0  0  0  0
  -26.5589  -34.8929   22.4699 O   0  0  0  0  0  0
  -23.5351  -32.1480   23.7541 O   0  0  0  0  0  0
  -31.2665  -19.4562   18.9807 C   0  0  0  0  0  0
  -29.7580  -18.0756   20.3321 C   0  0  0  0  0  0
  -31.6561  -17.0700   19.1912 C   0  0  0  0  0  0
  -30.1143  -19.3393   19.7842 C   0  0  0  0  0  0
  -32.0358  -18.3255   18.6814 C   0  0  0  0  0  0
  -30.5222  -16.9139   20.0420 C   0  0  0  0  0  0
  -29.2503  -20.5199   19.9038 C   0  0  0  0  0  0
  -29.2443  -24.2507   20.1317 C   0  0  0  0  0  0
  -29.0659  -22.9591   19.3318 C   0  0  0  0  0  0
  -28.1385  -25.2494   19.8122 C   0  0  0  0  0  0
  -30.1709  -24.4439   20.9754 N   0  0  0  0  0  0
  -33.1511  -18.4493   17.8507 N   0  0  0  0  0  0
  -30.0872  -15.6288   20.5495 N   0  0  0  0  0  0
  -29.7574  -21.7693   19.8938 N   0  0  0  0  0  0
  -27.9292  -20.3499   19.9106 N   0  3  0  0  0  0
  -31.4505  -12.3218   19.1459 H   0  0  0  0  0  0
  -30.2539  -11.2920   19.8784 H   0  0  0  0  0  0
  -29.7336  -11.7322   17.4470 H   0  0  0  0  0  0
  -29.6765  -13.4502   17.7579 H   0  0  0  0  0  0
  -27.8151  -11.3046   18.8311 H   0  0  0  0  0  0
  -27.3693  -12.6165   17.7771 H   0  0  0  0  0  0
  -27.6746  -14.2584   19.5179 H   0  0  0  0  0  0
  -28.6663  -12.0823   21.4214 H   0  0  0  0  0  0
  -28.4927  -13.7780   21.8001 H   0  0  0  0  0  0
  -25.2783   -9.5676   22.4741 H   0  0  0  0  0  0
  -24.0015   -7.4633   22.7475 H   0  0  0  0  0  0
  -21.0854   -8.8789   19.8955 H   0  0  0  0  0  0
  -22.3722  -10.9674   19.6160 H   0  0  0  0  0  0
  -21.2008   -7.6152   23.9727 H   0  0  0  0  0  0
  -21.1484   -6.0511   25.9074 H   0  0  0  0  0  0
  -22.0598   -2.7621   23.2824 H   0  0  0  0  0  0
  -22.4099  -11.9927   22.4837 H   0  0  0  0  0  0
  -21.1084  -13.1263   22.2559 H   0  0  0  0  0  0
  -24.6575  -15.8453   20.5178 H   0  0  0  0  0  0
  -26.2716  -15.6293   20.0663 H   0  0  0  0  0  0
  -26.7128  -32.5560   23.1199 H   0  0  0  0  0  0
  -25.0074  -33.9804   25.0510 H   0  0  0  0  0  0
  -22.6907  -31.3215   21.4269 H   0  0  0  0  0  0
  -23.3760  -35.9649   23.3305 H   0  0  0  0  0  0
  -24.3595  -36.8924   22.2050 H   0  0  0  0  0  0
  -23.7241  -37.6529   23.6639 H   0  0  0  0  0  0
  -26.0616  -31.6041   20.6142 H   0  0  0  0  0  0
  -26.8223  -30.8737   21.9990 H   0  0  0  0  0  0
  -28.0933  -29.0693   21.1804 H   0  0  0  0  0  0
  -25.9436  -26.0211   18.9607 H   0  0  0  0  0  0
  -23.9444  -27.3478   19.0215 H   0  0  0  0  0  0
  -23.7221  -30.6351   19.4173 H   0  0  0  0  0  0
  -22.7302  -29.2794   19.8637 H   0  0  0  0  0  0
  -25.1287  -36.2000   25.0839 H   0  0  0  0  0  0
  -20.9961  -28.3250   24.1419 H   0  0  0  0  0  0
  -20.5703  -26.2288   23.3608 H   0  0  0  0  0  0
  -21.6645  -26.7463   22.1192 H   0  0  0  0  0  0
  -19.6919  -25.6294   21.1234 H   0  0  0  0  0  0
  -19.6678  -27.3200   20.6757 H   0  0  0  0  0  0
  -17.4204  -26.6663   21.4017 H   0  0  0  0  0  0
  -18.0315  -26.0048   22.9012 H   0  0  0  0  0  0
  -19.7942  -30.7235   24.2290 H   0  0  0  0  0  0
  -17.5027  -31.6264   24.5153 H   0  0  0  0  0  0
  -15.5354  -30.2997   23.7628 H   0  0  0  0  0  0
  -15.8663  -28.0817   22.7060 H   0  0  0  0  0  0
  -24.5898  -30.7072   25.7830 H   0  0  0  0  0  0
  -24.8928  -32.2877   26.4942 H   0  0  0  0  0  0
  -25.8069  -30.8883   27.0254 H   0  0  0  0  0  0
  -26.2873  -29.6807   24.1163 H   0  0  0  0  0  0
  -27.4047  -29.7267   25.4608 H   0  0  0  0  0  0
  -27.8728  -30.4363   23.9332 H   0  0  0  0  0  0
  -27.2686  -33.3597   26.2133 H   0  0  0  0  0  0
  -28.3851  -32.6888   25.0330 H   0  0  0  0  0  0
  -28.0746  -31.8404   26.5397 H   0  0  0  0  0  0
  -28.2604  -38.0113   24.7520 H   0  0  0  0  0  0
  -28.1076  -36.2645   24.6268 H   0  0  0  0  0  0
  -27.2295  -37.1450   25.8858 H   0  0  0  0  0  0
  -20.9310  -29.8789   21.6952 H   0  0  0  0  0  0
  -26.0191  -38.2889   24.1405 H   0  0  0  0  0  0
  -31.5351  -20.4080   18.5450 H   0  0  0  0  0  0
  -28.8722  -17.9930   20.9464 H   0  0  0  0  0  0
  -32.2603  -16.2373   18.8735 H   0  0  0  0  0  0
  -29.4407  -23.1292   18.3216 H   0  0  0  0  0  0
  -27.9974  -22.7715   19.2186 H   0  0  0  0  0  0
  -27.2625  -24.8845   20.3525 H   0  0  0  0  0  0
  -27.9313  -25.1714   18.7434 H   0  0  0  0  0  0
  -30.7654  -23.6283   21.0444 H   0  0  0  0  0  0
  -33.2225  -19.2663   17.2525 H   0  0  0  0  0  0
  -33.5201  -17.6117   17.4106 H   0  0  0  0  0  0
  -29.1254  -15.5579   20.8417 H   0  0  0  0  0  0
  -30.7596  -21.8517   20.0048 H   0  0  0  0  0  0
  -27.5550  -19.4231   19.7785 H   0  0  0  0  0  0
  -27.2920  -21.0922   20.1423 H   0  0  0  0  0  0
  1 25  1  0  0  0
  1 30  2  0  0  0
  1 83  1  0  0  0
  2  3  1  0  0  0
  2 25  1  0  0  0
  2 86  1  0  0  0
  2 87  1  0  0  0
  3  4  1  0  0  0
  3 88  1  0  0  0
  3 89  1  0  0  0
  4  5  1  0  0  0
  4 90  1  0  0  0
  4 91  1  0  0  0
  5  6  1  0  0  0
  5 26  1  0  0  0
  5 92  1  0  0  0
  6 25  1  0  0  0
  6 93  1  0  0  0
  6 94  1  0  0  0
  7  8  2  0  0  0
  7 26  1  0  0  0
  7 29  1  0  0  0
  8  9  1  0  0  0
  8 22  1  0  0  0
  9 10  1  0  0  0
  9 27  2  0  0  0
 10 11  2  0  0  0
 10 15  1  0  0  0
 11 12  1  0  0  0
 11 95  1  0  0  0
 12 13  2  0  0  0
 12 96  1  0  0  0
 13 14  1  0  0  0
 13 31  1  0  0  0
 14 15  2  0  0  0
 14 97  1  0  0  0
 15 98  1  0  0  0
 16 17  2  0  0  0
 16 21  1  0  0  0
 16 31  1  0  0  0
 17 18  1  0  0  0
 17 99  1  0  0  0
 18 19  2  0  0  0
 18100  1  0  0  0
 19 20  1  0  0  0
 19 24  1  0  0  0
 20 21  2  0  0  0
 20101  1  0  0  0
 21 23  1  0  0  0
 22 28  1  0  0  0
 22 32  2  0  0  0
 26 27  1  0  0  0
 28102  1  0  0  0
 28103  1  0  0  0
 29104  1  0  0  0
 29105  1  0  0  0
 33 34  1  0  0  0
 33 66  1  0  0  0
 33 70  2  0  0  0
 34 36  1  0  0  0
 34 59  1  0  0  0
 34106  1  0  0  0
 35 44  2  0  0  0
 35 45  1  0  0  0
 35 68  1  0  0  0
 36 56  1  0  0  0
 36107  1  0  0  0
 37 39  1  0  0  0
 37 47  1  0  0  0
 37 66  1  0  0  0
 37108  1  0  0  0
 38 43  2  0  0  0
 38 46  1  0  0  0
 38 47  1  0  0  0
 39 64  1  0  0  0
 39 67  2  0  0  0
 40 52  1  0  0  0
 40 53  2  0  0  0
 40 58  1  0  0  0
 41109  1  0  0  0
 41110  1  0  0  0
 41111  1  0  0  0
 41 48  1  0  0  0
 42 43  1  0  0  0
 42 66  1  0  0  0
 42112  1  0  0  0
 42113  1  0  0  0
 43 44  1  0  0  0
 44114  1  0  0  0
 45 46  2  0  0  0
 45115  1  0  0  0
 46116  1  0  0  0
 47117  1  0  0  0
 47118  1  0  0  0
 48 56  1  0  0  0
 48 65  1  0  0  0
 48119  1  0  0  0
 49 50  1  0  0  0
 49 53  1  0  0  0
 49 64  1  0  0  0
 49120  1  0  0  0
 50 51  1  0  0  0
 50121  1  0  0  0
 50122  1  0  0  0
 51 52  1  0  0  0
 51123  1  0  0  0
 51124  1  0  0  0
 52125  1  0  0  0
 52126  1  0  0  0
 53 54  1  0  0  0
 54 55  2  0  0  0
 54127  1  0  0  0
 55 57  1  0  0  0
 55128  1  0  0  0
 56 69  2  0  0  0
 57 58  2  0  0  0
 57129  1  0  0  0
 58130  1  0  0  0
 59 60  1  0  0  0
 59 61  1  0  0  0
 59 62  1  0  0  0
 60131  1  0  0  0
 60132  1  0  0  0
 60133  1  0  0  0
 61134  1  0  0  0
 61135  1  0  0  0
 61136  1  0  0  0
 62137  1  0  0  0
 62138  1  0  0  0
 62139  1  0  0  0
 63 65  1  0  0  0
 63140  1  0  0  0
 63141  1  0  0  0
 63142  1  0  0  0
 64143  1  0  0  0
 65144  1  0  0  0
 68 80  1  0  0  0
 71 74  2  0  0  0
 71 75  1  0  0  0
 71145  1  0  0  0
 72 74  1  0  0  0
 72 76  2  0  0  0
 72146  1  0  0  0
 73 75  2  0  0  0
 73 76  1  0  0  0
 73147  1  0  0  0
 74 77  1  0  0  0
 75 82  1  0  0  0
 76 83  1  0  0  0
 77 84  1  0  0  0
 77 85  2  0  0  0
 78 79  1  0  0  0
 78 80  1  0  0  0
 78 81  2  0  0  0
 79 84  1  0  0  0
 79148  1  0  0  0
 79149  1  0  0  0
 80150  1  0  0  0
 80151  1  0  0  0
 81152  1  0  0  0
 82153  1  0  0  0
 82154  1  0  0  0
 83155  1  0  0  0
 84156  1  0  0  0
 85157  1  0  0  0
 85158  1  0  0  0
M  CHG  1  85   1
M  ISO  4   1 100  68 101  80 101  83 100
M  END
> <chiral flag>
0

> <version>
0

> <s_m_source_file>
/data/baiqing/PycharmProjects/Reinvent-master-3.2/result/LINK_invent/BTK/process_docking_weight1_custom_product_contain_oxygen_bond_distance_aromatic_linkinvent_7_9_3/rearranged_h_0158.sdf

> <i_m_source_file_index>
7

> <r_mmod_Potential_Energy-OPLS-2005>
-294.854156494141

> <r_mmod_Stretch_Energy-OPLS-2005>
41.1232147216797

> <r_mmod_Bend_Energy-OPLS-2005>
109.193244934082

> <r_mmod_Torsional_Energy-OPLS-2005>
241.336929321289

> <r_mmod_Improper_Torsional_Energy-OPLS-2005>
11.8763904571533

> <r_mmod_Van_der_Waal_Energy-OPLS-2005>
183.697616577148

> <r_mmod_Electrostatic_Energy-OPLS-2005>
-425.391174316406

> <r_mmod_Solvation_Energy-OPLS-2005>
-488.52197265625

> <b_mmod_Minimization_Converged-OPLS-2005>
0

> <r_mmod_RMS_Derivative-OPLS-2005>
1.44622755050659

$$$$
7
                    3D
 Structure written by MMmdl.
160169  0  0  1  0            999 V2000
  -30.6593  -14.5377   20.5445 C   0  0  0  0  0  0
  -30.4232  -12.3316   19.4562 C   0  0  0  0  0  0
  -29.5045  -12.5116   18.2273 C   0  0  0  0  0  0
  -28.0226  -12.3698   18.6279 C   0  0  0  0  0  0
  -27.6583  -13.2099   19.8812 C   0  0  2  0  0  0
  -28.6962  -13.0157   21.0110 C   0  0  0  0  0  0
  -25.2556  -13.8159   20.5681 C   0  0  0  0  0  0
  -24.1810  -13.0441   20.9157 C   0  0  0  0  0  0
  -24.6349  -11.6902   20.8703 C   0  0  0  0  0  0
  -23.9011  -10.4299   21.0373 C   0  0  0  0  0  0
  -24.3570   -9.4229   21.9159 C   0  0  0  0  0  0
  -23.6268   -8.2253   22.0742 C   0  0  0  0  0  0
  -22.4255   -8.0273   21.3536 C   0  0  0  0  0  0
  -21.9879   -9.0233   20.4631 C   0  0  0  0  0  0
  -22.7182  -10.2125   20.3030 C   0  0  0  0  0  0
  -21.6854   -6.0727   22.5268 C   0  0  0  0  0  0
  -21.4023   -6.5632   23.8206 C   0  0  0  0  0  0
  -21.3668   -5.6781   24.9159 C   0  0  0  0  0  0
  -21.6055   -4.3046   24.7206 C   0  0  0  0  0  0
  -21.8824   -3.8143   23.4322 C   0  0  0  0  0  0
  -21.9190   -4.6956   22.3384 C   0  0  0  0  0  0
  -22.7842  -13.5249   21.1832 C   0  0  0  0  0  0
  -22.1652   -4.2138   21.0961 F   0  0  0  0  0  0
  -21.5631   -3.4538   25.7720 F   0  0  0  0  0  0
  -30.0271  -13.3299   20.4664 N   0  0  0  0  0  0
  -26.2988  -12.9327   20.3374 N   0  0  0  0  0  0
  -25.9277  -11.6481   20.5740 N   0  0  0  0  0  0
  -22.0474  -12.8246   22.0377 N   0  0  0  0  0  0
  -25.4310  -15.1876   20.4107 N   0  0  0  0  0  0
  -31.7754  -14.7307   20.0526 O   0  0  0  0  0  0
  -21.6634   -6.8861   21.4231 O   0  0  0  0  0  0
  -22.3543  -14.5561   20.6685 O   0  0  0  0  0  0
  -24.6181  -31.8640   23.2085 C   0  0  0  0  0  0
  -25.9061  -32.4796   23.8392 C   0  0  1  0  0  0
  -27.2255  -27.3896   20.1145 C   0  0  0  0  0  0
  -25.5914  -33.8597   24.2325 N   0  0  0  0  0  0
  -23.4094  -30.4885   21.5470 C   0  0  2  0  0  0
  -24.8593  -28.9540   20.1064 C   0  0  0  0  0  0
  -22.7440  -29.4643   22.4960 C   0  0  0  0  0  0
  -18.0276  -28.1386   22.8494 C   0  0  0  0  0  0
  -24.1483  -36.7294   23.2646 C   0  0  0  0  0  0
  -25.9438  -30.8165   21.3714 C   0  0  0  0  0  0
  -26.0205  -29.4484   20.7165 C   0  0  0  0  0  0
  -27.2082  -28.6712   20.7216 C   0  0  0  0  0  0
  -26.0552  -26.9336   19.4715 C   0  0  0  0  0  0
  -24.8736  -27.6980   19.4773 C   0  0  0  0  0  0
  -23.6199  -29.8210   20.1614 C   0  0  0  0  0  0
  -25.4107  -36.3095   24.0344 C   0  0  1  0  0  0
  -20.5875  -28.3676   23.1295 C   0  0  2  0  0  0
  -20.6755  -26.9408   22.5411 C   0  0  0  0  0  0
  -19.5737  -26.6387   21.5210 C   0  0  0  0  0  0
  -18.1916  -26.7934   22.1620 C   0  0  0  0  0  0
  -19.1530  -28.8855   23.2888 C   0  0  0  0  0  0
  -18.9451  -30.1466   23.8890 C   0  0  0  0  0  0
  -17.6450  -30.6594   24.0558 C   0  0  0  0  0  0
  -25.9039  -34.9456   23.5135 C   0  0  0  0  0  0
  -16.5344  -29.9082   23.6336 C   0  0  0  0  0  0
  -16.7262  -28.6499   23.0358 C   0  0  0  0  0  0
  -26.4487  -31.6589   25.0730 C   0  0  0  0  0  0
  -25.3757  -31.3672   26.1479 C   0  0  0  0  0  0
  -27.0357  -30.3039   24.6142 C   0  0  0  0  0  0
  -27.6059  -32.4330   25.7475 C   0  0  0  0  0  0
  -27.5579  -37.1796   24.8468 C   0  0  0  0  0  0
  -21.4163  -29.3031   22.3694 N   0  0  0  0  0  0
  -26.4293  -37.3778   23.9414 N   0  0  0  0  0  0
  -24.6749  -31.0724   22.0995 N   0  0  0  0  0  0
  -23.4193  -28.8189   23.3021 O   0  0  0  0  0  0
  -28.3266  -26.5506   20.1651 O   0  0  0  0  0  0
  -26.5585  -34.8908   22.4691 O   0  0  0  0  0  0
  -23.5364  -32.1407   23.7460 O   0  0  0  0  0  0
  -28.5699  -19.1431   19.1893 C   0  0  0  0  0  0
  -29.5174  -18.0377   21.1431 C   0  0  0  0  0  0
  -29.2688  -16.8044   19.0541 C   0  0  0  0  0  0
  -29.0032  -19.2282   20.5306 C   0  0  0  0  0  0
  -28.7336  -17.9593   18.4466 C   0  0  0  0  0  0
  -29.6300  -16.8078   20.4232 C   0  0  0  0  0  0
  -28.7026  -23.0168   21.5903 C   0  0  0  0  0  0
  -28.7743  -20.4864   21.3087 C   0  0  0  0  0  0
  -29.1794  -23.6816   19.3590 C   0  0  0  0  0  0
  -29.5874  -22.2089   19.5822 C   0  0  0  0  0  0
  -29.0134  -24.2812   20.7565 C   0  0  1  0  0  0
  -28.9855  -21.7828   20.8661 N   0  0  0  0  0  0
  -28.3203  -17.9277   17.1146 N   0  0  0  0  0  0
  -29.9496  -15.5612   21.0825 N   0  0  0  0  0  0
  -27.9363  -25.3074   20.8613 N   0  0  0  0  0  0
  -28.2891  -20.2919   22.5382 N   0  3  0  0  0  0
  -28.2309  -23.0562   22.7326 O   0  0  0  0  0  0
  -31.4713  -12.4294   19.1687 H   0  0  0  0  0  0
  -30.3212  -11.3258   19.8665 H   0  0  0  0  0  0
  -29.7561  -11.7794   17.4597 H   0  0  0  0  0  0
  -29.6737  -13.4927   17.7798 H   0  0  0  0  0  0
  -27.8332  -11.3140   18.8236 H   0  0  0  0  0  0
  -27.3762  -12.6448   17.7931 H   0  0  0  0  0  0
  -27.6927  -14.2553   19.5779 H   0  0  0  0  0  0
  -28.6781  -11.9853   21.3704 H   0  0  0  0  0  0
  -28.4471  -13.6298   21.8768 H   0  0  0  0  0  0
  -25.2709   -9.5722   22.4737 H   0  0  0  0  0  0
  -23.9983   -7.4661   22.7465 H   0  0  0  0  0  0
  -21.0813   -8.8728   19.8937 H   0  0  0  0  0  0
  -22.3620  -10.9652   19.6134 H   0  0  0  0  0  0
  -21.2023   -7.6143   23.9714 H   0  0  0  0  0  0
  -21.1492   -6.0501   25.9064 H   0  0  0  0  0  0
  -22.0600   -2.7607   23.2815 H   0  0  0  0  0  0
  -22.4069  -11.9893   22.4769 H   0  0  0  0  0  0
  -21.1092  -13.1289   22.2557 H   0  0  0  0  0  0
  -24.6650  -15.8440   20.5122 H   0  0  0  0  0  0
  -26.2843  -15.6266   20.0917 H   0  0  0  0  0  0
  -26.7132  -32.5489   23.1149 H   0  0  0  0  0  0
  -25.0097  -33.9746   25.0496 H   0  0  0  0  0  0
  -22.6994  -31.3062   21.4051 H   0  0  0  0  0  0
  -23.3746  -35.9626   23.3310 H   0  0  0  0  0  0
  -24.3581  -36.8905   22.2061 H   0  0  0  0  0  0
  -23.7227  -37.6498   23.6656 H   0  0  0  0  0  0
  -26.0678  -31.5831   20.6053 H   0  0  0  0  0  0
  -26.8273  -30.8644   21.9958 H   0  0  0  0  0  0
  -28.0995  -29.0392   21.2094 H   0  0  0  0  0  0
  -26.0522  -25.9645   18.9929 H   0  0  0  0  0  0
  -23.9838  -27.3162   18.9950 H   0  0  0  0  0  0
  -23.7198  -30.5940   19.3990 H   0  0  0  0  0  0
  -22.7450  -29.2354   19.8701 H   0  0  0  0  0  0
  -25.1287  -36.1957   25.0837 H   0  0  0  0  0  0
  -20.9971  -28.3248   24.1415 H   0  0  0  0  0  0
  -20.5657  -26.2288   23.3609 H   0  0  0  0  0  0
  -21.6619  -26.7449   22.1189 H   0  0  0  0  0  0
  -19.6889  -25.6299   21.1229 H   0  0  0  0  0  0
  -19.6681  -27.3202   20.6747 H   0  0  0  0  0  0
  -17.4195  -26.6717   21.4012 H   0  0  0  0  0  0
  -18.0301  -26.0065   22.9003 H   0  0  0  0  0  0
  -19.7925  -30.7287   24.2248 H   0  0  0  0  0  0
  -17.4998  -31.6264   24.5163 H   0  0  0  0  0  0
  -15.5341  -30.2972   23.7673 H   0  0  0  0  0  0
  -15.8658  -28.0812   22.7087 H   0  0  0  0  0  0
  -24.5940  -30.7012   25.7805 H   0  0  0  0  0  0
  -24.8933  -32.2809   26.4960 H   0  0  0  0  0  0
  -25.8124  -30.8818   27.0216 H   0  0  0  0  0  0
  -26.2922  -29.6743   24.1244 H   0  0  0  0  0  0
  -27.4178  -29.7330   25.4612 H   0  0  0  0  0  0
  -27.8720  -30.4362   23.9277 H   0  0  0  0  0  0
  -27.2690  -33.3634   26.2055 H   0  0  0  0  0  0
  -28.3851  -32.6895   25.0285 H   0  0  0  0  0  0
  -28.0748  -31.8459   26.5379 H   0  0  0  0  0  0
  -28.2595  -38.0093   24.7519 H   0  0  0  0  0  0
  -28.1076  -36.2626   24.6293 H   0  0  0  0  0  0
  -27.2293  -37.1431   25.8868 H   0  0  0  0  0  0
  -20.9339  -29.8741   21.6894 H   0  0  0  0  0  0
  -26.0181  -38.2858   24.1412 H   0  0  0  0  0  0
  -28.0627  -19.9758   18.7273 H   0  0  0  0  0  0
  -29.7935  -18.0529   22.1891 H   0  0  0  0  0  0
  -29.3408  -15.8948   18.4760 H   0  0  0  0  0  0
  -28.2456  -23.7237   18.7968 H   0  0  0  0  0  0
  -29.9311  -24.2217   18.7837 H   0  0  0  0  0  0
  -30.6722  -22.1268   19.6715 H   0  0  0  0  0  0
  -29.3040  -21.6238   18.7137 H   0  0  0  0  0  0
  -29.9568  -24.6906   21.1198 H   0  0  0  0  0  0
  -28.2193  -18.8117   16.6260 H   0  0  0  0  0  0
  -28.6862  -17.1940   16.5155 H   0  0  0  0  0  0
  -29.2484  -15.2614   21.7432 H   0  0  0  0  0  0
  -27.7845  -25.5704   21.8315 H   0  0  0  0  0  0
  -28.0313  -19.3687   22.8495 H   0  0  0  0  0  0
  -28.0905  -21.0989   23.1175 H   0  0  0  0  0  0
  1 25  1  0  0  0
  1 30  2  0  0  0
  1 84  1  0  0  0
  2  3  1  0  0  0
  2 25  1  0  0  0
  2 88  1  0  0  0
  2 89  1  0  0  0
  3  4  1  0  0  0
  3 90  1  0  0  0
  3 91  1  0  0  0
  4  5  1  0  0  0
  4 92  1  0  0  0
  4 93  1  0  0  0
  5  6  1  0  0  0
  5 26  1  0  0  0
  5 94  1  0  0  0
  6 25  1  0  0  0
  6 95  1  0  0  0
  6 96  1  0  0  0
  7  8  2  0  0  0
  7 26  1  0  0  0
  7 29  1  0  0  0
  8  9  1  0  0  0
  8 22  1  0  0  0
  9 10  1  0  0  0
  9 27  2  0  0  0
 10 11  2  0  0  0
 10 15  1  0  0  0
 11 12  1  0  0  0
 11 97  1  0  0  0
 12 13  2  0  0  0
 12 98  1  0  0  0
 13 14  1  0  0  0
 13 31  1  0  0  0
 14 15  2  0  0  0
 14 99  1  0  0  0
 15100  1  0  0  0
 16 17  2  0  0  0
 16 21  1  0  0  0
 16 31  1  0  0  0
 17 18  1  0  0  0
 17101  1  0  0  0
 18 19  2  0  0  0
 18102  1  0  0  0
 19 20  1  0  0  0
 19 24  1  0  0  0
 20 21  2  0  0  0
 20103  1  0  0  0
 21 23  1  0  0  0
 22 28  1  0  0  0
 22 32  2  0  0  0
 26 27  1  0  0  0
 28104  1  0  0  0
 28105  1  0  0  0
 29106  1  0  0  0
 29107  1  0  0  0
 33 34  1  0  0  0
 33 66  1  0  0  0
 33 70  2  0  0  0
 34 36  1  0  0  0
 34 59  1  0  0  0
 34108  1  0  0  0
 35 44  2  0  0  0
 35 45  1  0  0  0
 35 68  1  0  0  0
 36 56  1  0  0  0
 36109  1  0  0  0
 37 39  1  0  0  0
 37 47  1  0  0  0
 37 66  1  0  0  0
 37110  1  0  0  0
 38 43  2  0  0  0
 38 46  1  0  0  0
 38 47  1  0  0  0
 39 64  1  0  0  0
 39 67  2  0  0  0
 40 52  1  0  0  0
 40 53  2  0  0  0
 40 58  1  0  0  0
 41111  1  0  0  0
 41112  1  0  0  0
 41113  1  0  0  0
 41 48  1  0  0  0
 42 43  1  0  0  0
 42 66  1  0  0  0
 42114  1  0  0  0
 42115  1  0  0  0
 43 44  1  0  0  0
 44116  1  0  0  0
 45 46  2  0  0  0
 45117  1  0  0  0
 46118  1  0  0  0
 47119  1  0  0  0
 47120  1  0  0  0
 48 56  1  0  0  0
 48 65  1  0  0  0
 48121  1  0  0  0
 49 50  1  0  0  0
 49 53  1  0  0  0
 49 64  1  0  0  0
 49122  1  0  0  0
 50 51  1  0  0  0
 50123  1  0  0  0
 50124  1  0  0  0
 51 52  1  0  0  0
 51125  1  0  0  0
 51126  1  0  0  0
 52127  1  0  0  0
 52128  1  0  0  0
 53 54  1  0  0  0
 54 55  2  0  0  0
 54129  1  0  0  0
 55 57  1  0  0  0
 55130  1  0  0  0
 56 69  2  0  0  0
 57 58  2  0  0  0
 57131  1  0  0  0
 58132  1  0  0  0
 59 60  1  0  0  0
 59 61  1  0  0  0
 59 62  1  0  0  0
 60133  1  0  0  0
 60134  1  0  0  0
 60135  1  0  0  0
 61136  1  0  0  0
 61137  1  0  0  0
 61138  1  0  0  0
 62139  1  0  0  0
 62140  1  0  0  0
 62141  1  0  0  0
 63 65  1  0  0  0
 63142  1  0  0  0
 63143  1  0  0  0
 63144  1  0  0  0
 64145  1  0  0  0
 65146  1  0  0  0
 68 85  1  0  0  0
 71 74  2  0  0  0
 71 75  1  0  0  0
 71147  1  0  0  0
 72 74  1  0  0  0
 72 76  2  0  0  0
 72148  1  0  0  0
 73 75  2  0  0  0
 73 76  1  0  0  0
 73149  1  0  0  0
 74 78  1  0  0  0
 75 83  1  0  0  0
 76 84  1  0  0  0
 77 81  1  0  0  0
 77 82  1  0  0  0
 77 87  2  0  0  0
 78 82  1  0  0  0
 78 86  2  0  0  0
 79 80  1  0  0  0
 79 81  1  0  0  0
 79150  1  0  0  0
 79151  1  0  0  0
 80 82  1  0  0  0
 80152  1  0  0  0
 80153  1  0  0  0
 81 85  1  0  0  0
 81154  1  0  0  0
 83155  1  0  0  0
 83156  1  0  0  0
 84157  1  0  0  0
 85158  1  0  0  0
 86159  1  0  0  0
 86160  1  0  0  0
M  CHG  1  86   1
M  ISO  4   1 100  68 101  84 100  85 101
M  END
> <chiral flag>
0

> <version>
0

> <s_m_source_file>
/data/baiqing/PycharmProjects/Reinvent-master-3.2/result/LINK_invent/BTK/process_docking_weight1_custom_product_contain_oxygen_bond_distance_aromatic_linkinvent_7_9_3/rearranged_h_0158.sdf

> <i_m_source_file_index>
8

> <r_mmod_Potential_Energy-OPLS-2005>
-190.856842041016

> <r_mmod_Stretch_Energy-OPLS-2005>
55.4474983215332

> <r_mmod_Bend_Energy-OPLS-2005>
144.149215698242

> <r_mmod_Torsional_Energy-OPLS-2005>
274.423675537109

> <r_mmod_Improper_Torsional_Energy-OPLS-2005>
10.2024145126343

> <r_mmod_Van_der_Waal_Energy-OPLS-2005>
153.723831176758

> <r_mmod_Electrostatic_Energy-OPLS-2005>
-421.833923339844

> <r_mmod_Solvation_Energy-OPLS-2005>
-432.201629638672

> <b_mmod_Minimization_Converged-OPLS-2005>
0

> <r_mmod_RMS_Derivative-OPLS-2005>
2.07579708099365

$$$$
8
                    3D
 Structure written by MMmdl.
157166  0  0  1  0            999 V2000
  -30.5830  -14.6438   20.5220 C   0  0  0  0  0  0
  -30.4520  -12.3943   19.4558 C   0  0  0  0  0  0
  -29.5107  -12.4839   18.2334 C   0  0  0  0  0  0
  -28.0354  -12.3222   18.6514 C   0  0  0  0  0  0
  -27.6563  -13.1996   19.8717 C   0  0  2  0  0  0
  -28.6996  -13.0320   20.9992 C   0  0  0  0  0  0
  -25.2555  -13.8108   20.5583 C   0  0  0  0  0  0
  -24.1829  -13.0417   20.9197 C   0  0  0  0  0  0
  -24.6376  -11.6886   20.8810 C   0  0  0  0  0  0
  -23.9044  -10.4277   21.0462 C   0  0  0  0  0  0
  -24.3590   -9.4169   21.9219 C   0  0  0  0  0  0
  -23.6260   -8.2204   22.0769 C   0  0  0  0  0  0
  -22.4244   -8.0260   21.3556 C   0  0  0  0  0  0
  -21.9889   -9.0252   20.4674 C   0  0  0  0  0  0
  -22.7224  -10.2131   20.3101 C   0  0  0  0  0  0
  -21.6837   -6.0721   22.5291 C   0  0  0  0  0  0
  -21.4004   -6.5631   23.8226 C   0  0  0  0  0  0
  -21.3657   -5.6792   24.9196 C   0  0  0  0  0  0
  -21.6036   -4.3054   24.7253 C   0  0  0  0  0  0
  -21.8810   -3.8137   23.4380 C   0  0  0  0  0  0
  -21.9190   -4.6947   22.3429 C   0  0  0  0  0  0
  -22.7865  -13.5250   21.1856 C   0  0  0  0  0  0
  -22.1655   -4.2123   21.1009 F   0  0  0  0  0  0
  -21.5634   -3.4538   25.7766 F   0  0  0  0  0  0
  -30.0128  -13.3988   20.4415 N   0  0  0  0  0  0
  -26.3004  -12.9260   20.3376 N   0  0  0  0  0  0
  -25.9308  -11.6446   20.5870 N   0  0  0  0  0  0
  -22.0481  -12.8288   22.0418 N   0  0  0  0  0  0
  -25.4183  -15.1814   20.3734 N   0  0  0  0  0  0
  -31.7273  -14.8662   20.1155 O   0  0  0  0  0  0
  -21.6606   -6.8857   21.4249 O   0  0  0  0  0  0
  -22.3581  -14.5569   20.6703 O   0  0  0  0  0  0
  -24.6239  -31.8608   23.2039 C   0  0  0  0  0  0
  -25.9084  -32.4788   23.8378 C   0  0  1  0  0  0
  -27.2311  -27.3346   20.1089 C   0  0  0  0  0  0
  -25.5911  -33.8589   24.2286 N   0  0  0  0  0  0
  -23.4176  -30.4830   21.5464 C   0  0  2  0  0  0
  -24.8635  -28.9379   20.1154 C   0  0  0  0  0  0
  -22.7467  -29.4613   22.4947 C   0  0  0  0  0  0
  -18.0286  -28.1368   22.8485 C   0  0  0  0  0  0
  -24.1487  -36.7307   23.2641 C   0  0  0  0  0  0
  -25.9576  -30.7949   21.3728 C   0  0  0  0  0  0
  -26.0317  -29.4228   20.7158 C   0  0  0  0  0  0
  -27.2190  -28.6333   20.7008 C   0  0  0  0  0  0
  -26.0416  -26.8989   19.4828 C   0  0  0  0  0  0
  -24.8707  -27.6797   19.4906 C   0  0  0  0  0  0
  -23.6308  -29.8164   20.1622 C   0  0  0  0  0  0
  -25.4114  -36.3095   24.0327 C   0  0  1  0  0  0
  -20.5886  -28.3666   23.1292 C   0  0  2  0  0  0
  -20.6768  -26.9387   22.5412 C   0  0  0  0  0  0
  -19.5749  -26.6361   21.5205 C   0  0  0  0  0  0
  -18.1931  -26.7904   22.1619 C   0  0  0  0  0  0
  -19.1540  -28.8834   23.2877 C   0  0  0  0  0  0
  -18.9461  -30.1440   23.8883 C   0  0  0  0  0  0
  -17.6462  -30.6570   24.0557 C   0  0  0  0  0  0
  -25.9045  -34.9463   23.5101 C   0  0  0  0  0  0
  -16.5353  -29.9071   23.6319 C   0  0  0  0  0  0
  -16.7274  -28.6488   23.0340 C   0  0  0  0  0  0
  -26.4480  -31.6607   25.0747 C   0  0  0  0  0  0
  -25.3731  -31.3772   26.1493 C   0  0  0  0  0  0
  -27.0297  -30.3025   24.6192 C   0  0  0  0  0  0
  -27.6050  -32.4347   25.7495 C   0  0  0  0  0  0
  -27.5578  -37.1804   24.8459 C   0  0  0  0  0  0
  -21.4185  -29.3033   22.3692 N   0  0  0  0  0  0
  -26.4295  -37.3787   23.9408 N   0  0  0  0  0  0
  -24.6854  -31.0627   22.0972 N   0  0  0  0  0  0
  -23.4197  -28.8138   23.3014 O   0  0  0  0  0  0
  -28.3720  -26.5218   20.1080 O   0  0  0  0  0  0
  -26.5619  -34.8921   22.4668 O   0  0  0  0  0  0
  -23.5409  -32.1408   23.7356 O   0  0  0  0  0  0
  -30.5538  -18.0060   20.2379 C   0  0  0  0  0  0
  -28.7420  -17.7340   21.6758 C   0  0  0  0  0  0
  -29.7079  -17.0755   20.9530 C   0  0  0  0  0  0
  -30.2593  -19.3568   20.4733 C   0  0  0  0  0  0
  -29.3294  -24.1360   19.7576 C   0  0  0  0  0  0
  -31.0444  -20.5396   20.0419 C   0  0  0  0  0  0
  -29.3625  -22.5843   20.1353 C   0  0  0  0  0  0
  -31.1720  -23.8073   18.3523 C   0  0  0  0  0  0
  -31.7440  -22.8099   19.3673 C   0  0  0  0  0  0
  -28.2297  -25.0680   20.3728 C   0  0  0  0  0  0
  -30.1677  -24.6612   18.9503 N   0  0  0  0  0  0
  -30.6823  -21.8801   19.8476 N   0  0  0  0  0  0
  -29.7275  -15.6175   20.9601 N   0  0  0  0  0  0
  -32.3340  -20.2019   19.8434 N   0  3  0  0  0  0
  -28.8791  -19.4802   21.5363 S   0  0  0  0  0  0
  -31.4861  -12.5526   19.1477 H   0  0  0  0  0  0
  -30.4197  -11.3967   19.9001 H   0  0  0  0  0  0
  -29.7738  -11.7116   17.5096 H   0  0  0  0  0  0
  -29.6493  -13.4403   17.7264 H   0  0  0  0  0  0
  -27.8850  -11.2711   18.9015 H   0  0  0  0  0  0
  -27.3757  -12.5302   17.8102 H   0  0  0  0  0  0
  -27.6819  -14.2363   19.5337 H   0  0  0  0  0  0
  -28.7215  -11.9992   21.3513 H   0  0  0  0  0  0
  -28.4331  -13.6287   21.8736 H   0  0  0  0  0  0
  -25.2731   -9.5610   22.4811 H   0  0  0  0  0  0
  -23.9961   -7.4576   22.7475 H   0  0  0  0  0  0
  -21.0824   -8.8783   19.8976 H   0  0  0  0  0  0
  -22.3688  -10.9686   19.6224 H   0  0  0  0  0  0
  -21.1965   -7.6135   23.9726 H   0  0  0  0  0  0
  -21.1498   -6.0526   25.9103 H   0  0  0  0  0  0
  -22.0585   -2.7596   23.2904 H   0  0  0  0  0  0
  -22.4057  -11.9961   22.4864 H   0  0  0  0  0  0
  -21.1113  -13.1371   22.2619 H   0  0  0  0  0  0
  -24.5994  -15.7765   20.3088 H   0  0  0  0  0  0
  -26.2251  -15.5858   19.9146 H   0  0  0  0  0  0
  -26.7147  -32.5464   23.1131 H   0  0  0  0  0  0
  -25.0071  -33.9754   25.0436 H   0  0  0  0  0  0
  -22.7120  -31.3045   21.4043 H   0  0  0  0  0  0
  -23.3737  -35.9649   23.3308 H   0  0  0  0  0  0
  -24.3582  -36.8926   22.2055 H   0  0  0  0  0  0
  -23.7245  -37.6515   23.6658 H   0  0  0  0  0  0
  -26.0895  -31.5593   20.6048 H   0  0  0  0  0  0
  -26.8383  -30.8452   22.0026 H   0  0  0  0  0  0
  -28.1203  -29.0045   21.1685 H   0  0  0  0  0  0
  -26.0018  -25.9533   18.9633 H   0  0  0  0  0  0
  -23.9770  -27.3067   19.0074 H   0  0  0  0  0  0
  -23.7501  -30.5953   19.4090 H   0  0  0  0  0  0
  -22.7519  -29.2477   19.8548 H   0  0  0  0  0  0
  -25.1289  -36.1959   25.0820 H   0  0  0  0  0  0
  -20.9987  -28.3232   24.1410 H   0  0  0  0  0  0
  -20.5655  -26.2281   23.3619 H   0  0  0  0  0  0
  -21.6637  -26.7396   22.1223 H   0  0  0  0  0  0
  -19.6910  -25.6270   21.1243 H   0  0  0  0  0  0
  -19.6690  -27.3170   20.6734 H   0  0  0  0  0  0
  -17.4204  -26.6660   21.4017 H   0  0  0  0  0  0
  -18.0322  -26.0041   22.9014 H   0  0  0  0  0  0
  -19.7944  -30.7250   24.2248 H   0  0  0  0  0  0
  -17.5017  -31.6248   24.5164 H   0  0  0  0  0  0
  -15.5350  -30.2966   23.7630 H   0  0  0  0  0  0
  -15.8686  -28.0793   22.7052 H   0  0  0  0  0  0
  -24.5884  -30.7124   25.7858 H   0  0  0  0  0  0
  -24.8949  -32.2956   26.4918 H   0  0  0  0  0  0
  -25.8079  -30.8975   27.0272 H   0  0  0  0  0  0
  -26.2856  -29.6805   24.1198 H   0  0  0  0  0  0
  -27.3968  -29.7262   25.4698 H   0  0  0  0  0  0
  -27.8749  -30.4307   23.9420 H   0  0  0  0  0  0
  -27.2651  -33.3647   26.2067 H   0  0  0  0  0  0
  -28.3843  -32.6911   25.0302 H   0  0  0  0  0  0
  -28.0726  -31.8484   26.5415 H   0  0  0  0  0  0
  -28.2596  -38.0097   24.7482 H   0  0  0  0  0  0
  -28.1065  -36.2623   24.6296 H   0  0  0  0  0  0
  -27.2304  -37.1472   25.8866 H   0  0  0  0  0  0
  -20.9353  -29.8791   21.6936 H   0  0  0  0  0  0
  -26.0171  -38.2862   24.1408 H   0  0  0  0  0  0
  -31.3577  -17.6575   19.6066 H   0  0  0  0  0  0
  -27.9612  -17.3202   22.3044 H   0  0  0  0  0  0
  -28.5739  -22.0749   19.5822 H   0  0  0  0  0  0
  -29.1310  -22.4763   21.1936 H   0  0  0  0  0  0
  -30.7636  -23.2798   17.4895 H   0  0  0  0  0  0
  -31.9865  -24.4232   17.9664 H   0  0  0  0  0  0
  -32.1872  -23.3258   20.2211 H   0  0  0  0  0  0
  -32.5583  -22.3068   18.8510 H   0  0  0  0  0  0
  -28.2442  -24.9386   21.4548 H   0  0  0  0  0  0
  -27.2694  -24.6709   20.0552 H   0  0  0  0  0  0
  -28.8773  -15.2029   21.3087 H   0  0  0  0  0  0
  -32.6476  -19.2670   20.0510 H   0  0  0  0  0  0
  -33.0291  -20.8746   19.5627 H   0  0  0  0  0  0
  1 25  1  0  0  0
  1 30  2  0  0  0
  1 83  1  0  0  0
  2  3  1  0  0  0
  2 25  1  0  0  0
  2 86  1  0  0  0
  2 87  1  0  0  0
  3  4  1  0  0  0
  3 88  1  0  0  0
  3 89  1  0  0  0
  4  5  1  0  0  0
  4 90  1  0  0  0
  4 91  1  0  0  0
  5  6  1  0  0  0
  5 26  1  0  0  0
  5 92  1  0  0  0
  6 25  1  0  0  0
  6 93  1  0  0  0
  6 94  1  0  0  0
  7  8  2  0  0  0
  7 26  1  0  0  0
  7 29  1  0  0  0
  8  9  1  0  0  0
  8 22  1  0  0  0
  9 10  1  0  0  0
  9 27  2  0  0  0
 10 11  2  0  0  0
 10 15  1  0  0  0
 11 12  1  0  0  0
 11 95  1  0  0  0
 12 13  2  0  0  0
 12 96  1  0  0  0
 13 14  1  0  0  0
 13 31  1  0  0  0
 14 15  2  0  0  0
 14 97  1  0  0  0
 15 98  1  0  0  0
 16 17  2  0  0  0
 16 21  1  0  0  0
 16 31  1  0  0  0
 17 18  1  0  0  0
 17 99  1  0  0  0
 18 19  2  0  0  0
 18100  1  0  0  0
 19 20  1  0  0  0
 19 24  1  0  0  0
 20 21  2  0  0  0
 20101  1  0  0  0
 21 23  1  0  0  0
 22 28  1  0  0  0
 22 32  2  0  0  0
 26 27  1  0  0  0
 28102  1  0  0  0
 28103  1  0  0  0
 29104  1  0  0  0
 29105  1  0  0  0
 33 34  1  0  0  0
 33 66  1  0  0  0
 33 70  2  0  0  0
 34 36  1  0  0  0
 34 59  1  0  0  0
 34106  1  0  0  0
 35 44  2  0  0  0
 35 45  1  0  0  0
 35 68  1  0  0  0
 36 56  1  0  0  0
 36107  1  0  0  0
 37 39  1  0  0  0
 37 47  1  0  0  0
 37 66  1  0  0  0
 37108  1  0  0  0
 38 43  2  0  0  0
 38 46  1  0  0  0
 38 47  1  0  0  0
 39 64  1  0  0  0
 39 67  2  0  0  0
 40 52  1  0  0  0
 40 53  2  0  0  0
 40 58  1  0  0  0
 41109  1  0  0  0
 41110  1  0  0  0
 41111  1  0  0  0
 41 48  1  0  0  0
 42 43  1  0  0  0
 42 66  1  0  0  0
 42112  1  0  0  0
 42113  1  0  0  0
 43 44  1  0  0  0
 44114  1  0  0  0
 45 46  2  0  0  0
 45115  1  0  0  0
 46116  1  0  0  0
 47117  1  0  0  0
 47118  1  0  0  0
 48 56  1  0  0  0
 48 65  1  0  0  0
 48119  1  0  0  0
 49 50  1  0  0  0
 49 53  1  0  0  0
 49 64  1  0  0  0
 49120  1  0  0  0
 50 51  1  0  0  0
 50121  1  0  0  0
 50122  1  0  0  0
 51 52  1  0  0  0
 51123  1  0  0  0
 51124  1  0  0  0
 52125  1  0  0  0
 52126  1  0  0  0
 53 54  1  0  0  0
 54 55  2  0  0  0
 54127  1  0  0  0
 55 57  1  0  0  0
 55128  1  0  0  0
 56 69  2  0  0  0
 57 58  2  0  0  0
 57129  1  0  0  0
 58130  1  0  0  0
 59 60  1  0  0  0
 59 61  1  0  0  0
 59 62  1  0  0  0
 60131  1  0  0  0
 60132  1  0  0  0
 60133  1  0  0  0
 61134  1  0  0  0
 61135  1  0  0  0
 61136  1  0  0  0
 62137  1  0  0  0
 62138  1  0  0  0
 62139  1  0  0  0
 63 65  1  0  0  0
 63140  1  0  0  0
 63141  1  0  0  0
 63142  1  0  0  0
 64143  1  0  0  0
 65144  1  0  0  0
 68 80  1  0  0  0
 71 73  1  0  0  0
 71 74  2  0  0  0
 71145  1  0  0  0
 72 73  2  0  0  0
 72 85  1  0  0  0
 72146  1  0  0  0
 73 83  1  0  0  0
 74 76  1  0  0  0
 74 85  1  0  0  0
 75 77  1  0  0  0
 75 80  1  0  0  0
 75 81  2  0  0  0
 76 82  1  0  0  0
 76 84  2  0  0  0
 77 82  1  0  0  0
 77147  1  0  0  0
 77148  1  0  0  0
 78 79  1  0  0  0
 78 81  1  0  0  0
 78149  1  0  0  0
 78150  1  0  0  0
 79 82  1  0  0  0
 79151  1  0  0  0
 79152  1  0  0  0
 80153  1  0  0  0
 80154  1  0  0  0
 83155  1  0  0  0
 84156  1  0  0  0
 84157  1  0  0  0
M  CHG  1  84   1
M  ISO  4   1 100  68 101  80 101  83 100
M  END
> <chiral flag>
0

> <version>
0

> <s_m_source_file>
/data/baiqing/PycharmProjects/Reinvent-master-3.2/result/LINK_invent/BTK/process_docking_weight1_custom_product_contain_oxygen_bond_distance_aromatic_linkinvent_7_9_3/rearranged_h_0158.sdf

> <i_m_source_file_index>
9

> <r_mmod_Potential_Energy-OPLS-2005>
-65.2921829223633

> <r_mmod_Stretch_Energy-OPLS-2005>
85.3327484130859

> <r_mmod_Bend_Energy-OPLS-2005>
166.660278320312

> <r_mmod_Torsional_Energy-OPLS-2005>
228.220626831055

> <r_mmod_Improper_Torsional_Energy-OPLS-2005>
5.57052612304688

> <r_mmod_Van_der_Waal_Energy-OPLS-2005>
154.627456665039

> <r_mmod_Electrostatic_Energy-OPLS-2005>
-272.289001464844

> <r_mmod_Solvation_Energy-OPLS-2005>
-479.318115234375

> <b_mmod_Minimization_Converged-OPLS-2005>
0

> <r_mmod_RMS_Derivative-OPLS-2005>
3.26397156715393

$$$$
9
                    3D
 Structure written by MMmdl.
149157  0  0  1  0            999 V2000
  -30.4792  -15.1171   20.3915 C   0  0  0  0  0  0
  -30.4439  -12.7031   19.5155 C   0  0  0  0  0  0
  -29.5335  -12.5581   18.2730 C   0  0  0  0  0  0
  -28.0713  -12.3099   18.6871 C   0  0  0  0  0  0
  -27.6228  -13.2589   19.8278 C   0  0  2  0  0  0
  -28.6608  -13.3601   20.9661 C   0  0  0  0  0  0
  -25.2447  -13.8213   20.5668 C   0  0  0  0  0  0
  -24.1777  -13.0435   20.9221 C   0  0  0  0  0  0
  -24.6417  -11.6919   20.8757 C   0  0  0  0  0  0
  -23.9102  -10.4295   21.0405 C   0  0  0  0  0  0
  -24.3647   -9.4205   21.9176 C   0  0  0  0  0  0
  -23.6320   -8.2243   22.0747 C   0  0  0  0  0  0
  -22.4298   -8.0287   21.3538 C   0  0  0  0  0  0
  -21.9938   -9.0263   20.4637 C   0  0  0  0  0  0
  -22.7277  -10.2137   20.3046 C   0  0  0  0  0  0
  -21.6861   -6.0751   22.5274 C   0  0  0  0  0  0
  -21.4022   -6.5645   23.8217 C   0  0  0  0  0  0
  -21.3652   -5.6793   24.9168 C   0  0  0  0  0  0
  -21.6046   -4.3050   24.7212 C   0  0  0  0  0  0
  -21.8822   -3.8156   23.4334 C   0  0  0  0  0  0
  -21.9197   -4.6974   22.3398 C   0  0  0  0  0  0
  -22.7803  -13.5199   21.1855 C   0  0  0  0  0  0
  -22.1664   -4.2157   21.0975 F   0  0  0  0  0  0
  -21.5623   -3.4544   25.7726 F   0  0  0  0  0  0
  -29.9154  -13.8249   20.3580 N   0  0  0  0  0  0
  -26.2863  -12.9457   20.3191 N   0  0  0  0  0  0
  -25.9348  -11.6582   20.5733 N   0  0  0  0  0  0
  -22.0437  -12.8221   22.0412 N   0  0  0  0  0  0
  -25.4098  -15.1942   20.4053 N   0  0  0  0  0  0
  -31.6947  -15.1482   20.1532 O   0  0  0  0  0  0
  -21.6648   -6.8893   21.4237 O   0  0  0  0  0  0
  -22.3492  -14.5496   20.6673 O   0  0  0  0  0  0
  -24.6545  -31.8335   23.1796 C   0  0  0  0  0  0
  -25.9263  -32.4637   23.8233 C   0  0  1  0  0  0
  -27.2110  -27.0273   20.1728 C   0  0  0  0  0  0
  -25.5966  -33.8451   24.2126 N   0  0  0  0  0  0
  -23.4643  -30.4486   21.5292 C   0  0  2  0  0  0
  -24.9135  -28.8598   20.1092 C   0  0  0  0  0  0
  -22.7625  -29.4472   22.4823 C   0  0  0  0  0  0
  -18.0318  -28.1415   22.8483 C   0  0  0  0  0  0
  -24.1499  -36.7213   23.2641 C   0  0  0  0  0  0
  -26.0277  -30.6730   21.3950 C   0  0  0  0  0  0
  -26.0955  -29.2754   20.7349 C   0  0  0  0  0  0
  -27.2441  -28.3795   20.7431 C   0  0  0  0  0  0
  -25.9993  -26.7391   19.5067 C   0  0  0  0  0  0
  -24.8859  -27.6107   19.4720 C   0  0  0  0  0  0
  -23.6967  -29.7758   20.1496 C   0  0  0  0  0  0
  -25.4137  -36.2979   24.0296 C   0  0  1  0  0  0
  -20.5935  -28.3734   23.1223 C   0  0  2  0  0  0
  -20.6792  -26.9425   22.5412 C   0  0  0  0  0  0
  -19.5757  -26.6384   21.5229 C   0  0  0  0  0  0
  -18.1944  -26.7954   22.1638 C   0  0  0  0  0  0
  -19.1578  -28.8898   23.2844 C   0  0  0  0  0  0
  -18.9480  -30.1495   23.8861 C   0  0  0  0  0  0
  -17.6469  -30.6597   24.0562 C   0  0  0  0  0  0
  -25.9101  -34.9369   23.5022 C   0  0  0  0  0  0
  -16.5363  -29.9081   23.6351 C   0  0  0  0  0  0
  -16.7304  -28.6513   23.0354 C   0  0  0  0  0  0
  -26.4548  -31.6557   25.0735 C   0  0  0  0  0  0
  -25.3706  -31.3745   26.1408 C   0  0  0  0  0  0
  -27.0417  -30.2935   24.6399 C   0  0  0  0  0  0
  -27.6079  -32.4335   25.7515 C   0  0  0  0  0  0
  -27.5576  -37.1752   24.8461 C   0  0  0  0  0  0
  -21.4306  -29.3032   22.3573 N   0  0  0  0  0  0
  -26.4280  -37.3713   23.9407 N   0  0  0  0  0  0
  -24.7363  -31.0086   22.0889 N   0  0  0  0  0  0
  -23.4217  -28.8025   23.3017 O   0  0  0  0  0  0
  -28.2291  -25.9711   20.2427 O   0  0  0  0  0  0
  -26.5710  -34.8888   22.4615 O   0  0  0  0  0  0
  -23.5634  -32.1272   23.6937 O   0  0  0  0  0  0
  -30.8305  -19.9335   20.2638 C   0  0  0  0  0  0
  -29.4958  -20.3198   20.3402 C   0  0  0  0  0  0
  -29.8676  -17.8816   20.4112 C   0  0  0  0  0  0
  -28.9905  -23.1212   20.3070 C   0  0  0  0  0  0
  -31.5333  -23.0584   20.6582 C   0  0  0  0  0  0
  -27.9051  -24.3994   20.1466 C   0  0  0  0  0  0
  -31.0418  -18.5200   20.3226 N   0  0  0  0  0  0
  -28.7335  -21.6644   20.2752 N   0  0  0  0  0  0
  -29.6699  -16.3227   20.4876 N   0  0  0  0  0  0
  -30.2144  -23.6556   20.4748 N   0  3  0  0  0  0
  -28.8927  -18.9555   20.4236 O   0  0  0  0  0  0
  -31.4674  -12.8899   19.1904 H   0  0  0  0  0  0
  -30.4788  -11.7717   20.0835 H   0  0  0  0  0  0
  -29.8961  -11.7515   17.6327 H   0  0  0  0  0  0
  -29.5874  -13.4709   17.6765 H   0  0  0  0  0  0
  -27.9929  -11.2740   19.0175 H   0  0  0  0  0  0
  -27.4094  -12.4065   17.8247 H   0  0  0  0  0  0
  -27.5636  -14.2445   19.3639 H   0  0  0  0  0  0
  -28.7902  -12.4043   21.4775 H   0  0  0  0  0  0
  -28.3265  -14.0734   21.7205 H   0  0  0  0  0  0
  -25.2787   -9.5701   22.4752 H   0  0  0  0  0  0
  -24.0028   -7.4655   22.7489 H   0  0  0  0  0  0
  -21.0849   -8.8807   19.8964 H   0  0  0  0  0  0
  -22.3740  -10.9682   19.6163 H   0  0  0  0  0  0
  -21.2022   -7.6156   23.9724 H   0  0  0  0  0  0
  -21.1463   -6.0514   25.9074 H   0  0  0  0  0  0
  -22.0607   -2.7615   23.2828 H   0  0  0  0  0  0
  -22.4042  -11.9909   22.4872 H   0  0  0  0  0  0
  -21.1047  -13.1261   22.2544 H   0  0  0  0  0  0
  -24.6339  -15.8407   20.4987 H   0  0  0  0  0  0
  -26.2409  -15.6290   20.0265 H   0  0  0  0  0  0
  -26.7342  -32.5205   23.0968 H   0  0  0  0  0  0
  -25.0036  -33.9557   25.0218 H   0  0  0  0  0  0
  -22.7750  -31.2802   21.3693 H   0  0  0  0  0  0
  -23.3774  -35.9530   23.3270 H   0  0  0  0  0  0
  -24.3582  -36.8895   22.2065 H   0  0  0  0  0  0
  -23.7254  -37.6386   23.6727 H   0  0  0  0  0  0
  -26.2031  -31.4235   20.6230 H   0  0  0  0  0  0
  -26.8898  -30.7192   22.0489 H   0  0  0  0  0  0
  -28.1421  -28.6953   21.2558 H   0  0  0  0  0  0
  -25.8766  -25.7807   19.0263 H   0  0  0  0  0  0
  -23.9878  -27.2890   18.9633 H   0  0  0  0  0  0
  -23.8448  -30.5522   19.3979 H   0  0  0  0  0  0
  -22.8098  -29.2254   19.8302 H   0  0  0  0  0  0
  -25.1334  -36.1778   25.0788 H   0  0  0  0  0  0
  -21.0048  -28.3335   24.1335 H   0  0  0  0  0  0
  -20.5689  -26.2343   23.3637 H   0  0  0  0  0  0
  -21.6652  -26.7415   22.1199 H   0  0  0  0  0  0
  -19.6901  -25.6289   21.1265 H   0  0  0  0  0  0
  -19.6692  -27.3193   20.6757 H   0  0  0  0  0  0
  -17.4211  -26.6716   21.4040 H   0  0  0  0  0  0
  -18.0320  -26.0111   22.9045 H   0  0  0  0  0  0
  -19.7945  -30.7342   24.2200 H   0  0  0  0  0  0
  -17.5005  -31.6273   24.5164 H   0  0  0  0  0  0
  -15.5357  -30.2951   23.7696 H   0  0  0  0  0  0
  -15.8712  -28.0820   22.7060 H   0  0  0  0  0  0
  -24.5921  -30.7072   25.7694 H   0  0  0  0  0  0
  -24.8862  -32.2911   26.4779 H   0  0  0  0  0  0
  -25.7969  -30.8947   27.0229 H   0  0  0  0  0  0
  -26.3051  -29.6648   24.1395 H   0  0  0  0  0  0
  -27.3949  -29.7267   25.5021 H   0  0  0  0  0  0
  -27.9001  -30.4121   23.9790 H   0  0  0  0  0  0
  -27.2694  -33.3670   26.2017 H   0  0  0  0  0  0
  -28.3924  -32.6835   25.0363 H   0  0  0  0  0  0
  -28.0725  -31.8523   26.5489 H   0  0  0  0  0  0
  -28.2547  -38.0088   24.7532 H   0  0  0  0  0  0
  -28.1108  -36.2612   24.6251 H   0  0  0  0  0  0
  -27.2292  -37.1353   25.8861 H   0  0  0  0  0  0
  -20.9536  -29.8730   21.6727 H   0  0  0  0  0  0
  -26.0122  -38.2758   24.1454 H   0  0  0  0  0  0
  -31.7096  -20.5439   20.1561 H   0  0  0  0  0  0
  -32.2506  -23.8386   20.9119 H   0  0  0  0  0  0
  -31.8749  -22.5927   19.7346 H   0  0  0  0  0  0
  -31.5261  -22.3410   21.4771 H   0  0  0  0  0  0
  -27.1120  -24.2148   20.8718 H   0  0  0  0  0  0
  -27.4353  -24.2443   19.1771 H   0  0  0  0  0  0
  -27.7577  -21.4124   20.2291 H   0  0  0  0  0  0
  -28.7010  -16.0848   20.6200 H   0  0  0  0  0  0
  -30.2182  -24.6677   20.4605 H   0  0  0  0  0  0
  1 25  1  0  0  0
  1 30  2  0  0  0
  1 79  1  0  0  0
  2  3  1  0  0  0
  2 25  1  0  0  0
  2 82  1  0  0  0
  2 83  1  0  0  0
  3  4  1  0  0  0
  3 84  1  0  0  0
  3 85  1  0  0  0
  4  5  1  0  0  0
  4 86  1  0  0  0
  4 87  1  0  0  0
  5  6  1  0  0  0
  5 26  1  0  0  0
  5 88  1  0  0  0
  6 25  1  0  0  0
  6 89  1  0  0  0
  6 90  1  0  0  0
  7  8  2  0  0  0
  7 26  1  0  0  0
  7 29  1  0  0  0
  8  9  1  0  0  0
  8 22  1  0  0  0
  9 10  1  0  0  0
  9 27  2  0  0  0
 10 11  2  0  0  0
 10 15  1  0  0  0
 11 12  1  0  0  0
 11 91  1  0  0  0
 12 13  2  0  0  0
 12 92  1  0  0  0
 13 14  1  0  0  0
 13 31  1  0  0  0
 14 15  2  0  0  0
 14 93  1  0  0  0
 15 94  1  0  0  0
 16 17  2  0  0  0
 16 21  1  0  0  0
 16 31  1  0  0  0
 17 18  1  0  0  0
 17 95  1  0  0  0
 18 19  2  0  0  0
 18 96  1  0  0  0
 19 20  1  0  0  0
 19 24  1  0  0  0
 20 21  2  0  0  0
 20 97  1  0  0  0
 21 23  1  0  0  0
 22 28  1  0  0  0
 22 32  2  0  0  0
 26 27  1  0  0  0
 28 98  1  0  0  0
 28 99  1  0  0  0
 29100  1  0  0  0
 29101  1  0  0  0
 33 34  1  0  0  0
 33 66  1  0  0  0
 33 70  2  0  0  0
 34 36  1  0  0  0
 34 59  1  0  0  0
 34102  1  0  0  0
 35 44  2  0  0  0
 35 45  1  0  0  0
 35 68  1  0  0  0
 36 56  1  0  0  0
 36103  1  0  0  0
 37 39  1  0  0  0
 37 47  1  0  0  0
 37 66  1  0  0  0
 37104  1  0  0  0
 38 43  2  0  0  0
 38 46  1  0  0  0
 38 47  1  0  0  0
 39 64  1  0  0  0
 39 67  2  0  0  0
 40 52  1  0  0  0
 40 53  2  0  0  0
 40 58  1  0  0  0
 41105  1  0  0  0
 41106  1  0  0  0
 41107  1  0  0  0
 41 48  1  0  0  0
 42 43  1  0  0  0
 42 66  1  0  0  0
 42108  1  0  0  0
 42109  1  0  0  0
 43 44  1  0  0  0
 44110  1  0  0  0
 45 46  2  0  0  0
 45111  1  0  0  0
 46112  1  0  0  0
 47113  1  0  0  0
 47114  1  0  0  0
 48 56  1  0  0  0
 48 65  1  0  0  0
 48115  1  0  0  0
 49 50  1  0  0  0
 49 53  1  0  0  0
 49 64  1  0  0  0
 49116  1  0  0  0
 50 51  1  0  0  0
 50117  1  0  0  0
 50118  1  0  0  0
 51 52  1  0  0  0
 51119  1  0  0  0
 51120  1  0  0  0
 52121  1  0  0  0
 52122  1  0  0  0
 53 54  1  0  0  0
 54 55  2  0  0  0
 54123  1  0  0  0
 55 57  1  0  0  0
 55124  1  0  0  0
 56 69  2  0  0  0
 57 58  2  0  0  0
 57125  1  0  0  0
 58126  1  0  0  0
 59 60  1  0  0  0
 59 61  1  0  0  0
 59 62  1  0  0  0
 60127  1  0  0  0
 60128  1  0  0  0
 60129  1  0  0  0
 61130  1  0  0  0
 61131  1  0  0  0
 61132  1  0  0  0
 62133  1  0  0  0
 62134  1  0  0  0
 62135  1  0  0  0
 63 65  1  0  0  0
 63136  1  0  0  0
 63137  1  0  0  0
 63138  1  0  0  0
 64139  1  0  0  0
 65140  1  0  0  0
 68 76  1  0  0  0
 71 72  2  0  0  0
 71 77  1  0  0  0
 71141  1  0  0  0
 72 78  1  0  0  0
 72 81  1  0  0  0
 73 77  2  0  0  0
 73 79  1  0  0  0
 73 81  1  0  0  0
 74 76  1  0  0  0
 74 78  1  0  0  0
 74 80  2  0  0  0
 75 80  1  0  0  0
 75142  1  0  0  0
 75143  1  0  0  0
 75144  1  0  0  0
 76145  1  0  0  0
 76146  1  0  0  0
 78147  1  0  0  0
 79148  1  0  0  0
 80149  1  0  0  0
M  CHG  1  80   1
M  ISO  4   1 100  68 101  76 101  79 100
M  END
> <chiral flag>
0

> <version>
0

> <s_m_source_file>
/data/baiqing/PycharmProjects/Reinvent-master-3.2/result/LINK_invent/BTK/process_docking_weight1_custom_product_contain_oxygen_bond_distance_aromatic_linkinvent_7_9_3/rearranged_h_0158.sdf

> <i_m_source_file_index>
10

> <r_mmod_Potential_Energy-OPLS-2005>
595.344177246094

> <r_mmod_Stretch_Energy-OPLS-2005>
386.122772216797

> <r_mmod_Bend_Energy-OPLS-2005>
339.557403564453

> <r_mmod_Torsional_Energy-OPLS-2005>
200.274230957031

> <r_mmod_Improper_Torsional_Energy-OPLS-2005>
4.54120349884033

> <r_mmod_Van_der_Waal_Energy-OPLS-2005>
114.300064086914

> <r_mmod_Electrostatic_Energy-OPLS-2005>
-306.307250976562

> <r_mmod_Solvation_Energy-OPLS-2005>
-461.162719726562

> <b_mmod_Minimization_Converged-OPLS-2005>
0

> <r_mmod_RMS_Derivative-OPLS-2005>
2.28671884536743

$$$$
10
                    3D
 Structure written by MMmdl.
152160  0  0  1  0            999 V2000
  -30.6128  -14.7489   20.4625 C   0  0  0  0  0  0
  -30.4326  -12.4616   19.4686 C   0  0  0  0  0  0
  -29.5087  -12.5036   18.2323 C   0  0  0  0  0  0
  -28.0357  -12.3269   18.6492 C   0  0  0  0  0  0
  -27.6395  -13.2311   19.8471 C   0  0  2  0  0  0
  -28.6852  -13.1726   20.9807 C   0  0  0  0  0  0
  -25.2505  -13.8193   20.5696 C   0  0  0  0  0  0
  -24.1797  -13.0436   20.9207 C   0  0  0  0  0  0
  -24.6389  -11.6916   20.8747 C   0  0  0  0  0  0
  -23.9068  -10.4291   21.0406 C   0  0  0  0  0  0
  -24.3619   -9.4206   21.9181 C   0  0  0  0  0  0
  -23.6294   -8.2244   22.0755 C   0  0  0  0  0  0
  -22.4277   -8.0278   21.3548 C   0  0  0  0  0  0
  -21.9914   -9.0254   20.4654 C   0  0  0  0  0  0
  -22.7241  -10.2132   20.3060 C   0  0  0  0  0  0
  -21.6855   -6.0730   22.5274 C   0  0  0  0  0  0
  -21.4012   -6.5633   23.8207 C   0  0  0  0  0  0
  -21.3665   -5.6789   24.9170 C   0  0  0  0  0  0
  -21.6049   -4.3051   24.7225 C   0  0  0  0  0  0
  -21.8819   -3.8141   23.4346 C   0  0  0  0  0  0
  -21.9194   -4.6957   22.3400 C   0  0  0  0  0  0
  -22.7821  -13.5221   21.1863 C   0  0  0  0  0  0
  -22.1664   -4.2141   21.0978 F   0  0  0  0  0  0
  -21.5637   -3.4536   25.7740 F   0  0  0  0  0  0
  -29.9815  -13.5272   20.3927 N   0  0  0  0  0  0
  -26.2925  -12.9396   20.3267 N   0  0  0  0  0  0
  -25.9316  -11.6538   20.5747 N   0  0  0  0  0  0
  -22.0467  -12.8218   22.0423 N   0  0  0  0  0  0
  -25.4195  -15.1919   20.4122 N   0  0  0  0  0  0
  -31.8090  -14.8327   20.1715 O   0  0  0  0  0  0
  -21.6643   -6.8874   21.4237 O   0  0  0  0  0  0
  -22.3508  -14.5525   20.6705 O   0  0  0  0  0  0
  -24.6287  -31.8549   23.1966 C   0  0  0  0  0  0
  -25.9114  -32.4755   23.8314 C   0  0  1  0  0  0
  -27.2231  -27.2692   20.1441 C   0  0  0  0  0  0
  -25.5911  -33.8559   24.2238 N   0  0  0  0  0  0
  -23.4261  -30.4742   21.5399 C   0  0  2  0  0  0
  -24.8740  -28.9123   20.1160 C   0  0  0  0  0  0
  -22.7488  -29.4596   22.4922 C   0  0  0  0  0  0
  -18.0286  -28.1382   22.8486 C   0  0  0  0  0  0
  -24.1485  -36.7290   23.2645 C   0  0  0  0  0  0
  -25.9690  -30.7708   21.3740 C   0  0  0  0  0  0
  -26.0433  -29.3911   20.7216 C   0  0  0  0  0  0
  -27.2230  -28.5836   20.7179 C   0  0  0  0  0  0
  -26.0348  -26.8449   19.5184 C   0  0  0  0  0  0
  -24.8736  -27.6465   19.5037 C   0  0  0  0  0  0
  -23.6447  -29.8000   20.1585 C   0  0  0  0  0  0
  -25.4113  -36.3073   24.0327 C   0  0  1  0  0  0
  -20.5888  -28.3688   23.1279 C   0  0  2  0  0  0
  -20.6774  -26.9407   22.5415 C   0  0  0  0  0  0
  -19.5751  -26.6376   21.5215 C   0  0  0  0  0  0
  -18.1929  -26.7923   22.1623 C   0  0  0  0  0  0
  -19.1540  -28.8851   23.2878 C   0  0  0  0  0  0
  -18.9465  -30.1455   23.8890 C   0  0  0  0  0  0
  -17.6464  -30.6585   24.0561 C   0  0  0  0  0  0
  -25.9055  -34.9445   23.5090 C   0  0  0  0  0  0
  -16.5354  -29.9084   23.6330 C   0  0  0  0  0  0
  -16.7274  -28.6505   23.0348 C   0  0  0  0  0  0
  -26.4488  -31.6583   25.0704 C   0  0  0  0  0  0
  -25.3717  -31.3747   26.1429 C   0  0  0  0  0  0
  -27.0330  -30.2993   24.6197 C   0  0  0  0  0  0
  -27.6029  -32.4336   25.7482 C   0  0  0  0  0  0
  -27.5579  -37.1802   24.8464 C   0  0  0  0  0  0
  -21.4196  -29.3040   22.3670 N   0  0  0  0  0  0
  -26.4288  -37.3773   23.9412 N   0  0  0  0  0  0
  -24.6936  -31.0520   22.0934 N   0  0  0  0  0  0
  -23.4193  -28.8146   23.3023 O   0  0  0  0  0  0
  -28.3443  -26.4143   20.1307 O   0  0  0  0  0  0
  -26.5640  -34.8926   22.4668 O   0  0  0  0  0  0
  -23.5441  -32.1364   23.7272 O   0  0  0  0  0  0
  -29.8383  -20.0066   20.8948 C   0  0  0  0  0  0
  -28.4030  -18.6885   19.6661 C   0  0  0  0  0  0
  -29.5217  -18.6322   20.4640 C   0  0  0  0  0  0
  -29.0199  -21.0540   20.4374 C   0  0  0  0  0  0
  -27.3675  -25.0048   21.9706 C   0  0  0  0  0  0
  -30.3652  -17.3318   20.8098 C   0  0  0  0  0  0
  -28.4141  -23.6401   20.0156 C   0  0  0  0  0  0
  -28.3675  -25.0653   20.8030 C   0  0  1  0  0  0
  -29.0886  -22.4774   20.7287 N   0  0  0  0  0  0
  -29.8570  -15.8964   20.6673 N   0  0  0  0  0  0
  -27.7876  -20.3339   19.4264 S   0  0  0  0  0  0
  -31.4719  -12.5915   19.1622 H   0  0  0  0  0  0
  -30.3854  -11.4868   19.9567 H   0  0  0  0  0  0
  -29.7921  -11.7250   17.5230 H   0  0  0  0  0  0
  -29.6339  -13.4536   17.7105 H   0  0  0  0  0  0
  -27.8971  -11.2793   18.9188 H   0  0  0  0  0  0
  -27.3765  -12.5111   17.8003 H   0  0  0  0  0  0
  -27.6314  -14.2508   19.4617 H   0  0  0  0  0  0
  -28.7250  -12.1767   21.4249 H   0  0  0  0  0  0
  -28.4211  -13.8592   21.7867 H   0  0  0  0  0  0
  -25.2766   -9.5683   22.4753 H   0  0  0  0  0  0
  -24.0005   -7.4635   22.7476 H   0  0  0  0  0  0
  -21.0847   -8.8772   19.8962 H   0  0  0  0  0  0
  -22.3697  -10.9669   19.6172 H   0  0  0  0  0  0
  -21.1996   -7.6140   23.9707 H   0  0  0  0  0  0
  -21.1493   -6.0518   25.9073 H   0  0  0  0  0  0
  -22.0595   -2.7602   23.2849 H   0  0  0  0  0  0
  -22.4084  -11.9884   22.4822 H   0  0  0  0  0  0
  -21.1085  -13.1243   22.2622 H   0  0  0  0  0  0
  -24.6532  -15.8459   20.5314 H   0  0  0  0  0  0
  -26.2666  -15.6330   20.0802 H   0  0  0  0  0  0
  -26.7175  -32.5408   23.1056 H   0  0  0  0  0  0
  -25.0028  -33.9690   25.0361 H   0  0  0  0  0  0
  -22.7217  -31.2952   21.3903 H   0  0  0  0  0  0
  -23.3748  -35.9623   23.3305 H   0  0  0  0  0  0
  -24.3576  -36.8917   22.2061 H   0  0  0  0  0  0
  -23.7236  -37.6489   23.6675 H   0  0  0  0  0  0
  -26.1055  -31.5299   20.6025 H   0  0  0  0  0  0
  -26.8471  -30.8216   22.0067 H   0  0  0  0  0  0
  -28.1247  -28.9513   21.1870 H   0  0  0  0  0  0
  -26.0048  -25.8716   19.0493 H   0  0  0  0  0  0
  -23.9774  -27.2730   19.0275 H   0  0  0  0  0  0
  -23.7707  -30.5724   19.3990 H   0  0  0  0  0  0
  -22.7633  -29.2330   19.8541 H   0  0  0  0  0  0
  -25.1297  -36.1921   25.0821 H   0  0  0  0  0  0
  -20.9981  -28.3262   24.1399 H   0  0  0  0  0  0
  -20.5666  -26.2297   23.3617 H   0  0  0  0  0  0
  -21.6642  -26.7424   22.1214 H   0  0  0  0  0  0
  -19.6914  -25.6288   21.1245 H   0  0  0  0  0  0
  -19.6689  -27.3186   20.6745 H   0  0  0  0  0  0
  -17.4200  -26.6667   21.4026 H   0  0  0  0  0  0
  -18.0330  -26.0064   22.9019 H   0  0  0  0  0  0
  -19.7942  -30.7275   24.2249 H   0  0  0  0  0  0
  -17.5020  -31.6263   24.5165 H   0  0  0  0  0  0
  -15.5356  -30.2986   23.7660 H   0  0  0  0  0  0
  -15.8670  -28.0827   22.7058 H   0  0  0  0  0  0
  -24.5868  -30.7124   25.7761 H   0  0  0  0  0  0
  -24.8941  -32.2928   26.4863 H   0  0  0  0  0  0
  -25.8033  -30.8908   27.0199 H   0  0  0  0  0  0
  -26.2909  -29.6746   24.1209 H   0  0  0  0  0  0
  -27.3983  -29.7256   25.4727 H   0  0  0  0  0  0
  -27.8803  -30.4252   23.9451 H   0  0  0  0  0  0
  -27.2610  -33.3628   26.2054 H   0  0  0  0  0  0
  -28.3844  -32.6916   25.0323 H   0  0  0  0  0  0
  -28.0690  -31.8473   26.5411 H   0  0  0  0  0  0
  -28.2595  -38.0100   24.7510 H   0  0  0  0  0  0
  -28.1075  -36.2633   24.6288 H   0  0  0  0  0  0
  -27.2301  -37.1448   25.8868 H   0  0  0  0  0  0
  -20.9377  -29.8757   21.6872 H   0  0  0  0  0  0
  -26.0166  -38.2848   24.1412 H   0  0  0  0  0  0
  -30.6906  -20.1772   21.5371 H   0  0  0  0  0  0
  -27.9034  -17.8646   19.1716 H   0  0  0  0  0  0
  -27.4426  -25.8877   22.6058 H   0  0  0  0  0  0
  -27.5554  -24.1341   22.5994 H   0  0  0  0  0  0
  -26.3403  -24.9328   21.6139 H   0  0  0  0  0  0
  -30.6923  -17.4139   21.8474 H   0  0  0  0  0  0
  -31.2924  -17.3931   20.2379 H   0  0  0  0  0  0
  -28.9576  -23.7913   19.0819 H   0  0  0  0  0  0
  -27.4028  -23.3538   19.7239 H   0  0  0  0  0  0
  -29.3472  -25.1168   21.2793 H   0  0  0  0  0  0
  -29.7998  -22.7700   21.3956 H   0  0  0  0  0  0
  -28.8717  -15.7580   20.8280 H   0  0  0  0  0  0
  1 25  1  0  0  0
  1 30  2  0  0  0
  1 80  1  0  0  0
  2  3  1  0  0  0
  2 25  1  0  0  0
  2 82  1  0  0  0
  2 83  1  0  0  0
  3  4  1  0  0  0
  3 84  1  0  0  0
  3 85  1  0  0  0
  4  5  1  0  0  0
  4 86  1  0  0  0
  4 87  1  0  0  0
  5  6  1  0  0  0
  5 26  1  0  0  0
  5 88  1  0  0  0
  6 25  1  0  0  0
  6 89  1  0  0  0
  6 90  1  0  0  0
  7  8  2  0  0  0
  7 26  1  0  0  0
  7 29  1  0  0  0
  8  9  1  0  0  0
  8 22  1  0  0  0
  9 10  1  0  0  0
  9 27  2  0  0  0
 10 11  2  0  0  0
 10 15  1  0  0  0
 11 12  1  0  0  0
 11 91  1  0  0  0
 12 13  2  0  0  0
 12 92  1  0  0  0
 13 14  1  0  0  0
 13 31  1  0  0  0
 14 15  2  0  0  0
 14 93  1  0  0  0
 15 94  1  0  0  0
 16 17  2  0  0  0
 16 21  1  0  0  0
 16 31  1  0  0  0
 17 18  1  0  0  0
 17 95  1  0  0  0
 18 19  2  0  0  0
 18 96  1  0  0  0
 19 20  1  0  0  0
 19 24  1  0  0  0
 20 21  2  0  0  0
 20 97  1  0  0  0
 21 23  1  0  0  0
 22 28  1  0  0  0
 22 32  2  0  0  0
 26 27  1  0  0  0
 28 98  1  0  0  0
 28 99  1  0  0  0
 29100  1  0  0  0
 29101  1  0  0  0
 33 34  1  0  0  0
 33 66  1  0  0  0
 33 70  2  0  0  0
 34 36  1  0  0  0
 34 59  1  0  0  0
 34102  1  0  0  0
 35 44  2  0  0  0
 35 45  1  0  0  0
 35 68  1  0  0  0
 36 56  1  0  0  0
 36103  1  0  0  0
 37 39  1  0  0  0
 37 47  1  0  0  0
 37 66  1  0  0  0
 37104  1  0  0  0
 38 43  2  0  0  0
 38 46  1  0  0  0
 38 47  1  0  0  0
 39 64  1  0  0  0
 39 67  2  0  0  0
 40 52  1  0  0  0
 40 53  2  0  0  0
 40 58  1  0  0  0
 41105  1  0  0  0
 41106  1  0  0  0
 41107  1  0  0  0
 41 48  1  0  0  0
 42 43  1  0  0  0
 42 66  1  0  0  0
 42108  1  0  0  0
 42109  1  0  0  0
 43 44  1  0  0  0
 44110  1  0  0  0
 45 46  2  0  0  0
 45111  1  0  0  0
 46112  1  0  0  0
 47113  1  0  0  0
 47114  1  0  0  0
 48 56  1  0  0  0
 48 65  1  0  0  0
 48115  1  0  0  0
 49 50  1  0  0  0
 49 53  1  0  0  0
 49 64  1  0  0  0
 49116  1  0  0  0
 50 51  1  0  0  0
 50117  1  0  0  0
 50118  1  0  0  0
 51 52  1  0  0  0
 51119  1  0  0  0
 51120  1  0  0  0
 52121  1  0  0  0
 52122  1  0  0  0
 53 54  1  0  0  0
 54 55  2  0  0  0
 54123  1  0  0  0
 55 57  1  0  0  0
 55124  1  0  0  0
 56 69  2  0  0  0
 57 58  2  0  0  0
 57125  1  0  0  0
 58126  1  0  0  0
 59 60  1  0  0  0
 59 61  1  0  0  0
 59 62  1  0  0  0
 60127  1  0  0  0
 60128  1  0  0  0
 60129  1  0  0  0
 61130  1  0  0  0
 61131  1  0  0  0
 61132  1  0  0  0
 62133  1  0  0  0
 62134  1  0  0  0
 62135  1  0  0  0
 63 65  1  0  0  0
 63136  1  0  0  0
 63137  1  0  0  0
 63138  1  0  0  0
 64139  1  0  0  0
 65140  1  0  0  0
 68 78  1  0  0  0
 71 73  1  0  0  0
 71 74  2  0  0  0
 71141  1  0  0  0
 72 73  2  0  0  0
 72 81  1  0  0  0
 72142  1  0  0  0
 73 76  1  0  0  0
 74 79  1  0  0  0
 74 81  1  0  0  0
 75143  1  0  0  0
 75144  1  0  0  0
 75145  1  0  0  0
 75 78  1  0  0  0
 76 80  1  0  0  0
 76146  1  0  0  0
 76147  1  0  0  0
 77 78  1  0  0  0
 77 79  1  0  0  0
 77148  1  0  0  0
 77149  1  0  0  0
 78150  1  0  0  0
 79151  1  0  0  0
 80152  1  0  0  0
M  ISO  4   1 100  68 101  78 101  80 100
M  END
> <chiral flag>
0

> <version>
0

> <s_m_source_file>
/data/baiqing/PycharmProjects/Reinvent-master-3.2/result/LINK_invent/BTK/process_docking_weight1_custom_product_contain_oxygen_bond_distance_aromatic_linkinvent_7_9_3/rearranged_h_0158.sdf

> <i_m_source_file_index>
11

> <r_mmod_Potential_Energy-OPLS-2005>
51.8880996704102

> <r_mmod_Stretch_Energy-OPLS-2005>
115.699264526367

> <r_mmod_Bend_Energy-OPLS-2005>
185.631332397461

> <r_mmod_Torsional_Energy-OPLS-2005>
219.686431884766

> <r_mmod_Improper_Torsional_Energy-OPLS-2005>
4.59219980239868

> <r_mmod_Van_der_Waal_Energy-OPLS-2005>
111.54362487793

> <r_mmod_Electrostatic_Energy-OPLS-2005>
-439.502105712891

> <r_mmod_Solvation_Energy-OPLS-2005>
-227.108703613281

> <b_mmod_Minimization_Converged-OPLS-2005>
0

> <r_mmod_RMS_Derivative-OPLS-2005>
0.760051906108856

$$$$
11
                    3D
 Structure written by MMmdl.
155165  0  0  1  0            999 V2000
  -30.6523  -14.6225   20.5150 C   0  0  0  0  0  0
  -30.4334  -12.3909   19.4355 C   0  0  0  0  0  0
  -29.5013  -12.5034   18.2105 C   0  0  0  0  0  0
  -28.0235  -12.3452   18.6265 C   0  0  0  0  0  0
  -27.6472  -13.2189   19.8530 C   0  0  2  0  0  0
  -28.6975  -13.0926   20.9787 C   0  0  0  0  0  0
  -25.2547  -13.8175   20.5678 C   0  0  0  0  0  0
  -24.1823  -13.0437   20.9206 C   0  0  0  0  0  0
  -24.6393  -11.6905   20.8744 C   0  0  0  0  0  0
  -23.9062  -10.4289   21.0398 C   0  0  0  0  0  0
  -24.3621   -9.4207   21.9176 C   0  0  0  0  0  0
  -23.6301   -8.2238   22.0744 C   0  0  0  0  0  0
  -22.4279   -8.0278   21.3541 C   0  0  0  0  0  0
  -21.9912   -9.0248   20.4640 C   0  0  0  0  0  0
  -22.7236  -10.2130   20.3047 C   0  0  0  0  0  0
  -21.6855   -6.0732   22.5279 C   0  0  0  0  0  0
  -21.4018   -6.5633   23.8213 C   0  0  0  0  0  0
  -21.3663   -5.6785   24.9176 C   0  0  0  0  0  0
  -21.6047   -4.3048   24.7224 C   0  0  0  0  0  0
  -21.8824   -3.8139   23.4346 C   0  0  0  0  0  0
  -21.9198   -4.6958   22.3404 C   0  0  0  0  0  0
  -22.7843  -13.5219   21.1870 C   0  0  0  0  0  0
  -22.1664   -4.2143   21.0978 F   0  0  0  0  0  0
  -21.5633   -3.4532   25.7739 F   0  0  0  0  0  0
  -30.0054  -13.4232   20.3960 N   0  0  0  0  0  0
  -26.2964  -12.9353   20.3283 N   0  0  0  0  0  0
  -25.9322  -11.6508   20.5747 N   0  0  0  0  0  0
  -22.0488  -12.8208   22.0428 N   0  0  0  0  0  0
  -25.4235  -15.1904   20.4076 N   0  0  0  0  0  0
  -31.8478  -14.7421   20.2342 O   0  0  0  0  0  0
  -21.6645   -6.8876   21.4238 O   0  0  0  0  0  0
  -22.3521  -14.5523   20.6713 O   0  0  0  0  0  0
  -24.6274  -31.8628   23.2070 C   0  0  0  0  0  0
  -25.9124  -32.4799   23.8386 C   0  0  1  0  0  0
  -27.2098  -27.3199   20.1006 C   0  0  0  0  0  0
  -25.5948  -33.8602   24.2307 N   0  0  0  0  0  0
  -23.4180  -30.4928   21.5518 C   0  0  2  0  0  0
  -24.8584  -28.9593   20.1128 C   0  0  0  0  0  0
  -22.7477  -29.4649   22.4954 C   0  0  0  0  0  0
  -18.0289  -28.1375   22.8489 C   0  0  0  0  0  0
  -24.1489  -36.7299   23.2636 C   0  0  0  0  0  0
  -25.9632  -30.7938   21.3787 C   0  0  0  0  0  0
  -26.0339  -29.4250   20.7152 C   0  0  0  0  0  0
  -27.2134  -28.6189   20.7001 C   0  0  0  0  0  0
  -25.9979  -26.9159   19.4805 C   0  0  0  0  0  0
  -24.8429  -27.7093   19.4886 C   0  0  0  0  0  0
  -23.6296  -29.8398   20.1643 C   0  0  0  0  0  0
  -25.4115  -36.3096   24.0328 C   0  0  1  0  0  0
  -20.5889  -28.3686   23.1283 C   0  0  2  0  0  0
  -20.6780  -26.9415   22.5400 C   0  0  0  0  0  0
  -19.5753  -26.6379   21.5208 C   0  0  0  0  0  0
  -18.1934  -26.7915   22.1625 C   0  0  0  0  0  0
  -19.1540  -28.8849   23.2877 C   0  0  0  0  0  0
  -18.9462  -30.1448   23.8896 C   0  0  0  0  0  0
  -17.6462  -30.6584   24.0559 C   0  0  0  0  0  0
  -25.9055  -34.9465   23.5110 C   0  0  0  0  0  0
  -16.5354  -29.9077   23.6332 C   0  0  0  0  0  0
  -16.7274  -28.6492   23.0359 C   0  0  0  0  0  0
  -26.4499  -31.6601   25.0752 C   0  0  0  0  0  0
  -25.3726  -31.3726   26.1473 C   0  0  0  0  0  0
  -27.0337  -30.3025   24.6203 C   0  0  0  0  0  0
  -27.6070  -32.4324   25.7516 C   0  0  0  0  0  0
  -27.5580  -37.1810   24.8467 C   0  0  0  0  0  0
  -21.4192  -29.3048   22.3687 N   0  0  0  0  0  0
  -26.4297  -37.3788   23.9405 N   0  0  0  0  0  0
  -24.6891  -31.0649   22.1025 N   0  0  0  0  0  0
  -23.4210  -28.8172   23.3013 O   0  0  0  0  0  0
  -28.3170  -26.4458   20.1385 O   0  0  0  0  0  0
  -26.5619  -34.8931   22.4670 O   0  0  0  0  0  0
  -23.5440  -32.1430   23.7400 O   0  0  0  0  0  0
  -29.9998  -20.4928   21.7474 C   0  0  0  0  0  0
  -30.5042  -18.7220   23.0023 C   0  0  0  0  0  0
  -30.1544  -16.9813   21.2759 C   0  0  0  0  0  0
  -28.7520  -21.2961   19.5736 C   0  0  0  0  0  0
  -28.5466  -22.6698   18.8809 C   0  0  0  0  0  0
  -29.4120  -22.9987   21.0912 C   0  0  0  0  0  0
  -29.8178  -21.5430   20.6327 C   0  0  1  0  0  0
  -29.0630  -23.8156   19.8064 C   0  0  2  0  0  0
  -28.0275  -25.0243   19.8404 C   0  0  0  0  0  0
  -30.3042  -20.8979   22.9952 N   0  0  0  0  0  0
  -30.6122  -19.7729   23.7786 N   0  0  0  0  0  0
  -29.8781  -18.2119   20.7493 N   0  0  0  0  0  0
  -30.1052  -19.1267   21.7649 N   0  0  0  0  0  0
  -29.8568  -15.7266   20.6208 N   0  0  0  0  0  0
  -30.7090  -16.9750   22.9769 S   0  0  0  0  0  0
  -31.4743  -12.5137   19.1304 H   0  0  0  0  0  0
  -30.3639  -11.3990   19.8855 H   0  0  0  0  0  0
  -29.7626  -11.7492   17.4674 H   0  0  0  0  0  0
  -29.6451  -13.4709   17.7272 H   0  0  0  0  0  0
  -27.8593  -11.2930   18.8601 H   0  0  0  0  0  0
  -27.3686  -12.5756   17.7852 H   0  0  0  0  0  0
  -27.6561  -14.2514   19.5040 H   0  0  0  0  0  0
  -28.7112  -12.0799   21.3832 H   0  0  0  0  0  0
  -28.4567  -13.7514   21.8149 H   0  0  0  0  0  0
  -25.2772   -9.5689   22.4747 H   0  0  0  0  0  0
  -24.0022   -7.4629   22.7456 H   0  0  0  0  0  0
  -21.0844   -8.8758   19.8949 H   0  0  0  0  0  0
  -22.3688  -10.9665   19.6157 H   0  0  0  0  0  0
  -21.2004   -7.6140   23.9716 H   0  0  0  0  0  0
  -21.1483   -6.0510   25.9079 H   0  0  0  0  0  0
  -22.0601   -2.7601   23.2842 H   0  0  0  0  0  0
  -22.4105  -11.9880   22.4828 H   0  0  0  0  0  0
  -21.1105  -13.1222   22.2622 H   0  0  0  0  0  0
  -24.6494  -15.8384   20.5050 H   0  0  0  0  0  0
  -26.2575  -15.6291   20.0404 H   0  0  0  0  0  0
  -26.7188  -32.5462   23.1132 H   0  0  0  0  0  0
  -25.0113  -33.9757   25.0463 H   0  0  0  0  0  0
  -22.7115  -31.3142   21.4156 H   0  0  0  0  0  0
  -23.3757  -35.9626   23.3307 H   0  0  0  0  0  0
  -24.3583  -36.8912   22.2050 H   0  0  0  0  0  0
  -23.7241  -37.6503   23.6650 H   0  0  0  0  0  0
  -26.0983  -31.5602   20.6143 H   0  0  0  0  0  0
  -26.8431  -30.8357   22.0091 H   0  0  0  0  0  0
  -28.1135  -28.9744   21.1813 H   0  0  0  0  0  0
  -25.8765  -25.9668   18.9844 H   0  0  0  0  0  0
  -23.9420  -27.3438   19.0153 H   0  0  0  0  0  0
  -23.7506  -30.6209   19.4127 H   0  0  0  0  0  0
  -22.7477  -29.2733   19.8593 H   0  0  0  0  0  0
  -25.1291  -36.1950   25.0820 H   0  0  0  0  0  0
  -20.9979  -28.3245   24.1404 H   0  0  0  0  0  0
  -20.5686  -26.2298   23.3594 H   0  0  0  0  0  0
  -21.6648  -26.7448   22.1190 H   0  0  0  0  0  0
  -19.6919  -25.6288   21.1242 H   0  0  0  0  0  0
  -19.6681  -27.3187   20.6734 H   0  0  0  0  0  0
  -17.4200  -26.6667   21.4026 H   0  0  0  0  0  0
  -18.0338  -26.0047   22.9015 H   0  0  0  0  0  0
  -19.7937  -30.7260   24.2271 H   0  0  0  0  0  0
  -17.5017  -31.6266   24.5149 H   0  0  0  0  0  0
  -15.5356  -30.2979   23.7648 H   0  0  0  0  0  0
  -15.8672  -28.0801   22.7088 H   0  0  0  0  0  0
  -24.5918  -30.7059   25.7795 H   0  0  0  0  0  0
  -24.8899  -32.2886   26.4892 H   0  0  0  0  0  0
  -25.8053  -30.8911   27.0253 H   0  0  0  0  0  0
  -26.2913  -29.6784   24.1219 H   0  0  0  0  0  0
  -27.4026  -29.7272   25.4707 H   0  0  0  0  0  0
  -27.8786  -30.4316   23.9434 H   0  0  0  0  0  0
  -27.2700  -33.3632   26.2089 H   0  0  0  0  0  0
  -28.3880  -32.6872   25.0339 H   0  0  0  0  0  0
  -28.0733  -31.8448   26.5435 H   0  0  0  0  0  0
  -28.2605  -38.0103   24.7514 H   0  0  0  0  0  0
  -28.1069  -36.2639   24.6285 H   0  0  0  0  0  0
  -27.2301  -37.1445   25.8872 H   0  0  0  0  0  0
  -20.9371  -29.8789   21.6917 H   0  0  0  0  0  0
  -26.0177  -38.2864   24.1405 H   0  0  0  0  0  0
  -29.0317  -20.5058   18.8765 H   0  0  0  0  0  0
  -27.8242  -20.9899   20.0587 H   0  0  0  0  0  0
  -27.4899  -22.7889   18.6351 H   0  0  0  0  0  0
  -29.0860  -22.6965   17.9335 H   0  0  0  0  0  0
  -30.1988  -23.4793   21.6738 H   0  0  0  0  0  0
  -28.5311  -22.9420   21.7325 H   0  0  0  0  0  0
  -30.7810  -21.6151   20.1260 H   0  0  0  0  0  0
  -29.9961  -24.1855   19.3791 H   0  0  0  0  0  0
  -27.1706  -24.7033   20.4358 H   0  0  0  0  0  0
  -27.6998  -25.0556   18.8014 H   0  0  0  0  0  0
  -28.8750  -15.5526   20.4874 H   0  0  0  0  0  0
  1 25  1  0  0  0
  1 30  2  0  0  0
  1 84  1  0  0  0
  2  3  1  0  0  0
  2 25  1  0  0  0
  2 86  1  0  0  0
  2 87  1  0  0  0
  3  4  1  0  0  0
  3 88  1  0  0  0
  3 89  1  0  0  0
  4  5  1  0  0  0
  4 90  1  0  0  0
  4 91  1  0  0  0
  5  6  1  0  0  0
  5 26  1  0  0  0
  5 92  1  0  0  0
  6 25  1  0  0  0
  6 93  1  0  0  0
  6 94  1  0  0  0
  7  8  2  0  0  0
  7 26  1  0  0  0
  7 29  1  0  0  0
  8  9  1  0  0  0
  8 22  1  0  0  0
  9 10  1  0  0  0
  9 27  2  0  0  0
 10 11  2  0  0  0
 10 15  1  0  0  0
 11 12  1  0  0  0
 11 95  1  0  0  0
 12 13  2  0  0  0
 12 96  1  0  0  0
 13 14  1  0  0  0
 13 31  1  0  0  0
 14 15  2  0  0  0
 14 97  1  0  0  0
 15 98  1  0  0  0
 16 17  2  0  0  0
 16 21  1  0  0  0
 16 31  1  0  0  0
 17 18  1  0  0  0
 17 99  1  0  0  0
 18 19  2  0  0  0
 18100  1  0  0  0
 19 20  1  0  0  0
 19 24  1  0  0  0
 20 21  2  0  0  0
 20101  1  0  0  0
 21 23  1  0  0  0
 22 28  1  0  0  0
 22 32  2  0  0  0
 26 27  1  0  0  0
 28102  1  0  0  0
 28103  1  0  0  0
 29104  1  0  0  0
 29105  1  0  0  0
 33 34  1  0  0  0
 33 66  1  0  0  0
 33 70  2  0  0  0
 34 36  1  0  0  0
 34 59  1  0  0  0
 34106  1  0  0  0
 35 44  2  0  0  0
 35 45  1  0  0  0
 35 68  1  0  0  0
 36 56  1  0  0  0
 36107  1  0  0  0
 37 39  1  0  0  0
 37 47  1  0  0  0
 37 66  1  0  0  0
 37108  1  0  0  0
 38 43  2  0  0  0
 38 46  1  0  0  0
 38 47  1  0  0  0
 39 64  1  0  0  0
 39 67  2  0  0  0
 40 52  1  0  0  0
 40 53  2  0  0  0
 40 58  1  0  0  0
 41109  1  0  0  0
 41110  1  0  0  0
 41111  1  0  0  0
 41 48  1  0  0  0
 42 43  1  0  0  0
 42 66  1  0  0  0
 42112  1  0  0  0
 42113  1  0  0  0
 43 44  1  0  0  0
 44114  1  0  0  0
 45 46  2  0  0  0
 45115  1  0  0  0
 46116  1  0  0  0
 47117  1  0  0  0
 47118  1  0  0  0
 48 56  1  0  0  0
 48 65  1  0  0  0
 48119  1  0  0  0
 49 50  1  0  0  0
 49 53  1  0  0  0
 49 64  1  0  0  0
 49120  1  0  0  0
 50 51  1  0  0  0
 50121  1  0  0  0
 50122  1  0  0  0
 51 52  1  0  0  0
 51123  1  0  0  0
 51124  1  0  0  0
 52125  1  0  0  0
 52126  1  0  0  0
 53 54  1  0  0  0
 54 55  2  0  0  0
 54127  1  0  0  0
 55 57  1  0  0  0
 55128  1  0  0  0
 56 69  2  0  0  0
 57 58  2  0  0  0
 57129  1  0  0  0
 58130  1  0  0  0
 59 60  1  0  0  0
 59 61  1  0  0  0
 59 62  1  0  0  0
 60131  1  0  0  0
 60132  1  0  0  0
 60133  1  0  0  0
 61134  1  0  0  0
 61135  1  0  0  0
 61136  1  0  0  0
 62137  1  0  0  0
 62138  1  0  0  0
 62139  1  0  0  0
 63 65  1  0  0  0
 63140  1  0  0  0
 63141  1  0  0  0
 63142  1  0  0  0
 64143  1  0  0  0
 65144  1  0  0  0
 68 79  1  0  0  0
 71 80  2  0  0  0
 71 83  1  0  0  0
 71 77  1  0  0  0
 72 81  2  0  0  0
 72 83  1  0  0  0
 72 85  1  0  0  0
 73 82  2  0  0  0
 73 84  1  0  0  0
 73 85  1  0  0  0
 74 75  1  0  0  0
 74 77  1  0  0  0
 74145  1  0  0  0
 74146  1  0  0  0
 75 78  1  0  0  0
 75147  1  0  0  0
 75148  1  0  0  0
 76 77  1  0  0  0
 76 78  1  0  0  0
 76149  1  0  0  0
 76150  1  0  0  0
 77151  1  0  0  0
 78 79  1  0  0  0
 78152  1  0  0  0
 79153  1  0  0  0
 79154  1  0  0  0
 80 81  1  0  0  0
 82 83  1  0  0  0
 84155  1  0  0  0
M  ISO  4   1 100  68 101  79 101  84 100
M  END
> <chiral flag>
0

> <version>
0

> <s_m_source_file>
/data/baiqing/PycharmProjects/Reinvent-master-3.2/result/LINK_invent/BTK/process_docking_weight1_custom_product_contain_oxygen_bond_distance_aromatic_linkinvent_7_9_3/rearranged_h_0158.sdf

> <i_m_source_file_index>
12

> <r_mmod_Potential_Energy-OPLS-2005>
194.866348266602

> <r_mmod_Stretch_Energy-OPLS-2005>
70.953239440918

> <r_mmod_Bend_Energy-OPLS-2005>
252.227203369141

> <r_mmod_Torsional_Energy-OPLS-2005>
290.663909912109

> <r_mmod_Improper_Torsional_Energy-OPLS-2005>
11.4287586212158

> <r_mmod_Van_der_Waal_Energy-OPLS-2005>
123.645545959473

> <r_mmod_Electrostatic_Energy-OPLS-2005>
-367.853485107422

> <r_mmod_Solvation_Energy-OPLS-2005>
-237.097290039062

> <b_mmod_Minimization_Converged-OPLS-2005>
0

> <r_mmod_RMS_Derivative-OPLS-2005>
1.16726970672607

$$$$
12
                    3D
 Structure written by MMmdl.
159167  0  0  1  0            999 V2000
  -30.5829  -14.8440   20.4431 C   0  0  0  0  0  0
  -30.4362  -12.5243   19.4862 C   0  0  0  0  0  0
  -29.5146  -12.5084   18.2455 C   0  0  0  0  0  0
  -28.0457  -12.3121   18.6638 C   0  0  0  0  0  0
  -27.6349  -13.2332   19.8423 C   0  0  2  0  0  0
  -28.6770  -13.2247   20.9814 C   0  0  0  0  0  0
  -25.2488  -13.8112   20.5642 C   0  0  0  0  0  0
  -24.1785  -13.0404   20.9231 C   0  0  0  0  0  0
  -24.6384  -11.6888   20.8770 C   0  0  0  0  0  0
  -23.9059  -10.4278   21.0429 C   0  0  0  0  0  0
  -24.3613   -9.4193   21.9201 C   0  0  0  0  0  0
  -23.6290   -8.2226   22.0760 C   0  0  0  0  0  0
  -22.4272   -8.0268   21.3547 C   0  0  0  0  0  0
  -21.9909   -9.0244   20.4650 C   0  0  0  0  0  0
  -22.7236  -10.2127   20.3070 C   0  0  0  0  0  0
  -21.6845   -6.0735   22.5283 C   0  0  0  0  0  0
  -21.4007   -6.5643   23.8215 C   0  0  0  0  0  0
  -21.3651   -5.6796   24.9176 C   0  0  0  0  0  0
  -21.6039   -4.3057   24.7229 C   0  0  0  0  0  0
  -21.8820   -3.8151   23.4348 C   0  0  0  0  0  0
  -21.9193   -4.6966   22.3405 C   0  0  0  0  0  0
  -22.7814  -13.5207   21.1884 C   0  0  0  0  0  0
  -22.1664   -4.2156   21.0981 F   0  0  0  0  0  0
  -21.5626   -3.4540   25.7739 F   0  0  0  0  0  0
  -29.9639  -13.6065   20.3900 N   0  0  0  0  0  0
  -26.2905  -12.9338   20.3236 N   0  0  0  0  0  0
  -25.9315  -11.6493   20.5757 N   0  0  0  0  0  0
  -22.0463  -12.8211   22.0455 N   0  0  0  0  0  0
  -25.4283  -15.1757   20.3925 N   0  0  0  0  0  0
  -31.7800  -14.9104   20.1477 O   0  0  0  0  0  0
  -21.6629   -6.8874   21.4243 O   0  0  0  0  0  0
  -22.3477  -14.5488   20.6697 O   0  0  0  0  0  0
  -24.6367  -31.8494   23.1929 C   0  0  0  0  0  0
  -25.9170  -32.4719   23.8291 C   0  0  1  0  0  0
  -27.2209  -27.2054   20.1387 C   0  0  0  0  0  0
  -25.5951  -33.8526   24.2206 N   0  0  0  0  0  0
  -23.4360  -30.4701   21.5379 C   0  0  2  0  0  0
  -24.8831  -28.9062   20.1115 C   0  0  0  0  0  0
  -22.7535  -29.4568   22.4892 C   0  0  0  0  0  0
  -18.0301  -28.1378   22.8484 C   0  0  0  0  0  0
  -24.1493  -36.7251   23.2647 C   0  0  0  0  0  0
  -25.9869  -30.7448   21.3815 C   0  0  0  0  0  0
  -26.0579  -29.3635   20.7204 C   0  0  0  0  0  0
  -27.2294  -28.5306   20.7132 C   0  0  0  0  0  0
  -26.0171  -26.8259   19.5051 C   0  0  0  0  0  0
  -24.8716  -27.6485   19.4895 C   0  0  0  0  0  0
  -23.6570  -29.8010   20.1558 C   0  0  0  0  0  0
  -25.4121  -36.3041   24.0325 C   0  0  1  0  0  0
  -20.5913  -28.3690   23.1251 C   0  0  2  0  0  0
  -20.6792  -26.9404   22.5401 C   0  0  0  0  0  0
  -19.5767  -26.6370   21.5211 C   0  0  0  0  0  0
  -18.1945  -26.7921   22.1620 C   0  0  0  0  0  0
  -19.1560  -28.8853   23.2860 C   0  0  0  0  0  0
  -18.9484  -30.1456   23.8871 C   0  0  0  0  0  0
  -17.6485  -30.6580   24.0559 C   0  0  0  0  0  0
  -25.9070  -34.9419   23.5066 C   0  0  0  0  0  0
  -16.5372  -29.9075   23.6345 C   0  0  0  0  0  0
  -16.7288  -28.6495   23.0359 C   0  0  0  0  0  0
  -26.4521  -31.6577   25.0708 C   0  0  0  0  0  0
  -25.3738  -31.3761   26.1429 C   0  0  0  0  0  0
  -27.0386  -30.2983   24.6248 C   0  0  0  0  0  0
  -27.6047  -32.4347   25.7492 C   0  0  0  0  0  0
  -27.5571  -37.1774   24.8469 C   0  0  0  0  0  0
  -21.4233  -29.3033   22.3638 N   0  0  0  0  0  0
  -26.4279  -37.3749   23.9419 N   0  0  0  0  0  0
  -24.7060  -31.0413   22.0928 N   0  0  0  0  0  0
  -23.4217  -28.8117   23.3012 O   0  0  0  0  0  0
  -28.3168  -26.2938   20.1814 O   0  0  0  0  0  0
  -26.5645  -34.8910   22.4636 O   0  0  0  0  0  0
  -23.5503  -32.1334   23.7192 O   0  0  0  0  0  0
  -28.1387  -20.7383   20.9064 C   0  0  0  0  0  0
  -28.2425  -19.2874   20.9813 C   0  0  0  0  0  0
  -29.4745  -18.8498   20.5182 C   0  0  0  0  0  0
  -29.2949  -21.1997   20.3471 C   0  0  0  0  0  0
  -27.2119  -18.4216   21.6046 C   0  0  0  0  0  0
  -25.7716  -18.5495   21.1345 C   0  0  0  0  0  0
  -29.4428  -23.8264   20.0973 C   0  0  0  0  0  0
  -25.4538  -19.4890   19.9831 C   0  0  0  0  0  0
  -30.6349  -24.7351   19.8592 C   0  0  0  0  0  0
  -30.3249  -17.4818   20.3897 C   0  0  0  0  0  0
  -28.1255  -24.7683   20.1816 C   0  0  0  0  0  0
  -27.5143  -17.5879   22.5115 N   0  0  0  0  0  0
  -24.8483  -17.8768   21.6814 N   0  0  0  0  0  0
  -29.7903  -22.5314   20.1433 N   0  0  0  0  0  0
  -29.8352  -16.0235   20.6047 N   0  0  0  0  0  0
  -30.1061  -20.0584   20.1220 O   0  0  0  0  0  0
  -31.4712  -12.6700   19.1727 H   0  0  0  0  0  0
  -30.4146  -11.5623   19.9998 H   0  0  0  0  0  0
  -29.8173  -11.7128   17.5629 H   0  0  0  0  0  0
  -29.6189  -13.4429   17.6919 H   0  0  0  0  0  0
  -27.9275  -11.2680   18.9562 H   0  0  0  0  0  0
  -27.3830  -12.4653   17.8114 H   0  0  0  0  0  0
  -27.6134  -14.2432   19.4322 H   0  0  0  0  0  0
  -28.7414  -12.2400   21.4466 H   0  0  0  0  0  0
  -28.3917  -13.9228   21.7705 H   0  0  0  0  0  0
  -25.2756   -9.5666   22.4781 H   0  0  0  0  0  0
  -23.9998   -7.4613   22.7476 H   0  0  0  0  0  0
  -21.0843   -8.8761   19.8955 H   0  0  0  0  0  0
  -22.3695  -10.9669   19.6182 H   0  0  0  0  0  0
  -21.1996   -7.6152   23.9721 H   0  0  0  0  0  0
  -21.1468   -6.0525   25.9079 H   0  0  0  0  0  0
  -22.0606   -2.7615   23.2845 H   0  0  0  0  0  0
  -22.4088  -11.9885   22.4862 H   0  0  0  0  0  0
  -21.1074  -13.1225   22.2647 H   0  0  0  0  0  0
  -24.7297  -15.8702   20.6458 H   0  0  0  0  0  0
  -26.3030  -15.5937   20.1114 H   0  0  0  0  0  0
  -26.7229  -32.5331   23.1019 H   0  0  0  0  0  0
  -25.0128  -33.9657   25.0375 H   0  0  0  0  0  0
  -22.7350  -31.2940   21.3876 H   0  0  0  0  0  0
  -23.3765  -35.9571   23.3296 H   0  0  0  0  0  0
  -24.3580  -36.8879   22.2060 H   0  0  0  0  0  0
  -23.7234  -37.6439   23.6684 H   0  0  0  0  0  0
  -26.1407  -31.5057   20.6147 H   0  0  0  0  0  0
  -26.8579  -30.7850   22.0237 H   0  0  0  0  0  0
  -28.1301  -28.8824   21.1966 H   0  0  0  0  0  0
  -25.9299  -25.8670   19.0191 H   0  0  0  0  0  0
  -23.9731  -27.2935   19.0036 H   0  0  0  0  0  0
  -23.7881  -30.5770   19.4008 H   0  0  0  0  0  0
  -22.7733  -29.2393   19.8486 H   0  0  0  0  0  0
  -25.1305  -36.1864   25.0817 H   0  0  0  0  0  0
  -21.0006  -28.3266   24.1371 H   0  0  0  0  0  0
  -20.5691  -26.2305   23.3609 H   0  0  0  0  0  0
  -21.6657  -26.7416   22.1195 H   0  0  0  0  0  0
  -19.6935  -25.6280   21.1241 H   0  0  0  0  0  0
  -19.6706  -27.3182   20.6746 H   0  0  0  0  0  0
  -17.4220  -26.6674   21.4015 H   0  0  0  0  0  0
  -18.0334  -26.0052   22.9007 H   0  0  0  0  0  0
  -19.7968  -30.7276   24.2217 H   0  0  0  0  0  0
  -17.5047  -31.6263   24.5155 H   0  0  0  0  0  0
  -15.5376  -30.2972   23.7680 H   0  0  0  0  0  0
  -15.8691  -28.0807   22.7084 H   0  0  0  0  0  0
  -24.5913  -30.7105   25.7772 H   0  0  0  0  0  0
  -24.8951  -32.2955   26.4812 H   0  0  0  0  0  0
  -25.8051  -30.8974   27.0233 H   0  0  0  0  0  0
  -26.2995  -29.6705   24.1260 H   0  0  0  0  0  0
  -27.4042  -29.7263   25.4786 H   0  0  0  0  0  0
  -27.8881  -30.4236   23.9527 H   0  0  0  0  0  0
  -27.2631  -33.3673   26.1995 H   0  0  0  0  0  0
  -28.3898  -32.6865   25.0352 H   0  0  0  0  0  0
  -28.0678  -31.8535   26.5473 H   0  0  0  0  0  0
  -28.2574  -38.0083   24.7515 H   0  0  0  0  0  0
  -28.1073  -36.2608   24.6290 H   0  0  0  0  0  0
  -27.2291  -37.1408   25.8872 H   0  0  0  0  0  0
  -20.9432  -29.8751   21.6826 H   0  0  0  0  0  0
  -26.0144  -38.2811   24.1438 H   0  0  0  0  0  0
  -27.3276  -21.3593   21.2592 H   0  0  0  0  0  0
  -26.1979  -19.4112   19.1899 H   0  0  0  0  0  0
  -25.3994  -20.5208   20.3276 H   0  0  0  0  0  0
  -24.4880  -19.2364   19.5446 H   0  0  0  0  0  0
  -30.7693  -25.4137   20.7014 H   0  0  0  0  0  0
  -30.4852  -25.3251   18.9550 H   0  0  0  0  0  0
  -31.5585  -24.1674   19.7375 H   0  0  0  0  0  0
  -31.1824  -17.5907   21.0555 H   0  0  0  0  0  0
  -30.7681  -17.4887   19.3933 H   0  0  0  0  0  0
  -27.5655  -24.4940   21.0758 H   0  0  0  0  0  0
  -27.5048  -24.4857   19.3336 H   0  0  0  0  0  0
  -28.5023  -17.6292   22.7282 H   0  0  0  0  0  0
  -25.2846  -17.3122   22.4074 H   0  0  0  0  0  0
  -28.8585  -15.9067   20.8270 H   0  0  0  0  0  0
  1 25  1  0  0  0
  1 30  2  0  0  0
  1 85  1  0  0  0
  2  3  1  0  0  0
  2 25  1  0  0  0
  2 87  1  0  0  0
  2 88  1  0  0  0
  3  4  1  0  0  0
  3 89  1  0  0  0
  3 90  1  0  0  0
  4  5  1  0  0  0
  4 91  1  0  0  0
  4 92  1  0  0  0
  5  6  1  0  0  0
  5 26  1  0  0  0
  5 93  1  0  0  0
  6 25  1  0  0  0
  6 94  1  0  0  0
  6 95  1  0  0  0
  7  8  2  0  0  0
  7 26  1  0  0  0
  7 29  1  0  0  0
  8  9  1  0  0  0
  8 22  1  0  0  0
  9 10  1  0  0  0
  9 27  2  0  0  0
 10 11  2  0  0  0
 10 15  1  0  0  0
 11 12  1  0  0  0
 11 96  1  0  0  0
 12 13  2  0  0  0
 12 97  1  0  0  0
 13 14  1  0  0  0
 13 31  1  0  0  0
 14 15  2  0  0  0
 14 98  1  0  0  0
 15 99  1  0  0  0
 16 17  2  0  0  0
 16 21  1  0  0  0
 16 31  1  0  0  0
 17 18  1  0  0  0
 17100  1  0  0  0
 18 19  2  0  0  0
 18101  1  0  0  0
 19 20  1  0  0  0
 19 24  1  0  0  0
 20 21  2  0  0  0
 20102  1  0  0  0
 21 23  1  0  0  0
 22 28  1  0  0  0
 22 32  2  0  0  0
 26 27  1  0  0  0
 28103  1  0  0  0
 28104  1  0  0  0
 29105  1  0  0  0
 29106  1  0  0  0
 33 34  1  0  0  0
 33 66  1  0  0  0
 33 70  2  0  0  0
 34 36  1  0  0  0
 34 59  1  0  0  0
 34107  1  0  0  0
 35 44  2  0  0  0
 35 45  1  0  0  0
 35 68  1  0  0  0
 36 56  1  0  0  0
 36108  1  0  0  0
 37 39  1  0  0  0
 37 47  1  0  0  0
 37 66  1  0  0  0
 37109  1  0  0  0
 38 43  2  0  0  0
 38 46  1  0  0  0
 38 47  1  0  0  0
 39 64  1  0  0  0
 39 67  2  0  0  0
 40 52  1  0  0  0
 40 53  2  0  0  0
 40 58  1  0  0  0
 41110  1  0  0  0
 41111  1  0  0  0
 41112  1  0  0  0
 41 48  1  0  0  0
 42 43  1  0  0  0
 42 66  1  0  0  0
 42113  1  0  0  0
 42114  1  0  0  0
 43 44  1  0  0  0
 44115  1  0  0  0
 45 46  2  0  0  0
 45116  1  0  0  0
 46117  1  0  0  0
 47118  1  0  0  0
 47119  1  0  0  0
 48 56  1  0  0  0
 48 65  1  0  0  0
 48120  1  0  0  0
 49 50  1  0  0  0
 49 53  1  0  0  0
 49 64  1  0  0  0
 49121  1  0  0  0
 50 51  1  0  0  0
 50122  1  0  0  0
 50123  1  0  0  0
 51 52  1  0  0  0
 51124  1  0  0  0
 51125  1  0  0  0
 52126  1  0  0  0
 52127  1  0  0  0
 53 54  1  0  0  0
 54 55  2  0  0  0
 54128  1  0  0  0
 55 57  1  0  0  0
 55129  1  0  0  0
 56 69  2  0  0  0
 57 58  2  0  0  0
 57130  1  0  0  0
 58131  1  0  0  0
 59 60  1  0  0  0
 59 61  1  0  0  0
 59 62  1  0  0  0
 60132  1  0  0  0
 60133  1  0  0  0
 60134  1  0  0  0
 61135  1  0  0  0
 61136  1  0  0  0
 61137  1  0  0  0
 62138  1  0  0  0
 62139  1  0  0  0
 62140  1  0  0  0
 63 65  1  0  0  0
 63141  1  0  0  0
 63142  1  0  0  0
 63143  1  0  0  0
 64144  1  0  0  0
 65145  1  0  0  0
 68 81  1  0  0  0
 71 72  1  0  0  0
 71 74  2  0  0  0
 71146  1  0  0  0
 72 73  2  0  0  0
 72 75  1  0  0  0
 73 80  1  0  0  0
 73 86  1  0  0  0
 74 84  1  0  0  0
 74 86  1  0  0  0
 75 76  1  0  0  0
 75 82  2  0  0  0
 76 78  1  0  0  0
 76 83  2  0  0  0
 77 79  1  0  0  0
 77 81  1  0  0  0
 77 84  2  0  0  0
 78147  1  0  0  0
 78148  1  0  0  0
 78149  1  0  0  0
 79150  1  0  0  0
 79151  1  0  0  0
 79152  1  0  0  0
 80 85  1  0  0  0
 80153  1  0  0  0
 80154  1  0  0  0
 81155  1  0  0  0
 81156  1  0  0  0
 82157  1  0  0  0
 83158  1  0  0  0
 85159  1  0  0  0
M  ISO  4   1 100  68 101  81 101  85 100
M  END
> <chiral flag>
0

> <version>
0

> <s_m_source_file>
/data/baiqing/PycharmProjects/Reinvent-master-3.2/result/LINK_invent/BTK/process_docking_weight1_custom_product_contain_oxygen_bond_distance_aromatic_linkinvent_7_9_3/rearranged_h_0158.sdf

> <i_m_source_file_index>
13

> <r_mmod_Potential_Energy-OPLS-2005>
271.071990966797

> <r_mmod_Stretch_Energy-OPLS-2005>
170.605163574219

> <r_mmod_Bend_Energy-OPLS-2005>
310.973510742188

> <r_mmod_Torsional_Energy-OPLS-2005>
218.310470581055

> <r_mmod_Improper_Torsional_Energy-OPLS-2005>
5.88740110397339

> <r_mmod_Van_der_Waal_Energy-OPLS-2005>
119.474716186523

> <r_mmod_Electrostatic_Energy-OPLS-2005>
-455.941040039062

> <r_mmod_Solvation_Energy-OPLS-2005>
-225.410522460938

> <b_mmod_Minimization_Converged-OPLS-2005>
0

> <r_mmod_RMS_Derivative-OPLS-2005>
1.27946698665619

$$$$
13
                    3D
 Structure written by MMmdl.
156165  0  0  1  0            999 V2000
  -30.6137  -14.7954   20.4996 C   0  0  0  0  0  0
  -30.4397  -12.4982   19.4853 C   0  0  0  0  0  0
  -29.5114  -12.4973   18.2499 C   0  0  0  0  0  0
  -28.0467  -12.3021   18.6817 C   0  0  0  0  0  0
  -27.6380  -13.2320   19.8520 C   0  0  2  0  0  0
  -28.6851  -13.2181   20.9877 C   0  0  0  0  0  0
  -25.2567  -13.8206   20.5855 C   0  0  0  0  0  0
  -24.1809  -13.0462   20.9217 C   0  0  0  0  0  0
  -24.6375  -11.6941   20.8744 C   0  0  0  0  0  0
  -23.9067  -10.4332   21.0423 C   0  0  0  0  0  0
  -24.3617   -9.4264   21.9208 C   0  0  0  0  0  0
  -23.6292   -8.2295   22.0779 C   0  0  0  0  0  0
  -22.4296   -8.0313   21.3557 C   0  0  0  0  0  0
  -21.9930   -9.0299   20.4679 C   0  0  0  0  0  0
  -22.7242  -10.2179   20.3092 C   0  0  0  0  0  0
  -21.6871   -6.0758   22.5273 C   0  0  0  0  0  0
  -21.4016   -6.5664   23.8200 C   0  0  0  0  0  0
  -21.3659   -5.6814   24.9159 C   0  0  0  0  0  0
  -21.6047   -4.3082   24.7230 C   0  0  0  0  0  0
  -21.8803   -3.8179   23.4350 C   0  0  0  0  0  0
  -21.9188   -4.6980   22.3401 C   0  0  0  0  0  0
  -22.7861  -13.5271   21.1870 C   0  0  0  0  0  0
  -22.1662   -4.2175   21.0975 F   0  0  0  0  0  0
  -21.5632   -3.4562   25.7737 F   0  0  0  0  0  0
  -29.9784  -13.5758   20.3928 N   0  0  0  0  0  0
  -26.2945  -12.9386   20.3372 N   0  0  0  0  0  0
  -25.9317  -11.6529   20.5812 N   0  0  0  0  0  0
  -22.0482  -12.8276   22.0418 N   0  0  0  0  0  0
  -25.4452  -15.1946   20.4555 N   0  0  0  0  0  0
  -31.8198  -14.8753   20.2388 O   0  0  0  0  0  0
  -21.6656   -6.8916   21.4259 O   0  0  0  0  0  0
  -22.3571  -14.5592   20.6719 O   0  0  0  0  0  0
  -24.6350  -31.8523   23.1978 C   0  0  0  0  0  0
  -25.9152  -32.4733   23.8329 C   0  0  1  0  0  0
  -27.2136  -27.2309   20.1696 C   0  0  0  0  0  0
  -25.5963  -33.8551   24.2273 N   0  0  0  0  0  0
  -23.4343  -30.4754   21.5394 C   0  0  2  0  0  0
  -24.8842  -28.9149   20.1130 C   0  0  0  0  0  0
  -22.7541  -29.4597   22.4909 C   0  0  0  0  0  0
  -18.0307  -28.1366   22.8494 C   0  0  0  0  0  0
  -24.1490  -36.7265   23.2643 C   0  0  0  0  0  0
  -25.9830  -30.7603   21.3782 C   0  0  0  0  0  0
  -26.0554  -29.3791   20.7279 C   0  0  0  0  0  0
  -27.2278  -28.5525   20.7379 C   0  0  0  0  0  0
  -26.0292  -26.8509   19.5029 C   0  0  0  0  0  0
  -24.8785  -27.6621   19.4823 C   0  0  0  0  0  0
  -23.6548  -29.8032   20.1582 C   0  0  0  0  0  0
  -25.4098  -36.3058   24.0349 C   0  0  1  0  0  0
  -20.5908  -28.3719   23.1241 C   0  0  2  0  0  0
  -20.6824  -26.9416   22.5428 C   0  0  0  0  0  0
  -19.5802  -26.6336   21.5255 C   0  0  0  0  0  0
  -18.1977  -26.7901   22.1642 C   0  0  0  0  0  0
  -19.1551  -28.8858   23.2852 C   0  0  0  0  0  0
  -18.9464  -30.1463   23.8879 C   0  0  0  0  0  0
  -17.6441  -30.6566   24.0547 C   0  0  0  0  0  0
  -25.9060  -34.9441   23.5097 C   0  0  0  0  0  0
  -16.5351  -29.9036   23.6299 C   0  0  0  0  0  0
  -16.7300  -28.6471   23.0338 C   0  0  0  0  0  0
  -26.4502  -31.6572   25.0745 C   0  0  0  0  0  0
  -25.3749  -31.3742   26.1489 C   0  0  0  0  0  0
  -27.0381  -30.3006   24.6245 C   0  0  0  0  0  0
  -27.6069  -32.4344   25.7506 C   0  0  0  0  0  0
  -27.5572  -37.1778   24.8465 C   0  0  0  0  0  0
  -21.4248  -29.3069   22.3630 N   0  0  0  0  0  0
  -26.4270  -37.3766   23.9433 N   0  0  0  0  0  0
  -24.7029  -31.0490   22.0940 N   0  0  0  0  0  0
  -23.4223  -28.8158   23.3043 O   0  0  0  0  0  0
  -28.2844  -26.3037   20.2514 O   0  0  0  0  0  0
  -26.5619  -34.8925   22.4664 O   0  0  0  0  0  0
  -23.5496  -32.1358   23.7276 O   0  0  0  0  0  0
  -31.4438  -18.9459   22.3670 C   0  0  0  0  0  0
  -30.8043  -20.0745   21.8014 C   0  0  0  0  0  0
  -31.1445  -17.6263   21.9527 C   0  0  0  0  0  0
  -29.5115  -18.5505   20.4073 C   0  0  0  0  0  0
  -29.8266  -19.9276   20.7893 C   0  0  0  0  0  0
  -30.1690  -17.3658   20.9609 C   0  0  0  0  0  0
  -28.6722  -23.7078   19.7420 C   0  0  0  0  0  0
  -29.3625  -21.1943   20.0362 C   0  0  0  0  0  0
  -28.3787  -24.3580   21.9973 C   0  0  0  0  0  0
  -28.5969  -22.8092   21.9130 C   0  0  0  0  0  0
  -27.9902  -24.8473   20.5904 C   0  0  1  0  0  0
  -28.9326  -22.4533   20.5126 N   0  0  0  0  0  0
  -29.8342  -15.9476   20.6164 N   0  0  0  0  0  0
  -29.4583  -21.0491   18.7142 N   0  3  0  0  0  0
  -28.9199  -23.8141   18.5364 O   0  0  0  0  0  0
  -31.4771  -12.6361   19.1755 H   0  0  0  0  0  0
  -30.4092  -11.5341   19.9982 H   0  0  0  0  0  0
  -29.8056  -11.7090   17.5593 H   0  0  0  0  0  0
  -29.6047  -13.4413   17.7082 H   0  0  0  0  0  0
  -27.9400  -11.2646   18.9942 H   0  0  0  0  0  0
  -27.3773  -12.4337   17.8351 H   0  0  0  0  0  0
  -27.6126  -14.2390   19.4358 H   0  0  0  0  0  0
  -28.7382  -12.2381   21.4654 H   0  0  0  0  0  0
  -28.4131  -13.9282   21.7716 H   0  0  0  0  0  0
  -25.2759   -9.5755   22.4792 H   0  0  0  0  0  0
  -23.9994   -7.4718   22.7522 H   0  0  0  0  0  0
  -21.0864   -8.8845   19.9004 H   0  0  0  0  0  0
  -22.3699  -10.9732   19.6220 H   0  0  0  0  0  0
  -21.2006   -7.6179   23.9702 H   0  0  0  0  0  0
  -21.1490   -6.0567   25.9055 H   0  0  0  0  0  0
  -22.0575   -2.7645   23.2824 H   0  0  0  0  0  0
  -22.4017  -11.9856   22.4720 H   0  0  0  0  0  0
  -21.1136  -13.1405   22.2658 H   0  0  0  0  0  0
  -24.7123  -15.8709   20.6435 H   0  0  0  0  0  0
  -26.3483  -15.6280   20.3119 H   0  0  0  0  0  0
  -26.7225  -32.5408   23.1076 H   0  0  0  0  0  0
  -25.0156  -33.9675   25.0450 H   0  0  0  0  0  0
  -22.7326  -31.2975   21.3876 H   0  0  0  0  0  0
  -23.3770  -35.9579   23.3291 H   0  0  0  0  0  0
  -24.3590  -36.8887   22.2056 H   0  0  0  0  0  0
  -23.7217  -37.6463   23.6651 H   0  0  0  0  0  0
  -26.1272  -31.5119   20.6000 H   0  0  0  0  0  0
  -26.8603  -30.8155   22.0099 H   0  0  0  0  0  0
  -28.1246  -28.9013   21.2321 H   0  0  0  0  0  0
  -25.9736  -25.8954   19.0027 H   0  0  0  0  0  0
  -23.9854  -27.2979   18.9956 H   0  0  0  0  0  0
  -23.7892  -30.5755   19.4016 H   0  0  0  0  0  0
  -22.7710  -29.2409   19.8548 H   0  0  0  0  0  0
  -25.1271  -36.1896   25.0841 H   0  0  0  0  0  0
  -20.9989  -28.3329   24.1369 H   0  0  0  0  0  0
  -20.5788  -26.2345   23.3658 H   0  0  0  0  0  0
  -21.6689  -26.7488   22.1181 H   0  0  0  0  0  0
  -19.6946  -25.6230   21.1375 H   0  0  0  0  0  0
  -19.6724  -27.3055   20.6722 H   0  0  0  0  0  0
  -17.4255  -26.6654   21.4008 H   0  0  0  0  0  0
  -18.0322  -26.0040   22.9036 H   0  0  0  0  0  0
  -19.7922  -30.7293   24.2235 H   0  0  0  0  0  0
  -17.4974  -31.6255   24.5110 H   0  0  0  0  0  0
  -15.5342  -30.2915   23.7602 H   0  0  0  0  0  0
  -15.8724  -28.0768   22.7004 H   0  0  0  0  0  0
  -24.5877  -30.7128   25.7832 H   0  0  0  0  0  0
  -24.8999  -32.2940   26.4943 H   0  0  0  0  0  0
  -25.8093  -30.8893   27.0239 H   0  0  0  0  0  0
  -26.2987  -29.6746   24.1245 H   0  0  0  0  0  0
  -27.4043  -29.7275   25.4760 H   0  0  0  0  0  0
  -27.8850  -30.4298   23.9513 H   0  0  0  0  0  0
  -27.2628  -33.3606   26.2113 H   0  0  0  0  0  0
  -28.3831  -32.6974   25.0317 H   0  0  0  0  0  0
  -28.0777  -31.8475   26.5389 H   0  0  0  0  0  0
  -28.2580  -38.0086   24.7550 H   0  0  0  0  0  0
  -28.1083  -36.2640   24.6230 H   0  0  0  0  0  0
  -27.2328  -37.1350   25.8877 H   0  0  0  0  0  0
  -20.9433  -29.8757   21.6804 H   0  0  0  0  0  0
  -26.0154  -38.2847   24.1449 H   0  0  0  0  0  0
  -32.2026  -19.0960   23.1256 H   0  0  0  0  0  0
  -31.1286  -21.0573   22.1117 H   0  0  0  0  0  0
  -31.6688  -16.8131   22.4304 H   0  0  0  0  0  0
  -28.7752  -18.4091   19.6279 H   0  0  0  0  0  0
  -29.2891  -24.8479   22.3466 H   0  0  0  0  0  0
  -27.5926  -24.5956   22.7147 H   0  0  0  0  0  0
  -27.6799  -22.2884   22.1942 H   0  0  0  0  0  0
  -29.3650  -22.4882   22.6181 H   0  0  0  0  0  0
  -26.9229  -24.6517   20.4987 H   0  0  0  0  0  0
  -28.8512  -15.7764   20.4725 H   0  0  0  0  0  0
  -29.9121  -20.2353   18.3328 H   0  0  0  0  0  0
  -29.2676  -21.8413   18.1146 H   0  0  0  0  0  0
  1 25  1  0  0  0
  1 30  2  0  0  0
  1 83  1  0  0  0
  2  3  1  0  0  0
  2 25  1  0  0  0
  2 86  1  0  0  0
  2 87  1  0  0  0
  3  4  1  0  0  0
  3 88  1  0  0  0
  3 89  1  0  0  0
  4  5  1  0  0  0
  4 90  1  0  0  0
  4 91  1  0  0  0
  5  6  1  0  0  0
  5 26  1  0  0  0
  5 92  1  0  0  0
  6 25  1  0  0  0
  6 93  1  0  0  0
  6 94  1  0  0  0
  7  8  2  0  0  0
  7 26  1  0  0  0
  7 29  1  0  0  0
  8  9  1  0  0  0
  8 22  1  0  0  0
  9 10  1  0  0  0
  9 27  2  0  0  0
 10 11  2  0  0  0
 10 15  1  0  0  0
 11 12  1  0  0  0
 11 95  1  0  0  0
 12 13  2  0  0  0
 12 96  1  0  0  0
 13 14  1  0  0  0
 13 31  1  0  0  0
 14 15  2  0  0  0
 14 97  1  0  0  0
 15 98  1  0  0  0
 16 17  2  0  0  0
 16 21  1  0  0  0
 16 31  1  0  0  0
 17 18  1  0  0  0
 17 99  1  0  0  0
 18 19  2  0  0  0
 18100  1  0  0  0
 19 20  1  0  0  0
 19 24  1  0  0  0
 20 21  2  0  0  0
 20101  1  0  0  0
 21 23  1  0  0  0
 22 28  1  0  0  0
 22 32  2  0  0  0
 26 27  1  0  0  0
 28102  1  0  0  0
 28103  1  0  0  0
 29104  1  0  0  0
 29105  1  0  0  0
 33 34  1  0  0  0
 33 66  1  0  0  0
 33 70  2  0  0  0
 34 36  1  0  0  0
 34 59  1  0  0  0
 34106  1  0  0  0
 35 44  2  0  0  0
 35 45  1  0  0  0
 35 68  1  0  0  0
 36 56  1  0  0  0
 36107  1  0  0  0
 37 39  1  0  0  0
 37 47  1  0  0  0
 37 66  1  0  0  0
 37108  1  0  0  0
 38 43  2  0  0  0
 38 46  1  0  0  0
 38 47  1  0  0  0
 39 64  1  0  0  0
 39 67  2  0  0  0
 40 52  1  0  0  0
 40 53  2  0  0  0
 40 58  1  0  0  0
 41109  1  0  0  0
 41110  1  0  0  0
 41111  1  0  0  0
 41 48  1  0  0  0
 42 43  1  0  0  0
 42 66  1  0  0  0
 42112  1  0  0  0
 42113  1  0  0  0
 43 44  1  0  0  0
 44114  1  0  0  0
 45 46  2  0  0  0
 45115  1  0  0  0
 46116  1  0  0  0
 47117  1  0  0  0
 47118  1  0  0  0
 48 56  1  0  0  0
 48 65  1  0  0  0
 48119  1  0  0  0
 49 50  1  0  0  0
 49 53  1  0  0  0
 49 64  1  0  0  0
 49120  1  0  0  0
 50 51  1  0  0  0
 50121  1  0  0  0
 50122  1  0  0  0
 51 52  1  0  0  0
 51123  1  0  0  0
 51124  1  0  0  0
 52125  1  0  0  0
 52126  1  0  0  0
 53 54  1  0  0  0
 54 55  2  0  0  0
 54127  1  0  0  0
 55 57  1  0  0  0
 55128  1  0  0  0
 56 69  2  0  0  0
 57 58  2  0  0  0
 57129  1  0  0  0
 58130  1  0  0  0
 59 60  1  0  0  0
 59 61  1  0  0  0
 59 62  1  0  0  0
 60131  1  0  0  0
 60132  1  0  0  0
 60133  1  0  0  0
 61134  1  0  0  0
 61135  1  0  0  0
 61136  1  0  0  0
 62137  1  0  0  0
 62138  1  0  0  0
 62139  1  0  0  0
 63 65  1  0  0  0
 63140  1  0  0  0
 63141  1  0  0  0
 63142  1  0  0  0
 64143  1  0  0  0
 65144  1  0  0  0
 68 81  1  0  0  0
 71 72  2  0  0  0
 71 73  1  0  0  0
 71145  1  0  0  0
 72 75  1  0  0  0
 72146  1  0  0  0
 73 76  2  0  0  0
 73147  1  0  0  0
 74 75  2  0  0  0
 74 76  1  0  0  0
 74148  1  0  0  0
 75 78  1  0  0  0
 76 83  1  0  0  0
 77 81  1  0  0  0
 77 82  1  0  0  0
 77 85  2  0  0  0
 78 82  1  0  0  0
 78 84  2  0  0  0
 79 80  1  0  0  0
 79 81  1  0  0  0
 79149  1  0  0  0
 79150  1  0  0  0
 80 82  1  0  0  0
 80151  1  0  0  0
 80152  1  0  0  0
 81153  1  0  0  0
 83154  1  0  0  0
 84155  1  0  0  0
 84156  1  0  0  0
M  CHG  1  84   1
M  ISO  4   1 100  68 101  81 101  83 100
M  END
> <chiral flag>
0

> <version>
0

> <s_m_source_file>
/data/baiqing/PycharmProjects/Reinvent-master-3.2/result/LINK_invent/BTK/process_docking_weight1_custom_product_contain_oxygen_bond_distance_aromatic_linkinvent_7_9_3/rearranged_h_0158.sdf

> <i_m_source_file_index>
14

> <r_mmod_Potential_Energy-OPLS-2005>
56.2223243713379

> <r_mmod_Stretch_Energy-OPLS-2005>
137.56755065918

> <r_mmod_Bend_Energy-OPLS-2005>
201.648345947266

> <r_mmod_Torsional_Energy-OPLS-2005>
277.085113525391

> <r_mmod_Improper_Torsional_Energy-OPLS-2005>
8.85951519012451

> <r_mmod_Van_der_Waal_Energy-OPLS-2005>
138.309005737305

> <r_mmod_Electrostatic_Energy-OPLS-2005>
-397.961883544922

> <r_mmod_Solvation_Energy-OPLS-2005>
-424.128601074219

> <b_mmod_Minimization_Converged-OPLS-2005>
0

> <r_mmod_RMS_Derivative-OPLS-2005>
5.30117511749268

$$$$
14
                    3D
 Structure written by MMmdl.
160169  0  0  1  0            999 V2000
  -30.6589  -14.4436   20.5612 C   0  0  0  0  0  0
  -30.4396  -12.2836   19.4155 C   0  0  0  0  0  0
  -29.5050  -12.5012   18.2046 C   0  0  0  0  0  0
  -28.0203  -12.3695   18.6084 C   0  0  0  0  0  0
  -27.6681  -13.1924   19.8786 C   0  0  2  0  0  0
  -28.7056  -12.9131   20.9906 C   0  0  0  0  0  0
  -25.2625  -13.8138   20.5636 C   0  0  0  0  0  0
  -24.1848  -13.0432   20.9136 C   0  0  0  0  0  0
  -24.6380  -11.6899   20.8703 C   0  0  0  0  0  0
  -23.9035  -10.4299   21.0413 C   0  0  0  0  0  0
  -24.3578   -9.4201   21.9184 C   0  0  0  0  0  0
  -23.6265   -8.2227   22.0748 C   0  0  0  0  0  0
  -22.4250   -8.0268   21.3544 C   0  0  0  0  0  0
  -21.9881   -9.0238   20.4644 C   0  0  0  0  0  0
  -22.7204  -10.2130   20.3056 C   0  0  0  0  0  0
  -21.6844   -6.0724   22.5286 C   0  0  0  0  0  0
  -21.4011   -6.5632   23.8221 C   0  0  0  0  0  0
  -21.3659   -5.6782   24.9182 C   0  0  0  0  0  0
  -21.6044   -4.3048   24.7231 C   0  0  0  0  0  0
  -21.8818   -3.8139   23.4354 C   0  0  0  0  0  0
  -21.9193   -4.6953   22.3414 C   0  0  0  0  0  0
  -22.7887  -13.5268   21.1830 C   0  0  0  0  0  0
  -22.1670   -4.2143   21.0988 F   0  0  0  0  0  0
  -21.5622   -3.4534   25.7742 F   0  0  0  0  0  0
  -30.0429  -13.2382   20.4603 N   0  0  0  0  0  0
  -26.3047  -12.9268   20.3328 N   0  0  0  0  0  0
  -25.9293  -11.6451   20.5710 N   0  0  0  0  0  0
  -22.0496  -12.8270   22.0385 N   0  0  0  0  0  0
  -25.4373  -15.1841   20.4028 N   0  0  0  0  0  0
  -31.7607  -14.6909   20.0552 O   0  0  0  0  0  0
  -21.6618   -6.8860   21.4245 O   0  0  0  0  0  0
  -22.3589  -14.5594   20.6709 O   0  0  0  0  0  0
  -24.6147  -31.8667   23.2087 C   0  0  0  0  0  0
  -25.9037  -32.4806   23.8377 C   0  0  1  0  0  0
  -27.2351  -27.4414   20.1039 C   0  0  0  0  0  0
  -25.5916  -33.8603   24.2313 N   0  0  0  0  0  0
  -23.4008  -30.4898   21.5466 C   0  0  2  0  0  0
  -24.8489  -28.9521   20.1187 C   0  0  0  0  0  0
  -22.7380  -29.4658   22.4972 C   0  0  0  0  0  0
  -18.0206  -28.1369   22.8467 C   0  0  0  0  0  0
  -24.1492  -36.7314   23.2637 C   0  0  0  0  0  0
  -25.9293  -30.8356   21.3612 C   0  0  0  0  0  0
  -26.0073  -29.4707   20.7101 C   0  0  0  0  0  0
  -27.2043  -28.7230   20.6962 C   0  0  0  0  0  0
  -26.0585  -26.9283   19.5176 C   0  0  0  0  0  0
  -24.8690  -27.6804   19.5192 C   0  0  0  0  0  0
  -23.6118  -29.8185   20.1624 C   0  0  0  0  0  0
  -25.4111  -36.3102   24.0331 C   0  0  1  0  0  0
  -20.5807  -28.3668   23.1281 C   0  0  2  0  0  0
  -20.6737  -26.9423   22.5342 C   0  0  0  0  0  0
  -19.5657  -26.6253   21.5236 C   0  0  0  0  0  0
  -18.1819  -26.7939   22.1547 C   0  0  0  0  0  0
  -19.1456  -28.8818   23.2880 C   0  0  0  0  0  0
  -18.9383  -30.1404   23.8921 C   0  0  0  0  0  0
  -17.6393  -30.6570   24.0582 C   0  0  0  0  0  0
  -25.9040  -34.9465   23.5107 C   0  0  0  0  0  0
  -16.5277  -29.9093   23.6297 C   0  0  0  0  0  0
  -16.7198  -28.6524   23.0295 C   0  0  0  0  0  0
  -26.4478  -31.6592   25.0701 C   0  0  0  0  0  0
  -25.3739  -31.3717   26.1445 C   0  0  0  0  0  0
  -27.0323  -30.3036   24.6094 C   0  0  0  0  0  0
  -27.6035  -32.4323   25.7471 C   0  0  0  0  0  0
  -27.5578  -37.1820   24.8471 C   0  0  0  0  0  0
  -21.4100  -29.3063   22.3733 N   0  0  0  0  0  0
  -26.4294  -37.3796   23.9408 N   0  0  0  0  0  0
  -24.6649  -31.0786   22.0970 N   0  0  0  0  0  0
  -23.4165  -28.8182   23.2987 O   0  0  0  0  0  0
  -28.4243  -26.7287   20.0964 O   0  0  0  0  0  0
  -26.5590  -34.8912   22.4666 O   0  0  0  0  0  0
  -23.5337  -32.1391   23.7502 O   0  0  0  0  0  0
  -28.7885  -17.6131   21.2856 C   0  0  0  0  0  0
  -29.5892  -16.9062   19.1957 C   0  0  0  0  0  0
  -29.4887  -16.6174   20.5355 C   0  0  0  0  0  0
  -28.3258  -18.6496   20.5044 C   0  0  0  0  0  0
  -27.4485  -19.7425   20.9135 C   0  0  0  0  0  0
  -26.9000  -23.3908   21.0962 C   0  0  0  0  0  0
  -29.0889  -22.9452   20.0096 C   0  0  0  0  0  0
  -26.4067  -21.9978   20.6560 C   0  0  0  0  0  0
  -28.6003  -21.5432   19.5833 C   0  0  0  0  0  0
  -27.9526  -23.9829   20.1287 C   0  0  0  0  0  0
  -28.5361  -25.3671   20.6057 C   0  0  0  0  0  0
  -27.5217  -21.0350   20.4607 N   0  0  0  0  0  0
  -29.9191  -15.4019   21.1474 N   0  0  0  0  0  0
  -26.4929  -19.4060   21.7977 N   0  3  0  0  0  0
  -27.3688  -24.0750   18.9293 F   0  0  0  0  0  0
  -28.7642  -18.3980   18.8221 S   0  0  0  0  0  0
  -31.4816  -12.4078   19.1139 H   0  0  0  0  0  0
  -30.3611  -11.2609   19.7884 H   0  0  0  0  0  0
  -29.7452  -11.7874   17.4147 H   0  0  0  0  0  0
  -29.6791  -13.4933   17.7840 H   0  0  0  0  0  0
  -27.8223  -11.3121   18.7886 H   0  0  0  0  0  0
  -27.3777  -12.6616   17.7752 H   0  0  0  0  0  0
  -27.7275  -14.2467   19.6081 H   0  0  0  0  0  0
  -28.6723  -11.8555   21.2605 H   0  0  0  0  0  0
  -28.4665  -13.4526   21.9063 H   0  0  0  0  0  0
  -25.2723   -9.5674   22.4760 H   0  0  0  0  0  0
  -23.9979   -7.4614   22.7460 H   0  0  0  0  0  0
  -21.0816   -8.8747   19.8959 H   0  0  0  0  0  0
  -22.3654  -10.9650   19.6159 H   0  0  0  0  0  0
  -21.2004   -7.6139   23.9735 H   0  0  0  0  0  0
  -21.1482   -6.0503   25.9089 H   0  0  0  0  0  0
  -22.0602   -2.7602   23.2848 H   0  0  0  0  0  0
  -22.4058  -11.9913   22.4771 H   0  0  0  0  0  0
  -21.1117  -13.1335   22.2589 H   0  0  0  0  0  0
  -24.6678  -15.8377   20.4945 H   0  0  0  0  0  0
  -26.2864  -15.6181   20.0641 H   0  0  0  0  0  0
  -26.7086  -32.5519   23.1121 H   0  0  0  0  0  0
  -25.0105  -33.9755   25.0481 H   0  0  0  0  0  0
  -22.6880  -31.3045   21.4020 H   0  0  0  0  0  0
  -23.3743  -35.9666   23.3326 H   0  0  0  0  0  0
  -24.3584  -36.8906   22.2053 H   0  0  0  0  0  0
  -23.7259  -37.6527   23.6633 H   0  0  0  0  0  0
  -26.0395  -31.5994   20.5904 H   0  0  0  0  0  0
  -26.8183  -30.8891   21.9790 H   0  0  0  0  0  0
  -28.1004  -29.1172   21.1553 H   0  0  0  0  0  0
  -26.0504  -25.9572   19.0525 H   0  0  0  0  0  0
  -23.9786  -27.2715   19.0606 H   0  0  0  0  0  0
  -23.7238  -30.5896   19.3986 H   0  0  0  0  0  0
  -22.7396  -29.2345   19.8634 H   0  0  0  0  0  0
  -25.1294  -36.1959   25.0826 H   0  0  0  0  0  0
  -20.9881  -28.3258   24.1418 H   0  0  0  0  0  0
  -20.5870  -26.2283   23.3544 H   0  0  0  0  0  0
  -21.6552  -26.7607   22.0965 H   0  0  0  0  0  0
  -19.6755  -25.6060   21.1496 H   0  0  0  0  0  0
  -19.6593  -27.2853   20.6610 H   0  0  0  0  0  0
  -17.4149  -26.6863   21.3855 H   0  0  0  0  0  0
  -18.0019  -26.0006   22.8801 H   0  0  0  0  0  0
  -19.7878  -30.7202   24.2292 H   0  0  0  0  0  0
  -17.4930  -31.6253   24.5169 H   0  0  0  0  0  0
  -15.5275  -30.3019   23.7577 H   0  0  0  0  0  0
  -15.8565  -28.0918   22.6942 H   0  0  0  0  0  0
  -24.5878  -30.7103   25.7781 H   0  0  0  0  0  0
  -24.8971  -32.2894   26.4908 H   0  0  0  0  0  0
  -25.8086  -30.8856   27.0187 H   0  0  0  0  0  0
  -26.2874  -29.6763   24.1180 H   0  0  0  0  0  0
  -27.4132  -29.7304   25.4562 H   0  0  0  0  0  0
  -27.8685  -30.4364   23.9217 H   0  0  0  0  0  0
  -27.2630  -33.3597   26.2094 H   0  0  0  0  0  0
  -28.3832  -32.6939   25.0299 H   0  0  0  0  0  0
  -28.0715  -31.8418   26.5361 H   0  0  0  0  0  0
  -28.2616  -38.0098   24.7490 H   0  0  0  0  0  0
  -28.1046  -36.2624   24.6328 H   0  0  0  0  0  0
  -27.2281  -37.1513   25.8870 H   0  0  0  0  0  0
  -20.9239  -29.8840   21.7009 H   0  0  0  0  0  0
  -26.0173  -38.2865   24.1417 H   0  0  0  0  0  0
  -28.6152  -17.5145   22.3485 H   0  0  0  0  0  0
  -30.0418  -16.3359   18.3936 H   0  0  0  0  0  0
  -27.3113  -23.3240   22.1046 H   0  0  0  0  0  0
  -26.0392  -24.0605   21.1562 H   0  0  0  0  0  0
  -29.8321  -23.2942   19.2918 H   0  0  0  0  0  0
  -29.6099  -22.8659   20.9645 H   0  0  0  0  0  0
  -25.8793  -22.0863   19.7070 H   0  0  0  0  0  0
  -25.6662  -21.6469   21.3732 H   0  0  0  0  0  0
  -29.4567  -20.8751   19.6090 H   0  0  0  0  0  0
  -28.2315  -21.5618   18.5582 H   0  0  0  0  0  0
  -27.6790  -25.5979   21.2329 H   0  0  0  0  0  0
  -28.8468  -25.4726   19.5646 H   0  0  0  0  0  0
  -29.2829  -15.0520   21.8500 H   0  0  0  0  0  0
  -26.4305  -18.4627   22.1487 H   0  0  0  0  0  0
  -25.8375  -20.0812   22.1584 H   0  0  0  0  0  0
  1 25  1  0  0  0
  1 30  2  0  0  0
  1 83  1  0  0  0
  2  3  1  0  0  0
  2 25  1  0  0  0
  2 87  1  0  0  0
  2 88  1  0  0  0
  3  4  1  0  0  0
  3 89  1  0  0  0
  3 90  1  0  0  0
  4  5  1  0  0  0
  4 91  1  0  0  0
  4 92  1  0  0  0
  5  6  1  0  0  0
  5 26  1  0  0  0
  5 93  1  0  0  0
  6 25  1  0  0  0
  6 94  1  0  0  0
  6 95  1  0  0  0
  7  8  2  0  0  0
  7 26  1  0  0  0
  7 29  1  0  0  0
  8  9  1  0  0  0
  8 22  1  0  0  0
  9 10  1  0  0  0
  9 27  2  0  0  0
 10 11  2  0  0  0
 10 15  1  0  0  0
 11 12  1  0  0  0
 11 96  1  0  0  0
 12 13  2  0  0  0
 12 97  1  0  0  0
 13 14  1  0  0  0
 13 31  1  0  0  0
 14 15  2  0  0  0
 14 98  1  0  0  0
 15 99  1  0  0  0
 16 17  2  0  0  0
 16 21  1  0  0  0
 16 31  1  0  0  0
 17 18  1  0  0  0
 17100  1  0  0  0
 18 19  2  0  0  0
 18101  1  0  0  0
 19 20  1  0  0  0
 19 24  1  0  0  0
 20 21  2  0  0  0
 20102  1  0  0  0
 21 23  1  0  0  0
 22 28  1  0  0  0
 22 32  2  0  0  0
 26 27  1  0  0  0
 28103  1  0  0  0
 28104  1  0  0  0
 29105  1  0  0  0
 29106  1  0  0  0
 33 34  1  0  0  0
 33 66  1  0  0  0
 33 70  2  0  0  0
 34 36  1  0  0  0
 34 59  1  0  0  0
 34107  1  0  0  0
 35 44  2  0  0  0
 35 45  1  0  0  0
 35 68  1  0  0  0
 36 56  1  0  0  0
 36108  1  0  0  0
 37 39  1  0  0  0
 37 47  1  0  0  0
 37 66  1  0  0  0
 37109  1  0  0  0
 38 43  2  0  0  0
 38 46  1  0  0  0
 38 47  1  0  0  0
 39 64  1  0  0  0
 39 67  2  0  0  0
 40 52  1  0  0  0
 40 53  2  0  0  0
 40 58  1  0  0  0
 41110  1  0  0  0
 41111  1  0  0  0
 41112  1  0  0  0
 41 48  1  0  0  0
 42 43  1  0  0  0
 42 66  1  0  0  0
 42113  1  0  0  0
 42114  1  0  0  0
 43 44  1  0  0  0
 44115  1  0  0  0
 45 46  2  0  0  0
 45116  1  0  0  0
 46117  1  0  0  0
 47118  1  0  0  0
 47119  1  0  0  0
 48 56  1  0  0  0
 48 65  1  0  0  0
 48120  1  0  0  0
 49 50  1  0  0  0
 49 53  1  0  0  0
 49 64  1  0  0  0
 49121  1  0  0  0
 50 51  1  0  0  0
 50122  1  0  0  0
 50123  1  0  0  0
 51 52  1  0  0  0
 51124  1  0  0  0
 51125  1  0  0  0
 52126  1  0  0  0
 52127  1  0  0  0
 53 54  1  0  0  0
 54 55  2  0  0  0
 54128  1  0  0  0
 55 57  1  0  0  0
 55129  1  0  0  0
 56 69  2  0  0  0
 57 58  2  0  0  0
 57130  1  0  0  0
 58131  1  0  0  0
 59 60  1  0  0  0
 59 61  1  0  0  0
 59 62  1  0  0  0
 60132  1  0  0  0
 60133  1  0  0  0
 60134  1  0  0  0
 61135  1  0  0  0
 61136  1  0  0  0
 61137  1  0  0  0
 62138  1  0  0  0
 62139  1  0  0  0
 62140  1  0  0  0
 63 65  1  0  0  0
 63141  1  0  0  0
 63142  1  0  0  0
 63143  1  0  0  0
 64144  1  0  0  0
 65145  1  0  0  0
 68 81  1  0  0  0
 71 73  1  0  0  0
 71 74  2  0  0  0
 71146  1  0  0  0
 72 73  2  0  0  0
 72 86  1  0  0  0
 72147  1  0  0  0
 73 83  1  0  0  0
 74 75  1  0  0  0
 74 86  1  0  0  0
 75 82  1  0  0  0
 75 84  2  0  0  0
 76 78  1  0  0  0
 76 80  1  0  0  0
 76148  1  0  0  0
 76149  1  0  0  0
 77 79  1  0  0  0
 77 80  1  0  0  0
 77150  1  0  0  0
 77151  1  0  0  0
 78 82  1  0  0  0
 78152  1  0  0  0
 78153  1  0  0  0
 79 82  1  0  0  0
 79154  1  0  0  0
 79155  1  0  0  0
 80 81  1  0  0  0
 80 85  1  0  0  0
 81156  1  0  0  0
 81157  1  0  0  0
 83158  1  0  0  0
 84159  1  0  0  0
 84160  1  0  0  0
M  CHG  1  84   1
M  ISO  4   1 100  68 101  81 101  83 100
M  END
> <chiral flag>
0

> <version>
0

> <s_m_source_file>
/data/baiqing/PycharmProjects/Reinvent-master-3.2/result/LINK_invent/BTK/process_docking_weight1_custom_product_contain_oxygen_bond_distance_aromatic_linkinvent_7_9_3/rearranged_h_0158.sdf

> <i_m_source_file_index>
15

> <r_mmod_Potential_Energy-OPLS-2005>
174.612411499023

> <r_mmod_Stretch_Energy-OPLS-2005>
42.3347473144531

> <r_mmod_Bend_Energy-OPLS-2005>
347.150299072266

> <r_mmod_Torsional_Energy-OPLS-2005>
298.895202636719

> <r_mmod_Improper_Torsional_Energy-OPLS-2005>
6.67865705490112

> <r_mmod_Van_der_Waal_Energy-OPLS-2005>
161.82698059082

> <r_mmod_Electrostatic_Energy-OPLS-2005>
-240.323776245117

> <r_mmod_Solvation_Energy-OPLS-2005>
-453.270751953125

> <b_mmod_Minimization_Converged-OPLS-2005>
0

> <r_mmod_RMS_Derivative-OPLS-2005>
3.7488899230957

$$$$
15
                    3D
 Structure written by MMmdl.
147155  0  0  1  0            999 V2000
  -30.6365  -14.7596   20.4598 C   0  0  0  0  0  0
  -30.4238  -12.4702   19.4661 C   0  0  0  0  0  0
  -29.5030  -12.5016   18.2290 C   0  0  0  0  0  0
  -28.0316  -12.3238   18.6492 C   0  0  0  0  0  0
  -27.6342  -13.2363   19.8406 C   0  0  2  0  0  0
  -28.6824  -13.2037   20.9726 C   0  0  0  0  0  0
  -25.2483  -13.8206   20.5708 C   0  0  0  0  0  0
  -24.1787  -13.0441   20.9225 C   0  0  0  0  0  0
  -24.6388  -11.6922   20.8760 C   0  0  0  0  0  0
  -23.9071  -10.4294   21.0413 C   0  0  0  0  0  0
  -24.3623   -9.4206   21.9186 C   0  0  0  0  0  0
  -23.6296   -8.2242   22.0754 C   0  0  0  0  0  0
  -22.4277   -8.0282   21.3545 C   0  0  0  0  0  0
  -21.9914   -9.0257   20.4647 C   0  0  0  0  0  0
  -22.7245  -10.2135   20.3059 C   0  0  0  0  0  0
  -21.6854   -6.0737   22.5279 C   0  0  0  0  0  0
  -21.4015   -6.5640   23.8212 C   0  0  0  0  0  0
  -21.3659   -5.6793   24.9175 C   0  0  0  0  0  0
  -21.6044   -4.3055   24.7225 C   0  0  0  0  0  0
  -21.8819   -3.8147   23.4346 C   0  0  0  0  0  0
  -21.9193   -4.6964   22.3402 C   0  0  0  0  0  0
  -22.7807  -13.5218   21.1879 C   0  0  0  0  0  0
  -22.1662   -4.2150   21.0980 F   0  0  0  0  0  0
  -21.5628   -3.4539   25.7737 F   0  0  0  0  0  0
  -29.9736  -13.5535   20.3715 N   0  0  0  0  0  0
  -26.2905  -12.9421   20.3263 N   0  0  0  0  0  0
  -25.9317  -11.6560   20.5753 N   0  0  0  0  0  0
  -22.0455  -12.8206   22.0434 N   0  0  0  0  0  0
  -25.4149  -15.1934   20.4124 N   0  0  0  0  0  0
  -31.8459  -14.7724   20.2120 O   0  0  0  0  0  0
  -21.6641   -6.8879   21.4240 O   0  0  0  0  0  0
  -22.3491  -14.5521   20.6721 O   0  0  0  0  0  0
  -24.6314  -31.8542   23.1966 C   0  0  0  0  0  0
  -25.9136  -32.4749   23.8319 C   0  0  1  0  0  0
  -27.2196  -27.2593   20.1405 C   0  0  0  0  0  0
  -25.5927  -33.8550   24.2244 N   0  0  0  0  0  0
  -23.4290  -30.4748   21.5401 C   0  0  2  0  0  0
  -24.8771  -28.9145   20.1157 C   0  0  0  0  0  0
  -22.7504  -29.4596   22.4913 C   0  0  0  0  0  0
  -18.0293  -28.1388   22.8485 C   0  0  0  0  0  0
  -24.1490  -36.7283   23.2642 C   0  0  0  0  0  0
  -25.9740  -30.7676   21.3751 C   0  0  0  0  0  0
  -26.0489  -29.3875   20.7217 C   0  0  0  0  0  0
  -27.2276  -28.5739   20.7174 C   0  0  0  0  0  0
  -26.0276  -26.8460   19.5142 C   0  0  0  0  0  0
  -24.8709  -27.6518   19.5003 C   0  0  0  0  0  0
  -23.6485  -29.8035   20.1584 C   0  0  0  0  0  0
  -25.4118  -36.3066   24.0325 C   0  0  1  0  0  0
  -20.5896  -28.3699   23.1270 C   0  0  2  0  0  0
  -20.6778  -26.9415   22.5410 C   0  0  0  0  0  0
  -19.5754  -26.6383   21.5213 C   0  0  0  0  0  0
  -18.1935  -26.7929   22.1626 C   0  0  0  0  0  0
  -19.1546  -28.8861   23.2871 C   0  0  0  0  0  0
  -18.9466  -30.1462   23.8889 C   0  0  0  0  0  0
  -17.6464  -30.6588   24.0563 C   0  0  0  0  0  0
  -25.9056  -34.9436   23.5090 C   0  0  0  0  0  0
  -16.5356  -29.9084   23.6332 C   0  0  0  0  0  0
  -16.7279  -28.6503   23.0352 C   0  0  0  0  0  0
  -26.4501  -31.6579   25.0714 C   0  0  0  0  0  0
  -25.3721  -31.3734   26.1434 C   0  0  0  0  0  0
  -27.0351  -30.2996   24.6206 C   0  0  0  0  0  0
  -27.6050  -32.4326   25.7490 C   0  0  0  0  0  0
  -27.5576  -37.1801   24.8469 C   0  0  0  0  0  0
  -21.4211  -29.3042   22.3656 N   0  0  0  0  0  0
  -26.4294  -37.3764   23.9402 N   0  0  0  0  0  0
  -24.6973  -31.0505   22.0940 N   0  0  0  0  0  0
  -23.4201  -28.8142   23.3020 O   0  0  0  0  0  0
  -28.3087  -26.3633   20.1348 O   0  0  0  0  0  0
  -26.5632  -34.8914   22.4661 O   0  0  0  0  0  0
  -23.5463  -32.1360   23.7263 O   0  0  0  0  0  0
  -28.6158  -18.9421   19.5908 C   0  0  0  0  0  0
  -28.2925  -20.3669   19.5753 C   0  0  0  0  0  0
  -29.5785  -18.5494   20.5002 C   0  0  0  0  0  0
  -28.9730  -21.1654   20.4797 C   0  0  0  0  0  0
  -30.3840  -17.2392   20.7600 C   0  0  0  0  0  0
  -28.4193  -23.6541   20.0876 C   0  0  0  0  0  0
  -28.1616  -25.0485   20.8528 C   0  0  0  0  0  0
  -28.8540  -22.5354   20.7911 N   0  0  0  0  0  0
  -29.9038  -15.9455   20.5658 N   0  0  0  0  0  0
  -31.5307  -17.4140   21.1867 O   0  0  0  0  0  0
  -28.2062  -23.5964   18.8732 O   0  0  0  0  0  0
  -30.0671  -20.0487   21.3559 S   0  0  0  0  0  0
  -31.4641  -12.5849   19.1572 H   0  0  0  0  0  0
  -30.3671  -11.5031   19.9684 H   0  0  0  0  0  0
  -29.7881  -11.7193   17.5241 H   0  0  0  0  0  0
  -29.6242  -13.4492   17.7015 H   0  0  0  0  0  0
  -27.8959  -11.2776   18.9257 H   0  0  0  0  0  0
  -27.3710  -12.5011   17.7996 H   0  0  0  0  0  0
  -27.6172  -14.2509   19.4426 H   0  0  0  0  0  0
  -28.7273  -12.2180   21.4382 H   0  0  0  0  0  0
  -28.4187  -13.9085   21.7630 H   0  0  0  0  0  0
  -25.2767   -9.5683   22.4763 H   0  0  0  0  0  0
  -24.0007   -7.4632   22.7472 H   0  0  0  0  0  0
  -21.0846   -8.8777   19.8952 H   0  0  0  0  0  0
  -22.3702  -10.9677   19.6171 H   0  0  0  0  0  0
  -21.2008   -7.6148   23.9716 H   0  0  0  0  0  0
  -21.1482   -6.0523   25.9078 H   0  0  0  0  0  0
  -22.0598   -2.7609   23.2846 H   0  0  0  0  0  0
  -22.4081  -11.9874   22.4826 H   0  0  0  0  0  0
  -21.1070  -13.1223   22.2639 H   0  0  0  0  0  0
  -24.6435  -15.8424   20.5246 H   0  0  0  0  0  0
  -26.2537  -15.6362   20.0622 H   0  0  0  0  0  0
  -26.7203  -32.5401   23.1061 H   0  0  0  0  0  0
  -25.0062  -33.9682   25.0382 H   0  0  0  0  0  0
  -22.7257  -31.2967   21.3910 H   0  0  0  0  0  0
  -23.3746  -35.9622   23.3315 H   0  0  0  0  0  0
  -24.3574  -36.8896   22.2054 H   0  0  0  0  0  0
  -23.7255  -37.6491   23.6662 H   0  0  0  0  0  0
  -26.1105  -31.5263   20.6033 H   0  0  0  0  0  0
  -26.8518  -30.8197   22.0076 H   0  0  0  0  0  0
  -28.1297  -28.9341   21.1916 H   0  0  0  0  0  0
  -25.9877  -25.8738   19.0427 H   0  0  0  0  0  0
  -23.9737  -27.2838   19.0220 H   0  0  0  0  0  0
  -23.7753  -30.5768   19.3999 H   0  0  0  0  0  0
  -22.7668  -29.2366   19.8540 H   0  0  0  0  0  0
  -25.1304  -36.1912   25.0819 H   0  0  0  0  0  0
  -20.9989  -28.3278   24.1390 H   0  0  0  0  0  0
  -20.5675  -26.2309   23.3614 H   0  0  0  0  0  0
  -21.6646  -26.7435   22.1205 H   0  0  0  0  0  0
  -19.6913  -25.6293   21.1246 H   0  0  0  0  0  0
  -19.6691  -27.3190   20.6740 H   0  0  0  0  0  0
  -17.4203  -26.6675   21.4030 H   0  0  0  0  0  0
  -18.0337  -26.0073   22.9024 H   0  0  0  0  0  0
  -19.7941  -30.7282   24.2253 H   0  0  0  0  0  0
  -17.5017  -31.6267   24.5165 H   0  0  0  0  0  0
  -15.5355  -30.2982   23.7660 H   0  0  0  0  0  0
  -15.8680  -28.0820   22.7068 H   0  0  0  0  0  0
  -24.5899  -30.7080   25.7763 H   0  0  0  0  0  0
  -24.8909  -32.2904   26.4844 H   0  0  0  0  0  0
  -25.8035  -30.8923   27.0221 H   0  0  0  0  0  0
  -26.2938  -29.6738   24.1223 H   0  0  0  0  0  0
  -27.4022  -29.7267   25.4732 H   0  0  0  0  0  0
  -27.8818  -30.4267   23.9456 H   0  0  0  0  0  0
  -27.2652  -33.3628   26.2056 H   0  0  0  0  0  0
  -28.3867  -32.6884   25.0325 H   0  0  0  0  0  0
  -28.0711  -31.8461   26.5418 H   0  0  0  0  0  0
  -28.2610  -38.0082   24.7487 H   0  0  0  0  0  0
  -28.1055  -36.2610   24.6334 H   0  0  0  0  0  0
  -27.2288  -37.1498   25.8872 H   0  0  0  0  0  0
  -20.9400  -29.8759   21.6853 H   0  0  0  0  0  0
  -26.0173  -38.2842   24.1385 H   0  0  0  0  0  0
  -28.1463  -18.2612   18.8952 H   0  0  0  0  0  0
  -27.5475  -20.7500   18.8916 H   0  0  0  0  0  0
  -28.8473  -25.0826   21.6996 H   0  0  0  0  0  0
  -27.1666  -24.9863   21.2957 H   0  0  0  0  0  0
  -29.1282  -22.7607   21.7387 H   0  0  0  0  0  0
  -28.9084  -15.8645   20.4546 H   0  0  0  0  0  0
  1 25  1  0  0  0
  1 30  2  0  0  0
  1 79  1  0  0  0
  2  3  1  0  0  0
  2 25  1  0  0  0
  2 83  1  0  0  0
  2 84  1  0  0  0
  3  4  1  0  0  0
  3 85  1  0  0  0
  3 86  1  0  0  0
  4  5  1  0  0  0
  4 87  1  0  0  0
  4 88  1  0  0  0
  5  6  1  0  0  0
  5 26  1  0  0  0
  5 89  1  0  0  0
  6 25  1  0  0  0
  6 90  1  0  0  0
  6 91  1  0  0  0
  7  8  2  0  0  0
  7 26  1  0  0  0
  7 29  1  0  0  0
  8  9  1  0  0  0
  8 22  1  0  0  0
  9 10  1  0  0  0
  9 27  2  0  0  0
 10 11  2  0  0  0
 10 15  1  0  0  0
 11 12  1  0  0  0
 11 92  1  0  0  0
 12 13  2  0  0  0
 12 93  1  0  0  0
 13 14  1  0  0  0
 13 31  1  0  0  0
 14 15  2  0  0  0
 14 94  1  0  0  0
 15 95  1  0  0  0
 16 17  2  0  0  0
 16 21  1  0  0  0
 16 31  1  0  0  0
 17 18  1  0  0  0
 17 96  1  0  0  0
 18 19  2  0  0  0
 18 97  1  0  0  0
 19 20  1  0  0  0
 19 24  1  0  0  0
 20 21  2  0  0  0
 20 98  1  0  0  0
 21 23  1  0  0  0
 22 28  1  0  0  0
 22 32  2  0  0  0
 26 27  1  0  0  0
 28 99  1  0  0  0
 28100  1  0  0  0
 29101  1  0  0  0
 29102  1  0  0  0
 33 34  1  0  0  0
 33 66  1  0  0  0
 33 70  2  0  0  0
 34 36  1  0  0  0
 34 59  1  0  0  0
 34103  1  0  0  0
 35 44  2  0  0  0
 35 45  1  0  0  0
 35 68  1  0  0  0
 36 56  1  0  0  0
 36104  1  0  0  0
 37 39  1  0  0  0
 37 47  1  0  0  0
 37 66  1  0  0  0
 37105  1  0  0  0
 38 43  2  0  0  0
 38 46  1  0  0  0
 38 47  1  0  0  0
 39 64  1  0  0  0
 39 67  2  0  0  0
 40 52  1  0  0  0
 40 53  2  0  0  0
 40 58  1  0  0  0
 41106  1  0  0  0
 41107  1  0  0  0
 41108  1  0  0  0
 41 48  1  0  0  0
 42 43  1  0  0  0
 42 66  1  0  0  0
 42109  1  0  0  0
 42110  1  0  0  0
 43 44  1  0  0  0
 44111  1  0  0  0
 45 46  2  0  0  0
 45112  1  0  0  0
 46113  1  0  0  0
 47114  1  0  0  0
 47115  1  0  0  0
 48 56  1  0  0  0
 48 65  1  0  0  0
 48116  1  0  0  0
 49 50  1  0  0  0
 49 53  1  0  0  0
 49 64  1  0  0  0
 49117  1  0  0  0
 50 51  1  0  0  0
 50118  1  0  0  0
 50119  1  0  0  0
 51 52  1  0  0  0
 51120  1  0  0  0
 51121  1  0  0  0
 52122  1  0  0  0
 52123  1  0  0  0
 53 54  1  0  0  0
 54 55  2  0  0  0
 54124  1  0  0  0
 55 57  1  0  0  0
 55125  1  0  0  0
 56 69  2  0  0  0
 57 58  2  0  0  0
 57126  1  0  0  0
 58127  1  0  0  0
 59 60  1  0  0  0
 59 61  1  0  0  0
 59 62  1  0  0  0
 60128  1  0  0  0
 60129  1  0  0  0
 60130  1  0  0  0
 61131  1  0  0  0
 61132  1  0  0  0
 61133  1  0  0  0
 62134  1  0  0  0
 62135  1  0  0  0
 62136  1  0  0  0
 63 65  1  0  0  0
 63137  1  0  0  0
 63138  1  0  0  0
 63139  1  0  0  0
 64140  1  0  0  0
 65141  1  0  0  0
 68 77  1  0  0  0
 71 72  1  0  0  0
 71 73  2  0  0  0
 71142  1  0  0  0
 72 74  2  0  0  0
 72143  1  0  0  0
 73 75  1  0  0  0
 73 82  1  0  0  0
 74 78  1  0  0  0
 74 82  1  0  0  0
 75 79  1  0  0  0
 75 80  2  0  0  0
 76 77  1  0  0  0
 76 78  1  0  0  0
 76 81  2  0  0  0
 77144  1  0  0  0
 77145  1  0  0  0
 78146  1  0  0  0
 79147  1  0  0  0
M  ISO  4   1 100  68 101  77 101  79 100
M  END
> <chiral flag>
0

> <version>
0

> <s_m_source_file>
/data/baiqing/PycharmProjects/Reinvent-master-3.2/result/LINK_invent/BTK/process_docking_weight1_custom_product_contain_oxygen_bond_distance_aromatic_linkinvent_7_9_3/rearranged_h_0158.sdf

> <i_m_source_file_index>
16

> <r_mmod_Potential_Energy-OPLS-2005>
67.5037994384766

> <r_mmod_Stretch_Energy-OPLS-2005>
115.041465759277

> <r_mmod_Bend_Energy-OPLS-2005>
175.462036132812

> <r_mmod_Torsional_Energy-OPLS-2005>
262.523010253906

> <r_mmod_Improper_Torsional_Energy-OPLS-2005>
6.57648086547852

> <r_mmod_Van_der_Waal_Energy-OPLS-2005>
118.589317321777

> <r_mmod_Electrostatic_Energy-OPLS-2005>
-443.388214111328

> <r_mmod_Solvation_Energy-OPLS-2005>
-258.416625976562

> <b_mmod_Minimization_Converged-OPLS-2005>
0

> <r_mmod_RMS_Derivative-OPLS-2005>
0.214822053909302

$$$$
16
                    3D
 Structure written by MMmdl.
163172  0  0  1  0            999 V2000
  -30.6663  -14.4708   20.6094 C   0  0  0  0  0  0
  -30.4257  -12.3140   19.4215 C   0  0  0  0  0  0
  -29.5009  -12.5495   18.2098 C   0  0  0  0  0  0
  -28.0219  -12.3879   18.6137 C   0  0  0  0  0  0
  -27.6651  -13.2042   19.8863 C   0  0  2  0  0  0
  -28.7010  -12.9436   21.0046 C   0  0  0  0  0  0
  -25.2561  -13.8130   20.5632 C   0  0  0  0  0  0
  -24.1829  -13.0412   20.9158 C   0  0  0  0  0  0
  -24.6392  -11.6882   20.8716 C   0  0  0  0  0  0
  -23.9064  -10.4283   21.0388 C   0  0  0  0  0  0
  -24.3610   -9.4200   21.9177 C   0  0  0  0  0  0
  -23.6281   -8.2244   22.0762 C   0  0  0  0  0  0
  -22.4261   -8.0289   21.3553 C   0  0  0  0  0  0
  -21.9896   -9.0249   20.4643 C   0  0  0  0  0  0
  -22.7245  -10.2117   20.3038 C   0  0  0  0  0  0
  -21.6841   -6.0743   22.5271 C   0  0  0  0  0  0
  -21.4021   -6.5638   23.8208 C   0  0  0  0  0  0
  -21.3667   -5.6794   24.9166 C   0  0  0  0  0  0
  -21.6044   -4.3061   24.7219 C   0  0  0  0  0  0
  -21.8809   -3.8150   23.4342 C   0  0  0  0  0  0
  -21.9180   -4.6968   22.3395 C   0  0  0  0  0  0
  -22.7853  -13.5212   21.1861 C   0  0  0  0  0  0
  -22.1636   -4.2154   21.0970 F   0  0  0  0  0  0
  -21.5629   -3.4543   25.7739 F   0  0  0  0  0  0
  -30.0377  -13.2694   20.4704 N   0  0  0  0  0  0
  -26.3020  -12.9312   20.3365 N   0  0  0  0  0  0
  -25.9314  -11.6467   20.5713 N   0  0  0  0  0  0
  -22.0497  -12.8190   22.0406 N   0  0  0  0  0  0
  -25.4236  -15.1847   20.3945 N   0  0  0  0  0  0
  -31.7638  -14.7183   20.0961 O   0  0  0  0  0  0
  -21.6620   -6.8897   21.4247 O   0  0  0  0  0  0
  -22.3541  -14.5549   20.6762 O   0  0  0  0  0  0
  -24.6125  -31.8653   23.2130 C   0  0  0  0  0  0
  -25.9037  -32.4786   23.8411 C   0  0  1  0  0  0
  -27.2288  -27.4296   20.0907 C   0  0  0  0  0  0
  -25.5893  -33.8602   24.2333 N   0  0  0  0  0  0
  -23.3984  -30.4899   21.5511 C   0  0  2  0  0  0
  -24.8430  -28.9558   20.1097 C   0  0  0  0  0  0
  -22.7373  -29.4645   22.4995 C   0  0  0  0  0  0
  -18.0258  -28.1379   22.8532 C   0  0  0  0  0  0
  -24.1471  -36.7282   23.2648 C   0  0  0  0  0  0
  -25.9262  -30.8214   21.3750 C   0  0  0  0  0  0
  -25.9983  -29.4588   20.7176 C   0  0  0  0  0  0
  -27.1872  -28.6973   20.7150 C   0  0  0  0  0  0
  -26.0533  -26.9389   19.4770 C   0  0  0  0  0  0
  -24.8647  -27.6954   19.4873 C   0  0  0  0  0  0
  -23.6070  -29.8255   20.1629 C   0  0  0  0  0  0
  -25.4108  -36.3085   24.0329 C   0  0  1  0  0  0
  -20.5837  -28.3662   23.1322 C   0  0  2  0  0  0
  -20.6725  -26.9403   22.5422 C   0  0  0  0  0  0
  -19.5699  -26.6412   21.5216 C   0  0  0  0  0  0
  -18.1881  -26.7950   22.1627 C   0  0  0  0  0  0
  -19.1513  -28.8844   23.2915 C   0  0  0  0  0  0
  -18.9458  -30.1456   23.8918 C   0  0  0  0  0  0
  -17.6461  -30.6586   24.0594 C   0  0  0  0  0  0
  -25.9043  -34.9452   23.5135 C   0  0  0  0  0  0
  -16.5350  -29.9093   23.6352 C   0  0  0  0  0  0
  -16.7258  -28.6499   23.0411 C   0  0  0  0  0  0
  -26.4514  -31.6563   25.0727 C   0  0  0  0  0  0
  -25.3807  -31.3506   26.1467 C   0  0  0  0  0  0
  -27.0435  -30.3050   24.6080 C   0  0  0  0  0  0
  -27.6103  -32.4299   25.7455 C   0  0  0  0  0  0
  -27.5595  -37.1774   24.8477 C   0  0  0  0  0  0
  -21.4111  -29.3014   22.3719 N   0  0  0  0  0  0
  -26.4283  -37.3789   23.9449 N   0  0  0  0  0  0
  -24.6627  -31.0741   22.1038 N   0  0  0  0  0  0
  -23.4140  -28.8236   23.3081 O   0  0  0  0  0  0
  -28.4201  -26.7314   20.1234 O   0  0  0  0  0  0
  -26.5609  -34.8892   22.4703 O   0  0  0  0  0  0
  -23.5319  -32.1441   23.7525 O   0  0  0  0  0  0
  -31.0345  -17.6404   21.1563 C   0  0  0  0  0  0
  -28.6358  -17.4045   20.9031 C   0  0  0  0  0  0
  -29.6344  -19.6526   20.8177 C   0  0  0  0  0  0
  -29.8989  -16.8025   21.0855 C   0  0  0  0  0  0
  -30.9069  -19.0471   21.0420 C   0  0  0  0  0  0
  -28.5016  -18.8021   20.7571 C   0  0  0  0  0  0
  -29.2955  -23.2847   22.1786 C   0  0  0  0  0  0
  -28.8628  -21.8266   21.9559 C   0  0  0  0  0  0
  -28.6749  -21.6373   19.4443 C   0  0  0  0  0  0
  -28.9442  -23.0970   19.0288 C   0  0  0  0  0  0
  -29.4696  -21.1882   20.6894 C   0  0  2  0  0  0
  -28.4042  -24.2146   19.9603 C   0  0  2  0  0  0
  -28.6285  -25.5937   19.2761 C   0  0  0  0  0  0
  -29.0666  -24.2436   21.2683 N   0  0  0  0  0  0
  -32.0664  -19.8145   21.1904 N   0  0  0  0  0  0
  -29.9559  -15.3886   21.2954 N   0  0  0  0  0  0
  -29.8682  -23.5755   23.2282 O   0  0  0  0  0  0
  -27.2631  -19.3226   20.5812 F   0  0  0  0  0  0
  -31.4735  -12.4154   19.1329 H   0  0  0  0  0  0
  -30.3140  -11.2898   19.7822 H   0  0  0  0  0  0
  -29.7524  -11.8609   17.4027 H   0  0  0  0  0  0
  -29.6640  -13.5557   17.8173 H   0  0  0  0  0  0
  -27.8402  -11.3265   18.7902 H   0  0  0  0  0  0
  -27.3719  -12.6783   17.7878 H   0  0  0  0  0  0
  -27.7213  -14.2593   19.6172 H   0  0  0  0  0  0
  -28.6746  -11.8942   21.2995 H   0  0  0  0  0  0
  -28.4500  -13.4957   21.9107 H   0  0  0  0  0  0
  -25.2747   -9.5666   22.4753 H   0  0  0  0  0  0
  -23.9971   -7.4631   22.7491 H   0  0  0  0  0  0
  -21.0826   -8.8787   19.8944 H   0  0  0  0  0  0
  -22.3730  -10.9657   19.6134 H   0  0  0  0  0  0
  -21.2030   -7.6146   23.9723 H   0  0  0  0  0  0
  -21.1493   -6.0523   25.9075 H   0  0  0  0  0  0
  -22.0587   -2.7616   23.2833 H   0  0  0  0  0  0
  -22.4069  -11.9784   22.4702 H   0  0  0  0  0  0
  -21.1134  -13.1238   22.2655 H   0  0  0  0  0  0
  -24.6401  -15.8267   20.4626 H   0  0  0  0  0  0
  -26.2463  -15.6116   19.9907 H   0  0  0  0  0  0
  -26.7104  -32.5462   23.1168 H   0  0  0  0  0  0
  -25.0051  -33.9768   25.0478 H   0  0  0  0  0  0
  -22.6865  -31.3063   21.4122 H   0  0  0  0  0  0
  -23.3776  -35.9561   23.3239 H   0  0  0  0  0  0
  -24.3577  -36.9000   22.2087 H   0  0  0  0  0  0
  -23.7172  -37.6425   23.6744 H   0  0  0  0  0  0
  -26.0541  -31.5935   20.6156 H   0  0  0  0  0  0
  -26.8042  -30.8592   22.0062 H   0  0  0  0  0  0
  -28.0778  -29.0833   21.1899 H   0  0  0  0  0  0
  -26.0264  -25.9747   18.9895 H   0  0  0  0  0  0
  -23.9749  -27.3078   19.0106 H   0  0  0  0  0  0
  -23.7140  -30.6040   19.4072 H   0  0  0  0  0  0
  -22.7290  -29.2484   19.8663 H   0  0  0  0  0  0
  -25.1277  -36.1941   25.0816 H   0  0  0  0  0  0
  -20.9912  -28.3238   24.1448 H   0  0  0  0  0  0
  -20.5625  -26.2289   23.3616 H   0  0  0  0  0  0
  -21.6599  -26.7424   22.1231 H   0  0  0  0  0  0
  -19.6854  -25.6336   21.1230 H   0  0  0  0  0  0
  -19.6629  -27.3244   20.6766 H   0  0  0  0  0  0
  -17.4162  -26.6800   21.4006 H   0  0  0  0  0  0
  -18.0221  -26.0015   22.8933 H   0  0  0  0  0  0
  -19.7917  -30.7306   24.2274 H   0  0  0  0  0  0
  -17.4993  -31.6262   24.5205 H   0  0  0  0  0  0
  -15.5362  -30.3037   23.7604 H   0  0  0  0  0  0
  -15.8656  -28.0810   22.7159 H   0  0  0  0  0  0
  -24.6127  -30.6695   25.7776 H   0  0  0  0  0  0
  -24.8817  -32.2540   26.4964 H   0  0  0  0  0  0
  -25.8240  -30.8699   27.0202 H   0  0  0  0  0  0
  -26.2966  -29.6668   24.1340 H   0  0  0  0  0  0
  -27.4497  -29.7413   25.4497 H   0  0  0  0  0  0
  -27.8647  -30.4448   23.9046 H   0  0  0  0  0  0
  -27.2818  -33.3694   26.1900 H   0  0  0  0  0  0
  -28.3963  -32.6692   25.0280 H   0  0  0  0  0  0
  -28.0700  -31.8484   26.5453 H   0  0  0  0  0  0
  -28.2554  -38.0131   24.7634 H   0  0  0  0  0  0
  -28.1152  -36.2673   24.6177 H   0  0  0  0  0  0
  -27.2311  -37.1268   25.8869 H   0  0  0  0  0  0
  -20.9281  -29.8736   21.6929 H   0  0  0  0  0  0
  -26.0148  -38.2833   24.1541 H   0  0  0  0  0  0
  -32.0070  -17.2048   21.3401 H   0  0  0  0  0  0
  -27.7418  -16.7978   20.8780 H   0  0  0  0  0  0
  -27.7764  -21.7436   21.9702 H   0  0  0  0  0  0
  -29.2043  -21.2669   22.8271 H   0  0  0  0  0  0
  -28.9635  -21.0029   18.6054 H   0  0  0  0  0  0
  -27.6036  -21.4854   19.5775 H   0  0  0  0  0  0
  -28.4924  -23.2371   18.0451 H   0  0  0  0  0  0
  -30.0152  -23.2328   18.8727 H   0  0  0  0  0  0
  -30.4673  -21.6071   20.5581 H   0  0  0  0  0  0
  -27.3346  -24.0728   20.1201 H   0  0  0  0  0  0
  -28.0814  -25.6663   18.3346 H   0  0  0  0  0  0
  -29.6766  -25.6629   18.9840 H   0  0  0  0  0  0
  -29.3715  -25.1683   21.5397 H   0  0  0  0  0  0
  -32.8558  -19.3946   21.6715 H   0  0  0  0  0  0
  -31.9571  -20.7961   21.4212 H   0  0  0  0  0  0
  -29.1273  -14.9934   21.7157 H   0  0  0  0  0  0
  1 25  1  0  0  0
  1 30  2  0  0  0
  1 86  1  0  0  0
  2  3  1  0  0  0
  2 25  1  0  0  0
  2 89  1  0  0  0
  2 90  1  0  0  0
  3  4  1  0  0  0
  3 91  1  0  0  0
  3 92  1  0  0  0
  4  5  1  0  0  0
  4 93  1  0  0  0
  4 94  1  0  0  0
  5  6  1  0  0  0
  5 26  1  0  0  0
  5 95  1  0  0  0
  6 25  1  0  0  0
  6 96  1  0  0  0
  6 97  1  0  0  0
  7  8  2  0  0  0
  7 26  1  0  0  0
  7 29  1  0  0  0
  8  9  1  0  0  0
  8 22  1  0  0  0
  9 10  1  0  0  0
  9 27  2  0  0  0
 10 11  2  0  0  0
 10 15  1  0  0  0
 11 12  1  0  0  0
 11 98  1  0  0  0
 12 13  2  0  0  0
 12 99  1  0  0  0
 13 14  1  0  0  0
 13 31  1  0  0  0
 14 15  2  0  0  0
 14100  1  0  0  0
 15101  1  0  0  0
 16 17  2  0  0  0
 16 21  1  0  0  0
 16 31  1  0  0  0
 17 18  1  0  0  0
 17102  1  0  0  0
 18 19  2  0  0  0
 18103  1  0  0  0
 19 20  1  0  0  0
 19 24  1  0  0  0
 20 21  2  0  0  0
 20104  1  0  0  0
 21 23  1  0  0  0
 22 28  1  0  0  0
 22 32  2  0  0  0
 26 27  1  0  0  0
 28105  1  0  0  0
 28106  1  0  0  0
 29107  1  0  0  0
 29108  1  0  0  0
 33 34  1  0  0  0
 33 66  1  0  0  0
 33 70  2  0  0  0
 34 36  1  0  0  0
 34 59  1  0  0  0
 34109  1  0  0  0
 35 44  2  0  0  0
 35 45  1  0  0  0
 35 68  1  0  0  0
 36 56  1  0  0  0
 36110  1  0  0  0
 37 39  1  0  0  0
 37 47  1  0  0  0
 37 66  1  0  0  0
 37111  1  0  0  0
 38 43  2  0  0  0
 38 46  1  0  0  0
 38 47  1  0  0  0
 39 64  1  0  0  0
 39 67  2  0  0  0
 40 52  1  0  0  0
 40 53  2  0  0  0
 40 58  1  0  0  0
 41112  1  0  0  0
 41113  1  0  0  0
 41114  1  0  0  0
 41 48  1  0  0  0
 42 43  1  0  0  0
 42 66  1  0  0  0
 42115  1  0  0  0
 42116  1  0  0  0
 43 44  1  0  0  0
 44117  1  0  0  0
 45 46  2  0  0  0
 45118  1  0  0  0
 46119  1  0  0  0
 47120  1  0  0  0
 47121  1  0  0  0
 48 56  1  0  0  0
 48 65  1  0  0  0
 48122  1  0  0  0
 49 50  1  0  0  0
 49 53  1  0  0  0
 49 64  1  0  0  0
 49123  1  0  0  0
 50 51  1  0  0  0
 50124  1  0  0  0
 50125  1  0  0  0
 51 52  1  0  0  0
 51126  1  0  0  0
 51127  1  0  0  0
 52128  1  0  0  0
 52129  1  0  0  0
 53 54  1  0  0  0
 54 55  2  0  0  0
 54130  1  0  0  0
 55 57  1  0  0  0
 55131  1  0  0  0
 56 69  2  0  0  0
 57 58  2  0  0  0
 57132  1  0  0  0
 58133  1  0  0  0
 59 60  1  0  0  0
 59 61  1  0  0  0
 59 62  1  0  0  0
 60134  1  0  0  0
 60135  1  0  0  0
 60136  1  0  0  0
 61137  1  0  0  0
 61138  1  0  0  0
 61139  1  0  0  0
 62140  1  0  0  0
 62141  1  0  0  0
 62142  1  0  0  0
 63 65  1  0  0  0
 63143  1  0  0  0
 63144  1  0  0  0
 63145  1  0  0  0
 64146  1  0  0  0
 65147  1  0  0  0
 68 83  1  0  0  0
 71 74  2  0  0  0
 71 75  1  0  0  0
 71148  1  0  0  0
 72 74  1  0  0  0
 72 76  2  0  0  0
 72149  1  0  0  0
 73 75  2  0  0  0
 73 76  1  0  0  0
 73 81  1  0  0  0
 74 86  1  0  0  0
 75 85  1  0  0  0
 76 88  1  0  0  0
 77 78  1  0  0  0
 77 84  1  0  0  0
 77 87  2  0  0  0
 78 81  1  0  0  0
 78150  1  0  0  0
 78151  1  0  0  0
 79 80  1  0  0  0
 79 81  1  0  0  0
 79152  1  0  0  0
 79153  1  0  0  0
 80 82  1  0  0  0
 80154  1  0  0  0
 80155  1  0  0  0
 81156  1  0  0  0
 82 83  1  0  0  0
 82 84  1  0  0  0
 82157  1  0  0  0
 83158  1  0  0  0
 83159  1  0  0  0
 84160  1  0  0  0
 85161  1  0  0  0
 85162  1  0  0  0
 86163  1  0  0  0
M  ISO  4   1 100  68 101  83 101  86 100
M  END
> <chiral flag>
0

> <version>
0

> <s_m_source_file>
/data/baiqing/PycharmProjects/Reinvent-master-3.2/result/LINK_invent/BTK/process_docking_weight1_custom_product_contain_oxygen_bond_distance_aromatic_linkinvent_7_9_3/rearranged_h_0158.sdf

> <i_m_source_file_index>
17

> <r_mmod_Potential_Energy-OPLS-2005>
-19.7505435943604

> <r_mmod_Stretch_Energy-OPLS-2005>
40.7485580444336

> <r_mmod_Bend_Energy-OPLS-2005>
127.990661621094

> <r_mmod_Torsional_Energy-OPLS-2005>
258.276062011719

> <r_mmod_Improper_Torsional_Energy-OPLS-2005>
8.51642894744873

> <r_mmod_Van_der_Waal_Energy-OPLS-2005>
154.336395263672

> <r_mmod_Electrostatic_Energy-OPLS-2005>
-386.231262207031

> <r_mmod_Solvation_Energy-OPLS-2005>
-236.205307006836

> <b_mmod_Minimization_Converged-OPLS-2005>
0

> <r_mmod_RMS_Derivative-OPLS-2005>
3.56382012367249

$$$$
17
                    3D
 Structure written by MMmdl.
147155  0  0  1  0            999 V2000
  -30.6027  -14.8053   20.4469 C   0  0  0  0  0  0
  -30.4316  -12.4975   19.4739 C   0  0  0  0  0  0
  -29.5081  -12.5054   18.2365 C   0  0  0  0  0  0
  -28.0377  -12.3195   18.6568 C   0  0  0  0  0  0
  -27.6350  -13.2371   19.8420 C   0  0  2  0  0  0
  -28.6819  -13.2122   20.9758 C   0  0  0  0  0  0
  -25.2485  -13.8204   20.5705 C   0  0  0  0  0  0
  -24.1790  -13.0434   20.9222 C   0  0  0  0  0  0
  -24.6393  -11.6920   20.8762 C   0  0  0  0  0  0
  -23.9073  -10.4293   21.0413 C   0  0  0  0  0  0
  -24.3624   -9.4208   21.9188 C   0  0  0  0  0  0
  -23.6298   -8.2242   22.0754 C   0  0  0  0  0  0
  -22.4281   -8.0281   21.3545 C   0  0  0  0  0  0
  -21.9918   -9.0255   20.4647 C   0  0  0  0  0  0
  -22.7247  -10.2135   20.3061 C   0  0  0  0  0  0
  -21.6853   -6.0741   22.5279 C   0  0  0  0  0  0
  -21.4013   -6.5643   23.8213 C   0  0  0  0  0  0
  -21.3656   -5.6795   24.9173 C   0  0  0  0  0  0
  -21.6044   -4.3057   24.7227 C   0  0  0  0  0  0
  -21.8817   -3.8151   23.4345 C   0  0  0  0  0  0
  -21.9192   -4.6968   22.3402 C   0  0  0  0  0  0
  -22.7809  -13.5213   21.1877 C   0  0  0  0  0  0
  -22.1661   -4.2153   21.0981 F   0  0  0  0  0  0
  -21.5626   -3.4541   25.7738 F   0  0  0  0  0  0
  -29.9702  -13.5791   20.3783 N   0  0  0  0  0  0
  -26.2908  -12.9422   20.3267 N   0  0  0  0  0  0
  -25.9322  -11.6561   20.5761 N   0  0  0  0  0  0
  -22.0462  -12.8198   22.0435 N   0  0  0  0  0  0
  -25.4158  -15.1927   20.4110 N   0  0  0  0  0  0
  -31.8057  -14.8672   20.1799 O   0  0  0  0  0  0
  -21.6641   -6.8881   21.4242 O   0  0  0  0  0  0
  -22.3493  -14.5521   20.6727 O   0  0  0  0  0  0
  -24.6351  -31.8510   23.1940 C   0  0  0  0  0  0
  -25.9160  -32.4729   23.8301 C   0  0  1  0  0  0
  -27.2189  -27.2248   20.1478 C   0  0  0  0  0  0
  -25.5941  -33.8533   24.2225 N   0  0  0  0  0  0
  -23.4336  -30.4719   21.5374 C   0  0  2  0  0  0
  -24.8824  -28.9077   20.1150 C   0  0  0  0  0  0
  -22.7518  -29.4579   22.4888 C   0  0  0  0  0  0
  -18.0293  -28.1391   22.8480 C   0  0  0  0  0  0
  -24.1486  -36.7269   23.2646 C   0  0  0  0  0  0
  -25.9822  -30.7546   21.3777 C   0  0  0  0  0  0
  -26.0565  -29.3717   20.7232 C   0  0  0  0  0  0
  -27.2316  -28.5463   20.7216 C   0  0  0  0  0  0
  -26.0231  -26.8301   19.5163 C   0  0  0  0  0  0
  -24.8730  -27.6459   19.4985 C   0  0  0  0  0  0
  -23.6549  -29.8007   20.1565 C   0  0  0  0  0  0
  -25.4116  -36.3051   24.0321 C   0  0  1  0  0  0
  -20.5900  -28.3706   23.1254 C   0  0  2  0  0  0
  -20.6780  -26.9416   22.5406 C   0  0  0  0  0  0
  -19.5754  -26.6378   21.5214 C   0  0  0  0  0  0
  -18.1934  -26.7931   22.1626 C   0  0  0  0  0  0
  -19.1551  -28.8865   23.2864 C   0  0  0  0  0  0
  -18.9474  -30.1468   23.8885 C   0  0  0  0  0  0
  -17.6472  -30.6593   24.0560 C   0  0  0  0  0  0
  -25.9052  -34.9425   23.5075 C   0  0  0  0  0  0
  -16.5362  -29.9083   23.6346 C   0  0  0  0  0  0
  -16.7283  -28.6505   23.0358 C   0  0  0  0  0  0
  -26.4511  -31.6577   25.0713 C   0  0  0  0  0  0
  -25.3724  -31.3757   26.1433 C   0  0  0  0  0  0
  -27.0379  -30.2991   24.6241 C   0  0  0  0  0  0
  -27.6048  -32.4343   25.7496 C   0  0  0  0  0  0
  -27.5566  -37.1801   24.8475 C   0  0  0  0  0  0
  -21.4218  -29.3049   22.3641 N   0  0  0  0  0  0
  -26.4291  -37.3752   23.9396 N   0  0  0  0  0  0
  -24.7030  -31.0449   22.0928 N   0  0  0  0  0  0
  -23.4202  -28.8129   23.3008 O   0  0  0  0  0  0
  -28.2967  -26.3027   20.1504 O   0  0  0  0  0  0
  -26.5631  -34.8914   22.4646 O   0  0  0  0  0  0
  -23.5490  -32.1337   23.7216 O   0  0  0  0  0  0
  -29.5739  -20.0405   21.2301 C   0  0  0  0  0  0
  -29.6412  -18.7977   20.4606 C   0  0  0  0  0  0
  -29.0460  -21.0497   20.4195 C   0  0  0  0  0  0
  -28.5325  -23.5653   20.0415 C   0  0  0  0  0  0
  -30.4036  -17.4131   20.7710 C   0  0  0  0  0  0
  -28.1046  -24.9392   20.7954 C   0  0  0  0  0  0
  -29.1289  -19.0810   19.2578 N   0  0  0  0  0  0
  -28.7985  -22.3985   20.7659 N   0  0  0  0  0  0
  -29.8622  -15.9772   20.6204 N   0  0  0  0  0  0
  -28.6024  -23.5771   18.8086 O   0  0  0  0  0  0
  -28.7586  -20.4583   19.2205 O   0  0  0  0  0  0
  -31.4692  -12.6309   19.1645 H   0  0  0  0  0  0
  -30.3938  -11.5327   19.9812 H   0  0  0  0  0  0
  -29.7999  -11.7174   17.5410 H   0  0  0  0  0  0
  -29.6198  -13.4472   17.6971 H   0  0  0  0  0  0
  -27.9100  -11.2747   18.9415 H   0  0  0  0  0  0
  -27.3747  -12.4847   17.8067 H   0  0  0  0  0  0
  -27.6161  -14.2499   19.4388 H   0  0  0  0  0  0
  -28.7366  -12.2260   21.4389 H   0  0  0  0  0  0
  -28.4098  -13.9113   21.7684 H   0  0  0  0  0  0
  -25.2766   -9.5678   22.4766 H   0  0  0  0  0  0
  -24.0004   -7.4629   22.7470 H   0  0  0  0  0  0
  -21.0850   -8.8775   19.8948 H   0  0  0  0  0  0
  -22.3707  -10.9676   19.6171 H   0  0  0  0  0  0
  -21.2006   -7.6151   23.9718 H   0  0  0  0  0  0
  -21.1478   -6.0526   25.9076 H   0  0  0  0  0  0
  -22.0599   -2.7614   23.2848 H   0  0  0  0  0  0
  -22.4097  -11.9857   22.4808 H   0  0  0  0  0  0
  -21.1076  -13.1212   22.2652 H   0  0  0  0  0  0
  -24.6442  -15.8426   20.5157 H   0  0  0  0  0  0
  -26.2550  -15.6324   20.0551 H   0  0  0  0  0  0
  -26.7229  -32.5373   23.1040 H   0  0  0  0  0  0
  -25.0103  -33.9672   25.0382 H   0  0  0  0  0  0
  -22.7327  -31.2955   21.3866 H   0  0  0  0  0  0
  -23.3732  -35.9627   23.3358 H   0  0  0  0  0  0
  -24.3554  -36.8834   22.2050 H   0  0  0  0  0  0
  -23.7278  -37.6499   23.6638 H   0  0  0  0  0  0
  -26.1244  -31.5126   20.6060 H   0  0  0  0  0  0
  -26.8576  -30.8043   22.0135 H   0  0  0  0  0  0
  -28.1331  -28.9012   21.2016 H   0  0  0  0  0  0
  -25.9720  -25.8585   19.0448 H   0  0  0  0  0  0
  -23.9747  -27.2836   19.0185 H   0  0  0  0  0  0
  -23.7850  -30.5750   19.3993 H   0  0  0  0  0  0
  -22.7722  -29.2370   19.8492 H   0  0  0  0  0  0
  -25.1304  -36.1889   25.0818 H   0  0  0  0  0  0
  -21.0000  -28.3291   24.1370 H   0  0  0  0  0  0
  -20.5676  -26.2318   23.3617 H   0  0  0  0  0  0
  -21.6645  -26.7427   22.1199 H   0  0  0  0  0  0
  -19.6913  -25.6286   21.1251 H   0  0  0  0  0  0
  -19.6690  -27.3188   20.6748 H   0  0  0  0  0  0
  -17.4199  -26.6687   21.4028 H   0  0  0  0  0  0
  -18.0326  -26.0068   22.9019 H   0  0  0  0  0  0
  -19.7955  -30.7291   24.2231 H   0  0  0  0  0  0
  -17.5031  -31.6275   24.5168 H   0  0  0  0  0  0
  -15.5367  -30.2992   23.7675 H   0  0  0  0  0  0
  -15.8678  -28.0830   22.7076 H   0  0  0  0  0  0
  -24.5900  -30.7098   25.7766 H   0  0  0  0  0  0
  -24.8919  -32.2945   26.4816 H   0  0  0  0  0  0
  -25.8029  -30.8967   27.0236 H   0  0  0  0  0  0
  -26.2990  -29.6722   24.1242 H   0  0  0  0  0  0
  -27.4020  -29.7272   25.4783 H   0  0  0  0  0  0
  -27.8870  -30.4250   23.9523 H   0  0  0  0  0  0
  -27.2630  -33.3647   26.2046 H   0  0  0  0  0  0
  -28.3875  -32.6906   25.0341 H   0  0  0  0  0  0
  -28.0701  -31.8496   26.5440 H   0  0  0  0  0  0
  -28.2618  -38.0063   24.7454 H   0  0  0  0  0  0
  -28.1023  -36.2587   24.6381 H   0  0  0  0  0  0
  -27.2272  -37.1544   25.8879 H   0  0  0  0  0  0
  -20.9410  -29.8774   21.6844 H   0  0  0  0  0  0
  -26.0161  -38.2827   24.1373 H   0  0  0  0  0  0
  -29.9326  -20.1761   22.2402 H   0  0  0  0  0  0
  -30.7516  -17.4670   21.8028 H   0  0  0  0  0  0
  -31.3263  -17.4421   20.1903 H   0  0  0  0  0  0
  -28.6681  -24.9668   21.7281 H   0  0  0  0  0  0
  -27.0640  -24.8244   21.1006 H   0  0  0  0  0  0
  -28.7979  -22.5591   21.7621 H   0  0  0  0  0  0
  -28.8670  -15.8710   20.7397 H   0  0  0  0  0  0
  1 25  1  0  0  0
  1 30  2  0  0  0
  1 79  1  0  0  0
  2  3  1  0  0  0
  2 25  1  0  0  0
  2 82  1  0  0  0
  2 83  1  0  0  0
  3  4  1  0  0  0
  3 84  1  0  0  0
  3 85  1  0  0  0
  4  5  1  0  0  0
  4 86  1  0  0  0
  4 87  1  0  0  0
  5  6  1  0  0  0
  5 26  1  0  0  0
  5 88  1  0  0  0
  6 25  1  0  0  0
  6 89  1  0  0  0
  6 90  1  0  0  0
  7  8  2  0  0  0
  7 26  1  0  0  0
  7 29  1  0  0  0
  8  9  1  0  0  0
  8 22  1  0  0  0
  9 10  1  0  0  0
  9 27  2  0  0  0
 10 11  2  0  0  0
 10 15  1  0  0  0
 11 12  1  0  0  0
 11 91  1  0  0  0
 12 13  2  0  0  0
 12 92  1  0  0  0
 13 14  1  0  0  0
 13 31  1  0  0  0
 14 15  2  0  0  0
 14 93  1  0  0  0
 15 94  1  0  0  0
 16 17  2  0  0  0
 16 21  1  0  0  0
 16 31  1  0  0  0
 17 18  1  0  0  0
 17 95  1  0  0  0
 18 19  2  0  0  0
 18 96  1  0  0  0
 19 20  1  0  0  0
 19 24  1  0  0  0
 20 21  2  0  0  0
 20 97  1  0  0  0
 21 23  1  0  0  0
 22 28  1  0  0  0
 22 32  2  0  0  0
 26 27  1  0  0  0
 28 98  1  0  0  0
 28 99  1  0  0  0
 29100  1  0  0  0
 29101  1  0  0  0
 33 34  1  0  0  0
 33 66  1  0  0  0
 33 70  2  0  0  0
 34 36  1  0  0  0
 34 59  1  0  0  0
 34102  1  0  0  0
 35 44  2  0  0  0
 35 45  1  0  0  0
 35 68  1  0  0  0
 36 56  1  0  0  0
 36103  1  0  0  0
 37 39  1  0  0  0
 37 47  1  0  0  0
 37 66  1  0  0  0
 37104  1  0  0  0
 38 43  2  0  0  0
 38 46  1  0  0  0
 38 47  1  0  0  0
 39 64  1  0  0  0
 39 67  2  0  0  0
 40 52  1  0  0  0
 40 53  2  0  0  0
 40 58  1  0  0  0
 41105  1  0  0  0
 41106  1  0  0  0
 41107  1  0  0  0
 41 48  1  0  0  0
 42 43  1  0  0  0
 42 66  1  0  0  0
 42108  1  0  0  0
 42109  1  0  0  0
 43 44  1  0  0  0
 44110  1  0  0  0
 45 46  2  0  0  0
 45111  1  0  0  0
 46112  1  0  0  0
 47113  1  0  0  0
 47114  1  0  0  0
 48 56  1  0  0  0
 48 65  1  0  0  0
 48115  1  0  0  0
 49 50  1  0  0  0
 49 53  1  0  0  0
 49 64  1  0  0  0
 49116  1  0  0  0
 50 51  1  0  0  0
 50117  1  0  0  0
 50118  1  0  0  0
 51 52  1  0  0  0
 51119  1  0  0  0
 51120  1  0  0  0
 52121  1  0  0  0
 52122  1  0  0  0
 53 54  1  0  0  0
 54 55  2  0  0  0
 54123  1  0  0  0
 55 57  1  0  0  0
 55124  1  0  0  0
 56 69  2  0  0  0
 57 58  2  0  0  0
 57125  1  0  0  0
 58126  1  0  0  0
 59 60  1  0  0  0
 59 61  1  0  0  0
 59 62  1  0  0  0
 60127  1  0  0  0
 60128  1  0  0  0
 60129  1  0  0  0
 61130  1  0  0  0
 61131  1  0  0  0
 61132  1  0  0  0
 62133  1  0  0  0
 62134  1  0  0  0
 62135  1  0  0  0
 63 65  1  0  0  0
 63136  1  0  0  0
 63137  1  0  0  0
 63138  1  0  0  0
 64139  1  0  0  0
 65140  1  0  0  0
 68 76  1  0  0  0
 71 72  1  0  0  0
 71 73  2  0  0  0
 71141  1  0  0  0
 72 75  1  0  0  0
 72 77  2  0  0  0
 73 78  1  0  0  0
 73 81  1  0  0  0
 74 76  1  0  0  0
 74 78  1  0  0  0
 74 80  2  0  0  0
 75 79  1  0  0  0
 75142  1  0  0  0
 75143  1  0  0  0
 76144  1  0  0  0
 76145  1  0  0  0
 77 81  1  0  0  0
 78146  1  0  0  0
 79147  1  0  0  0
M  ISO  4   1 100  68 101  76 101  79 100
M  END
> <chiral flag>
0

> <version>
0

> <s_m_source_file>
/data/baiqing/PycharmProjects/Reinvent-master-3.2/result/LINK_invent/BTK/process_docking_weight1_custom_product_contain_oxygen_bond_distance_aromatic_linkinvent_7_9_3/rearranged_h_0158.sdf

> <i_m_source_file_index>
18

> <r_mmod_Potential_Energy-OPLS-2005>
3.7734751701355

> <r_mmod_Stretch_Energy-OPLS-2005>
137.878295898438

> <r_mmod_Bend_Energy-OPLS-2005>
198.820648193359

> <r_mmod_Torsional_Energy-OPLS-2005>
229.152725219727

> <r_mmod_Improper_Torsional_Energy-OPLS-2005>
5.2571120262146

> <r_mmod_Van_der_Waal_Energy-OPLS-2005>
111.834014892578

> <r_mmod_Electrostatic_Energy-OPLS-2005>
-515.814880371094

> <r_mmod_Solvation_Energy-OPLS-2005>
-275.794708251953

> <b_mmod_Minimization_Converged-OPLS-2005>
0

> <r_mmod_RMS_Derivative-OPLS-2005>
1.13504505157471

$$$$
18
                    3D
 Structure written by MMmdl.
147155  0  0  1  0            999 V2000
  -30.6352  -14.8026   20.4404 C   0  0  0  0  0  0
  -30.4233  -12.4926   19.4826 C   0  0  0  0  0  0
  -29.5078  -12.5068   18.2404 C   0  0  0  0  0  0
  -28.0374  -12.3232   18.6582 C   0  0  0  0  0  0
  -27.6338  -13.2432   19.8414 C   0  0  2  0  0  0
  -28.6806  -13.2344   20.9767 C   0  0  0  0  0  0
  -25.2477  -13.8222   20.5711 C   0  0  0  0  0  0
  -24.1786  -13.0448   20.9224 C   0  0  0  0  0  0
  -24.6395  -11.6931   20.8757 C   0  0  0  0  0  0
  -23.9078  -10.4299   21.0408 C   0  0  0  0  0  0
  -24.3628   -9.4211   21.9184 C   0  0  0  0  0  0
  -23.6300   -8.2247   22.0753 C   0  0  0  0  0  0
  -22.4281   -8.0285   21.3545 C   0  0  0  0  0  0
  -21.9919   -9.0259   20.4646 C   0  0  0  0  0  0
  -22.7250  -10.2138   20.3056 C   0  0  0  0  0  0
  -21.6856   -6.0738   22.5280 C   0  0  0  0  0  0
  -21.4017   -6.5642   23.8213 C   0  0  0  0  0  0
  -21.3659   -5.6793   24.9175 C   0  0  0  0  0  0
  -21.6044   -4.3056   24.7225 C   0  0  0  0  0  0
  -21.8819   -3.8148   23.4347 C   0  0  0  0  0  0
  -21.9193   -4.6965   22.3403 C   0  0  0  0  0  0
  -22.7804  -13.5217   21.1876 C   0  0  0  0  0  0
  -22.1662   -4.2150   21.0981 F   0  0  0  0  0  0
  -21.5627   -3.4539   25.7738 F   0  0  0  0  0  0
  -29.9722  -13.5891   20.3780 N   0  0  0  0  0  0
  -26.2907  -12.9450   20.3270 N   0  0  0  0  0  0
  -25.9329  -11.6581   20.5759 N   0  0  0  0  0  0
  -22.0456  -12.8203   22.0431 N   0  0  0  0  0  0
  -25.4140  -15.1951   20.4131 N   0  0  0  0  0  0
  -31.8411  -14.7953   20.1778 O   0  0  0  0  0  0
  -21.6645   -6.8882   21.4242 O   0  0  0  0  0  0
  -22.3486  -14.5520   20.6719 O   0  0  0  0  0  0
  -24.6368  -31.8527   23.1978 C   0  0  0  0  0  0
  -25.9176  -32.4740   23.8332 C   0  0  1  0  0  0
  -27.2068  -27.2112   20.1285 C   0  0  0  0  0  0
  -25.5954  -33.8544   24.2248 N   0  0  0  0  0  0
  -23.4354  -30.4784   21.5427 C   0  0  2  0  0  0
  -24.8813  -28.9275   20.1080 C   0  0  0  0  0  0
  -22.7533  -29.4593   22.4890 C   0  0  0  0  0  0
  -18.0301  -28.1390   22.8479 C   0  0  0  0  0  0
  -24.1492  -36.7275   23.2639 C   0  0  0  0  0  0
  -25.9886  -30.7486   21.3890 C   0  0  0  0  0  0
  -26.0582  -29.3697   20.7258 C   0  0  0  0  0  0
  -27.2237  -28.5250   20.7267 C   0  0  0  0  0  0
  -26.0059  -26.8676   19.4613 C   0  0  0  0  0  0
  -24.8641  -27.6863   19.4629 C   0  0  0  0  0  0
  -23.6561  -29.8203   20.1574 C   0  0  0  0  0  0
  -25.4121  -36.3060   24.0322 C   0  0  1  0  0  0
  -20.5909  -28.3710   23.1248 C   0  0  2  0  0  0
  -20.6787  -26.9420   22.5400 C   0  0  0  0  0  0
  -19.5759  -26.6381   21.5208 C   0  0  0  0  0  0
  -18.1942  -26.7930   22.1624 C   0  0  0  0  0  0
  -19.1556  -28.8867   23.2858 C   0  0  0  0  0  0
  -18.9474  -30.1465   23.8880 C   0  0  0  0  0  0
  -17.6471  -30.6587   24.0559 C   0  0  0  0  0  0
  -25.9066  -34.9431   23.5087 C   0  0  0  0  0  0
  -16.5362  -29.9082   23.6332 C   0  0  0  0  0  0
  -16.7286  -28.6501   23.0352 C   0  0  0  0  0  0
  -26.4518  -31.6578   25.0741 C   0  0  0  0  0  0
  -25.3720  -31.3747   26.1446 C   0  0  0  0  0  0
  -27.0370  -30.2981   24.6276 C   0  0  0  0  0  0
  -27.6063  -32.4329   25.7517 C   0  0  0  0  0  0
  -27.5580  -37.1796   24.8465 C   0  0  0  0  0  0
  -21.4235  -29.3052   22.3632 N   0  0  0  0  0  0
  -26.4293  -37.3763   23.9406 N   0  0  0  0  0  0
  -24.7064  -31.0451   22.0985 N   0  0  0  0  0  0
  -23.4213  -28.8122   23.2997 O   0  0  0  0  0  0
  -28.2542  -26.2409   20.2079 O   0  0  0  0  0  0
  -26.5637  -34.8910   22.4656 O   0  0  0  0  0  0
  -23.5505  -32.1374   23.7239 O   0  0  0  0  0  0
  -29.8321  -19.9981   20.4525 C   0  0  0  0  0  0
  -27.6349  -19.8182   20.3467 C   0  0  0  0  0  0
  -28.6087  -20.7871   20.3477 C   0  0  0  0  0  0
  -29.5196  -18.6179   20.4920 C   0  0  0  0  0  0
  -30.4011  -17.3218   20.5461 C   0  0  0  0  0  0
  -28.8103  -23.5078   20.3234 C   0  0  0  0  0  0
  -27.8734  -24.7828   19.9591 C   0  0  0  0  0  0
  -28.2500  -22.2375   20.1882 N   0  0  0  0  0  0
  -29.9179  -16.0043   20.5654 N   0  0  0  0  0  0
  -31.6165  -17.5462   20.5677 O   0  0  0  0  0  0
  -29.9749  -23.6744   20.6955 O   0  0  0  0  0  0
  -28.1530  -18.5376   20.4350 O   0  0  0  0  0  0
  -31.4647  -12.5999   19.1750 H   0  0  0  0  0  0
  -30.3651  -11.5313   19.9959 H   0  0  0  0  0  0
  -29.8003  -11.7193   17.5446 H   0  0  0  0  0  0
  -29.6252  -13.4500   17.7044 H   0  0  0  0  0  0
  -27.9081  -11.2786   18.9437 H   0  0  0  0  0  0
  -27.3770  -12.4886   17.8062 H   0  0  0  0  0  0
  -27.6105  -14.2538   19.4330 H   0  0  0  0  0  0
  -28.7317  -12.2556   21.4561 H   0  0  0  0  0  0
  -28.4086  -13.9472   21.7568 H   0  0  0  0  0  0
  -25.2772   -9.5686   22.4761 H   0  0  0  0  0  0
  -24.0009   -7.4639   22.7473 H   0  0  0  0  0  0
  -21.0850   -8.8780   19.8952 H   0  0  0  0  0  0
  -22.3707  -10.9678   19.6167 H   0  0  0  0  0  0
  -21.2013   -7.6150   23.9718 H   0  0  0  0  0  0
  -21.1479   -6.0523   25.9078 H   0  0  0  0  0  0
  -22.0598   -2.7609   23.2847 H   0  0  0  0  0  0
  -22.4083  -11.9872   22.4825 H   0  0  0  0  0  0
  -21.1069  -13.1216   22.2634 H   0  0  0  0  0  0
  -24.6428  -15.8443   20.5246 H   0  0  0  0  0  0
  -26.2549  -15.6391   20.0682 H   0  0  0  0  0  0
  -26.7240  -32.5371   23.1066 H   0  0  0  0  0  0
  -25.0093  -33.9677   25.0388 H   0  0  0  0  0  0
  -22.7341  -31.3029   21.3983 H   0  0  0  0  0  0
  -23.3757  -35.9604   23.3299 H   0  0  0  0  0  0
  -24.3579  -36.8902   22.2053 H   0  0  0  0  0  0
  -23.7243  -37.6472   23.6669 H   0  0  0  0  0  0
  -26.1395  -31.5092   20.6218 H   0  0  0  0  0  0
  -26.8618  -30.7924   22.0283 H   0  0  0  0  0  0
  -28.1177  -28.8542   21.2377 H   0  0  0  0  0  0
  -25.8956  -25.9299   18.9399 H   0  0  0  0  0  0
  -23.9672  -27.3458   18.9637 H   0  0  0  0  0  0
  -23.7871  -30.6009   19.4071 H   0  0  0  0  0  0
  -22.7719  -29.2611   19.8460 H   0  0  0  0  0  0
  -25.1304  -36.1905   25.0814 H   0  0  0  0  0  0
  -21.0004  -28.3293   24.1367 H   0  0  0  0  0  0
  -20.5683  -26.2322   23.3612 H   0  0  0  0  0  0
  -21.6653  -26.7435   22.1196 H   0  0  0  0  0  0
  -19.6921  -25.6288   21.1246 H   0  0  0  0  0  0
  -19.6693  -27.3183   20.6732 H   0  0  0  0  0  0
  -17.4208  -26.6669   21.4032 H   0  0  0  0  0  0
  -18.0348  -26.0076   22.9026 H   0  0  0  0  0  0
  -19.7949  -30.7286   24.2241 H   0  0  0  0  0  0
  -17.5023  -31.6265   24.5165 H   0  0  0  0  0  0
  -15.5361  -30.2976   23.7665 H   0  0  0  0  0  0
  -15.8687  -28.0814   22.7075 H   0  0  0  0  0  0
  -24.5905  -30.7088   25.7771 H   0  0  0  0  0  0
  -24.8903  -32.2922   26.4835 H   0  0  0  0  0  0
  -25.8018  -30.8947   27.0247 H   0  0  0  0  0  0
  -26.2974  -29.6720   24.1273 H   0  0  0  0  0  0
  -27.3990  -29.7258   25.4829 H   0  0  0  0  0  0
  -27.8882  -30.4229   23.9580 H   0  0  0  0  0  0
  -27.2669  -33.3641   26.2067 H   0  0  0  0  0  0
  -28.3889  -32.6871   25.0356 H   0  0  0  0  0  0
  -28.0716  -31.8473   26.5457 H   0  0  0  0  0  0
  -28.2596  -38.0094   24.7508 H   0  0  0  0  0  0
  -28.1077  -36.2623   24.6300 H   0  0  0  0  0  0
  -27.2294  -37.1453   25.8868 H   0  0  0  0  0  0
  -20.9427  -29.8784   21.6840 H   0  0  0  0  0  0
  -26.0168  -38.2836   24.1404 H   0  0  0  0  0  0
  -30.8422  -20.3827   20.4671 H   0  0  0  0  0  0
  -26.5556  -19.8534   20.2776 H   0  0  0  0  0  0
  -26.9344  -24.5911   20.4806 H   0  0  0  0  0  0
  -27.6690  -24.6804   18.8929 H   0  0  0  0  0  0
  -27.2801  -22.3437   19.9217 H   0  0  0  0  0  0
  -28.9179  -15.9238   20.6321 H   0  0  0  0  0  0
  1 25  1  0  0  0
  1 30  2  0  0  0
  1 79  1  0  0  0
  2  3  1  0  0  0
  2 25  1  0  0  0
  2 83  1  0  0  0
  2 84  1  0  0  0
  3  4  1  0  0  0
  3 85  1  0  0  0
  3 86  1  0  0  0
  4  5  1  0  0  0
  4 87  1  0  0  0
  4 88  1  0  0  0
  5  6  1  0  0  0
  5 26  1  0  0  0
  5 89  1  0  0  0
  6 25  1  0  0  0
  6 90  1  0  0  0
  6 91  1  0  0  0
  7  8  2  0  0  0
  7 26  1  0  0  0
  7 29  1  0  0  0
  8  9  1  0  0  0
  8 22  1  0  0  0
  9 10  1  0  0  0
  9 27  2  0  0  0
 10 11  2  0  0  0
 10 15  1  0  0  0
 11 12  1  0  0  0
 11 92  1  0  0  0
 12 13  2  0  0  0
 12 93  1  0  0  0
 13 14  1  0  0  0
 13 31  1  0  0  0
 14 15  2  0  0  0
 14 94  1  0  0  0
 15 95  1  0  0  0
 16 17  2  0  0  0
 16 21  1  0  0  0
 16 31  1  0  0  0
 17 18  1  0  0  0
 17 96  1  0  0  0
 18 19  2  0  0  0
 18 97  1  0  0  0
 19 20  1  0  0  0
 19 24  1  0  0  0
 20 21  2  0  0  0
 20 98  1  0  0  0
 21 23  1  0  0  0
 22 28  1  0  0  0
 22 32  2  0  0  0
 26 27  1  0  0  0
 28 99  1  0  0  0
 28100  1  0  0  0
 29101  1  0  0  0
 29102  1  0  0  0
 33 34  1  0  0  0
 33 66  1  0  0  0
 33 70  2  0  0  0
 34 36  1  0  0  0
 34 59  1  0  0  0
 34103  1  0  0  0
 35 44  2  0  0  0
 35 45  1  0  0  0
 35 68  1  0  0  0
 36 56  1  0  0  0
 36104  1  0  0  0
 37 39  1  0  0  0
 37 47  1  0  0  0
 37 66  1  0  0  0
 37105  1  0  0  0
 38 43  2  0  0  0
 38 46  1  0  0  0
 38 47  1  0  0  0
 39 64  1  0  0  0
 39 67  2  0  0  0
 40 52  1  0  0  0
 40 53  2  0  0  0
 40 58  1  0  0  0
 41106  1  0  0  0
 41107  1  0  0  0
 41108  1  0  0  0
 41 48  1  0  0  0
 42 43  1  0  0  0
 42 66  1  0  0  0
 42109  1  0  0  0
 42110  1  0  0  0
 43 44  1  0  0  0
 44111  1  0  0  0
 45 46  2  0  0  0
 45112  1  0  0  0
 46113  1  0  0  0
 47114  1  0  0  0
 47115  1  0  0  0
 48 56  1  0  0  0
 48 65  1  0  0  0
 48116  1  0  0  0
 49 50  1  0  0  0
 49 53  1  0  0  0
 49 64  1  0  0  0
 49117  1  0  0  0
 50 51  1  0  0  0
 50118  1  0  0  0
 50119  1  0  0  0
 51 52  1  0  0  0
 51120  1  0  0  0
 51121  1  0  0  0
 52122  1  0  0  0
 52123  1  0  0  0
 53 54  1  0  0  0
 54 55  2  0  0  0
 54124  1  0  0  0
 55 57  1  0  0  0
 55125  1  0  0  0
 56 69  2  0  0  0
 57 58  2  0  0  0
 57126  1  0  0  0
 58127  1  0  0  0
 59 60  1  0  0  0
 59 61  1  0  0  0
 59 62  1  0  0  0
 60128  1  0  0  0
 60129  1  0  0  0
 60130  1  0  0  0
 61131  1  0  0  0
 61132  1  0  0  0
 61133  1  0  0  0
 62134  1  0  0  0
 62135  1  0  0  0
 62136  1  0  0  0
 63 65  1  0  0  0
 63137  1  0  0  0
 63138  1  0  0  0
 63139  1  0  0  0
 64140  1  0  0  0
 65141  1  0  0  0
 68 77  1  0  0  0
 71 73  1  0  0  0
 71 74  2  0  0  0
 71142  1  0  0  0
 72 73  2  0  0  0
 72 82  1  0  0  0
 72143  1  0  0  0
 73 78  1  0  0  0
 74 75  1  0  0  0
 74 82  1  0  0  0
 75 79  1  0  0  0
 75 80  2  0  0  0
 76 77  1  0  0  0
 76 78  1  0  0  0
 76 81  2  0  0  0
 77144  1  0  0  0
 77145  1  0  0  0
 78146  1  0  0  0
 79147  1  0  0  0
M  ISO  4   1 100  68 101  77 101  79 100
M  END
> <chiral flag>
0

> <version>
0

> <s_m_source_file>
/data/baiqing/PycharmProjects/Reinvent-master-3.2/result/LINK_invent/BTK/process_docking_weight1_custom_product_contain_oxygen_bond_distance_aromatic_linkinvent_7_9_3/rearranged_h_0158.sdf

> <i_m_source_file_index>
19

> <r_mmod_Potential_Energy-OPLS-2005>
166.973693847656

> <r_mmod_Stretch_Energy-OPLS-2005>
147.717086791992

> <r_mmod_Bend_Energy-OPLS-2005>
230.400741577148

> <r_mmod_Torsional_Energy-OPLS-2005>
224.106521606445

> <r_mmod_Improper_Torsional_Energy-OPLS-2005>
5.25030660629272

> <r_mmod_Van_der_Waal_Energy-OPLS-2005>
127.241973876953

> <r_mmod_Electrostatic_Energy-OPLS-2005>
-421.249877929688

> <r_mmod_Solvation_Energy-OPLS-2005>
-268.399169921875

> <b_mmod_Minimization_Converged-OPLS-2005>
0

> <r_mmod_RMS_Derivative-OPLS-2005>
0.219915166497231

$$$$
19
                    3D
 Structure written by MMmdl.
162171  0  0  1  0            999 V2000
  -30.6181  -14.7256   20.4600 C   0  0  0  0  0  0
  -30.4328  -12.4384   19.4936 C   0  0  0  0  0  0
  -29.5244  -12.5103   18.2487 C   0  0  0  0  0  0
  -28.0440  -12.3487   18.6456 C   0  0  0  0  0  0
  -27.6462  -13.2355   19.8572 C   0  0  2  0  0  0
  -28.6857  -13.1607   20.9979 C   0  0  0  0  0  0
  -25.2528  -13.8200   20.5663 C   0  0  0  0  0  0
  -24.1820  -13.0445   20.9169 C   0  0  0  0  0  0
  -24.6407  -11.6925   20.8726 C   0  0  0  0  0  0
  -23.9080  -10.4296   21.0371 C   0  0  0  0  0  0
  -24.3647   -9.4221   21.9151 C   0  0  0  0  0  0
  -23.6314   -8.2260   22.0742 C   0  0  0  0  0  0
  -22.4287   -8.0287   21.3544 C   0  0  0  0  0  0
  -21.9912   -9.0256   20.4642 C   0  0  0  0  0  0
  -22.7243  -10.2131   20.3031 C   0  0  0  0  0  0
  -21.6870   -6.0733   22.5261 C   0  0  0  0  0  0
  -21.4030   -6.5634   23.8195 C   0  0  0  0  0  0
  -21.3669   -5.6782   24.9157 C   0  0  0  0  0  0
  -21.6043   -4.3038   24.7200 C   0  0  0  0  0  0
  -21.8831   -3.8140   23.4318 C   0  0  0  0  0  0
  -21.9203   -4.6964   22.3383 C   0  0  0  0  0  0
  -22.7840  -13.5231   21.1815 C   0  0  0  0  0  0
  -22.1656   -4.2151   21.0957 F   0  0  0  0  0  0
  -21.5635   -3.4523   25.7711 F   0  0  0  0  0  0
  -29.9931  -13.5016   20.4273 N   0  0  0  0  0  0
  -26.2959  -12.9419   20.3285 N   0  0  0  0  0  0
  -25.9343  -11.6557   20.5757 N   0  0  0  0  0  0
  -22.0485  -12.8236   22.0384 N   0  0  0  0  0  0
  -25.4205  -15.1929   20.4056 N   0  0  0  0  0  0
  -31.8035  -14.8072   20.1220 O   0  0  0  0  0  0
  -21.6667   -6.8877   21.4222 O   0  0  0  0  0  0
  -22.3500  -14.5507   20.6627 O   0  0  0  0  0  0
  -24.6326  -31.8575   23.2010 C   0  0  0  0  0  0
  -25.9162  -32.4753   23.8339 C   0  0  1  0  0  0
  -27.2086  -27.2708   20.1312 C   0  0  0  0  0  0
  -25.5975  -33.8557   24.2277 N   0  0  0  0  0  0
  -23.4256  -30.4846   21.5439 C   0  0  2  0  0  0
  -24.8715  -28.9421   20.1073 C   0  0  0  0  0  0
  -22.7511  -29.4610   22.4897 C   0  0  0  0  0  0
  -18.0299  -28.1348   22.8489 C   0  0  0  0  0  0
  -24.1495  -36.7290   23.2632 C   0  0  0  0  0  0
  -25.9723  -30.7775   21.3761 C   0  0  0  0  0  0
  -26.0444  -29.4019   20.7182 C   0  0  0  0  0  0
  -27.2176  -28.5790   20.7200 C   0  0  0  0  0  0
  -26.0102  -26.8871   19.4802 C   0  0  0  0  0  0
  -24.8605  -27.6923   19.4762 C   0  0  0  0  0  0
  -23.6428  -29.8268   20.1571 C   0  0  0  0  0  0
  -25.4114  -36.3058   24.0321 C   0  0  1  0  0  0
  -20.5909  -28.3671   23.1257 C   0  0  2  0  0  0
  -20.6782  -26.9381   22.5401 C   0  0  0  0  0  0
  -19.5750  -26.6346   21.5211 C   0  0  0  0  0  0
  -18.1932  -26.7888   22.1616 C   0  0  0  0  0  0
  -19.1555  -28.8828   23.2867 C   0  0  0  0  0  0
  -18.9466  -30.1433   23.8870 C   0  0  0  0  0  0
  -17.6464  -30.6555   24.0545 C   0  0  0  0  0  0
  -25.9066  -34.9435   23.5093 C   0  0  0  0  0  0
  -16.5359  -29.9050   23.6313 C   0  0  0  0  0  0
  -16.7282  -28.6464   23.0343 C   0  0  0  0  0  0
  -26.4524  -31.6557   25.0720 C   0  0  0  0  0  0
  -25.3771  -31.3684   26.1456 C   0  0  0  0  0  0
  -27.0389  -30.2987   24.6171 C   0  0  0  0  0  0
  -27.6046  -32.4308   25.7532 C   0  0  0  0  0  0
  -27.5570  -37.1809   24.8454 C   0  0  0  0  0  0
  -21.4213  -29.3042   22.3659 N   0  0  0  0  0  0
  -26.4274  -37.3771   23.9414 N   0  0  0  0  0  0
  -24.6965  -31.0569   22.0969 N   0  0  0  0  0  0
  -23.4223  -28.8138   23.2968 O   0  0  0  0  0  0
  -28.2844  -26.3541   20.2140 O   0  0  0  0  0  0
  -26.5606  -34.8909   22.4643 O   0  0  0  0  0  0
  -23.5479  -32.1372   23.7323 O   0  0  0  0  0  0
  -30.9628  -18.7092   18.4257 C   0  0  0  0  0  0
  -30.4146  -19.8646   19.0151 C   0  0  0  0  0  0
  -30.7772  -17.4365   18.9953 C   0  0  0  0  0  0
  -29.4633  -18.4630   20.7591 C   0  0  0  0  0  0
  -29.6312  -19.7962   20.1846 C   0  0  0  0  0  0
  -30.0429  -17.2513   20.1902 C   0  0  0  0  0  0
  -30.1640  -24.0735   20.9210 C   0  0  0  0  0  0
  -28.9692  -23.7376   20.3840 C   0  0  0  0  0  0
  -31.2539  -23.1544   21.3047 C   0  0  0  0  0  0
  -31.0163  -21.8902   22.1479 C   0  0  0  0  0  0
  -29.6056  -21.2857   22.1225 C   0  0  0  0  0  0
  -28.4959  -22.2386   20.0870 C   0  0  1  0  0  0
  -28.1885  -22.0224   18.5931 C   0  0  0  0  0  0
  -27.9588  -24.9022   20.0142 C   0  0  0  0  0  0
  -29.1505  -21.0423   20.7623 N   0  0  0  0  0  0
  -29.8664  -15.8680   20.7132 N   0  0  0  0  0  0
  -32.4200  -23.4166   20.9990 O   0  0  0  0  0  0
  -31.4799  -12.5459   19.2060 H   0  0  0  0  0  0
  -30.3534  -11.4593   19.9679 H   0  0  0  0  0  0
  -29.8092  -11.7379   17.5336 H   0  0  0  0  0  0
  -29.6727  -13.4670   17.7442 H   0  0  0  0  0  0
  -27.8786  -11.2973   18.8855 H   0  0  0  0  0  0
  -27.4032  -12.5697   17.7917 H   0  0  0  0  0  0
  -27.6438  -14.2617   19.4911 H   0  0  0  0  0  0
  -28.7100  -12.1633   21.4382 H   0  0  0  0  0  0
  -28.4220  -13.8407   21.8090 H   0  0  0  0  0  0
  -25.2805   -9.5704   22.4706 H   0  0  0  0  0  0
  -24.0034   -7.4659   22.7456 H   0  0  0  0  0  0
  -21.0849   -8.8770   19.8952 H   0  0  0  0  0  0
  -22.3692  -10.9671   19.6143 H   0  0  0  0  0  0
  -21.2025   -7.6140   23.9698 H   0  0  0  0  0  0
  -21.1479   -6.0506   25.9062 H   0  0  0  0  0  0
  -22.0605   -2.7600   23.2815 H   0  0  0  0  0  0
  -22.4130  -11.9968   22.4881 H   0  0  0  0  0  0
  -21.1070  -13.1217   22.2504 H   0  0  0  0  0  0
  -24.6541  -15.8469   20.5216 H   0  0  0  0  0  0
  -26.2664  -15.6337   20.0660 H   0  0  0  0  0  0
  -26.7237  -32.5416   23.1085 H   0  0  0  0  0  0
  -25.0201  -33.9686   25.0473 H   0  0  0  0  0  0
  -22.7215  -31.3066   21.4016 H   0  0  0  0  0  0
  -23.3746  -35.9629   23.3259 H   0  0  0  0  0  0
  -24.3580  -36.8947   22.2048 H   0  0  0  0  0  0
  -23.7250  -37.6487   23.6675 H   0  0  0  0  0  0
  -26.1043  -31.5382   20.6047 H   0  0  0  0  0  0
  -26.8537  -30.8304   22.0030 H   0  0  0  0  0  0
  -28.1142  -28.9239   21.2144 H   0  0  0  0  0  0
  -25.9132  -25.9357   18.9814 H   0  0  0  0  0  0
  -23.9640  -27.3369   18.9861 H   0  0  0  0  0  0
  -23.7661  -30.6062   19.4037 H   0  0  0  0  0  0
  -22.7610  -29.2604   19.8497 H   0  0  0  0  0  0
  -25.1294  -36.1888   25.0808 H   0  0  0  0  0  0
  -21.0008  -28.3236   24.1371 H   0  0  0  0  0  0
  -20.5665  -26.2290   23.3610 H   0  0  0  0  0  0
  -21.6653  -26.7383   22.1202 H   0  0  0  0  0  0
  -19.6915  -25.6255   21.1238 H   0  0  0  0  0  0
  -19.6680  -27.3160   20.6739 H   0  0  0  0  0  0
  -17.4215  -26.6653   21.4004 H   0  0  0  0  0  0
  -18.0315  -26.0009   22.8983 H   0  0  0  0  0  0
  -19.7953  -30.7264   24.2211 H   0  0  0  0  0  0
  -17.5015  -31.6232   24.5148 H   0  0  0  0  0  0
  -15.5355  -30.2941   23.7630 H   0  0  0  0  0  0
  -15.8682  -28.0769   22.7057 H   0  0  0  0  0  0
  -24.5926  -30.7051   25.7793 H   0  0  0  0  0  0
  -24.8999  -32.2861   26.4922 H   0  0  0  0  0  0
  -25.8132  -30.8834   27.0205 H   0  0  0  0  0  0
  -26.2990  -29.6724   24.1185 H   0  0  0  0  0  0
  -27.4091  -29.7228   25.4663 H   0  0  0  0  0  0
  -27.8844  -30.4266   23.9404 H   0  0  0  0  0  0
  -27.2600  -33.3569   26.2139 H   0  0  0  0  0  0
  -28.3880  -32.6944   25.0415 H   0  0  0  0  0  0
  -28.0703  -31.8433   26.5453 H   0  0  0  0  0  0
  -28.2572  -38.0123   24.7512 H   0  0  0  0  0  0
  -28.1086  -36.2658   24.6264 H   0  0  0  0  0  0
  -27.2289  -37.1425   25.8854 H   0  0  0  0  0  0
  -20.9384  -29.8819   21.6933 H   0  0  0  0  0  0
  -26.0137  -38.2841   24.1423 H   0  0  0  0  0  0
  -31.5514  -18.8051   17.5254 H   0  0  0  0  0  0
  -30.6396  -20.8189   18.5636 H   0  0  0  0  0  0
  -31.2182  -16.5968   18.4805 H   0  0  0  0  0  0
  -28.8780  -18.3701   21.6636 H   0  0  0  0  0  0
  -30.3810  -25.1224   21.0577 H   0  0  0  0  0  0
  -31.3012  -22.1074   23.1770 H   0  0  0  0  0  0
  -31.7192  -21.1338   21.7969 H   0  0  0  0  0  0
  -28.9112  -21.9607   22.6267 H   0  0  0  0  0  0
  -29.5951  -20.3647   22.7065 H   0  0  0  0  0  0
  -27.5069  -22.2217   20.5498 H   0  0  0  0  0  0
  -29.0668  -22.1616   17.9650 H   0  0  0  0  0  0
  -27.4396  -22.7301   18.2391 H   0  0  0  0  0  0
  -27.7755  -21.0316   18.4003 H   0  0  0  0  0  0
  -27.0394  -24.6703   20.5560 H   0  0  0  0  0  0
  -27.7430  -24.7838   18.9551 H   0  0  0  0  0  0
  -28.9934  -15.6967   21.1895 H   0  0  0  0  0  0
  1 25  1  0  0  0
  1 30  2  0  0  0
  1 86  1  0  0  0
  2  3  1  0  0  0
  2 25  1  0  0  0
  2 88  1  0  0  0
  2 89  1  0  0  0
  3  4  1  0  0  0
  3 90  1  0  0  0
  3 91  1  0  0  0
  4  5  1  0  0  0
  4 92  1  0  0  0
  4 93  1  0  0  0
  5  6  1  0  0  0
  5 26  1  0  0  0
  5 94  1  0  0  0
  6 25  1  0  0  0
  6 95  1  0  0  0
  6 96  1  0  0  0
  7  8  2  0  0  0
  7 26  1  0  0  0
  7 29  1  0  0  0
  8  9  1  0  0  0
  8 22  1  0  0  0
  9 10  1  0  0  0
  9 27  2  0  0  0
 10 11  2  0  0  0
 10 15  1  0  0  0
 11 12  1  0  0  0
 11 97  1  0  0  0
 12 13  2  0  0  0
 12 98  1  0  0  0
 13 14  1  0  0  0
 13 31  1  0  0  0
 14 15  2  0  0  0
 14 99  1  0  0  0
 15100  1  0  0  0
 16 17  2  0  0  0
 16 21  1  0  0  0
 16 31  1  0  0  0
 17 18  1  0  0  0
 17101  1  0  0  0
 18 19  2  0  0  0
 18102  1  0  0  0
 19 20  1  0  0  0
 19 24  1  0  0  0
 20 21  2  0  0  0
 20103  1  0  0  0
 21 23  1  0  0  0
 22 28  1  0  0  0
 22 32  2  0  0  0
 26 27  1  0  0  0
 28104  1  0  0  0
 28105  1  0  0  0
 29106  1  0  0  0
 29107  1  0  0  0
 33 34  1  0  0  0
 33 66  1  0  0  0
 33 70  2  0  0  0
 34 36  1  0  0  0
 34 59  1  0  0  0
 34108  1  0  0  0
 35 44  2  0  0  0
 35 45  1  0  0  0
 35 68  1  0  0  0
 36 56  1  0  0  0
 36109  1  0  0  0
 37 39  1  0  0  0
 37 47  1  0  0  0
 37 66  1  0  0  0
 37110  1  0  0  0
 38 43  2  0  0  0
 38 46  1  0  0  0
 38 47  1  0  0  0
 39 64  1  0  0  0
 39 67  2  0  0  0
 40 52  1  0  0  0
 40 53  2  0  0  0
 40 58  1  0  0  0
 41111  1  0  0  0
 41112  1  0  0  0
 41113  1  0  0  0
 41 48  1  0  0  0
 42 43  1  0  0  0
 42 66  1  0  0  0
 42114  1  0  0  0
 42115  1  0  0  0
 43 44  1  0  0  0
 44116  1  0  0  0
 45 46  2  0  0  0
 45117  1  0  0  0
 46118  1  0  0  0
 47119  1  0  0  0
 47120  1  0  0  0
 48 56  1  0  0  0
 48 65  1  0  0  0
 48121  1  0  0  0
 49 50  1  0  0  0
 49 53  1  0  0  0
 49 64  1  0  0  0
 49122  1  0  0  0
 50 51  1  0  0  0
 50123  1  0  0  0
 50124  1  0  0  0
 51 52  1  0  0  0
 51125  1  0  0  0
 51126  1  0  0  0
 52127  1  0  0  0
 52128  1  0  0  0
 53 54  1  0  0  0
 54 55  2  0  0  0
 54129  1  0  0  0
 55 57  1  0  0  0
 55130  1  0  0  0
 56 69  2  0  0  0
 57 58  2  0  0  0
 57131  1  0  0  0
 58132  1  0  0  0
 59 60  1  0  0  0
 59 61  1  0  0  0
 59 62  1  0  0  0
 60133  1  0  0  0
 60134  1  0  0  0
 60135  1  0  0  0
 61136  1  0  0  0
 61137  1  0  0  0
 61138  1  0  0  0
 62139  1  0  0  0
 62140  1  0  0  0
 62141  1  0  0  0
 63 65  1  0  0  0
 63142  1  0  0  0
 63143  1  0  0  0
 63144  1  0  0  0
 64145  1  0  0  0
 65146  1  0  0  0
 68 84  1  0  0  0
 71 72  2  0  0  0
 71 73  1  0  0  0
 71147  1  0  0  0
 72 75  1  0  0  0
 72148  1  0  0  0
 73 76  2  0  0  0
 73149  1  0  0  0
 74 75  2  0  0  0
 74 76  1  0  0  0
 74150  1  0  0  0
 75 85  1  0  0  0
 76 86  1  0  0  0
 77 78  2  0  0  0
 77 79  1  0  0  0
 77151  1  0  0  0
 78 82  1  0  0  0
 78 84  1  0  0  0
 79 80  1  0  0  0
 79 87  2  0  0  0
 80 81  1  0  0  0
 80152  1  0  0  0
 80153  1  0  0  0
 81 85  1  0  0  0
 81154  1  0  0  0
 81155  1  0  0  0
 82 83  1  0  0  0
 82 85  1  0  0  0
 82156  1  0  0  0
 83157  1  0  0  0
 83158  1  0  0  0
 83159  1  0  0  0
 84160  1  0  0  0
 84161  1  0  0  0
 86162  1  0  0  0
M  ISO  4   1 100  68 101  84 101  86 100
M  END
> <chiral flag>
0

> <version>
0

> <s_m_source_file>
/data/baiqing/PycharmProjects/Reinvent-master-3.2/result/LINK_invent/BTK/process_docking_weight1_custom_product_contain_oxygen_bond_distance_aromatic_linkinvent_7_9_3/rearranged_h_0158.sdf

> <i_m_source_file_index>
20

> <r_mmod_Potential_Energy-OPLS-2005>
181.18815612793

> <r_mmod_Stretch_Energy-OPLS-2005>
121.916854858398

> <r_mmod_Bend_Energy-OPLS-2005>
191.648422241211

> <r_mmod_Torsional_Energy-OPLS-2005>
238.84130859375

> <r_mmod_Improper_Torsional_Energy-OPLS-2005>
5.07342195510864

> <r_mmod_Van_der_Waal_Energy-OPLS-2005>
156.472259521484

> <r_mmod_Electrostatic_Energy-OPLS-2005>
-381.366516113281

> <r_mmod_Solvation_Energy-OPLS-2005>
-233.148239135742

> <b_mmod_Minimization_Converged-OPLS-2005>
0

> <r_mmod_RMS_Derivative-OPLS-2005>
2.76649284362793

$$$$
20
                    3D
 Structure written by MMmdl.
149157  0  0  1  0            999 V2000
  -30.6258  -14.7692   20.4616 C   0  0  0  0  0  0
  -30.4265  -12.4701   19.4839 C   0  0  0  0  0  0
  -29.5106  -12.4913   18.2398 C   0  0  0  0  0  0
  -28.0380  -12.3090   18.6530 C   0  0  0  0  0  0
  -27.6356  -13.2285   19.8384 C   0  0  2  0  0  0
  -28.6761  -13.1970   20.9811 C   0  0  0  0  0  0
  -25.2487  -13.8196   20.5632 C   0  0  0  0  0  0
  -24.1802  -13.0452   20.9207 C   0  0  0  0  0  0
  -24.6392  -11.6922   20.8763 C   0  0  0  0  0  0
  -23.9087  -10.4295   21.0407 C   0  0  0  0  0  0
  -24.3649   -9.4214   21.9180 C   0  0  0  0  0  0
  -23.6326   -8.2248   22.0757 C   0  0  0  0  0  0
  -22.4305   -8.0288   21.3539 C   0  0  0  0  0  0
  -21.9940   -9.0261   20.4648 C   0  0  0  0  0  0
  -22.7263  -10.2146   20.3055 C   0  0  0  0  0  0
  -21.6861   -6.0749   22.5292 C   0  0  0  0  0  0
  -21.4001   -6.5648   23.8226 C   0  0  0  0  0  0
  -21.3662   -5.6803   24.9184 C   0  0  0  0  0  0
  -21.6063   -4.3070   24.7223 C   0  0  0  0  0  0
  -21.8816   -3.8156   23.4335 C   0  0  0  0  0  0
  -21.9188   -4.6977   22.3401 C   0  0  0  0  0  0
  -22.7825  -13.5241   21.1860 C   0  0  0  0  0  0
  -22.1659   -4.2167   21.0972 F   0  0  0  0  0  0
  -21.5641   -3.4544   25.7719 F   0  0  0  0  0  0
  -29.9754  -13.5507   20.3971 N   0  0  0  0  0  0
  -26.2897  -12.9395   20.3201 N   0  0  0  0  0  0
  -25.9317  -11.6546   20.5746 N   0  0  0  0  0  0
  -22.0461  -12.8233   22.0415 N   0  0  0  0  0  0
  -25.4156  -15.1908   20.3960 N   0  0  0  0  0  0
  -31.8252  -14.8311   20.1500 O   0  0  0  0  0  0
  -21.6659   -6.8890   21.4247 O   0  0  0  0  0  0
  -22.3520  -14.5537   20.6700 O   0  0  0  0  0  0
  -24.6362  -31.8545   23.1991 C   0  0  0  0  0  0
  -25.9178  -32.4746   23.8340 C   0  0  1  0  0  0
  -27.2124  -27.2234   20.1354 C   0  0  0  0  0  0
  -25.5964  -33.8552   24.2256 N   0  0  0  0  0  0
  -23.4347  -30.4809   21.5416 C   0  0  2  0  0  0
  -24.8818  -28.9287   20.1083 C   0  0  0  0  0  0
  -22.7534  -29.4622   22.4882 C   0  0  0  0  0  0
  -18.0300  -28.1413   22.8467 C   0  0  0  0  0  0
  -24.1495  -36.7281   23.2643 C   0  0  0  0  0  0
  -25.9868  -30.7535   21.3896 C   0  0  0  0  0  0
  -26.0566  -29.3754   20.7283 C   0  0  0  0  0  0
  -27.2245  -28.5352   20.7338 C   0  0  0  0  0  0
  -26.0150  -26.8738   19.4652 C   0  0  0  0  0  0
  -24.8694  -27.6881   19.4621 C   0  0  0  0  0  0
  -23.6555  -29.8212   20.1564 C   0  0  0  0  0  0
  -25.4124  -36.3062   24.0327 C   0  0  1  0  0  0
  -20.5908  -28.3738   23.1240 C   0  0  2  0  0  0
  -20.6792  -26.9449   22.5401 C   0  0  0  0  0  0
  -19.5773  -26.6392   21.5209 C   0  0  0  0  0  0
  -18.1948  -26.7953   22.1613 C   0  0  0  0  0  0
  -19.1553  -28.8888   23.2848 C   0  0  0  0  0  0
  -18.9474  -30.1479   23.8876 C   0  0  0  0  0  0
  -17.6471  -30.6596   24.0569 C   0  0  0  0  0  0
  -25.9064  -34.9434   23.5088 C   0  0  0  0  0  0
  -16.5360  -29.9088   23.6339 C   0  0  0  0  0  0
  -16.7284  -28.6517   23.0342 C   0  0  0  0  0  0
  -26.4512  -31.6577   25.0751 C   0  0  0  0  0  0
  -25.3712  -31.3761   26.1459 C   0  0  0  0  0  0
  -27.0364  -30.2977   24.6298 C   0  0  0  0  0  0
  -27.6064  -32.4321   25.7521 C   0  0  0  0  0  0
  -27.5583  -37.1807   24.8462 C   0  0  0  0  0  0
  -21.4235  -29.3075   22.3616 N   0  0  0  0  0  0
  -26.4295  -37.3763   23.9403 N   0  0  0  0  0  0
  -24.7046  -31.0489   22.0982 N   0  0  0  0  0  0
  -23.4211  -28.8161   23.2997 O   0  0  0  0  0  0
  -28.2654  -26.2627   20.2174 O   0  0  0  0  0  0
  -26.5620  -34.8911   22.4651 O   0  0  0  0  0  0
  -23.5501  -32.1380   23.7267 O   0  0  0  0  0  0
  -29.8405  -20.0639   20.6617 C   0  0  0  0  0  0
  -27.6921  -19.8748   20.1769 C   0  0  0  0  0  0
  -28.6322  -20.8425   20.4243 C   0  0  0  0  0  0
  -29.5584  -18.6891   20.4985 C   0  0  0  0  0  0
  -30.3387  -17.3842   20.4513 C   0  0  0  0  0  0
  -28.8432  -23.5445   20.3387 C   0  0  0  0  0  0
  -27.8610  -24.8015   20.0780 C   0  0  0  0  0  0
  -28.2502  -22.2885   20.4128 N   0  0  0  0  0  0
  -29.8656  -16.0668   20.6293 N   0  0  0  0  0  0
  -31.6351  -17.5791   20.1505 N   0  3  0  0  0  0
  -30.0632  -23.7067   20.4374 O   0  0  0  0  0  0
  -28.2232  -18.5993   20.2061 O   0  0  0  0  0  0
  -31.4701  -12.5810   19.1840 H   0  0  0  0  0  0
  -30.3609  -11.5020   19.9842 H   0  0  0  0  0  0
  -29.8057  -11.7037   17.5447 H   0  0  0  0  0  0
  -29.6274  -13.4341   17.7055 H   0  0  0  0  0  0
  -27.9083  -11.2652   18.9383 H   0  0  0  0  0  0
  -27.3769  -12.4677   17.8000 H   0  0  0  0  0  0
  -27.6214  -14.2422   19.4373 H   0  0  0  0  0  0
  -28.7174  -12.2073   21.4414 H   0  0  0  0  0  0
  -28.3989  -13.8892   21.7775 H   0  0  0  0  0  0
  -25.2798   -9.5712   22.4754 H   0  0  0  0  0  0
  -24.0043   -7.4654   22.7492 H   0  0  0  0  0  0
  -21.0866   -8.8804   19.8973 H   0  0  0  0  0  0
  -22.3723  -10.9692   19.6186 H   0  0  0  0  0  0
  -21.1982   -7.6162   23.9729 H   0  0  0  0  0  0
  -21.1491   -6.0528   25.9095 H   0  0  0  0  0  0
  -22.0583   -2.7620   23.2828 H   0  0  0  0  0  0
  -22.4088  -11.9925   22.4836 H   0  0  0  0  0  0
  -21.1082  -13.1281   22.2607 H   0  0  0  0  0  0
  -24.6297  -15.8262   20.4823 H   0  0  0  0  0  0
  -26.2245  -15.6224   19.9711 H   0  0  0  0  0  0
  -26.7267  -32.5383   23.1095 H   0  0  0  0  0  0
  -25.0127  -33.9675   25.0413 H   0  0  0  0  0  0
  -22.7334  -31.3055   21.3971 H   0  0  0  0  0  0
  -23.3748  -35.9622   23.3314 H   0  0  0  0  0  0
  -24.3584  -36.8899   22.2058 H   0  0  0  0  0  0
  -23.7253  -37.6493   23.6657 H   0  0  0  0  0  0
  -26.1394  -31.5134   20.6221 H   0  0  0  0  0  0
  -26.8599  -30.7965   22.0291 H   0  0  0  0  0  0
  -28.1140  -28.8653   21.2524 H   0  0  0  0  0  0
  -25.9097  -25.9373   18.9433 H   0  0  0  0  0  0
  -23.9779  -27.3425   18.9554 H   0  0  0  0  0  0
  -23.7859  -30.6002   19.4041 H   0  0  0  0  0  0
  -22.7715  -29.2600   19.8477 H   0  0  0  0  0  0
  -25.1310  -36.1908   25.0818 H   0  0  0  0  0  0
  -21.0008  -28.3337   24.1360 H   0  0  0  0  0  0
  -20.5694  -26.2365   23.3622 H   0  0  0  0  0  0
  -21.6667  -26.7473   22.1209 H   0  0  0  0  0  0
  -19.6945  -25.6291   21.1268 H   0  0  0  0  0  0
  -19.6715  -27.3174   20.6720 H   0  0  0  0  0  0
  -17.4228  -26.6684   21.4006 H   0  0  0  0  0  0
  -18.0351  -26.0095   22.9014 H   0  0  0  0  0  0
  -19.7945  -30.7301   24.2243 H   0  0  0  0  0  0
  -17.5022  -31.6273   24.5186 H   0  0  0  0  0  0
  -15.5360  -30.2988   23.7684 H   0  0  0  0  0  0
  -15.8684  -28.0841   22.7056 H   0  0  0  0  0  0
  -24.5872  -30.7131   25.7788 H   0  0  0  0  0  0
  -24.8910  -32.2939   26.4862 H   0  0  0  0  0  0
  -25.7994  -30.8943   27.0255 H   0  0  0  0  0  0
  -26.2974  -29.6717   24.1287 H   0  0  0  0  0  0
  -27.3971  -29.7263   25.4861 H   0  0  0  0  0  0
  -27.8885  -30.4229   23.9616 H   0  0  0  0  0  0
  -27.2676  -33.3622   26.2094 H   0  0  0  0  0  0
  -28.3866  -32.6884   25.0343 H   0  0  0  0  0  0
  -28.0742  -31.8451   26.5434 H   0  0  0  0  0  0
  -28.2609  -38.0094   24.7488 H   0  0  0  0  0  0
  -28.1066  -36.2626   24.6299 H   0  0  0  0  0  0
  -27.2306  -37.1480   25.8866 H   0  0  0  0  0  0
  -20.9429  -29.8791   21.6810 H   0  0  0  0  0  0
  -26.0172  -38.2849   24.1359 H   0  0  0  0  0  0
  -30.8194  -20.4589   20.8984 H   0  0  0  0  0  0
  -26.6366  -19.9165   19.9450 H   0  0  0  0  0  0
  -26.9878  -24.6327   20.7101 H   0  0  0  0  0  0
  -27.5446  -24.6475   19.0472 H   0  0  0  0  0  0
  -27.2460  -22.4008   20.3621 H   0  0  0  0  0  0
  -28.8826  -16.0536   20.8386 H   0  0  0  0  0  0
  -31.9765  -18.5019   19.9325 H   0  0  0  0  0  0
  -32.2560  -16.7830   20.0521 H   0  0  0  0  0  0
  1 25  1  0  0  0
  1 30  2  0  0  0
  1 79  1  0  0  0
  2  3  1  0  0  0
  2 25  1  0  0  0
  2 83  1  0  0  0
  2 84  1  0  0  0
  3  4  1  0  0  0
  3 85  1  0  0  0
  3 86  1  0  0  0
  4  5  1  0  0  0
  4 87  1  0  0  0
  4 88  1  0  0  0
  5  6  1  0  0  0
  5 26  1  0  0  0
  5 89  1  0  0  0
  6 25  1  0  0  0
  6 90  1  0  0  0
  6 91  1  0  0  0
  7  8  2  0  0  0
  7 26  1  0  0  0
  7 29  1  0  0  0
  8  9  1  0  0  0
  8 22  1  0  0  0
  9 10  1  0  0  0
  9 27  2  0  0  0
 10 11  2  0  0  0
 10 15  1  0  0  0
 11 12  1  0  0  0
 11 92  1  0  0  0
 12 13  2  0  0  0
 12 93  1  0  0  0
 13 14  1  0  0  0
 13 31  1  0  0  0
 14 15  2  0  0  0
 14 94  1  0  0  0
 15 95  1  0  0  0
 16 17  2  0  0  0
 16 21  1  0  0  0
 16 31  1  0  0  0
 17 18  1  0  0  0
 17 96  1  0  0  0
 18 19  2  0  0  0
 18 97  1  0  0  0
 19 20  1  0  0  0
 19 24  1  0  0  0
 20 21  2  0  0  0
 20 98  1  0  0  0
 21 23  1  0  0  0
 22 28  1  0  0  0
 22 32  2  0  0  0
 26 27  1  0  0  0
 28 99  1  0  0  0
 28100  1  0  0  0
 29101  1  0  0  0
 29102  1  0  0  0
 33 34  1  0  0  0
 33 66  1  0  0  0
 33 70  2  0  0  0
 34 36  1  0  0  0
 34 59  1  0  0  0
 34103  1  0  0  0
 35 44  2  0  0  0
 35 45  1  0  0  0
 35 68  1  0  0  0
 36 56  1  0  0  0
 36104  1  0  0  0
 37 39  1  0  0  0
 37 47  1  0  0  0
 37 66  1  0  0  0
 37105  1  0  0  0
 38 43  2  0  0  0
 38 46  1  0  0  0
 38 47  1  0  0  0
 39 64  1  0  0  0
 39 67  2  0  0  0
 40 52  1  0  0  0
 40 53  2  0  0  0
 40 58  1  0  0  0
 41106  1  0  0  0
 41107  1  0  0  0
 41108  1  0  0  0
 41 48  1  0  0  0
 42 43  1  0  0  0
 42 66  1  0  0  0
 42109  1  0  0  0
 42110  1  0  0  0
 43 44  1  0  0  0
 44111  1  0  0  0
 45 46  2  0  0  0
 45112  1  0  0  0
 46113  1  0  0  0
 47114  1  0  0  0
 47115  1  0  0  0
 48 56  1  0  0  0
 48 65  1  0  0  0
 48116  1  0  0  0
 49 50  1  0  0  0
 49 53  1  0  0  0
 49 64  1  0  0  0
 49117  1  0  0  0
 50 51  1  0  0  0
 50118  1  0  0  0
 50119  1  0  0  0
 51 52  1  0  0  0
 51120  1  0  0  0
 51121  1  0  0  0
 52122  1  0  0  0
 52123  1  0  0  0
 53 54  1  0  0  0
 54 55  2  0  0  0
 54124  1  0  0  0
 55 57  1  0  0  0
 55125  1  0  0  0
 56 69  2  0  0  0
 57 58  2  0  0  0
 57126  1  0  0  0
 58127  1  0  0  0
 59 60  1  0  0  0
 59 61  1  0  0  0
 59 62  1  0  0  0
 60128  1  0  0  0
 60129  1  0  0  0
 60130  1  0  0  0
 61131  1  0  0  0
 61132  1  0  0  0
 61133  1  0  0  0
 62134  1  0  0  0
 62135  1  0  0  0
 62136  1  0  0  0
 63 65  1  0  0  0
 63137  1  0  0  0
 63138  1  0  0  0
 63139  1  0  0  0
 64140  1  0  0  0
 65141  1  0  0  0
 68 77  1  0  0  0
 71 73  1  0  0  0
 71 74  2  0  0  0
 71142  1  0  0  0
 72 73  2  0  0  0
 72 82  1  0  0  0
 72143  1  0  0  0
 73 78  1  0  0  0
 74 75  1  0  0  0
 74 82  1  0  0  0
 75 79  1  0  0  0
 75 80  2  0  0  0
 76 77  1  0  0  0
 76 78  1  0  0  0
 76 81  2  0  0  0
 77144  1  0  0  0
 77145  1  0  0  0
 78146  1  0  0  0
 79147  1  0  0  0
 80148  1  0  0  0
 80149  1  0  0  0
M  CHG  1  80   1
M  ISO  4   1 100  68 101  77 101  79 100
M  END
> <chiral flag>
0

> <version>
0

> <s_m_source_file>
/data/baiqing/PycharmProjects/Reinvent-master-3.2/result/LINK_invent/BTK/process_docking_weight1_custom_product_contain_oxygen_bond_distance_aromatic_linkinvent_7_9_3/rearranged_h_0158.sdf

> <i_m_source_file_index>
21

> <r_mmod_Potential_Energy-OPLS-2005>
20.5621643066406

> <r_mmod_Stretch_Energy-OPLS-2005>
138.687896728516

> <r_mmod_Bend_Energy-OPLS-2005>
224.200866699219

> <r_mmod_Torsional_Energy-OPLS-2005>
212.608108520508

> <r_mmod_Improper_Torsional_Energy-OPLS-2005>
6.93848943710327

> <r_mmod_Van_der_Waal_Energy-OPLS-2005>
130.026184082031

> <r_mmod_Electrostatic_Energy-OPLS-2005>
-302.701629638672

> <r_mmod_Solvation_Energy-OPLS-2005>
-497.990966796875

> <b_mmod_Minimization_Converged-OPLS-2005>
0

> <r_mmod_RMS_Derivative-OPLS-2005>
2.79080319404602

$$$$
21
                    3D
 Structure written by MMmdl.
152161  0  0  1  0            999 V2000
  -30.4995  -15.0782   20.3983 C   0  0  0  0  0  0
  -30.4428  -12.6776   19.5072 C   0  0  0  0  0  0
  -29.5275  -12.5453   18.2664 C   0  0  0  0  0  0
  -28.0664  -12.3062   18.6899 C   0  0  0  0  0  0
  -27.6225  -13.2579   19.8304 C   0  0  2  0  0  0
  -28.6634  -13.3471   20.9662 C   0  0  0  0  0  0
  -25.2431  -13.8227   20.5719 C   0  0  0  0  0  0
  -24.1764  -13.0438   20.9240 C   0  0  0  0  0  0
  -24.6398  -11.6928   20.8760 C   0  0  0  0  0  0
  -23.9087  -10.4292   21.0412 C   0  0  0  0  0  0
  -24.3630   -9.4206   21.9191 C   0  0  0  0  0  0
  -23.6297   -8.2244   22.0758 C   0  0  0  0  0  0
  -22.4280   -8.0285   21.3545 C   0  0  0  0  0  0
  -21.9924   -9.0261   20.4647 C   0  0  0  0  0  0
  -22.7259  -10.2137   20.3058 C   0  0  0  0  0  0
  -21.6854   -6.0738   22.5279 C   0  0  0  0  0  0
  -21.4017   -6.5641   23.8213 C   0  0  0  0  0  0
  -21.3659   -5.6792   24.9173 C   0  0  0  0  0  0
  -21.6042   -4.3054   24.7223 C   0  0  0  0  0  0
  -21.8819   -3.8148   23.4344 C   0  0  0  0  0  0
  -21.9195   -4.6966   22.3402 C   0  0  0  0  0  0
  -22.7783  -13.5204   21.1888 C   0  0  0  0  0  0
  -22.1661   -4.2152   21.0978 F   0  0  0  0  0  0
  -21.5629   -3.4539   25.7736 F   0  0  0  0  0  0
  -29.9201  -13.7980   20.3530 N   0  0  0  0  0  0
  -26.2856  -12.9475   20.3226 N   0  0  0  0  0  0
  -25.9331  -11.6597   20.5734 N   0  0  0  0  0  0
  -22.0430  -12.8193   22.0441 N   0  0  0  0  0  0
  -25.4071  -15.1958   20.4127 N   0  0  0  0  0  0
  -31.7150  -15.1091   20.1698 O   0  0  0  0  0  0
  -21.6642   -6.8884   21.4240 O   0  0  0  0  0  0
  -22.3470  -14.5507   20.6727 O   0  0  0  0  0  0
  -24.6527  -31.8351   23.1817 C   0  0  0  0  0  0
  -25.9259  -32.4651   23.8232 C   0  0  1  0  0  0
  -27.2112  -27.0427   20.1639 C   0  0  0  0  0  0
  -25.5973  -33.8463   24.2146 N   0  0  0  0  0  0
  -23.4611  -30.4534   21.5288 C   0  0  2  0  0  0
  -24.9112  -28.8666   20.1102 C   0  0  0  0  0  0
  -22.7618  -29.4505   22.4822 C   0  0  0  0  0  0
  -18.0315  -28.1403   22.8473 C   0  0  0  0  0  0
  -24.1492  -36.7234   23.2644 C   0  0  0  0  0  0
  -26.0248  -30.6798   21.3943 C   0  0  0  0  0  0
  -26.0933  -29.2825   20.7361 C   0  0  0  0  0  0
  -27.2423  -28.3889   20.7430 C   0  0  0  0  0  0
  -26.0014  -26.7559   19.4915 C   0  0  0  0  0  0
  -24.8843  -27.6203   19.4694 C   0  0  0  0  0  0
  -23.6932  -29.7805   20.1502 C   0  0  0  0  0  0
  -25.4126  -36.3008   24.0311 C   0  0  1  0  0  0
  -20.5935  -28.3739   23.1213 C   0  0  2  0  0  0
  -20.6795  -26.9430   22.5403 C   0  0  0  0  0  0
  -19.5768  -26.6382   21.5215 C   0  0  0  0  0  0
  -18.1949  -26.7942   22.1623 C   0  0  0  0  0  0
  -19.1575  -28.8890   23.2834 C   0  0  0  0  0  0
  -18.9489  -30.1483   23.8864 C   0  0  0  0  0  0
  -17.6482  -30.6596   24.0559 C   0  0  0  0  0  0
  -25.9084  -34.9385   23.5040 C   0  0  0  0  0  0
  -16.5371  -29.9084   23.6341 C   0  0  0  0  0  0
  -16.7299  -28.6505   23.0359 C   0  0  0  0  0  0
  -26.4545  -31.6552   25.0710 C   0  0  0  0  0  0
  -25.3703  -31.3772   26.1387 C   0  0  0  0  0  0
  -27.0422  -30.2935   24.6359 C   0  0  0  0  0  0
  -27.6062  -32.4330   25.7504 C   0  0  0  0  0  0
  -27.5574  -37.1771   24.8465 C   0  0  0  0  0  0
  -21.4298  -29.3049   22.3571 N   0  0  0  0  0  0
  -26.4280  -37.3734   23.9413 N   0  0  0  0  0  0
  -24.7335  -31.0126   22.0895 N   0  0  0  0  0  0
  -23.4218  -28.8057   23.3014 O   0  0  0  0  0  0
  -28.2230  -25.9846   20.2410 O   0  0  0  0  0  0
  -26.5679  -34.8900   22.4624 O   0  0  0  0  0  0
  -23.5622  -32.1265   23.6978 O   0  0  0  0  0  0
  -29.0089  -19.0021   20.3378 C   0  0  0  0  0  0
  -31.3042  -18.3092   20.5949 C   0  0  0  0  0  0
  -29.3274  -20.4792   20.3486 C   0  0  0  0  0  0
  -30.7082  -20.7493   20.4980 C   0  0  0  0  0  0
  -29.9720  -17.8451   20.4564 C   0  0  0  0  0  0
  -31.6572  -19.6901   20.6123 C   0  0  0  0  0  0
  -28.7953  -23.0098   20.2955 C   0  0  0  0  0  0
  -30.2643  -23.2467   20.6528 C   0  0  0  0  0  0
  -27.8572  -24.4383   20.0633 C   0  0  0  0  0  0
  -28.4267  -21.6939   20.2035 N   0  0  0  0  0  0
  -31.1796  -22.0834   20.5276 N   0  0  0  0  0  0
  -33.0085  -20.0342   20.7287 N   0  0  0  0  0  0
  -29.7058  -16.2926   20.4735 N   0  0  0  0  0  0
  -31.4697  -12.8570   19.1855 H   0  0  0  0  0  0
  -30.4693  -11.7447   20.0726 H   0  0  0  0  0  0
  -29.8709  -11.7322   17.6254 H   0  0  0  0  0  0
  -29.5909  -13.4556   17.6681 H   0  0  0  0  0  0
  -27.9883  -11.2716   19.0256 H   0  0  0  0  0  0
  -27.3998  -12.3996   17.8318 H   0  0  0  0  0  0
  -27.5655  -14.2456   19.3718 H   0  0  0  0  0  0
  -28.7847  -12.3873   21.4709 H   0  0  0  0  0  0
  -28.3396  -14.0603   21.7260 H   0  0  0  0  0  0
  -25.2775   -9.5684   22.4769 H   0  0  0  0  0  0
  -24.0005   -7.4639   22.7481 H   0  0  0  0  0  0
  -21.0857   -8.8783   19.8951 H   0  0  0  0  0  0
  -22.3721  -10.9677   19.6165 H   0  0  0  0  0  0
  -21.2008   -7.6150   23.9718 H   0  0  0  0  0  0
  -21.1480   -6.0522   25.9077 H   0  0  0  0  0  0
  -22.0598   -2.7611   23.2842 H   0  0  0  0  0  0
  -22.4050  -11.9859   22.4837 H   0  0  0  0  0  0
  -21.1042  -13.1210   22.2633 H   0  0  0  0  0  0
  -24.6313  -15.8411   20.5153 H   0  0  0  0  0  0
  -26.2397  -15.6373   20.0463 H   0  0  0  0  0  0
  -26.7321  -32.5223   23.0951 H   0  0  0  0  0  0
  -25.0102  -33.9564   25.0280 H   0  0  0  0  0  0
  -22.7688  -31.2826   21.3682 H   0  0  0  0  0  0
  -23.3766  -35.9553   23.3287 H   0  0  0  0  0  0
  -24.3574  -36.8888   22.2063 H   0  0  0  0  0  0
  -23.7237  -37.6418   23.6694 H   0  0  0  0  0  0
  -26.1916  -31.4287   20.6189 H   0  0  0  0  0  0
  -26.8910  -30.7312   22.0421 H   0  0  0  0  0  0
  -28.1380  -28.7022   21.2605 H   0  0  0  0  0  0
  -25.8747  -25.8068   18.9943 H   0  0  0  0  0  0
  -23.9847  -27.2978   18.9634 H   0  0  0  0  0  0
  -23.8397  -30.5536   19.3951 H   0  0  0  0  0  0
  -22.8055  -29.2299   19.8340 H   0  0  0  0  0  0
  -25.1317  -36.1821   25.0802 H   0  0  0  0  0  0
  -21.0024  -28.3333   24.1337 H   0  0  0  0  0  0
  -20.5683  -26.2354   23.3631 H   0  0  0  0  0  0
  -21.6657  -26.7420   22.1200 H   0  0  0  0  0  0
  -19.6925  -25.6286   21.1261 H   0  0  0  0  0  0
  -19.6706  -27.3177   20.6733 H   0  0  0  0  0  0
  -17.4215  -26.6693   21.4024 H   0  0  0  0  0  0
  -18.0340  -26.0092   22.9028 H   0  0  0  0  0  0
  -19.7965  -30.7308   24.2217 H   0  0  0  0  0  0
  -17.5036  -31.6273   24.5165 H   0  0  0  0  0  0
  -15.5370  -30.2973   23.7690 H   0  0  0  0  0  0
  -15.8701  -28.0810   22.7095 H   0  0  0  0  0  0
  -24.5907  -30.7092   25.7709 H   0  0  0  0  0  0
  -24.8865  -32.2963   26.4706 H   0  0  0  0  0  0
  -25.7965  -30.9022   27.0235 H   0  0  0  0  0  0
  -26.3060  -29.6641   24.1345 H   0  0  0  0  0  0
  -27.3982  -29.7259   25.4971 H   0  0  0  0  0  0
  -27.8992  -30.4155   23.9731 H   0  0  0  0  0  0
  -27.2656  -33.3672   26.1984 H   0  0  0  0  0  0
  -28.3929  -32.6821   25.0368 H   0  0  0  0  0  0
  -28.0666  -31.8515   26.5505 H   0  0  0  0  0  0
  -28.2570  -38.0087   24.7521 H   0  0  0  0  0  0
  -28.1090  -36.2615   24.6275 H   0  0  0  0  0  0
  -27.2292  -37.1394   25.8868 H   0  0  0  0  0  0
  -20.9523  -29.8762   21.6737 H   0  0  0  0  0  0
  -26.0140  -38.2794   24.1428 H   0  0  0  0  0  0
  -27.9651  -18.7464   20.2267 H   0  0  0  0  0  0
  -32.0953  -17.5811   20.6952 H   0  0  0  0  0  0
  -30.3073  -23.6160   21.6781 H   0  0  0  0  0  0
  -30.6410  -24.0536   20.0230 H   0  0  0  0  0  0
  -26.9637  -24.2892   20.6697 H   0  0  0  0  0  0
  -27.5085  -24.3542   19.0344 H   0  0  0  0  0  0
  -32.1009  -22.1822   20.9397 H   0  0  0  0  0  0
  -33.6801  -19.2998   20.5342 H   0  0  0  0  0  0
  -33.2627  -20.8931   20.2530 H   0  0  0  0  0  0
  -28.7252  -16.0660   20.5442 H   0  0  0  0  0  0
  1 25  1  0  0  0
  1 30  2  0  0  0
  1 83  1  0  0  0
  2  3  1  0  0  0
  2 25  1  0  0  0
  2 84  1  0  0  0
  2 85  1  0  0  0
  3  4  1  0  0  0
  3 86  1  0  0  0
  3 87  1  0  0  0
  4  5  1  0  0  0
  4 88  1  0  0  0
  4 89  1  0  0  0
  5  6  1  0  0  0
  5 26  1  0  0  0
  5 90  1  0  0  0
  6 25  1  0  0  0
  6 91  1  0  0  0
  6 92  1  0  0  0
  7  8  2  0  0  0
  7 26  1  0  0  0
  7 29  1  0  0  0
  8  9  1  0  0  0
  8 22  1  0  0  0
  9 10  1  0  0  0
  9 27  2  0  0  0
 10 11  2  0  0  0
 10 15  1  0  0  0
 11 12  1  0  0  0
 11 93  1  0  0  0
 12 13  2  0  0  0
 12 94  1  0  0  0
 13 14  1  0  0  0
 13 31  1  0  0  0
 14 15  2  0  0  0
 14 95  1  0  0  0
 15 96  1  0  0  0
 16 17  2  0  0  0
 16 21  1  0  0  0
 16 31  1  0  0  0
 17 18  1  0  0  0
 17 97  1  0  0  0
 18 19  2  0  0  0
 18 98  1  0  0  0
 19 20  1  0  0  0
 19 24  1  0  0  0
 20 21  2  0  0  0
 20 99  1  0  0  0
 21 23  1  0  0  0
 22 28  1  0  0  0
 22 32  2  0  0  0
 26 27  1  0  0  0
 28100  1  0  0  0
 28101  1  0  0  0
 29102  1  0  0  0
 29103  1  0  0  0
 33 34  1  0  0  0
 33 66  1  0  0  0
 33 70  2  0  0  0
 34 36  1  0  0  0
 34 59  1  0  0  0
 34104  1  0  0  0
 35 44  2  0  0  0
 35 45  1  0  0  0
 35 68  1  0  0  0
 36 56  1  0  0  0
 36105  1  0  0  0
 37 39  1  0  0  0
 37 47  1  0  0  0
 37 66  1  0  0  0
 37106  1  0  0  0
 38 43  2  0  0  0
 38 46  1  0  0  0
 38 47  1  0  0  0
 39 64  1  0  0  0
 39 67  2  0  0  0
 40 52  1  0  0  0
 40 53  2  0  0  0
 40 58  1  0  0  0
 41107  1  0  0  0
 41108  1  0  0  0
 41109  1  0  0  0
 41 48  1  0  0  0
 42 43  1  0  0  0
 42 66  1  0  0  0
 42110  1  0  0  0
 42111  1  0  0  0
 43 44  1  0  0  0
 44112  1  0  0  0
 45 46  2  0  0  0
 45113  1  0  0  0
 46114  1  0  0  0
 47115  1  0  0  0
 47116  1  0  0  0
 48 56  1  0  0  0
 48 65  1  0  0  0
 48117  1  0  0  0
 49 50  1  0  0  0
 49 53  1  0  0  0
 49 64  1  0  0  0
 49118  1  0  0  0
 50 51  1  0  0  0
 50119  1  0  0  0
 50120  1  0  0  0
 51 52  1  0  0  0
 51121  1  0  0  0
 51122  1  0  0  0
 52123  1  0  0  0
 52124  1  0  0  0
 53 54  1  0  0  0
 54 55  2  0  0  0
 54125  1  0  0  0
 55 57  1  0  0  0
 55126  1  0  0  0
 56 69  2  0  0  0
 57 58  2  0  0  0
 57127  1  0  0  0
 58128  1  0  0  0
 59 60  1  0  0  0
 59 61  1  0  0  0
 59 62  1  0  0  0
 60129  1  0  0  0
 60130  1  0  0  0
 60131  1  0  0  0
 61132  1  0  0  0
 61133  1  0  0  0
 61134  1  0  0  0
 62135  1  0  0  0
 62136  1  0  0  0
 62137  1  0  0  0
 63 65  1  0  0  0
 63138  1  0  0  0
 63139  1  0  0  0
 63140  1  0  0  0
 64141  1  0  0  0
 65142  1  0  0  0
 68 79  1  0  0  0
 71 73  2  0  0  0
 71 75  1  0  0  0
 71143  1  0  0  0
 72 75  2  0  0  0
 72 76  1  0  0  0
 72144  1  0  0  0
 73 74  1  0  0  0
 73 80  1  0  0  0
 74 76  2  0  0  0
 74 81  1  0  0  0
 75 83  1  0  0  0
 76 82  1  0  0  0
 77 78  1  0  0  0
 77 79  1  0  0  0
 77 80  2  0  0  0
 78 81  1  0  0  0
 78145  1  0  0  0
 78146  1  0  0  0
 79147  1  0  0  0
 79148  1  0  0  0
 81149  1  0  0  0
 82150  1  0  0  0
 82151  1  0  0  0
 83152  1  0  0  0
M  ISO  4   1 100  68 101  79 101  83 100
M  END
> <chiral flag>
0

> <version>
0

> <s_m_source_file>
/data/baiqing/PycharmProjects/Reinvent-master-3.2/result/LINK_invent/BTK/process_docking_weight1_custom_product_contain_oxygen_bond_distance_aromatic_linkinvent_7_9_3/rearranged_h_0158.sdf

> <i_m_source_file_index>
22

> <r_mmod_Potential_Energy-OPLS-2005>
768.684692382812

> <r_mmod_Stretch_Energy-OPLS-2005>
364.341552734375

> <r_mmod_Bend_Energy-OPLS-2005>
287.362670898438

> <r_mmod_Torsional_Energy-OPLS-2005>
211.498779296875

> <r_mmod_Improper_Torsional_Energy-OPLS-2005>
11.7722463607788

> <r_mmod_Van_der_Waal_Energy-OPLS-2005>
147.564590454102

> <r_mmod_Electrostatic_Energy-OPLS-2005>
-304.045959472656

> <r_mmod_Solvation_Energy-OPLS-2005>
-243.645935058594

> <b_mmod_Minimization_Converged-OPLS-2005>
0

> <r_mmod_RMS_Derivative-OPLS-2005>
0.71341210603714

$$$$
22
                    3D
 Structure written by MMmdl.
172181  0  0  1  0            999 V2000
  -30.6295  -14.5746   20.5098 C   0  0  0  0  0  0
  -30.4419  -12.3553   19.4195 C   0  0  0  0  0  0
  -29.5000  -12.5006   18.2031 C   0  0  0  0  0  0
  -28.0223  -12.3474   18.6213 C   0  0  0  0  0  0
  -27.6586  -13.2025   19.8633 C   0  0  2  0  0  0
  -28.7085  -13.0118   20.9818 C   0  0  0  0  0  0
  -25.2619  -13.8145   20.5703 C   0  0  0  0  0  0
  -24.1856  -13.0437   20.9199 C   0  0  0  0  0  0
  -24.6393  -11.6896   20.8741 C   0  0  0  0  0  0
  -23.9059  -10.4285   21.0406 C   0  0  0  0  0  0
  -24.3612   -9.4203   21.9179 C   0  0  0  0  0  0
  -23.6284   -8.2245   22.0757 C   0  0  0  0  0  0
  -22.4264   -8.0283   21.3544 C   0  0  0  0  0  0
  -21.9899   -9.0261   20.4655 C   0  0  0  0  0  0
  -22.7237  -10.2137   20.3057 C   0  0  0  0  0  0
  -21.6855   -6.0738   22.5276 C   0  0  0  0  0  0
  -21.4015   -6.5636   23.8207 C   0  0  0  0  0  0
  -21.3658   -5.6786   24.9169 C   0  0  0  0  0  0
  -21.6035   -4.3053   24.7215 C   0  0  0  0  0  0
  -21.8825   -3.8149   23.4337 C   0  0  0  0  0  0
  -21.9190   -4.6965   22.3397 C   0  0  0  0  0  0
  -22.7881  -13.5255   21.1843 C   0  0  0  0  0  0
  -22.1663   -4.2155   21.0974 F   0  0  0  0  0  0
  -21.5624   -3.4533   25.7730 F   0  0  0  0  0  0
  -30.0265  -13.3529   20.4184 N   0  0  0  0  0  0
  -26.3020  -12.9297   20.3314 N   0  0  0  0  0  0
  -25.9314  -11.6468   20.5753 N   0  0  0  0  0  0
  -22.0498  -12.8258   22.0394 N   0  0  0  0  0  0
  -25.4372  -15.1869   20.4148 N   0  0  0  0  0  0
  -31.7889  -14.7748   20.1355 O   0  0  0  0  0  0
  -21.6631   -6.8882   21.4238 O   0  0  0  0  0  0
  -22.3589  -14.5561   20.6686 O   0  0  0  0  0  0
  -24.6207  -31.8638   23.2057 C   0  0  0  0  0  0
  -25.9087  -32.4795   23.8361 C   0  0  1  0  0  0
  -27.2304  -27.3708   20.0969 C   0  0  0  0  0  0
  -25.5919  -33.8592   24.2292 N   0  0  0  0  0  0
  -23.4101  -30.4888   21.5485 C   0  0  2  0  0  0
  -24.8537  -28.9481   20.1132 C   0  0  0  0  0  0
  -22.7434  -29.4648   22.4964 C   0  0  0  0  0  0
  -18.0280  -28.1378   22.8491 C   0  0  0  0  0  0
  -24.1491  -36.7298   23.2634 C   0  0  0  0  0  0
  -25.9463  -30.8105   21.3676 C   0  0  0  0  0  0
  -26.0198  -29.4415   20.7098 C   0  0  0  0  0  0
  -27.2077  -28.6627   20.6938 C   0  0  0  0  0  0
  -26.0313  -26.9022   19.5101 C   0  0  0  0  0  0
  -24.8582  -27.6801   19.5103 C   0  0  0  0  0  0
  -23.6200  -29.8235   20.1628 C   0  0  0  0  0  0
  -25.4110  -36.3085   24.0327 C   0  0  1  0  0  0
  -20.5874  -28.3670   23.1303 C   0  0  2  0  0  0
  -20.6774  -26.9402   22.5411 C   0  0  0  0  0  0
  -19.5749  -26.6381   21.5211 C   0  0  0  0  0  0
  -18.1927  -26.7924   22.1624 C   0  0  0  0  0  0
  -19.1531  -28.8840   23.2895 C   0  0  0  0  0  0
  -18.9457  -30.1446   23.8904 C   0  0  0  0  0  0
  -17.6459  -30.6582   24.0563 C   0  0  0  0  0  0
  -25.9046  -34.9457   23.5105 C   0  0  0  0  0  0
  -16.5350  -29.9080   23.6331 C   0  0  0  0  0  0
  -16.7269  -28.6500   23.0348 C   0  0  0  0  0  0
  -26.4490  -31.6588   25.0711 C   0  0  0  0  0  0
  -25.3740  -31.3718   26.1447 C   0  0  0  0  0  0
  -27.0324  -30.3018   24.6130 C   0  0  0  0  0  0
  -27.6052  -32.4314   25.7479 C   0  0  0  0  0  0
  -27.5586  -37.1792   24.8456 C   0  0  0  0  0  0
  -21.4158  -29.3034   22.3701 N   0  0  0  0  0  0
  -26.4288  -37.3782   23.9414 N   0  0  0  0  0  0
  -24.6779  -31.0695   22.0981 N   0  0  0  0  0  0
  -23.4187  -28.8187   23.3019 O   0  0  0  0  0  0
  -28.4018  -26.6139   20.1165 O   0  0  0  0  0  0
  -26.5612  -34.8923   22.4671 O   0  0  0  0  0  0
  -23.5388  -32.1416   23.7421 O   0  0  0  0  0  0
  -29.9797  -18.9647   22.1112 C   0  0  0  0  0  0
  -30.0251  -17.9778   20.0971 C   0  0  0  0  0  0
  -29.9183  -17.6105   22.3417 C   0  0  0  0  0  0
  -29.9752  -16.9908   21.0581 C   0  0  0  0  0  0
  -29.8462  -24.9440   19.0257 C   0  0  0  0  0  0
  -30.2258  -23.6906   19.3430 C   0  0  0  0  0  0
  -29.1413  -21.7217   20.5410 C   0  0  0  0  0  0
  -28.1755  -24.0415   20.4091 C   0  0  0  0  0  0
  -28.4627  -25.2854   19.5113 C   0  0  1  0  0  0
  -30.6292  -26.0109   18.2777 C   0  0  0  0  0  0
  -31.5778  -23.0613   19.0359 C   0  0  0  0  0  0
  -28.4190  -15.4929   25.1086 C   0  0  0  0  0  0
  -27.5269  -17.6346   24.2963 C   0  0  0  0  0  0
  -29.8272  -16.9260   23.6909 C   0  0  0  0  0  0
  -30.1402  -20.5791   20.1150 C   0  0  0  0  0  0
  -30.0111  -19.2257   20.7433 N   0  0  0  0  0  0
  -29.2342  -23.0340   20.1085 N   0  0  0  0  0  0
  -29.7789  -15.5763   20.8575 N   0  0  0  0  0  0
  -28.4459  -16.5038   24.0268 N   0  3  0  0  0  0
  -28.2031  -21.3993   21.2813 O   0  0  0  0  0  0
  -31.4823  -12.4845   19.1127 H   0  0  0  0  0  0
  -30.3752  -11.3499   19.8390 H   0  0  0  0  0  0
  -29.7490  -11.7606   17.4412 H   0  0  0  0  0  0
  -29.6497  -13.4763   17.7368 H   0  0  0  0  0  0
  -27.8453  -11.2928   18.8365 H   0  0  0  0  0  0
  -27.3679  -12.5994   17.7858 H   0  0  0  0  0  0
  -27.6863  -14.2426   19.5372 H   0  0  0  0  0  0
  -28.7111  -11.9771   21.3275 H   0  0  0  0  0  0
  -28.4663  -13.6109   21.8606 H   0  0  0  0  0  0
  -25.2760   -9.5671   22.4754 H   0  0  0  0  0  0
  -23.9988   -7.4632   22.7474 H   0  0  0  0  0  0
  -21.0831   -8.8787   19.8965 H   0  0  0  0  0  0
  -22.3697  -10.9674   19.6167 H   0  0  0  0  0  0
  -21.2015   -7.6145   23.9714 H   0  0  0  0  0  0
  -21.1470   -6.0516   25.9071 H   0  0  0  0  0  0
  -22.0606   -2.7612   23.2834 H   0  0  0  0  0  0
  -22.4079  -11.9913   22.4792 H   0  0  0  0  0  0
  -21.1119  -13.1324   22.2576 H   0  0  0  0  0  0
  -24.6602  -15.8334   20.4992 H   0  0  0  0  0  0
  -26.2581  -15.6151   20.0067 H   0  0  0  0  0  0
  -26.7151  -32.5486   23.1108 H   0  0  0  0  0  0
  -25.0070  -33.9747   25.0437 H   0  0  0  0  0  0
  -22.7010  -31.3077   21.4091 H   0  0  0  0  0  0
  -23.3755  -35.9630   23.3285 H   0  0  0  0  0  0
  -24.3590  -36.8929   22.2050 H   0  0  0  0  0  0
  -23.7248  -37.6497   23.6664 H   0  0  0  0  0  0
  -26.0714  -31.5788   20.6033 H   0  0  0  0  0  0
  -26.8288  -30.8570   21.9940 H   0  0  0  0  0  0
  -28.1083  -29.0451   21.1535 H   0  0  0  0  0  0
  -25.9597  -25.9260   19.0573 H   0  0  0  0  0  0
  -23.9577  -27.2896   19.0555 H   0  0  0  0  0  0
  -23.7338  -30.6006   19.4056 H   0  0  0  0  0  0
  -22.7410  -29.2498   19.8638 H   0  0  0  0  0  0
  -25.1289  -36.1930   25.0817 H   0  0  0  0  0  0
  -20.9972  -28.3241   24.1420 H   0  0  0  0  0  0
  -20.5684  -26.2274   23.3598 H   0  0  0  0  0  0
  -21.6644  -26.7445   22.1200 H   0  0  0  0  0  0
  -19.6911  -25.6294   21.1235 H   0  0  0  0  0  0
  -19.6686  -27.3198   20.6745 H   0  0  0  0  0  0
  -17.4196  -26.6670   21.4025 H   0  0  0  0  0  0
  -18.0328  -26.0061   22.9017 H   0  0  0  0  0  0
  -19.7932  -30.7262   24.2272 H   0  0  0  0  0  0
  -17.5014  -31.6264   24.5158 H   0  0  0  0  0  0
  -15.5352  -30.2983   23.7649 H   0  0  0  0  0  0
  -15.8670  -28.0822   22.7056 H   0  0  0  0  0  0
  -24.5899  -30.7084   25.7780 H   0  0  0  0  0  0
  -24.8951  -32.2886   26.4892 H   0  0  0  0  0  0
  -25.8073  -30.8877   27.0206 H   0  0  0  0  0  0
  -26.2882  -29.6766   24.1182 H   0  0  0  0  0  0
  -27.4071  -29.7269   25.4610 H   0  0  0  0  0  0
  -27.8730  -30.4313   23.9307 H   0  0  0  0  0  0
  -27.2662  -33.3604   26.2076 H   0  0  0  0  0  0
  -28.3854  -32.6893   25.0305 H   0  0  0  0  0  0
  -28.0732  -31.8431   26.5380 H   0  0  0  0  0  0
  -28.2571  -38.0119   24.7545 H   0  0  0  0  0  0
  -28.1111  -36.2654   24.6222 H   0  0  0  0  0  0
  -27.2312  -37.1370   25.8858 H   0  0  0  0  0  0
  -20.9313  -29.8758   21.6928 H   0  0  0  0  0  0
  -26.0166  -38.2850   24.1439 H   0  0  0  0  0  0
  -29.9906  -19.7861   22.8158 H   0  0  0  0  0  0
  -30.0516  -17.9122   19.0162 H   0  0  0  0  0  0
  -27.1748  -23.6472   20.2229 H   0  0  0  0  0  0
  -28.2338  -24.3084   21.4644 H   0  0  0  0  0  0
  -27.8672  -25.2416   18.5997 H   0  0  0  0  0  0
  -31.5655  -25.6555   17.8548 H   0  0  0  0  0  0
  -30.8596  -26.8370   18.9506 H   0  0  0  0  0  0
  -30.0284  -26.4063   17.4579 H   0  0  0  0  0  0
  -31.4720  -22.2041   18.3709 H   0  0  0  0  0  0
  -32.0859  -22.7691   19.9539 H   0  0  0  0  0  0
  -32.2508  -23.7532   18.5350 H   0  0  0  0  0  0
  -27.4024  -15.1461   25.2960 H   0  0  0  0  0  0
  -28.8144  -15.9008   26.0398 H   0  0  0  0  0  0
  -29.0151  -14.6186   24.8429 H   0  0  0  0  0  0
  -26.5191  -17.2723   24.5034 H   0  0  0  0  0  0
  -27.4573  -18.3036   23.4381 H   0  0  0  0  0  0
  -27.8594  -18.2163   25.1566 H   0  0  0  0  0  0
  -30.2286  -17.5739   24.4711 H   0  0  0  0  0  0
  -30.4816  -16.0537   23.6514 H   0  0  0  0  0  0
  -31.1532  -20.8922   20.3474 H   0  0  0  0  0  0
  -30.0745  -20.4617   19.0337 H   0  0  0  0  0  0
  -28.8512  -15.2341   21.0498 H   0  0  0  0  0  0
  -28.0829  -16.0429   23.2086 H   0  0  0  0  0  0
  1 25  1  0  0  0
  1 30  2  0  0  0
  1 88  1  0  0  0
  2  3  1  0  0  0
  2 25  1  0  0  0
  2 91  1  0  0  0
  2 92  1  0  0  0
  3  4  1  0  0  0
  3 93  1  0  0  0
  3 94  1  0  0  0
  4  5  1  0  0  0
  4 95  1  0  0  0
  4 96  1  0  0  0
  5  6  1  0  0  0
  5 26  1  0  0  0
  5 97  1  0  0  0
  6 25  1  0  0  0
  6 98  1  0  0  0
  6 99  1  0  0  0
  7  8  2  0  0  0
  7 26  1  0  0  0
  7 29  1  0  0  0
  8  9  1  0  0  0
  8 22  1  0  0  0
  9 10  1  0  0  0
  9 27  2  0  0  0
 10 11  2  0  0  0
 10 15  1  0  0  0
 11 12  1  0  0  0
 11100  1  0  0  0
 12 13  2  0  0  0
 12101  1  0  0  0
 13 14  1  0  0  0
 13 31  1  0  0  0
 14 15  2  0  0  0
 14102  1  0  0  0
 15103  1  0  0  0
 16 17  2  0  0  0
 16 21  1  0  0  0
 16 31  1  0  0  0
 17 18  1  0  0  0
 17104  1  0  0  0
 18 19  2  0  0  0
 18105  1  0  0  0
 19 20  1  0  0  0
 19 24  1  0  0  0
 20 21  2  0  0  0
 20106  1  0  0  0
 21 23  1  0  0  0
 22 28  1  0  0  0
 22 32  2  0  0  0
 26 27  1  0  0  0
 28107  1  0  0  0
 28108  1  0  0  0
 29109  1  0  0  0
 29110  1  0  0  0
 33 34  1  0  0  0
 33 66  1  0  0  0
 33 70  2  0  0  0
 34 36  1  0  0  0
 34 59  1  0  0  0
 34111  1  0  0  0
 35 44  2  0  0  0
 35 45  1  0  0  0
 35 68  1  0  0  0
 36 56  1  0  0  0
 36112  1  0  0  0
 37 39  1  0  0  0
 37 47  1  0  0  0
 37 66  1  0  0  0
 37113  1  0  0  0
 38 43  2  0  0  0
 38 46  1  0  0  0
 38 47  1  0  0  0
 39 64  1  0  0  0
 39 67  2  0  0  0
 40 52  1  0  0  0
 40 53  2  0  0  0
 40 58  1  0  0  0
 41114  1  0  0  0
 41115  1  0  0  0
 41116  1  0  0  0
 41 48  1  0  0  0
 42 43  1  0  0  0
 42 66  1  0  0  0
 42117  1  0  0  0
 42118  1  0  0  0
 43 44  1  0  0  0
 44119  1  0  0  0
 45 46  2  0  0  0
 45120  1  0  0  0
 46121  1  0  0  0
 47122  1  0  0  0
 47123  1  0  0  0
 48 56  1  0  0  0
 48 65  1  0  0  0
 48124  1  0  0  0
 49 50  1  0  0  0
 49 53  1  0  0  0
 49 64  1  0  0  0
 49125  1  0  0  0
 50 51  1  0  0  0
 50126  1  0  0  0
 50127  1  0  0  0
 51 52  1  0  0  0
 51128  1  0  0  0
 51129  1  0  0  0
 52130  1  0  0  0
 52131  1  0  0  0
 53 54  1  0  0  0
 54 55  2  0  0  0
 54132  1  0  0  0
 55 57  1  0  0  0
 55133  1  0  0  0
 56 69  2  0  0  0
 57 58  2  0  0  0
 57134  1  0  0  0
 58135  1  0  0  0
 59 60  1  0  0  0
 59 61  1  0  0  0
 59 62  1  0  0  0
 60136  1  0  0  0
 60137  1  0  0  0
 60138  1  0  0  0
 61139  1  0  0  0
 61140  1  0  0  0
 61141  1  0  0  0
 62142  1  0  0  0
 62143  1  0  0  0
 62144  1  0  0  0
 63 65  1  0  0  0
 63145  1  0  0  0
 63146  1  0  0  0
 63147  1  0  0  0
 64148  1  0  0  0
 65149  1  0  0  0
 68 79  1  0  0  0
 71 73  2  0  0  0
 71 86  1  0  0  0
 71150  1  0  0  0
 72 74  2  0  0  0
 72 86  1  0  0  0
 72151  1  0  0  0
 73 74  1  0  0  0
 73 84  1  0  0  0
 74 88  1  0  0  0
 75 76  2  0  0  0
 75 79  1  0  0  0
 75 80  1  0  0  0
 76 81  1  0  0  0
 76 87  1  0  0  0
 77 85  1  0  0  0
 77 87  1  0  0  0
 77 90  2  0  0  0
 78 79  1  0  0  0
 78 87  1  0  0  0
 78152  1  0  0  0
 78153  1  0  0  0
 79154  1  0  0  0
 80155  1  0  0  0
 80156  1  0  0  0
 80157  1  0  0  0
 81158  1  0  0  0
 81159  1  0  0  0
 81160  1  0  0  0
 82161  1  0  0  0
 82162  1  0  0  0
 82163  1  0  0  0
 82 89  1  0  0  0
 83 89  1  0  0  0
 83164  1  0  0  0
 83165  1  0  0  0
 83166  1  0  0  0
 84 89  1  0  0  0
 84167  1  0  0  0
 84168  1  0  0  0
 85 86  1  0  0  0
 85169  1  0  0  0
 85170  1  0  0  0
 88171  1  0  0  0
 89172  1  0  0  0
M  CHG  1  89   1
M  ISO  4   1 100  68 101  79 101  88 100
M  END
> <chiral flag>
0

> <version>
0

> <s_m_source_file>
/data/baiqing/PycharmProjects/Reinvent-master-3.2/result/LINK_invent/BTK/process_docking_weight1_custom_product_contain_oxygen_bond_distance_aromatic_linkinvent_7_9_3/rearranged_h_0158.sdf

> <i_m_source_file_index>
23

> <r_mmod_Potential_Energy-OPLS-2005>
-28.1643695831299

> <r_mmod_Stretch_Energy-OPLS-2005>
61.9209785461426

> <r_mmod_Bend_Energy-OPLS-2005>
207.459411621094

> <r_mmod_Torsional_Energy-OPLS-2005>
231.728332519531

> <r_mmod_Improper_Torsional_Energy-OPLS-2005>
6.72295188903809

> <r_mmod_Van_der_Waal_Energy-OPLS-2005>
124.319068908691

> <r_mmod_Electrostatic_Energy-OPLS-2005>
-232.757827758789

> <r_mmod_Solvation_Energy-OPLS-2005>
-456.0625

> <b_mmod_Minimization_Converged-OPLS-2005>
0

> <r_mmod_RMS_Derivative-OPLS-2005>
1.7565678358078

$$$$
23
                    3D
 Structure written by MMmdl.
157166  0  0  1  0            999 V2000
  -30.5654  -14.7951   20.4621 C   0  0  0  0  0  0
  -30.4528  -12.4848   19.4819 C   0  0  0  0  0  0
  -29.5252  -12.5179   18.2446 C   0  0  0  0  0  0
  -28.0520  -12.3264   18.6570 C   0  0  0  0  0  0
  -27.6489  -13.2271   19.8553 C   0  0  2  0  0  0
  -28.6935  -13.1539   20.9922 C   0  0  0  0  0  0
  -25.2548  -13.8170   20.5715 C   0  0  0  0  0  0
  -24.1833  -13.0423   20.9208 C   0  0  0  0  0  0
  -24.6422  -11.6903   20.8743 C   0  0  0  0  0  0
  -23.9089  -10.4289   21.0397 C   0  0  0  0  0  0
  -24.3629   -9.4202   21.9175 C   0  0  0  0  0  0
  -23.6295   -8.2246   22.0757 C   0  0  0  0  0  0
  -22.4278   -8.0287   21.3546 C   0  0  0  0  0  0
  -21.9913   -9.0269   20.4651 C   0  0  0  0  0  0
  -22.7253  -10.2144   20.3051 C   0  0  0  0  0  0
  -21.6858   -6.0736   22.5281 C   0  0  0  0  0  0
  -21.4018   -6.5639   23.8211 C   0  0  0  0  0  0
  -21.3660   -5.6793   24.9172 C   0  0  0  0  0  0
  -21.6038   -4.3055   24.7223 C   0  0  0  0  0  0
  -21.8820   -3.8147   23.4345 C   0  0  0  0  0  0
  -21.9194   -4.6963   22.3404 C   0  0  0  0  0  0
  -22.7855  -13.5219   21.1864 C   0  0  0  0  0  0
  -22.1662   -4.2147   21.0980 F   0  0  0  0  0  0
  -21.5624   -3.4538   25.7735 F   0  0  0  0  0  0
  -29.9959  -13.5360   20.4226 N   0  0  0  0  0  0
  -26.2980  -12.9377   20.3285 N   0  0  0  0  0  0
  -25.9350  -11.6522   20.5737 N   0  0  0  0  0  0
  -22.0492  -12.8226   22.0423 N   0  0  0  0  0  0
  -25.4225  -15.1894   20.4177 N   0  0  0  0  0  0
  -31.7291  -14.9542   20.0815 O   0  0  0  0  0  0
  -21.6639   -6.8884   21.4244 O   0  0  0  0  0  0
  -22.3546  -14.5528   20.6712 O   0  0  0  0  0  0
  -24.6344  -31.8517   23.1951 C   0  0  0  0  0  0
  -25.9147  -32.4741   23.8312 C   0  0  1  0  0  0
  -27.2336  -27.2391   20.1379 C   0  0  0  0  0  0
  -25.5930  -33.8543   24.2233 N   0  0  0  0  0  0
  -23.4343  -30.4707   21.5387 C   0  0  2  0  0  0
  -24.8860  -28.9098   20.1154 C   0  0  0  0  0  0
  -22.7529  -29.4571   22.4899 C   0  0  0  0  0  0
  -18.0299  -28.1390   22.8482 C   0  0  0  0  0  0
  -24.1493  -36.7290   23.2634 C   0  0  0  0  0  0
  -25.9818  -30.7575   21.3790 C   0  0  0  0  0  0
  -26.0585  -29.3757   20.7247 C   0  0  0  0  0  0
  -27.2365  -28.5548   20.7207 C   0  0  0  0  0  0
  -26.0394  -26.8476   19.4948 C   0  0  0  0  0  0
  -24.8828  -27.6538   19.4881 C   0  0  0  0  0  0
  -23.6575  -29.8004   20.1568 C   0  0  0  0  0  0
  -25.4115  -36.3061   24.0320 C   0  0  1  0  0  0
  -20.5906  -28.3703   23.1265 C   0  0  2  0  0  0
  -20.6785  -26.9416   22.5403 C   0  0  0  0  0  0
  -19.5755  -26.6386   21.5212 C   0  0  0  0  0  0
  -18.1943  -26.7927   22.1637 C   0  0  0  0  0  0
  -19.1552  -28.8865   23.2871 C   0  0  0  0  0  0
  -18.9469  -30.1468   23.8888 C   0  0  0  0  0  0
  -17.6465  -30.6590   24.0564 C   0  0  0  0  0  0
  -25.9056  -34.9432   23.5083 C   0  0  0  0  0  0
  -16.5357  -29.9086   23.6328 C   0  0  0  0  0  0
  -16.7284  -28.6507   23.0342 C   0  0  0  0  0  0
  -26.4501  -31.6577   25.0716 C   0  0  0  0  0  0
  -25.3719  -31.3757   26.1441 C   0  0  0  0  0  0
  -27.0338  -30.2982   24.6222 C   0  0  0  0  0  0
  -27.6054  -32.4320   25.7489 C   0  0  0  0  0  0
  -27.5582  -37.1795   24.8455 C   0  0  0  0  0  0
  -21.4229  -29.3045   22.3654 N   0  0  0  0  0  0
  -26.4285  -37.3766   23.9411 N   0  0  0  0  0  0
  -24.7024  -31.0456   22.0940 N   0  0  0  0  0  0
  -23.4213  -28.8110   23.3009 O   0  0  0  0  0  0
  -28.3259  -26.3316   20.1473 O   0  0  0  0  0  0
  -26.5634  -34.8912   22.4656 O   0  0  0  0  0  0
  -23.5486  -32.1345   23.7225 O   0  0  0  0  0  0
  -30.2586  -18.4260   20.6076 C   0  0  0  0  0  0
  -29.4945  -19.6726   20.2810 C   0  0  0  0  0  0
  -29.5606  -17.2042   20.4962 C   0  0  0  0  0  0
  -28.9817  -23.6821   20.0423 C   0  0  0  0  0  0
  -30.8078  -21.3516   22.6509 C   0  0  0  0  0  0
  -29.6473  -22.3168   22.9807 C   0  0  0  0  0  0
  -31.1986  -21.4060   21.1582 C   0  0  0  0  0  0
  -28.4858  -22.1762   21.9712 C   0  0  0  0  0  0
  -29.9575  -21.2139   20.2578 C   0  0  2  0  0  0
  -28.0924  -24.9087   20.6252 C   0  0  0  0  0  0
  -28.2661  -19.3876   19.9003 N   0  0  0  0  0  0
  -29.0218  -22.3960   20.6228 N   0  0  0  0  0  0
  -29.7415  -15.8470   20.8495 N   0  0  0  0  0  0
  -29.6438  -23.9142   19.0254 O   0  0  0  0  0  0
  -27.9826  -17.7163   19.9630 S   0  0  0  0  0  0
  -31.4910  -12.6344   19.1808 H   0  0  0  0  0  0
  -30.4210  -11.5062   19.9642 H   0  0  0  0  0  0
  -29.8188  -11.7422   17.5360 H   0  0  0  0  0  0
  -29.6403  -13.4692   17.7224 H   0  0  0  0  0  0
  -27.9273  -11.2779   18.9308 H   0  0  0  0  0  0
  -27.3917  -12.5003   17.8063 H   0  0  0  0  0  0
  -27.6431  -14.2490   19.4760 H   0  0  0  0  0  0
  -28.7414  -12.1475   21.4099 H   0  0  0  0  0  0
  -28.4123  -13.8048   21.8213 H   0  0  0  0  0  0
  -25.2780   -9.5669   22.4741 H   0  0  0  0  0  0
  -23.9998   -7.4643   22.7485 H   0  0  0  0  0  0
  -21.0836   -8.8793   19.8970 H   0  0  0  0  0  0
  -22.3711  -10.9682   19.6157 H   0  0  0  0  0  0
  -21.2013   -7.6151   23.9719 H   0  0  0  0  0  0
  -21.1477   -6.0519   25.9074 H   0  0  0  0  0  0
  -22.0598   -2.7611   23.2844 H   0  0  0  0  0  0
  -22.4109  -11.9884   22.4805 H   0  0  0  0  0  0
  -21.1114  -13.1257   22.2623 H   0  0  0  0  0  0
  -24.6532  -15.8382   20.5431 H   0  0  0  0  0  0
  -26.2605  -15.6331   20.0694 H   0  0  0  0  0  0
  -26.7216  -32.5385   23.1055 H   0  0  0  0  0  0
  -25.0064  -33.9673   25.0369 H   0  0  0  0  0  0
  -22.7318  -31.2925   21.3870 H   0  0  0  0  0  0
  -23.3751  -35.9626   23.3271 H   0  0  0  0  0  0
  -24.3587  -36.8939   22.2052 H   0  0  0  0  0  0
  -23.7248  -37.6484   23.6677 H   0  0  0  0  0  0
  -26.1203  -31.5143   20.6056 H   0  0  0  0  0  0
  -26.8596  -30.8110   22.0117 H   0  0  0  0  0  0
  -28.1361  -28.9109   21.2036 H   0  0  0  0  0  0
  -25.9897  -25.8917   18.9936 H   0  0  0  0  0  0
  -23.9893  -27.2934   18.9977 H   0  0  0  0  0  0
  -23.7893  -30.5754   19.4002 H   0  0  0  0  0  0
  -22.7756  -29.2358   19.8478 H   0  0  0  0  0  0
  -25.1296  -36.1900   25.0812 H   0  0  0  0  0  0
  -20.9998  -28.3280   24.1386 H   0  0  0  0  0  0
  -20.5696  -26.2308   23.3611 H   0  0  0  0  0  0
  -21.6650  -26.7438   22.1190 H   0  0  0  0  0  0
  -19.6917  -25.6298   21.1243 H   0  0  0  0  0  0
  -19.6694  -27.3195   20.6741 H   0  0  0  0  0  0
  -17.4207  -26.6660   21.4050 H   0  0  0  0  0  0
  -18.0360  -26.0079   22.9048 H   0  0  0  0  0  0
  -19.7942  -30.7288   24.2255 H   0  0  0  0  0  0
  -17.5012  -31.6261   24.5176 H   0  0  0  0  0  0
  -15.5354  -30.2982   23.7652 H   0  0  0  0  0  0
  -15.8690  -28.0825   22.7049 H   0  0  0  0  0  0
  -24.5850  -30.7162   25.7764 H   0  0  0  0  0  0
  -24.8974  -32.2949   26.4885 H   0  0  0  0  0  0
  -25.8022  -30.8896   27.0206 H   0  0  0  0  0  0
  -26.2925  -29.6734   24.1229 H   0  0  0  0  0  0
  -27.3977  -29.7246   25.4753 H   0  0  0  0  0  0
  -27.8822  -30.4234   23.9492 H   0  0  0  0  0  0
  -27.2660  -33.3626   26.2048 H   0  0  0  0  0  0
  -28.3877  -32.6870   25.0328 H   0  0  0  0  0  0
  -28.0705  -31.8454   26.5421 H   0  0  0  0  0  0
  -28.2573  -38.0117   24.7527 H   0  0  0  0  0  0
  -28.1106  -36.2649   24.6249 H   0  0  0  0  0  0
  -27.2307  -37.1397   25.8858 H   0  0  0  0  0  0
  -20.9426  -29.8770   21.6852 H   0  0  0  0  0  0
  -26.0159  -38.2834   24.1431 H   0  0  0  0  0  0
  -31.2816  -18.4825   20.9515 H   0  0  0  0  0  0
  -30.5073  -20.3344   22.9046 H   0  0  0  0  0  0
  -31.6751  -21.5741   23.2735 H   0  0  0  0  0  0
  -30.0214  -23.3419   22.9722 H   0  0  0  0  0  0
  -29.2915  -22.1355   23.9958 H   0  0  0  0  0  0
  -31.9702  -20.6711   20.9275 H   0  0  0  0  0  0
  -31.6535  -22.3754   20.9491 H   0  0  0  0  0  0
  -27.6686  -22.8532   22.2184 H   0  0  0  0  0  0
  -28.0500  -21.1795   22.0427 H   0  0  0  0  0  0
  -30.2870  -21.4043   19.2354 H   0  0  0  0  0  0
  -28.2503  -24.9452   21.7024 H   0  0  0  0  0  0
  -27.0501  -24.6224   20.4943 H   0  0  0  0  0  0
  -28.8795  -15.4446   21.1861 H   0  0  0  0  0  0
  1 25  1  0  0  0
  1 30  2  0  0  0
  1 83  1  0  0  0
  2  3  1  0  0  0
  2 25  1  0  0  0
  2 86  1  0  0  0
  2 87  1  0  0  0
  3  4  1  0  0  0
  3 88  1  0  0  0
  3 89  1  0  0  0
  4  5  1  0  0  0
  4 90  1  0  0  0
  4 91  1  0  0  0
  5  6  1  0  0  0
  5 26  1  0  0  0
  5 92  1  0  0  0
  6 25  1  0  0  0
  6 93  1  0  0  0
  6 94  1  0  0  0
  7  8  2  0  0  0
  7 26  1  0  0  0
  7 29  1  0  0  0
  8  9  1  0  0  0
  8 22  1  0  0  0
  9 10  1  0  0  0
  9 27  2  0  0  0
 10 11  2  0  0  0
 10 15  1  0  0  0
 11 12  1  0  0  0
 11 95  1  0  0  0
 12 13  2  0  0  0
 12 96  1  0  0  0
 13 14  1  0  0  0
 13 31  1  0  0  0
 14 15  2  0  0  0
 14 97  1  0  0  0
 15 98  1  0  0  0
 16 17  2  0  0  0
 16 21  1  0  0  0
 16 31  1  0  0  0
 17 18  1  0  0  0
 17 99  1  0  0  0
 18 19  2  0  0  0
 18100  1  0  0  0
 19 20  1  0  0  0
 19 24  1  0  0  0
 20 21  2  0  0  0
 20101  1  0  0  0
 21 23  1  0  0  0
 22 28  1  0  0  0
 22 32  2  0  0  0
 26 27  1  0  0  0
 28102  1  0  0  0
 28103  1  0  0  0
 29104  1  0  0  0
 29105  1  0  0  0
 33 34  1  0  0  0
 33 66  1  0  0  0
 33 70  2  0  0  0
 34 36  1  0  0  0
 34 59  1  0  0  0
 34106  1  0  0  0
 35 44  2  0  0  0
 35 45  1  0  0  0
 35 68  1  0  0  0
 36 56  1  0  0  0
 36107  1  0  0  0
 37 39  1  0  0  0
 37 47  1  0  0  0
 37 66  1  0  0  0
 37108  1  0  0  0
 38 43  2  0  0  0
 38 46  1  0  0  0
 38 47  1  0  0  0
 39 64  1  0  0  0
 39 67  2  0  0  0
 40 52  1  0  0  0
 40 53  2  0  0  0
 40 58  1  0  0  0
 41109  1  0  0  0
 41110  1  0  0  0
 41111  1  0  0  0
 41 48  1  0  0  0
 42 43  1  0  0  0
 42 66  1  0  0  0
 42112  1  0  0  0
 42113  1  0  0  0
 43 44  1  0  0  0
 44114  1  0  0  0
 45 46  2  0  0  0
 45115  1  0  0  0
 46116  1  0  0  0
 47117  1  0  0  0
 47118  1  0  0  0
 48 56  1  0  0  0
 48 65  1  0  0  0
 48119  1  0  0  0
 49 50  1  0  0  0
 49 53  1  0  0  0
 49 64  1  0  0  0
 49120  1  0  0  0
 50 51  1  0  0  0
 50121  1  0  0  0
 50122  1  0  0  0
 51 52  1  0  0  0
 51123  1  0  0  0
 51124  1  0  0  0
 52125  1  0  0  0
 52126  1  0  0  0
 53 54  1  0  0  0
 54 55  2  0  0  0
 54127  1  0  0  0
 55 57  1  0  0  0
 55128  1  0  0  0
 56 69  2  0  0  0
 57 58  2  0  0  0
 57129  1  0  0  0
 58130  1  0  0  0
 59 60  1  0  0  0
 59 61  1  0  0  0
 59 62  1  0  0  0
 60131  1  0  0  0
 60132  1  0  0  0
 60133  1  0  0  0
 61134  1  0  0  0
 61135  1  0  0  0
 61136  1  0  0  0
 62137  1  0  0  0
 62138  1  0  0  0
 62139  1  0  0  0
 63 65  1  0  0  0
 63140  1  0  0  0
 63141  1  0  0  0
 63142  1  0  0  0
 64143  1  0  0  0
 65144  1  0  0  0
 68 80  1  0  0  0
 71 72  1  0  0  0
 71 73  2  0  0  0
 71145  1  0  0  0
 72 81  2  0  0  0
 72 79  1  0  0  0
 73 83  1  0  0  0
 73 85  1  0  0  0
 74 80  1  0  0  0
 74 82  1  0  0  0
 74 84  2  0  0  0
 75 76  1  0  0  0
 75 77  1  0  0  0
 75146  1  0  0  0
 75147  1  0  0  0
 76 78  1  0  0  0
 76148  1  0  0  0
 76149  1  0  0  0
 77 79  1  0  0  0
 77150  1  0  0  0
 77151  1  0  0  0
 78 82  1  0  0  0
 78152  1  0  0  0
 78153  1  0  0  0
 79 82  1  0  0  0
 79154  1  0  0  0
 80155  1  0  0  0
 80156  1  0  0  0
 81 85  1  0  0  0
 83157  1  0  0  0
M  ISO  4   1 100  68 101  80 101  83 100
M  END
> <chiral flag>
0

> <version>
0

> <s_m_source_file>
/data/baiqing/PycharmProjects/Reinvent-master-3.2/result/LINK_invent/BTK/process_docking_weight1_custom_product_contain_oxygen_bond_distance_aromatic_linkinvent_7_9_3/rearranged_h_0158.sdf

> <i_m_source_file_index>
24

> <r_mmod_Potential_Energy-OPLS-2005>
284.370330810547

> <r_mmod_Stretch_Energy-OPLS-2005>
150.257232666016

> <r_mmod_Bend_Energy-OPLS-2005>
205.857986450195

> <r_mmod_Torsional_Energy-OPLS-2005>
304.184051513672

> <r_mmod_Improper_Torsional_Energy-OPLS-2005>
6.37229681015015

> <r_mmod_Van_der_Waal_Energy-OPLS-2005>
117.467193603516

> <r_mmod_Electrostatic_Energy-OPLS-2005>
-360.012359619141

> <r_mmod_Solvation_Energy-OPLS-2005>
-242.832107543945

> <b_mmod_Minimization_Converged-OPLS-2005>
0

> <r_mmod_RMS_Derivative-OPLS-2005>
1.68110537528992

$$$$
24
                    3D
 Structure written by MMmdl.
155163  0  0  1  0            999 V2000
  -30.5131  -14.9687   20.4136 C   0  0  0  0  0  0
  -30.4495  -12.6040   19.4937 C   0  0  0  0  0  0
  -29.5193  -12.5352   18.2578 C   0  0  0  0  0  0
  -28.0544  -12.3148   18.6816 C   0  0  0  0  0  0
  -27.6281  -13.2495   19.8437 C   0  0  2  0  0  0
  -28.6747  -13.2676   20.9782 C   0  0  0  0  0  0
  -25.2367  -13.8163   20.5696 C   0  0  0  0  0  0
  -24.1721  -13.0371   20.9214 C   0  0  0  0  0  0
  -24.6388  -11.6876   20.8753 C   0  0  0  0  0  0
  -23.9084  -10.4254   21.0400 C   0  0  0  0  0  0
  -24.3634   -9.4175   21.9173 C   0  0  0  0  0  0
  -23.6297   -8.2223   22.0748 C   0  0  0  0  0  0
  -22.4277   -8.0268   21.3540 C   0  0  0  0  0  0
  -21.9919   -9.0247   20.4639 C   0  0  0  0  0  0
  -22.7262  -10.2111   20.3047 C   0  0  0  0  0  0
  -21.6845   -6.0729   22.5273 C   0  0  0  0  0  0
  -21.4016   -6.5628   23.8215 C   0  0  0  0  0  0
  -21.3654   -5.6776   24.9170 C   0  0  0  0  0  0
  -21.6047   -4.3045   24.7216 C   0  0  0  0  0  0
  -21.8826   -3.8139   23.4338 C   0  0  0  0  0  0
  -21.9195   -4.6958   22.3394 C   0  0  0  0  0  0
  -22.7738  -13.5129   21.1893 C   0  0  0  0  0  0
  -22.1656   -4.2150   21.0969 F   0  0  0  0  0  0
  -21.5633   -3.4526   25.7732 F   0  0  0  0  0  0
  -29.9514  -13.6913   20.3817 N   0  0  0  0  0  0
  -26.2873  -12.9462   20.3297 N   0  0  0  0  0  0
  -25.9342  -11.6577   20.5776 N   0  0  0  0  0  0
  -22.0439  -12.8117   22.0480 N   0  0  0  0  0  0
  -25.3761  -15.1896   20.4127 N   0  0  0  0  0  0
  -31.7172  -15.0624   20.1482 O   0  0  0  0  0  0
  -21.6626   -6.8882   21.4241 O   0  0  0  0  0  0
  -22.3400  -14.5437   20.6747 O   0  0  0  0  0  0
  -24.6444  -31.8408   23.1823 C   0  0  0  0  0  0
  -25.9221  -32.4661   23.8215 C   0  0  1  0  0  0
  -27.2387  -27.1355   20.1677 C   0  0  0  0  0  0
  -25.5974  -33.8463   24.2155 N   0  0  0  0  0  0
  -23.4484  -30.4560   21.5285 C   0  0  2  0  0  0
  -24.9016  -28.8650   20.1206 C   0  0  0  0  0  0
  -22.7561  -29.4542   22.4850 C   0  0  0  0  0  0
  -18.0312  -28.1387   22.8439 C   0  0  0  0  0  0
  -24.1502  -36.7257   23.2647 C   0  0  0  0  0  0
  -26.0004  -30.7150   21.3771 C   0  0  0  0  0  0
  -26.0767  -29.3198   20.7319 C   0  0  0  0  0  0
  -27.2476  -28.4737   20.7306 C   0  0  0  0  0  0
  -26.0357  -26.7653   19.5350 C   0  0  0  0  0  0
  -24.8916  -27.5982   19.5097 C   0  0  0  0  0  0
  -23.6774  -29.7693   20.1532 C   0  0  0  0  0  0
  -25.4117  -36.3004   24.0328 C   0  0  1  0  0  0
  -20.5917  -28.3718   23.1220 C   0  0  2  0  0  0
  -20.6788  -26.9413   22.5403 C   0  0  0  0  0  0
  -19.5781  -26.6369   21.5191 C   0  0  0  0  0  0
  -18.1948  -26.7916   22.1590 C   0  0  0  0  0  0
  -19.1570  -28.8862   23.2808 C   0  0  0  0  0  0
  -18.9489  -30.1444   23.8841 C   0  0  0  0  0  0
  -17.6493  -30.6572   24.0544 C   0  0  0  0  0  0
  -25.9077  -34.9378   23.5043 C   0  0  0  0  0  0
  -16.5377  -29.9072   23.6339 C   0  0  0  0  0  0
  -16.7298  -28.6509   23.0322 C   0  0  0  0  0  0
  -26.4541  -31.6534   25.0660 C   0  0  0  0  0  0
  -25.3735  -31.3719   26.1366 C   0  0  0  0  0  0
  -27.0425  -30.2931   24.6243 C   0  0  0  0  0  0
  -27.6053  -32.4313   25.7453 C   0  0  0  0  0  0
  -27.5581  -37.1759   24.8446 C   0  0  0  0  0  0
  -21.4253  -29.3044   22.3593 N   0  0  0  0  0  0
  -26.4263  -37.3738   23.9438 N   0  0  0  0  0  0
  -24.7171  -31.0254   22.0857 N   0  0  0  0  0  0
  -23.4186  -28.8118   23.3036 O   0  0  0  0  0  0
  -28.3477  -26.2168   20.1212 O   0  0  0  0  0  0
  -26.5668  -34.8906   22.4627 O   0  0  0  0  0  0
  -23.5580  -32.1271   23.7082 O   0  0  0  0  0  0
  -28.2292  -19.7252   20.4599 C   0  0  0  0  0  0
  -28.3813  -18.2804   20.5278 C   0  0  0  0  0  0
  -29.3621  -20.5873   20.3691 C   0  0  0  0  0  0
  -29.6632  -17.6205   20.4639 C   0  0  0  0  0  0
  -27.6929  -24.7255   22.0550 C   0  0  0  0  0  0
  -28.4767  -25.1976   23.2599 C   0  0  0  0  0  0
  -28.4380  -23.2415   19.9896 C   0  0  0  0  0  0
  -28.4423  -24.7759   20.7218 C   0  0  1  0  0  0
  -30.5632  -19.8956   20.3208 N   0  0  0  0  0  0
  -30.7102  -18.5169   20.3475 N   0  0  0  0  0  0
  -26.4941  -24.3256   22.1569 N   0  0  0  0  0  0
  -27.2380  -17.4920   20.7042 N   0  0  0  0  0  0
  -29.6541  -16.0886   20.5458 N   0  0  0  0  0  0
  -29.3876  -22.0740   20.4304 N   0  0  0  0  0  0
  -31.4765  -12.7844   19.1715 H   0  0  0  0  0  0
  -30.4639  -11.6503   20.0241 H   0  0  0  0  0  0
  -29.8384  -11.7373   17.5867 H   0  0  0  0  0  0
  -29.5938  -13.4645   17.6891 H   0  0  0  0  0  0
  -27.9593  -11.2756   18.9967 H   0  0  0  0  0  0
  -27.3839  -12.4372   17.8305 H   0  0  0  0  0  0
  -27.5874  -14.2534   19.4191 H   0  0  0  0  0  0
  -28.7638  -12.2855   21.4435 H   0  0  0  0  0  0
  -28.3724  -13.9554   21.7698 H   0  0  0  0  0  0
  -25.2794   -9.5632   22.4730 H   0  0  0  0  0  0
  -23.9999   -7.4610   22.7462 H   0  0  0  0  0  0
  -21.0853   -8.8779   19.8940 H   0  0  0  0  0  0
  -22.3745  -10.9651   19.6145 H   0  0  0  0  0  0
  -21.2010   -7.6133   23.9717 H   0  0  0  0  0  0
  -21.1465   -6.0500   25.9074 H   0  0  0  0  0  0
  -22.0614   -2.7604   23.2832 H   0  0  0  0  0  0
  -22.4095  -11.9776   22.4842 H   0  0  0  0  0  0
  -21.1070  -13.1115   22.2775 H   0  0  0  0  0  0
  -24.5817  -15.8023   20.5564 H   0  0  0  0  0  0
  -26.2055  -15.7067   20.1350 H   0  0  0  0  0  0
  -26.7281  -32.5269   23.0946 H   0  0  0  0  0  0
  -25.0064  -33.9540   25.0262 H   0  0  0  0  0  0
  -22.7533  -31.2808   21.3647 H   0  0  0  0  0  0
  -23.3767  -35.9579   23.3238 H   0  0  0  0  0  0
  -24.3614  -36.8963   22.2075 H   0  0  0  0  0  0
  -23.7244  -37.6430   23.6730 H   0  0  0  0  0  0
  -26.1469  -31.4640   20.5970 H   0  0  0  0  0  0
  -26.8757  -30.7737   22.0128 H   0  0  0  0  0  0
  -28.1539  -28.8313   21.2005 H   0  0  0  0  0  0
  -25.9751  -25.7943   19.0631 H   0  0  0  0  0  0
  -23.9962  -27.2381   19.0241 H   0  0  0  0  0  0
  -23.8185  -30.5353   19.3893 H   0  0  0  0  0  0
  -22.7924  -29.2100   19.8431 H   0  0  0  0  0  0
  -25.1290  -36.1812   25.0820 H   0  0  0  0  0  0
  -20.9975  -28.3330   24.1357 H   0  0  0  0  0  0
  -20.5679  -26.2321   23.3624 H   0  0  0  0  0  0
  -21.6654  -26.7414   22.1208 H   0  0  0  0  0  0
  -19.6949  -25.6283   21.1229 H   0  0  0  0  0  0
  -19.6741  -27.3174   20.6712 H   0  0  0  0  0  0
  -17.4219  -26.6646   21.3989 H   0  0  0  0  0  0
  -18.0340  -26.0053   22.8984 H   0  0  0  0  0  0
  -19.7974  -30.7233   24.2202 H   0  0  0  0  0  0
  -17.5074  -31.6257   24.5155 H   0  0  0  0  0  0
  -15.5389  -30.2959   23.7703 H   0  0  0  0  0  0
  -15.8685  -28.0834   22.7042 H   0  0  0  0  0  0
  -24.5942  -30.7034   25.7707 H   0  0  0  0  0  0
  -24.8895  -32.2888   26.4730 H   0  0  0  0  0  0
  -25.8035  -30.8949   27.0178 H   0  0  0  0  0  0
  -26.3036  -29.6621   24.1288 H   0  0  0  0  0  0
  -27.4085  -29.7272   25.4820 H   0  0  0  0  0  0
  -27.8914  -30.4170   23.9513 H   0  0  0  0  0  0
  -27.2638  -33.3650   26.1934 H   0  0  0  0  0  0
  -28.3915  -32.6815   25.0318 H   0  0  0  0  0  0
  -28.0650  -31.8489   26.5455 H   0  0  0  0  0  0
  -28.2498  -38.0145   24.7583 H   0  0  0  0  0  0
  -28.1168  -36.2681   24.6128 H   0  0  0  0  0  0
  -27.2317  -37.1218   25.8844 H   0  0  0  0  0  0
  -20.9488  -29.8763   21.6765 H   0  0  0  0  0  0
  -26.0121  -38.2787   24.1512 H   0  0  0  0  0  0
  -27.2513  -20.1753   20.5413 H   0  0  0  0  0  0
  -28.9245  -26.1709   23.0644 H   0  0  0  0  0  0
  -29.2740  -24.4876   23.4802 H   0  0  0  0  0  0
  -27.8367  -25.2857   24.1371 H   0  0  0  0  0  0
  -28.6619  -23.4077   18.9344 H   0  0  0  0  0  0
  -27.4162  -22.8606   19.9936 H   0  0  0  0  0  0
  -29.4942  -24.8286   21.0006 H   0  0  0  0  0  0
  -26.1623  -24.3633   23.1135 H   0  0  0  0  0  0
  -26.3705  -18.0137   20.7610 H   0  0  0  0  0  0
  -27.2867  -16.8672   21.5017 H   0  0  0  0  0  0
  -28.7025  -15.7852   20.6607 H   0  0  0  0  0  0
  -30.3468  -22.3965   20.5154 H   0  0  0  0  0  0
  1 25  1  0  0  0
  1 30  2  0  0  0
  1 83  1  0  0  0
  2  3  1  0  0  0
  2 25  1  0  0  0
  2 85  1  0  0  0
  2 86  1  0  0  0
  3  4  1  0  0  0
  3 87  1  0  0  0
  3 88  1  0  0  0
  4  5  1  0  0  0
  4 89  1  0  0  0
  4 90  1  0  0  0
  5  6  1  0  0  0
  5 26  1  0  0  0
  5 91  1  0  0  0
  6 25  1  0  0  0
  6 92  1  0  0  0
  6 93  1  0  0  0
  7  8  2  0  0  0
  7 26  1  0  0  0
  7 29  1  0  0  0
  8  9  1  0  0  0
  8 22  1  0  0  0
  9 10  1  0  0  0
  9 27  2  0  0  0
 10 11  2  0  0  0
 10 15  1  0  0  0
 11 12  1  0  0  0
 11 94  1  0  0  0
 12 13  2  0  0  0
 12 95  1  0  0  0
 13 14  1  0  0  0
 13 31  1  0  0  0
 14 15  2  0  0  0
 14 96  1  0  0  0
 15 97  1  0  0  0
 16 17  2  0  0  0
 16 21  1  0  0  0
 16 31  1  0  0  0
 17 18  1  0  0  0
 17 98  1  0  0  0
 18 19  2  0  0  0
 18 99  1  0  0  0
 19 20  1  0  0  0
 19 24  1  0  0  0
 20 21  2  0  0  0
 20100  1  0  0  0
 21 23  1  0  0  0
 22 28  1  0  0  0
 22 32  2  0  0  0
 26 27  1  0  0  0
 28101  1  0  0  0
 28102  1  0  0  0
 29103  1  0  0  0
 29104  1  0  0  0
 33 34  1  0  0  0
 33 66  1  0  0  0
 33 70  2  0  0  0
 34 36  1  0  0  0
 34 59  1  0  0  0
 34105  1  0  0  0
 35 44  2  0  0  0
 35 45  1  0  0  0
 35 68  1  0  0  0
 36 56  1  0  0  0
 36106  1  0  0  0
 37 39  1  0  0  0
 37 47  1  0  0  0
 37 66  1  0  0  0
 37107  1  0  0  0
 38 43  2  0  0  0
 38 46  1  0  0  0
 38 47  1  0  0  0
 39 64  1  0  0  0
 39 67  2  0  0  0
 40 52  1  0  0  0
 40 53  2  0  0  0
 40 58  1  0  0  0
 41108  1  0  0  0
 41109  1  0  0  0
 41110  1  0  0  0
 41 48  1  0  0  0
 42 43  1  0  0  0
 42 66  1  0  0  0
 42111  1  0  0  0
 42112  1  0  0  0
 43 44  1  0  0  0
 44113  1  0  0  0
 45 46  2  0  0  0
 45114  1  0  0  0
 46115  1  0  0  0
 47116  1  0  0  0
 47117  1  0  0  0
 48 56  1  0  0  0
 48 65  1  0  0  0
 48118  1  0  0  0
 49 50  1  0  0  0
 49 53  1  0  0  0
 49 64  1  0  0  0
 49119  1  0  0  0
 50 51  1  0  0  0
 50120  1  0  0  0
 50121  1  0  0  0
 51 52  1  0  0  0
 51122  1  0  0  0
 51123  1  0  0  0
 52124  1  0  0  0
 52125  1  0  0  0
 53 54  1  0  0  0
 54 55  2  0  0  0
 54126  1  0  0  0
 55 57  1  0  0  0
 55127  1  0  0  0
 56 69  2  0  0  0
 57 58  2  0  0  0
 57128  1  0  0  0
 58129  1  0  0  0
 59 60  1  0  0  0
 59 61  1  0  0  0
 59 62  1  0  0  0
 60130  1  0  0  0
 60131  1  0  0  0
 60132  1  0  0  0
 61133  1  0  0  0
 61134  1  0  0  0
 61135  1  0  0  0
 62136  1  0  0  0
 62137  1  0  0  0
 62138  1  0  0  0
 63 65  1  0  0  0
 63139  1  0  0  0
 63140  1  0  0  0
 63141  1  0  0  0
 64142  1  0  0  0
 65143  1  0  0  0
 68 78  1  0  0  0
 71 72  2  0  0  0
 71 73  1  0  0  0
 71144  1  0  0  0
 72 74  1  0  0  0
 72 82  1  0  0  0
 73 79  2  0  0  0
 73 84  1  0  0  0
 74 80  2  0  0  0
 74 83  1  0  0  0
 75 76  1  0  0  0
 75 78  1  0  0  0
 75 81  2  0  0  0
 76145  1  0  0  0
 76146  1  0  0  0
 76147  1  0  0  0
 77 84  1  0  0  0
 77148  1  0  0  0
 77149  1  0  0  0
 77 78  1  0  0  0
 78150  1  0  0  0
 79 80  1  0  0  0
 81151  1  0  0  0
 82152  1  0  0  0
 82153  1  0  0  0
 83154  1  0  0  0
 84155  1  0  0  0
M  ISO  4   1 100  68 101  78 101  83 100
M  END
> <chiral flag>
0

> <version>
0

> <s_m_source_file>
/data/baiqing/PycharmProjects/Reinvent-master-3.2/result/LINK_invent/BTK/process_docking_weight1_custom_product_contain_oxygen_bond_distance_aromatic_linkinvent_7_9_3/rearranged_h_0158.sdf

> <i_m_source_file_index>
25

> <r_mmod_Potential_Energy-OPLS-2005>
447.960906982422

> <r_mmod_Stretch_Energy-OPLS-2005>
236.084854125977

> <r_mmod_Bend_Energy-OPLS-2005>
326.181030273438

> <r_mmod_Torsional_Energy-OPLS-2005>
233.883926391602

> <r_mmod_Improper_Torsional_Energy-OPLS-2005>
11.5836143493652

> <r_mmod_Van_der_Waal_Energy-OPLS-2005>
128.238998413086

> <r_mmod_Electrostatic_Energy-OPLS-2005>
-425.147308349609

> <r_mmod_Solvation_Energy-OPLS-2005>
-255.260864257812

> <b_mmod_Minimization_Converged-OPLS-2005>
0

> <r_mmod_RMS_Derivative-OPLS-2005>
2.7472620010376

$$$$
25
                    3D
 Structure written by MMmdl.
157165  0  0  1  0            999 V2000
  -30.5613  -14.8261   20.4417 C   0  0  0  0  0  0
  -30.4435  -12.5069   19.4736 C   0  0  0  0  0  0
  -29.5151  -12.5125   18.2377 C   0  0  0  0  0  0
  -28.0432  -12.3202   18.6551 C   0  0  0  0  0  0
  -27.6371  -13.2318   19.8432 C   0  0  2  0  0  0
  -28.6836  -13.1931   20.9773 C   0  0  0  0  0  0
  -25.2498  -13.8188   20.5692 C   0  0  0  0  0  0
  -24.1797  -13.0432   20.9218 C   0  0  0  0  0  0
  -24.6392  -11.6911   20.8755 C   0  0  0  0  0  0
  -23.9071  -10.4289   21.0414 C   0  0  0  0  0  0
  -24.3621   -9.4203   21.9189 C   0  0  0  0  0  0
  -23.6294   -8.2239   22.0755 C   0  0  0  0  0  0
  -22.4277   -8.0280   21.3545 C   0  0  0  0  0  0
  -21.9915   -9.0255   20.4648 C   0  0  0  0  0  0
  -22.7245  -10.2133   20.3059 C   0  0  0  0  0  0
  -21.6853   -6.0737   22.5280 C   0  0  0  0  0  0
  -21.4013   -6.5641   23.8214 C   0  0  0  0  0  0
  -21.3658   -5.6793   24.9176 C   0  0  0  0  0  0
  -21.6044   -4.3055   24.7226 C   0  0  0  0  0  0
  -21.8819   -3.8148   23.4347 C   0  0  0  0  0  0
  -21.9193   -4.6965   22.3404 C   0  0  0  0  0  0
  -22.7819  -13.5215   21.1876 C   0  0  0  0  0  0
  -22.1662   -4.2150   21.0981 F   0  0  0  0  0  0
  -21.5628   -3.4539   25.7739 F   0  0  0  0  0  0
  -29.9724  -13.5760   20.3869 N   0  0  0  0  0  0
  -26.2916  -12.9391   20.3252 N   0  0  0  0  0  0
  -25.9319  -11.6537   20.5742 N   0  0  0  0  0  0
  -22.0463  -12.8207   22.0431 N   0  0  0  0  0  0
  -25.4158  -15.1916   20.4099 N   0  0  0  0  0  0
  -31.7663  -14.9288   20.1857 O   0  0  0  0  0  0
  -21.6639   -6.8880   21.4242 O   0  0  0  0  0  0
  -22.3508  -14.5521   20.6721 O   0  0  0  0  0  0
  -24.6348  -31.8506   23.1926 C   0  0  0  0  0  0
  -25.9154  -32.4728   23.8295 C   0  0  1  0  0  0
  -27.2234  -27.2160   20.1517 C   0  0  0  0  0  0
  -25.5931  -33.8531   24.2220 N   0  0  0  0  0  0
  -23.4348  -30.4693   21.5367 C   0  0  2  0  0  0
  -24.8836  -28.8989   20.1186 C   0  0  0  0  0  0
  -22.7522  -29.4579   22.4899 C   0  0  0  0  0  0
  -18.0298  -28.1392   22.8487 C   0  0  0  0  0  0
  -24.1488  -36.7271   23.2644 C   0  0  0  0  0  0
  -25.9826  -30.7495   21.3778 C   0  0  0  0  0  0
  -26.0563  -29.3639   20.7285 C   0  0  0  0  0  0
  -27.2310  -28.5377   20.7266 C   0  0  0  0  0  0
  -26.0293  -26.8221   19.5166 C   0  0  0  0  0  0
  -24.8767  -27.6367   19.5010 C   0  0  0  0  0  0
  -23.6573  -29.7939   20.1571 C   0  0  0  0  0  0
  -25.4119  -36.3054   24.0324 C   0  0  1  0  0  0
  -20.5904  -28.3707   23.1264 C   0  0  2  0  0  0
  -20.6783  -26.9420   22.5410 C   0  0  0  0  0  0
  -19.5758  -26.6385   21.5215 C   0  0  0  0  0  0
  -18.1939  -26.7934   22.1626 C   0  0  0  0  0  0
  -19.1552  -28.8867   23.2869 C   0  0  0  0  0  0
  -18.9472  -30.1467   23.8890 C   0  0  0  0  0  0
  -17.6469  -30.6592   24.0565 C   0  0  0  0  0  0
  -25.9062  -34.9424   23.5078 C   0  0  0  0  0  0
  -16.5361  -29.9089   23.6333 C   0  0  0  0  0  0
  -16.7283  -28.6506   23.0356 C   0  0  0  0  0  0
  -26.4507  -31.6568   25.0705 C   0  0  0  0  0  0
  -25.3714  -31.3735   26.1416 C   0  0  0  0  0  0
  -27.0361  -30.2978   24.6220 C   0  0  0  0  0  0
  -27.6050  -32.4317   25.7488 C   0  0  0  0  0  0
  -27.5576  -37.1792   24.8468 C   0  0  0  0  0  0
  -21.4224  -29.3045   22.3644 N   0  0  0  0  0  0
  -26.4288  -37.3759   23.9410 N   0  0  0  0  0  0
  -24.7034  -31.0430   22.0918 N   0  0  0  0  0  0
  -23.4199  -28.8135   23.3028 O   0  0  0  0  0  0
  -28.3303  -26.3239   20.1136 O   0  0  0  0  0  0
  -26.5646  -34.8913   22.4655 O   0  0  0  0  0  0
  -23.5486  -32.1346   23.7195 O   0  0  0  0  0  0
  -30.7209  -19.4474   20.9639 C   0  0  0  0  0  0
  -30.9930  -18.0292   21.0732 C   0  0  0  0  0  0
  -29.4964  -19.6504   20.3676 C   0  0  0  0  0  0
  -29.9240  -17.3479   20.5504 C   0  0  0  0  0  0
  -28.2855  -23.5910   19.9800 C   0  0  0  0  0  0
  -28.9610  -20.9357   18.2759 C   0  0  0  0  0  0
  -27.3416  -24.9325   21.9553 C   0  0  0  0  0  0
  -29.8003  -25.0284   21.4735 C   0  0  0  0  0  0
  -28.7128  -20.9290   19.7966 C   0  0  2  0  0  0
  -28.4012  -24.9757   20.8345 C   0  0  0  0  0  0
  -29.7194  -15.9443   20.5288 N   0  0  0  0  0  0
  -28.8767  -22.3692   20.3647 N   0  0  0  0  0  0
  -27.5796  -23.6374   18.9722 O   0  0  0  0  0  0
  -28.9949  -18.3358   20.1311 O   0  0  0  0  0  0
  -31.4786  -12.6609   19.1644 H   0  0  0  0  0  0
  -30.4199  -11.5378   19.9742 H   0  0  0  0  0  0
  -29.8114  -11.7293   17.5386 H   0  0  0  0  0  0
  -29.6230  -13.4570   17.7021 H   0  0  0  0  0  0
  -27.9163  -11.2738   18.9350 H   0  0  0  0  0  0
  -27.3825  -12.4890   17.8040 H   0  0  0  0  0  0
  -27.6188  -14.2459   19.4442 H   0  0  0  0  0  0
  -28.7419  -12.1988   21.4224 H   0  0  0  0  0  0
  -28.4067  -13.8746   21.7836 H   0  0  0  0  0  0
  -25.2765   -9.5679   22.4766 H   0  0  0  0  0  0
  -24.0003   -7.4630   22.7474 H   0  0  0  0  0  0
  -21.0846   -8.8776   19.8953 H   0  0  0  0  0  0
  -22.3705  -10.9674   19.6170 H   0  0  0  0  0  0
  -21.2005   -7.6148   23.9718 H   0  0  0  0  0  0
  -21.1480   -6.0523   25.9079 H   0  0  0  0  0  0
  -22.0599   -2.7610   23.2847 H   0  0  0  0  0  0
  -22.4080  -11.9869   22.4820 H   0  0  0  0  0  0
  -21.1079  -13.1231   22.2633 H   0  0  0  0  0  0
  -24.6409  -15.8372   20.5183 H   0  0  0  0  0  0
  -26.2479  -15.6368   20.0461 H   0  0  0  0  0  0
  -26.7222  -32.5369   23.1037 H   0  0  0  0  0  0
  -25.0065  -33.9659   25.0357 H   0  0  0  0  0  0
  -22.7338  -31.2925   21.3835 H   0  0  0  0  0  0
  -23.3752  -35.9600   23.3300 H   0  0  0  0  0  0
  -24.3576  -36.8900   22.2059 H   0  0  0  0  0  0
  -23.7238  -37.6467   23.6675 H   0  0  0  0  0  0
  -26.1237  -31.5033   20.6021 H   0  0  0  0  0  0
  -26.8593  -30.8047   22.0118 H   0  0  0  0  0  0
  -28.1356  -28.8962   21.1979 H   0  0  0  0  0  0
  -25.9845  -25.8538   19.0383 H   0  0  0  0  0  0
  -23.9804  -27.2752   19.0161 H   0  0  0  0  0  0
  -23.7892  -30.5651   19.3972 H   0  0  0  0  0  0
  -22.7743  -29.2302   19.8509 H   0  0  0  0  0  0
  -25.1304  -36.1891   25.0816 H   0  0  0  0  0  0
  -21.0001  -28.3287   24.1383 H   0  0  0  0  0  0
  -20.5680  -26.2319   23.3618 H   0  0  0  0  0  0
  -21.6652  -26.7438   22.1208 H   0  0  0  0  0  0
  -19.6919  -25.6292   21.1251 H   0  0  0  0  0  0
  -19.6695  -27.3194   20.6742 H   0  0  0  0  0  0
  -17.4210  -26.6686   21.4027 H   0  0  0  0  0  0
  -18.0337  -26.0079   22.9024 H   0  0  0  0  0  0
  -19.7947  -30.7289   24.2253 H   0  0  0  0  0  0
  -17.5022  -31.6271   24.5169 H   0  0  0  0  0  0
  -15.5361  -30.2988   23.7659 H   0  0  0  0  0  0
  -15.8685  -28.0820   22.7073 H   0  0  0  0  0  0
  -24.5902  -30.7071   25.7742 H   0  0  0  0  0  0
  -24.8896  -32.2910   26.4803 H   0  0  0  0  0  0
  -25.8021  -30.8940   27.0214 H   0  0  0  0  0  0
  -26.2958  -29.6715   24.1229 H   0  0  0  0  0  0
  -27.4015  -29.7253   25.4754 H   0  0  0  0  0  0
  -27.8842  -30.4242   23.9489 H   0  0  0  0  0  0
  -27.2656  -33.3632   26.2030 H   0  0  0  0  0  0
  -28.3885  -32.6851   25.0333 H   0  0  0  0  0  0
  -28.0689  -31.8462   26.5434 H   0  0  0  0  0  0
  -28.2594  -38.0090   24.7515 H   0  0  0  0  0  0
  -28.1073  -36.2620   24.6295 H   0  0  0  0  0  0
  -27.2295  -37.1442   25.8871 H   0  0  0  0  0  0
  -20.9417  -29.8752   21.6831 H   0  0  0  0  0  0
  -26.0159  -38.2829   24.1411 H   0  0  0  0  0  0
  -31.3874  -20.2456   21.2593 H   0  0  0  0  0  0
  -31.8773  -17.5724   21.4962 H   0  0  0  0  0  0
  -28.7402  -19.9579   17.8464 H   0  0  0  0  0  0
  -30.0040  -21.1604   18.0520 H   0  0  0  0  0  0
  -28.3410  -21.6499   17.7389 H   0  0  0  0  0  0
  -27.4574  -24.0422   22.5747 H   0  0  0  0  0  0
  -26.3298  -24.9089   21.5505 H   0  0  0  0  0  0
  -27.4188  -25.7978   22.6137 H   0  0  0  0  0  0
  -29.9865  -24.1776   22.1292 H   0  0  0  0  0  0
  -29.9240  -25.9300   22.0739 H   0  0  0  0  0  0
  -30.5789  -25.0360   20.7096 H   0  0  0  0  0  0
  -27.6520  -20.7142   19.9327 H   0  0  0  0  0  0
  -28.7473  -15.6819   20.5416 H   0  0  0  0  0  0
  -29.4386  -22.4223   21.2030 H   0  0  0  0  0  0
  1 25  1  0  0  0
  1 30  2  0  0  0
  1 81  1  0  0  0
  2  3  1  0  0  0
  2 25  1  0  0  0
  2 85  1  0  0  0
  2 86  1  0  0  0
  3  4  1  0  0  0
  3 87  1  0  0  0
  3 88  1  0  0  0
  4  5  1  0  0  0
  4 89  1  0  0  0
  4 90  1  0  0  0
  5  6  1  0  0  0
  5 26  1  0  0  0
  5 91  1  0  0  0
  6 25  1  0  0  0
  6 92  1  0  0  0
  6 93  1  0  0  0
  7  8  2  0  0  0
  7 26  1  0  0  0
  7 29  1  0  0  0
  8  9  1  0  0  0
  8 22  1  0  0  0
  9 10  1  0  0  0
  9 27  2  0  0  0
 10 11  2  0  0  0
 10 15  1  0  0  0
 11 12  1  0  0  0
 11 94  1  0  0  0
 12 13  2  0  0  0
 12 95  1  0  0  0
 13 14  1  0  0  0
 13 31  1  0  0  0
 14 15  2  0  0  0
 14 96  1  0  0  0
 15 97  1  0  0  0
 16 17  2  0  0  0
 16 21  1  0  0  0
 16 31  1  0  0  0
 17 18  1  0  0  0
 17 98  1  0  0  0
 18 19  2  0  0  0
 18 99  1  0  0  0
 19 20  1  0  0  0
 19 24  1  0  0  0
 20 21  2  0  0  0
 20100  1  0  0  0
 21 23  1  0  0  0
 22 28  1  0  0  0
 22 32  2  0  0  0
 26 27  1  0  0  0
 28101  1  0  0  0
 28102  1  0  0  0
 29103  1  0  0  0
 29104  1  0  0  0
 33 34  1  0  0  0
 33 66  1  0  0  0
 33 70  2  0  0  0
 34 36  1  0  0  0
 34 59  1  0  0  0
 34105  1  0  0  0
 35 44  2  0  0  0
 35 45  1  0  0  0
 35 68  1  0  0  0
 36 56  1  0  0  0
 36106  1  0  0  0
 37 39  1  0  0  0
 37 47  1  0  0  0
 37 66  1  0  0  0
 37107  1  0  0  0
 38 43  2  0  0  0
 38 46  1  0  0  0
 38 47  1  0  0  0
 39 64  1  0  0  0
 39 67  2  0  0  0
 40 52  1  0  0  0
 40 53  2  0  0  0
 40 58  1  0  0  0
 41108  1  0  0  0
 41109  1  0  0  0
 41110  1  0  0  0
 41 48  1  0  0  0
 42 43  1  0  0  0
 42 66  1  0  0  0
 42111  1  0  0  0
 42112  1  0  0  0
 43 44  1  0  0  0
 44113  1  0  0  0
 45 46  2  0  0  0
 45114  1  0  0  0
 46115  1  0  0  0
 47116  1  0  0  0
 47117  1  0  0  0
 48 56  1  0  0  0
 48 65  1  0  0  0
 48118  1  0  0  0
 49 50  1  0  0  0
 49 53  1  0  0  0
 49 64  1  0  0  0
 49119  1  0  0  0
 50 51  1  0  0  0
 50120  1  0  0  0
 50121  1  0  0  0
 51 52  1  0  0  0
 51122  1  0  0  0
 51123  1  0  0  0
 52124  1  0  0  0
 52125  1  0  0  0
 53 54  1  0  0  0
 54 55  2  0  0  0
 54126  1  0  0  0
 55 57  1  0  0  0
 55127  1  0  0  0
 56 69  2  0  0  0
 57 58  2  0  0  0
 57128  1  0  0  0
 58129  1  0  0  0
 59 60  1  0  0  0
 59 61  1  0  0  0
 59 62  1  0  0  0
 60130  1  0  0  0
 60131  1  0  0  0
 60132  1  0  0  0
 61133  1  0  0  0
 61134  1  0  0  0
 61135  1  0  0  0
 62136  1  0  0  0
 62137  1  0  0  0
 62138  1  0  0  0
 63 65  1  0  0  0
 63139  1  0  0  0
 63140  1  0  0  0
 63141  1  0  0  0
 64142  1  0  0  0
 65143  1  0  0  0
 68 80  1  0  0  0
 71 72  1  0  0  0
 71 73  2  0  0  0
 71144  1  0  0  0
 72 74  2  0  0  0
 72145  1  0  0  0
 73 79  1  0  0  0
 73 84  1  0  0  0
 74 81  1  0  0  0
 74 84  1  0  0  0
 75 80  1  0  0  0
 75 82  1  0  0  0
 75 83  2  0  0  0
 76146  1  0  0  0
 76147  1  0  0  0
 76148  1  0  0  0
 76 79  1  0  0  0
 77149  1  0  0  0
 77150  1  0  0  0
 77151  1  0  0  0
 77 80  1  0  0  0
 78 80  1  0  0  0
 78152  1  0  0  0
 78153  1  0  0  0
 78154  1  0  0  0
 79 82  1  0  0  0
 79155  1  0  0  0
 81156  1  0  0  0
 82157  1  0  0  0
M  ISO  4   1 100  68 101  80 101  81 100
M  END
> <chiral flag>
0

> <version>
0

> <s_m_source_file>
/data/baiqing/PycharmProjects/Reinvent-master-3.2/result/LINK_invent/BTK/process_docking_weight1_custom_product_contain_oxygen_bond_distance_aromatic_linkinvent_7_9_3/rearranged_h_0158.sdf

> <i_m_source_file_index>
26

> <r_mmod_Potential_Energy-OPLS-2005>
159.370910644531

> <r_mmod_Stretch_Energy-OPLS-2005>
160.956680297852

> <r_mmod_Bend_Energy-OPLS-2005>
208.921829223633

> <r_mmod_Torsional_Energy-OPLS-2005>
255.71794128418

> <r_mmod_Improper_Torsional_Energy-OPLS-2005>
7.25434732437134

> <r_mmod_Van_der_Waal_Energy-OPLS-2005>
111.008888244629

> <r_mmod_Electrostatic_Energy-OPLS-2005>
-474.175476074219

> <r_mmod_Solvation_Energy-OPLS-2005>
-226.836059570312

> <b_mmod_Minimization_Converged-OPLS-2005>
0

> <r_mmod_RMS_Derivative-OPLS-2005>
0.384496092796326

$$$$
26
                    3D
 Structure written by MMmdl.
156164  0  0  1  0            999 V2000
  -30.5609  -14.8192   20.4036 C   0  0  0  0  0  0
  -30.4201  -12.4979   19.4679 C   0  0  0  0  0  0
  -29.5029  -12.5095   18.2273 C   0  0  0  0  0  0
  -28.0291  -12.3297   18.6382 C   0  0  0  0  0  0
  -27.6269  -13.2361   19.8340 C   0  0  2  0  0  0
  -28.6713  -13.2012   20.9701 C   0  0  0  0  0  0
  -25.2456  -13.8181   20.5683 C   0  0  0  0  0  0
  -24.1782  -13.0439   20.9243 C   0  0  0  0  0  0
  -24.6376  -11.6915   20.8746 C   0  0  0  0  0  0
  -23.9054  -10.4290   21.0402 C   0  0  0  0  0  0
  -24.3623   -9.4212   21.9176 C   0  0  0  0  0  0
  -23.6311   -8.2237   22.0735 C   0  0  0  0  0  0
  -22.4286   -8.0271   21.3525 C   0  0  0  0  0  0
  -21.9923   -9.0243   20.4632 C   0  0  0  0  0  0
  -22.7234  -10.2122   20.3050 C   0  0  0  0  0  0
  -21.6857   -6.0747   22.5279 C   0  0  0  0  0  0
  -21.4010   -6.5647   23.8221 C   0  0  0  0  0  0
  -21.3650   -5.6798   24.9184 C   0  0  0  0  0  0
  -21.6049   -4.3066   24.7237 C   0  0  0  0  0  0
  -21.8821   -3.8159   23.4358 C   0  0  0  0  0  0
  -21.9202   -4.6977   22.3419 C   0  0  0  0  0  0
  -22.7811  -13.5206   21.1890 C   0  0  0  0  0  0
  -22.1673   -4.2158   21.0994 F   0  0  0  0  0  0
  -21.5625   -3.4551   25.7747 F   0  0  0  0  0  0
  -29.9532  -13.5800   20.3703 N   0  0  0  0  0  0
  -26.2849  -12.9386   20.3212 N   0  0  0  0  0  0
  -25.9290  -11.6531   20.5726 N   0  0  0  0  0  0
  -22.0474  -12.8186   22.0442 N   0  0  0  0  0  0
  -25.4164  -15.1917   20.4087 N   0  0  0  0  0  0
  -31.7646  -14.8693   20.1363 O   0  0  0  0  0  0
  -21.6636   -6.8871   21.4235 O   0  0  0  0  0  0
  -22.3499  -14.5526   20.6756 O   0  0  0  0  0  0
  -24.6369  -31.8516   23.1886 C   0  0  0  0  0  0
  -25.9180  -32.4741   23.8283 C   0  0  1  0  0  0
  -27.2362  -27.2443   20.1094 C   0  0  0  0  0  0
  -25.5936  -33.8531   24.2205 N   0  0  0  0  0  0
  -23.4343  -30.4677   21.5329 C   0  0  2  0  0  0
  -24.8841  -28.9049   20.1055 C   0  0  0  0  0  0
  -22.7549  -29.4582   22.4896 C   0  0  0  0  0  0
  -18.0294  -28.1398   22.8524 C   0  0  0  0  0  0
  -24.1485  -36.7229   23.2638 C   0  0  0  0  0  0
  -25.9800  -30.7608   21.3682 C   0  0  0  0  0  0
  -26.0563  -29.3814   20.7058 C   0  0  0  0  0  0
  -27.2334  -28.5639   20.6930 C   0  0  0  0  0  0
  -26.0411  -26.8388   19.4791 C   0  0  0  0  0  0
  -24.8840  -27.6447   19.4804 C   0  0  0  0  0  0
  -23.6529  -29.7910   20.1540 C   0  0  0  0  0  0
  -25.4119  -36.3044   24.0334 C   0  0  1  0  0  0
  -20.5900  -28.3708   23.1279 C   0  0  2  0  0  0
  -20.6757  -26.9433   22.5404 C   0  0  0  0  0  0
  -19.5703  -26.6403   21.5216 C   0  0  0  0  0  0
  -18.1916  -26.7946   22.1654 C   0  0  0  0  0  0
  -19.1550  -28.8878   23.2884 C   0  0  0  0  0  0
  -18.9474  -30.1488   23.8884 C   0  0  0  0  0  0
  -17.6465  -30.6597   24.0583 C   0  0  0  0  0  0
  -25.9056  -34.9419   23.5051 C   0  0  0  0  0  0
  -16.5354  -29.9083   23.6347 C   0  0  0  0  0  0
  -16.7282  -28.6501   23.0371 C   0  0  0  0  0  0
  -26.4522  -31.6576   25.0694 C   0  0  0  0  0  0
  -25.3731  -31.3776   26.1408 C   0  0  0  0  0  0
  -27.0368  -30.2983   24.6211 C   0  0  0  0  0  0
  -27.6092  -32.4315   25.7444 C   0  0  0  0  0  0
  -27.5579  -37.1770   24.8486 C   0  0  0  0  0  0
  -21.4249  -29.3022   22.3657 N   0  0  0  0  0  0
  -26.4280  -37.3769   23.9459 N   0  0  0  0  0  0
  -24.7018  -31.0469   22.0854 N   0  0  0  0  0  0
  -23.4240  -28.8123   23.3011 O   0  0  0  0  0  0
  -28.3259  -26.3445   20.2334 O   0  0  0  0  0  0
  -26.5659  -34.8927   22.4647 O   0  0  0  0  0  0
  -23.5519  -32.1297   23.7197 O   0  0  0  0  0  0
  -30.9979  -20.2375   20.3835 C   0  0  0  0  0  0
  -31.4807  -17.8303   20.5565 C   0  0  0  0  0  0
  -29.1890  -18.6037   20.3227 C   0  0  0  0  0  0
  -31.9077  -19.1708   20.5191 C   0  0  0  0  0  0
  -29.6078  -20.0186   20.2779 C   0  0  0  0  0  0
  -30.1201  -17.4604   20.4432 C   0  0  0  0  0  0
  -28.4403  -25.0326   19.6559 C   0  0  0  0  0  0
  -33.3292  -19.4652   20.6006 C   0  0  0  0  0  0
  -28.5498  -23.7979   20.3065 C   0  0  0  0  0  0
  -28.9832  -22.4925   19.6408 C   0  0  0  0  0  0
  -33.7938  -20.2794   21.5414 N   0  0  0  0  0  0
  -28.7639  -21.2663   20.2811 N   0  0  0  0  0  0
  -29.7718  -15.9869   20.5047 N   0  0  0  0  0  0
  -34.1622  -18.9290   19.7095 N   0  3  0  0  0  0
  -29.5645  -22.4886   18.5512 O   0  0  0  0  0  0
  -28.3459  -23.7611   21.6312 O   0  0  0  0  0  0
  -31.4611  -12.6270   19.1632 H   0  0  0  0  0  0
  -30.3736  -11.5319   19.9716 H   0  0  0  0  0  0
  -29.7928  -11.7222   17.5276 H   0  0  0  0  0  0
  -29.6200  -13.4523   17.6914 H   0  0  0  0  0  0
  -27.8851  -11.2811   18.9042 H   0  0  0  0  0  0
  -27.3718  -12.5170   17.7863 H   0  0  0  0  0  0
  -27.6070  -14.2513   19.4324 H   0  0  0  0  0  0
  -28.7327  -12.2084   21.4159 H   0  0  0  0  0  0
  -28.3981  -13.8888   21.7725 H   0  0  0  0  0  0
  -25.2769   -9.5691   22.4740 H   0  0  0  0  0  0
  -24.0046   -7.4618   22.7432 H   0  0  0  0  0  0
  -21.0876   -8.8737   19.8937 H   0  0  0  0  0  0
  -22.3690  -10.9650   19.6159 H   0  0  0  0  0  0
  -21.1983   -7.6151   23.9720 H   0  0  0  0  0  0
  -21.1471   -6.0535   25.9086 H   0  0  0  0  0  0
  -22.0609   -2.7617   23.2866 H   0  0  0  0  0  0
  -22.4103  -11.9834   22.4789 H   0  0  0  0  0  0
  -21.1091  -13.1182   22.2658 H   0  0  0  0  0  0
  -24.6386  -15.8394   20.4927 H   0  0  0  0  0  0
  -26.2457  -15.6225   20.0203 H   0  0  0  0  0  0
  -26.7261  -32.5393   23.1039 H   0  0  0  0  0  0
  -25.0134  -33.9630   25.0381 H   0  0  0  0  0  0
  -22.7293  -31.2888   21.3835 H   0  0  0  0  0  0
  -23.3755  -35.9551   23.3312 H   0  0  0  0  0  0
  -24.3544  -36.8829   22.2054 H   0  0  0  0  0  0
  -23.7221  -37.6428   23.6642 H   0  0  0  0  0  0
  -26.1313  -31.5282   20.6052 H   0  0  0  0  0  0
  -26.8531  -30.8027   22.0118 H   0  0  0  0  0  0
  -28.1333  -28.9282   21.1678 H   0  0  0  0  0  0
  -25.9841  -25.8649   19.0161 H   0  0  0  0  0  0
  -23.9868  -27.2757   19.0058 H   0  0  0  0  0  0
  -23.7795  -30.5593   19.3876 H   0  0  0  0  0  0
  -22.7713  -29.2180   19.8605 H   0  0  0  0  0  0
  -25.1300  -36.1860   25.0832 H   0  0  0  0  0  0
  -21.0021  -28.3275   24.1380 H   0  0  0  0  0  0
  -20.5631  -26.2324   23.3598 H   0  0  0  0  0  0
  -21.6635  -26.7407   22.1203 H   0  0  0  0  0  0
  -19.6826  -25.6289   21.1257 H   0  0  0  0  0  0
  -19.6610  -27.3211   20.6745 H   0  0  0  0  0  0
  -17.4164  -26.6734   21.4075 H   0  0  0  0  0  0
  -18.0293  -26.0067   22.9035 H   0  0  0  0  0  0
  -19.7932  -30.7354   24.2207 H   0  0  0  0  0  0
  -17.4988  -31.6266   24.5214 H   0  0  0  0  0  0
  -15.5340  -30.2985   23.7632 H   0  0  0  0  0  0
  -15.8694  -28.0812   22.7075 H   0  0  0  0  0  0
  -24.5814  -30.7241   25.7710 H   0  0  0  0  0  0
  -24.9025  -32.2986   26.4882 H   0  0  0  0  0  0
  -25.7994  -30.8866   27.0160 H   0  0  0  0  0  0
  -26.2959  -29.6696   24.1255 H   0  0  0  0  0  0
  -27.4059  -29.7296   25.4751 H   0  0  0  0  0  0
  -27.8843  -30.4234   23.9461 H   0  0  0  0  0  0
  -27.2746  -33.3671   26.1942 H   0  0  0  0  0  0
  -28.3937  -32.6771   25.0266 H   0  0  0  0  0  0
  -28.0724  -31.8472   26.5407 H   0  0  0  0  0  0
  -28.2606  -38.0057   24.7556 H   0  0  0  0  0  0
  -28.1049  -36.2589   24.6271 H   0  0  0  0  0  0
  -27.2293  -37.1411   25.8882 H   0  0  0  0  0  0
  -20.9429  -29.8748   21.6872 H   0  0  0  0  0  0
  -26.0123  -38.2834   24.1441 H   0  0  0  0  0  0
  -31.3876  -21.2481   20.3790 H   0  0  0  0  0  0
  -32.2459  -17.0862   20.7051 H   0  0  0  0  0  0
  -28.1293  -18.3997   20.2697 H   0  0  0  0  0  0
  -28.5335  -25.1094   18.5800 H   0  0  0  0  0  0
  -33.1878  -20.5189   22.3161 H   0  0  0  0  0  0
  -34.7600  -20.5561   21.6043 H   0  0  0  0  0  0
  -27.9694  -21.2432   20.9028 H   0  0  0  0  0  0
  -28.7888  -15.7956   20.6152 H   0  0  0  0  0  0
  -33.7786  -18.3119   19.0069 H   0  0  0  0  0  0
  -35.1187  -19.2272   19.6013 H   0  0  0  0  0  0
  -28.5597  -22.8832   21.9180 H   0  0  0  0  0  0
  1 25  1  0  0  0
  1 30  2  0  0  0
  1 83  1  0  0  0
  2  3  1  0  0  0
  2 25  1  0  0  0
  2 87  1  0  0  0
  2 88  1  0  0  0
  3  4  1  0  0  0
  3 89  1  0  0  0
  3 90  1  0  0  0
  4  5  1  0  0  0
  4 91  1  0  0  0
  4 92  1  0  0  0
  5  6  1  0  0  0
  5 26  1  0  0  0
  5 93  1  0  0  0
  6 25  1  0  0  0
  6 94  1  0  0  0
  6 95  1  0  0  0
  7  8  2  0  0  0
  7 26  1  0  0  0
  7 29  1  0  0  0
  8  9  1  0  0  0
  8 22  1  0  0  0
  9 10  1  0  0  0
  9 27  2  0  0  0
 10 11  2  0  0  0
 10 15  1  0  0  0
 11 12  1  0  0  0
 11 96  1  0  0  0
 12 13  2  0  0  0
 12 97  1  0  0  0
 13 14  1  0  0  0
 13 31  1  0  0  0
 14 15  2  0  0  0
 14 98  1  0  0  0
 15 99  1  0  0  0
 16 17  2  0  0  0
 16 21  1  0  0  0
 16 31  1  0  0  0
 17 18  1  0  0  0
 17100  1  0  0  0
 18 19  2  0  0  0
 18101  1  0  0  0
 19 20  1  0  0  0
 19 24  1  0  0  0
 20 21  2  0  0  0
 20102  1  0  0  0
 21 23  1  0  0  0
 22 28  1  0  0  0
 22 32  2  0  0  0
 26 27  1  0  0  0
 28103  1  0  0  0
 28104  1  0  0  0
 29105  1  0  0  0
 29106  1  0  0  0
 33 34  1  0  0  0
 33 66  1  0  0  0
 33 70  2  0  0  0
 34 36  1  0  0  0
 34 59  1  0  0  0
 34107  1  0  0  0
 35 44  2  0  0  0
 35 45  1  0  0  0
 35 68  1  0  0  0
 36 56  1  0  0  0
 36108  1  0  0  0
 37 39  1  0  0  0
 37 47  1  0  0  0
 37 66  1  0  0  0
 37109  1  0  0  0
 38 43  2  0  0  0
 38 46  1  0  0  0
 38 47  1  0  0  0
 39 64  1  0  0  0
 39 67  2  0  0  0
 40 52  1  0  0  0
 40 53  2  0  0  0
 40 58  1  0  0  0
 41110  1  0  0  0
 41111  1  0  0  0
 41112  1  0  0  0
 41 48  1  0  0  0
 42 43  1  0  0  0
 42 66  1  0  0  0
 42113  1  0  0  0
 42114  1  0  0  0
 43 44  1  0  0  0
 44115  1  0  0  0
 45 46  2  0  0  0
 45116  1  0  0  0
 46117  1  0  0  0
 47118  1  0  0  0
 47119  1  0  0  0
 48 56  1  0  0  0
 48 65  1  0  0  0
 48120  1  0  0  0
 49 50  1  0  0  0
 49 53  1  0  0  0
 49 64  1  0  0  0
 49121  1  0  0  0
 50 51  1  0  0  0
 50122  1  0  0  0
 50123  1  0  0  0
 51 52  1  0  0  0
 51124  1  0  0  0
 51125  1  0  0  0
 52126  1  0  0  0
 52127  1  0  0  0
 53 54  1  0  0  0
 54 55  2  0  0  0
 54128  1  0  0  0
 55 57  1  0  0  0
 55129  1  0  0  0
 56 69  2  0  0  0
 57 58  2  0  0  0
 57130  1  0  0  0
 58131  1  0  0  0
 59 60  1  0  0  0
 59 61  1  0  0  0
 59 62  1  0  0  0
 60132  1  0  0  0
 60133  1  0  0  0
 60134  1  0  0  0
 61135  1  0  0  0
 61136  1  0  0  0
 61137  1  0  0  0
 62138  1  0  0  0
 62139  1  0  0  0
 62140  1  0  0  0
 63 65  1  0  0  0
 63141  1  0  0  0
 63142  1  0  0  0
 63143  1  0  0  0
 64144  1  0  0  0
 65145  1  0  0  0
 68 77  1  0  0  0
 71 74  2  0  0  0
 71 75  1  0  0  0
 71146  1  0  0  0
 72 74  1  0  0  0
 72 76  2  0  0  0
 72147  1  0  0  0
 73 75  2  0  0  0
 73 76  1  0  0  0
 73148  1  0  0  0
 74 78  1  0  0  0
 75 82  1  0  0  0
 76 83  1  0  0  0
 77 79  2  0  0  0
 77149  1  0  0  0
 78 81  1  0  0  0
 78 84  2  0  0  0
 79 80  1  0  0  0
 79 86  1  0  0  0
 80 82  1  0  0  0
 80 85  2  0  0  0
 81150  1  0  0  0
 81151  1  0  0  0
 82152  1  0  0  0
 83153  1  0  0  0
 84154  1  0  0  0
 84155  1  0  0  0
 86156  1  0  0  0
M  CHG  1  84   1
M  ISO  4   1 100  68 101  77 101  83 100
M  END
> <chiral flag>
0

> <version>
0

> <s_m_source_file>
/data/baiqing/PycharmProjects/Reinvent-master-3.2/result/LINK_invent/BTK/process_docking_weight1_custom_product_contain_oxygen_bond_distance_aromatic_linkinvent_7_9_3/rearranged_h_0158.sdf

> <i_m_source_file_index>
27

> <r_mmod_Potential_Energy-OPLS-2005>
-88.2213439941406

> <r_mmod_Stretch_Energy-OPLS-2005>
158.675659179688

> <r_mmod_Bend_Energy-OPLS-2005>
181.153671264648

> <r_mmod_Torsional_Energy-OPLS-2005>
279.025970458984

> <r_mmod_Improper_Torsional_Energy-OPLS-2005>
8.81333255767822

> <r_mmod_Van_der_Waal_Energy-OPLS-2005>
143.14421081543

> <r_mmod_Electrostatic_Energy-OPLS-2005>
-492.522674560547

> <r_mmod_Solvation_Energy-OPLS-2005>
-479.509002685547

> <b_mmod_Minimization_Converged-OPLS-2005>
0

> <r_mmod_RMS_Derivative-OPLS-2005>
6.10897397994995

$$$$
27
                    3D
 Structure written by MMmdl.
159168  0  0  1  0            999 V2000
  -30.4977  -14.9315   20.4403 C   0  0  0  0  0  0
  -30.4554  -12.5745   19.4912 C   0  0  0  0  0  0
  -29.5283  -12.5320   18.2526 C   0  0  0  0  0  0
  -28.0575  -12.3203   18.6661 C   0  0  0  0  0  0
  -27.6378  -13.2359   19.8450 C   0  0  2  0  0  0
  -28.6817  -13.2168   20.9825 C   0  0  0  0  0  0
  -25.2497  -13.8183   20.5687 C   0  0  0  0  0  0
  -24.1800  -13.0432   20.9235 C   0  0  0  0  0  0
  -24.6398  -11.6909   20.8749 C   0  0  0  0  0  0
  -23.9070  -10.4290   21.0407 C   0  0  0  0  0  0
  -24.3618   -9.4207   21.9185 C   0  0  0  0  0  0
  -23.6295   -8.2239   22.0749 C   0  0  0  0  0  0
  -22.4272   -8.0279   21.3548 C   0  0  0  0  0  0
  -21.9915   -9.0249   20.4644 C   0  0  0  0  0  0
  -22.7241  -10.2130   20.3058 C   0  0  0  0  0  0
  -21.6856   -6.0734   22.5278 C   0  0  0  0  0  0
  -21.4014   -6.5638   23.8211 C   0  0  0  0  0  0
  -21.3657   -5.6788   24.9177 C   0  0  0  0  0  0
  -21.6046   -4.3050   24.7227 C   0  0  0  0  0  0
  -21.8818   -3.8146   23.4345 C   0  0  0  0  0  0
  -21.9195   -4.6963   22.3406 C   0  0  0  0  0  0
  -22.7823  -13.5218   21.1884 C   0  0  0  0  0  0
  -22.1664   -4.2145   21.0981 F   0  0  0  0  0  0
  -21.5628   -3.4534   25.7743 F   0  0  0  0  0  0
  -29.9615  -13.6462   20.3998 N   0  0  0  0  0  0
  -26.2919  -12.9390   20.3240 N   0  0  0  0  0  0
  -25.9327  -11.6530   20.5726 N   0  0  0  0  0  0
  -22.0466  -12.8204   22.0430 N   0  0  0  0  0  0
  -25.4166  -15.1908   20.4063 N   0  0  0  0  0  0
  -31.6876  -15.0734   20.1342 O   0  0  0  0  0  0
  -21.6638   -6.8874   21.4240 O   0  0  0  0  0  0
  -22.3516  -14.5523   20.6724 O   0  0  0  0  0  0
  -24.6432  -31.8456   23.1885 C   0  0  0  0  0  0
  -25.9199  -32.4702   23.8289 C   0  0  1  0  0  0
  -27.2151  -27.1311   20.1802 C   0  0  0  0  0  0
  -25.5947  -33.8509   24.2204 N   0  0  0  0  0  0
  -23.4483  -30.4649   21.5328 C   0  0  2  0  0  0
  -24.9014  -28.8857   20.1186 C   0  0  0  0  0  0
  -22.7571  -29.4564   22.4856 C   0  0  0  0  0  0
  -18.0315  -28.1415   22.8491 C   0  0  0  0  0  0
  -24.1479  -36.7253   23.2640 C   0  0  0  0  0  0
  -26.0032  -30.7180   21.3896 C   0  0  0  0  0  0
  -26.0756  -29.3241   20.7431 C   0  0  0  0  0  0
  -27.2368  -28.4622   20.7600 C   0  0  0  0  0  0
  -26.0246  -26.8021   19.5000 C   0  0  0  0  0  0
  -24.8868  -27.6364   19.4814 C   0  0  0  0  0  0
  -23.6797  -29.7914   20.1537 C   0  0  0  0  0  0
  -25.4112  -36.3036   24.0323 C   0  0  1  0  0  0
  -20.5926  -28.3728   23.1249 C   0  0  2  0  0  0
  -20.6787  -26.9434   22.5412 C   0  0  0  0  0  0
  -19.5755  -26.6404   21.5226 C   0  0  0  0  0  0
  -18.1943  -26.7954   22.1644 C   0  0  0  0  0  0
  -19.1571  -28.8898   23.2861 C   0  0  0  0  0  0
  -18.9487  -30.1496   23.8883 C   0  0  0  0  0  0
  -17.6482  -30.6603   24.0584 C   0  0  0  0  0  0
  -25.9064  -34.9410   23.5069 C   0  0  0  0  0  0
  -16.5380  -29.9098   23.6343 C   0  0  0  0  0  0
  -16.7306  -28.6525   23.0360 C   0  0  0  0  0  0
  -26.4516  -31.6565   25.0716 C   0  0  0  0  0  0
  -25.3701  -31.3765   26.1410 C   0  0  0  0  0  0
  -27.0384  -30.2971   24.6275 C   0  0  0  0  0  0
  -27.6046  -32.4329   25.7502 C   0  0  0  0  0  0
  -27.5575  -37.1793   24.8466 C   0  0  0  0  0  0
  -21.4266  -29.3056   22.3613 N   0  0  0  0  0  0
  -26.4273  -37.3756   23.9425 N   0  0  0  0  0  0
  -24.7177  -31.0321   22.0910 N   0  0  0  0  0  0
  -23.4219  -28.8120   23.3006 O   0  0  0  0  0  0
  -28.2647  -26.1416   20.1533 O   0  0  0  0  0  0
  -26.5662  -34.8904   22.4651 O   0  0  0  0  0  0
  -23.5556  -32.1321   23.7116 O   0  0  0  0  0  0
  -27.9575  -19.5763   20.8043 C   0  0  0  0  0  0
  -28.2222  -18.1560   20.7718 C   0  0  0  0  0  0
  -30.5099  -18.5764   20.4305 C   0  0  0  0  0  0
  -28.9399  -20.6162   20.6818 C   0  0  0  0  0  0
  -29.5084  -17.5479   20.6019 C   0  0  0  0  0  0
  -30.2456  -20.0255   20.4721 C   0  0  0  0  0  0
  -26.6570  -23.1729   22.2383 C   0  0  0  0  0  0
  -28.7861  -23.3415   20.3235 C   0  0  0  0  0  0
  -26.8683  -24.5727   21.6503 C   0  0  0  0  0  0
  -27.8671  -22.2280   22.2903 C   0  0  0  0  0  0
  -28.2453  -24.8005   20.9589 C   0  0  2  0  0  0
  -29.2956  -25.2230   22.0126 C   0  0  0  0  0  0
  -28.5725  -22.0911   20.9943 N   0  0  0  0  0  0
  -31.3320  -20.8908   20.3596 N   0  0  0  0  0  0
  -29.6025  -16.0113   20.6562 N   0  0  0  0  0  0
  -25.5523  -22.8222   22.6628 O   0  0  0  0  0  0
  -29.3796  -23.3719   19.2432 O   0  0  0  0  0  0
  -31.4856  -12.7551   19.1803 H   0  0  0  0  0  0
  -30.4629  -11.6114   20.0043 H   0  0  0  0  0  0
  -29.8429  -11.7408   17.5714 H   0  0  0  0  0  0
  -29.6193  -13.4659   17.6968 H   0  0  0  0  0  0
  -27.9426  -11.2754   18.9562 H   0  0  0  0  0  0
  -27.3967  -12.4729   17.8118 H   0  0  0  0  0  0
  -27.6137  -14.2468   19.4374 H   0  0  0  0  0  0
  -28.7655  -12.2194   21.4166 H   0  0  0  0  0  0
  -28.3815  -13.8776   21.7977 H   0  0  0  0  0  0
  -25.2764   -9.5682   22.4757 H   0  0  0  0  0  0
  -24.0006   -7.4631   22.7467 H   0  0  0  0  0  0
  -21.0847   -8.8772   19.8948 H   0  0  0  0  0  0
  -22.3703  -10.9669   19.6162 H   0  0  0  0  0  0
  -21.2005   -7.6144   23.9716 H   0  0  0  0  0  0
  -21.1479   -6.0517   25.9076 H   0  0  0  0  0  0
  -22.0599   -2.7607   23.2850 H   0  0  0  0  0  0
  -22.4089  -11.9870   22.4827 H   0  0  0  0  0  0
  -21.1081  -13.1215   22.2624 H   0  0  0  0  0  0
  -24.6337  -15.8295   20.4954 H   0  0  0  0  0  0
  -26.2245  -15.6147   19.9702 H   0  0  0  0  0  0
  -26.7261  -32.5335   23.1023 H   0  0  0  0  0  0
  -25.0060  -33.9602   25.0329 H   0  0  0  0  0  0
  -22.7500  -31.2902   21.3758 H   0  0  0  0  0  0
  -23.3742  -35.9584   23.3302 H   0  0  0  0  0  0
  -24.3566  -36.8883   22.2053 H   0  0  0  0  0  0
  -23.7228  -37.6448   23.6676 H   0  0  0  0  0  0
  -26.1565  -31.4648   20.6105 H   0  0  0  0  0  0
  -26.8736  -30.7781   22.0294 H   0  0  0  0  0  0
  -28.1356  -28.7999   21.2574 H   0  0  0  0  0  0
  -25.9617  -25.8505   18.9912 H   0  0  0  0  0  0
  -23.9946  -27.3004   18.9711 H   0  0  0  0  0  0
  -23.8257  -30.5613   19.3942 H   0  0  0  0  0  0
  -22.7930  -29.2379   19.8385 H   0  0  0  0  0  0
  -25.1304  -36.1861   25.0818 H   0  0  0  0  0  0
  -21.0049  -28.3315   24.1361 H   0  0  0  0  0  0
  -20.5672  -26.2352   23.3629 H   0  0  0  0  0  0
  -21.6656  -26.7427   22.1228 H   0  0  0  0  0  0
  -19.6890  -25.6308   21.1272 H   0  0  0  0  0  0
  -19.6684  -27.3198   20.6740 H   0  0  0  0  0  0
  -17.4218  -26.6730   21.4040 H   0  0  0  0  0  0
  -18.0332  -26.0090   22.9033 H   0  0  0  0  0  0
  -19.7959  -30.7333   24.2237 H   0  0  0  0  0  0
  -17.5029  -31.6274   24.5201 H   0  0  0  0  0  0
  -15.5377  -30.3005   23.7650 H   0  0  0  0  0  0
  -15.8712  -28.0839   22.7074 H   0  0  0  0  0  0
  -24.5861  -30.7120   25.7747 H   0  0  0  0  0  0
  -24.8892  -32.2947   26.4795 H   0  0  0  0  0  0
  -25.7984  -30.8967   27.0217 H   0  0  0  0  0  0
  -26.2995  -29.6703   24.1256 H   0  0  0  0  0  0
  -27.3979  -29.7262   25.4848 H   0  0  0  0  0  0
  -27.8920  -30.4224   23.9607 H   0  0  0  0  0  0
  -27.2635  -33.3640   26.2049 H   0  0  0  0  0  0
  -28.3884  -32.6888   25.0354 H   0  0  0  0  0  0
  -28.0680  -31.8466   26.5442 H   0  0  0  0  0  0
  -28.2607  -38.0080   24.7539 H   0  0  0  0  0  0
  -28.1069  -36.2628   24.6278 H   0  0  0  0  0  0
  -27.2308  -37.1426   25.8869 H   0  0  0  0  0  0
  -20.9471  -29.8787   21.6811 H   0  0  0  0  0  0
  -26.0138  -38.2827   24.1419 H   0  0  0  0  0  0
  -26.9305  -19.8696   20.9760 H   0  0  0  0  0  0
  -27.3715  -17.5041   20.9137 H   0  0  0  0  0  0
  -31.5286  -18.2434   20.2942 H   0  0  0  0  0  0
  -26.7129  -25.3082   22.4382 H   0  0  0  0  0  0
  -26.0630  -24.7058   20.9336 H   0  0  0  0  0  0
  -27.5193  -21.2719   22.6782 H   0  0  0  0  0  0
  -28.5666  -22.5709   23.0498 H   0  0  0  0  0  0
  -29.4245  -24.5085   22.8213 H   0  0  0  0  0  0
  -29.0279  -26.1721   22.4777 H   0  0  0  0  0  0
  -30.2743  -25.3563   21.5506 H   0  0  0  0  0  0
  -32.1810  -20.5264   19.9405 H   0  0  0  0  0  0
  -31.1328  -21.8398   20.0583 H   0  0  0  0  0  0
  -28.7037  -15.6086   20.8712 H   0  0  0  0  0  0
  1 25  1  0  0  0
  1 30  2  0  0  0
  1 85  1  0  0  0
  2  3  1  0  0  0
  2 25  1  0  0  0
  2 88  1  0  0  0
  2 89  1  0  0  0
  3  4  1  0  0  0
  3 90  1  0  0  0
  3 91  1  0  0  0
  4  5  1  0  0  0
  4 92  1  0  0  0
  4 93  1  0  0  0
  5  6  1  0  0  0
  5 26  1  0  0  0
  5 94  1  0  0  0
  6 25  1  0  0  0
  6 95  1  0  0  0
  6 96  1  0  0  0
  7  8  2  0  0  0
  7 26  1  0  0  0
  7 29  1  0  0  0
  8  9  1  0  0  0
  8 22  1  0  0  0
  9 10  1  0  0  0
  9 27  2  0  0  0
 10 11  2  0  0  0
 10 15  1  0  0  0
 11 12  1  0  0  0
 11 97  1  0  0  0
 12 13  2  0  0  0
 12 98  1  0  0  0
 13 14  1  0  0  0
 13 31  1  0  0  0
 14 15  2  0  0  0
 14 99  1  0  0  0
 15100  1  0  0  0
 16 17  2  0  0  0
 16 21  1  0  0  0
 16 31  1  0  0  0
 17 18  1  0  0  0
 17101  1  0  0  0
 18 19  2  0  0  0
 18102  1  0  0  0
 19 20  1  0  0  0
 19 24  1  0  0  0
 20 21  2  0  0  0
 20103  1  0  0  0
 21 23  1  0  0  0
 22 28  1  0  0  0
 22 32  2  0  0  0
 26 27  1  0  0  0
 28104  1  0  0  0
 28105  1  0  0  0
 29106  1  0  0  0
 29107  1  0  0  0
 33 34  1  0  0  0
 33 66  1  0  0  0
 33 70  2  0  0  0
 34 36  1  0  0  0
 34 59  1  0  0  0
 34108  1  0  0  0
 35 44  2  0  0  0
 35 45  1  0  0  0
 35 68  1  0  0  0
 36 56  1  0  0  0
 36109  1  0  0  0
 37 39  1  0  0  0
 37 47  1  0  0  0
 37 66  1  0  0  0
 37110  1  0  0  0
 38 43  2  0  0  0
 38 46  1  0  0  0
 38 47  1  0  0  0
 39 64  1  0  0  0
 39 67  2  0  0  0
 40 52  1  0  0  0
 40 53  2  0  0  0
 40 58  1  0  0  0
 41111  1  0  0  0
 41112  1  0  0  0
 41113  1  0  0  0
 41 48  1  0  0  0
 42 43  1  0  0  0
 42 66  1  0  0  0
 42114  1  0  0  0
 42115  1  0  0  0
 43 44  1  0  0  0
 44116  1  0  0  0
 45 46  2  0  0  0
 45117  1  0  0  0
 46118  1  0  0  0
 47119  1  0  0  0
 47120  1  0  0  0
 48 56  1  0  0  0
 48 65  1  0  0  0
 48121  1  0  0  0
 49 50  1  0  0  0
 49 53  1  0  0  0
 49 64  1  0  0  0
 49122  1  0  0  0
 50 51  1  0  0  0
 50123  1  0  0  0
 50124  1  0  0  0
 51 52  1  0  0  0
 51125  1  0  0  0
 51126  1  0  0  0
 52127  1  0  0  0
 52128  1  0  0  0
 53 54  1  0  0  0
 54 55  2  0  0  0
 54129  1  0  0  0
 55 57  1  0  0  0
 55130  1  0  0  0
 56 69  2  0  0  0
 57 58  2  0  0  0
 57131  1  0  0  0
 58132  1  0  0  0
 59 60  1  0  0  0
 59 61  1  0  0  0
 59 62  1  0  0  0
 60133  1  0  0  0
 60134  1  0  0  0
 60135  1  0  0  0
 61136  1  0  0  0
 61137  1  0  0  0
 61138  1  0  0  0
 62139  1  0  0  0
 62140  1  0  0  0
 62141  1  0  0  0
 63 65  1  0  0  0
 63142  1  0  0  0
 63143  1  0  0  0
 63144  1  0  0  0
 64145  1  0  0  0
 65146  1  0  0  0
 68 81  1  0  0  0
 71 72  2  0  0  0
 71 74  1  0  0  0
 71147  1  0  0  0
 72 75  1  0  0  0
 72148  1  0  0  0
 73 75  2  0  0  0
 73 76  1  0  0  0
 73149  1  0  0  0
 74 76  2  0  0  0
 74 83  1  0  0  0
 75 85  1  0  0  0
 76 84  1  0  0  0
 77 79  1  0  0  0
 77 80  1  0  0  0
 77 86  2  0  0  0
 78 81  1  0  0  0
 78 83  1  0  0  0
 78 87  2  0  0  0
 79 81  1  0  0  0
 79150  1  0  0  0
 79151  1  0  0  0
 80 83  1  0  0  0
 80152  1  0  0  0
 80153  1  0  0  0
 81 82  1  0  0  0
 82154  1  0  0  0
 82155  1  0  0  0
 82156  1  0  0  0
 84157  1  0  0  0
 84158  1  0  0  0
 85159  1  0  0  0
M  ISO  4   1 100  68 101  81 101  85 100
M  END
> <chiral flag>
0

> <version>
0

> <s_m_source_file>
/data/baiqing/PycharmProjects/Reinvent-master-3.2/result/LINK_invent/BTK/process_docking_weight1_custom_product_contain_oxygen_bond_distance_aromatic_linkinvent_7_9_3/rearranged_h_0158.sdf

> <i_m_source_file_index>
28

> <r_mmod_Potential_Energy-OPLS-2005>
553.385803222656

> <r_mmod_Stretch_Energy-OPLS-2005>
253.488540649414

> <r_mmod_Bend_Energy-OPLS-2005>
289.9658203125

> <r_mmod_Torsional_Energy-OPLS-2005>
316.987030029297

> <r_mmod_Improper_Torsional_Energy-OPLS-2005>
9.78662204742432

> <r_mmod_Van_der_Waal_Energy-OPLS-2005>
146.302581787109

> <r_mmod_Electrostatic_Energy-OPLS-2005>
-402.502136230469

> <r_mmod_Solvation_Energy-OPLS-2005>
-248.343566894531

> <b_mmod_Minimization_Converged-OPLS-2005>
0

> <r_mmod_RMS_Derivative-OPLS-2005>
2.25721502304077

$$$$
28
                    3D
 Structure written by MMmdl.
166175  0  0  1  0            999 V2000
  -30.5843  -14.8027   20.4512 C   0  0  0  0  0  0
  -30.4407  -12.4915   19.4801 C   0  0  0  0  0  0
  -29.5152  -12.5085   18.2422 C   0  0  0  0  0  0
  -28.0435  -12.3198   18.6586 C   0  0  0  0  0  0
  -27.6399  -13.2321   19.8472 C   0  0  2  0  0  0
  -28.6848  -13.1894   20.9837 C   0  0  0  0  0  0
  -25.2507  -13.8194   20.5695 C   0  0  0  0  0  0
  -24.1805  -13.0441   20.9217 C   0  0  0  0  0  0
  -24.6391  -11.6915   20.8750 C   0  0  0  0  0  0
  -23.9070  -10.4293   21.0408 C   0  0  0  0  0  0
  -24.3621   -9.4207   21.9185 C   0  0  0  0  0  0
  -23.6297   -8.2242   22.0752 C   0  0  0  0  0  0
  -22.4278   -8.0278   21.3541 C   0  0  0  0  0  0
  -21.9912   -9.0255   20.4646 C   0  0  0  0  0  0
  -22.7241  -10.2136   20.3057 C   0  0  0  0  0  0
  -21.6851   -6.0735   22.5281 C   0  0  0  0  0  0
  -21.4014   -6.5641   23.8215 C   0  0  0  0  0  0
  -21.3661   -5.6793   24.9177 C   0  0  0  0  0  0
  -21.6043   -4.3057   24.7227 C   0  0  0  0  0  0
  -21.8820   -3.8147   23.4349 C   0  0  0  0  0  0
  -21.9194   -4.6964   22.3405 C   0  0  0  0  0  0
  -22.7826  -13.5222   21.1876 C   0  0  0  0  0  0
  -22.1663   -4.2148   21.0982 F   0  0  0  0  0  0
  -21.5628   -3.4541   25.7739 F   0  0  0  0  0  0
  -29.9794  -13.5615   20.3984 N   0  0  0  0  0  0
  -26.2928  -12.9397   20.3267 N   0  0  0  0  0  0
  -25.9323  -11.6543   20.5752 N   0  0  0  0  0  0
  -22.0473  -12.8209   22.0430 N   0  0  0  0  0  0
  -25.4188  -15.1922   20.4108 N   0  0  0  0  0  0
  -31.7796  -14.8973   20.1540 O   0  0  0  0  0  0
  -21.6642   -6.8876   21.4239 O   0  0  0  0  0  0
  -22.3512  -14.5524   20.6721 O   0  0  0  0  0  0
  -24.6346  -31.8524   23.1960 C   0  0  0  0  0  0
  -25.9162  -32.4736   23.8320 C   0  0  1  0  0  0
  -27.2208  -27.2254   20.1415 C   0  0  0  0  0  0
  -25.5948  -33.8540   24.2237 N   0  0  0  0  0  0
  -23.4337  -30.4728   21.5391 C   0  0  2  0  0  0
  -24.8834  -28.9125   20.1112 C   0  0  0  0  0  0
  -22.7524  -29.4588   22.4902 C   0  0  0  0  0  0
  -18.0297  -28.1393   22.8479 C   0  0  0  0  0  0
  -24.1489  -36.7276   23.2640 C   0  0  0  0  0  0
  -25.9819  -30.7525   21.3837 C   0  0  0  0  0  0
  -26.0547  -29.3703   20.7288 C   0  0  0  0  0  0
  -27.2255  -28.5386   20.7346 C   0  0  0  0  0  0
  -26.0313  -26.8513   19.4792 C   0  0  0  0  0  0
  -24.8783  -27.6618   19.4746 C   0  0  0  0  0  0
  -23.6556  -29.8041   20.1567 C   0  0  0  0  0  0
  -25.4118  -36.3054   24.0319 C   0  0  1  0  0  0
  -20.5900  -28.3710   23.1256 C   0  0  2  0  0  0
  -20.6774  -26.9421   22.5410 C   0  0  0  0  0  0
  -19.5753  -26.6383   21.5210 C   0  0  0  0  0  0
  -18.1936  -26.7935   22.1620 C   0  0  0  0  0  0
  -19.1550  -28.8871   23.2861 C   0  0  0  0  0  0
  -18.9469  -30.1470   23.8885 C   0  0  0  0  0  0
  -17.6467  -30.6593   24.0558 C   0  0  0  0  0  0
  -25.9062  -34.9429   23.5079 C   0  0  0  0  0  0
  -16.5359  -29.9086   23.6334 C   0  0  0  0  0  0
  -16.7283  -28.6503   23.0353 C   0  0  0  0  0  0
  -26.4518  -31.6577   25.0729 C   0  0  0  0  0  0
  -25.3732  -31.3751   26.1447 C   0  0  0  0  0  0
  -27.0368  -30.2976   24.6264 C   0  0  0  0  0  0
  -27.6067  -32.4329   25.7500 C   0  0  0  0  0  0
  -27.5578  -37.1789   24.8465 C   0  0  0  0  0  0
  -21.4230  -29.3047   22.3645 N   0  0  0  0  0  0
  -26.4286  -37.3760   23.9410 N   0  0  0  0  0  0
  -24.7022  -31.0457   22.0954 N   0  0  0  0  0  0
  -23.4204  -28.8137   23.3022 O   0  0  0  0  0  0
  -28.3018  -26.3014   20.1759 O   0  0  0  0  0  0
  -26.5642  -34.8912   22.4650 O   0  0  0  0  0  0
  -23.5488  -32.1372   23.7233 O   0  0  0  0  0  0
  -31.2296  -17.9995   20.5012 C   0  0  0  0  0  0
  -31.1911  -19.4572   20.4564 C   0  0  0  0  0  0
  -30.0272  -17.3285   20.5514 C   0  0  0  0  0  0
  -29.9267  -20.0397   20.4190 C   0  0  0  0  0  0
  -28.0787  -24.8839   20.3359 C   0  0  0  0  0  0
  -29.0032  -23.8392   20.2626 C   0  0  0  0  0  0
  -28.6795  -22.3517   20.4672 C   0  0  0  0  0  0
  -33.0735  -20.3588   19.0280 C   0  0  0  0  0  0
  -33.5254  -19.7839   21.4481 C   0  0  0  0  0  0
  -34.3288  -21.2490   19.0068 C   0  0  0  0  0  0
  -34.7744  -20.6812   21.4315 C   0  0  0  0  0  0
  -32.4652  -20.2780   20.4400 C   0  0  2  0  0  0
  -35.3854  -20.7683   20.0200 C   0  0  2  0  0  0
  -36.6295  -21.6671   20.0023 C   0  0  0  0  0  0
  -29.7137  -21.4389   20.2784 N   0  0  0  0  0  0
  -29.7770  -15.9334   20.6267 N   0  0  0  0  0  0
  -27.5601  -21.9505   20.7881 O   0  0  0  0  0  0
  -30.2800  -24.1772   20.0215 O   0  0  0  0  0  0
  -28.7812  -18.6479   20.5276 S   0  0  0  0  0  0
  -31.4783  -12.6330   19.1729 H   0  0  0  0  0  0
  -30.4073  -11.5210   19.9779 H   0  0  0  0  0  0
  -29.8084  -11.7259   17.5411 H   0  0  0  0  0  0
  -29.6277  -13.4544   17.7104 H   0  0  0  0  0  0
  -27.9152  -11.2735   18.9391 H   0  0  0  0  0  0
  -27.3830  -12.4883   17.8074 H   0  0  0  0  0  0
  -27.6258  -14.2475   19.4507 H   0  0  0  0  0  0
  -28.7353  -12.1954   21.4303 H   0  0  0  0  0  0
  -28.4098  -13.8725   21.7892 H   0  0  0  0  0  0
  -25.2764   -9.5686   22.4764 H   0  0  0  0  0  0
  -24.0008   -7.4630   22.7466 H   0  0  0  0  0  0
  -21.0845   -8.8774   19.8952 H   0  0  0  0  0  0
  -22.3695  -10.9677   19.6173 H   0  0  0  0  0  0
  -21.2005   -7.6149   23.9718 H   0  0  0  0  0  0
  -21.1481   -6.0525   25.9080 H   0  0  0  0  0  0
  -22.0598   -2.7610   23.2852 H   0  0  0  0  0  0
  -22.4097  -11.9880   22.4830 H   0  0  0  0  0  0
  -21.1088  -13.1228   22.2634 H   0  0  0  0  0  0
  -24.6461  -15.8403   20.5173 H   0  0  0  0  0  0
  -26.2548  -15.6330   20.0497 H   0  0  0  0  0  0
  -26.7228  -32.5374   23.1060 H   0  0  0  0  0  0
  -25.0086  -33.9664   25.0375 H   0  0  0  0  0  0
  -22.7319  -31.2956   21.3885 H   0  0  0  0  0  0
  -23.3750  -35.9610   23.3304 H   0  0  0  0  0  0
  -24.3579  -36.8906   22.2056 H   0  0  0  0  0  0
  -23.7246  -37.6475   23.6671 H   0  0  0  0  0  0
  -26.1261  -31.5110   20.6133 H   0  0  0  0  0  0
  -26.8569  -30.8029   22.0201 H   0  0  0  0  0  0
  -28.1223  -28.8820   21.2313 H   0  0  0  0  0  0
  -25.9763  -25.8969   18.9755 H   0  0  0  0  0  0
  -23.9854  -27.3088   18.9774 H   0  0  0  0  0  0
  -23.7855  -30.5797   19.4011 H   0  0  0  0  0  0
  -22.7727  -29.2413   19.8481 H   0  0  0  0  0  0
  -25.1297  -36.1893   25.0809 H   0  0  0  0  0  0
  -20.9989  -28.3300   24.1377 H   0  0  0  0  0  0
  -20.5667  -26.2330   23.3627 H   0  0  0  0  0  0
  -21.6639  -26.7435   22.1207 H   0  0  0  0  0  0
  -19.6916  -25.6291   21.1248 H   0  0  0  0  0  0
  -19.6683  -27.3184   20.6731 H   0  0  0  0  0  0
  -17.4200  -26.6690   21.4027 H   0  0  0  0  0  0
  -18.0334  -26.0081   22.9020 H   0  0  0  0  0  0
  -19.7948  -30.7286   24.2252 H   0  0  0  0  0  0
  -17.5019  -31.6270   24.5167 H   0  0  0  0  0  0
  -15.5359  -30.2976   23.7666 H   0  0  0  0  0  0
  -15.8687  -28.0814   22.7072 H   0  0  0  0  0  0
  -24.5916  -30.7084   25.7788 H   0  0  0  0  0  0
  -24.8915  -32.2926   26.4836 H   0  0  0  0  0  0
  -25.8045  -30.8966   27.0247 H   0  0  0  0  0  0
  -26.2963  -29.6713   24.1277 H   0  0  0  0  0  0
  -27.4000  -29.7262   25.4818 H   0  0  0  0  0  0
  -27.8865  -30.4221   23.9549 H   0  0  0  0  0  0
  -27.2669  -33.3637   26.2053 H   0  0  0  0  0  0
  -28.3887  -32.6881   25.0334 H   0  0  0  0  0  0
  -28.0727  -31.8476   26.5437 H   0  0  0  0  0  0
  -28.2591  -38.0088   24.7500 H   0  0  0  0  0  0
  -28.1072  -36.2617   24.6293 H   0  0  0  0  0  0
  -27.2298  -37.1436   25.8869 H   0  0  0  0  0  0
  -20.9443  -29.8765   21.6827 H   0  0  0  0  0  0
  -26.0165  -38.2829   24.1419 H   0  0  0  0  0  0
  -32.1768  -17.4809   20.5061 H   0  0  0  0  0  0
  -27.0416  -24.6669   20.5527 H   0  0  0  0  0  0
  -33.3249  -19.3583   18.6733 H   0  0  0  0  0  0
  -32.3368  -20.7561   18.3287 H   0  0  0  0  0  0
  -33.1024  -19.7666   22.4532 H   0  0  0  0  0  0
  -33.8299  -18.7620   21.2233 H   0  0  0  0  0  0
  -34.0458  -22.2796   19.2287 H   0  0  0  0  0  0
  -34.7512  -21.2588   18.0010 H   0  0  0  0  0  0
  -35.5118  -20.2908   22.1343 H   0  0  0  0  0  0
  -34.5122  -21.6793   21.7868 H   0  0  0  0  0  0
  -32.2333  -21.2976   20.7484 H   0  0  0  0  0  0
  -35.7014  -19.7655   19.7268 H   0  0  0  0  0  0
  -36.3871  -22.6901   20.2931 H   0  0  0  0  0  0
  -37.0767  -21.7018   19.0081 H   0  0  0  0  0  0
  -37.3919  -21.2986   20.6898 H   0  0  0  0  0  0
  -30.5476  -21.9077   19.9655 H   0  0  0  0  0  0
  -28.8102  -15.6951   20.7870 H   0  0  0  0  0  0
  -30.8319  -23.4810   20.3471 H   0  0  0  0  0  0
  1 25  1  0  0  0
  1 30  2  0  0  0
  1 86  1  0  0  0
  2  3  1  0  0  0
  2 25  1  0  0  0
  2 90  1  0  0  0
  2 91  1  0  0  0
  3  4  1  0  0  0
  3 92  1  0  0  0
  3 93  1  0  0  0
  4  5  1  0  0  0
  4 94  1  0  0  0
  4 95  1  0  0  0
  5  6  1  0  0  0
  5 26  1  0  0  0
  5 96  1  0  0  0
  6 25  1  0  0  0
  6 97  1  0  0  0
  6 98  1  0  0  0
  7  8  2  0  0  0
  7 26  1  0  0  0
  7 29  1  0  0  0
  8  9  1  0  0  0
  8 22  1  0  0  0
  9 10  1  0  0  0
  9 27  2  0  0  0
 10 11  2  0  0  0
 10 15  1  0  0  0
 11 12  1  0  0  0
 11 99  1  0  0  0
 12 13  2  0  0  0
 12100  1  0  0  0
 13 14  1  0  0  0
 13 31  1  0  0  0
 14 15  2  0  0  0
 14101  1  0  0  0
 15102  1  0  0  0
 16 17  2  0  0  0
 16 21  1  0  0  0
 16 31  1  0  0  0
 17 18  1  0  0  0
 17103  1  0  0  0
 18 19  2  0  0  0
 18104  1  0  0  0
 19 20  1  0  0  0
 19 24  1  0  0  0
 20 21  2  0  0  0
 20105  1  0  0  0
 21 23  1  0  0  0
 22 28  1  0  0  0
 22 32  2  0  0  0
 26 27  1  0  0  0
 28106  1  0  0  0
 28107  1  0  0  0
 29108  1  0  0  0
 29109  1  0  0  0
 33 34  1  0  0  0
 33 66  1  0  0  0
 33 70  2  0  0  0
 34 36  1  0  0  0
 34 59  1  0  0  0
 34110  1  0  0  0
 35 44  2  0  0  0
 35 45  1  0  0  0
 35 68  1  0  0  0
 36 56  1  0  0  0
 36111  1  0  0  0
 37 39  1  0  0  0
 37 47  1  0  0  0
 37 66  1  0  0  0
 37112  1  0  0  0
 38 43  2  0  0  0
 38 46  1  0  0  0
 38 47  1  0  0  0
 39 64  1  0  0  0
 39 67  2  0  0  0
 40 52  1  0  0  0
 40 53  2  0  0  0
 40 58  1  0  0  0
 41113  1  0  0  0
 41114  1  0  0  0
 41115  1  0  0  0
 41 48  1  0  0  0
 42 43  1  0  0  0
 42 66  1  0  0  0
 42116  1  0  0  0
 42117  1  0  0  0
 43 44  1  0  0  0
 44118  1  0  0  0
 45 46  2  0  0  0
 45119  1  0  0  0
 46120  1  0  0  0
 47121  1  0  0  0
 47122  1  0  0  0
 48 56  1  0  0  0
 48 65  1  0  0  0
 48123  1  0  0  0
 49 50  1  0  0  0
 49 53  1  0  0  0
 49 64  1  0  0  0
 49124  1  0  0  0
 50 51  1  0  0  0
 50125  1  0  0  0
 50126  1  0  0  0
 51 52  1  0  0  0
 51127  1  0  0  0
 51128  1  0  0  0
 52129  1  0  0  0
 52130  1  0  0  0
 53 54  1  0  0  0
 54 55  2  0  0  0
 54131  1  0  0  0
 55 57  1  0  0  0
 55132  1  0  0  0
 56 69  2  0  0  0
 57 58  2  0  0  0
 57133  1  0  0  0
 58134  1  0  0  0
 59 60  1  0  0  0
 59 61  1  0  0  0
 59 62  1  0  0  0
 60135  1  0  0  0
 60136  1  0  0  0
 60137  1  0  0  0
 61138  1  0  0  0
 61139  1  0  0  0
 61140  1  0  0  0
 62141  1  0  0  0
 62142  1  0  0  0
 62143  1  0  0  0
 63 65  1  0  0  0
 63144  1  0  0  0
 63145  1  0  0  0
 63146  1  0  0  0
 64147  1  0  0  0
 65148  1  0  0  0
 68 75  1  0  0  0
 71 72  1  0  0  0
 71 73  2  0  0  0
 71149  1  0  0  0
 72 74  2  0  0  0
 72 82  1  0  0  0
 73 86  1  0  0  0
 73 89  1  0  0  0
 74 85  1  0  0  0
 74 89  1  0  0  0
 75 76  2  0  0  0
 75150  1  0  0  0
 76 77  1  0  0  0
 76 88  1  0  0  0
 77 85  1  0  0  0
 77 87  2  0  0  0
 78 80  1  0  0  0
 78 82  1  0  0  0
 78151  1  0  0  0
 78152  1  0  0  0
 79 81  1  0  0  0
 79 82  1  0  0  0
 79153  1  0  0  0
 79154  1  0  0  0
 80 83  1  0  0  0
 80155  1  0  0  0
 80156  1  0  0  0
 81 83  1  0  0  0
 81157  1  0  0  0
 81158  1  0  0  0
 82159  1  0  0  0
 83 84  1  0  0  0
 83160  1  0  0  0
 84161  1  0  0  0
 84162  1  0  0  0
 84163  1  0  0  0
 85164  1  0  0  0
 86165  1  0  0  0
 88166  1  0  0  0
M  ISO  4   1 100  68 101  75 101  86 100
M  END
> <chiral flag>
0

> <version>
0

> <s_m_source_file>
/data/baiqing/PycharmProjects/Reinvent-master-3.2/result/LINK_invent/BTK/process_docking_weight1_custom_product_contain_oxygen_bond_distance_aromatic_linkinvent_7_9_3/rearranged_h_0158.sdf

> <i_m_source_file_index>
29

> <r_mmod_Potential_Energy-OPLS-2005>
182.085693359375

> <r_mmod_Stretch_Energy-OPLS-2005>
134.801193237305

> <r_mmod_Bend_Energy-OPLS-2005>
199.880645751953

> <r_mmod_Torsional_Energy-OPLS-2005>
234.010498046875

> <r_mmod_Improper_Torsional_Energy-OPLS-2005>
4.92212581634521

> <r_mmod_Van_der_Waal_Energy-OPLS-2005>
120.49292755127

> <r_mmod_Electrostatic_Energy-OPLS-2005>
-388.414428710938

> <r_mmod_Solvation_Energy-OPLS-2005>
-234.463409423828

> <b_mmod_Minimization_Converged-OPLS-2005>
0

> <r_mmod_RMS_Derivative-OPLS-2005>
0.846128880977631

$$$$
29
                    3D
 Structure written by MMmdl.
149157  0  0  1  0            999 V2000
  -30.6263  -14.7932   20.4528 C   0  0  0  0  0  0
  -30.4251  -12.4908   19.4742 C   0  0  0  0  0  0
  -29.5063  -12.5050   18.2352 C   0  0  0  0  0  0
  -28.0358  -12.3205   18.6563 C   0  0  0  0  0  0
  -27.6322  -13.2402   19.8399 C   0  0  2  0  0  0
  -28.6792  -13.2243   20.9732 C   0  0  0  0  0  0
  -25.2473  -13.8205   20.5711 C   0  0  0  0  0  0
  -24.1776  -13.0443   20.9224 C   0  0  0  0  0  0
  -24.6380  -11.6923   20.8752 C   0  0  0  0  0  0
  -23.9064  -10.4293   21.0403 C   0  0  0  0  0  0
  -24.3614   -9.4206   21.9178 C   0  0  0  0  0  0
  -23.6290   -8.2239   22.0752 C   0  0  0  0  0  0
  -22.4273   -8.0273   21.3540 C   0  0  0  0  0  0
  -21.9907   -9.0246   20.4646 C   0  0  0  0  0  0
  -22.7236  -10.2128   20.3056 C   0  0  0  0  0  0
  -21.6853   -6.0728   22.5272 C   0  0  0  0  0  0
  -21.4016   -6.5632   23.8203 C   0  0  0  0  0  0
  -21.3659   -5.6786   24.9166 C   0  0  0  0  0  0
  -21.6045   -4.3050   24.7221 C   0  0  0  0  0  0
  -21.8819   -3.8140   23.4341 C   0  0  0  0  0  0
  -21.9195   -4.6955   22.3398 C   0  0  0  0  0  0
  -22.7796  -13.5212   21.1883 C   0  0  0  0  0  0
  -22.1661   -4.2139   21.0974 F   0  0  0  0  0  0
  -21.5632   -3.4536   25.7735 F   0  0  0  0  0  0
  -29.9678  -13.5815   20.3705 N   0  0  0  0  0  0
  -26.2893  -12.9426   20.3263 N   0  0  0  0  0  0
  -25.9311  -11.6561   20.5746 N   0  0  0  0  0  0
  -22.0453  -12.8198   22.0439 N   0  0  0  0  0  0
  -25.4169  -15.1936   20.4133 N   0  0  0  0  0  0
  -31.8371  -14.7964   20.2097 O   0  0  0  0  0  0
  -21.6640   -6.8869   21.4233 O   0  0  0  0  0  0
  -22.3482  -14.5517   20.6731 O   0  0  0  0  0  0
  -24.6338  -31.8530   23.1949 C   0  0  0  0  0  0
  -25.9149  -32.4744   23.8307 C   0  0  1  0  0  0
  -27.2186  -27.2359   20.1458 C   0  0  0  0  0  0
  -25.5941  -33.8546   24.2242 N   0  0  0  0  0  0
  -23.4320  -30.4725   21.5400 C   0  0  2  0  0  0
  -24.8798  -28.9079   20.1162 C   0  0  0  0  0  0
  -22.7511  -29.4592   22.4923 C   0  0  0  0  0  0
  -18.0292  -28.1394   22.8488 C   0  0  0  0  0  0
  -24.1493  -36.7271   23.2644 C   0  0  0  0  0  0
  -25.9790  -30.7584   21.3768 C   0  0  0  0  0  0
  -26.0527  -29.3758   20.7239 C   0  0  0  0  0  0
  -27.2287  -28.5545   20.7213 C   0  0  0  0  0  0
  -26.0249  -26.8337   19.5155 C   0  0  0  0  0  0
  -24.8718  -27.6457   19.4993 C   0  0  0  0  0  0
  -23.6516  -29.7993   20.1591 C   0  0  0  0  0  0
  -25.4121  -36.3065   24.0331 C   0  0  1  0  0  0
  -20.5898  -28.3704   23.1278 C   0  0  2  0  0  0
  -20.6786  -26.9417   22.5422 C   0  0  0  0  0  0
  -19.5759  -26.6386   21.5227 C   0  0  0  0  0  0
  -18.1933  -26.7938   22.1625 C   0  0  0  0  0  0
  -19.1548  -28.8866   23.2876 C   0  0  0  0  0  0
  -18.9469  -30.1469   23.8887 C   0  0  0  0  0  0
  -17.6465  -30.6593   24.0566 C   0  0  0  0  0  0
  -25.9061  -34.9435   23.5090 C   0  0  0  0  0  0
  -16.5356  -29.9085   23.6339 C   0  0  0  0  0  0
  -16.7277  -28.6508   23.0352 C   0  0  0  0  0  0
  -26.4503  -31.6576   25.0704 C   0  0  0  0  0  0
  -25.3720  -31.3740   26.1426 C   0  0  0  0  0  0
  -27.0335  -30.2982   24.6209 C   0  0  0  0  0  0
  -27.6071  -32.4307   25.7459 C   0  0  0  0  0  0
  -27.5582  -37.1790   24.8462 C   0  0  0  0  0  0
  -21.4218  -29.3039   22.3662 N   0  0  0  0  0  0
  -26.4290  -37.3769   23.9412 N   0  0  0  0  0  0
  -24.7010  -31.0466   22.0938 N   0  0  0  0  0  0
  -23.4200  -28.8156   23.3053 O   0  0  0  0  0  0
  -28.3061  -26.3310   20.1335 O   0  0  0  0  0  0
  -26.5631  -34.8918   22.4660 O   0  0  0  0  0  0
  -23.5481  -32.1365   23.7227 O   0  0  0  0  0  0
  -28.1325  -20.4246   19.3033 C   0  0  0  0  0  0
  -28.8906  -20.9996   20.2933 C   0  0  0  0  0  0
  -29.7113  -19.9690   20.9555 C   0  0  0  0  0  0
  -29.5871  -18.6357   20.4761 C   0  0  0  0  0  0
  -30.3864  -17.2959   20.6927 C   0  0  0  0  0  0
  -28.4073  -23.6023   20.0273 C   0  0  0  0  0  0
  -28.1692  -24.9906   20.8241 C   0  0  0  0  0  0
  -30.5722  -20.4031   21.9754 N   0  0  0  0  0  0
  -28.8248  -22.4425   20.6864 N   0  0  0  0  0  0
  -29.8975  -15.9893   20.5553 N   0  0  0  0  0  0
  -31.5579  -17.4685   21.0473 O   0  0  0  0  0  0
  -28.1924  -23.5905   18.8118 O   0  0  0  0  0  0
  -28.4001  -18.6746   19.1804 S   0  0  0  0  0  0
  -31.4652  -12.6087   19.1663 H   0  0  0  0  0  0
  -30.3731  -11.5278   19.9843 H   0  0  0  0  0  0
  -29.7970  -11.7175   17.5384 H   0  0  0  0  0  0
  -29.6223  -13.4479   17.6989 H   0  0  0  0  0  0
  -27.9103  -11.2769   18.9454 H   0  0  0  0  0  0
  -27.3725  -12.4822   17.8051 H   0  0  0  0  0  0
  -27.6098  -14.2509   19.4323 H   0  0  0  0  0  0
  -28.7312  -12.2429   21.4471 H   0  0  0  0  0  0
  -28.4103  -13.9336   21.7581 H   0  0  0  0  0  0
  -25.2756   -9.5681   22.4757 H   0  0  0  0  0  0
  -23.9995   -7.4635   22.7477 H   0  0  0  0  0  0
  -21.0837   -8.8762   19.8958 H   0  0  0  0  0  0
  -22.3684  -10.9663   19.6169 H   0  0  0  0  0  0
  -21.2004   -7.6141   23.9702 H   0  0  0  0  0  0
  -21.1484   -6.0519   25.9067 H   0  0  0  0  0  0
  -22.0602   -2.7604   23.2845 H   0  0  0  0  0  0
  -22.4075  -11.9855   22.4812 H   0  0  0  0  0  0
  -21.1073  -13.1219   22.2657 H   0  0  0  0  0  0
  -24.6510  -15.8491   20.5263 H   0  0  0  0  0  0
  -26.2577  -15.6296   20.0589 H   0  0  0  0  0  0
  -26.7220  -32.5386   23.1050 H   0  0  0  0  0  0
  -25.0091  -33.9677   25.0392 H   0  0  0  0  0  0
  -22.7296  -31.2952   21.3889 H   0  0  0  0  0  0
  -23.3771  -35.9583   23.3276 H   0  0  0  0  0  0
  -24.3589  -36.8916   22.2062 H   0  0  0  0  0  0
  -23.7218  -37.6453   23.6685 H   0  0  0  0  0  0
  -26.1167  -31.5166   20.6048 H   0  0  0  0  0  0
  -26.8575  -30.8123   22.0086 H   0  0  0  0  0  0
  -28.1313  -28.9113   21.1969 H   0  0  0  0  0  0
  -25.9799  -25.8638   19.0406 H   0  0  0  0  0  0
  -23.9744  -27.2809   19.0187 H   0  0  0  0  0  0
  -23.7778  -30.5726   19.4003 H   0  0  0  0  0  0
  -22.7694  -29.2330   19.8550 H   0  0  0  0  0  0
  -25.1306  -36.1909   25.0823 H   0  0  0  0  0  0
  -20.9984  -28.3289   24.1404 H   0  0  0  0  0  0
  -20.5699  -26.2312   23.3635 H   0  0  0  0  0  0
  -21.6654  -26.7448   22.1209 H   0  0  0  0  0  0
  -19.6920  -25.6298   21.1257 H   0  0  0  0  0  0
  -19.6701  -27.3203   20.6768 H   0  0  0  0  0  0
  -17.4216  -26.6707   21.4013 H   0  0  0  0  0  0
  -18.0302  -26.0076   22.9014 H   0  0  0  0  0  0
  -19.7944  -30.7296   24.2244 H   0  0  0  0  0  0
  -17.5015  -31.6270   24.5170 H   0  0  0  0  0  0
  -15.5358  -30.2981   23.7670 H   0  0  0  0  0  0
  -15.8680  -28.0827   22.7061 H   0  0  0  0  0  0
  -24.5921  -30.7052   25.7766 H   0  0  0  0  0  0
  -24.8882  -32.2909   26.4806 H   0  0  0  0  0  0
  -25.8043  -30.8964   27.0228 H   0  0  0  0  0  0
  -26.2913  -29.6724   24.1241 H   0  0  0  0  0  0
  -27.4003  -29.7257   25.4739 H   0  0  0  0  0  0
  -27.8799  -30.4231   23.9451 H   0  0  0  0  0  0
  -27.2714  -33.3643   26.1984 H   0  0  0  0  0  0
  -28.3900  -32.6798   25.0283 H   0  0  0  0  0  0
  -28.0712  -31.8452   26.5406 H   0  0  0  0  0  0
  -28.2599  -38.0090   24.7526 H   0  0  0  0  0  0
  -28.1081  -36.2626   24.6271 H   0  0  0  0  0  0
  -27.2302  -37.1411   25.8865 H   0  0  0  0  0  0
  -20.9421  -29.8731   21.6826 H   0  0  0  0  0  0
  -26.0166  -38.2839   24.1428 H   0  0  0  0  0  0
  -27.4218  -20.9067   18.6437 H   0  0  0  0  0  0
  -28.8758  -25.0029   21.6542 H   0  0  0  0  0  0
  -27.1844  -24.9255   21.2890 H   0  0  0  0  0  0
  -30.9090  -21.3559   21.8909 H   0  0  0  0  0  0
  -31.3293  -19.7690   22.2127 H   0  0  0  0  0  0
  -29.1021  -22.6045   21.6452 H   0  0  0  0  0  0
  -28.8983  -15.9060   20.4793 H   0  0  0  0  0  0
  1 25  1  0  0  0
  1 30  2  0  0  0
  1 80  1  0  0  0
  2  3  1  0  0  0
  2 25  1  0  0  0
  2 84  1  0  0  0
  2 85  1  0  0  0
  3  4  1  0  0  0
  3 86  1  0  0  0
  3 87  1  0  0  0
  4  5  1  0  0  0
  4 88  1  0  0  0
  4 89  1  0  0  0
  5  6  1  0  0  0
  5 26  1  0  0  0
  5 90  1  0  0  0
  6 25  1  0  0  0
  6 91  1  0  0  0
  6 92  1  0  0  0
  7  8  2  0  0  0
  7 26  1  0  0  0
  7 29  1  0  0  0
  8  9  1  0  0  0
  8 22  1  0  0  0
  9 10  1  0  0  0
  9 27  2  0  0  0
 10 11  2  0  0  0
 10 15  1  0  0  0
 11 12  1  0  0  0
 11 93  1  0  0  0
 12 13  2  0  0  0
 12 94  1  0  0  0
 13 14  1  0  0  0
 13 31  1  0  0  0
 14 15  2  0  0  0
 14 95  1  0  0  0
 15 96  1  0  0  0
 16 17  2  0  0  0
 16 21  1  0  0  0
 16 31  1  0  0  0
 17 18  1  0  0  0
 17 97  1  0  0  0
 18 19  2  0  0  0
 18 98  1  0  0  0
 19 20  1  0  0  0
 19 24  1  0  0  0
 20 21  2  0  0  0
 20 99  1  0  0  0
 21 23  1  0  0  0
 22 28  1  0  0  0
 22 32  2  0  0  0
 26 27  1  0  0  0
 28100  1  0  0  0
 28101  1  0  0  0
 29102  1  0  0  0
 29103  1  0  0  0
 33 34  1  0  0  0
 33 66  1  0  0  0
 33 70  2  0  0  0
 34 36  1  0  0  0
 34 59  1  0  0  0
 34104  1  0  0  0
 35 44  2  0  0  0
 35 45  1  0  0  0
 35 68  1  0  0  0
 36 56  1  0  0  0
 36105  1  0  0  0
 37 39  1  0  0  0
 37 47  1  0  0  0
 37 66  1  0  0  0
 37106  1  0  0  0
 38 43  2  0  0  0
 38 46  1  0  0  0
 38 47  1  0  0  0
 39 64  1  0  0  0
 39 67  2  0  0  0
 40 52  1  0  0  0
 40 53  2  0  0  0
 40 58  1  0  0  0
 41107  1  0  0  0
 41108  1  0  0  0
 41109  1  0  0  0
 41 48  1  0  0  0
 42 43  1  0  0  0
 42 66  1  0  0  0
 42110  1  0  0  0
 42111  1  0  0  0
 43 44  1  0  0  0
 44112  1  0  0  0
 45 46  2  0  0  0
 45113  1  0  0  0
 46114  1  0  0  0
 47115  1  0  0  0
 47116  1  0  0  0
 48 56  1  0  0  0
 48 65  1  0  0  0
 48117  1  0  0  0
 49 50  1  0  0  0
 49 53  1  0  0  0
 49 64  1  0  0  0
 49118  1  0  0  0
 50 51  1  0  0  0
 50119  1  0  0  0
 50120  1  0  0  0
 51 52  1  0  0  0
 51121  1  0  0  0
 51122  1  0  0  0
 52123  1  0  0  0
 52124  1  0  0  0
 53 54  1  0  0  0
 54 55  2  0  0  0
 54125  1  0  0  0
 55 57  1  0  0  0
 55126  1  0  0  0
 56 69  2  0  0  0
 57 58  2  0  0  0
 57127  1  0  0  0
 58128  1  0  0  0
 59 60  1  0  0  0
 59 61  1  0  0  0
 59 62  1  0  0  0
 60129  1  0  0  0
 60130  1  0  0  0
 60131  1  0  0  0
 61132  1  0  0  0
 61133  1  0  0  0
 61134  1  0  0  0
 62135  1  0  0  0
 62136  1  0  0  0
 62137  1  0  0  0
 63 65  1  0  0  0
 63138  1  0  0  0
 63139  1  0  0  0
 63140  1  0  0  0
 64141  1  0  0  0
 65142  1  0  0  0
 68 77  1  0  0  0
 71 72  2  0  0  0
 71 83  1  0  0  0
 71143  1  0  0  0
 72 73  1  0  0  0
 72 79  1  0  0  0
 73 74  2  0  0  0
 73 78  1  0  0  0
 74 75  1  0  0  0
 74 83  1  0  0  0
 75 80  1  0  0  0
 75 81  2  0  0  0
 76 77  1  0  0  0
 76 79  1  0  0  0
 76 82  2  0  0  0
 77144  1  0  0  0
 77145  1  0  0  0
 78146  1  0  0  0
 78147  1  0  0  0
 79148  1  0  0  0
 80149  1  0  0  0
M  ISO  4   1 100  68 101  77 101  80 100
M  END
> <chiral flag>
0

> <version>
0

> <s_m_source_file>
/data/baiqing/PycharmProjects/Reinvent-master-3.2/result/LINK_invent/BTK/process_docking_weight1_custom_product_contain_oxygen_bond_distance_aromatic_linkinvent_7_9_3/rearranged_h_0158.sdf

> <i_m_source_file_index>
30

> <r_mmod_Potential_Energy-OPLS-2005>
122.851440429688

> <r_mmod_Stretch_Energy-OPLS-2005>
139.2275390625

> <r_mmod_Bend_Energy-OPLS-2005>
183.248001098633

> <r_mmod_Torsional_Energy-OPLS-2005>
274.417449951172

> <r_mmod_Improper_Torsional_Energy-OPLS-2005>
11.1503610610962

> <r_mmod_Van_der_Waal_Energy-OPLS-2005>
116.207656860352

> <r_mmod_Electrostatic_Energy-OPLS-2005>
-446.656402587891

> <r_mmod_Solvation_Energy-OPLS-2005>
-260.118041992188

> <b_mmod_Minimization_Converged-OPLS-2005>
0

> <r_mmod_RMS_Derivative-OPLS-2005>
1.20680248737335

$$$$
30
                    3D
 Structure written by MMmdl.
157166  0  0  1  0            999 V2000
  -30.5880  -14.6840   20.4865 C   0  0  0  0  0  0
  -30.4425  -12.4172   19.4607 C   0  0  0  0  0  0
  -29.5110  -12.5138   18.2305 C   0  0  0  0  0  0
  -28.0340  -12.3437   18.6416 C   0  0  0  0  0  0
  -27.6523  -13.2159   19.8672 C   0  0  2  0  0  0
  -28.6963  -13.0773   20.9975 C   0  0  0  0  0  0
  -25.2547  -13.8155   20.5718 C   0  0  0  0  0  0
  -24.1806  -13.0420   20.9175 C   0  0  0  0  0  0
  -24.6384  -11.6897   20.8729 C   0  0  0  0  0  0
  -23.9059  -10.4283   21.0402 C   0  0  0  0  0  0
  -24.3616   -9.4207   21.9182 C   0  0  0  0  0  0
  -23.6297   -8.2240   22.0750 C   0  0  0  0  0  0
  -22.4278   -8.0274   21.3541 C   0  0  0  0  0  0
  -21.9909   -9.0250   20.4646 C   0  0  0  0  0  0
  -22.7231  -10.2131   20.3056 C   0  0  0  0  0  0
  -21.6852   -6.0736   22.5279 C   0  0  0  0  0  0
  -21.4008   -6.5640   23.8213 C   0  0  0  0  0  0
  -21.3663   -5.6791   24.9175 C   0  0  0  0  0  0
  -21.6051   -4.3055   24.7222 C   0  0  0  0  0  0
  -21.8817   -3.8148   23.4342 C   0  0  0  0  0  0
  -21.9188   -4.6963   22.3401 C   0  0  0  0  0  0
  -22.7831  -13.5221   21.1846 C   0  0  0  0  0  0
  -22.1656   -4.2148   21.0976 F   0  0  0  0  0  0
  -21.5640   -3.4539   25.7735 F   0  0  0  0  0  0
  -30.0081  -13.4389   20.4367 N   0  0  0  0  0  0
  -26.2980  -12.9343   20.3350 N   0  0  0  0  0  0
  -25.9316  -11.6497   20.5762 N   0  0  0  0  0  0
  -22.0473  -12.8225   22.0409 N   0  0  0  0  0  0
  -25.4250  -15.1882   20.4232 N   0  0  0  0  0  0
  -31.7389  -14.8660   20.0751 O   0  0  0  0  0  0
  -21.6639   -6.8876   21.4240 O   0  0  0  0  0  0
  -22.3526  -14.5535   20.6701 O   0  0  0  0  0  0
  -24.6260  -31.8560   23.1981 C   0  0  0  0  0  0
  -25.9103  -32.4758   23.8317 C   0  0  1  0  0  0
  -27.2353  -27.3011   20.1236 C   0  0  0  0  0  0
  -25.5913  -33.8559   24.2246 N   0  0  0  0  0  0
  -23.4209  -30.4752   21.5399 C   0  0  2  0  0  0
  -24.8691  -28.9181   20.1096 C   0  0  0  0  0  0
  -22.7471  -29.4599   22.4928 C   0  0  0  0  0  0
  -18.0283  -28.1383   22.8485 C   0  0  0  0  0  0
  -24.1487  -36.7289   23.2642 C   0  0  0  0  0  0
  -25.9597  -30.7806   21.3700 C   0  0  0  0  0  0
  -26.0332  -29.4042   20.7151 C   0  0  0  0  0  0
  -27.2132  -28.6051   20.7124 C   0  0  0  0  0  0
  -26.0496  -26.8626   19.4954 C   0  0  0  0  0  0
  -24.8796  -27.6541   19.4918 C   0  0  0  0  0  0
  -23.6361  -29.8001   20.1573 C   0  0  0  0  0  0
  -25.4114  -36.3074   24.0325 C   0  0  1  0  0  0
  -20.5881  -28.3682   23.1286 C   0  0  2  0  0  0
  -20.6768  -26.9404   22.5416 C   0  0  0  0  0  0
  -19.5750  -26.6377   21.5212 C   0  0  0  0  0  0
  -18.1929  -26.7926   22.1621 C   0  0  0  0  0  0
  -19.1535  -28.8851   23.2880 C   0  0  0  0  0  0
  -18.9459  -30.1454   23.8892 C   0  0  0  0  0  0
  -17.6461  -30.6586   24.0561 C   0  0  0  0  0  0
  -25.9049  -34.9443   23.5091 C   0  0  0  0  0  0
  -16.5351  -29.9083   23.6333 C   0  0  0  0  0  0
  -16.7271  -28.6501   23.0351 C   0  0  0  0  0  0
  -26.4489  -31.6588   25.0703 C   0  0  0  0  0  0
  -25.3724  -31.3738   26.1437 C   0  0  0  0  0  0
  -27.0340  -30.3011   24.6177 C   0  0  0  0  0  0
  -27.6038  -32.4338   25.7478 C   0  0  0  0  0  0
  -27.5578  -37.1798   24.8464 C   0  0  0  0  0  0
  -21.4185  -29.3028   22.3676 N   0  0  0  0  0  0
  -26.4291  -37.3770   23.9407 N   0  0  0  0  0  0
  -24.6876  -31.0552   22.0933 N   0  0  0  0  0  0
  -23.4191  -28.8154   23.3023 O   0  0  0  0  0  0
  -28.3880  -26.5030   20.2067 O   0  0  0  0  0  0
  -26.5626  -34.8920   22.4663 O   0  0  0  0  0  0
  -23.5424  -32.1365   23.7306 O   0  0  0  0  0  0
  -30.1993  -18.3140   20.8084 C   0  0  0  0  0  0
  -28.5325  -17.3196   19.5176 C   0  0  0  0  0  0
  -29.5643  -17.0679   20.3897 C   0  0  0  0  0  0
  -29.6838  -19.4809   20.2136 C   0  0  0  0  0  0
  -30.2396  -20.8716   20.1960 C   0  0  0  0  0  0
  -30.0000  -24.7160   19.9983 C   0  0  0  0  0  0
  -27.7689  -23.9277   20.4988 C   0  0  0  0  0  0
  -30.4284  -23.2869   19.5389 C   0  0  0  0  0  0
  -28.1575  -22.4447   20.0480 C   0  0  0  0  0  0
  -28.5204  -25.0890   19.7580 C   0  0  0  0  0  0
  -29.6221  -22.1303   20.0630 N   0  0  0  0  0  0
  -29.7852  -15.7142   20.9209 N   0  0  0  0  0  0
  -31.5817  -20.8544   20.2692 N   0  3  0  0  0  0
  -28.2831  -24.9810   18.4504 F   0  0  0  0  0  0
  -28.3485  -19.0368   19.1744 S   0  0  0  0  0  0
  -31.4821  -12.5540   19.1584 H   0  0  0  0  0  0
  -30.3911  -11.4226   19.9065 H   0  0  0  0  0  0
  -29.7830  -11.7585   17.4916 H   0  0  0  0  0  0
  -29.6457  -13.4803   17.7424 H   0  0  0  0  0  0
  -27.8758  -11.2905   18.8766 H   0  0  0  0  0  0
  -27.3788  -12.5682   17.7993 H   0  0  0  0  0  0
  -27.6672  -14.2493   19.5240 H   0  0  0  0  0  0
  -28.7173  -12.0533   21.3750 H   0  0  0  0  0  0
  -28.4326  -13.7008   21.8528 H   0  0  0  0  0  0
  -25.2763   -9.5692   22.4750 H   0  0  0  0  0  0
  -24.0010   -7.4637   22.7472 H   0  0  0  0  0  0
  -21.0839   -8.8773   19.8956 H   0  0  0  0  0  0
  -22.3693  -10.9671   19.6166 H   0  0  0  0  0  0
  -21.1991   -7.6146   23.9719 H   0  0  0  0  0  0
  -21.1492   -6.0517   25.9080 H   0  0  0  0  0  0
  -22.0593   -2.7608   23.2841 H   0  0  0  0  0  0
  -22.4085  -11.9885   22.4799 H   0  0  0  0  0  0
  -21.1095  -13.1265   22.2616 H   0  0  0  0  0  0
  -24.6618  -15.8418   20.5607 H   0  0  0  0  0  0
  -26.2966  -15.6434   20.1934 H   0  0  0  0  0  0
  -26.7166  -32.5418   23.1057 H   0  0  0  0  0  0
  -25.0054  -33.9692   25.0390 H   0  0  0  0  0  0
  -22.7157  -31.2957   21.3924 H   0  0  0  0  0  0
  -23.3748  -35.9622   23.3306 H   0  0  0  0  0  0
  -24.3576  -36.8913   22.2056 H   0  0  0  0  0  0
  -23.7240  -37.6490   23.6668 H   0  0  0  0  0  0
  -26.0907  -31.5417   20.5996 H   0  0  0  0  0  0
  -26.8400  -30.8317   21.9993 H   0  0  0  0  0  0
  -28.1078  -28.9737   21.1947 H   0  0  0  0  0  0
  -26.0096  -25.8948   19.0184 H   0  0  0  0  0  0
  -23.9853  -27.2756   19.0162 H   0  0  0  0  0  0
  -23.7534  -30.5717   19.3956 H   0  0  0  0  0  0
  -22.7564  -29.2267   19.8598 H   0  0  0  0  0  0
  -25.1299  -36.1919   25.0817 H   0  0  0  0  0  0
  -20.9972  -28.3257   24.1407 H   0  0  0  0  0  0
  -20.5664  -26.2289   23.3614 H   0  0  0  0  0  0
  -21.6639  -26.7433   22.1213 H   0  0  0  0  0  0
  -19.6911  -25.6287   21.1242 H   0  0  0  0  0  0
  -19.6695  -27.3185   20.6740 H   0  0  0  0  0  0
  -17.4201  -26.6677   21.4021 H   0  0  0  0  0  0
  -18.0330  -26.0066   22.9016 H   0  0  0  0  0  0
  -19.7938  -30.7270   24.2256 H   0  0  0  0  0  0
  -17.5019  -31.6267   24.5164 H   0  0  0  0  0  0
  -15.5353  -30.2983   23.7665 H   0  0  0  0  0  0
  -15.8671  -28.0823   22.7066 H   0  0  0  0  0  0
  -24.5871  -30.7121   25.7768 H   0  0  0  0  0  0
  -24.8949  -32.2912   26.4887 H   0  0  0  0  0  0
  -25.8044  -30.8888   27.0199 H   0  0  0  0  0  0
  -26.2918  -29.6753   24.1209 H   0  0  0  0  0  0
  -27.4039  -29.7282   25.4691 H   0  0  0  0  0  0
  -27.8785  -30.4299   23.9402 H   0  0  0  0  0  0
  -27.2628  -33.3621   26.2075 H   0  0  0  0  0  0
  -28.3836  -32.6933   25.0305 H   0  0  0  0  0  0
  -28.0728  -31.8462   26.5381 H   0  0  0  0  0  0
  -28.2597  -38.0094   24.7508 H   0  0  0  0  0  0
  -28.1070  -36.2623   24.6291 H   0  0  0  0  0  0
  -27.2296  -37.1455   25.8868 H   0  0  0  0  0  0
  -20.9366  -29.8738   21.6875 H   0  0  0  0  0  0
  -26.0170  -38.2845   24.1407 H   0  0  0  0  0  0
  -31.0275  -18.3102   21.5027 H   0  0  0  0  0  0
  -27.8546  -16.6224   19.0428 H   0  0  0  0  0  0
  -30.6267  -25.4416   19.4798 H   0  0  0  0  0  0
  -30.2372  -24.8330   21.0567 H   0  0  0  0  0  0
  -27.9378  -24.0216   21.5719 H   0  0  0  0  0  0
  -26.6956  -24.0575   20.3661 H   0  0  0  0  0  0
  -31.4788  -23.1902   19.8023 H   0  0  0  0  0  0
  -30.3931  -23.2341   18.4507 H   0  0  0  0  0  0
  -27.7930  -22.2659   19.0366 H   0  0  0  0  0  0
  -27.6455  -21.7280   20.6896 H   0  0  0  0  0  0
  -28.9578  -15.3259   21.3480 H   0  0  0  0  0  0
  -32.0738  -19.9750   20.2992 H   0  0  0  0  0  0
  -32.1283  -21.7000   20.2999 H   0  0  0  0  0  0
  1 25  1  0  0  0
  1 30  2  0  0  0
  1 82  1  0  0  0
  2  3  1  0  0  0
  2 25  1  0  0  0
  2 86  1  0  0  0
  2 87  1  0  0  0
  3  4  1  0  0  0
  3 88  1  0  0  0
  3 89  1  0  0  0
  4  5  1  0  0  0
  4 90  1  0  0  0
  4 91  1  0  0  0
  5  6  1  0  0  0
  5 26  1  0  0  0
  5 92  1  0  0  0
  6 25  1  0  0  0
  6 93  1  0  0  0
  6 94  1  0  0  0
  7  8  2  0  0  0
  7 26  1  0  0  0
  7 29  1  0  0  0
  8  9  1  0  0  0
  8 22  1  0  0  0
  9 10  1  0  0  0
  9 27  2  0  0  0
 10 11  2  0  0  0
 10 15  1  0  0  0
 11 12  1  0  0  0
 11 95  1  0  0  0
 12 13  2  0  0  0
 12 96  1  0  0  0
 13 14  1  0  0  0
 13 31  1  0  0  0
 14 15  2  0  0  0
 14 97  1  0  0  0
 15 98  1  0  0  0
 16 17  2  0  0  0
 16 21  1  0  0  0
 16 31  1  0  0  0
 17 18  1  0  0  0
 17 99  1  0  0  0
 18 19  2  0  0  0
 18100  1  0  0  0
 19 20  1  0  0  0
 19 24  1  0  0  0
 20 21  2  0  0  0
 20101  1  0  0  0
 21 23  1  0  0  0
 22 28  1  0  0  0
 22 32  2  0  0  0
 26 27  1  0  0  0
 28102  1  0  0  0
 28103  1  0  0  0
 29104  1  0  0  0
 29105  1  0  0  0
 33 34  1  0  0  0
 33 66  1  0  0  0
 33 70  2  0  0  0
 34 36  1  0  0  0
 34 59  1  0  0  0
 34106  1  0  0  0
 35 44  2  0  0  0
 35 45  1  0  0  0
 35 68  1  0  0  0
 36 56  1  0  0  0
 36107  1  0  0  0
 37 39  1  0  0  0
 37 47  1  0  0  0
 37 66  1  0  0  0
 37108  1  0  0  0
 38 43  2  0  0  0
 38 46  1  0  0  0
 38 47  1  0  0  0
 39 64  1  0  0  0
 39 67  2  0  0  0
 40 52  1  0  0  0
 40 53  2  0  0  0
 40 58  1  0  0  0
 41109  1  0  0  0
 41110  1  0  0  0
 41111  1  0  0  0
 41 48  1  0  0  0
 42 43  1  0  0  0
 42 66  1  0  0  0
 42112  1  0  0  0
 42113  1  0  0  0
 43 44  1  0  0  0
 44114  1  0  0  0
 45 46  2  0  0  0
 45115  1  0  0  0
 46116  1  0  0  0
 47117  1  0  0  0
 47118  1  0  0  0
 48 56  1  0  0  0
 48 65  1  0  0  0
 48119  1  0  0  0
 49 50  1  0  0  0
 49 53  1  0  0  0
 49 64  1  0  0  0
 49120  1  0  0  0
 50 51  1  0  0  0
 50121  1  0  0  0
 50122  1  0  0  0
 51 52  1  0  0  0
 51123  1  0  0  0
 51124  1  0  0  0
 52125  1  0  0  0
 52126  1  0  0  0
 53 54  1  0  0  0
 54 55  2  0  0  0
 54127  1  0  0  0
 55 57  1  0  0  0
 55128  1  0  0  0
 56 69  2  0  0  0
 57 58  2  0  0  0
 57129  1  0  0  0
 58130  1  0  0  0
 59 60  1  0  0  0
 59 61  1  0  0  0
 59 62  1  0  0  0
 60131  1  0  0  0
 60132  1  0  0  0
 60133  1  0  0  0
 61134  1  0  0  0
 61135  1  0  0  0
 61136  1  0  0  0
 62137  1  0  0  0
 62138  1  0  0  0
 62139  1  0  0  0
 63 65  1  0  0  0
 63140  1  0  0  0
 63141  1  0  0  0
 63142  1  0  0  0
 64143  1  0  0  0
 65144  1  0  0  0
 68 80  1  0  0  0
 71 73  1  0  0  0
 71 74  2  0  0  0
 71145  1  0  0  0
 72 73  2  0  0  0
 72 85  1  0  0  0
 72146  1  0  0  0
 73 82  1  0  0  0
 74 75  1  0  0  0
 74 85  1  0  0  0
 75 81  1  0  0  0
 75 83  2  0  0  0
 76 78  1  0  0  0
 76 80  1  0  0  0
 76147  1  0  0  0
 76148  1  0  0  0
 77 79  1  0  0  0
 77 80  1  0  0  0
 77149  1  0  0  0
 77150  1  0  0  0
 78 81  1  0  0  0
 78151  1  0  0  0
 78152  1  0  0  0
 79 81  1  0  0  0
 79153  1  0  0  0
 79154  1  0  0  0
 80 84  1  0  0  0
 82155  1  0  0  0
 83156  1  0  0  0
 83157  1  0  0  0
M  CHG  1  83   1
M  ISO  4   1 100  68 101  80 101  82 100
M  END
> <chiral flag>
0

> <version>
0

> <s_m_source_file>
/data/baiqing/PycharmProjects/Reinvent-master-3.2/result/LINK_invent/BTK/process_docking_weight1_custom_product_contain_oxygen_bond_distance_aromatic_linkinvent_7_9_3/rearranged_h_0158.sdf

> <i_m_source_file_index>
31

> <r_mmod_Potential_Energy-OPLS-2005>
12.3131542205811

> <r_mmod_Stretch_Energy-OPLS-2005>
91.0311126708984

> <r_mmod_Bend_Energy-OPLS-2005>
192.43147277832

> <r_mmod_Torsional_Energy-OPLS-2005>
279.476867675781

> <r_mmod_Improper_Torsional_Energy-OPLS-2005>
7.82408857345581

> <r_mmod_Van_der_Waal_Energy-OPLS-2005>
124.26490020752

> <r_mmod_Electrostatic_Energy-OPLS-2005>
-290.832702636719

> <r_mmod_Solvation_Energy-OPLS-2005>
-450.653533935547

> <b_mmod_Minimization_Converged-OPLS-2005>
0

> <r_mmod_RMS_Derivative-OPLS-2005>
0.758103609085083

$$$$
31
                    3D
 Structure written by MMmdl.
151159  0  0  1  0            999 V2000
  -30.4981  -15.0262   20.4045 C   0  0  0  0  0  0
  -30.4416  -12.6326   19.5229 C   0  0  0  0  0  0
  -29.5346  -12.5531   18.2748 C   0  0  0  0  0  0
  -28.0704  -12.3120   18.6860 C   0  0  0  0  0  0
  -27.6260  -13.2564   19.8320 C   0  0  2  0  0  0
  -28.6602  -13.3184   20.9752 C   0  0  0  0  0  0
  -25.2447  -13.8246   20.5737 C   0  0  0  0  0  0
  -24.1766  -13.0440   20.9235 C   0  0  0  0  0  0
  -24.6402  -11.6934   20.8736 C   0  0  0  0  0  0
  -23.9095  -10.4296   21.0430 C   0  0  0  0  0  0
  -24.3637   -9.4212   21.9216 C   0  0  0  0  0  0
  -23.6299   -8.2256   22.0777 C   0  0  0  0  0  0
  -22.4286   -8.0297   21.3553 C   0  0  0  0  0  0
  -21.9937   -9.0277   20.4653 C   0  0  0  0  0  0
  -22.7278  -10.2144   20.3066 C   0  0  0  0  0  0
  -21.6843   -6.0746   22.5295 C   0  0  0  0  0  0
  -21.4013   -6.5639   23.8234 C   0  0  0  0  0  0
  -21.3678   -5.6794   24.9208 C   0  0  0  0  0  0
  -21.6054   -4.3056   24.7237 C   0  0  0  0  0  0
  -21.8801   -3.8142   23.4357 C   0  0  0  0  0  0
  -21.9177   -4.6975   22.3421 C   0  0  0  0  0  0
  -22.7790  -13.5205   21.1898 C   0  0  0  0  0  0
  -22.1647   -4.2155   21.0995 F   0  0  0  0  0  0
  -21.5639   -3.4548   25.7754 F   0  0  0  0  0  0
  -29.9337  -13.7443   20.3810 N   0  0  0  0  0  0
  -26.2855  -12.9480   20.3187 N   0  0  0  0  0  0
  -25.9332  -11.6603   20.5711 N   0  0  0  0  0  0
  -22.0398  -12.8204   22.0436 N   0  0  0  0  0  0
  -25.4027  -15.1979   20.4195 N   0  0  0  0  0  0
  -31.7046  -15.0965   20.1370 O   0  0  0  0  0  0
  -21.6627   -6.8904   21.4253 O   0  0  0  0  0  0
  -22.3490  -14.5514   20.6751 O   0  0  0  0  0  0
  -24.6507  -31.8362   23.1845 C   0  0  0  0  0  0
  -25.9268  -32.4644   23.8233 C   0  0  1  0  0  0
  -27.2387  -27.0900   20.1800 C   0  0  0  0  0  0
  -25.5998  -33.8440   24.2183 N   0  0  0  0  0  0
  -23.4583  -30.4556   21.5241 C   0  0  2  0  0  0
  -24.9158  -28.8680   20.1117 C   0  0  0  0  0  0
  -22.7566  -29.4551   22.4775 C   0  0  0  0  0  0
  -18.0292  -28.1467   22.8468 C   0  0  0  0  0  0
  -24.1446  -36.7182   23.2639 C   0  0  0  0  0  0
  -26.0096  -30.7029   21.3838 C   0  0  0  0  0  0
  -26.0886  -29.3018   20.7439 C   0  0  0  0  0  0
  -27.2476  -28.4294   20.7618 C   0  0  0  0  0  0
  -26.0500  -26.7831   19.4822 C   0  0  0  0  0  0
  -24.9116  -27.6226   19.4641 C   0  0  0  0  0  0
  -23.6916  -29.7753   20.1461 C   0  0  0  0  0  0
  -25.4087  -36.2992   24.0329 C   0  0  1  0  0  0
  -20.5904  -28.3787   23.1182 C   0  0  2  0  0  0
  -20.6737  -26.9469   22.5384 C   0  0  0  0  0  0
  -19.5720  -26.6436   21.5176 C   0  0  0  0  0  0
  -18.1930  -26.8030   22.1616 C   0  0  0  0  0  0
  -19.1559  -28.8923   23.2854 C   0  0  0  0  0  0
  -18.9479  -30.1499   23.8919 C   0  0  0  0  0  0
  -17.6489  -30.6639   24.0560 C   0  0  0  0  0  0
  -25.9030  -34.9372   23.5054 C   0  0  0  0  0  0
  -16.5369  -29.9165   23.6341 C   0  0  0  0  0  0
  -16.7280  -28.6587   23.0377 C   0  0  0  0  0  0
  -26.4573  -31.6547   25.0688 C   0  0  0  0  0  0
  -25.3768  -31.3758   26.1386 C   0  0  0  0  0  0
  -27.0407  -30.2928   24.6248 C   0  0  0  0  0  0
  -27.6111  -32.4262   25.7509 C   0  0  0  0  0  0
  -27.5540  -37.1753   24.8491 C   0  0  0  0  0  0
  -21.4235  -29.3118   22.3532 N   0  0  0  0  0  0
  -26.4230  -37.3730   23.9455 N   0  0  0  0  0  0
  -24.7269  -31.0208   22.0883 N   0  0  0  0  0  0
  -23.4172  -28.8099   23.2968 O   0  0  0  0  0  0
  -28.2977  -26.0859   20.2077 O   0  0  0  0  0  0
  -26.5571  -34.8892   22.4609 O   0  0  0  0  0  0
  -23.5617  -32.1201   23.7070 O   0  0  0  0  0  0
  -28.7969  -18.6536   20.5968 C   0  0  0  0  0  0
  -29.2877  -20.0612   20.4220 C   0  0  0  0  0  0
  -29.7851  -17.6412   20.4435 C   0  0  0  0  0  0
  -30.6187  -19.7379   20.1811 C   0  0  0  0  0  0
  -28.5167  -21.5141   20.5462 C   0  0  0  0  0  0
  -26.7493  -24.3398   21.2611 C   0  0  0  0  0  0
  -28.9324  -23.1141   20.1774 C   0  0  0  0  0  0
  -28.1732  -24.5819   20.7260 C   0  0  1  0  0  0
  -31.6747  -20.6193   19.9832 N   0  0  0  0  0  0
  -29.6632  -16.1896   20.5431 N   0  0  0  0  0  0
  -27.3586  -21.3934   20.9502 O   0  0  0  0  0  0
  -30.9272  -18.3592   20.1709 O   0  0  0  0  0  0
  -31.4778  -12.7837   19.2196 H   0  0  0  0  0  0
  -30.4357  -11.6932   20.0759 H   0  0  0  0  0  0
  -29.8803  -11.7659   17.6048 H   0  0  0  0  0  0
  -29.6177  -13.4864   17.7146 H   0  0  0  0  0  0
  -27.9871  -11.2724   19.0102 H   0  0  0  0  0  0
  -27.4135  -12.4233   17.8235 H   0  0  0  0  0  0
  -27.5788  -14.2496   19.3828 H   0  0  0  0  0  0
  -28.7608  -12.3567   21.4799 H   0  0  0  0  0  0
  -28.3385  -14.0368   21.7310 H   0  0  0  0  0  0
  -25.2795   -9.5683   22.4785 H   0  0  0  0  0  0
  -24.0005   -7.4645   22.7484 H   0  0  0  0  0  0
  -21.0888   -8.8808   19.8957 H   0  0  0  0  0  0
  -22.3775  -10.9679   19.6150 H   0  0  0  0  0  0
  -21.2000   -7.6143   23.9753 H   0  0  0  0  0  0
  -21.1535   -6.0524   25.9116 H   0  0  0  0  0  0
  -22.0554   -2.7596   23.2865 H   0  0  0  0  0  0
  -22.4006  -11.9857   22.4803 H   0  0  0  0  0  0
  -21.1010  -13.1257   22.2633 H   0  0  0  0  0  0
  -24.6161  -15.8284   20.5274 H   0  0  0  0  0  0
  -26.2339  -15.6578   20.0721 H   0  0  0  0  0  0
  -26.7345  -32.5291   23.0970 H   0  0  0  0  0  0
  -25.0257  -33.9489   25.0425 H   0  0  0  0  0  0
  -22.7724  -31.2874   21.3615 H   0  0  0  0  0  0
  -23.3713  -35.9502   23.3310 H   0  0  0  0  0  0
  -24.3505  -36.8764   22.2042 H   0  0  0  0  0  0
  -23.7162  -37.6377   23.6618 H   0  0  0  0  0  0
  -26.1438  -31.4463   20.5959 H   0  0  0  0  0  0
  -26.8835  -30.7782   22.0136 H   0  0  0  0  0  0
  -28.1388  -28.7552   21.2803 H   0  0  0  0  0  0
  -25.9881  -25.8364   18.9651 H   0  0  0  0  0  0
  -24.0265  -27.2918   18.9414 H   0  0  0  0  0  0
  -23.8388  -30.5414   19.3829 H   0  0  0  0  0  0
  -22.8055  -29.2220   19.8313 H   0  0  0  0  0  0
  -25.1274  -36.1783   25.0806 H   0  0  0  0  0  0
  -21.0034  -28.3391   24.1284 H   0  0  0  0  0  0
  -20.5554  -26.2417   23.3617 H   0  0  0  0  0  0
  -21.6625  -26.7428   22.1228 H   0  0  0  0  0  0
  -19.6852  -25.6347   21.1232 H   0  0  0  0  0  0
  -19.6663  -27.3208   20.6683 H   0  0  0  0  0  0
  -17.4165  -26.6715   21.4065 H   0  0  0  0  0  0
  -18.0363  -26.0203   22.9046 H   0  0  0  0  0  0
  -19.7947  -30.7280   24.2356 H   0  0  0  0  0  0
  -17.5054  -31.6338   24.5170 H   0  0  0  0  0  0
  -15.5384  -30.3092   23.7670 H   0  0  0  0  0  0
  -15.8664  -28.0896   22.7149 H   0  0  0  0  0  0
  -24.5998  -30.7009   25.7781 H   0  0  0  0  0  0
  -24.8868  -32.2928   26.4668 H   0  0  0  0  0  0
  -25.8071  -30.9098   27.0247 H   0  0  0  0  0  0
  -26.2993  -29.6669   24.1248 H   0  0  0  0  0  0
  -27.3998  -29.7227   25.4826 H   0  0  0  0  0  0
  -27.8921  -30.4153   23.9551 H   0  0  0  0  0  0
  -27.2738  -33.3600   26.2037 H   0  0  0  0  0  0
  -28.4015  -32.6743   25.0424 H   0  0  0  0  0  0
  -28.0654  -31.8380   26.5488 H   0  0  0  0  0  0
  -28.2619  -37.9999   24.7515 H   0  0  0  0  0  0
  -28.0959  -36.2528   24.6339 H   0  0  0  0  0  0
  -27.2246  -37.1475   25.8891 H   0  0  0  0  0  0
  -20.9431  -29.8822   21.6691 H   0  0  0  0  0  0
  -26.0078  -38.2764   24.1503 H   0  0  0  0  0  0
  -27.7680  -18.4134   20.8277 H   0  0  0  0  0  0
  -26.7455  -23.5440   22.0054 H   0  0  0  0  0  0
  -26.0676  -24.0651   20.4567 H   0  0  0  0  0  0
  -26.3484  -25.2097   21.7825 H   0  0  0  0  0  0
  -28.8969  -23.1502   19.0910 H   0  0  0  0  0  0
  -29.9909  -23.2074   20.4129 H   0  0  0  0  0  0
  -28.7412  -24.7176   21.6477 H   0  0  0  0  0  0
  -31.6321  -21.6201   20.1490 H   0  0  0  0  0  0
  -32.6349  -20.2842   20.0323 H   0  0  0  0  0  0
  -28.7145  -15.9014   20.7303 H   0  0  0  0  0  0
  1 25  1  0  0  0
  1 30  2  0  0  0
  1 80  1  0  0  0
  2  3  1  0  0  0
  2 25  1  0  0  0
  2 83  1  0  0  0
  2 84  1  0  0  0
  3  4  1  0  0  0
  3 85  1  0  0  0
  3 86  1  0  0  0
  4  5  1  0  0  0
  4 87  1  0  0  0
  4 88  1  0  0  0
  5  6  1  0  0  0
  5 26  1  0  0  0
  5 89  1  0  0  0
  6 25  1  0  0  0
  6 90  1  0  0  0
  6 91  1  0  0  0
  7  8  2  0  0  0
  7 26  1  0  0  0
  7 29  1  0  0  0
  8  9  1  0  0  0
  8 22  1  0  0  0
  9 10  1  0  0  0
  9 27  2  0  0  0
 10 11  2  0  0  0
 10 15  1  0  0  0
 11 12  1  0  0  0
 11 92  1  0  0  0
 12 13  2  0  0  0
 12 93  1  0  0  0
 13 14  1  0  0  0
 13 31  1  0  0  0
 14 15  2  0  0  0
 14 94  1  0  0  0
 15 95  1  0  0  0
 16 17  2  0  0  0
 16 21  1  0  0  0
 16 31  1  0  0  0
 17 18  1  0  0  0
 17 96  1  0  0  0
 18 19  2  0  0  0
 18 97  1  0  0  0
 19 20  1  0  0  0
 19 24  1  0  0  0
 20 21  2  0  0  0
 20 98  1  0  0  0
 21 23  1  0  0  0
 22 28  1  0  0  0
 22 32  2  0  0  0
 26 27  1  0  0  0
 28 99  1  0  0  0
 28100  1  0  0  0
 29101  1  0  0  0
 29102  1  0  0  0
 33 34  1  0  0  0
 33 66  1  0  0  0
 33 70  2  0  0  0
 34 36  1  0  0  0
 34 59  1  0  0  0
 34103  1  0  0  0
 35 44  2  0  0  0
 35 45  1  0  0  0
 35 68  1  0  0  0
 36 56  1  0  0  0
 36104  1  0  0  0
 37 39  1  0  0  0
 37 47  1  0  0  0
 37 66  1  0  0  0
 37105  1  0  0  0
 38 43  2  0  0  0
 38 46  1  0  0  0
 38 47  1  0  0  0
 39 64  1  0  0  0
 39 67  2  0  0  0
 40 52  1  0  0  0
 40 53  2  0  0  0
 40 58  1  0  0  0
 41106  1  0  0  0
 41107  1  0  0  0
 41108  1  0  0  0
 41 48  1  0  0  0
 42 43  1  0  0  0
 42 66  1  0  0  0
 42109  1  0  0  0
 42110  1  0  0  0
 43 44  1  0  0  0
 44111  1  0  0  0
 45 46  2  0  0  0
 45112  1  0  0  0
 46113  1  0  0  0
 47114  1  0  0  0
 47115  1  0  0  0
 48 56  1  0  0  0
 48 65  1  0  0  0
 48116  1  0  0  0
 49 50  1  0  0  0
 49 53  1  0  0  0
 49 64  1  0  0  0
 49117  1  0  0  0
 50 51  1  0  0  0
 50118  1  0  0  0
 50119  1  0  0  0
 51 52  1  0  0  0
 51120  1  0  0  0
 51121  1  0  0  0
 52122  1  0  0  0
 52123  1  0  0  0
 53 54  1  0  0  0
 54 55  2  0  0  0
 54124  1  0  0  0
 55 57  1  0  0  0
 55125  1  0  0  0
 56 69  2  0  0  0
 57 58  2  0  0  0
 57126  1  0  0  0
 58127  1  0  0  0
 59 60  1  0  0  0
 59 61  1  0  0  0
 59 62  1  0  0  0
 60128  1  0  0  0
 60129  1  0  0  0
 60130  1  0  0  0
 61131  1  0  0  0
 61132  1  0  0  0
 61133  1  0  0  0
 62134  1  0  0  0
 62135  1  0  0  0
 62136  1  0  0  0
 63 65  1  0  0  0
 63137  1  0  0  0
 63138  1  0  0  0
 63139  1  0  0  0
 64140  1  0  0  0
 65141  1  0  0  0
 68 78  1  0  0  0
 71 72  1  0  0  0
 71 73  2  0  0  0
 71142  1  0  0  0
 72 74  2  0  0  0
 72 75  1  0  0  0
 73 80  1  0  0  0
 73 82  1  0  0  0
 74 79  1  0  0  0
 74 82  1  0  0  0
 75 77  1  0  0  0
 75 81  2  0  0  0
 76143  1  0  0  0
 76144  1  0  0  0
 76145  1  0  0  0
 76 78  1  0  0  0
 77 78  1  0  0  0
 77146  1  0  0  0
 77147  1  0  0  0
 78148  1  0  0  0
 79149  1  0  0  0
 79150  1  0  0  0
 80151  1  0  0  0
M  ISO  4   1 100  68 101  78 101  80 100
M  END
> <chiral flag>
0

> <version>
0

> <s_m_source_file>
/data/baiqing/PycharmProjects/Reinvent-master-3.2/result/LINK_invent/BTK/process_docking_weight1_custom_product_contain_oxygen_bond_distance_aromatic_linkinvent_7_9_3/rearranged_h_0158.sdf

> <i_m_source_file_index>
32

> <r_mmod_Potential_Energy-OPLS-2005>
689.306030273438

> <r_mmod_Stretch_Energy-OPLS-2005>
325.533142089844

> <r_mmod_Bend_Energy-OPLS-2005>
346.247467041016

> <r_mmod_Torsional_Energy-OPLS-2005>
240.304977416992

> <r_mmod_Improper_Torsional_Energy-OPLS-2005>
5.90481472015381

> <r_mmod_Van_der_Waal_Energy-OPLS-2005>
112.497459411621

> <r_mmod_Electrostatic_Energy-OPLS-2005>
-347.947204589844

> <r_mmod_Solvation_Energy-OPLS-2005>
-236.883560180664

> <b_mmod_Minimization_Converged-OPLS-2005>
0

> <r_mmod_RMS_Derivative-OPLS-2005>
5.34829521179199

$$$$
32
                    3D
 Structure written by MMmdl.
160169  0  0  1  0            999 V2000
  -30.5408  -14.8528   20.4324 C   0  0  0  0  0  0
  -30.4447  -12.5218   19.4801 C   0  0  0  0  0  0
  -29.5172  -12.5065   18.2426 C   0  0  0  0  0  0
  -28.0453  -12.3105   18.6592 C   0  0  0  0  0  0
  -27.6348  -13.2295   19.8401 C   0  0  2  0  0  0
  -28.6791  -13.2031   20.9755 C   0  0  0  0  0  0
  -25.2496  -13.8170   20.5684 C   0  0  0  0  0  0
  -24.1788  -13.0414   20.9200 C   0  0  0  0  0  0
  -24.6389  -11.6892   20.8747 C   0  0  0  0  0  0
  -23.9065  -10.4285   21.0413 C   0  0  0  0  0  0
  -24.3620   -9.4206   21.9194 C   0  0  0  0  0  0
  -23.6302   -8.2243   22.0763 C   0  0  0  0  0  0
  -22.4279   -8.0274   21.3553 C   0  0  0  0  0  0
  -21.9911   -9.0251   20.4643 C   0  0  0  0  0  0
  -22.7238  -10.2128   20.3061 C   0  0  0  0  0  0
  -21.6846   -6.0731   22.5287 C   0  0  0  0  0  0
  -21.4013   -6.5645   23.8210 C   0  0  0  0  0  0
  -21.3651   -5.6790   24.9176 C   0  0  0  0  0  0
  -21.6046   -4.3060   24.7218 C   0  0  0  0  0  0
  -21.8818   -3.8146   23.4345 C   0  0  0  0  0  0
  -21.9201   -4.6970   22.3398 C   0  0  0  0  0  0
  -22.7823  -13.5207   21.1871 C   0  0  0  0  0  0
  -22.1665   -4.2155   21.0979 F   0  0  0  0  0  0
  -21.5627   -3.4540   25.7734 F   0  0  0  0  0  0
  -29.9609  -13.5973   20.3814 N   0  0  0  0  0  0
  -26.2906  -12.9366   20.3233 N   0  0  0  0  0  0
  -25.9320  -11.6516   20.5744 N   0  0  0  0  0  0
  -22.0484  -12.8200   22.0423 N   0  0  0  0  0  0
  -25.4154  -15.1901   20.4093 N   0  0  0  0  0  0
  -31.7486  -14.9544   20.1867 O   0  0  0  0  0  0
  -21.6638   -6.8880   21.4240 O   0  0  0  0  0  0
  -22.3500  -14.5514   20.6710 O   0  0  0  0  0  0
  -24.6334  -31.8466   23.1886 C   0  0  0  0  0  0
  -25.9137  -32.4714   23.8284 C   0  0  1  0  0  0
  -27.2238  -27.2062   20.1606 C   0  0  0  0  0  0
  -25.5917  -33.8520   24.2212 N   0  0  0  0  0  0
  -23.4347  -30.4655   21.5322 C   0  0  2  0  0  0
  -24.8854  -28.8987   20.1107 C   0  0  0  0  0  0
  -22.7523  -29.4537   22.4861 C   0  0  0  0  0  0
  -18.0273  -28.1398   22.8466 C   0  0  0  0  0  0
  -24.1478  -36.7247   23.2652 C   0  0  0  0  0  0
  -25.9846  -30.7458   21.3757 C   0  0  0  0  0  0
  -26.0563  -29.3610   20.7248 C   0  0  0  0  0  0
  -27.2271  -28.5309   20.7303 C   0  0  0  0  0  0
  -26.0325  -26.8177   19.5158 C   0  0  0  0  0  0
  -24.8834  -27.6389   19.4903 C   0  0  0  0  0  0
  -23.6562  -29.7912   20.1505 C   0  0  0  0  0  0
  -25.4105  -36.3029   24.0323 C   0  0  1  0  0  0
  -20.5898  -28.3679   23.1259 C   0  0  2  0  0  0
  -20.6764  -26.9400   22.5396 C   0  0  0  0  0  0
  -19.5738  -26.6363   21.5205 C   0  0  0  0  0  0
  -18.1911  -26.7946   22.1599 C   0  0  0  0  0  0
  -19.1541  -28.8863   23.2843 C   0  0  0  0  0  0
  -18.9466  -30.1484   23.8842 C   0  0  0  0  0  0
  -17.6465  -30.6608   24.0551 C   0  0  0  0  0  0
  -25.9043  -34.9417   23.5069 C   0  0  0  0  0  0
  -16.5350  -29.9097   23.6360 C   0  0  0  0  0  0
  -16.7257  -28.6518   23.0363 C   0  0  0  0  0  0
  -26.4509  -31.6579   25.0700 C   0  0  0  0  0  0
  -25.3716  -31.3731   26.1403 C   0  0  0  0  0  0
  -27.0405  -30.3003   24.6237 C   0  0  0  0  0  0
  -27.6049  -32.4361   25.7458 C   0  0  0  0  0  0
  -27.5572  -37.1759   24.8474 C   0  0  0  0  0  0
  -21.4212  -29.3030   22.3642 N   0  0  0  0  0  0
  -26.4262  -37.3749   23.9440 N   0  0  0  0  0  0
  -24.7034  -31.0413   22.0866 N   0  0  0  0  0  0
  -23.4217  -28.8046   23.2922 O   0  0  0  0  0  0
  -28.3176  -26.2989   20.1991 O   0  0  0  0  0  0
  -26.5622  -34.8911   22.4646 O   0  0  0  0  0  0
  -23.5466  -32.1291   23.7154 O   0  0  0  0  0  0
  -30.7189  -19.4613   21.0301 C   0  0  0  0  0  0
  -30.9713  -18.0370   21.1010 C   0  0  0  0  0  0
  -29.5049  -19.7093   20.4261 C   0  0  0  0  0  0
  -29.9019  -17.3821   20.5471 C   0  0  0  0  0  0
  -28.7668  -20.9583   19.9136 C   0  0  0  0  0  0
  -27.0787  -24.8147   21.7423 C   0  0  0  0  0  0
  -29.4904  -24.4015   21.3883 C   0  0  0  0  0  0
  -29.4674  -22.8398   21.5383 C   0  0  0  0  0  0
  -28.1150  -23.5555   19.7081 C   0  0  0  0  0  0
  -28.1773  -24.8534   20.6852 C   0  0  2  0  0  0
  -28.7650  -22.3117   20.3568 N   0  0  0  0  0  0
  -27.2206  -25.5475   22.8553 N   0  0  0  0  0  0
  -29.6947  -15.9761   20.4945 N   0  0  0  0  0  0
  -28.0353  -20.7142   18.8155 N   0  3  0  0  0  0
  -25.9704  -24.0794   21.5842 N   0  3  0  0  0  0
  -28.9929  -18.4009   20.1361 O   0  0  0  0  0  0
  -31.4782  -12.6804   19.1708 H   0  0  0  0  0  0
  -30.4331  -11.5559   19.9913 H   0  0  0  0  0  0
  -29.8234  -11.7224   17.5495 H   0  0  0  0  0  0
  -29.6192  -13.4477   17.7003 H   0  0  0  0  0  0
  -27.9235  -11.2676   18.9505 H   0  0  0  0  0  0
  -27.3855  -12.4702   17.8063 H   0  0  0  0  0  0
  -27.6116  -14.2399   19.4322 H   0  0  0  0  0  0
  -28.7504  -12.2099   21.4246 H   0  0  0  0  0  0
  -28.3995  -13.8873   21.7778 H   0  0  0  0  0  0
  -25.2768   -9.5687   22.4760 H   0  0  0  0  0  0
  -24.0014   -7.4624   22.7486 H   0  0  0  0  0  0
  -21.0840   -8.8746   19.8943 H   0  0  0  0  0  0
  -22.3693  -10.9660   19.6156 H   0  0  0  0  0  0
  -21.2000   -7.6151   23.9716 H   0  0  0  0  0  0
  -21.1471   -6.0525   25.9075 H   0  0  0  0  0  0
  -22.0611   -2.7615   23.2833 H   0  0  0  0  0  0
  -22.4089  -11.9825   22.4747 H   0  0  0  0  0  0
  -21.1121  -13.1227   22.2682 H   0  0  0  0  0  0
  -24.6381  -15.8343   20.5144 H   0  0  0  0  0  0
  -26.2482  -15.6363   20.0485 H   0  0  0  0  0  0
  -26.7201  -32.5331   23.1021 H   0  0  0  0  0  0
  -25.0180  -33.9698   25.0442 H   0  0  0  0  0  0
  -22.7338  -31.2885   21.3766 H   0  0  0  0  0  0
  -23.3771  -35.9558   23.3292 H   0  0  0  0  0  0
  -24.3571  -36.8874   22.2075 H   0  0  0  0  0  0
  -23.7214  -37.6422   23.6691 H   0  0  0  0  0  0
  -26.1426  -31.5014   20.6041 H   0  0  0  0  0  0
  -26.8550  -30.7889   22.0181 H   0  0  0  0  0  0
  -28.1258  -28.8835   21.2167 H   0  0  0  0  0  0
  -25.9805  -25.8537   19.0315 H   0  0  0  0  0  0
  -23.9885  -27.2833   18.9966 H   0  0  0  0  0  0
  -23.7808  -30.5597   19.3866 H   0  0  0  0  0  0
  -22.7748  -29.2218   19.8473 H   0  0  0  0  0  0
  -25.1312  -36.1830   25.0814 H   0  0  0  0  0  0
  -20.9973  -28.3230   24.1375 H   0  0  0  0  0  0
  -20.5667  -26.2282   23.3599 H   0  0  0  0  0  0
  -21.6628  -26.7429   22.1179 H   0  0  0  0  0  0
  -19.6889  -25.6263   21.1249 H   0  0  0  0  0  0
  -19.6682  -27.3162   20.6742 H   0  0  0  0  0  0
  -17.4191  -26.6699   21.3992 H   0  0  0  0  0  0
  -18.0280  -26.0110   22.9015 H   0  0  0  0  0  0
  -19.7946  -30.7318   24.2155 H   0  0  0  0  0  0
  -17.5027  -31.6283   24.5170 H   0  0  0  0  0  0
  -15.5358  -30.2986   23.7757 H   0  0  0  0  0  0
  -15.8634  -28.0830   22.7129 H   0  0  0  0  0  0
  -24.5924  -30.7043   25.7738 H   0  0  0  0  0  0
  -24.8893  -32.2904   26.4784 H   0  0  0  0  0  0
  -25.8028  -30.8934   27.0201 H   0  0  0  0  0  0
  -26.2997  -29.6683   24.1318 H   0  0  0  0  0  0
  -27.4178  -29.7326   25.4759 H   0  0  0  0  0  0
  -27.8839  -30.4344   23.9461 H   0  0  0  0  0  0
  -27.2668  -33.3731   26.1914 H   0  0  0  0  0  0
  -28.3903  -32.6798   25.0283 H   0  0  0  0  0  0
  -28.0673  -31.8551   26.5446 H   0  0  0  0  0  0
  -28.2553  -38.0093   24.7568 H   0  0  0  0  0  0
  -28.1081  -36.2618   24.6220 H   0  0  0  0  0  0
  -27.2294  -37.1329   25.8872 H   0  0  0  0  0  0
  -20.9384  -29.8740   21.6853 H   0  0  0  0  0  0
  -26.0102  -38.2794   24.1486 H   0  0  0  0  0  0
  -31.3982  -20.2362   21.3552 H   0  0  0  0  0  0
  -31.8430  -17.5538   21.5239 H   0  0  0  0  0  0
  -30.3527  -24.6863   20.7826 H   0  0  0  0  0  0
  -29.6317  -24.8707   22.3599 H   0  0  0  0  0  0
  -28.9198  -22.5427   22.4338 H   0  0  0  0  0  0
  -30.4763  -22.4385   21.6186 H   0  0  0  0  0  0
  -28.6858  -23.7680   18.8029 H   0  0  0  0  0  0
  -27.0991  -23.3523   19.3794 H   0  0  0  0  0  0
  -28.0370  -26.1262   22.9636 H   0  0  0  0  0  0
  -26.5302  -25.5923   23.5880 H   0  0  0  0  0  0
  -28.7215  -15.7160   20.4814 H   0  0  0  0  0  0
  -28.0282  -19.7748   18.4433 H   0  0  0  0  0  0
  -27.5349  -21.4267   18.3091 H   0  0  0  0  0  0
  -25.7983  -23.5691   20.7340 H   0  0  0  0  0  0
  -25.2465  -24.0484   22.2856 H   0  0  0  0  0  0
  1 25  1  0  0  0
  1 30  2  0  0  0
  1 83  1  0  0  0
  2  3  1  0  0  0
  2 25  1  0  0  0
  2 87  1  0  0  0
  2 88  1  0  0  0
  3  4  1  0  0  0
  3 89  1  0  0  0
  3 90  1  0  0  0
  4  5  1  0  0  0
  4 91  1  0  0  0
  4 92  1  0  0  0
  5  6  1  0  0  0
  5 26  1  0  0  0
  5 93  1  0  0  0
  6 25  1  0  0  0
  6 94  1  0  0  0
  6 95  1  0  0  0
  7  8  2  0  0  0
  7 26  1  0  0  0
  7 29  1  0  0  0
  8  9  1  0  0  0
  8 22  1  0  0  0
  9 10  1  0  0  0
  9 27  2  0  0  0
 10 11  2  0  0  0
 10 15  1  0  0  0
 11 12  1  0  0  0
 11 96  1  0  0  0
 12 13  2  0  0  0
 12 97  1  0  0  0
 13 14  1  0  0  0
 13 31  1  0  0  0
 14 15  2  0  0  0
 14 98  1  0  0  0
 15 99  1  0  0  0
 16 17  2  0  0  0
 16 21  1  0  0  0
 16 31  1  0  0  0
 17 18  1  0  0  0
 17100  1  0  0  0
 18 19  2  0  0  0
 18101  1  0  0  0
 19 20  1  0  0  0
 19 24  1  0  0  0
 20 21  2  0  0  0
 20102  1  0  0  0
 21 23  1  0  0  0
 22 28  1  0  0  0
 22 32  2  0  0  0
 26 27  1  0  0  0
 28103  1  0  0  0
 28104  1  0  0  0
 29105  1  0  0  0
 29106  1  0  0  0
 33 34  1  0  0  0
 33 66  1  0  0  0
 33 70  2  0  0  0
 34 36  1  0  0  0
 34 59  1  0  0  0
 34107  1  0  0  0
 35 44  2  0  0  0
 35 45  1  0  0  0
 35 68  1  0  0  0
 36 56  1  0  0  0
 36108  1  0  0  0
 37 39  1  0  0  0
 37 47  1  0  0  0
 37 66  1  0  0  0
 37109  1  0  0  0
 38 43  2  0  0  0
 38 46  1  0  0  0
 38 47  1  0  0  0
 39 64  1  0  0  0
 39 67  2  0  0  0
 40 52  1  0  0  0
 40 53  2  0  0  0
 40 58  1  0  0  0
 41110  1  0  0  0
 41111  1  0  0  0
 41112  1  0  0  0
 41 48  1  0  0  0
 42 43  1  0  0  0
 42 66  1  0  0  0
 42113  1  0  0  0
 42114  1  0  0  0
 43 44  1  0  0  0
 44115  1  0  0  0
 45 46  2  0  0  0
 45116  1  0  0  0
 46117  1  0  0  0
 47118  1  0  0  0
 47119  1  0  0  0
 48 56  1  0  0  0
 48 65  1  0  0  0
 48120  1  0  0  0
 49 50  1  0  0  0
 49 53  1  0  0  0
 49 64  1  0  0  0
 49121  1  0  0  0
 50 51  1  0  0  0
 50122  1  0  0  0
 50123  1  0  0  0
 51 52  1  0  0  0
 51124  1  0  0  0
 51125  1  0  0  0
 52126  1  0  0  0
 52127  1  0  0  0
 53 54  1  0  0  0
 54 55  2  0  0  0
 54128  1  0  0  0
 55 57  1  0  0  0
 55129  1  0  0  0
 56 69  2  0  0  0
 57 58  2  0  0  0
 57130  1  0  0  0
 58131  1  0  0  0
 59 60  1  0  0  0
 59 61  1  0  0  0
 59 62  1  0  0  0
 60132  1  0  0  0
 60133  1  0  0  0
 60134  1  0  0  0
 61135  1  0  0  0
 61136  1  0  0  0
 61137  1  0  0  0
 62138  1  0  0  0
 62139  1  0  0  0
 62140  1  0  0  0
 63 65  1  0  0  0
 63141  1  0  0  0
 63142  1  0  0  0
 63143  1  0  0  0
 64144  1  0  0  0
 65145  1  0  0  0
 68 80  1  0  0  0
 71 72  1  0  0  0
 71 73  2  0  0  0
 71146  1  0  0  0
 72 74  2  0  0  0
 72147  1  0  0  0
 73 75  1  0  0  0
 73 86  1  0  0  0
 74 83  1  0  0  0
 74 86  1  0  0  0
 75 81  1  0  0  0
 75 84  2  0  0  0
 76 82  1  0  0  0
 76 85  2  0  0  0
 76 80  1  0  0  0
 77 78  1  0  0  0
 77 80  1  0  0  0
 77148  1  0  0  0
 77149  1  0  0  0
 78 81  1  0  0  0
 78150  1  0  0  0
 78151  1  0  0  0
 79 80  1  0  0  0
 79 81  1  0  0  0
 79152  1  0  0  0
 79153  1  0  0  0
 82154  1  0  0  0
 82155  1  0  0  0
 83156  1  0  0  0
 84157  1  0  0  0
 84158  1  0  0  0
 85159  1  0  0  0
 85160  1  0  0  0
M  CHG  2  84   1  85   1
M  ISO  4   1 100  68 101  80 101  83 100
M  END
> <chiral flag>
0

> <version>
0

> <s_m_source_file>
/data/baiqing/PycharmProjects/Reinvent-master-3.2/result/LINK_invent/BTK/process_docking_weight1_custom_product_contain_oxygen_bond_distance_aromatic_linkinvent_7_9_3/rearranged_h_0158.sdf

> <i_m_source_file_index>
33

> <r_mmod_Potential_Energy-OPLS-2005>
-128.951934814453

> <r_mmod_Stretch_Energy-OPLS-2005>
161.840133666992

> <r_mmod_Bend_Energy-OPLS-2005>
241.84944152832

> <r_mmod_Torsional_Energy-OPLS-2005>
284.844177246094

> <r_mmod_Improper_Torsional_Energy-OPLS-2005>
7.17802333831787

> <r_mmod_Van_der_Waal_Energy-OPLS-2005>
108.496780395508

> <r_mmod_Electrostatic_Energy-OPLS-2005>
-68.5355682373047

> <r_mmod_Solvation_Energy-OPLS-2005>
-996.496154785156

> <b_mmod_Minimization_Converged-OPLS-2005>
0

> <r_mmod_RMS_Derivative-OPLS-2005>
3.90053677558899

$$$$
33
                    3D
 Structure written by MMmdl.
147155  0  0  1  0            999 V2000
  -30.5848  -14.7198   20.4713 C   0  0  0  0  0  0
  -30.4453  -12.4381   19.4607 C   0  0  0  0  0  0
  -29.5121  -12.5047   18.2298 C   0  0  0  0  0  0
  -28.0369  -12.3281   18.6443 C   0  0  0  0  0  0
  -27.6466  -13.2181   19.8536 C   0  0  2  0  0  0
  -28.6927  -13.1147   20.9861 C   0  0  0  0  0  0
  -25.2537  -13.8166   20.5678 C   0  0  0  0  0  0
  -24.1818  -13.0431   20.9214 C   0  0  0  0  0  0
  -24.6390  -11.6903   20.8752 C   0  0  0  0  0  0
  -23.9064  -10.4287   21.0413 C   0  0  0  0  0  0
  -24.3614   -9.4200   21.9188 C   0  0  0  0  0  0
  -23.6290   -8.2236   22.0753 C   0  0  0  0  0  0
  -22.4274   -8.0277   21.3543 C   0  0  0  0  0  0
  -21.9909   -9.0252   20.4646 C   0  0  0  0  0  0
  -22.7238  -10.2132   20.3058 C   0  0  0  0  0  0
  -21.6852   -6.0735   22.5279 C   0  0  0  0  0  0
  -21.4011   -6.5638   23.8213 C   0  0  0  0  0  0
  -21.3659   -5.6791   24.9174 C   0  0  0  0  0  0
  -21.6045   -4.3054   24.7225 C   0  0  0  0  0  0
  -21.8820   -3.8146   23.4347 C   0  0  0  0  0  0
  -21.9191   -4.6963   22.3402 C   0  0  0  0  0  0
  -22.7840  -13.5223   21.1875 C   0  0  0  0  0  0
  -22.1661   -4.2147   21.0981 F   0  0  0  0  0  0
  -21.5630   -3.4538   25.7740 F   0  0  0  0  0  0
  -29.9987  -13.4762   20.4142 N   0  0  0  0  0  0
  -26.2956  -12.9345   20.3276 N   0  0  0  0  0  0
  -25.9315  -11.6504   20.5745 N   0  0  0  0  0  0
  -22.0482  -12.8212   22.0429 N   0  0  0  0  0  0
  -25.4229  -15.1890   20.4067 N   0  0  0  0  0  0
  -31.7699  -14.8670   20.1523 O   0  0  0  0  0  0
  -21.6637   -6.8877   21.4241 O   0  0  0  0  0  0
  -22.3529  -14.5531   20.6723 O   0  0  0  0  0  0
  -24.6282  -31.8566   23.1984 C   0  0  0  0  0  0
  -25.9117  -32.4765   23.8329 C   0  0  1  0  0  0
  -27.2305  -27.2902   20.1354 C   0  0  0  0  0  0
  -25.5923  -33.8565   24.2259 N   0  0  0  0  0  0
  -23.4253  -30.4765   21.5408 C   0  0  2  0  0  0
  -24.8749  -28.9191   20.1169 C   0  0  0  0  0  0
  -22.7488  -29.4607   22.4923 C   0  0  0  0  0  0
  -18.0291  -28.1392   22.8492 C   0  0  0  0  0  0
  -24.1488  -36.7285   23.2640 C   0  0  0  0  0  0
  -25.9672  -30.7796   21.3716 C   0  0  0  0  0  0
  -26.0445  -29.4015   20.7194 C   0  0  0  0  0  0
  -27.2287  -28.6016   20.7118 C   0  0  0  0  0  0
  -26.0393  -26.8590   19.5167 C   0  0  0  0  0  0
  -24.8755  -27.6547   19.5044 C   0  0  0  0  0  0
  -23.6439  -29.8043   20.1594 C   0  0  0  0  0  0
  -25.4114  -36.3075   24.0329 C   0  0  1  0  0  0
  -20.5894  -28.3696   23.1281 C   0  0  2  0  0  0
  -20.6778  -26.9416   22.5412 C   0  0  0  0  0  0
  -19.5748  -26.6390   21.5216 C   0  0  0  0  0  0
  -18.1931  -26.7934   22.1632 C   0  0  0  0  0  0
  -19.1544  -28.8859   23.2883 C   0  0  0  0  0  0
  -18.9466  -30.1465   23.8897 C   0  0  0  0  0  0
  -17.6465  -30.6593   24.0568 C   0  0  0  0  0  0
  -25.9053  -34.9445   23.5096 C   0  0  0  0  0  0
  -16.5356  -29.9090   23.6338 C   0  0  0  0  0  0
  -16.7278  -28.6510   23.0356 C   0  0  0  0  0  0
  -26.4492  -31.6582   25.0707 C   0  0  0  0  0  0
  -25.3721  -31.3741   26.1435 C   0  0  0  0  0  0
  -27.0331  -30.2999   24.6173 C   0  0  0  0  0  0
  -27.6052  -32.4313   25.7480 C   0  0  0  0  0  0
  -27.5580  -37.1798   24.8466 C   0  0  0  0  0  0
  -21.4197  -29.3041   22.3667 N   0  0  0  0  0  0
  -26.4289  -37.3772   23.9410 N   0  0  0  0  0  0
  -24.6927  -31.0553   22.0942 N   0  0  0  0  0  0
  -23.4193  -28.8157   23.3029 O   0  0  0  0  0  0
  -28.3406  -26.4284   20.1266 O   0  0  0  0  0  0
  -26.5627  -34.8915   22.4665 O   0  0  0  0  0  0
  -23.5438  -32.1370   23.7291 O   0  0  0  0  0  0
  -30.6226  -19.4193   20.8019 C   0  0  0  0  0  0
  -29.3758  -19.8028   20.3250 C   0  0  0  0  0  0
  -29.8125  -17.2444   20.5513 C   0  0  0  0  0  0
  -28.6376  -23.7863   19.9453 C   0  0  0  0  0  0
  -29.0731  -22.4272   20.6817 C   0  0  0  0  0  0
  -28.1965  -25.0833   20.7669 C   0  0  0  0  0  0
  -30.8579  -18.0114   20.9119 N   0  0  0  0  0  0
  -28.8061  -21.1003   20.0001 N   0  0  0  0  0  0
  -29.7203  -15.7767   20.6776 N   0  0  0  0  0  0
  -28.6224  -23.8132   18.7102 O   0  0  0  0  0  0
  -28.4509  -18.3036   20.0414 S   0  0  0  0  0  0
  -31.4826  -12.5830   19.1537 H   0  0  0  0  0  0
  -30.4048  -11.4517   19.9257 H   0  0  0  0  0  0
  -29.7895  -11.7383   17.5047 H   0  0  0  0  0  0
  -29.6383  -13.4630   17.7238 H   0  0  0  0  0  0
  -27.8912  -11.2780   18.8999 H   0  0  0  0  0  0
  -27.3787  -12.5280   17.7978 H   0  0  0  0  0  0
  -27.6486  -14.2432   19.4843 H   0  0  0  0  0  0
  -28.7234  -12.1024   21.3923 H   0  0  0  0  0  0
  -28.4288  -13.7646   21.8223 H   0  0  0  0  0  0
  -25.2761   -9.5675   22.4761 H   0  0  0  0  0  0
  -24.0003   -7.4624   22.7465 H   0  0  0  0  0  0
  -21.0843   -8.8770   19.8948 H   0  0  0  0  0  0
  -22.3699  -10.9670   19.6166 H   0  0  0  0  0  0
  -21.2003   -7.6144   23.9715 H   0  0  0  0  0  0
  -21.1481   -6.0521   25.9077 H   0  0  0  0  0  0
  -22.0599   -2.7608   23.2847 H   0  0  0  0  0  0
  -22.4094  -11.9869   22.4812 H   0  0  0  0  0  0
  -21.1098  -13.1233   22.2634 H   0  0  0  0  0  0
  -24.6466  -15.8342   20.5065 H   0  0  0  0  0  0
  -26.2475  -15.6263   20.0179 H   0  0  0  0  0  0
  -26.7185  -32.5425   23.1077 H   0  0  0  0  0  0
  -25.0069  -33.9705   25.0405 H   0  0  0  0  0  0
  -22.7217  -31.2981   21.3926 H   0  0  0  0  0  0
  -23.3752  -35.9614   23.3299 H   0  0  0  0  0  0
  -24.3584  -36.8907   22.2055 H   0  0  0  0  0  0
  -23.7231  -37.6482   23.6662 H   0  0  0  0  0  0
  -26.0991  -31.5395   20.6003 H   0  0  0  0  0  0
  -26.8472  -30.8332   22.0012 H   0  0  0  0  0  0
  -28.1301  -28.9721   21.1799 H   0  0  0  0  0  0
  -26.0076  -25.8877   19.0434 H   0  0  0  0  0  0
  -23.9797  -27.2810   19.0273 H   0  0  0  0  0  0
  -23.7674  -30.5770   19.3997 H   0  0  0  0  0  0
  -22.7632  -29.2345   19.8571 H   0  0  0  0  0  0
  -25.1295  -36.1925   25.0821 H   0  0  0  0  0  0
  -20.9995  -28.3268   24.1397 H   0  0  0  0  0  0
  -20.5683  -26.2303   23.3613 H   0  0  0  0  0  0
  -21.6646  -26.7443   22.1206 H   0  0  0  0  0  0
  -19.6910  -25.6300   21.1248 H   0  0  0  0  0  0
  -19.6689  -27.3200   20.6747 H   0  0  0  0  0  0
  -17.4205  -26.6689   21.4029 H   0  0  0  0  0  0
  -18.0332  -26.0072   22.9027 H   0  0  0  0  0  0
  -19.7938  -30.7289   24.2256 H   0  0  0  0  0  0
  -17.5018  -31.6271   24.5172 H   0  0  0  0  0  0
  -15.5358  -30.2995   23.7654 H   0  0  0  0  0  0
  -15.8681  -28.0831   22.7064 H   0  0  0  0  0  0
  -24.5886  -30.7096   25.7771 H   0  0  0  0  0  0
  -24.8923  -32.2917   26.4847 H   0  0  0  0  0  0
  -25.8040  -30.8927   27.0216 H   0  0  0  0  0  0
  -26.2903  -29.6751   24.1195 H   0  0  0  0  0  0
  -27.4019  -29.7257   25.4684 H   0  0  0  0  0  0
  -27.8779  -30.4281   23.9402 H   0  0  0  0  0  0
  -27.2672  -33.3625   26.2039 H   0  0  0  0  0  0
  -28.3874  -32.6850   25.0314 H   0  0  0  0  0  0
  -28.0700  -31.8441   26.5409 H   0  0  0  0  0  0
  -28.2601  -38.0094   24.7520 H   0  0  0  0  0  0
  -28.1075  -36.2627   24.6285 H   0  0  0  0  0  0
  -27.2304  -37.1440   25.8872 H   0  0  0  0  0  0
  -20.9375  -29.8762   21.6873 H   0  0  0  0  0  0
  -26.0170  -38.2845   24.1416 H   0  0  0  0  0  0
  -31.4329  -20.0856   21.0623 H   0  0  0  0  0  0
  -28.5803  -22.4157   21.6545 H   0  0  0  0  0  0
  -30.1410  -22.5026   20.8891 H   0  0  0  0  0  0
  -28.7782  -25.0967   21.6885 H   0  0  0  0  0  0
  -27.1613  -24.9365   21.0754 H   0  0  0  0  0  0
  -27.9171  -21.0892   19.5036 H   0  0  0  0  0  0
  -28.7775  -15.4536   20.8188 H   0  0  0  0  0  0
  1 25  1  0  0  0
  1 30  2  0  0  0
  1 79  1  0  0  0
  2  3  1  0  0  0
  2 25  1  0  0  0
  2 82  1  0  0  0
  2 83  1  0  0  0
  3  4  1  0  0  0
  3 84  1  0  0  0
  3 85  1  0  0  0
  4  5  1  0  0  0
  4 86  1  0  0  0
  4 87  1  0  0  0
  5  6  1  0  0  0
  5 26  1  0  0  0
  5 88  1  0  0  0
  6 25  1  0  0  0
  6 89  1  0  0  0
  6 90  1  0  0  0
  7  8  2  0  0  0
  7 26  1  0  0  0
  7 29  1  0  0  0
  8  9  1  0  0  0
  8 22  1  0  0  0
  9 10  1  0  0  0
  9 27  2  0  0  0
 10 11  2  0  0  0
 10 15  1  0  0  0
 11 12  1  0  0  0
 11 91  1  0  0  0
 12 13  2  0  0  0
 12 92  1  0  0  0
 13 14  1  0  0  0
 13 31  1  0  0  0
 14 15  2  0  0  0
 14 93  1  0  0  0
 15 94  1  0  0  0
 16 17  2  0  0  0
 16 21  1  0  0  0
 16 31  1  0  0  0
 17 18  1  0  0  0
 17 95  1  0  0  0
 18 19  2  0  0  0
 18 96  1  0  0  0
 19 20  1  0  0  0
 19 24  1  0  0  0
 20 21  2  0  0  0
 20 97  1  0  0  0
 21 23  1  0  0  0
 22 28  1  0  0  0
 22 32  2  0  0  0
 26 27  1  0  0  0
 28 98  1  0  0  0
 28 99  1  0  0  0
 29100  1  0  0  0
 29101  1  0  0  0
 33 34  1  0  0  0
 33 66  1  0  0  0
 33 70  2  0  0  0
 34 36  1  0  0  0
 34 59  1  0  0  0
 34102  1  0  0  0
 35 44  2  0  0  0
 35 45  1  0  0  0
 35 68  1  0  0  0
 36 56  1  0  0  0
 36103  1  0  0  0
 37 39  1  0  0  0
 37 47  1  0  0  0
 37 66  1  0  0  0
 37104  1  0  0  0
 38 43  2  0  0  0
 38 46  1  0  0  0
 38 47  1  0  0  0
 39 64  1  0  0  0
 39 67  2  0  0  0
 40 52  1  0  0  0
 40 53  2  0  0  0
 40 58  1  0  0  0
 41105  1  0  0  0
 41106  1  0  0  0
 41107  1  0  0  0
 41 48  1  0  0  0
 42 43  1  0  0  0
 42 66  1  0  0  0
 42108  1  0  0  0
 42109  1  0  0  0
 43 44  1  0  0  0
 44110  1  0  0  0
 45 46  2  0  0  0
 45111  1  0  0  0
 46112  1  0  0  0
 47113  1  0  0  0
 47114  1  0  0  0
 48 56  1  0  0  0
 48 65  1  0  0  0
 48115  1  0  0  0
 49 50  1  0  0  0
 49 53  1  0  0  0
 49 64  1  0  0  0
 49116  1  0  0  0
 50 51  1  0  0  0
 50117  1  0  0  0
 50118  1  0  0  0
 51 52  1  0  0  0
 51119  1  0  0  0
 51120  1  0  0  0
 52121  1  0  0  0
 52122  1  0  0  0
 53 54  1  0  0  0
 54 55  2  0  0  0
 54123  1  0  0  0
 55 57  1  0  0  0
 55124  1  0  0  0
 56 69  2  0  0  0
 57 58  2  0  0  0
 57125  1  0  0  0
 58126  1  0  0  0
 59 60  1  0  0  0
 59 61  1  0  0  0
 59 62  1  0  0  0
 60127  1  0  0  0
 60128  1  0  0  0
 60129  1  0  0  0
 61130  1  0  0  0
 61131  1  0  0  0
 61132  1  0  0  0
 62133  1  0  0  0
 62134  1  0  0  0
 62135  1  0  0  0
 63 65  1  0  0  0
 63136  1  0  0  0
 63137  1  0  0  0
 63138  1  0  0  0
 64139  1  0  0  0
 65140  1  0  0  0
 68 76  1  0  0  0
 71 72  2  0  0  0
 71 77  1  0  0  0
 71141  1  0  0  0
 72 78  1  0  0  0
 72 81  1  0  0  0
 73 77  2  0  0  0
 73 79  1  0  0  0
 73 81  1  0  0  0
 74 75  1  0  0  0
 74 76  1  0  0  0
 74 80  2  0  0  0
 75 78  1  0  0  0
 75142  1  0  0  0
 75143  1  0  0  0
 76144  1  0  0  0
 76145  1  0  0  0
 78146  1  0  0  0
 79147  1  0  0  0
M  ISO  4   1 100  68 101  76 101  79 100
M  END
> <chiral flag>
0

> <version>
0

> <s_m_source_file>
/data/baiqing/PycharmProjects/Reinvent-master-3.2/result/LINK_invent/BTK/process_docking_weight1_custom_product_contain_oxygen_bond_distance_aromatic_linkinvent_7_9_3/rearranged_h_0158.sdf

> <i_m_source_file_index>
34

> <r_mmod_Potential_Energy-OPLS-2005>
157.300384521484

> <r_mmod_Stretch_Energy-OPLS-2005>
100.637008666992

> <r_mmod_Bend_Energy-OPLS-2005>
158.832153320312

> <r_mmod_Torsional_Energy-OPLS-2005>
237.253631591797

> <r_mmod_Improper_Torsional_Energy-OPLS-2005>
7.34930038452148

> <r_mmod_Van_der_Waal_Energy-OPLS-2005>
110.440734863281

> <r_mmod_Electrostatic_Energy-OPLS-2005>
-260.347930908203

> <r_mmod_Solvation_Energy-OPLS-2005>
-266.898986816406

> <b_mmod_Minimization_Converged-OPLS-2005>
0

> <r_mmod_RMS_Derivative-OPLS-2005>
0.768872022628784

$$$$
34
                    3D
 Structure written by MMmdl.
162171  0  0  1  0            999 V2000
  -30.7229  -14.4726   20.5253 C   0  0  0  0  0  0
  -30.4199  -12.3032   19.4025 C   0  0  0  0  0  0
  -29.4880  -12.4830   18.1849 C   0  0  0  0  0  0
  -28.0118  -12.3586   18.6074 C   0  0  0  0  0  0
  -27.6616  -13.2107   19.8595 C   0  0  2  0  0  0
  -28.7145  -13.0160   20.9754 C   0  0  0  0  0  0
  -25.2629  -13.8169   20.5722 C   0  0  0  0  0  0
  -24.1877  -13.0441   20.9180 C   0  0  0  0  0  0
  -24.6395  -11.6889   20.8699 C   0  0  0  0  0  0
  -23.9024  -10.4281   21.0386 C   0  0  0  0  0  0
  -24.3581   -9.4201   21.9156 C   0  0  0  0  0  0
  -23.6246   -8.2251   22.0751 C   0  0  0  0  0  0
  -22.4229   -8.0288   21.3556 C   0  0  0  0  0  0
  -21.9836   -9.0267   20.4684 C   0  0  0  0  0  0
  -22.7173  -10.2133   20.3064 C   0  0  0  0  0  0
  -21.6843   -6.0705   22.5272 C   0  0  0  0  0  0
  -21.4018   -6.5615   23.8201 C   0  0  0  0  0  0
  -21.3650   -5.6784   24.9165 C   0  0  0  0  0  0
  -21.6033   -4.3046   24.7215 C   0  0  0  0  0  0
  -21.8836   -3.8117   23.4348 C   0  0  0  0  0  0
  -21.9206   -4.6934   22.3383 C   0  0  0  0  0  0
  -22.7894  -13.5283   21.1757 C   0  0  0  0  0  0
  -22.1674   -4.2117   21.0975 F   0  0  0  0  0  0
  -21.5573   -3.4534   25.7721 F   0  0  0  0  0  0
  -30.0385  -13.3066   20.4055 N   0  0  0  0  0  0
  -26.3066  -12.9347   20.3336 N   0  0  0  0  0  0
  -25.9354  -11.6490   20.5732 N   0  0  0  0  0  0
  -22.0479  -12.8385   22.0348 N   0  0  0  0  0  0
  -25.4297  -15.1890   20.4166 N   0  0  0  0  0  0
  -31.8771  -14.5995   20.1053 O   0  0  0  0  0  0
  -21.6620   -6.8870   21.4241 O   0  0  0  0  0  0
  -22.3623  -14.5536   20.6485 O   0  0  0  0  0  0
  -24.6135  -31.8689   23.2095 C   0  0  0  0  0  0
  -25.9044  -32.4828   23.8404 C   0  0  1  0  0  0
  -27.2359  -27.4286   20.0825 C   0  0  0  0  0  0
  -25.5901  -33.8624   24.2330 N   0  0  0  0  0  0
  -23.4024  -30.4922   21.5487 C   0  0  2  0  0  0
  -24.8487  -28.9564   20.1127 C   0  0  0  0  0  0
  -22.7412  -29.4669   22.4971 C   0  0  0  0  0  0
  -18.0273  -28.1392   22.8495 C   0  0  0  0  0  0
  -24.1469  -36.7290   23.2645 C   0  0  0  0  0  0
  -25.9339  -30.8250   21.3707 C   0  0  0  0  0  0
  -26.0070  -29.4600   20.7166 C   0  0  0  0  0  0
  -27.2000  -28.6984   20.7087 C   0  0  0  0  0  0
  -26.0540  -26.9365   19.4849 C   0  0  0  0  0  0
  -24.8672  -27.6945   19.4946 C   0  0  0  0  0  0
  -23.6103  -29.8256   20.1624 C   0  0  0  0  0  0
  -25.4099  -36.3109   24.0342 C   0  0  1  0  0  0
  -20.5867  -28.3680   23.1306 C   0  0  2  0  0  0
  -20.6766  -26.9405   22.5435 C   0  0  0  0  0  0
  -19.5748  -26.6387   21.5228 C   0  0  0  0  0  0
  -18.1921  -26.7944   22.1617 C   0  0  0  0  0  0
  -19.1529  -28.8850   23.2903 C   0  0  0  0  0  0
  -18.9457  -30.1450   23.8929 C   0  0  0  0  0  0
  -17.6461  -30.6595   24.0567 C   0  0  0  0  0  0
  -25.9045  -34.9482   23.5139 C   0  0  0  0  0  0
  -16.5347  -29.9106   23.6320 C   0  0  0  0  0  0
  -16.7261  -28.6517   23.0349 C   0  0  0  0  0  0
  -26.4463  -31.6619   25.0742 C   0  0  0  0  0  0
  -25.3722  -31.3774   26.1490 C   0  0  0  0  0  0
  -27.0315  -30.3054   24.6188 C   0  0  0  0  0  0
  -27.6051  -32.4346   25.7457 C   0  0  0  0  0  0
  -27.5581  -37.1789   24.8454 C   0  0  0  0  0  0
  -21.4142  -29.3028   22.3702 N   0  0  0  0  0  0
  -26.4278  -37.3799   23.9424 N   0  0  0  0  0  0
  -24.6677  -31.0788   22.0995 N   0  0  0  0  0  0
  -23.4189  -28.8224   23.3024 O   0  0  0  0  0  0
  -28.4104  -26.6979   20.0993 O   0  0  0  0  0  0
  -26.5612  -34.8927   22.4701 O   0  0  0  0  0  0
  -23.5331  -32.1441   23.7496 O   0  0  0  0  0  0
  -29.4446  -17.8510   20.2442 C   0  0  0  0  0  0
  -31.7183  -17.3568   20.8702 C   0  0  0  0  0  0
  -29.8685  -19.1349   19.8067 C   0  0  0  0  0  0
  -30.3900  -16.9078   20.7114 C   0  0  0  0  0  0
  -31.2563  -19.4064   19.9005 C   0  0  0  0  0  0
  -27.8858  -23.5551   18.3429 C   0  0  0  0  0  0
  -28.5029  -24.3208   19.2534 C   0  0  0  0  0  0
  -28.8878  -20.0199   19.1216 C   0  0  0  0  0  0
  -27.7170  -22.0558   18.4293 C   0  0  0  0  0  0
  -29.0611  -23.6932   20.5258 C   0  0  0  0  0  0
  -29.2222  -22.1219   20.5257 C   0  0  0  0  0  0
  -28.7017  -25.8236   18.9996 C   0  0  0  0  0  0
  -32.1430  -18.5760   20.4762 N   0  0  0  0  0  0
  -28.6831  -21.3698   19.3421 N   0  0  0  0  0  0
  -31.8584  -20.5101   19.3109 N   0  0  0  0  0  0
  -30.0154  -15.5419   20.9415 N   0  0  0  0  0  0
  -28.1146  -19.4039   18.1975 N   0  3  0  0  0  0
  -31.4628  -12.3902   19.0833 H   0  0  0  0  0  0
  -30.3155  -11.3029   19.8231 H   0  0  0  0  0  0
  -29.7059  -11.7359   17.4232 H   0  0  0  0  0  0
  -29.6675  -13.4519   17.7140 H   0  0  0  0  0  0
  -27.8240  -11.3032   18.8179 H   0  0  0  0  0  0
  -27.3664  -12.6254   17.7693 H   0  0  0  0  0  0
  -27.6879  -14.2535   19.5425 H   0  0  0  0  0  0
  -28.7018  -11.9894   21.3379 H   0  0  0  0  0  0
  -28.5049  -13.6476   21.8407 H   0  0  0  0  0  0
  -25.2738   -9.5618   22.4741 H   0  0  0  0  0  0
  -23.9914   -7.4620   22.7474 H   0  0  0  0  0  0
  -21.0720   -8.8789   19.9060 H   0  0  0  0  0  0
  -22.3583  -10.9667   19.6189 H   0  0  0  0  0  0
  -21.2035   -7.6133   23.9683 H   0  0  0  0  0  0
  -21.1435   -6.0521   25.9058 H   0  0  0  0  0  0
  -22.0616   -2.7578   23.2873 H   0  0  0  0  0  0
  -22.4080  -12.0169   22.4954 H   0  0  0  0  0  0
  -21.1090  -13.1511   22.2404 H   0  0  0  0  0  0
  -24.6564  -15.8371   20.5349 H   0  0  0  0  0  0
  -26.2669  -15.6316   20.0630 H   0  0  0  0  0  0
  -26.7126  -32.5539   23.1177 H   0  0  0  0  0  0
  -25.0037  -33.9784   25.0465 H   0  0  0  0  0  0
  -22.6926  -31.3106   21.4112 H   0  0  0  0  0  0
  -23.3751  -35.9602   23.3304 H   0  0  0  0  0  0
  -24.3558  -36.8905   22.2059 H   0  0  0  0  0  0
  -23.7188  -37.6479   23.6659 H   0  0  0  0  0  0
  -26.0702  -31.5938   20.6088 H   0  0  0  0  0  0
  -26.8130  -30.8663   22.0012 H   0  0  0  0  0  0
  -28.0955  -29.0851   21.1750 H   0  0  0  0  0  0
  -26.0320  -25.9643   19.0155 H   0  0  0  0  0  0
  -23.9752  -27.3049   19.0240 H   0  0  0  0  0  0
  -23.7162  -30.6021   19.4031 H   0  0  0  0  0  0
  -22.7325  -29.2465   19.8661 H   0  0  0  0  0  0
  -25.1261  -36.1983   25.0835 H   0  0  0  0  0  0
  -20.9970  -28.3273   24.1414 H   0  0  0  0  0  0
  -20.5657  -26.2297   23.3638 H   0  0  0  0  0  0
  -21.6642  -26.7435   22.1232 H   0  0  0  0  0  0
  -19.6914  -25.6309   21.1227 H   0  0  0  0  0  0
  -19.6693  -27.3210   20.6773 H   0  0  0  0  0  0
  -17.4200  -26.6719   21.4002 H   0  0  0  0  0  0
  -18.0279  -26.0072   22.8985 H   0  0  0  0  0  0
  -19.7941  -30.7246   24.2326 H   0  0  0  0  0  0
  -17.5022  -31.6269   24.5188 H   0  0  0  0  0  0
  -15.5350  -30.3019   23.7641 H   0  0  0  0  0  0
  -15.8658  -28.0838   22.7056 H   0  0  0  0  0  0
  -24.5859  -30.7165   25.7817 H   0  0  0  0  0  0
  -24.8963  -32.2964   26.4924 H   0  0  0  0  0  0
  -25.8047  -30.8929   27.0252 H   0  0  0  0  0  0
  -26.2900  -29.6790   24.1221 H   0  0  0  0  0  0
  -27.4032  -29.7323   25.4690 H   0  0  0  0  0  0
  -27.8748  -30.4343   23.9404 H   0  0  0  0  0  0
  -27.2691  -33.3634   26.2069 H   0  0  0  0  0  0
  -28.3804  -32.6935   25.0236 H   0  0  0  0  0  0
  -28.0793  -31.8474   26.5321 H   0  0  0  0  0  0
  -28.2596  -38.0087   24.7519 H   0  0  0  0  0  0
  -28.1069  -36.2627   24.6228 H   0  0  0  0  0  0
  -27.2325  -37.1382   25.8862 H   0  0  0  0  0  0
  -20.9330  -29.8710   21.6871 H   0  0  0  0  0  0
  -26.0167  -38.2874   24.1444 H   0  0  0  0  0  0
  -28.4106  -17.5639   20.1207 H   0  0  0  0  0  0
  -32.4862  -16.7109   21.2750 H   0  0  0  0  0  0
  -27.4861  -24.0119   17.4454 H   0  0  0  0  0  0
  -27.8953  -21.7022   17.4138 H   0  0  0  0  0  0
  -26.6894  -21.7960   18.6825 H   0  0  0  0  0  0
  -28.4113  -24.0078   21.3481 H   0  0  0  0  0  0
  -30.0273  -24.1602   20.7289 H   0  0  0  0  0  0
  -28.7785  -21.6922   21.4291 H   0  0  0  0  0  0
  -30.2886  -21.9177   20.6163 H   0  0  0  0  0  0
  -28.1714  -26.1311   18.0940 H   0  0  0  0  0  0
  -29.7552  -25.9706   18.7607 H   0  0  0  0  0  0
  -31.4617  -20.8312   18.4369 H   0  0  0  0  0  0
  -32.8711  -20.4758   19.2623 H   0  0  0  0  0  0
  -29.0452  -15.3539   21.1539 H   0  0  0  0  0  0
  -28.2631  -18.4419   17.9325 H   0  0  0  0  0  0
  -27.3849  -19.9025   17.7100 H   0  0  0  0  0  0
  1 25  1  0  0  0
  1 30  2  0  0  0
  1 86  1  0  0  0
  2  3  1  0  0  0
  2 25  1  0  0  0
  2 88  1  0  0  0
  2 89  1  0  0  0
  3  4  1  0  0  0
  3 90  1  0  0  0
  3 91  1  0  0  0
  4  5  1  0  0  0
  4 92  1  0  0  0
  4 93  1  0  0  0
  5  6  1  0  0  0
  5 26  1  0  0  0
  5 94  1  0  0  0
  6 25  1  0  0  0
  6 95  1  0  0  0
  6 96  1  0  0  0
  7  8  2  0  0  0
  7 26  1  0  0  0
  7 29  1  0  0  0
  8  9  1  0  0  0
  8 22  1  0  0  0
  9 10  1  0  0  0
  9 27  2  0  0  0
 10 11  2  0  0  0
 10 15  1  0  0  0
 11 12  1  0  0  0
 11 97  1  0  0  0
 12 13  2  0  0  0
 12 98  1  0  0  0
 13 14  1  0  0  0
 13 31  1  0  0  0
 14 15  2  0  0  0
 14 99  1  0  0  0
 15100  1  0  0  0
 16 17  2  0  0  0
 16 21  1  0  0  0
 16 31  1  0  0  0
 17 18  1  0  0  0
 17101  1  0  0  0
 18 19  2  0  0  0
 18102  1  0  0  0
 19 20  1  0  0  0
 19 24  1  0  0  0
 20 21  2  0  0  0
 20103  1  0  0  0
 21 23  1  0  0  0
 22 28  1  0  0  0
 22 32  2  0  0  0
 26 27  1  0  0  0
 28104  1  0  0  0
 28105  1  0  0  0
 29106  1  0  0  0
 29107  1  0  0  0
 33 34  1  0  0  0
 33 66  1  0  0  0
 33 70  2  0  0  0
 34 36  1  0  0  0
 34 59  1  0  0  0
 34108  1  0  0  0
 35 44  2  0  0  0
 35 45  1  0  0  0
 35 68  1  0  0  0
 36 56  1  0  0  0
 36109  1  0  0  0
 37 39  1  0  0  0
 37 47  1  0  0  0
 37 66  1  0  0  0
 37110  1  0  0  0
 38 43  2  0  0  0
 38 46  1  0  0  0
 38 47  1  0  0  0
 39 64  1  0  0  0
 39 67  2  0  0  0
 40 52  1  0  0  0
 40 53  2  0  0  0
 40 58  1  0  0  0
 41111  1  0  0  0
 41112  1  0  0  0
 41113  1  0  0  0
 41 48  1  0  0  0
 42 43  1  0  0  0
 42 66  1  0  0  0
 42114  1  0  0  0
 42115  1  0  0  0
 43 44  1  0  0  0
 44116  1  0  0  0
 45 46  2  0  0  0
 45117  1  0  0  0
 46118  1  0  0  0
 47119  1  0  0  0
 47120  1  0  0  0
 48 56  1  0  0  0
 48 65  1  0  0  0
 48121  1  0  0  0
 49 50  1  0  0  0
 49 53  1  0  0  0
 49 64  1  0  0  0
 49122  1  0  0  0
 50 51  1  0  0  0
 50123  1  0  0  0
 50124  1  0  0  0
 51 52  1  0  0  0
 51125  1  0  0  0
 51126  1  0  0  0
 52127  1  0  0  0
 52128  1  0  0  0
 53 54  1  0  0  0
 54 55  2  0  0  0
 54129  1  0  0  0
 55 57  1  0  0  0
 55130  1  0  0  0
 56 69  2  0  0  0
 57 58  2  0  0  0
 57131  1  0  0  0
 58132  1  0  0  0
 59 60  1  0  0  0
 59 61  1  0  0  0
 59 62  1  0  0  0
 60133  1  0  0  0
 60134  1  0  0  0
 60135  1  0  0  0
 61136  1  0  0  0
 61137  1  0  0  0
 61138  1  0  0  0
 62139  1  0  0  0
 62140  1  0  0  0
 62141  1  0  0  0
 63 65  1  0  0  0
 63142  1  0  0  0
 63143  1  0  0  0
 63144  1  0  0  0
 64145  1  0  0  0
 65146  1  0  0  0
 68 82  1  0  0  0
 71 73  2  0  0  0
 71 74  1  0  0  0
 71147  1  0  0  0
 72 74  2  0  0  0
 72 83  1  0  0  0
 72148  1  0  0  0
 73 75  1  0  0  0
 73 78  1  0  0  0
 74 86  1  0  0  0
 75 83  2  0  0  0
 75 85  1  0  0  0
 76 77  2  0  0  0
 76 79  1  0  0  0
 76149  1  0  0  0
 77 80  1  0  0  0
 77 82  1  0  0  0
 78 84  1  0  0  0
 78 87  2  0  0  0
 79 84  1  0  0  0
 79150  1  0  0  0
 79151  1  0  0  0
 80 81  1  0  0  0
 80152  1  0  0  0
 80153  1  0  0  0
 81 84  1  0  0  0
 81154  1  0  0  0
 81155  1  0  0  0
 82156  1  0  0  0
 82157  1  0  0  0
 85158  1  0  0  0
 85159  1  0  0  0
 86160  1  0  0  0
 87161  1  0  0  0
 87162  1  0  0  0
M  CHG  1  87   1
M  ISO  4   1 100  68 101  82 101  86 100
M  END
> <chiral flag>
0

> <version>
0

> <s_m_source_file>
/data/baiqing/PycharmProjects/Reinvent-master-3.2/result/LINK_invent/BTK/process_docking_weight1_custom_product_contain_oxygen_bond_distance_aromatic_linkinvent_7_9_3/rearranged_h_0158.sdf

> <i_m_source_file_index>
35

> <r_mmod_Potential_Energy-OPLS-2005>
-238.371780395508

> <r_mmod_Stretch_Energy-OPLS-2005>
49.0086212158203

> <r_mmod_Bend_Energy-OPLS-2005>
126.102394104004

> <r_mmod_Torsional_Energy-OPLS-2005>
254.374099731445

> <r_mmod_Improper_Torsional_Energy-OPLS-2005>
11.2868671417236

> <r_mmod_Van_der_Waal_Energy-OPLS-2005>
176.516998291016

> <r_mmod_Electrostatic_Energy-OPLS-2005>
-394.703094482422

> <r_mmod_Solvation_Energy-OPLS-2005>
-477.424285888672

> <b_mmod_Minimization_Converged-OPLS-2005>
0

> <r_mmod_RMS_Derivative-OPLS-2005>
6.0209527015686

$$$$
35
                    3D
 Structure written by MMmdl.
156165  0  0  1  0            999 V2000
  -30.5845  -14.8041   20.4565 C   0  0  0  0  0  0
  -30.4440  -12.4976   19.4758 C   0  0  0  0  0  0
  -29.5126  -12.5091   18.2421 C   0  0  0  0  0  0
  -28.0398  -12.3287   18.6592 C   0  0  0  0  0  0
  -27.6417  -13.2353   19.8519 C   0  0  2  0  0  0
  -28.6887  -13.1883   20.9851 C   0  0  0  0  0  0
  -25.2516  -13.8206   20.5697 C   0  0  0  0  0  0
  -24.1815  -13.0450   20.9221 C   0  0  0  0  0  0
  -24.6410  -11.6934   20.8765 C   0  0  0  0  0  0
  -23.9092  -10.4303   21.0427 C   0  0  0  0  0  0
  -24.3643   -9.4213   21.9202 C   0  0  0  0  0  0
  -23.6305   -8.2250   22.0766 C   0  0  0  0  0  0
  -22.4292   -8.0292   21.3544 C   0  0  0  0  0  0
  -21.9936   -9.0279   20.4653 C   0  0  0  0  0  0
  -22.7270  -10.2151   20.3067 C   0  0  0  0  0  0
  -21.6859   -6.0751   22.5270 C   0  0  0  0  0  0
  -21.4014   -6.5644   23.8219 C   0  0  0  0  0  0
  -21.3658   -5.6787   24.9167 C   0  0  0  0  0  0
  -21.6040   -4.3056   24.7210 C   0  0  0  0  0  0
  -21.8823   -3.8158   23.4333 C   0  0  0  0  0  0
  -21.9195   -4.6973   22.3395 C   0  0  0  0  0  0
  -22.7821  -13.5227   21.1857 C   0  0  0  0  0  0
  -22.1666   -4.2158   21.0971 F   0  0  0  0  0  0
  -21.5627   -3.4540   25.7731 F   0  0  0  0  0  0
  -29.9813  -13.5637   20.3988 N   0  0  0  0  0  0
  -26.2949  -12.9415   20.3319 N   0  0  0  0  0  0
  -25.9350  -11.6557   20.5807 N   0  0  0  0  0  0
  -22.0477  -12.8220   22.0409 N   0  0  0  0  0  0
  -25.4164  -15.1929   20.4066 N   0  0  0  0  0  0
  -31.7801  -14.8995   20.1617 O   0  0  0  0  0  0
  -21.6635   -6.8895   21.4245 O   0  0  0  0  0  0
  -22.3494  -14.5524   20.6688 O   0  0  0  0  0  0
  -24.6313  -31.8499   23.2007 C   0  0  0  0  0  0
  -25.9116  -32.4744   23.8372 C   0  0  1  0  0  0
  -27.2288  -27.2193   20.1384 C   0  0  0  0  0  0
  -25.5915  -33.8554   24.2258 N   0  0  0  0  0  0
  -23.4328  -30.4713   21.5407 C   0  0  2  0  0  0
  -24.8899  -28.9157   20.1093 C   0  0  0  0  0  0
  -22.7500  -29.4549   22.4878 C   0  0  0  0  0  0
  -18.0283  -28.1357   22.8491 C   0  0  0  0  0  0
  -24.1477  -36.7237   23.2645 C   0  0  0  0  0  0
  -25.9850  -30.7472   21.3954 C   0  0  0  0  0  0
  -26.0590  -29.3684   20.7318 C   0  0  0  0  0  0
  -27.2281  -28.5314   20.7374 C   0  0  0  0  0  0
  -26.0433  -26.8616   19.4552 C   0  0  0  0  0  0
  -24.8901  -27.6720   19.4592 C   0  0  0  0  0  0
  -23.6577  -29.8032   20.1589 C   0  0  0  0  0  0
  -25.4109  -36.3049   24.0331 C   0  0  1  0  0  0
  -20.5887  -28.3662   23.1243 C   0  0  2  0  0  0
  -20.6737  -26.9358   22.5389 C   0  0  0  0  0  0
  -19.5745  -26.6357   21.5162 C   0  0  0  0  0  0
  -18.1936  -26.7927   22.1601 C   0  0  0  0  0  0
  -19.1542  -28.8831   23.2875 C   0  0  0  0  0  0
  -18.9465  -30.1432   23.8894 C   0  0  0  0  0  0
  -17.6458  -30.6587   24.0524 C   0  0  0  0  0  0
  -25.9057  -34.9433   23.5093 C   0  0  0  0  0  0
  -16.5342  -29.9063   23.6332 C   0  0  0  0  0  0
  -16.7263  -28.6453   23.0406 C   0  0  0  0  0  0
  -26.4486  -31.6636   25.0794 C   0  0  0  0  0  0
  -25.3716  -31.3767   26.1499 C   0  0  0  0  0  0
  -27.0330  -30.3056   24.6341 C   0  0  0  0  0  0
  -27.6063  -32.4385   25.7537 C   0  0  0  0  0  0
  -27.5569  -37.1751   24.8465 C   0  0  0  0  0  0
  -21.4208  -29.3011   22.3631 N   0  0  0  0  0  0
  -26.4269  -37.3761   23.9435 N   0  0  0  0  0  0
  -24.7010  -31.0408   22.1013 N   0  0  0  0  0  0
  -23.4177  -28.8052   23.2967 O   0  0  0  0  0  0
  -28.3189  -26.3003   20.1967 O   0  0  0  0  0  0
  -26.5635  -34.8902   22.4664 O   0  0  0  0  0  0
  -23.5452  -32.1324   23.7274 O   0  0  0  0  0  0
  -31.2549  -17.9648   20.7650 C   0  0  0  0  0  0
  -31.2532  -19.4180   20.7462 C   0  0  0  0  0  0
  -30.0476  -17.3255   20.6028 C   0  0  0  0  0  0
  -30.0213  -20.0420   20.5677 C   0  0  0  0  0  0
  -28.1379  -24.8644   20.1975 C   0  0  0  0  0  0
  -29.0909  -23.8586   20.3925 C   0  0  0  0  0  0
  -28.8061  -22.3507   20.3277 C   0  0  0  0  0  0
  -33.3907  -19.9370   22.1486 C   0  0  0  0  0  0
  -32.7870  -21.2908   21.8601 C   0  0  0  0  0  0
  -32.5634  -20.1416   20.8994 C   0  0  0  0  0  0
  -29.8525  -21.4528   20.5390 N   0  0  0  0  0  0
  -29.7738  -15.9335   20.6130 N   0  0  0  0  0  0
  -30.4557  -24.3600   20.6866 N   0  3  0  0  0  0
  -27.6833  -21.9064   20.0837 O   0  0  0  0  0  0
  -28.8467  -18.6732   20.4279 S   0  0  0  0  0  0
  -31.4782  -12.6487   19.1602 H   0  0  0  0  0  0
  -30.4219  -11.5262   19.9730 H   0  0  0  0  0  0
  -29.8014  -11.7197   17.5453 H   0  0  0  0  0  0
  -29.6264  -13.4523   17.7031 H   0  0  0  0  0  0
  -27.9024  -11.2811   18.9281 H   0  0  0  0  0  0
  -27.3784  -12.5152   17.8109 H   0  0  0  0  0  0
  -27.6295  -14.2538   19.4627 H   0  0  0  0  0  0
  -28.7432  -12.1921   21.4280 H   0  0  0  0  0  0
  -28.4175  -13.8700   21.7926 H   0  0  0  0  0  0
  -25.2801   -9.5662   22.4774 H   0  0  0  0  0  0
  -24.0008   -7.4629   22.7493 H   0  0  0  0  0  0
  -21.0866   -8.8807   19.8954 H   0  0  0  0  0  0
  -22.3754  -10.9694   19.6164 H   0  0  0  0  0  0
  -21.2008   -7.6149   23.9711 H   0  0  0  0  0  0
  -21.1472   -6.0519   25.9063 H   0  0  0  0  0  0
  -22.0605   -2.7618   23.2825 H   0  0  0  0  0  0
  -22.4102  -11.9870   22.4782 H   0  0  0  0  0  0
  -21.1097  -13.1235   22.2657 H   0  0  0  0  0  0
  -24.6359  -15.8360   20.4843 H   0  0  0  0  0  0
  -26.2516  -15.6352   20.0461 H   0  0  0  0  0  0
  -26.7170  -32.5365   23.1099 H   0  0  0  0  0  0
  -25.0059  -33.9728   25.0403 H   0  0  0  0  0  0
  -22.7310  -31.2930   21.3922 H   0  0  0  0  0  0
  -23.3798  -35.9505   23.3302 H   0  0  0  0  0  0
  -24.3564  -36.8863   22.2058 H   0  0  0  0  0  0
  -23.7177  -37.6403   23.6676 H   0  0  0  0  0  0
  -26.1466  -31.5147   20.6363 H   0  0  0  0  0  0
  -26.8517  -30.7826   22.0416 H   0  0  0  0  0  0
  -28.1240  -28.8726   21.2390 H   0  0  0  0  0  0
  -25.9832  -25.9299   18.9126 H   0  0  0  0  0  0
  -24.0004  -27.3296   18.9493 H   0  0  0  0  0  0
  -23.7768  -30.5790   19.4027 H   0  0  0  0  0  0
  -22.7814  -29.2298   19.8528 H   0  0  0  0  0  0
  -25.1303  -36.1868   25.0822 H   0  0  0  0  0  0
  -20.9969  -28.3168   24.1363 H   0  0  0  0  0  0
  -20.5547  -26.2209   23.3566 H   0  0  0  0  0  0
  -21.6604  -26.7320   22.1202 H   0  0  0  0  0  0
  -19.6873  -25.6256   21.1220 H   0  0  0  0  0  0
  -19.6730  -27.3131   20.6678 H   0  0  0  0  0  0
  -17.4160  -26.6642   21.4040 H   0  0  0  0  0  0
  -18.0397  -26.0064   22.9010 H   0  0  0  0  0  0
  -19.7933  -30.7249   24.2267 H   0  0  0  0  0  0
  -17.5015  -31.6289   24.5097 H   0  0  0  0  0  0
  -15.5355  -30.2956   23.7707 H   0  0  0  0  0  0
  -15.8650  -28.0752   22.7211 H   0  0  0  0  0  0
  -24.5902  -30.7114   25.7802 H   0  0  0  0  0  0
  -24.8911  -32.2919   26.4962 H   0  0  0  0  0  0
  -25.8034  -30.8903   27.0264 H   0  0  0  0  0  0
  -26.2907  -29.6827   24.1321 H   0  0  0  0  0  0
  -27.3925  -29.7303   25.4894 H   0  0  0  0  0  0
  -27.8842  -30.4352   23.9657 H   0  0  0  0  0  0
  -27.2721  -33.3728   26.2058 H   0  0  0  0  0  0
  -28.3872  -32.6875   25.0344 H   0  0  0  0  0  0
  -28.0723  -31.8561   26.5487 H   0  0  0  0  0  0
  -28.2545  -38.0094   24.7574 H   0  0  0  0  0  0
  -28.1118  -36.2626   24.6223 H   0  0  0  0  0  0
  -27.2296  -37.1279   25.8868 H   0  0  0  0  0  0
  -20.9350  -29.8715   21.6850 H   0  0  0  0  0  0
  -26.0148  -38.2805   24.1542 H   0  0  0  0  0  0
  -32.1835  -17.4325   20.9148 H   0  0  0  0  0  0
  -27.1124  -24.5733   20.0100 H   0  0  0  0  0  0
  -32.9485  -19.3547   22.9561 H   0  0  0  0  0  0
  -34.4640  -19.8094   22.0223 H   0  0  0  0  0  0
  -33.4648  -22.0832   21.5463 H   0  0  0  0  0  0
  -31.9715  -21.6070   22.5067 H   0  0  0  0  0  0
  -33.1063  -20.1671   19.9543 H   0  0  0  0  0  0
  -30.7287  -21.9149   20.7161 H   0  0  0  0  0  0
  -28.7990  -15.7011   20.7234 H   0  0  0  0  0  0
  -30.4879  -25.3568   20.5772 H   0  0  0  0  0  0
  -30.7167  -24.1710   21.6397 H   0  0  0  0  0  0
  -31.1355  -23.9686   20.0610 H   0  0  0  0  0  0
  1 25  1  0  0  0
  1 30  2  0  0  0
  1 82  1  0  0  0
  2  3  1  0  0  0
  2 25  1  0  0  0
  2 86  1  0  0  0
  2 87  1  0  0  0
  3  4  1  0  0  0
  3 88  1  0  0  0
  3 89  1  0  0  0
  4  5  1  0  0  0
  4 90  1  0  0  0
  4 91  1  0  0  0
  5  6  1  0  0  0
  5 26  1  0  0  0
  5 92  1  0  0  0
  6 25  1  0  0  0
  6 93  1  0  0  0
  6 94  1  0  0  0
  7  8  2  0  0  0
  7 26  1  0  0  0
  7 29  1  0  0  0
  8  9  1  0  0  0
  8 22  1  0  0  0
  9 10  1  0  0  0
  9 27  2  0  0  0
 10 11  2  0  0  0
 10 15  1  0  0  0
 11 12  1  0  0  0
 11 95  1  0  0  0
 12 13  2  0  0  0
 12 96  1  0  0  0
 13 14  1  0  0  0
 13 31  1  0  0  0
 14 15  2  0  0  0
 14 97  1  0  0  0
 15 98  1  0  0  0
 16 17  2  0  0  0
 16 21  1  0  0  0
 16 31  1  0  0  0
 17 18  1  0  0  0
 17 99  1  0  0  0
 18 19  2  0  0  0
 18100  1  0  0  0
 19 20  1  0  0  0
 19 24  1  0  0  0
 20 21  2  0  0  0
 20101  1  0  0  0
 21 23  1  0  0  0
 22 28  1  0  0  0
 22 32  2  0  0  0
 26 27  1  0  0  0
 28102  1  0  0  0
 28103  1  0  0  0
 29104  1  0  0  0
 29105  1  0  0  0
 33 34  1  0  0  0
 33 66  1  0  0  0
 33 70  2  0  0  0
 34 36  1  0  0  0
 34 59  1  0  0  0
 34106  1  0  0  0
 35 44  2  0  0  0
 35 45  1  0  0  0
 35 68  1  0  0  0
 36 56  1  0  0  0
 36107  1  0  0  0
 37 39  1  0  0  0
 37 47  1  0  0  0
 37 66  1  0  0  0
 37108  1  0  0  0
 38 43  2  0  0  0
 38 46  1  0  0  0
 38 47  1  0  0  0
 39 64  1  0  0  0
 39 67  2  0  0  0
 40 52  1  0  0  0
 40 53  2  0  0  0
 40 58  1  0  0  0
 41109  1  0  0  0
 41110  1  0  0  0
 41111  1  0  0  0
 41 48  1  0  0  0
 42 43  1  0  0  0
 42 66  1  0  0  0
 42112  1  0  0  0
 42113  1  0  0  0
 43 44  1  0  0  0
 44114  1  0  0  0
 45 46  2  0  0  0
 45115  1  0  0  0
 46116  1  0  0  0
 47117  1  0  0  0
 47118  1  0  0  0
 48 56  1  0  0  0
 48 65  1  0  0  0
 48119  1  0  0  0
 49 50  1  0  0  0
 49 53  1  0  0  0
 49 64  1  0  0  0
 49120  1  0  0  0
 50 51  1  0  0  0
 50121  1  0  0  0
 50122  1  0  0  0
 51 52  1  0  0  0
 51123  1  0  0  0
 51124  1  0  0  0
 52125  1  0  0  0
 52126  1  0  0  0
 53 54  1  0  0  0
 54 55  2  0  0  0
 54127  1  0  0  0
 55 57  1  0  0  0
 55128  1  0  0  0
 56 69  2  0  0  0
 57 58  2  0  0  0
 57129  1  0  0  0
 58130  1  0  0  0
 59 60  1  0  0  0
 59 61  1  0  0  0
 59 62  1  0  0  0
 60131  1  0  0  0
 60132  1  0  0  0
 60133  1  0  0  0
 61134  1  0  0  0
 61135  1  0  0  0
 61136  1  0  0  0
 62137  1  0  0  0
 62138  1  0  0  0
 62139  1  0  0  0
 63 65  1  0  0  0
 63140  1  0  0  0
 63141  1  0  0  0
 63142  1  0  0  0
 64143  1  0  0  0
 65144  1  0  0  0
 68 75  1  0  0  0
 71 72  1  0  0  0
 71 73  2  0  0  0
 71145  1  0  0  0
 72 74  2  0  0  0
 72 80  1  0  0  0
 73 82  1  0  0  0
 73 85  1  0  0  0
 74 81  1  0  0  0
 74 85  1  0  0  0
 75 76  2  0  0  0
 75146  1  0  0  0
 76 77  1  0  0  0
 76 83  1  0  0  0
 77 81  1  0  0  0
 77 84  2  0  0  0
 78 79  1  0  0  0
 78 80  1  0  0  0
 78147  1  0  0  0
 78148  1  0  0  0
 79 80  1  0  0  0
 79149  1  0  0  0
 79150  1  0  0  0
 80151  1  0  0  0
 81152  1  0  0  0
 82153  1  0  0  0
 83154  1  0  0  0
 83155  1  0  0  0
 83156  1  0  0  0
M  CHG  1  83   1
M  ISO  4   1 100  68 101  75 101  82 100
M  END
> <chiral flag>
0

> <version>
0

> <s_m_source_file>
/data/baiqing/PycharmProjects/Reinvent-master-3.2/result/LINK_invent/BTK/process_docking_weight1_custom_product_contain_oxygen_bond_distance_aromatic_linkinvent_7_9_3/rearranged_h_0158.sdf

> <i_m_source_file_index>
36

> <r_mmod_Potential_Energy-OPLS-2005>
-175.746063232422

> <r_mmod_Stretch_Energy-OPLS-2005>
136.332885742188

> <r_mmod_Bend_Energy-OPLS-2005>
199.108261108398

> <r_mmod_Torsional_Energy-OPLS-2005>
229.898254394531

> <r_mmod_Improper_Torsional_Energy-OPLS-2005>
5.47996759414673

> <r_mmod_Van_der_Waal_Energy-OPLS-2005>
114.669006347656

> <r_mmod_Electrostatic_Energy-OPLS-2005>
-422.632568359375

> <r_mmod_Solvation_Energy-OPLS-2005>
-551.224182128906

> <b_mmod_Minimization_Converged-OPLS-2005>
0

> <r_mmod_RMS_Derivative-OPLS-2005>
4.18112564086914

$$$$
36
                    3D
 Structure written by MMmdl.
157165  0  0  1  0            999 V2000
  -30.6143  -14.7118   20.4534 C   0  0  0  0  0  0
  -30.4279  -12.4185   19.4852 C   0  0  0  0  0  0
  -29.5157  -12.4932   18.2377 C   0  0  0  0  0  0
  -28.0366  -12.3299   18.6400 C   0  0  0  0  0  0
  -27.6388  -13.2289   19.8406 C   0  0  2  0  0  0
  -28.6769  -13.1578   20.9791 C   0  0  0  0  0  0
  -25.2510  -13.8172   20.5663 C   0  0  0  0  0  0
  -24.1804  -13.0424   20.9190 C   0  0  0  0  0  0
  -24.6372  -11.6892   20.8709 C   0  0  0  0  0  0
  -23.9042  -10.4281   21.0379 C   0  0  0  0  0  0
  -24.3600   -9.4215   21.9174 C   0  0  0  0  0  0
  -23.6288   -8.2243   22.0756 C   0  0  0  0  0  0
  -22.4273   -8.0264   21.3539 C   0  0  0  0  0  0
  -21.9891   -9.0225   20.4642 C   0  0  0  0  0  0
  -22.7205  -10.2112   20.3047 C   0  0  0  0  0  0
  -21.6855   -6.0711   22.5260 C   0  0  0  0  0  0
  -21.4022   -6.5621   23.8191 C   0  0  0  0  0  0
  -21.3668   -5.6786   24.9161 C   0  0  0  0  0  0
  -21.6048   -4.3046   24.7218 C   0  0  0  0  0  0
  -21.8822   -3.8126   23.4340 C   0  0  0  0  0  0
  -21.9199   -4.6939   22.3389 C   0  0  0  0  0  0
  -22.7831  -13.5228   21.1861 C   0  0  0  0  0  0
  -22.1668   -4.2109   21.0971 F   0  0  0  0  0  0
  -21.5633   -3.4542   25.7740 F   0  0  0  0  0  0
  -29.9940  -13.4832   20.4179 N   0  0  0  0  0  0
  -26.2905  -12.9371   20.3182 N   0  0  0  0  0  0
  -25.9293  -11.6517   20.5674 N   0  0  0  0  0  0
  -22.0486  -12.8198   22.0417 N   0  0  0  0  0  0
  -25.4222  -15.1895   20.4059 N   0  0  0  0  0  0
  -31.7988  -14.7977   20.1172 O   0  0  0  0  0  0
  -21.6659   -6.8848   21.4220 O   0  0  0  0  0  0
  -22.3507  -14.5540   20.6712 O   0  0  0  0  0  0
  -24.6310  -31.8562   23.2007 C   0  0  0  0  0  0
  -25.9142  -32.4752   23.8342 C   0  0  1  0  0  0
  -27.2138  -27.2721   20.1012 C   0  0  0  0  0  0
  -25.5962  -33.8556   24.2250 N   0  0  0  0  0  0
  -23.4258  -30.4826   21.5447 C   0  0  2  0  0  0
  -24.8680  -28.9373   20.1090 C   0  0  0  0  0  0
  -22.7492  -29.4612   22.4911 C   0  0  0  0  0  0
  -18.0288  -28.1394   22.8487 C   0  0  0  0  0  0
  -24.1495  -36.7276   23.2631 C   0  0  0  0  0  0
  -25.9733  -30.7702   21.3810 C   0  0  0  0  0  0
  -26.0409  -29.3945   20.7211 C   0  0  0  0  0  0
  -27.2120  -28.5704   20.7151 C   0  0  0  0  0  0
  -26.0100  -26.8869   19.4618 C   0  0  0  0  0  0
  -24.8571  -27.6897   19.4755 C   0  0  0  0  0  0
  -23.6419  -29.8250   20.1576 C   0  0  0  0  0  0
  -25.4118  -36.3048   24.0310 C   0  0  1  0  0  0
  -20.5900  -28.3691   23.1279 C   0  0  2  0  0  0
  -20.6783  -26.9414   22.5407 C   0  0  0  0  0  0
  -19.5762  -26.6395   21.5216 C   0  0  0  0  0  0
  -18.1943  -26.7938   22.1625 C   0  0  0  0  0  0
  -19.1545  -28.8857   23.2884 C   0  0  0  0  0  0
  -18.9461  -30.1469   23.8887 C   0  0  0  0  0  0
  -17.6460  -30.6589   24.0570 C   0  0  0  0  0  0
  -25.9068  -34.9429   23.5070 C   0  0  0  0  0  0
  -16.5353  -29.9088   23.6343 C   0  0  0  0  0  0
  -16.7274  -28.6518   23.0339 C   0  0  0  0  0  0
  -26.4517  -31.6567   25.0713 C   0  0  0  0  0  0
  -25.3751  -31.3730   26.1435 C   0  0  0  0  0  0
  -27.0351  -30.2973   24.6198 C   0  0  0  0  0  0
  -27.6075  -32.4287   25.7499 C   0  0  0  0  0  0
  -27.5575  -37.1788   24.8454 C   0  0  0  0  0  0
  -21.4198  -29.3046   22.3662 N   0  0  0  0  0  0
  -26.4277  -37.3751   23.9414 N   0  0  0  0  0  0
  -24.6958  -31.0551   22.0974 N   0  0  0  0  0  0
  -23.4207  -28.8138   23.2982 O   0  0  0  0  0  0
  -28.3223  -26.3949   20.1811 O   0  0  0  0  0  0
  -26.5634  -34.8905   22.4630 O   0  0  0  0  0  0
  -23.5466  -32.1376   23.7318 O   0  0  0  0  0  0
  -29.4933  -20.3400   20.7554 C   0  0  0  0  0  0
  -29.6118  -18.9404   20.3418 C   0  0  0  0  0  0
  -29.0354  -18.9032   19.0951 C   0  0  0  0  0  0
  -28.8678  -21.0360   19.7353 C   0  0  0  0  0  0
  -29.1955  -25.2579   18.2168 C   0  0  0  0  0  0
  -28.8399  -17.8297   18.0713 C   0  0  0  0  0  0
  -30.4623  -26.1023   18.3249 C   0  0  0  0  0  0
  -28.7974  -23.6914   20.2569 C   0  0  0  0  0  0
  -28.3545  -25.0607   19.4922 C   0  0  2  0  0  0
  -28.4464  -22.4048   19.5439 N   0  0  0  0  0  0
  -29.8488  -15.9022   20.7357 N   0  0  0  0  0  0
  -28.8536  -24.7780   17.1317 O   0  0  0  0  0  0
  -31.8428  -17.6436   20.9091 O   0  0  0  0  0  0
  -30.0030  -17.6928   22.6411 O   0  0  0  0  0  0
  -28.5746  -20.1541   18.7344 O   0  0  0  0  0  0
  -30.4086  -17.5384   21.2316 S   0  0  0  0  0  0
  -31.4754  -12.5200   19.1957 H   0  0  0  0  0  0
  -30.3427  -11.4398   19.9613 H   0  0  0  0  0  0
  -29.7908  -11.7143   17.5247 H   0  0  0  0  0  0
  -29.6596  -13.4458   17.7242 H   0  0  0  0  0  0
  -27.8803  -11.2817   18.8970 H   0  0  0  0  0  0
  -27.3877  -12.5303   17.7855 H   0  0  0  0  0  0
  -27.6360  -14.2500   19.4598 H   0  0  0  0  0  0
  -28.6918  -12.1640   21.4298 H   0  0  0  0  0  0
  -28.4110  -13.8458   21.7831 H   0  0  0  0  0  0
  -25.2736   -9.5702   22.4755 H   0  0  0  0  0  0
  -23.9989   -7.4643   22.7482 H   0  0  0  0  0  0
  -21.0823   -8.8722   19.8953 H   0  0  0  0  0  0
  -22.3636  -10.9644   19.6157 H   0  0  0  0  0  0
  -21.2014   -7.6133   23.9667 H   0  0  0  0  0  0
  -21.1499   -6.0531   25.9057 H   0  0  0  0  0  0
  -22.0599   -2.7583   23.2854 H   0  0  0  0  0  0
  -22.4124  -11.9858   22.4779 H   0  0  0  0  0  0
  -21.1087  -13.1192   22.2618 H   0  0  0  0  0  0
  -24.6451  -15.8350   20.4946 H   0  0  0  0  0  0
  -26.2441  -15.6176   20.0037 H   0  0  0  0  0  0
  -26.7199  -32.5379   23.1087 H   0  0  0  0  0  0
  -25.0132  -33.9718   25.0409 H   0  0  0  0  0  0
  -22.7225  -31.3043   21.4028 H   0  0  0  0  0  0
  -23.3755  -35.9606   23.3257 H   0  0  0  0  0  0
  -24.3615  -36.8942   22.2057 H   0  0  0  0  0  0
  -23.7257  -37.6465   23.6690 H   0  0  0  0  0  0
  -26.1130  -31.5311   20.6121 H   0  0  0  0  0  0
  -26.8525  -30.8150   22.0124 H   0  0  0  0  0  0
  -28.1088  -28.9157   21.2110 H   0  0  0  0  0  0
  -25.8813  -25.9507   18.9499 H   0  0  0  0  0  0
  -23.9562  -27.3323   18.9956 H   0  0  0  0  0  0
  -23.7716  -30.6049   19.4071 H   0  0  0  0  0  0
  -22.7579  -29.2662   19.8463 H   0  0  0  0  0  0
  -25.1301  -36.1879   25.0799 H   0  0  0  0  0  0
  -20.9990  -28.3251   24.1404 H   0  0  0  0  0  0
  -20.5706  -26.2289   23.3602 H   0  0  0  0  0  0
  -21.6646  -26.7452   22.1188 H   0  0  0  0  0  0
  -19.6923  -25.6311   21.1238 H   0  0  0  0  0  0
  -19.6704  -27.3208   20.6759 H   0  0  0  0  0  0
  -17.4209  -26.6684   21.4025 H   0  0  0  0  0  0
  -18.0341  -26.0085   22.9029 H   0  0  0  0  0  0
  -19.7938  -30.7307   24.2232 H   0  0  0  0  0  0
  -17.5012  -31.6259   24.5181 H   0  0  0  0  0  0
  -15.5355  -30.2984   23.7677 H   0  0  0  0  0  0
  -15.8676  -28.0854   22.7024 H   0  0  0  0  0  0
  -24.5914  -30.7089   25.7782 H   0  0  0  0  0  0
  -24.8965  -32.2903   26.4850 H   0  0  0  0  0  0
  -25.8065  -30.8914   27.0211 H   0  0  0  0  0  0
  -26.2923  -29.6729   24.1219 H   0  0  0  0  0  0
  -27.4025  -29.7223   25.4714 H   0  0  0  0  0  0
  -27.8810  -30.4231   23.9434 H   0  0  0  0  0  0
  -27.2697  -33.3610   26.2027 H   0  0  0  0  0  0
  -28.3925  -32.6794   25.0354 H   0  0  0  0  0  0
  -28.0683  -31.8428   26.5460 H   0  0  0  0  0  0
  -28.2539  -38.0138   24.7533 H   0  0  0  0  0  0
  -28.1122  -36.2664   24.6216 H   0  0  0  0  0  0
  -27.2313  -37.1347   25.8862 H   0  0  0  0  0  0
  -20.9363  -29.8785   21.6901 H   0  0  0  0  0  0
  -26.0135  -38.2801   24.1458 H   0  0  0  0  0  0
  -29.8393  -20.7674   21.6846 H   0  0  0  0  0  0
  -29.7562  -17.2589   17.9203 H   0  0  0  0  0  0
  -28.5612  -18.2555   17.1056 H   0  0  0  0  0  0
  -28.0555  -17.1353   18.3732 H   0  0  0  0  0  0
  -31.1074  -25.7061   19.1085 H   0  0  0  0  0  0
  -30.2167  -27.1349   18.5690 H   0  0  0  0  0  0
  -31.0148  -26.0945   17.3861 H   0  0  0  0  0  0
  -28.3158  -23.6695   21.2342 H   0  0  0  0  0  0
  -29.8705  -23.7066   20.4519 H   0  0  0  0  0  0
  -27.3644  -24.8084   19.1397 H   0  0  0  0  0  0
  -27.9127  -22.5449   18.6894 H   0  0  0  0  0  0
  -28.8646  -15.8051   20.9596 H   0  0  0  0  0  0
  1 25  1  0  0  0
  1 30  2  0  0  0
  1 81  1  0  0  0
  2  3  1  0  0  0
  2 25  1  0  0  0
  2 87  1  0  0  0
  2 88  1  0  0  0
  3  4  1  0  0  0
  3 89  1  0  0  0
  3 90  1  0  0  0
  4  5  1  0  0  0
  4 91  1  0  0  0
  4 92  1  0  0  0
  5  6  1  0  0  0
  5 26  1  0  0  0
  5 93  1  0  0  0
  6 25  1  0  0  0
  6 94  1  0  0  0
  6 95  1  0  0  0
  7  8  2  0  0  0
  7 26  1  0  0  0
  7 29  1  0  0  0
  8  9  1  0  0  0
  8 22  1  0  0  0
  9 10  1  0  0  0
  9 27  2  0  0  0
 10 11  2  0  0  0
 10 15  1  0  0  0
 11 12  1  0  0  0
 11 96  1  0  0  0
 12 13  2  0  0  0
 12 97  1  0  0  0
 13 14  1  0  0  0
 13 31  1  0  0  0
 14 15  2  0  0  0
 14 98  1  0  0  0
 15 99  1  0  0  0
 16 17  2  0  0  0
 16 21  1  0  0  0
 16 31  1  0  0  0
 17 18  1  0  0  0
 17100  1  0  0  0
 18 19  2  0  0  0
 18101  1  0  0  0
 19 20  1  0  0  0
 19 24  1  0  0  0
 20 21  2  0  0  0
 20102  1  0  0  0
 21 23  1  0  0  0
 22 28  1  0  0  0
 22 32  2  0  0  0
 26 27  1  0  0  0
 28103  1  0  0  0
 28104  1  0  0  0
 29105  1  0  0  0
 29106  1  0  0  0
 33 34  1  0  0  0
 33 66  1  0  0  0
 33 70  2  0  0  0
 34 36  1  0  0  0
 34 59  1  0  0  0
 34107  1  0  0  0
 35 44  2  0  0  0
 35 45  1  0  0  0
 35 68  1  0  0  0
 36 56  1  0  0  0
 36108  1  0  0  0
 37 39  1  0  0  0
 37 47  1  0  0  0
 37 66  1  0  0  0
 37109  1  0  0  0
 38 43  2  0  0  0
 38 46  1  0  0  0
 38 47  1  0  0  0
 39 64  1  0  0  0
 39 67  2  0  0  0
 40 52  1  0  0  0
 40 53  2  0  0  0
 40 58  1  0  0  0
 41110  1  0  0  0
 41111  1  0  0  0
 41112  1  0  0  0
 41 48  1  0  0  0
 42 43  1  0  0  0
 42 66  1  0  0  0
 42113  1  0  0  0
 42114  1  0  0  0
 43 44  1  0  0  0
 44115  1  0  0  0
 45 46  2  0  0  0
 45116  1  0  0  0
 46117  1  0  0  0
 47118  1  0  0  0
 47119  1  0  0  0
 48 56  1  0  0  0
 48 65  1  0  0  0
 48120  1  0  0  0
 49 50  1  0  0  0
 49 53  1  0  0  0
 49 64  1  0  0  0
 49121  1  0  0  0
 50 51  1  0  0  0
 50122  1  0  0  0
 50123  1  0  0  0
 51 52  1  0  0  0
 51124  1  0  0  0
 51125  1  0  0  0
 52126  1  0  0  0
 52127  1  0  0  0
 53 54  1  0  0  0
 54 55  2  0  0  0
 54128  1  0  0  0
 55 57  1  0  0  0
 55129  1  0  0  0
 56 69  2  0  0  0
 57 58  2  0  0  0
 57130  1  0  0  0
 58131  1  0  0  0
 59 60  1  0  0  0
 59 61  1  0  0  0
 59 62  1  0  0  0
 60132  1  0  0  0
 60133  1  0  0  0
 60134  1  0  0  0
 61135  1  0  0  0
 61136  1  0  0  0
 61137  1  0  0  0
 62138  1  0  0  0
 62139  1  0  0  0
 62140  1  0  0  0
 63 65  1  0  0  0
 63141  1  0  0  0
 63142  1  0  0  0
 63143  1  0  0  0
 64144  1  0  0  0
 65145  1  0  0  0
 68 79  1  0  0  0
 71 72  1  0  0  0
 71 74  2  0  0  0
 71146  1  0  0  0
 72 73  2  0  0  0
 72 86  1  0  0  0
 73 76  1  0  0  0
 73 85  1  0  0  0
 74 80  1  0  0  0
 74 85  1  0  0  0
 75 77  1  0  0  0
 75 79  1  0  0  0
 75 82  2  0  0  0
 76147  1  0  0  0
 76148  1  0  0  0
 76149  1  0  0  0
 77150  1  0  0  0
 77151  1  0  0  0
 77152  1  0  0  0
 78 80  1  0  0  0
 78153  1  0  0  0
 78154  1  0  0  0
 78 79  1  0  0  0
 79155  1  0  0  0
 80156  1  0  0  0
 81157  1  0  0  0
 81 86  1  0  0  0
 83 86  2  0  0  0
 84 86  2  0  0  0
M  ISO  4   1 100  68 101  79 101  81 100
M  END
> <chiral flag>
0

> <version>
0

> <s_m_source_file>
/data/baiqing/PycharmProjects/Reinvent-master-3.2/result/LINK_invent/BTK/process_docking_weight1_custom_product_contain_oxygen_bond_distance_aromatic_linkinvent_7_9_3/rearranged_h_0158.sdf

> <i_m_source_file_index>
37

> <r_mmod_Potential_Energy-OPLS-2005>
-54.1982231140137

> <r_mmod_Stretch_Energy-OPLS-2005>
102.475036621094

> <r_mmod_Bend_Energy-OPLS-2005>
201.685073852539

> <r_mmod_Torsional_Energy-OPLS-2005>
185.828323364258

> <r_mmod_Improper_Torsional_Energy-OPLS-2005>
4.95046710968018

> <r_mmod_Van_der_Waal_Energy-OPLS-2005>
108.966995239258

> <r_mmod_Electrostatic_Energy-OPLS-2005>
-458.087432861328

> <r_mmod_Solvation_Energy-OPLS-2005>
-275.182342529297

> <b_mmod_Minimization_Converged-OPLS-2005>
0

> <r_mmod_RMS_Derivative-OPLS-2005>
2.54109740257263

$$$$
37
                    3D
 Structure written by MMmdl.
164173  0  0  1  0            999 V2000
  -30.5740  -14.7952   20.4538 C   0  0  0  0  0  0
  -30.4319  -12.4839   19.4969 C   0  0  0  0  0  0
  -29.5180  -12.5299   18.2514 C   0  0  0  0  0  0
  -28.0429  -12.3403   18.6544 C   0  0  0  0  0  0
  -27.6395  -13.2372   19.8552 C   0  0  2  0  0  0
  -28.6758  -13.1787   20.9983 C   0  0  0  0  0  0
  -25.2479  -13.8192   20.5686 C   0  0  0  0  0  0
  -24.1774  -13.0425   20.9193 C   0  0  0  0  0  0
  -24.6366  -11.6904   20.8715 C   0  0  0  0  0  0
  -23.9038  -10.4290   21.0386 C   0  0  0  0  0  0
  -24.3598   -9.4210   21.9174 C   0  0  0  0  0  0
  -23.6294   -8.2235   22.0741 C   0  0  0  0  0  0
  -22.4272   -8.0266   21.3537 C   0  0  0  0  0  0
  -21.9894   -9.0228   20.4630 C   0  0  0  0  0  0
  -22.7205  -10.2116   20.3039 C   0  0  0  0  0  0
  -21.6844   -6.0726   22.5282 C   0  0  0  0  0  0
  -21.4013   -6.5637   23.8213 C   0  0  0  0  0  0
  -21.3664   -5.6790   24.9178 C   0  0  0  0  0  0
  -21.6048   -4.3053   24.7227 C   0  0  0  0  0  0
  -21.8821   -3.8140   23.4347 C   0  0  0  0  0  0
  -21.9189   -4.6955   22.3403 C   0  0  0  0  0  0
  -22.7804  -13.5206   21.1880 C   0  0  0  0  0  0
  -22.1659   -4.2140   21.0980 F   0  0  0  0  0  0
  -21.5632   -3.4542   25.7740 F   0  0  0  0  0  0
  -29.9787  -13.5474   20.4299 N   0  0  0  0  0  0
  -26.2907  -12.9406   20.3270 N   0  0  0  0  0  0
  -25.9298  -11.6539   20.5714 N   0  0  0  0  0  0
  -22.0442  -12.8203   22.0437 N   0  0  0  0  0  0
  -25.4185  -15.1915   20.4122 N   0  0  0  0  0  0
  -31.7498  -14.8977   20.0860 O   0  0  0  0  0  0
  -21.6634   -6.8868   21.4241 O   0  0  0  0  0  0
  -22.3484  -14.5513   20.6718 O   0  0  0  0  0  0
  -24.6376  -31.8526   23.1969 C   0  0  0  0  0  0
  -25.9176  -32.4743   23.8333 C   0  0  1  0  0  0
  -27.2061  -27.2114   20.1357 C   0  0  0  0  0  0
  -25.5955  -33.8545   24.2259 N   0  0  0  0  0  0
  -23.4350  -30.4768   21.5435 C   0  0  2  0  0  0
  -24.8797  -28.9217   20.1092 C   0  0  0  0  0  0
  -22.7531  -29.4594   22.4917 C   0  0  0  0  0  0
  -18.0294  -28.1379   22.8492 C   0  0  0  0  0  0
  -24.1489  -36.7278   23.2642 C   0  0  0  0  0  0
  -25.9869  -30.7515   21.3818 C   0  0  0  0  0  0
  -26.0570  -29.3704   20.7216 C   0  0  0  0  0  0
  -27.2247  -28.5309   20.7191 C   0  0  0  0  0  0
  -26.0046  -26.8509   19.4827 C   0  0  0  0  0  0
  -24.8627  -27.6727   19.4751 C   0  0  0  0  0  0
  -23.6536  -29.8147   20.1584 C   0  0  0  0  0  0
  -25.4116  -36.3065   24.0333 C   0  0  1  0  0  0
  -20.5906  -28.3695   23.1267 C   0  0  2  0  0  0
  -20.6776  -26.9411   22.5406 C   0  0  0  0  0  0
  -19.5742  -26.6378   21.5220 C   0  0  0  0  0  0
  -18.1929  -26.7921   22.1635 C   0  0  0  0  0  0
  -19.1550  -28.8855   23.2870 C   0  0  0  0  0  0
  -18.9464  -30.1459   23.8882 C   0  0  0  0  0  0
  -17.6458  -30.6581   24.0555 C   0  0  0  0  0  0
  -25.9060  -34.9434   23.5098 C   0  0  0  0  0  0
  -16.5352  -29.9072   23.6334 C   0  0  0  0  0  0
  -16.7280  -28.6490   23.0360 C   0  0  0  0  0  0
  -26.4510  -31.6576   25.0738 C   0  0  0  0  0  0
  -25.3715  -31.3741   26.1450 C   0  0  0  0  0  0
  -27.0355  -30.2983   24.6255 C   0  0  0  0  0  0
  -27.6062  -32.4317   25.7513 C   0  0  0  0  0  0
  -27.5577  -37.1801   24.8469 C   0  0  0  0  0  0
  -21.4234  -29.3045   22.3662 N   0  0  0  0  0  0
  -26.4291  -37.3766   23.9408 N   0  0  0  0  0  0
  -24.7068  -31.0449   22.0974 N   0  0  0  0  0  0
  -23.4224  -28.8132   23.3023 O   0  0  0  0  0  0
  -28.2628  -26.2553   20.2092 O   0  0  0  0  0  0
  -26.5636  -34.8915   22.4670 O   0  0  0  0  0  0
  -23.5508  -32.1377   23.7230 O   0  0  0  0  0  0
  -30.4393  -17.6812   19.1463 C   0  0  0  0  0  0
  -30.3502  -19.1226   19.0269 C   0  0  0  0  0  0
  -29.9100  -17.2708   20.3399 C   0  0  0  0  0  0
  -29.6937  -19.5642   20.1675 C   0  0  0  0  0  0
  -28.9695  -23.5948   20.3667 C   0  0  0  0  0  0
  -33.3113  -19.7111   18.3881 C   0  0  0  0  0  0
  -33.0177  -18.7133   17.2613 C   0  0  0  0  0  0
  -32.1702  -20.7325   18.3262 C   0  0  0  0  0  0
  -31.5903  -19.0274   16.7848 C   0  0  0  0  0  0
  -30.9423  -19.9321   17.8593 C   0  0  0  0  0  0
  -29.8803  -20.8225   17.1889 C   0  0  0  0  0  0
  -28.5704  -22.0169   20.3145 C   0  0  0  0  0  0
  -27.8910  -24.7755   20.1103 C   0  0  0  0  0  0
  -29.8048  -15.9230   20.7629 N   0  0  0  0  0  0
  -29.6216  -20.9516   20.6345 N   0  0  0  0  0  0
  -30.1491  -23.8843   20.5945 O   0  0  0  0  0  0
  -29.4152  -18.4340   20.9829 O   0  0  0  0  0  0
  -31.4746  -12.6123   19.2031 H   0  0  0  0  0  0
  -30.3780  -11.5073   19.9799 H   0  0  0  0  0  0
  -29.8152  -11.7638   17.5353 H   0  0  0  0  0  0
  -29.6384  -13.4886   17.7438 H   0  0  0  0  0  0
  -27.9058  -11.2909   18.9166 H   0  0  0  0  0  0
  -27.3886  -12.5331   17.8030 H   0  0  0  0  0  0
  -27.6321  -14.2589   19.4747 H   0  0  0  0  0  0
  -28.7152  -12.1797   21.4357 H   0  0  0  0  0  0
  -28.3930  -13.8538   21.8070 H   0  0  0  0  0  0
  -25.2722   -9.5708   22.4763 H   0  0  0  0  0  0
  -24.0013   -7.4623   22.7450 H   0  0  0  0  0  0
  -21.0827   -8.8711   19.8945 H   0  0  0  0  0  0
  -22.3626  -10.9647   19.6155 H   0  0  0  0  0  0
  -21.2003   -7.6143   23.9711 H   0  0  0  0  0  0
  -21.1496   -6.0523   25.9086 H   0  0  0  0  0  0
  -22.0596   -2.7602   23.2829 H   0  0  0  0  0  0
  -22.4044  -11.9870   22.4849 H   0  0  0  0  0  0
  -21.1053  -13.1231   22.2614 H   0  0  0  0  0  0
  -24.6486  -15.8445   20.5127 H   0  0  0  0  0  0
  -26.2708  -15.6318   20.0893 H   0  0  0  0  0  0
  -26.7251  -32.5372   23.1077 H   0  0  0  0  0  0
  -25.0084  -33.9682   25.0393 H   0  0  0  0  0  0
  -22.7335  -31.3015   21.3988 H   0  0  0  0  0  0
  -23.3750  -35.9615   23.3320 H   0  0  0  0  0  0
  -24.3571  -36.8881   22.2055 H   0  0  0  0  0  0
  -23.7252  -37.6489   23.6650 H   0  0  0  0  0  0
  -26.1290  -31.5113   20.6115 H   0  0  0  0  0  0
  -26.8640  -30.8006   22.0161 H   0  0  0  0  0  0
  -28.1233  -28.8687   21.2158 H   0  0  0  0  0  0
  -25.9022  -25.9020   18.9793 H   0  0  0  0  0  0
  -23.9639  -27.3283   18.9822 H   0  0  0  0  0  0
  -23.7805  -30.5946   19.4060 H   0  0  0  0  0  0
  -22.7685  -29.2533   19.8522 H   0  0  0  0  0  0
  -25.1296  -36.1917   25.0826 H   0  0  0  0  0  0
  -20.9993  -28.3264   24.1390 H   0  0  0  0  0  0
  -20.5672  -26.2308   23.3617 H   0  0  0  0  0  0
  -21.6642  -26.7420   22.1203 H   0  0  0  0  0  0
  -19.6897  -25.6289   21.1252 H   0  0  0  0  0  0
  -19.6672  -27.3188   20.6751 H   0  0  0  0  0  0
  -17.4202  -26.6687   21.4034 H   0  0  0  0  0  0
  -18.0310  -26.0059   22.9020 H   0  0  0  0  0  0
  -19.7938  -30.7283   24.2246 H   0  0  0  0  0  0
  -17.5009  -31.6262   24.5150 H   0  0  0  0  0  0
  -15.5350  -30.2963   23.7657 H   0  0  0  0  0  0
  -15.8688  -28.0797   22.7081 H   0  0  0  0  0  0
  -24.5900  -30.7079   25.7777 H   0  0  0  0  0  0
  -24.8889  -32.2910   26.4842 H   0  0  0  0  0  0
  -25.8014  -30.8944   27.0251 H   0  0  0  0  0  0
  -26.2950  -29.6731   24.1252 H   0  0  0  0  0  0
  -27.3985  -29.7246   25.4792 H   0  0  0  0  0  0
  -27.8852  -30.4238   23.9541 H   0  0  0  0  0  0
  -27.2680  -33.3638   26.2052 H   0  0  0  0  0  0
  -28.3892  -32.6844   25.0353 H   0  0  0  0  0  0
  -28.0709  -31.8465   26.5459 H   0  0  0  0  0  0
  -28.2604  -38.0086   24.7491 H   0  0  0  0  0  0
  -28.1060  -36.2615   24.6317 H   0  0  0  0  0  0
  -27.2292  -37.1483   25.8871 H   0  0  0  0  0  0
  -20.9425  -29.8786   21.6875 H   0  0  0  0  0  0
  -26.0169  -38.2848   24.1375 H   0  0  0  0  0  0
  -30.8794  -17.0037   18.4301 H   0  0  0  0  0  0
  -34.2933  -20.1755   18.2907 H   0  0  0  0  0  0
  -33.2891  -19.1944   19.3490 H   0  0  0  0  0  0
  -33.0995  -17.6881   17.6230 H   0  0  0  0  0  0
  -33.7258  -18.8235   16.4393 H   0  0  0  0  0  0
  -32.4229  -21.4843   17.5766 H   0  0  0  0  0  0
  -32.0261  -21.2653   19.2658 H   0  0  0  0  0  0
  -31.0027  -18.1449   16.5307 H   0  0  0  0  0  0
  -31.6845  -19.5845   15.8509 H   0  0  0  0  0  0
  -29.5499  -21.6205   17.8442 H   0  0  0  0  0  0
  -29.0086  -20.2408   16.8850 H   0  0  0  0  0  0
  -30.2696  -21.3140   16.2965 H   0  0  0  0  0  0
  -28.1172  -21.8099   19.3454 H   0  0  0  0  0  0
  -27.7606  -21.8828   21.0316 H   0  0  0  0  0  0
  -27.0661  -24.5906   20.8001 H   0  0  0  0  0  0
  -27.5020  -24.5874   19.1108 H   0  0  0  0  0  0
  -28.9560  -15.7109   21.2648 H   0  0  0  0  0  0
  -30.5289  -21.3876   20.4966 H   0  0  0  0  0  0
  1 25  1  0  0  0
  1 30  2  0  0  0
  1 84  1  0  0  0
  2  3  1  0  0  0
  2 25  1  0  0  0
  2 88  1  0  0  0
  2 89  1  0  0  0
  3  4  1  0  0  0
  3 90  1  0  0  0
  3 91  1  0  0  0
  4  5  1  0  0  0
  4 92  1  0  0  0
  4 93  1  0  0  0
  5  6  1  0  0  0
  5 26  1  0  0  0
  5 94  1  0  0  0
  6 25  1  0  0  0
  6 95  1  0  0  0
  6 96  1  0  0  0
  7  8  2  0  0  0
  7 26  1  0  0  0
  7 29  1  0  0  0
  8  9  1  0  0  0
  8 22  1  0  0  0
  9 10  1  0  0  0
  9 27  2  0  0  0
 10 11  2  0  0  0
 10 15  1  0  0  0
 11 12  1  0  0  0
 11 97  1  0  0  0
 12 13  2  0  0  0
 12 98  1  0  0  0
 13 14  1  0  0  0
 13 31  1  0  0  0
 14 15  2  0  0  0
 14 99  1  0  0  0
 15100  1  0  0  0
 16 17  2  0  0  0
 16 21  1  0  0  0
 16 31  1  0  0  0
 17 18  1  0  0  0
 17101  1  0  0  0
 18 19  2  0  0  0
 18102  1  0  0  0
 19 20  1  0  0  0
 19 24  1  0  0  0
 20 21  2  0  0  0
 20103  1  0  0  0
 21 23  1  0  0  0
 22 28  1  0  0  0
 22 32  2  0  0  0
 26 27  1  0  0  0
 28104  1  0  0  0
 28105  1  0  0  0
 29106  1  0  0  0
 29107  1  0  0  0
 33 34  1  0  0  0
 33 66  1  0  0  0
 33 70  2  0  0  0
 34 36  1  0  0  0
 34 59  1  0  0  0
 34108  1  0  0  0
 35 44  2  0  0  0
 35 45  1  0  0  0
 35 68  1  0  0  0
 36 56  1  0  0  0
 36109  1  0  0  0
 37 39  1  0  0  0
 37 47  1  0  0  0
 37 66  1  0  0  0
 37110  1  0  0  0
 38 43  2  0  0  0
 38 46  1  0  0  0
 38 47  1  0  0  0
 39 64  1  0  0  0
 39 67  2  0  0  0
 40 52  1  0  0  0
 40 53  2  0  0  0
 40 58  1  0  0  0
 41111  1  0  0  0
 41112  1  0  0  0
 41113  1  0  0  0
 41 48  1  0  0  0
 42 43  1  0  0  0
 42 66  1  0  0  0
 42114  1  0  0  0
 42115  1  0  0  0
 43 44  1  0  0  0
 44116  1  0  0  0
 45 46  2  0  0  0
 45117  1  0  0  0
 46118  1  0  0  0
 47119  1  0  0  0
 47120  1  0  0  0
 48 56  1  0  0  0
 48 65  1  0  0  0
 48121  1  0  0  0
 49 50  1  0  0  0
 49 53  1  0  0  0
 49 64  1  0  0  0
 49122  1  0  0  0
 50 51  1  0  0  0
 50123  1  0  0  0
 50124  1  0  0  0
 51 52  1  0  0  0
 51125  1  0  0  0
 51126  1  0  0  0
 52127  1  0  0  0
 52128  1  0  0  0
 53 54  1  0  0  0
 54 55  2  0  0  0
 54129  1  0  0  0
 55 57  1  0  0  0
 55130  1  0  0  0
 56 69  2  0  0  0
 57 58  2  0  0  0
 57131  1  0  0  0
 58132  1  0  0  0
 59 60  1  0  0  0
 59 61  1  0  0  0
 59 62  1  0  0  0
 60133  1  0  0  0
 60134  1  0  0  0
 60135  1  0  0  0
 61136  1  0  0  0
 61137  1  0  0  0
 61138  1  0  0  0
 62139  1  0  0  0
 62140  1  0  0  0
 62141  1  0  0  0
 63 65  1  0  0  0
 63142  1  0  0  0
 63143  1  0  0  0
 63144  1  0  0  0
 64145  1  0  0  0
 65146  1  0  0  0
 68 83  1  0  0  0
 71 72  1  0  0  0
 71 73  2  0  0  0
 71147  1  0  0  0
 72 74  2  0  0  0
 72 80  1  0  0  0
 73 84  1  0  0  0
 73 87  1  0  0  0
 74 85  1  0  0  0
 74 87  1  0  0  0
 75 82  1  0  0  0
 75 83  1  0  0  0
 75 86  2  0  0  0
 76 77  1  0  0  0
 76 78  1  0  0  0
 76148  1  0  0  0
 76149  1  0  0  0
 77 79  1  0  0  0
 77150  1  0  0  0
 77151  1  0  0  0
 78 80  1  0  0  0
 78152  1  0  0  0
 78153  1  0  0  0
 79 80  1  0  0  0
 79154  1  0  0  0
 79155  1  0  0  0
 80 81  1  0  0  0
 81156  1  0  0  0
 81157  1  0  0  0
 81158  1  0  0  0
 82 85  1  0  0  0
 82159  1  0  0  0
 82160  1  0  0  0
 83161  1  0  0  0
 83162  1  0  0  0
 84163  1  0  0  0
 85164  1  0  0  0
M  ISO  4   1 100  68 101  83 101  84 100
M  END
> <chiral flag>
0

> <version>
0

> <s_m_source_file>
/data/baiqing/PycharmProjects/Reinvent-master-3.2/result/LINK_invent/BTK/process_docking_weight1_custom_product_contain_oxygen_bond_distance_aromatic_linkinvent_7_9_3/rearranged_h_0158.sdf

> <i_m_source_file_index>
38

> <r_mmod_Potential_Energy-OPLS-2005>
346.138916015625

> <r_mmod_Stretch_Energy-OPLS-2005>
151.783554077148

> <r_mmod_Bend_Energy-OPLS-2005>
224.184432983398

> <r_mmod_Torsional_Energy-OPLS-2005>
310.196594238281

> <r_mmod_Improper_Torsional_Energy-OPLS-2005>
10.6298675537109

> <r_mmod_Van_der_Waal_Energy-OPLS-2005>
119.825904846191

> <r_mmod_Electrostatic_Energy-OPLS-2005>
-347.709411621094

> <r_mmod_Solvation_Energy-OPLS-2005>
-238.512741088867

> <b_mmod_Minimization_Converged-OPLS-2005>
0

> <r_mmod_RMS_Derivative-OPLS-2005>
1.76710748672485

$$$$
38
                    3D
 Structure written by MMmdl.
155163  0  0  1  0            999 V2000
  -30.5243  -14.7741   20.5401 C   0  0  0  0  0  0
  -30.4715  -12.4914   19.4579 C   0  0  0  0  0  0
  -29.5250  -12.5382   18.2321 C   0  0  0  0  0  0
  -28.0492  -12.3410   18.6420 C   0  0  0  0  0  0
  -27.6557  -13.2106   19.8636 C   0  0  2  0  0  0
  -28.7034  -13.0654   20.9921 C   0  0  0  0  0  0
  -25.2582  -13.8127   20.5687 C   0  0  0  0  0  0
  -24.1850  -13.0419   20.9222 C   0  0  0  0  0  0
  -24.6405  -11.6888   20.8751 C   0  0  0  0  0  0
  -23.9065  -10.4287   21.0418 C   0  0  0  0  0  0
  -24.3606   -9.4211   21.9206 C   0  0  0  0  0  0
  -23.6276   -8.2248   22.0777 C   0  0  0  0  0  0
  -22.4266   -8.0284   21.3557 C   0  0  0  0  0  0
  -21.9924   -9.0250   20.4639 C   0  0  0  0  0  0
  -22.7253  -10.2126   20.3049 C   0  0  0  0  0  0
  -21.6855   -6.0739   22.5285 C   0  0  0  0  0  0
  -21.4011   -6.5642   23.8217 C   0  0  0  0  0  0
  -21.3662   -5.6791   24.9183 C   0  0  0  0  0  0
  -21.6051   -4.3055   24.7232 C   0  0  0  0  0  0
  -21.8819   -3.8149   23.4353 C   0  0  0  0  0  0
  -21.9192   -4.6967   22.3407 C   0  0  0  0  0  0
  -22.7866  -13.5233   21.1863 C   0  0  0  0  0  0
  -22.1657   -4.2155   21.0982 F   0  0  0  0  0  0
  -21.5631   -3.4529   25.7736 F   0  0  0  0  0  0
  -30.0074  -13.4927   20.4475 N   0  0  0  0  0  0
  -26.2997  -12.9291   20.3278 N   0  0  0  0  0  0
  -25.9330  -11.6464   20.5731 N   0  0  0  0  0  0
  -22.0473  -12.8200   22.0360 N   0  0  0  0  0  0
  -25.4295  -15.1840   20.4083 N   0  0  0  0  0  0
  -31.6297  -15.0613   20.0559 O   0  0  0  0  0  0
  -21.6632   -6.8883   21.4249 O   0  0  0  0  0  0
  -22.3598  -14.5583   20.6757 O   0  0  0  0  0  0
  -24.6338  -31.8520   23.1934 C   0  0  0  0  0  0
  -25.9147  -32.4736   23.8304 C   0  0  1  0  0  0
  -27.2261  -27.2258   20.1478 C   0  0  0  0  0  0
  -25.5920  -33.8538   24.2225 N   0  0  0  0  0  0
  -23.4338  -30.4708   21.5362 C   0  0  2  0  0  0
  -24.8848  -28.9060   20.1134 C   0  0  0  0  0  0
  -22.7519  -29.4583   22.4884 C   0  0  0  0  0  0
  -18.0297  -28.1389   22.8479 C   0  0  0  0  0  0
  -24.1490  -36.7283   23.2642 C   0  0  0  0  0  0
  -25.9821  -30.7506   21.3816 C   0  0  0  0  0  0
  -26.0555  -29.3679   20.7288 C   0  0  0  0  0  0
  -27.2300  -28.5426   20.7305 C   0  0  0  0  0  0
  -26.0384  -26.8421   19.4908 C   0  0  0  0  0  0
  -24.8827  -27.6516   19.4817 C   0  0  0  0  0  0
  -23.6568  -29.7981   20.1552 C   0  0  0  0  0  0
  -25.4121  -36.3060   24.0319 C   0  0  1  0  0  0
  -20.5902  -28.3712   23.1251 C   0  0  2  0  0  0
  -20.6788  -26.9423   22.5405 C   0  0  0  0  0  0
  -19.5762  -26.6378   21.5212 C   0  0  0  0  0  0
  -18.1940  -26.7926   22.1621 C   0  0  0  0  0  0
  -19.1550  -28.8864   23.2856 C   0  0  0  0  0  0
  -18.9472  -30.1465   23.8874 C   0  0  0  0  0  0
  -17.6473  -30.6587   24.0566 C   0  0  0  0  0  0
  -25.9062  -34.9430   23.5079 C   0  0  0  0  0  0
  -16.5366  -29.9083   23.6340 C   0  0  0  0  0  0
  -16.7283  -28.6503   23.0353 C   0  0  0  0  0  0
  -26.4500  -31.6578   25.0718 C   0  0  0  0  0  0
  -25.3708  -31.3744   26.1428 C   0  0  0  0  0  0
  -27.0369  -30.2988   24.6256 C   0  0  0  0  0  0
  -27.6033  -32.4340   25.7505 C   0  0  0  0  0  0
  -27.5580  -37.1803   24.8466 C   0  0  0  0  0  0
  -21.4223  -29.3047   22.3626 N   0  0  0  0  0  0
  -26.4295  -37.3762   23.9397 N   0  0  0  0  0  0
  -24.7015  -31.0452   22.0923 N   0  0  0  0  0  0
  -23.4199  -28.8134   23.3012 O   0  0  0  0  0  0
  -28.3266  -26.3237   20.1496 O   0  0  0  0  0  0
  -26.5647  -34.8919   22.4660 O   0  0  0  0  0  0
  -23.5478  -32.1354   23.7203 O   0  0  0  0  0  0
  -29.4945  -19.7720   21.2787 C   0  0  0  0  0  0
  -29.5591  -18.4608   20.5802 C   0  0  0  0  0  0
  -29.3198  -20.9175   20.4863 C   0  0  0  0  0  0
  -29.2763  -17.1254   21.3254 C   0  0  0  0  0  0
  -26.9569  -24.6424   21.5023 C   0  0  0  0  0  0
  -27.3617  -18.2349   22.6494 C   0  0  0  0  0  0
  -28.7861  -23.5502   20.0085 C   0  0  0  0  0  0
  -28.2802  -24.9251   20.7645 C   0  0  1  0  0  0
  -29.6162  -18.6271   19.2700 N   0  0  0  0  0  0
  -29.0575  -22.3108   20.8674 N   0  0  0  0  0  0
  -29.6231  -15.7641   21.2017 N   0  0  0  0  0  0
  -28.3414  -17.1851   22.3131 N   0  3  0  0  0  0
  -29.4532  -20.2915   18.8623 S   0  0  0  0  0  0
  -31.5001  -12.6841   19.1466 H   0  0  0  0  0  0
  -30.4767  -11.4936   19.8999 H   0  0  0  0  0  0
  -29.8156  -11.7808   17.5028 H   0  0  0  0  0  0
  -29.6330  -13.5000   17.7271 H   0  0  0  0  0  0
  -27.9061  -11.2861   18.8804 H   0  0  0  0  0  0
  -27.3917  -12.5535   17.7981 H   0  0  0  0  0  0
  -27.6682  -14.2457   19.5209 H   0  0  0  0  0  0
  -28.7551  -12.0263   21.3222 H   0  0  0  0  0  0
  -28.4075  -13.6253   21.8795 H   0  0  0  0  0  0
  -25.2751   -9.5683   22.4785 H   0  0  0  0  0  0
  -23.9988   -7.4654   22.7509 H   0  0  0  0  0  0
  -21.0881   -8.8761   19.8912 H   0  0  0  0  0  0
  -22.3743  -10.9656   19.6131 H   0  0  0  0  0  0
  -21.1983   -7.6147   23.9719 H   0  0  0  0  0  0
  -21.1488   -6.0522   25.9085 H   0  0  0  0  0  0
  -22.0596   -2.7612   23.2854 H   0  0  0  0  0  0
  -22.4029  -11.9790   22.4660 H   0  0  0  0  0  0
  -21.1088  -13.1239   22.2553 H   0  0  0  0  0  0
  -26.2068  -15.5923   19.9065 H   0  0  0  0  0  0
  -24.6305  -15.8064   20.4661 H   0  0  0  0  0  0
  -26.7209  -32.5371   23.1037 H   0  0  0  0  0  0
  -25.0050  -33.9668   25.0357 H   0  0  0  0  0  0
  -22.7316  -31.2929   21.3844 H   0  0  0  0  0  0
  -23.3751  -35.9617   23.3309 H   0  0  0  0  0  0
  -24.3570  -36.8912   22.2056 H   0  0  0  0  0  0
  -23.7255  -37.6484   23.6680 H   0  0  0  0  0  0
  -26.1288  -31.5064   20.6085 H   0  0  0  0  0  0
  -26.8547  -30.7986   22.0211 H   0  0  0  0  0  0
  -28.1275  -28.8946   21.2191 H   0  0  0  0  0  0
  -25.9966  -25.8834   18.9933 H   0  0  0  0  0  0
  -23.9909  -27.2956   18.9835 H   0  0  0  0  0  0
  -23.7827  -30.5701   19.3948 H   0  0  0  0  0  0
  -22.7752  -29.2307   19.8515 H   0  0  0  0  0  0
  -25.1309  -36.1904   25.0813 H   0  0  0  0  0  0
  -20.9991  -28.3307   24.1376 H   0  0  0  0  0  0
  -20.5686  -26.2330   23.3620 H   0  0  0  0  0  0
  -21.6658  -26.7444   22.1205 H   0  0  0  0  0  0
  -19.6930  -25.6281   21.1254 H   0  0  0  0  0  0
  -19.6699  -27.3179   20.6733 H   0  0  0  0  0  0
  -17.4215  -26.6665   21.4023 H   0  0  0  0  0  0
  -18.0349  -26.0070   22.9018 H   0  0  0  0  0  0
  -19.7952  -30.7283   24.2230 H   0  0  0  0  0  0
  -17.5034  -31.6266   24.5169 H   0  0  0  0  0  0
  -15.5365  -30.2982   23.7674 H   0  0  0  0  0  0
  -15.8685  -28.0819   22.7077 H   0  0  0  0  0  0
  -24.5876  -30.7107   25.7750 H   0  0  0  0  0  0
  -24.8913  -32.2920   26.4845 H   0  0  0  0  0  0
  -25.8003  -30.8922   27.0217 H   0  0  0  0  0  0
  -26.2971  -29.6703   24.1287 H   0  0  0  0  0  0
  -27.4024  -29.7295   25.4811 H   0  0  0  0  0  0
  -27.8860  -30.4244   23.9537 H   0  0  0  0  0  0
  -27.2613  -33.3633   26.2076 H   0  0  0  0  0  0
  -28.3852  -32.6911   25.0345 H   0  0  0  0  0  0
  -28.0699  -31.8480   26.5435 H   0  0  0  0  0  0
  -28.2596  -38.0099   24.7499 H   0  0  0  0  0  0
  -28.1075  -36.2627   24.6308 H   0  0  0  0  0  0
  -27.2295  -37.1477   25.8868 H   0  0  0  0  0  0
  -20.9416  -29.8759   21.6814 H   0  0  0  0  0  0
  -26.0173  -38.2840   24.1373 H   0  0  0  0  0  0
  -29.4842  -19.8088   22.3565 H   0  0  0  0  0  0
  -27.0396  -23.7590   22.1339 H   0  0  0  0  0  0
  -26.1366  -24.4558   20.8108 H   0  0  0  0  0  0
  -26.6768  -25.4677   22.1572 H   0  0  0  0  0  0
  -26.4798  -17.7818   23.1030 H   0  0  0  0  0  0
  -27.0242  -18.7783   21.7664 H   0  0  0  0  0  0
  -27.7682  -18.9415   23.3729 H   0  0  0  0  0  0
  -29.7105  -23.7818   19.4772 H   0  0  0  0  0  0
  -28.0627  -23.2843   19.2369 H   0  0  0  0  0  0
  -29.0118  -25.0466   21.5643 H   0  0  0  0  0  0
  -28.9962  -22.4973   21.8647 H   0  0  0  0  0  0
  -28.8913  -15.2870   21.6898 H   0  0  0  0  0  0
  -28.2896  -16.4164   22.9653 H   0  0  0  0  0  0
  1 25  1  0  0  0
  1 30  2  0  0  0
  1 81  1  0  0  0
  2  3  1  0  0  0
  2 25  1  0  0  0
  2 84  1  0  0  0
  2 85  1  0  0  0
  3  4  1  0  0  0
  3 86  1  0  0  0
  3 87  1  0  0  0
  4  5  1  0  0  0
  4 88  1  0  0  0
  4 89  1  0  0  0
  5  6  1  0  0  0
  5 26  1  0  0  0
  5 90  1  0  0  0
  6 25  1  0  0  0
  6 91  1  0  0  0
  6 92  1  0  0  0
  7  8  2  0  0  0
  7 26  1  0  0  0
  7 29  1  0  0  0
  8  9  1  0  0  0
  8 22  1  0  0  0
  9 10  1  0  0  0
  9 27  2  0  0  0
 10 11  2  0  0  0
 10 15  1  0  0  0
 11 12  1  0  0  0
 11 93  1  0  0  0
 12 13  2  0  0  0
 12 94  1  0  0  0
 13 14  1  0  0  0
 13 31  1  0  0  0
 14 15  2  0  0  0
 14 95  1  0  0  0
 15 96  1  0  0  0
 16 17  2  0  0  0
 16 21  1  0  0  0
 16 31  1  0  0  0
 17 18  1  0  0  0
 17 97  1  0  0  0
 18 19  2  0  0  0
 18 98  1  0  0  0
 19 20  1  0  0  0
 19 24  1  0  0  0
 20 21  2  0  0  0
 20 99  1  0  0  0
 21 23  1  0  0  0
 22 28  1  0  0  0
 22 32  2  0  0  0
 26 27  1  0  0  0
 28100  1  0  0  0
 28101  1  0  0  0
 29102  1  0  0  0
 29103  1  0  0  0
 33 34  1  0  0  0
 33 66  1  0  0  0
 33 70  2  0  0  0
 34 36  1  0  0  0
 34 59  1  0  0  0
 34104  1  0  0  0
 35 44  2  0  0  0
 35 45  1  0  0  0
 35 68  1  0  0  0
 36 56  1  0  0  0
 36105  1  0  0  0
 37 39  1  0  0  0
 37 47  1  0  0  0
 37 66  1  0  0  0
 37106  1  0  0  0
 38 43  2  0  0  0
 38 46  1  0  0  0
 38 47  1  0  0  0
 39 64  1  0  0  0
 39 67  2  0  0  0
 40 52  1  0  0  0
 40 53  2  0  0  0
 40 58  1  0  0  0
 41107  1  0  0  0
 41108  1  0  0  0
 41109  1  0  0  0
 41 48  1  0  0  0
 42 43  1  0  0  0
 42 66  1  0  0  0
 42110  1  0  0  0
 42111  1  0  0  0
 43 44  1  0  0  0
 44112  1  0  0  0
 45 46  2  0  0  0
 45113  1  0  0  0
 46114  1  0  0  0
 47115  1  0  0  0
 47116  1  0  0  0
 48 56  1  0  0  0
 48 65  1  0  0  0
 48117  1  0  0  0
 49 50  1  0  0  0
 49 53  1  0  0  0
 49 64  1  0  0  0
 49118  1  0  0  0
 50 51  1  0  0  0
 50119  1  0  0  0
 50120  1  0  0  0
 51 52  1  0  0  0
 51121  1  0  0  0
 51122  1  0  0  0
 52123  1  0  0  0
 52124  1  0  0  0
 53 54  1  0  0  0
 54 55  2  0  0  0
 54125  1  0  0  0
 55 57  1  0  0  0
 55126  1  0  0  0
 56 69  2  0  0  0
 57 58  2  0  0  0
 57127  1  0  0  0
 58128  1  0  0  0
 59 60  1  0  0  0
 59 61  1  0  0  0
 59 62  1  0  0  0
 60129  1  0  0  0
 60130  1  0  0  0
 60131  1  0  0  0
 61132  1  0  0  0
 61133  1  0  0  0
 61134  1  0  0  0
 62135  1  0  0  0
 62136  1  0  0  0
 62137  1  0  0  0
 63 65  1  0  0  0
 63138  1  0  0  0
 63139  1  0  0  0
 63140  1  0  0  0
 64141  1  0  0  0
 65142  1  0  0  0
 68 78  1  0  0  0
 71 72  1  0  0  0
 71 73  2  0  0  0
 71143  1  0  0  0
 72 74  1  0  0  0
 72 79  2  0  0  0
 73 80  1  0  0  0
 73 83  1  0  0  0
 74 81  1  0  0  0
 74 82  2  0  0  0
 75144  1  0  0  0
 75145  1  0  0  0
 75146  1  0  0  0
 75 78  1  0  0  0
 76 82  1  0  0  0
 76147  1  0  0  0
 76148  1  0  0  0
 76149  1  0  0  0
 77 78  1  0  0  0
 77 80  1  0  0  0
 77150  1  0  0  0
 77151  1  0  0  0
 78152  1  0  0  0
 79 83  1  0  0  0
 80153  1  0  0  0
 81154  1  0  0  0
 82155  1  0  0  0
M  CHG  1  82   1
M  ISO  4   1 100  68 101  78 101  81 100
M  END
> <chiral flag>
0

> <version>
0

> <s_m_source_file>
/data/baiqing/PycharmProjects/Reinvent-master-3.2/result/LINK_invent/BTK/process_docking_weight1_custom_product_contain_oxygen_bond_distance_aromatic_linkinvent_7_9_3/rearranged_h_0158.sdf

> <i_m_source_file_index>
39

> <r_mmod_Potential_Energy-OPLS-2005>
117.523887634277

> <r_mmod_Stretch_Energy-OPLS-2005>
151.435012817383

> <r_mmod_Bend_Energy-OPLS-2005>
303.033874511719

> <r_mmod_Torsional_Energy-OPLS-2005>
247.634552001953

> <r_mmod_Improper_Torsional_Energy-OPLS-2005>
7.49099397659302

> <r_mmod_Van_der_Waal_Energy-OPLS-2005>
119.220008850098

> <r_mmod_Electrostatic_Energy-OPLS-2005>
-316.872009277344

> <r_mmod_Solvation_Energy-OPLS-2005>
-500.648895263672

> <b_mmod_Minimization_Converged-OPLS-2005>
0

> <r_mmod_RMS_Derivative-OPLS-2005>
1.41029000282288

$$$$
39
                    3D
 Structure written by MMmdl.
148156  0  0  1  0            999 V2000
  -30.5902  -14.7894   20.4505 C   0  0  0  0  0  0
  -30.4374  -12.4795   19.4876 C   0  0  0  0  0  0
  -29.5167  -12.5175   18.2464 C   0  0  0  0  0  0
  -28.0433  -12.3330   18.6570 C   0  0  0  0  0  0
  -27.6433  -13.2352   19.8545 C   0  0  2  0  0  0
  -28.6864  -13.1786   20.9932 C   0  0  0  0  0  0
  -25.2514  -13.8200   20.5697 C   0  0  0  0  0  0
  -24.1807  -13.0440   20.9205 C   0  0  0  0  0  0
  -24.6400  -11.6920   20.8745 C   0  0  0  0  0  0
  -23.9073  -10.4295   21.0406 C   0  0  0  0  0  0
  -24.3625   -9.4207   21.9183 C   0  0  0  0  0  0
  -23.6299   -8.2243   22.0753 C   0  0  0  0  0  0
  -22.4279   -8.0282   21.3543 C   0  0  0  0  0  0
  -21.9915   -9.0257   20.4648 C   0  0  0  0  0  0
  -22.7245  -10.2137   20.3056 C   0  0  0  0  0  0
  -21.6853   -6.0739   22.5281 C   0  0  0  0  0  0
  -21.4015   -6.5641   23.8215 C   0  0  0  0  0  0
  -21.3659   -5.6792   24.9175 C   0  0  0  0  0  0
  -21.6046   -4.3057   24.7225 C   0  0  0  0  0  0
  -21.8818   -3.8148   23.4345 C   0  0  0  0  0  0
  -21.9193   -4.6966   22.3403 C   0  0  0  0  0  0
  -22.7827  -13.5221   21.1868 C   0  0  0  0  0  0
  -22.1660   -4.2151   21.0980 F   0  0  0  0  0  0
  -21.5630   -3.4538   25.7737 F   0  0  0  0  0  0
  -29.9875  -13.5454   20.4177 N   0  0  0  0  0  0
  -26.2947  -12.9413   20.3294 N   0  0  0  0  0  0
  -25.9335  -11.6552   20.5757 N   0  0  0  0  0  0
  -22.0476  -12.8215   22.0428 N   0  0  0  0  0  0
  -25.4195  -15.1925   20.4109 N   0  0  0  0  0  0
  -31.7691  -14.8895   20.0937 O   0  0  0  0  0  0
  -21.6642   -6.8881   21.4241 O   0  0  0  0  0  0
  -22.3510  -14.5522   20.6710 O   0  0  0  0  0  0
  -24.6348  -31.8525   23.1971 C   0  0  0  0  0  0
  -25.9160  -32.4737   23.8327 C   0  0  1  0  0  0
  -27.2160  -27.2220   20.1298 C   0  0  0  0  0  0
  -25.5945  -33.8544   24.2243 N   0  0  0  0  0  0
  -23.4336  -30.4757   21.5408 C   0  0  2  0  0  0
  -24.8813  -28.9210   20.1073 C   0  0  0  0  0  0
  -22.7524  -29.4590   22.4892 C   0  0  0  0  0  0
  -18.0297  -28.1391   22.8480 C   0  0  0  0  0  0
  -24.1492  -36.7276   23.2640 C   0  0  0  0  0  0
  -25.9837  -30.7502   21.3873 C   0  0  0  0  0  0
  -26.0535  -29.3705   20.7275 C   0  0  0  0  0  0
  -27.2197  -28.5316   20.7332 C   0  0  0  0  0  0
  -26.0245  -26.8659   19.4548 C   0  0  0  0  0  0
  -24.8748  -27.6786   19.4593 C   0  0  0  0  0  0
  -23.6547  -29.8125   20.1563 C   0  0  0  0  0  0
  -25.4120  -36.3061   24.0323 C   0  0  1  0  0  0
  -20.5905  -28.3710   23.1255 C   0  0  2  0  0  0
  -20.6784  -26.9422   22.5406 C   0  0  0  0  0  0
  -19.5758  -26.6383   21.5212 C   0  0  0  0  0  0
  -18.1939  -26.7931   22.1625 C   0  0  0  0  0  0
  -19.1552  -28.8867   23.2862 C   0  0  0  0  0  0
  -18.9470  -30.1464   23.8885 C   0  0  0  0  0  0
  -17.6468  -30.6590   24.0561 C   0  0  0  0  0  0
  -25.9065  -34.9431   23.5087 C   0  0  0  0  0  0
  -16.5359  -29.9085   23.6332 C   0  0  0  0  0  0
  -16.7283  -28.6504   23.0353 C   0  0  0  0  0  0
  -26.4511  -31.6578   25.0735 C   0  0  0  0  0  0
  -25.3720  -31.3748   26.1448 C   0  0  0  0  0  0
  -27.0363  -30.2982   24.6266 C   0  0  0  0  0  0
  -27.6059  -32.4330   25.7507 C   0  0  0  0  0  0
  -27.5580  -37.1794   24.8464 C   0  0  0  0  0  0
  -21.4227  -29.3050   22.3638 N   0  0  0  0  0  0
  -26.4291  -37.3763   23.9408 N   0  0  0  0  0  0
  -24.7029  -31.0454   22.0971 N   0  0  0  0  0  0
  -23.4206  -28.8128   23.3004 O   0  0  0  0  0  0
  -28.2890  -26.2886   20.2247 O   0  0  0  0  0  0
  -26.5640  -34.8910   22.4658 O   0  0  0  0  0  0
  -23.5488  -32.1371   23.7238 O   0  0  0  0  0  0
  -30.7933  -17.8575   19.5119 C   0  0  0  0  0  0
  -30.5476  -19.2830   19.4765 C   0  0  0  0  0  0
  -29.9596  -17.2913   20.4495 C   0  0  0  0  0  0
  -29.5756  -19.5691   20.3999 C   0  0  0  0  0  0
  -28.8361  -23.6261   20.5672 C   0  0  0  0  0  0
  -28.9935  -22.1466   19.9162 C   0  0  0  0  0  0
  -28.1000  -24.8393   19.7919 C   0  0  0  0  0  0
  -29.8123  -15.9128   20.7439 N   0  0  0  0  0  0
  -29.0558  -20.8816   20.7809 N   0  0  0  0  0  0
  -29.2768  -23.8150   21.7060 O   0  0  0  0  0  0
  -29.1959  -18.3492   21.0088 O   0  0  0  0  0  0
  -31.4782  -12.6063   19.1860 H   0  0  0  0  0  0
  -30.3883  -11.5044   19.9747 H   0  0  0  0  0  0
  -29.8074  -11.7426   17.5358 H   0  0  0  0  0  0
  -29.6371  -13.4698   17.7275 H   0  0  0  0  0  0
  -27.9066  -11.2845   18.9245 H   0  0  0  0  0  0
  -27.3859  -12.5181   17.8065 H   0  0  0  0  0  0
  -27.6350  -14.2556   19.4706 H   0  0  0  0  0  0
  -28.7296  -12.1810   21.4326 H   0  0  0  0  0  0
  -28.4109  -13.8547   21.8039 H   0  0  0  0  0  0
  -25.2771   -9.5683   22.4759 H   0  0  0  0  0  0
  -24.0009   -7.4631   22.7471 H   0  0  0  0  0  0
  -21.0845   -8.8776   19.8956 H   0  0  0  0  0  0
  -22.3700  -10.9677   19.6168 H   0  0  0  0  0  0
  -21.2007   -7.6149   23.9717 H   0  0  0  0  0  0
  -21.1485   -6.0524   25.9079 H   0  0  0  0  0  0
  -22.0597   -2.7609   23.2843 H   0  0  0  0  0  0
  -22.4095  -11.9877   22.4823 H   0  0  0  0  0  0
  -21.1093  -13.1239   22.2636 H   0  0  0  0  0  0
  -24.6489  -15.8433   20.5168 H   0  0  0  0  0  0
  -26.2630  -15.6334   20.0672 H   0  0  0  0  0  0
  -26.7225  -32.5369   23.1062 H   0  0  0  0  0  0
  -25.0083  -33.9677   25.0383 H   0  0  0  0  0  0
  -22.7320  -31.2995   21.3940 H   0  0  0  0  0  0
  -23.3756  -35.9607   23.3297 H   0  0  0  0  0  0
  -24.3580  -36.8908   22.2056 H   0  0  0  0  0  0
  -23.7244  -37.6473   23.6672 H   0  0  0  0  0  0
  -26.1328  -31.5091   20.6179 H   0  0  0  0  0  0
  -26.8577  -30.7959   22.0257 H   0  0  0  0  0  0
  -28.1101  -28.8654   21.2474 H   0  0  0  0  0  0
  -25.9357  -25.9340   18.9192 H   0  0  0  0  0  0
  -23.9821  -27.3354   18.9548 H   0  0  0  0  0  0
  -23.7845  -30.5904   19.4031 H   0  0  0  0  0  0
  -22.7716  -29.2503   19.8472 H   0  0  0  0  0  0
  -25.1302  -36.1902   25.0815 H   0  0  0  0  0  0
  -20.9996  -28.3293   24.1377 H   0  0  0  0  0  0
  -20.5682  -26.2324   23.3617 H   0  0  0  0  0  0
  -21.6651  -26.7441   22.1202 H   0  0  0  0  0  0
  -19.6921  -25.6290   21.1251 H   0  0  0  0  0  0
  -19.6693  -27.3185   20.6734 H   0  0  0  0  0  0
  -17.4208  -26.6674   21.4029 H   0  0  0  0  0  0
  -18.0343  -26.0076   22.9026 H   0  0  0  0  0  0
  -19.7946  -30.7283   24.2250 H   0  0  0  0  0  0
  -17.5023  -31.6268   24.5167 H   0  0  0  0  0  0
  -15.5360  -30.2984   23.7661 H   0  0  0  0  0  0
  -15.8684  -28.0818   22.7075 H   0  0  0  0  0  0
  -24.5895  -30.7098   25.7775 H   0  0  0  0  0  0
  -24.8914  -32.2924   26.4850 H   0  0  0  0  0  0
  -25.8023  -30.8938   27.0241 H   0  0  0  0  0  0
  -26.2962  -29.6721   24.1269 H   0  0  0  0  0  0
  -27.3992  -29.7260   25.4814 H   0  0  0  0  0  0
  -27.8865  -30.4232   23.9558 H   0  0  0  0  0  0
  -27.2663  -33.3637   26.2062 H   0  0  0  0  0  0
  -28.3878  -32.6878   25.0342 H   0  0  0  0  0  0
  -28.0719  -31.8473   26.5441 H   0  0  0  0  0  0
  -28.2593  -38.0096   24.7513 H   0  0  0  0  0  0
  -28.1081  -36.2627   24.6286 H   0  0  0  0  0  0
  -27.2300  -37.1438   25.8868 H   0  0  0  0  0  0
  -20.9420  -29.8775   21.6839 H   0  0  0  0  0  0
  -26.0166  -38.2835   24.1408 H   0  0  0  0  0  0
  -31.5015  -17.3181   18.8987 H   0  0  0  0  0  0
  -31.0489  -20.0075   18.8510 H   0  0  0  0  0  0
  -29.8922  -22.1766   19.2996 H   0  0  0  0  0  0
  -28.1664  -22.0248   19.2159 H   0  0  0  0  0  0
  -27.0496  -24.5720   19.8791 H   0  0  0  0  0  0
  -28.3497  -24.7657   18.7337 H   0  0  0  0  0  0
  -28.9279  -15.6770   21.1667 H   0  0  0  0  0  0
  -28.3997  -20.8953   21.5581 H   0  0  0  0  0  0
  1 25  1  0  0  0
  1 30  2  0  0  0
  1 78  1  0  0  0
  2  3  1  0  0  0
  2 25  1  0  0  0
  2 82  1  0  0  0
  2 83  1  0  0  0
  3  4  1  0  0  0
  3 84  1  0  0  0
  3 85  1  0  0  0
  4  5  1  0  0  0
  4 86  1  0  0  0
  4 87  1  0  0  0
  5  6  1  0  0  0
  5 26  1  0  0  0
  5 88  1  0  0  0
  6 25  1  0  0  0
  6 89  1  0  0  0
  6 90  1  0  0  0
  7  8  2  0  0  0
  7 26  1  0  0  0
  7 29  1  0  0  0
  8  9  1  0  0  0
  8 22  1  0  0  0
  9 10  1  0  0  0
  9 27  2  0  0  0
 10 11  2  0  0  0
 10 15  1  0  0  0
 11 12  1  0  0  0
 11 91  1  0  0  0
 12 13  2  0  0  0
 12 92  1  0  0  0
 13 14  1  0  0  0
 13 31  1  0  0  0
 14 15  2  0  0  0
 14 93  1  0  0  0
 15 94  1  0  0  0
 16 17  2  0  0  0
 16 21  1  0  0  0
 16 31  1  0  0  0
 17 18  1  0  0  0
 17 95  1  0  0  0
 18 19  2  0  0  0
 18 96  1  0  0  0
 19 20  1  0  0  0
 19 24  1  0  0  0
 20 21  2  0  0  0
 20 97  1  0  0  0
 21 23  1  0  0  0
 22 28  1  0  0  0
 22 32  2  0  0  0
 26 27  1  0  0  0
 28 98  1  0  0  0
 28 99  1  0  0  0
 29100  1  0  0  0
 29101  1  0  0  0
 33 34  1  0  0  0
 33 66  1  0  0  0
 33 70  2  0  0  0
 34 36  1  0  0  0
 34 59  1  0  0  0
 34102  1  0  0  0
 35 44  2  0  0  0
 35 45  1  0  0  0
 35 68  1  0  0  0
 36 56  1  0  0  0
 36103  1  0  0  0
 37 39  1  0  0  0
 37 47  1  0  0  0
 37 66  1  0  0  0
 37104  1  0  0  0
 38 43  2  0  0  0
 38 46  1  0  0  0
 38 47  1  0  0  0
 39 64  1  0  0  0
 39 67  2  0  0  0
 40 52  1  0  0  0
 40 53  2  0  0  0
 40 58  1  0  0  0
 41105  1  0  0  0
 41106  1  0  0  0
 41107  1  0  0  0
 41 48  1  0  0  0
 42 43  1  0  0  0
 42 66  1  0  0  0
 42108  1  0  0  0
 42109  1  0  0  0
 43 44  1  0  0  0
 44110  1  0  0  0
 45 46  2  0  0  0
 45111  1  0  0  0
 46112  1  0  0  0
 47113  1  0  0  0
 47114  1  0  0  0
 48 56  1  0  0  0
 48 65  1  0  0  0
 48115  1  0  0  0
 49 50  1  0  0  0
 49 53  1  0  0  0
 49 64  1  0  0  0
 49116  1  0  0  0
 50 51  1  0  0  0
 50117  1  0  0  0
 50118  1  0  0  0
 51 52  1  0  0  0
 51119  1  0  0  0
 51120  1  0  0  0
 52121  1  0  0  0
 52122  1  0  0  0
 53 54  1  0  0  0
 54 55  2  0  0  0
 54123  1  0  0  0
 55 57  1  0  0  0
 55124  1  0  0  0
 56 69  2  0  0  0
 57 58  2  0  0  0
 57125  1  0  0  0
 58126  1  0  0  0
 59 60  1  0  0  0
 59 61  1  0  0  0
 59 62  1  0  0  0
 60127  1  0  0  0
 60128  1  0  0  0
 60129  1  0  0  0
 61130  1  0  0  0
 61131  1  0  0  0
 61132  1  0  0  0
 62133  1  0  0  0
 62134  1  0  0  0
 62135  1  0  0  0
 63 65  1  0  0  0
 63136  1  0  0  0
 63137  1  0  0  0
 63138  1  0  0  0
 64139  1  0  0  0
 65140  1  0  0  0
 68 77  1  0  0  0
 71 72  1  0  0  0
 71 73  2  0  0  0
 71141  1  0  0  0
 72 74  2  0  0  0
 72142  1  0  0  0
 73 78  1  0  0  0
 73 81  1  0  0  0
 74 79  1  0  0  0
 74 81  1  0  0  0
 75 76  1  0  0  0
 75 77  1  0  0  0
 75 80  2  0  0  0
 76 79  1  0  0  0
 76143  1  0  0  0
 76144  1  0  0  0
 77145  1  0  0  0
 77146  1  0  0  0
 78147  1  0  0  0
 79148  1  0  0  0
M  ISO  4   1 100  68 101  77 101  78 100
M  END
> <chiral flag>
0

> <version>
0

> <s_m_source_file>
/data/baiqing/PycharmProjects/Reinvent-master-3.2/result/LINK_invent/BTK/process_docking_weight1_custom_product_contain_oxygen_bond_distance_aromatic_linkinvent_7_9_3/rearranged_h_0158.sdf

> <i_m_source_file_index>
40

> <r_mmod_Potential_Energy-OPLS-2005>
193.042266845703

> <r_mmod_Stretch_Energy-OPLS-2005>
142.704147338867

> <r_mmod_Bend_Energy-OPLS-2005>
192.762298583984

> <r_mmod_Torsional_Energy-OPLS-2005>
216.503204345703

> <r_mmod_Improper_Torsional_Energy-OPLS-2005>
4.95895957946777

> <r_mmod_Van_der_Waal_Energy-OPLS-2005>
120.631721496582

> <r_mmod_Electrostatic_Energy-OPLS-2005>
-340.916717529297

> <r_mmod_Solvation_Energy-OPLS-2005>
-253.150100708008

> <b_mmod_Minimization_Converged-OPLS-2005>
0

> <r_mmod_RMS_Derivative-OPLS-2005>
0.500250220298767

$$$$
40
                    3D
 Structure written by MMmdl.
151159  0  0  1  0            999 V2000
  -30.6068  -14.8234   20.4736 C   0  0  0  0  0  0
  -30.4319  -12.5027   19.5034 C   0  0  0  0  0  0
  -29.5204  -12.5279   18.2562 C   0  0  0  0  0  0
  -28.0478  -12.3357   18.6627 C   0  0  0  0  0  0
  -27.6405  -13.2454   19.8519 C   0  0  2  0  0  0
  -28.6802  -13.2177   20.9931 C   0  0  0  0  0  0
  -25.2497  -13.8223   20.5713 C   0  0  0  0  0  0
  -24.1793  -13.0448   20.9195 C   0  0  0  0  0  0
  -24.6403  -11.6931   20.8735 C   0  0  0  0  0  0
  -23.9083  -10.4299   21.0398 C   0  0  0  0  0  0
  -24.3628   -9.4214   21.9179 C   0  0  0  0  0  0
  -23.6300   -8.2251   22.0754 C   0  0  0  0  0  0
  -22.4281   -8.0286   21.3545 C   0  0  0  0  0  0
  -21.9919   -9.0259   20.4646 C   0  0  0  0  0  0
  -22.7252  -10.2136   20.3051 C   0  0  0  0  0  0
  -21.6856   -6.0739   22.5279 C   0  0  0  0  0  0
  -21.4017   -6.5642   23.8212 C   0  0  0  0  0  0
  -21.3660   -5.6794   24.9174 C   0  0  0  0  0  0
  -21.6044   -4.3056   24.7224 C   0  0  0  0  0  0
  -21.8818   -3.8148   23.4345 C   0  0  0  0  0  0
  -21.9194   -4.6966   22.3402 C   0  0  0  0  0  0
  -22.7812  -13.5217   21.1859 C   0  0  0  0  0  0
  -22.1662   -4.2151   21.0979 F   0  0  0  0  0  0
  -21.5628   -3.4539   25.7737 F   0  0  0  0  0  0
  -29.9823  -13.5849   20.4215 N   0  0  0  0  0  0
  -26.2936  -12.9455   20.3292 N   0  0  0  0  0  0
  -25.9339  -11.6580   20.5742 N   0  0  0  0  0  0
  -22.0468  -12.8205   22.0420 N   0  0  0  0  0  0
  -25.4193  -15.1950   20.4177 N   0  0  0  0  0  0
  -31.7549  -14.8874   20.0300 O   0  0  0  0  0  0
  -21.6645   -6.8883   21.4241 O   0  0  0  0  0  0
  -22.3486  -14.5519   20.6706 O   0  0  0  0  0  0
  -24.6380  -31.8500   23.1953 C   0  0  0  0  0  0
  -25.9179  -32.4727   23.8317 C   0  0  1  0  0  0
  -27.2074  -27.1901   20.1416 C   0  0  0  0  0  0
  -25.5948  -33.8532   24.2229 N   0  0  0  0  0  0
  -23.4390  -30.4731   21.5392 C   0  0  2  0  0  0
  -24.8887  -28.9202   20.1014 C   0  0  0  0  0  0
  -22.7546  -29.4572   22.4874 C   0  0  0  0  0  0
  -18.0302  -28.1392   22.8480 C   0  0  0  0  0  0
  -24.1491  -36.7270   23.2641 C   0  0  0  0  0  0
  -25.9923  -30.7390   21.3909 C   0  0  0  0  0  0
  -26.0625  -29.3584   20.7281 C   0  0  0  0  0  0
  -27.2237  -28.5058   20.7402 C   0  0  0  0  0  0
  -26.0256  -26.8681   19.4352 C   0  0  0  0  0  0
  -24.8806  -27.6861   19.4393 C   0  0  0  0  0  0
  -23.6617  -29.8125   20.1540 C   0  0  0  0  0  0
  -25.4120  -36.3052   24.0321 C   0  0  1  0  0  0
  -20.5913  -28.3713   23.1243 C   0  0  2  0  0  0
  -20.6788  -26.9421   22.5401 C   0  0  0  0  0  0
  -19.5760  -26.6381   21.5210 C   0  0  0  0  0  0
  -18.1943  -26.7932   22.1623 C   0  0  0  0  0  0
  -19.1558  -28.8870   23.2855 C   0  0  0  0  0  0
  -18.9476  -30.1468   23.8879 C   0  0  0  0  0  0
  -17.6472  -30.6590   24.0560 C   0  0  0  0  0  0
  -25.9066  -34.9424   23.5080 C   0  0  0  0  0  0
  -16.5364  -29.9084   23.6334 C   0  0  0  0  0  0
  -16.7287  -28.6501   23.0356 C   0  0  0  0  0  0
  -26.4518  -31.6578   25.0738 C   0  0  0  0  0  0
  -25.3713  -31.3753   26.1438 C   0  0  0  0  0  0
  -27.0381  -30.2980   24.6292 C   0  0  0  0  0  0
  -27.6054  -32.4339   25.7516 C   0  0  0  0  0  0
  -27.5577  -37.1793   24.8466 C   0  0  0  0  0  0
  -21.4243  -29.3048   22.3622 N   0  0  0  0  0  0
  -26.4289  -37.3758   23.9407 N   0  0  0  0  0  0
  -24.7089  -31.0402   22.0969 N   0  0  0  0  0  0
  -23.4213  -28.8108   23.2996 O   0  0  0  0  0  0
  -28.2333  -26.1941   20.2618 O   0  0  0  0  0  0
  -26.5643  -34.8909   22.4652 O   0  0  0  0  0  0
  -23.5511  -32.1357   23.7200 O   0  0  0  0  0  0
  -29.4514  -20.6675   21.9900 C   0  0  0  0  0  0
  -29.7234  -19.2565   22.0932 C   0  0  0  0  0  0
  -29.6907  -18.6305   20.8617 C   0  0  0  0  0  0
  -29.2111  -20.9434   20.6691 C   0  0  0  0  0  0
  -30.0109  -17.1910   20.3553 C   0  0  0  0  0  0
  -28.9328  -23.5214   20.5764 C   0  0  0  0  0  0
  -26.7543  -24.4855   21.3434 C   0  0  0  0  0  0
  -27.8445  -24.6972   20.2617 C   0  0  1  0  0  0
  -29.8894  -15.9964   20.9452 N   0  0  0  0  0  0
  -30.0137  -18.6336   23.3103 N   0  0  0  0  0  0
  -28.7337  -22.1881   20.1709 N   0  0  0  0  0  0
  -29.9412  -23.8304   21.2175 O   0  0  0  0  0  0
  -29.3410  -19.6992   19.9661 O   0  0  0  0  0  0
  -31.4758  -12.6100   19.2044 H   0  0  0  0  0  0
  -30.3713  -11.5337   20.0019 H   0  0  0  0  0  0
  -29.8187  -11.7499   17.5523 H   0  0  0  0  0  0
  -29.6380  -13.4783   17.7332 H   0  0  0  0  0  0
  -27.9180  -11.2887   18.9385 H   0  0  0  0  0  0
  -27.3916  -12.5095   17.8092 H   0  0  0  0  0  0
  -27.6264  -14.2624   19.4588 H   0  0  0  0  0  0
  -28.7261  -12.2306   21.4557 H   0  0  0  0  0  0
  -28.3951  -13.9136   21.7838 H   0  0  0  0  0  0
  -25.2772   -9.5691   22.4755 H   0  0  0  0  0  0
  -24.0007   -7.4644   22.7476 H   0  0  0  0  0  0
  -21.0849   -8.8778   19.8954 H   0  0  0  0  0  0
  -22.3707  -10.9673   19.6160 H   0  0  0  0  0  0
  -21.2011   -7.6150   23.9717 H   0  0  0  0  0  0
  -21.1483   -6.0524   25.9077 H   0  0  0  0  0  0
  -22.0596   -2.7610   23.2844 H   0  0  0  0  0  0
  -22.4095  -11.9872   22.4810 H   0  0  0  0  0  0
  -21.1084  -13.1220   22.2630 H   0  0  0  0  0  0
  -24.6629  -15.8579   20.5480 H   0  0  0  0  0  0
  -26.2928  -15.6335   20.1523 H   0  0  0  0  0  0
  -26.7244  -32.5350   23.1050 H   0  0  0  0  0  0
  -25.0084  -33.9660   25.0367 H   0  0  0  0  0  0
  -22.7387  -31.2981   21.3923 H   0  0  0  0  0  0
  -23.3756  -35.9599   23.3296 H   0  0  0  0  0  0
  -24.3578  -36.8905   22.2056 H   0  0  0  0  0  0
  -23.7242  -37.6466   23.6676 H   0  0  0  0  0  0
  -26.1457  -31.4983   20.6227 H   0  0  0  0  0  0
  -26.8641  -30.7837   22.0318 H   0  0  0  0  0  0
  -28.1096  -28.8253   21.2707 H   0  0  0  0  0  0
  -25.9396  -25.9311   18.9077 H   0  0  0  0  0  0
  -23.9898  -27.3519   18.9253 H   0  0  0  0  0  0
  -23.7904  -30.5923   19.4024 H   0  0  0  0  0  0
  -22.7787  -29.2508   19.8440 H   0  0  0  0  0  0
  -25.1305  -36.1891   25.0813 H   0  0  0  0  0  0
  -21.0008  -28.3300   24.1363 H   0  0  0  0  0  0
  -20.5684  -26.2326   23.3617 H   0  0  0  0  0  0
  -21.6655  -26.7431   22.1198 H   0  0  0  0  0  0
  -19.6920  -25.6286   21.1253 H   0  0  0  0  0  0
  -19.6697  -27.3180   20.6732 H   0  0  0  0  0  0
  -17.4210  -26.6677   21.4028 H   0  0  0  0  0  0
  -18.0344  -26.0078   22.9025 H   0  0  0  0  0  0
  -19.7951  -30.7290   24.2241 H   0  0  0  0  0  0
  -17.5026  -31.6268   24.5165 H   0  0  0  0  0  0
  -15.5363  -30.2979   23.7669 H   0  0  0  0  0  0
  -15.8688  -28.0813   22.7083 H   0  0  0  0  0  0
  -24.5899  -30.7092   25.7761 H   0  0  0  0  0  0
  -24.8893  -32.2930   26.4819 H   0  0  0  0  0  0
  -25.8006  -30.8959   27.0244 H   0  0  0  0  0  0
  -26.2993  -29.6709   24.1287 H   0  0  0  0  0  0
  -27.3994  -29.7269   25.4855 H   0  0  0  0  0  0
  -27.8902  -30.4228   23.9607 H   0  0  0  0  0  0
  -27.2651  -33.3652   26.2053 H   0  0  0  0  0  0
  -28.3885  -32.6879   25.0360 H   0  0  0  0  0  0
  -28.0701  -31.8494   26.5467 H   0  0  0  0  0  0
  -28.2591  -38.0092   24.7510 H   0  0  0  0  0  0
  -28.1077  -36.2622   24.6296 H   0  0  0  0  0  0
  -27.2294  -37.1446   25.8868 H   0  0  0  0  0  0
  -20.9441  -29.8776   21.6822 H   0  0  0  0  0  0
  -26.0162  -38.2829   24.1406 H   0  0  0  0  0  0
  -29.4030  -21.3878   22.7944 H   0  0  0  0  0  0
  -30.4668  -17.2118   19.3611 H   0  0  0  0  0  0
  -26.5272  -23.4289   21.4932 H   0  0  0  0  0  0
  -25.8034  -24.9539   21.1025 H   0  0  0  0  0  0
  -27.0824  -24.8843   22.3036 H   0  0  0  0  0  0
  -27.4437  -24.4478   19.2798 H   0  0  0  0  0  0
  -30.3000  -19.1924   24.1087 H   0  0  0  0  0  0
  -30.4019  -17.6941   23.3076 H   0  0  0  0  0  0
  -28.0203  -22.0939   19.4610 H   0  0  0  0  0  0
  1 25  1  0  0  0
  1 30  2  0  0  0
  1 79  1  0  0  0
  2  3  1  0  0  0
  2 25  1  0  0  0
  2 84  1  0  0  0
  2 85  1  0  0  0
  3  4  1  0  0  0
  3 86  1  0  0  0
  3 87  1  0  0  0
  4  5  1  0  0  0
  4 88  1  0  0  0
  4 89  1  0  0  0
  5  6  1  0  0  0
  5 26  1  0  0  0
  5 90  1  0  0  0
  6 25  1  0  0  0
  6 91  1  0  0  0
  6 92  1  0  0  0
  7  8  2  0  0  0
  7 26  1  0  0  0
  7 29  1  0  0  0
  8  9  1  0  0  0
  8 22  1  0  0  0
  9 10  1  0  0  0
  9 27  2  0  0  0
 10 11  2  0  0  0
 10 15  1  0  0  0
 11 12  1  0  0  0
 11 93  1  0  0  0
 12 13  2  0  0  0
 12 94  1  0  0  0
 13 14  1  0  0  0
 13 31  1  0  0  0
 14 15  2  0  0  0
 14 95  1  0  0  0
 15 96  1  0  0  0
 16 17  2  0  0  0
 16 21  1  0  0  0
 16 31  1  0  0  0
 17 18  1  0  0  0
 17 97  1  0  0  0
 18 19  2  0  0  0
 18 98  1  0  0  0
 19 20  1  0  0  0
 19 24  1  0  0  0
 20 21  2  0  0  0
 20 99  1  0  0  0
 21 23  1  0  0  0
 22 28  1  0  0  0
 22 32  2  0  0  0
 26 27  1  0  0  0
 28100  1  0  0  0
 28101  1  0  0  0
 29102  1  0  0  0
 29103  1  0  0  0
 33 34  1  0  0  0
 33 66  1  0  0  0
 33 70  2  0  0  0
 34 36  1  0  0  0
 34 59  1  0  0  0
 34104  1  0  0  0
 35 44  2  0  0  0
 35 45  1  0  0  0
 35 68  1  0  0  0
 36 56  1  0  0  0
 36105  1  0  0  0
 37 39  1  0  0  0
 37 47  1  0  0  0
 37 66  1  0  0  0
 37106  1  0  0  0
 38 43  2  0  0  0
 38 46  1  0  0  0
 38 47  1  0  0  0
 39 64  1  0  0  0
 39 67  2  0  0  0
 40 52  1  0  0  0
 40 53  2  0  0  0
 40 58  1  0  0  0
 41107  1  0  0  0
 41108  1  0  0  0
 41109  1  0  0  0
 41 48  1  0  0  0
 42 43  1  0  0  0
 42 66  1  0  0  0
 42110  1  0  0  0
 42111  1  0  0  0
 43 44  1  0  0  0
 44112  1  0  0  0
 45 46  2  0  0  0
 45113  1  0  0  0
 46114  1  0  0  0
 47115  1  0  0  0
 47116  1  0  0  0
 48 56  1  0  0  0
 48 65  1  0  0  0
 48117  1  0  0  0
 49 50  1  0  0  0
 49 53  1  0  0  0
 49 64  1  0  0  0
 49118  1  0  0  0
 50 51  1  0  0  0
 50119  1  0  0  0
 50120  1  0  0  0
 51 52  1  0  0  0
 51121  1  0  0  0
 51122  1  0  0  0
 52123  1  0  0  0
 52124  1  0  0  0
 53 54  1  0  0  0
 54 55  2  0  0  0
 54125  1  0  0  0
 55 57  1  0  0  0
 55126  1  0  0  0
 56 69  2  0  0  0
 57 58  2  0  0  0
 57127  1  0  0  0
 58128  1  0  0  0
 59 60  1  0  0  0
 59 61  1  0  0  0
 59 62  1  0  0  0
 60129  1  0  0  0
 60130  1  0  0  0
 60131  1  0  0  0
 61132  1  0  0  0
 61133  1  0  0  0
 61134  1  0  0  0
 62135  1  0  0  0
 62136  1  0  0  0
 62137  1  0  0  0
 63 65  1  0  0  0
 63138  1  0  0  0
 63139  1  0  0  0
 63140  1  0  0  0
 64141  1  0  0  0
 65142  1  0  0  0
 68 78  1  0  0  0
 71 72  1  0  0  0
 71 74  2  0  0  0
 71143  1  0  0  0
 72 73  2  0  0  0
 72 80  1  0  0  0
 73 75  1  0  0  0
 73 83  1  0  0  0
 74 81  1  0  0  0
 74 83  1  0  0  0
 75 79  2  0  0  0
 75144  1  0  0  0
 76 78  1  0  0  0
 76 81  1  0  0  0
 76 82  2  0  0  0
 77145  1  0  0  0
 77146  1  0  0  0
 77147  1  0  0  0
 77 78  1  0  0  0
 78148  1  0  0  0
 80149  1  0  0  0
 80150  1  0  0  0
 81151  1  0  0  0
M  ISO  4   1 100  68 101  78 101  79 100
M  END
> <chiral flag>
0

> <version>
0

> <s_m_source_file>
/data/baiqing/PycharmProjects/Reinvent-master-3.2/result/LINK_invent/BTK/process_docking_weight1_custom_product_contain_oxygen_bond_distance_aromatic_linkinvent_7_9_3/rearranged_h_0158.sdf

> <i_m_source_file_index>
41

> <r_mmod_Potential_Energy-OPLS-2005>
345.315795898438

> <r_mmod_Stretch_Energy-OPLS-2005>
179.787750244141

> <r_mmod_Bend_Energy-OPLS-2005>
206.82209777832

> <r_mmod_Torsional_Energy-OPLS-2005>
218.569747924805

> <r_mmod_Improper_Torsional_Energy-OPLS-2005>
6.04750108718872

> <r_mmod_Van_der_Waal_Energy-OPLS-2005>
126.33960723877

> <r_mmod_Electrostatic_Energy-OPLS-2005>
-299.719116210938

> <r_mmod_Solvation_Energy-OPLS-2005>
-227.945068359375

> <b_mmod_Minimization_Converged-OPLS-2005>
0

> <r_mmod_RMS_Derivative-OPLS-2005>
0.205594435334206

$$$$
41
                    3D
 Structure written by MMmdl.
150158  0  0  1  0            999 V2000
  -30.6077  -14.7749   20.4408 C   0  0  0  0  0  0
  -30.4290  -12.4697   19.4723 C   0  0  0  0  0  0
  -29.5106  -12.4970   18.2316 C   0  0  0  0  0  0
  -28.0384  -12.3114   18.6481 C   0  0  0  0  0  0
  -27.6335  -13.2273   19.8347 C   0  0  2  0  0  0
  -28.6798  -13.1903   20.9699 C   0  0  0  0  0  0
  -25.2494  -13.8184   20.5629 C   0  0  0  0  0  0
  -24.1810  -13.0437   20.9215 C   0  0  0  0  0  0
  -24.6393  -11.6913   20.8752 C   0  0  0  0  0  0
  -23.9058  -10.4295   21.0412 C   0  0  0  0  0  0
  -24.3607   -9.4213   21.9196 C   0  0  0  0  0  0
  -23.6282   -8.2251   22.0764 C   0  0  0  0  0  0
  -22.4278   -8.0279   21.3543 C   0  0  0  0  0  0
  -21.9904   -9.0254   20.4654 C   0  0  0  0  0  0
  -22.7220  -10.2134   20.3068 C   0  0  0  0  0  0
  -21.6866   -6.0728   22.5277 C   0  0  0  0  0  0
  -21.4017   -6.5623   23.8205 C   0  0  0  0  0  0
  -21.3663   -5.6777   24.9166 C   0  0  0  0  0  0
  -21.6051   -4.3046   24.7213 C   0  0  0  0  0  0
  -21.8820   -3.8134   23.4335 C   0  0  0  0  0  0
  -21.9197   -4.6958   22.3390 C   0  0  0  0  0  0
  -22.7832  -13.5226   21.1858 C   0  0  0  0  0  0
  -22.1670   -4.2133   21.0971 F   0  0  0  0  0  0
  -21.5628   -3.4543   25.7738 F   0  0  0  0  0  0
  -29.9717  -13.5506   20.3788 N   0  0  0  0  0  0
  -26.2890  -12.9367   20.3170 N   0  0  0  0  0  0
  -25.9309  -11.6530   20.5728 N   0  0  0  0  0  0
  -22.0470  -12.8226   22.0415 N   0  0  0  0  0  0
  -25.4183  -15.1916   20.3965 N   0  0  0  0  0  0
  -31.8210  -14.8487   20.1985 O   0  0  0  0  0  0
  -21.6638   -6.8887   21.4247 O   0  0  0  0  0  0
  -22.3531  -14.5533   20.6694 O   0  0  0  0  0  0
  -24.6315  -31.8540   23.1958 C   0  0  0  0  0  0
  -25.9136  -32.4748   23.8314 C   0  0  1  0  0  0
  -27.2153  -27.2290   20.1458 C   0  0  0  0  0  0
  -25.5923  -33.8555   24.2235 N   0  0  0  0  0  0
  -23.4316  -30.4710   21.5430 C   0  0  2  0  0  0
  -24.8780  -28.9047   20.1204 C   0  0  0  0  0  0
  -22.7507  -29.4578   22.4952 C   0  0  0  0  0  0
  -18.0284  -28.1390   22.8504 C   0  0  0  0  0  0
  -24.1505  -36.7260   23.2642 C   0  0  0  0  0  0
  -25.9777  -30.7535   21.3834 C   0  0  0  0  0  0
  -26.0509  -29.3715   20.7269 C   0  0  0  0  0  0
  -27.2260  -28.5475   20.7234 C   0  0  0  0  0  0
  -26.0172  -26.8227   19.5276 C   0  0  0  0  0  0
  -24.8659  -27.6382   19.5114 C   0  0  0  0  0  0
  -23.6519  -29.7995   20.1620 C   0  0  0  0  0  0
  -25.4138  -36.3068   24.0318 C   0  0  1  0  0  0
  -20.5894  -28.3695   23.1300 C   0  0  2  0  0  0
  -20.6791  -26.9422   22.5425 C   0  0  0  0  0  0
  -19.5757  -26.6403   21.5236 C   0  0  0  0  0  0
  -18.1934  -26.7937   22.1634 C   0  0  0  0  0  0
  -19.1541  -28.8863   23.2888 C   0  0  0  0  0  0
  -18.9456  -30.1467   23.8904 C   0  0  0  0  0  0
  -17.6455  -30.6600   24.0576 C   0  0  0  0  0  0
  -25.9064  -34.9438   23.5083 C   0  0  0  0  0  0
  -16.5345  -29.9092   23.6343 C   0  0  0  0  0  0
  -16.7271  -28.6504   23.0375 C   0  0  0  0  0  0
  -26.4482  -31.6584   25.0712 C   0  0  0  0  0  0
  -25.3675  -31.3748   26.1407 C   0  0  0  0  0  0
  -27.0326  -30.2995   24.6223 C   0  0  0  0  0  0
  -27.6038  -32.4325   25.7479 C   0  0  0  0  0  0
  -27.5592  -37.1787   24.8459 C   0  0  0  0  0  0
  -21.4214  -29.3029   22.3683 N   0  0  0  0  0  0
  -26.4315  -37.3765   23.9388 N   0  0  0  0  0  0
  -24.6988  -31.0455   22.0961 N   0  0  0  0  0  0
  -23.4188  -28.8139   23.3091 O   0  0  0  0  0  0
  -28.3133  -26.3356   20.1233 O   0  0  0  0  0  0
  -26.5662  -34.8918   22.4668 O   0  0  0  0  0  0
  -23.5460  -32.1395   23.7230 O   0  0  0  0  0  0
  -28.2952  -18.8926   19.3944 C   0  0  0  0  0  0
  -28.0012  -20.3067   19.4093 C   0  0  0  0  0  0
  -29.3941  -18.6272   20.1823 C   0  0  0  0  0  0
  -28.9206  -20.9044   20.2274 C   0  0  0  0  0  0
  -30.2516  -17.3955   20.4294 C   0  0  0  0  0  0
  -28.4707  -23.5339   19.8630 C   0  0  0  0  0  0
  -28.1950  -24.9314   20.6797 C   0  0  0  0  0  0
  -28.9982  -22.3098   20.6181 N   0  0  0  0  0  0
  -29.8076  -16.0591   20.4930 N   0  0  0  0  0  0
  -31.5656  -17.6608   20.5386 N   0  3  0  0  0  0
  -29.7827  -19.8926   20.7082 O   0  0  0  0  0  0
  -31.4725  -12.5913   19.1735 H   0  0  0  0  0  0
  -30.3693  -11.5003   19.9704 H   0  0  0  0  0  0
  -29.7974  -11.7148   17.5267 H   0  0  0  0  0  0
  -29.6322  -13.4452   17.7054 H   0  0  0  0  0  0
  -27.9065  -11.2645   18.9270 H   0  0  0  0  0  0
  -27.3822  -12.4816   17.7934 H   0  0  0  0  0  0
  -27.6140  -14.2396   19.4291 H   0  0  0  0  0  0
  -28.7301  -12.1966   21.4186 H   0  0  0  0  0  0
  -28.4074  -13.8764   21.7736 H   0  0  0  0  0  0
  -25.2763   -9.5678   22.4764 H   0  0  0  0  0  0
  -23.9977   -7.4652   22.7500 H   0  0  0  0  0  0
  -21.0837   -8.8761   19.8957 H   0  0  0  0  0  0
  -22.3697  -10.9656   19.6162 H   0  0  0  0  0  0
  -21.2014   -7.6136   23.9693 H   0  0  0  0  0  0
  -21.1494   -6.0520   25.9059 H   0  0  0  0  0  0
  -22.0598   -2.7595   23.2843 H   0  0  0  0  0  0
  -22.4034  -11.9871   22.4807 H   0  0  0  0  0  0
  -21.1102  -13.1301   22.2612 H   0  0  0  0  0  0
  -24.6296  -15.8276   20.4596 H   0  0  0  0  0  0
  -26.2068  -15.6028   19.9158 H   0  0  0  0  0  0
  -26.7185  -32.5391   23.1038 H   0  0  0  0  0  0
  -25.0007  -33.9687   25.0338 H   0  0  0  0  0  0
  -22.7290  -31.2916   21.3937 H   0  0  0  0  0  0
  -23.3797  -35.9563   23.3303 H   0  0  0  0  0  0
  -24.3585  -36.8889   22.2053 H   0  0  0  0  0  0
  -23.7237  -37.6444   23.6676 H   0  0  0  0  0  0
  -26.1249  -31.5163   20.6181 H   0  0  0  0  0  0
  -26.8500  -30.7996   22.0237 H   0  0  0  0  0  0
  -28.1264  -28.9012   21.2075 H   0  0  0  0  0  0
  -25.9678  -25.8504   19.0603 H   0  0  0  0  0  0
  -23.9637  -27.2732   19.0400 H   0  0  0  0  0  0
  -23.7808  -30.5737   19.4052 H   0  0  0  0  0  0
  -22.7700  -29.2326   19.8579 H   0  0  0  0  0  0
  -25.1345  -36.1910   25.0814 H   0  0  0  0  0  0
  -20.9954  -28.3273   24.1434 H   0  0  0  0  0  0
  -20.5752  -26.2288   23.3619 H   0  0  0  0  0  0
  -21.6658  -26.7471   22.1194 H   0  0  0  0  0  0
  -19.6927  -25.6313   21.1275 H   0  0  0  0  0  0
  -19.6720  -27.3223   20.6781 H   0  0  0  0  0  0
  -17.4215  -26.6694   21.4027 H   0  0  0  0  0  0
  -18.0304  -26.0078   22.9023 H   0  0  0  0  0  0
  -19.7929  -30.7295   24.2272 H   0  0  0  0  0  0
  -17.5000  -31.6290   24.5154 H   0  0  0  0  0  0
  -15.5349  -30.2986   23.7672 H   0  0  0  0  0  0
  -15.8669  -28.0818   22.7096 H   0  0  0  0  0  0
  -24.5809  -30.7168   25.7685 H   0  0  0  0  0  0
  -24.8913  -32.2928   26.4859 H   0  0  0  0  0  0
  -25.7930  -30.8850   27.0175 H   0  0  0  0  0  0
  -26.2905  -29.6740   24.1238 H   0  0  0  0  0  0
  -27.3970  -29.7263   25.4764 H   0  0  0  0  0  0
  -27.8815  -30.4258   23.9499 H   0  0  0  0  0  0
  -27.2633  -33.3597   26.2105 H   0  0  0  0  0  0
  -28.3807  -32.6933   25.0279 H   0  0  0  0  0  0
  -28.0758  -31.8429   26.5348 H   0  0  0  0  0  0
  -28.2608  -38.0087   24.7533 H   0  0  0  0  0  0
  -28.1097  -36.2620   24.6286 H   0  0  0  0  0  0
  -27.2292  -37.1426   25.8857 H   0  0  0  0  0  0
  -20.9402  -29.8677   21.6817 H   0  0  0  0  0  0
  -26.0199  -38.2840   24.1406 H   0  0  0  0  0  0
  -27.7721  -18.1410   18.8216 H   0  0  0  0  0  0
  -27.2020  -20.8080   18.8807 H   0  0  0  0  0  0
  -29.1988  -23.7471   19.0813 H   0  0  0  0  0  0
  -27.5579  -23.2514   19.3365 H   0  0  0  0  0  0
  -28.9202  -24.9363   21.4922 H   0  0  0  0  0  0
  -27.2352  -24.8377   21.1894 H   0  0  0  0  0  0
  -29.7128  -22.5316   21.3081 H   0  0  0  0  0  0
  -28.8077  -16.0125   20.5596 H   0  0  0  0  0  0
  -31.8922  -18.6131   20.4770 H   0  0  0  0  0  0
  -32.2431  -16.9100   20.5988 H   0  0  0  0  0  0
  1 25  1  0  0  0
  1 30  2  0  0  0
  1 79  1  0  0  0
  2  3  1  0  0  0
  2 25  1  0  0  0
  2 82  1  0  0  0
  2 83  1  0  0  0
  3  4  1  0  0  0
  3 84  1  0  0  0
  3 85  1  0  0  0
  4  5  1  0  0  0
  4 86  1  0  0  0
  4 87  1  0  0  0
  5  6  1  0  0  0
  5 26  1  0  0  0
  5 88  1  0  0  0
  6 25  1  0  0  0
  6 89  1  0  0  0
  6 90  1  0  0  0
  7  8  2  0  0  0
  7 26  1  0  0  0
  7 29  1  0  0  0
  8  9  1  0  0  0
  8 22  1  0  0  0
  9 10  1  0  0  0
  9 27  2  0  0  0
 10 11  2  0  0  0
 10 15  1  0  0  0
 11 12  1  0  0  0
 11 91  1  0  0  0
 12 13  2  0  0  0
 12 92  1  0  0  0
 13 14  1  0  0  0
 13 31  1  0  0  0
 14 15  2  0  0  0
 14 93  1  0  0  0
 15 94  1  0  0  0
 16 17  2  0  0  0
 16 21  1  0  0  0
 16 31  1  0  0  0
 17 18  1  0  0  0
 17 95  1  0  0  0
 18 19  2  0  0  0
 18 96  1  0  0  0
 19 20  1  0  0  0
 19 24  1  0  0  0
 20 21  2  0  0  0
 20 97  1  0  0  0
 21 23  1  0  0  0
 22 28  1  0  0  0
 22 32  2  0  0  0
 26 27  1  0  0  0
 28 98  1  0  0  0
 28 99  1  0  0  0
 29100  1  0  0  0
 29101  1  0  0  0
 33 34  1  0  0  0
 33 66  1  0  0  0
 33 70  2  0  0  0
 34 36  1  0  0  0
 34 59  1  0  0  0
 34102  1  0  0  0
 35 44  2  0  0  0
 35 45  1  0  0  0
 35 68  1  0  0  0
 36 56  1  0  0  0
 36103  1  0  0  0
 37 39  1  0  0  0
 37 47  1  0  0  0
 37 66  1  0  0  0
 37104  1  0  0  0
 38 43  2  0  0  0
 38 46  1  0  0  0
 38 47  1  0  0  0
 39 64  1  0  0  0
 39 67  2  0  0  0
 40 52  1  0  0  0
 40 53  2  0  0  0
 40 58  1  0  0  0
 41105  1  0  0  0
 41106  1  0  0  0
 41107  1  0  0  0
 41 48  1  0  0  0
 42 43  1  0  0  0
 42 66  1  0  0  0
 42108  1  0  0  0
 42109  1  0  0  0
 43 44  1  0  0  0
 44110  1  0  0  0
 45 46  2  0  0  0
 45111  1  0  0  0
 46112  1  0  0  0
 47113  1  0  0  0
 47114  1  0  0  0
 48 56  1  0  0  0
 48 65  1  0  0  0
 48115  1  0  0  0
 49 50  1  0  0  0
 49 53  1  0  0  0
 49 64  1  0  0  0
 49116  1  0  0  0
 50 51  1  0  0  0
 50117  1  0  0  0
 50118  1  0  0  0
 51 52  1  0  0  0
 51119  1  0  0  0
 51120  1  0  0  0
 52121  1  0  0  0
 52122  1  0  0  0
 53 54  1  0  0  0
 54 55  2  0  0  0
 54123  1  0  0  0
 55 57  1  0  0  0
 55124  1  0  0  0
 56 69  2  0  0  0
 57 58  2  0  0  0
 57125  1  0  0  0
 58126  1  0  0  0
 59 60  1  0  0  0
 59 61  1  0  0  0
 59 62  1  0  0  0
 60127  1  0  0  0
 60128  1  0  0  0
 60129  1  0  0  0
 61130  1  0  0  0
 61131  1  0  0  0
 61132  1  0  0  0
 62133  1  0  0  0
 62134  1  0  0  0
 62135  1  0  0  0
 63 65  1  0  0  0
 63136  1  0  0  0
 63137  1  0  0  0
 63138  1  0  0  0
 64139  1  0  0  0
 65140  1  0  0  0
 68 77  1  0  0  0
 71 72  1  0  0  0
 71 73  2  0  0  0
 71141  1  0  0  0
 72 74  2  0  0  0
 72142  1  0  0  0
 73 75  1  0  0  0
 73 81  1  0  0  0
 74 78  1  0  0  0
 74 81  1  0  0  0
 75 79  1  0  0  0
 75 80  2  0  0  0
 76 77  1  0  0  0
 76 78  1  0  0  0
 76143  1  0  0  0
 76144  1  0  0  0
 77145  1  0  0  0
 77146  1  0  0  0
 78147  1  0  0  0
 79148  1  0  0  0
 80149  1  0  0  0
 80150  1  0  0  0
M  CHG  1  80   1
M  ISO  4   1 100  68 101  77 101  79 100
M  END
> <chiral flag>
0

> <version>
0

> <s_m_source_file>
/data/baiqing/PycharmProjects/Reinvent-master-3.2/result/LINK_invent/BTK/process_docking_weight1_custom_product_contain_oxygen_bond_distance_aromatic_linkinvent_7_9_3/rearranged_h_0158.sdf

> <i_m_source_file_index>
42

> <r_mmod_Potential_Energy-OPLS-2005>
-19.6386699676514

> <r_mmod_Stretch_Energy-OPLS-2005>
139.308502197266

> <r_mmod_Bend_Energy-OPLS-2005>
190.779327392578

> <r_mmod_Torsional_Energy-OPLS-2005>
233.009719848633

> <r_mmod_Improper_Torsional_Energy-OPLS-2005>
9.26365566253662

> <r_mmod_Van_der_Waal_Energy-OPLS-2005>
117.851333618164

> <r_mmod_Electrostatic_Energy-OPLS-2005>
-333.058776855469

> <r_mmod_Solvation_Energy-OPLS-2005>
-478.410003662109

> <b_mmod_Minimization_Converged-OPLS-2005>
0

> <r_mmod_RMS_Derivative-OPLS-2005>
2.81878852844238

$$$$
42
                    3D
 Structure written by MMmdl.
158166  0  0  1  0            999 V2000
  -30.6185  -14.7481   20.4566 C   0  0  0  0  0  0
  -30.4434  -12.4629   19.4677 C   0  0  0  0  0  0
  -29.5200  -12.5407   18.2301 C   0  0  0  0  0  0
  -28.0404  -12.3727   18.6296 C   0  0  0  0  0  0
  -27.6491  -13.2439   19.8546 C   0  0  2  0  0  0
  -28.6957  -13.1596   20.9900 C   0  0  0  0  0  0
  -25.2530  -13.8232   20.5689 C   0  0  0  0  0  0
  -24.1821  -13.0451   20.9183 C   0  0  0  0  0  0
  -24.6442  -11.6946   20.8720 C   0  0  0  0  0  0
  -23.9126  -10.4295   21.0383 C   0  0  0  0  0  0
  -24.3658   -9.4199   21.9190 C   0  0  0  0  0  0
  -23.6311   -8.2236   22.0762 C   0  0  0  0  0  0
  -22.4294   -8.0287   21.3539 C   0  0  0  0  0  0
  -21.9928   -9.0276   20.4660 C   0  0  0  0  0  0
  -22.7273  -10.2147   20.3053 C   0  0  0  0  0  0
  -21.6846   -6.0754   22.5273 C   0  0  0  0  0  0
  -21.4005   -6.5649   23.8209 C   0  0  0  0  0  0
  -21.3657   -5.6789   24.9172 C   0  0  0  0  0  0
  -21.6038   -4.3049   24.7209 C   0  0  0  0  0  0
  -21.8823   -3.8158   23.4326 C   0  0  0  0  0  0
  -21.9212   -4.6989   22.3392 C   0  0  0  0  0  0
  -22.7829  -13.5241   21.1823 C   0  0  0  0  0  0
  -22.1675   -4.2196   21.0962 F   0  0  0  0  0  0
  -21.5626   -3.4530   25.7713 F   0  0  0  0  0  0
  -30.0052  -13.5120   20.4215 N   0  0  0  0  0  0
  -26.3001  -12.9473   20.3290 N   0  0  0  0  0  0
  -25.9392  -11.6602   20.5728 N   0  0  0  0  0  0
  -22.0442  -12.8281   22.0391 N   0  0  0  0  0  0
  -25.4166  -15.1966   20.4117 N   0  0  0  0  0  0
  -31.7797  -14.8684   20.0551 O   0  0  0  0  0  0
  -21.6620   -6.8901   21.4231 O   0  0  0  0  0  0
  -22.3531  -14.5557   20.6680 O   0  0  0  0  0  0
  -24.6305  -31.8547   23.2002 C   0  0  0  0  0  0
  -25.9128  -32.4748   23.8344 C   0  0  1  0  0  0
  -27.2129  -27.2564   20.1266 C   0  0  0  0  0  0
  -25.5925  -33.8547   24.2260 N   0  0  0  0  0  0
  -23.4254  -30.4790   21.5453 C   0  0  2  0  0  0
  -24.8735  -28.9328   20.1059 C   0  0  0  0  0  0
  -22.7507  -29.4571   22.4930 C   0  0  0  0  0  0
  -18.0270  -28.1370   22.8470 C   0  0  0  0  0  0
  -24.1471  -36.7269   23.2643 C   0  0  0  0  0  0
  -25.9716  -30.7674   21.3799 C   0  0  0  0  0  0
  -26.0431  -29.3893   20.7248 C   0  0  0  0  0  0
  -27.2148  -28.5608   20.7324 C   0  0  0  0  0  0
  -26.0216  -26.8883   19.4536 C   0  0  0  0  0  0
  -24.8679  -27.6930   19.4565 C   0  0  0  0  0  0
  -23.6423  -29.8169   20.1590 C   0  0  0  0  0  0
  -25.4092  -36.3052   24.0332 C   0  0  1  0  0  0
  -20.5876  -28.3650   23.1292 C   0  0  2  0  0  0
  -20.6750  -26.9368   22.5424 C   0  0  0  0  0  0
  -19.5732  -26.6365   21.5206 C   0  0  0  0  0  0
  -18.1910  -26.7909   22.1614 C   0  0  0  0  0  0
  -19.1531  -28.8827   23.2864 C   0  0  0  0  0  0
  -18.9463  -30.1440   23.8870 C   0  0  0  0  0  0
  -17.6465  -30.6573   24.0551 C   0  0  0  0  0  0
  -25.9041  -34.9429   23.5097 C   0  0  0  0  0  0
  -16.5350  -29.9075   23.6331 C   0  0  0  0  0  0
  -16.7264  -28.6494   23.0344 C   0  0  0  0  0  0
  -26.4501  -31.6560   25.0729 C   0  0  0  0  0  0
  -25.3726  -31.3721   26.1453 C   0  0  0  0  0  0
  -27.0354  -30.2984   24.6196 C   0  0  0  0  0  0
  -27.6044  -32.4301   25.7519 C   0  0  0  0  0  0
  -27.5554  -37.1788   24.8467 C   0  0  0  0  0  0
  -21.4207  -29.3006   22.3696 N   0  0  0  0  0  0
  -26.4254  -37.3765   23.9429 N   0  0  0  0  0  0
  -24.6951  -31.0518   22.0984 N   0  0  0  0  0  0
  -23.4213  -28.8102   23.3002 O   0  0  0  0  0  0
  -28.2862  -26.3311   20.2092 O   0  0  0  0  0  0
  -26.5620  -34.8908   22.4671 O   0  0  0  0  0  0
  -23.5456  -32.1361   23.7295 O   0  0  0  0  0  0
  -29.0606  -16.9189   18.7750 C   0  0  0  0  0  0
  -29.6500  -18.4849   20.5374 C   0  0  0  0  0  0
  -28.5729  -17.9893   17.9988 C   0  0  0  0  0  0
  -29.6065  -17.1065   20.0568 C   0  0  0  0  0  0
  -29.1835  -19.6386   19.7669 C   0  0  0  0  0  0
  -28.6792  -19.3419   18.4572 C   0  0  0  0  0  0
  -27.8944  -17.5966   16.7478 C   0  0  0  0  0  0
  -28.9082  -23.6832   20.3875 C   0  0  0  0  0  0
  -28.4307  -22.1538   20.0391 C   0  0  0  0  0  0
  -27.9671  -24.8879   19.9030 C   0  0  0  0  0  0
  -28.3312  -20.3962   17.5996 N   0  0  0  0  0  0
  -28.4706  -16.7706   15.8716 N   0  0  0  0  0  0
  -29.2832  -21.0670   20.2331 N   0  0  0  0  0  0
  -29.8833  -15.8639   20.8271 N   0  0  0  0  0  0
  -26.6536  -18.0175   16.4955 N   0  3  0  0  0  0
  -29.9512  -23.9005   21.0162 O   0  0  0  0  0  0
  -27.2826  -21.9950   19.6117 O   0  0  0  0  0  0
  -31.4845  -12.5906   19.1604 H   0  0  0  0  0  0
  -30.3938  -11.4786   19.9335 H   0  0  0  0  0  0
  -29.7994  -11.7833   17.4941 H   0  0  0  0  0  0
  -29.6575  -13.5063   17.7388 H   0  0  0  0  0  0
  -27.8692  -11.3196   18.8488 H   0  0  0  0  0  0
  -27.4004  -12.6178   17.7807 H   0  0  0  0  0  0
  -27.6431  -14.2730   19.4978 H   0  0  0  0  0  0
  -28.7246  -12.1550   21.4150 H   0  0  0  0  0  0
  -28.4322  -13.8307   21.8100 H   0  0  0  0  0  0
  -25.2804   -9.5700   22.4777 H   0  0  0  0  0  0
  -24.0048   -7.4636   22.7493 H   0  0  0  0  0  0
  -21.0855   -8.8820   19.8971 H   0  0  0  0  0  0
  -22.3752  -10.9706   19.6173 H   0  0  0  0  0  0
  -21.1971   -7.6149   23.9736 H   0  0  0  0  0  0
  -21.1470   -6.0496   25.9085 H   0  0  0  0  0  0
  -22.0621   -2.7627   23.2788 H   0  0  0  0  0  0
  -22.4007  -11.9955   22.4825 H   0  0  0  0  0  0
  -21.1070  -13.1360   22.2549 H   0  0  0  0  0  0
  -24.6218  -15.8255   20.4690 H   0  0  0  0  0  0
  -26.2698  -15.6560   20.1240 H   0  0  0  0  0  0
  -26.7191  -32.5403   23.1078 H   0  0  0  0  0  0
  -25.0066  -33.9685   25.0405 H   0  0  0  0  0  0
  -22.7169  -31.2975   21.4022 H   0  0  0  0  0  0
  -23.3736  -35.9600   23.3297 H   0  0  0  0  0  0
  -24.3558  -36.8909   22.2058 H   0  0  0  0  0  0
  -23.7218  -37.6465   23.6677 H   0  0  0  0  0  0
  -26.1005  -31.5219   20.6015 H   0  0  0  0  0  0
  -26.8525  -30.8242   22.0081 H   0  0  0  0  0  0
  -28.1013  -28.8953   21.2506 H   0  0  0  0  0  0
  -25.9361  -25.9508   18.9240 H   0  0  0  0  0  0
  -23.9756  -27.3501   18.9510 H   0  0  0  0  0  0
  -23.7615  -30.5914   19.4005 H   0  0  0  0  0  0
  -22.7610  -29.2475   19.8567 H   0  0  0  0  0  0
  -25.1264  -36.1892   25.0823 H   0  0  0  0  0  0
  -20.9930  -28.3217   24.1428 H   0  0  0  0  0  0
  -20.5607  -26.2264   23.3627 H   0  0  0  0  0  0
  -21.6633  -26.7377   22.1260 H   0  0  0  0  0  0
  -19.6899  -25.6271   21.1245 H   0  0  0  0  0  0
  -19.6686  -27.3179   20.6734 H   0  0  0  0  0  0
  -17.4186  -26.6635   21.4018 H   0  0  0  0  0  0
  -18.0307  -26.0062   22.9019 H   0  0  0  0  0  0
  -19.7948  -30.7246   24.2238 H   0  0  0  0  0  0
  -17.5029  -31.6244   24.5162 H   0  0  0  0  0  0
  -15.5347  -30.2970   23.7668 H   0  0  0  0  0  0
  -15.8660  -28.0809   22.7070 H   0  0  0  0  0  0
  -24.5917  -30.7038   25.7810 H   0  0  0  0  0  0
  -24.8902  -32.2897   26.4826 H   0  0  0  0  0  0
  -25.8060  -30.8962   27.0253 H   0  0  0  0  0  0
  -26.2945  -29.6730   24.1205 H   0  0  0  0  0  0
  -27.4033  -29.7240   25.4701 H   0  0  0  0  0  0
  -27.8814  -30.4270   23.9443 H   0  0  0  0  0  0
  -27.2634  -33.3604   26.2067 H   0  0  0  0  0  0
  -28.3881  -32.6838   25.0374 H   0  0  0  0  0  0
  -28.0664  -31.8438   26.5466 H   0  0  0  0  0  0
  -28.2570  -38.0088   24.7509 H   0  0  0  0  0  0
  -28.1050  -36.2617   24.6280 H   0  0  0  0  0  0
  -27.2289  -37.1431   25.8877 H   0  0  0  0  0  0
  -20.9393  -29.8742   21.6924 H   0  0  0  0  0  0
  -26.0123  -38.2835   24.1458 H   0  0  0  0  0  0
  -28.9493  -15.9119   18.3948 H   0  0  0  0  0  0
  -30.0448  -18.6639   21.5251 H   0  0  0  0  0  0
  -26.9842  -24.6611   20.3185 H   0  0  0  0  0  0
  -27.8804  -24.7981   18.8196 H   0  0  0  0  0  0
  -27.7924  -20.1747   16.7686 H   0  0  0  0  0  0
  -27.9380  -21.2066   18.0791 H   0  0  0  0  0  0
  -29.4299  -16.4874   16.0100 H   0  0  0  0  0  0
  -28.0293  -16.5040   15.0046 H   0  0  0  0  0  0
  -30.1178  -21.2981   20.7527 H   0  0  0  0  0  0
  -29.1232  -15.6191   21.4443 H   0  0  0  0  0  0
  -26.1884  -18.5926   17.1829 H   0  0  0  0  0  0
  -26.1322  -17.7368   15.6807 H   0  0  0  0  0  0
  1 25  1  0  0  0
  1 30  2  0  0  0
  1 84  1  0  0  0
  2  3  1  0  0  0
  2 25  1  0  0  0
  2 88  1  0  0  0
  2 89  1  0  0  0
  3  4  1  0  0  0
  3 90  1  0  0  0
  3 91  1  0  0  0
  4  5  1  0  0  0
  4 92  1  0  0  0
  4 93  1  0  0  0
  5  6  1  0  0  0
  5 26  1  0  0  0
  5 94  1  0  0  0
  6 25  1  0  0  0
  6 95  1  0  0  0
  6 96  1  0  0  0
  7  8  2  0  0  0
  7 26  1  0  0  0
  7 29  1  0  0  0
  8  9  1  0  0  0
  8 22  1  0  0  0
  9 10  1  0  0  0
  9 27  2  0  0  0
 10 11  2  0  0  0
 10 15  1  0  0  0
 11 12  1  0  0  0
 11 97  1  0  0  0
 12 13  2  0  0  0
 12 98  1  0  0  0
 13 14  1  0  0  0
 13 31  1  0  0  0
 14 15  2  0  0  0
 14 99  1  0  0  0
 15100  1  0  0  0
 16 17  2  0  0  0
 16 21  1  0  0  0
 16 31  1  0  0  0
 17 18  1  0  0  0
 17101  1  0  0  0
 18 19  2  0  0  0
 18102  1  0  0  0
 19 20  1  0  0  0
 19 24  1  0  0  0
 20 21  2  0  0  0
 20103  1  0  0  0
 21 23  1  0  0  0
 22 28  1  0  0  0
 22 32  2  0  0  0
 26 27  1  0  0  0
 28104  1  0  0  0
 28105  1  0  0  0
 29106  1  0  0  0
 29107  1  0  0  0
 33 34  1  0  0  0
 33 66  1  0  0  0
 33 70  2  0  0  0
 34 36  1  0  0  0
 34 59  1  0  0  0
 34108  1  0  0  0
 35 44  2  0  0  0
 35 45  1  0  0  0
 35 68  1  0  0  0
 36 56  1  0  0  0
 36109  1  0  0  0
 37 39  1  0  0  0
 37 47  1  0  0  0
 37 66  1  0  0  0
 37110  1  0  0  0
 38 43  2  0  0  0
 38 46  1  0  0  0
 38 47  1  0  0  0
 39 64  1  0  0  0
 39 67  2  0  0  0
 40 52  1  0  0  0
 40 53  2  0  0  0
 40 58  1  0  0  0
 41111  1  0  0  0
 41112  1  0  0  0
 41113  1  0  0  0
 41 48  1  0  0  0
 42 43  1  0  0  0
 42 66  1  0  0  0
 42114  1  0  0  0
 42115  1  0  0  0
 43 44  1  0  0  0
 44116  1  0  0  0
 45 46  2  0  0  0
 45117  1  0  0  0
 46118  1  0  0  0
 47119  1  0  0  0
 47120  1  0  0  0
 48 56  1  0  0  0
 48 65  1  0  0  0
 48121  1  0  0  0
 49 50  1  0  0  0
 49 53  1  0  0  0
 49 64  1  0  0  0
 49122  1  0  0  0
 50 51  1  0  0  0
 50123  1  0  0  0
 50124  1  0  0  0
 51 52  1  0  0  0
 51125  1  0  0  0
 51126  1  0  0  0
 52127  1  0  0  0
 52128  1  0  0  0
 53 54  1  0  0  0
 54 55  2  0  0  0
 54129  1  0  0  0
 55 57  1  0  0  0
 55130  1  0  0  0
 56 69  2  0  0  0
 57 58  2  0  0  0
 57131  1  0  0  0
 58132  1  0  0  0
 59 60  1  0  0  0
 59 61  1  0  0  0
 59 62  1  0  0  0
 60133  1  0  0  0
 60134  1  0  0  0
 60135  1  0  0  0
 61136  1  0  0  0
 61137  1  0  0  0
 61138  1  0  0  0
 62139  1  0  0  0
 62140  1  0  0  0
 62141  1  0  0  0
 63 65  1  0  0  0
 63142  1  0  0  0
 63143  1  0  0  0
 63144  1  0  0  0
 64145  1  0  0  0
 65146  1  0  0  0
 68 80  1  0  0  0
 71 73  2  0  0  0
 71 74  1  0  0  0
 71147  1  0  0  0
 72 74  2  0  0  0
 72 75  1  0  0  0
 72148  1  0  0  0
 73 76  1  0  0  0
 73 77  1  0  0  0
 74 84  1  0  0  0
 75 76  2  0  0  0
 75 83  1  0  0  0
 76 81  1  0  0  0
 77 82  1  0  0  0
 77 85  2  0  0  0
 78 79  1  0  0  0
 78 80  1  0  0  0
 78 86  2  0  0  0
 79 83  1  0  0  0
 79 87  2  0  0  0
 80149  1  0  0  0
 80150  1  0  0  0
 81151  1  0  0  0
 81152  1  0  0  0
 82153  1  0  0  0
 82154  1  0  0  0
 83155  1  0  0  0
 84156  1  0  0  0
 85157  1  0  0  0
 85158  1  0  0  0
M  CHG  1  85   1
M  ISO  4   1 100  68 101  80 101  84 100
M  END
> <chiral flag>
0

> <version>
0

> <s_m_source_file>
/data/baiqing/PycharmProjects/Reinvent-master-3.2/result/LINK_invent/BTK/process_docking_weight1_custom_product_contain_oxygen_bond_distance_aromatic_linkinvent_7_9_3/rearranged_h_0158.sdf

> <i_m_source_file_index>
43

> <r_mmod_Potential_Energy-OPLS-2005>
20.9586410522461

> <r_mmod_Stretch_Energy-OPLS-2005>
142.535705566406

> <r_mmod_Bend_Energy-OPLS-2005>
169.790466308594

> <r_mmod_Torsional_Energy-OPLS-2005>
287.496398925781

> <r_mmod_Improper_Torsional_Energy-OPLS-2005>
11.8042984008789

> <r_mmod_Van_der_Waal_Energy-OPLS-2005>
156.815780639648

> <r_mmod_Electrostatic_Energy-OPLS-2005>
-346.458221435547

> <r_mmod_Solvation_Energy-OPLS-2005>
-490.525787353516

> <b_mmod_Minimization_Converged-OPLS-2005>
0

> <r_mmod_RMS_Derivative-OPLS-2005>
4.08926057815552

$$$$
43
                    3D
 Structure written by MMmdl.
160169  0  0  1  0            999 V2000
  -30.5839  -14.8023   20.4194 C   0  0  0  0  0  0
  -30.4272  -12.4808   19.5014 C   0  0  0  0  0  0
  -29.5231  -12.5210   18.2483 C   0  0  0  0  0  0
  -28.0441  -12.3370   18.6406 C   0  0  0  0  0  0
  -27.6340  -13.2410   19.8327 C   0  0  2  0  0  0
  -28.6679  -13.2032   20.9786 C   0  0  0  0  0  0
  -25.2453  -13.8209   20.5604 C   0  0  0  0  0  0
  -24.1764  -13.0435   20.9169 C   0  0  0  0  0  0
  -24.6387  -11.6915   20.8698 C   0  0  0  0  0  0
  -23.9064  -10.4286   21.0388 C   0  0  0  0  0  0
  -24.3630   -9.4203   21.9159 C   0  0  0  0  0  0
  -23.6298   -8.2237   22.0742 C   0  0  0  0  0  0
  -22.4270   -8.0273   21.3543 C   0  0  0  0  0  0
  -21.9890   -9.0249   20.4654 C   0  0  0  0  0  0
  -22.7237  -10.2119   20.3049 C   0  0  0  0  0  0
  -21.6832   -6.0719   22.5284 C   0  0  0  0  0  0
  -21.3994   -6.5608   23.8222 C   0  0  0  0  0  0
  -21.3687   -5.6775   24.9194 C   0  0  0  0  0  0
  -21.6065   -4.3037   24.7232 C   0  0  0  0  0  0
  -21.8798   -3.8127   23.4344 C   0  0  0  0  0  0
  -21.9177   -4.6949   22.3420 C   0  0  0  0  0  0
  -22.7806  -13.5226   21.1847 C   0  0  0  0  0  0
  -22.1658   -4.2142   21.0991 F   0  0  0  0  0  0
  -21.5654   -3.4537   25.7740 F   0  0  0  0  0  0
  -29.9768  -13.5577   20.4134 N   0  0  0  0  0  0
  -26.2895  -12.9448   20.3156 N   0  0  0  0  0  0
  -25.9313  -11.6578   20.5654 N   0  0  0  0  0  0
  -22.0456  -12.8277   22.0459 N   0  0  0  0  0  0
  -25.4047  -15.1942   20.3968 N   0  0  0  0  0  0
  -31.7724  -14.8854   20.0915 O   0  0  0  0  0  0
  -21.6610   -6.8871   21.4255 O   0  0  0  0  0  0
  -22.3486  -14.5519   20.6644 O   0  0  0  0  0  0
  -24.6371  -31.8516   23.1928 C   0  0  0  0  0  0
  -25.9166  -32.4754   23.8303 C   0  0  1  0  0  0
  -27.2359  -27.2198   20.1253 C   0  0  0  0  0  0
  -25.5930  -33.8557   24.2235 N   0  0  0  0  0  0
  -23.4380  -30.4701   21.5387 C   0  0  2  0  0  0
  -24.8871  -28.8988   20.1188 C   0  0  0  0  0  0
  -22.7539  -29.4582   22.4906 C   0  0  0  0  0  0
  -18.0304  -28.1390   22.8496 C   0  0  0  0  0  0
  -24.1467  -36.7262   23.2654 C   0  0  0  0  0  0
  -25.9882  -30.7463   21.3832 C   0  0  0  0  0  0
  -26.0627  -29.3616   20.7261 C   0  0  0  0  0  0
  -27.2392  -28.5377   20.7112 C   0  0  0  0  0  0
  -26.0327  -26.8231   19.5047 C   0  0  0  0  0  0
  -24.8800  -27.6381   19.4979 C   0  0  0  0  0  0
  -23.6602  -29.7949   20.1602 C   0  0  0  0  0  0
  -25.4105  -36.3084   24.0341 C   0  0  1  0  0  0
  -20.5912  -28.3708   23.1267 C   0  0  2  0  0  0
  -20.6787  -26.9418   22.5427 C   0  0  0  0  0  0
  -19.5762  -26.6378   21.5230 C   0  0  0  0  0  0
  -18.1937  -26.7928   22.1628 C   0  0  0  0  0  0
  -19.1554  -28.8866   23.2868 C   0  0  0  0  0  0
  -18.9471  -30.1463   23.8887 C   0  0  0  0  0  0
  -17.6469  -30.6597   24.0558 C   0  0  0  0  0  0
  -25.9060  -34.9454   23.5100 C   0  0  0  0  0  0
  -16.5364  -29.9094   23.6340 C   0  0  0  0  0  0
  -16.7282  -28.6507   23.0371 C   0  0  0  0  0  0
  -26.4498  -31.6610   25.0734 C   0  0  0  0  0  0
  -25.3678  -31.3787   26.1432 C   0  0  0  0  0  0
  -27.0375  -30.3025   24.6276 C   0  0  0  0  0  0
  -27.6047  -32.4357   25.7502 C   0  0  0  0  0  0
  -27.5577  -37.1786   24.8461 C   0  0  0  0  0  0
  -21.4239  -29.3038   22.3640 N   0  0  0  0  0  0
  -26.4275  -37.3791   23.9426 N   0  0  0  0  0  0
  -24.7069  -31.0416   22.0943 N   0  0  0  0  0  0
  -23.4203  -28.8146   23.3054 O   0  0  0  0  0  0
  -28.3442  -26.3303   20.0748 O   0  0  0  0  0  0
  -26.5632  -34.8944   22.4674 O   0  0  0  0  0  0
  -23.5499  -32.1361   23.7182 O   0  0  0  0  0  0
  -29.6508  -18.4728   17.8634 C   0  0  0  0  0  0
  -29.4756  -19.7011   18.5238 C   0  0  0  0  0  0
  -29.8260  -17.2848   18.6007 C   0  0  0  0  0  0
  -29.4919  -19.7482   19.9269 C   0  0  0  0  0  0
  -29.8085  -17.2912   20.0114 C   0  0  0  0  0  0
  -28.4786  -23.5906   19.7778 C   0  0  0  0  0  0
  -30.8309  -21.6066   21.1639 C   0  0  0  0  0  0
  -29.4326  -21.1852   20.6566 C   0  0  1  0  0  0
  -30.9396  -22.7406   20.1186 C   0  0  0  0  0  0
  -31.3968  -24.1264   20.5877 C   0  0  0  0  0  0
  -31.6414  -22.4276   18.7886 C   0  0  0  0  0  0
  -28.2701  -24.9330   20.6765 C   0  0  0  0  0  0
  -29.6309  -18.5397   20.6342 N   0  0  0  0  0  0
  -29.4933  -22.5458   19.9602 N   0  0  0  0  0  0
  -29.8136  -15.9458   20.6630 N   0  0  0  0  0  0
  -27.7241  -23.4503   18.8153 O   0  0  0  0  0  0
  -31.4747  -12.5922   19.2197 H   0  0  0  0  0  0
  -30.3537  -11.5086   19.9905 H   0  0  0  0  0  0
  -29.8257  -11.7402   17.5479 H   0  0  0  0  0  0
  -29.6525  -13.4754   17.7316 H   0  0  0  0  0  0
  -27.9072  -11.2882   18.9070 H   0  0  0  0  0  0
  -27.3975  -12.5209   17.7799 H   0  0  0  0  0  0
  -27.6147  -14.2565   19.4332 H   0  0  0  0  0  0
  -28.6981  -12.2163   21.4401 H   0  0  0  0  0  0
  -28.3771  -13.8959   21.7693 H   0  0  0  0  0  0
  -25.2775   -9.5674   22.4729 H   0  0  0  0  0  0
  -24.0010   -7.4619   22.7435 H   0  0  0  0  0  0
  -21.0821   -8.8765   19.8976 H   0  0  0  0  0  0
  -22.3688  -10.9649   19.6146 H   0  0  0  0  0  0
  -21.1944   -7.6103   23.9738 H   0  0  0  0  0  0
  -21.1570   -6.0491   25.9110 H   0  0  0  0  0  0
  -22.0546   -2.7593   23.2834 H   0  0  0  0  0  0
  -22.4034  -12.0028   22.5042 H   0  0  0  0  0  0
  -21.1079  -13.1370   22.2543 H   0  0  0  0  0  0
  -24.6074  -15.8209   20.4249 H   0  0  0  0  0  0
  -26.2442  -15.6422   20.0512 H   0  0  0  0  0  0
  -26.7240  -32.5388   23.1040 H   0  0  0  0  0  0
  -25.0036  -33.9671   25.0356 H   0  0  0  0  0  0
  -22.7380  -31.2935   21.3872 H   0  0  0  0  0  0
  -23.3771  -35.9549   23.3302 H   0  0  0  0  0  0
  -24.3558  -36.8899   22.2075 H   0  0  0  0  0  0
  -23.7164  -37.6435   23.6675 H   0  0  0  0  0  0
  -26.1396  -31.5032   20.6118 H   0  0  0  0  0  0
  -26.8622  -30.7927   22.0225 H   0  0  0  0  0  0
  -28.1474  -28.8974   21.1732 H   0  0  0  0  0  0
  -25.9828  -25.8599   19.0145 H   0  0  0  0  0  0
  -23.9806  -27.2805   19.0147 H   0  0  0  0  0  0
  -23.7958  -30.5676   19.4028 H   0  0  0  0  0  0
  -22.7749  -29.2337   19.8538 H   0  0  0  0  0  0
  -25.1283  -36.1936   25.0830 H   0  0  0  0  0  0
  -21.0001  -28.3312   24.1383 H   0  0  0  0  0  0
  -20.5709  -26.2314   23.3642 H   0  0  0  0  0  0
  -21.6660  -26.7441   22.1224 H   0  0  0  0  0  0
  -19.6930  -25.6287   21.1269 H   0  0  0  0  0  0
  -19.6719  -27.3180   20.6759 H   0  0  0  0  0  0
  -17.4224  -26.6703   21.4012 H   0  0  0  0  0  0
  -18.0308  -26.0065   22.9015 H   0  0  0  0  0  0
  -19.7951  -30.7276   24.2259 H   0  0  0  0  0  0
  -17.5032  -31.6285   24.5152 H   0  0  0  0  0  0
  -15.5363  -30.2990   23.7669 H   0  0  0  0  0  0
  -15.8680  -28.0813   22.7097 H   0  0  0  0  0  0
  -24.5818  -30.7196   25.7724 H   0  0  0  0  0  0
  -24.8907  -32.2977   26.4850 H   0  0  0  0  0  0
  -25.7940  -30.8933   27.0221 H   0  0  0  0  0  0
  -26.3013  -29.6756   24.1235 H   0  0  0  0  0  0
  -27.3975  -29.7308   25.4839 H   0  0  0  0  0  0
  -27.8909  -30.4304   23.9613 H   0  0  0  0  0  0
  -27.2665  -33.3659   26.2067 H   0  0  0  0  0  0
  -28.3851  -32.6919   25.0328 H   0  0  0  0  0  0
  -28.0725  -31.8498   26.5420 H   0  0  0  0  0  0
  -28.2588  -38.0094   24.7558 H   0  0  0  0  0  0
  -28.1079  -36.2636   24.6214 H   0  0  0  0  0  0
  -27.2310  -37.1363   25.8866 H   0  0  0  0  0  0
  -20.9439  -29.8705   21.6784 H   0  0  0  0  0  0
  -26.0165  -38.2861   24.1448 H   0  0  0  0  0  0
  -29.6434  -18.4434   16.7821 H   0  0  0  0  0  0
  -29.3594  -20.6119   17.9511 H   0  0  0  0  0  0
  -29.9275  -16.3533   18.0604 H   0  0  0  0  0  0
  -31.5879  -20.8269   21.0461 H   0  0  0  0  0  0
  -30.8222  -21.9682   22.1932 H   0  0  0  0  0  0
  -28.7106  -21.1768   21.4758 H   0  0  0  0  0  0
  -32.4840  -24.1735   20.6706 H   0  0  0  0  0  0
  -31.0200  -24.3810   21.5753 H   0  0  0  0  0  0
  -31.1071  -24.9107   19.8858 H   0  0  0  0  0  0
  -32.7120  -22.6327   18.8438 H   0  0  0  0  0  0
  -31.2415  -23.0289   17.9714 H   0  0  0  0  0  0
  -31.5578  -21.3814   18.5011 H   0  0  0  0  0  0
  -28.9439  -24.8982   21.5266 H   0  0  0  0  0  0
  -27.2864  -24.8220   21.1329 H   0  0  0  0  0  0
  -28.9475  -15.7407   21.1338 H   0  0  0  0  0  0
  1 25  1  0  0  0
  1 30  2  0  0  0
  1 85  1  0  0  0
  2  3  1  0  0  0
  2 25  1  0  0  0
  2 87  1  0  0  0
  2 88  1  0  0  0
  3  4  1  0  0  0
  3 89  1  0  0  0
  3 90  1  0  0  0
  4  5  1  0  0  0
  4 91  1  0  0  0
  4 92  1  0  0  0
  5  6  1  0  0  0
  5 26  1  0  0  0
  5 93  1  0  0  0
  6 25  1  0  0  0
  6 94  1  0  0  0
  6 95  1  0  0  0
  7  8  2  0  0  0
  7 26  1  0  0  0
  7 29  1  0  0  0
  8  9  1  0  0  0
  8 22  1  0  0  0
  9 10  1  0  0  0
  9 27  2  0  0  0
 10 11  2  0  0  0
 10 15  1  0  0  0
 11 12  1  0  0  0
 11 96  1  0  0  0
 12 13  2  0  0  0
 12 97  1  0  0  0
 13 14  1  0  0  0
 13 31  1  0  0  0
 14 15  2  0  0  0
 14 98  1  0  0  0
 15 99  1  0  0  0
 16 17  2  0  0  0
 16 21  1  0  0  0
 16 31  1  0  0  0
 17 18  1  0  0  0
 17100  1  0  0  0
 18 19  2  0  0  0
 18101  1  0  0  0
 19 20  1  0  0  0
 19 24  1  0  0  0
 20 21  2  0  0  0
 20102  1  0  0  0
 21 23  1  0  0  0
 22 28  1  0  0  0
 22 32  2  0  0  0
 26 27  1  0  0  0
 28103  1  0  0  0
 28104  1  0  0  0
 29105  1  0  0  0
 29106  1  0  0  0
 33 34  1  0  0  0
 33 66  1  0  0  0
 33 70  2  0  0  0
 34 36  1  0  0  0
 34 59  1  0  0  0
 34107  1  0  0  0
 35 44  2  0  0  0
 35 45  1  0  0  0
 35 68  1  0  0  0
 36 56  1  0  0  0
 36108  1  0  0  0
 37 39  1  0  0  0
 37 47  1  0  0  0
 37 66  1  0  0  0
 37109  1  0  0  0
 38 43  2  0  0  0
 38 46  1  0  0  0
 38 47  1  0  0  0
 39 64  1  0  0  0
 39 67  2  0  0  0
 40 52  1  0  0  0
 40 53  2  0  0  0
 40 58  1  0  0  0
 41110  1  0  0  0
 41111  1  0  0  0
 41112  1  0  0  0
 41 48  1  0  0  0
 42 43  1  0  0  0
 42 66  1  0  0  0
 42113  1  0  0  0
 42114  1  0  0  0
 43 44  1  0  0  0
 44115  1  0  0  0
 45 46  2  0  0  0
 45116  1  0  0  0
 46117  1  0  0  0
 47118  1  0  0  0
 47119  1  0  0  0
 48 56  1  0  0  0
 48 65  1  0  0  0
 48120  1  0  0  0
 49 50  1  0  0  0
 49 53  1  0  0  0
 49 64  1  0  0  0
 49121  1  0  0  0
 50 51  1  0  0  0
 50122  1  0  0  0
 50123  1  0  0  0
 51 52  1  0  0  0
 51124  1  0  0  0
 51125  1  0  0  0
 52126  1  0  0  0
 52127  1  0  0  0
 53 54  1  0  0  0
 54 55  2  0  0  0
 54128  1  0  0  0
 55 57  1  0  0  0
 55129  1  0  0  0
 56 69  2  0  0  0
 57 58  2  0  0  0
 57130  1  0  0  0
 58131  1  0  0  0
 59 60  1  0  0  0
 59 61  1  0  0  0
 59 62  1  0  0  0
 60132  1  0  0  0
 60133  1  0  0  0
 60134  1  0  0  0
 61135  1  0  0  0
 61136  1  0  0  0
 61137  1  0  0  0
 62138  1  0  0  0
 62139  1  0  0  0
 62140  1  0  0  0
 63 65  1  0  0  0
 63141  1  0  0  0
 63142  1  0  0  0
 63143  1  0  0  0
 64144  1  0  0  0
 65145  1  0  0  0
 68 82  1  0  0  0
 71 72  2  0  0  0
 71 73  1  0  0  0
 71146  1  0  0  0
 72 74  1  0  0  0
 72147  1  0  0  0
 73 75  2  0  0  0
 73148  1  0  0  0
 74 83  2  0  0  0
 74 78  1  0  0  0
 75 83  1  0  0  0
 75 85  1  0  0  0
 76 82  1  0  0  0
 76 84  1  0  0  0
 76 86  2  0  0  0
 77 78  1  0  0  0
 77 79  1  0  0  0
 77149  1  0  0  0
 77150  1  0  0  0
 78 84  1  0  0  0
 78151  1  0  0  0
 79 80  1  0  0  0
 79 81  1  0  0  0
 79 84  1  0  0  0
 80152  1  0  0  0
 80153  1  0  0  0
 80154  1  0  0  0
 81155  1  0  0  0
 81156  1  0  0  0
 81157  1  0  0  0
 82158  1  0  0  0
 82159  1  0  0  0
 85160  1  0  0  0
M  ISO  4   1 100  68 101  82 101  85 100
M  END
> <chiral flag>
0

> <version>
0

> <s_m_source_file>
/data/baiqing/PycharmProjects/Reinvent-master-3.2/result/LINK_invent/BTK/process_docking_weight1_custom_product_contain_oxygen_bond_distance_aromatic_linkinvent_7_9_3/rearranged_h_0158.sdf

> <i_m_source_file_index>
44

> <r_mmod_Potential_Energy-OPLS-2005>
177.165740966797

> <r_mmod_Stretch_Energy-OPLS-2005>
160.055023193359

> <r_mmod_Bend_Energy-OPLS-2005>
250.620208740234

> <r_mmod_Torsional_Energy-OPLS-2005>
315.748748779297

> <r_mmod_Improper_Torsional_Energy-OPLS-2005>
8.03449630737305

> <r_mmod_Van_der_Waal_Energy-OPLS-2005>
126.770355224609

> <r_mmod_Electrostatic_Energy-OPLS-2005>
-558.223999023438

> <r_mmod_Solvation_Energy-OPLS-2005>
-234.050994873047

> <b_mmod_Minimization_Converged-OPLS-2005>
0

> <r_mmod_RMS_Derivative-OPLS-2005>
4.30810451507568

$$$$
44
                    3D
 Structure written by MMmdl.
164173  0  0  1  0            999 V2000
  -30.7006  -14.5702   20.5358 C   0  0  0  0  0  0
  -30.4176  -12.3633   19.4378 C   0  0  0  0  0  0
  -29.4927  -12.5071   18.2128 C   0  0  0  0  0  0
  -28.0164  -12.3570   18.6292 C   0  0  0  0  0  0
  -27.6520  -13.2228   19.8650 C   0  0  2  0  0  0
  -28.7006  -13.0815   20.9918 C   0  0  0  0  0  0
  -25.2546  -13.8193   20.5715 C   0  0  0  0  0  0
  -24.1824  -13.0450   20.9214 C   0  0  0  0  0  0
  -24.6401  -11.6925   20.8763 C   0  0  0  0  0  0
  -23.9071  -10.4304   21.0418 C   0  0  0  0  0  0
  -24.3618   -9.4218   21.9196 C   0  0  0  0  0  0
  -23.6291   -8.2251   22.0762 C   0  0  0  0  0  0
  -22.4275   -8.0290   21.3546 C   0  0  0  0  0  0
  -21.9918   -9.0265   20.4651 C   0  0  0  0  0  0
  -22.7243  -10.2151   20.3066 C   0  0  0  0  0  0
  -21.6847   -6.0751   22.5279 C   0  0  0  0  0  0
  -21.4008   -6.5650   23.8216 C   0  0  0  0  0  0
  -21.3661   -5.6801   24.9176 C   0  0  0  0  0  0
  -21.6049   -4.3064   24.7222 C   0  0  0  0  0  0
  -21.8817   -3.8159   23.4340 C   0  0  0  0  0  0
  -21.9187   -4.6978   22.3399 C   0  0  0  0  0  0
  -22.7845  -13.5235   21.1869 C   0  0  0  0  0  0
  -22.1659   -4.2165   21.0978 F   0  0  0  0  0  0
  -21.5630   -3.4554   25.7737 F   0  0  0  0  0  0
  -30.0159  -13.3932   20.4162 N   0  0  0  0  0  0
  -26.2990  -12.9396   20.3361 N   0  0  0  0  0  0
  -25.9333  -11.6541   20.5788 N   0  0  0  0  0  0
  -22.0482  -12.8233   22.0415 N   0  0  0  0  0  0
  -25.4234  -15.1921   20.4116 N   0  0  0  0  0  0
  -31.8617  -14.6705   20.1288 O   0  0  0  0  0  0
  -21.6632   -6.8892   21.4238 O   0  0  0  0  0  0
  -22.3542  -14.5546   20.6710 O   0  0  0  0  0  0
  -24.6263  -31.8607   23.2058 C   0  0  0  0  0  0
  -25.9117  -32.4781   23.8379 C   0  0  1  0  0  0
  -27.2212  -27.3290   20.1030 C   0  0  0  0  0  0
  -25.5940  -33.8582   24.2295 N   0  0  0  0  0  0
  -23.4179  -30.4887   21.5496 C   0  0  2  0  0  0
  -24.8631  -28.9514   20.1108 C   0  0  0  0  0  0
  -22.7458  -29.4629   22.4928 C   0  0  0  0  0  0
  -18.0291  -28.1382   22.8496 C   0  0  0  0  0  0
  -24.1482  -36.7283   23.2631 C   0  0  0  0  0  0
  -25.9607  -30.7929   21.3792 C   0  0  0  0  0  0
  -26.0337  -29.4238   20.7174 C   0  0  0  0  0  0
  -27.2143  -28.6226   20.7094 C   0  0  0  0  0  0
  -26.0224  -26.9178   19.4664 C   0  0  0  0  0  0
  -24.8578  -27.7017   19.4809 C   0  0  0  0  0  0
  -23.6311  -29.8299   20.1637 C   0  0  0  0  0  0
  -25.4106  -36.3067   24.0317 C   0  0  1  0  0  0
  -20.5885  -28.3690   23.1277 C   0  0  2  0  0  0
  -20.6772  -26.9409   22.5409 C   0  0  0  0  0  0
  -19.5746  -26.6386   21.5209 C   0  0  0  0  0  0
  -18.1927  -26.7929   22.1620 C   0  0  0  0  0  0
  -19.1541  -28.8851   23.2882 C   0  0  0  0  0  0
  -18.9466  -30.1453   23.8897 C   0  0  0  0  0  0
  -17.6464  -30.6591   24.0567 C   0  0  0  0  0  0
  -25.9055  -34.9441   23.5098 C   0  0  0  0  0  0
  -16.5352  -29.9092   23.6337 C   0  0  0  0  0  0
  -16.7277  -28.6502   23.0373 C   0  0  0  0  0  0
  -26.4516  -31.6592   25.0748 C   0  0  0  0  0  0
  -25.3746  -31.3711   26.1471 C   0  0  0  0  0  0
  -27.0388  -30.3018   24.6215 C   0  0  0  0  0  0
  -27.6074  -32.4336   25.7515 C   0  0  0  0  0  0
  -27.5586  -37.1763   24.8444 C   0  0  0  0  0  0
  -21.4171  -29.3046   22.3666 N   0  0  0  0  0  0
  -26.4266  -37.3786   23.9433 N   0  0  0  0  0  0
  -24.6874  -31.0614   22.1026 N   0  0  0  0  0  0
  -23.4174  -28.8147   23.2998 O   0  0  0  0  0  0
  -28.3380  -26.4736   20.1563 O   0  0  0  0  0  0
  -26.5617  -34.8900   22.4662 O   0  0  0  0  0  0
  -23.5425  -32.1432   23.7372 O   0  0  0  0  0  0
  -32.3034  -18.3780   22.1948 C   0  0  0  0  0  0
  -31.5999  -19.5568   21.8924 C   0  0  0  0  0  0
  -31.7748  -17.1209   21.8604 C   0  0  0  0  0  0
  -29.8072  -18.2205   20.9305 C   0  0  0  0  0  0
  -30.3351  -19.5186   21.2585 C   0  0  0  0  0  0
  -30.5250  -17.0047   21.2100 C   0  0  0  0  0  0
  -29.4180  -21.2570   19.5191 C   0  0  0  0  0  0
  -30.1332  -22.1239   21.7243 C   0  0  0  0  0  0
  -28.5992  -22.5752   19.3081 C   0  0  0  0  0  0
  -29.3099  -23.4370   21.5129 C   0  0  0  0  0  0
  -29.5570  -20.8593   21.0063 C   0  0  2  0  0  0
  -29.1413  -23.8596   20.0234 C   0  0  2  0  0  0
  -31.2426  -25.0908   19.9056 C   0  0  0  0  0  0
  -28.1226  -25.0640   19.7681 C   0  0  0  0  0  0
  -29.9998  -15.6793   20.9182 N   0  0  0  0  0  0
  -30.3869  -24.0936   19.3596 O   0  0  0  0  0  0
  -31.4611  -12.4532   19.1322 H   0  0  0  0  0  0
  -30.3220  -11.3677   19.8767 H   0  0  0  0  0  0
  -29.7449  -11.7622   17.4565 H   0  0  0  0  0  0
  -29.6477  -13.4803   17.7448 H   0  0  0  0  0  0
  -27.8401  -11.3039   18.8477 H   0  0  0  0  0  0
  -27.3617  -12.6056   17.7915 H   0  0  0  0  0  0
  -27.6711  -14.2598   19.5293 H   0  0  0  0  0  0
  -28.7020  -12.0668   21.3929 H   0  0  0  0  0  0
  -28.4631  -13.7356   21.8320 H   0  0  0  0  0  0
  -25.2759   -9.5698   22.4780 H   0  0  0  0  0  0
  -24.0004   -7.4645   22.7480 H   0  0  0  0  0  0
  -21.0855   -8.8785   19.8947 H   0  0  0  0  0  0
  -22.3695  -10.9697   19.6188 H   0  0  0  0  0  0
  -21.2002   -7.6163   23.9719 H   0  0  0  0  0  0
  -21.1488   -6.0537   25.9078 H   0  0  0  0  0  0
  -22.0595   -2.7621   23.2836 H   0  0  0  0  0  0
  -22.4080  -11.9877   22.4792 H   0  0  0  0  0  0
  -21.1101  -13.1274   22.2613 H   0  0  0  0  0  0
  -24.6547  -15.8452   20.5182 H   0  0  0  0  0  0
  -26.2712  -15.6321   20.0779 H   0  0  0  0  0  0
  -26.7182  -32.5445   23.1124 H   0  0  0  0  0  0
  -25.0073  -33.9764   25.0424 H   0  0  0  0  0  0
  -22.7122  -31.3101   21.4110 H   0  0  0  0  0  0
  -23.3768  -35.9590   23.3243 H   0  0  0  0  0  0
  -24.3580  -36.8989   22.2063 H   0  0  0  0  0  0
  -23.7205  -37.6444   23.6713 H   0  0  0  0  0  0
  -26.0936  -31.5584   20.6143 H   0  0  0  0  0  0
  -26.8406  -30.8379   22.0090 H   0  0  0  0  0  0
  -28.1098  -28.9789   21.1990 H   0  0  0  0  0  0
  -25.9391  -25.9716   18.9551 H   0  0  0  0  0  0
  -23.9596  -27.3330   19.0063 H   0  0  0  0  0  0
  -23.7468  -30.6109   19.4115 H   0  0  0  0  0  0
  -22.7514  -29.2601   19.8627 H   0  0  0  0  0  0
  -25.1276  -36.1904   25.0806 H   0  0  0  0  0  0
  -20.9984  -28.3284   24.1397 H   0  0  0  0  0  0
  -20.5685  -26.2301   23.3609 H   0  0  0  0  0  0
  -21.6640  -26.7443   22.1211 H   0  0  0  0  0  0
  -19.6906  -25.6304   21.1244 H   0  0  0  0  0  0
  -19.6682  -27.3186   20.6733 H   0  0  0  0  0  0
  -17.4198  -26.6700   21.4017 H   0  0  0  0  0  0
  -18.0304  -26.0071   22.9012 H   0  0  0  0  0  0
  -19.7945  -30.7274   24.2257 H   0  0  0  0  0  0
  -17.5031  -31.6275   24.5174 H   0  0  0  0  0  0
  -15.5358  -30.2992   23.7669 H   0  0  0  0  0  0
  -15.8676  -28.0813   22.7093 H   0  0  0  0  0  0
  -24.5935  -30.7049   25.7790 H   0  0  0  0  0  0
  -24.8905  -32.2864   26.4884 H   0  0  0  0  0  0
  -25.8075  -30.8900   27.0252 H   0  0  0  0  0  0
  -26.2986  -29.6722   24.1262 H   0  0  0  0  0  0
  -27.4137  -29.7312   25.4726 H   0  0  0  0  0  0
  -27.8824  -30.4325   23.9429 H   0  0  0  0  0  0
  -27.2717  -33.3682   26.2023 H   0  0  0  0  0  0
  -28.3915  -32.6828   25.0351 H   0  0  0  0  0  0
  -28.0706  -31.8502   26.5490 H   0  0  0  0  0  0
  -28.2506  -38.0159   24.7641 H   0  0  0  0  0  0
  -28.1193  -36.2699   24.6094 H   0  0  0  0  0  0
  -27.2324  -37.1189   25.8845 H   0  0  0  0  0  0
  -20.9322  -29.8798   21.6920 H   0  0  0  0  0  0
  -26.0135  -38.2828   24.1569 H   0  0  0  0  0  0
  -33.2573  -18.4384   22.6999 H   0  0  0  0  0  0
  -32.0560  -20.4899   22.1863 H   0  0  0  0  0  0
  -32.3463  -16.2431   22.1254 H   0  0  0  0  0  0
  -28.8371  -18.1609   20.4577 H   0  0  0  0  0  0
  -30.4088  -21.3691   19.0774 H   0  0  0  0  0  0
  -28.9365  -20.4449   18.9730 H   0  0  0  0  0  0
  -30.2125  -21.9297   22.7951 H   0  0  0  0  0  0
  -31.1479  -22.3106   21.3693 H   0  0  0  0  0  0
  -27.5786  -22.3895   19.6483 H   0  0  0  0  0  0
  -28.5145  -22.7613   18.2366 H   0  0  0  0  0  0
  -29.7502  -24.2503   22.0889 H   0  0  0  0  0  0
  -28.3206  -23.2873   21.9472 H   0  0  0  0  0  0
  -28.5558  -20.6905   21.4049 H   0  0  0  0  0  0
  -32.1341  -25.1706   19.2822 H   0  0  0  0  0  0
  -31.5805  -24.8374   20.9093 H   0  0  0  0  0  0
  -30.7736  -26.0722   19.9277 H   0  0  0  0  0  0
  -27.1984  -24.7351   20.2449 H   0  0  0  0  0  0
  -27.9291  -25.0767   18.6948 H   0  0  0  0  0  0
  -29.0041  -15.5537   21.0206 H   0  0  0  0  0  0
  1 25  1  0  0  0
  1 30  2  0  0  0
  1 85  1  0  0  0
  2  3  1  0  0  0
  2 25  1  0  0  0
  2 87  1  0  0  0
  2 88  1  0  0  0
  3  4  1  0  0  0
  3 89  1  0  0  0
  3 90  1  0  0  0
  4  5  1  0  0  0
  4 91  1  0  0  0
  4 92  1  0  0  0
  5  6  1  0  0  0
  5 26  1  0  0  0
  5 93  1  0  0  0
  6 25  1  0  0  0
  6 94  1  0  0  0
  6 95  1  0  0  0
  7  8  2  0  0  0
  7 26  1  0  0  0
  7 29  1  0  0  0
  8  9  1  0  0  0
  8 22  1  0  0  0
  9 10  1  0  0  0
  9 27  2  0  0  0
 10 11  2  0  0  0
 10 15  1  0  0  0
 11 12  1  0  0  0
 11 96  1  0  0  0
 12 13  2  0  0  0
 12 97  1  0  0  0
 13 14  1  0  0  0
 13 31  1  0  0  0
 14 15  2  0  0  0
 14 98  1  0  0  0
 15 99  1  0  0  0
 16 17  2  0  0  0
 16 21  1  0  0  0
 16 31  1  0  0  0
 17 18  1  0  0  0
 17100  1  0  0  0
 18 19  2  0  0  0
 18101  1  0  0  0
 19 20  1  0  0  0
 19 24  1  0  0  0
 20 21  2  0  0  0
 20102  1  0  0  0
 21 23  1  0  0  0
 22 28  1  0  0  0
 22 32  2  0  0  0
 26 27  1  0  0  0
 28103  1  0  0  0
 28104  1  0  0  0
 29105  1  0  0  0
 29106  1  0  0  0
 33 34  1  0  0  0
 33 66  1  0  0  0
 33 70  2  0  0  0
 34 36  1  0  0  0
 34 59  1  0  0  0
 34107  1  0  0  0
 35 44  2  0  0  0
 35 45  1  0  0  0
 35 68  1  0  0  0
 36 56  1  0  0  0
 36108  1  0  0  0
 37 39  1  0  0  0
 37 47  1  0  0  0
 37 66  1  0  0  0
 37109  1  0  0  0
 38 43  2  0  0  0
 38 46  1  0  0  0
 38 47  1  0  0  0
 39 64  1  0  0  0
 39 67  2  0  0  0
 40 52  1  0  0  0
 40 53  2  0  0  0
 40 58  1  0  0  0
 41110  1  0  0  0
 41111  1  0  0  0
 41112  1  0  0  0
 41 48  1  0  0  0
 42 43  1  0  0  0
 42 66  1  0  0  0
 42113  1  0  0  0
 42114  1  0  0  0
 43 44  1  0  0  0
 44115  1  0  0  0
 45 46  2  0  0  0
 45116  1  0  0  0
 46117  1  0  0  0
 47118  1  0  0  0
 47119  1  0  0  0
 48 56  1  0  0  0
 48 65  1  0  0  0
 48120  1  0  0  0
 49 50  1  0  0  0
 49 53  1  0  0  0
 49 64  1  0  0  0
 49121  1  0  0  0
 50 51  1  0  0  0
 50122  1  0  0  0
 50123  1  0  0  0
 51 52  1  0  0  0
 51124  1  0  0  0
 51125  1  0  0  0
 52126  1  0  0  0
 52127  1  0  0  0
 53 54  1  0  0  0
 54 55  2  0  0  0
 54128  1  0  0  0
 55 57  1  0  0  0
 55129  1  0  0  0
 56 69  2  0  0  0
 57 58  2  0  0  0
 57130  1  0  0  0
 58131  1  0  0  0
 59 60  1  0  0  0
 59 61  1  0  0  0
 59 62  1  0  0  0
 60132  1  0  0  0
 60133  1  0  0  0
 60134  1  0  0  0
 61135  1  0  0  0
 61136  1  0  0  0
 61137  1  0  0  0
 62138  1  0  0  0
 62139  1  0  0  0
 62140  1  0  0  0
 63 65  1  0  0  0
 63141  1  0  0  0
 63142  1  0  0  0
 63143  1  0  0  0
 64144  1  0  0  0
 65145  1  0  0  0
 68 84  1  0  0  0
 71 72  2  0  0  0
 71 73  1  0  0  0
 71146  1  0  0  0
 72 75  1  0  0  0
 72147  1  0  0  0
 73 76  2  0  0  0
 73148  1  0  0  0
 74 75  2  0  0  0
 74 76  1  0  0  0
 74149  1  0  0  0
 75 81  1  0  0  0
 76 85  1  0  0  0
 77 79  1  0  0  0
 77 81  1  0  0  0
 77150  1  0  0  0
 77151  1  0  0  0
 78 80  1  0  0  0
 78 81  1  0  0  0
 78152  1  0  0  0
 78153  1  0  0  0
 79 82  1  0  0  0
 79154  1  0  0  0
 79155  1  0  0  0
 80 82  1  0  0  0
 80156  1  0  0  0
 80157  1  0  0  0
 81158  1  0  0  0
 82 84  1  0  0  0
 82 86  1  0  0  0
 83 86  1  0  0  0
 83159  1  0  0  0
 83160  1  0  0  0
 83161  1  0  0  0
 84162  1  0  0  0
 84163  1  0  0  0
 85164  1  0  0  0
M  ISO  4   1 100  68 101  84 101  85 100
M  END
> <chiral flag>
0

> <version>
0

> <s_m_source_file>
/data/baiqing/PycharmProjects/Reinvent-master-3.2/result/LINK_invent/BTK/process_docking_weight1_custom_product_contain_oxygen_bond_distance_aromatic_linkinvent_7_9_3/rearranged_h_0158.sdf

> <i_m_source_file_index>
45

> <r_mmod_Potential_Energy-OPLS-2005>
78.4158172607422

> <r_mmod_Stretch_Energy-OPLS-2005>
74.2648620605469

> <r_mmod_Bend_Energy-OPLS-2005>
144.966415405273

> <r_mmod_Torsional_Energy-OPLS-2005>
237.212219238281

> <r_mmod_Improper_Torsional_Energy-OPLS-2005>
4.63951301574707

> <r_mmod_Van_der_Waal_Energy-OPLS-2005>
163.539916992188

> <r_mmod_Electrostatic_Energy-OPLS-2005>
-376.734710693359

> <r_mmod_Solvation_Energy-OPLS-2005>
-208.397491455078

> <b_mmod_Minimization_Converged-OPLS-2005>
0

> <r_mmod_RMS_Derivative-OPLS-2005>
2.06654739379883

$$$$
45
                    3D
 Structure written by MMmdl.
161170  0  0  1  0            999 V2000
  -30.6855  -14.5959   20.4669 C   0  0  0  0  0  0
  -30.4136  -12.3577   19.4577 C   0  0  0  0  0  0
  -29.4984  -12.4869   18.2228 C   0  0  0  0  0  0
  -28.0213  -12.3409   18.6347 C   0  0  0  0  0  0
  -27.6466  -13.2247   19.8552 C   0  0  2  0  0  0
  -28.6913  -13.1141   20.9883 C   0  0  0  0  0  0
  -25.2527  -13.8196   20.5691 C   0  0  0  0  0  0
  -24.1810  -13.0447   20.9203 C   0  0  0  0  0  0
  -24.6390  -11.6922   20.8749 C   0  0  0  0  0  0
  -23.9066  -10.4298   21.0409 C   0  0  0  0  0  0
  -24.3618   -9.4211   21.9184 C   0  0  0  0  0  0
  -23.6295   -8.2245   22.0753 C   0  0  0  0  0  0
  -22.4276   -8.0282   21.3544 C   0  0  0  0  0  0
  -21.9912   -9.0257   20.4647 C   0  0  0  0  0  0
  -22.7239  -10.2137   20.3058 C   0  0  0  0  0  0
  -21.6854   -6.0736   22.5279 C   0  0  0  0  0  0
  -21.4015   -6.5639   23.8212 C   0  0  0  0  0  0
  -21.3660   -5.6793   24.9174 C   0  0  0  0  0  0
  -21.6044   -4.3055   24.7225 C   0  0  0  0  0  0
  -21.8819   -3.8147   23.4346 C   0  0  0  0  0  0
  -21.9193   -4.6963   22.3402 C   0  0  0  0  0  0
  -22.7831  -13.5231   21.1862 C   0  0  0  0  0  0
  -22.1662   -4.2149   21.0980 F   0  0  0  0  0  0
  -21.5628   -3.4539   25.7738 F   0  0  0  0  0  0
  -30.0084  -13.4089   20.4116 N   0  0  0  0  0  0
  -26.2956  -12.9395   20.3302 N   0  0  0  0  0  0
  -25.9319  -11.6542   20.5764 N   0  0  0  0  0  0
  -22.0475  -12.8220   22.0417 N   0  0  0  0  0  0
  -25.4225  -15.1919   20.4097 N   0  0  0  0  0  0
  -31.8810  -14.6315   20.1706 O   0  0  0  0  0  0
  -21.6642   -6.8879   21.4240 O   0  0  0  0  0  0
  -22.3517  -14.5537   20.6709 O   0  0  0  0  0  0
  -24.6209  -31.8632   23.2053 C   0  0  0  0  0  0
  -25.9076  -32.4797   23.8369 C   0  0  1  0  0  0
  -27.2233  -27.3693   20.1186 C   0  0  0  0  0  0
  -25.5909  -33.8597   24.2300 N   0  0  0  0  0  0
  -23.4127  -30.4860   21.5464 C   0  0  2  0  0  0
  -24.8606  -28.9444   20.1125 C   0  0  0  0  0  0
  -22.7448  -29.4636   22.4955 C   0  0  0  0  0  0
  -18.0280  -28.1380   22.8489 C   0  0  0  0  0  0
  -24.1488  -36.7305   23.2637 C   0  0  0  0  0  0
  -25.9479  -30.8108   21.3674 C   0  0  0  0  0  0
  -26.0256  -29.4406   20.7134 C   0  0  0  0  0  0
  -27.2153  -28.6631   20.7076 C   0  0  0  0  0  0
  -26.0444  -26.9064   19.5010 C   0  0  0  0  0  0
  -24.8684  -27.6804   19.4984 C   0  0  0  0  0  0
  -23.6254  -29.8186   20.1616 C   0  0  0  0  0  0
  -25.4110  -36.3097   24.0333 C   0  0  1  0  0  0
  -20.5876  -28.3678   23.1299 C   0  0  2  0  0  0
  -20.6770  -26.9406   22.5415 C   0  0  0  0  0  0
  -19.5749  -26.6385   21.5212 C   0  0  0  0  0  0
  -18.1928  -26.7925   22.1623 C   0  0  0  0  0  0
  -19.1531  -28.8845   23.2890 C   0  0  0  0  0  0
  -18.9456  -30.1449   23.8904 C   0  0  0  0  0  0
  -17.6458  -30.6585   24.0563 C   0  0  0  0  0  0
  -25.9042  -34.9463   23.5117 C   0  0  0  0  0  0
  -16.5349  -29.9086   23.6327 C   0  0  0  0  0  0
  -16.7268  -28.6502   23.0349 C   0  0  0  0  0  0
  -26.4483  -31.6590   25.0717 C   0  0  0  0  0  0
  -25.3735  -31.3713   26.1457 C   0  0  0  0  0  0
  -27.0317  -30.3023   24.6128 C   0  0  0  0  0  0
  -27.6053  -32.4314   25.7483 C   0  0  0  0  0  0
  -27.5583  -37.1803   24.8461 C   0  0  0  0  0  0
  -21.4167  -29.3037   22.3698 N   0  0  0  0  0  0
  -26.4291  -37.3787   23.9411 N   0  0  0  0  0  0
  -24.6790  -31.0686   22.0976 N   0  0  0  0  0  0
  -23.4193  -28.8177   23.3019 O   0  0  0  0  0  0
  -28.3315  -26.5334   20.1338 O   0  0  0  0  0  0
  -26.5610  -34.8923   22.4682 O   0  0  0  0  0  0
  -23.5385  -32.1404   23.7413 O   0  0  0  0  0  0
  -29.4357  -18.2390   20.6934 C   0  0  0  0  0  0
  -31.4650  -17.4952   19.6388 C   0  0  0  0  0  0
  -30.2886  -17.1360   20.3459 C   0  0  0  0  0  0
  -29.7994  -19.5847   20.3456 C   0  0  0  0  0  0
  -31.7525  -18.8379   19.3618 C   0  0  0  0  0  0
  -28.4337  -21.6283   19.4575 C   0  0  0  0  0  0
  -27.8430  -23.0450   19.7648 C   0  0  0  0  0  0
  -29.3230  -23.1442   21.7673 C   0  0  0  0  0  0
  -28.9974  -20.8722   20.7019 C   0  0  2  0  0  0
  -28.8220  -23.9708   20.5411 C   0  0  2  0  0  0
  -28.1971  -25.3578   20.9913 C   0  0  0  0  0  0
  -30.9630  -19.8570   19.7145 N   0  0  0  0  0  0
  -32.9030  -19.1967   18.6822 N   0  0  0  0  0  0
  -29.9536  -15.7413   20.6633 N   0  0  0  0  0  0
  -29.8935  -21.8066   21.4221 N   0  3  0  0  0  0
  -31.4603  -12.4358   19.1586 H   0  0  0  0  0  0
  -30.3087  -11.3724   19.9146 H   0  0  0  0  0  0
  -29.7556  -11.7293   17.4814 H   0  0  0  0  0  0
  -29.6555  -13.4535   17.7412 H   0  0  0  0  0  0
  -27.8520  -11.2904   18.8737 H   0  0  0  0  0  0
  -27.3691  -12.5675   17.7904 H   0  0  0  0  0  0
  -27.6567  -14.2545   19.4976 H   0  0  0  0  0  0
  -28.6882  -12.1126   21.4211 H   0  0  0  0  0  0
  -28.4532  -13.7982   21.8043 H   0  0  0  0  0  0
  -25.2764   -9.5687   22.4757 H   0  0  0  0  0  0
  -24.0006   -7.4636   22.7470 H   0  0  0  0  0  0
  -21.0843   -8.8776   19.8953 H   0  0  0  0  0  0
  -22.3697  -10.9676   19.6167 H   0  0  0  0  0  0
  -21.2008   -7.6148   23.9714 H   0  0  0  0  0  0
  -21.1482   -6.0523   25.9077 H   0  0  0  0  0  0
  -22.0598   -2.7609   23.2846 H   0  0  0  0  0  0
  -22.4092  -11.9882   22.4807 H   0  0  0  0  0  0
  -21.1091  -13.1242   22.2620 H   0  0  0  0  0  0
  -24.6518  -15.8430   20.5138 H   0  0  0  0  0  0
  -26.2649  -15.6309   20.0612 H   0  0  0  0  0  0
  -26.7145  -32.5492   23.1126 H   0  0  0  0  0  0
  -25.0056  -33.9749   25.0444 H   0  0  0  0  0  0
  -22.7041  -31.3046   21.4044 H   0  0  0  0  0  0
  -23.3749  -35.9639   23.3302 H   0  0  0  0  0  0
  -24.3583  -36.8920   22.2051 H   0  0  0  0  0  0
  -23.7242  -37.6510   23.6654 H   0  0  0  0  0  0
  -26.0689  -31.5750   20.5984 H   0  0  0  0  0  0
  -26.8323  -30.8634   21.9908 H   0  0  0  0  0  0
  -28.1128  -29.0374   21.1799 H   0  0  0  0  0  0
  -26.0324  -25.9310   19.0350 H   0  0  0  0  0  0
  -23.9743  -27.2938   19.0290 H   0  0  0  0  0  0
  -23.7395  -30.5939   19.4030 H   0  0  0  0  0  0
  -22.7475  -29.2431   19.8625 H   0  0  0  0  0  0
  -25.1286  -36.1955   25.0826 H   0  0  0  0  0  0
  -20.9968  -28.3248   24.1419 H   0  0  0  0  0  0
  -20.5671  -26.2285   23.3608 H   0  0  0  0  0  0
  -21.6640  -26.7442   22.1209 H   0  0  0  0  0  0
  -19.6912  -25.6298   21.1235 H   0  0  0  0  0  0
  -19.6689  -27.3200   20.6746 H   0  0  0  0  0  0
  -17.4199  -26.6672   21.4024 H   0  0  0  0  0  0
  -18.0330  -26.0065   22.9018 H   0  0  0  0  0  0
  -19.7933  -30.7260   24.2279 H   0  0  0  0  0  0
  -17.5014  -31.6266   24.5163 H   0  0  0  0  0  0
  -15.5350  -30.2991   23.7647 H   0  0  0  0  0  0
  -15.8668  -28.0824   22.7060 H   0  0  0  0  0  0
  -24.5907  -30.7061   25.7792 H   0  0  0  0  0  0
  -24.8927  -32.2874   26.4898 H   0  0  0  0  0  0
  -25.8076  -30.8884   27.0221 H   0  0  0  0  0  0
  -26.2873  -29.6783   24.1167 H   0  0  0  0  0  0
  -27.4053  -29.7265   25.4605 H   0  0  0  0  0  0
  -27.8725  -30.4327   23.9311 H   0  0  0  0  0  0
  -27.2669  -33.3605   26.2082 H   0  0  0  0  0  0
  -28.3851  -32.6889   25.0304 H   0  0  0  0  0  0
  -28.0734  -31.8425   26.5380 H   0  0  0  0  0  0
  -28.2593  -38.0108   24.7523 H   0  0  0  0  0  0
  -28.1087  -36.2641   24.6265 H   0  0  0  0  0  0
  -27.2305  -37.1427   25.8865 H   0  0  0  0  0  0
  -20.9335  -29.8760   21.6916 H   0  0  0  0  0  0
  -26.0177  -38.2863   24.1420 H   0  0  0  0  0  0
  -28.5095  -18.0630   21.2240 H   0  0  0  0  0  0
  -32.1690  -16.7570   19.2909 H   0  0  0  0  0  0
  -29.2317  -21.7492   18.7239 H   0  0  0  0  0  0
  -27.6802  -21.0082   18.9711 H   0  0  0  0  0  0
  -26.9262  -22.9235   20.3439 H   0  0  0  0  0  0
  -27.5452  -23.5284   18.8334 H   0  0  0  0  0  0
  -28.5046  -22.9988   22.4743 H   0  0  0  0  0  0
  -30.0875  -23.7092   22.3022 H   0  0  0  0  0  0
  -28.1742  -20.6001   21.3641 H   0  0  0  0  0  0
  -29.6858  -24.1843   19.9102 H   0  0  0  0  0  0
  -28.6850  -25.6562   21.9200 H   0  0  0  0  0  0
  -27.1573  -25.1919   21.2798 H   0  0  0  0  0  0
  -33.6494  -18.5241   18.5513 H   0  0  0  0  0  0
  -33.1894  -20.1674   18.6538 H   0  0  0  0  0  0
  -29.0083  -15.5804   20.9726 H   0  0  0  0  0  0
  -30.1988  -21.3428   22.2612 H   0  0  0  0  0  0
  -30.7069  -21.8989   20.8337 H   0  0  0  0  0  0
  1 25  1  0  0  0
  1 30  2  0  0  0
  1 84  1  0  0  0
  2  3  1  0  0  0
  2 25  1  0  0  0
  2 86  1  0  0  0
  2 87  1  0  0  0
  3  4  1  0  0  0
  3 88  1  0  0  0
  3 89  1  0  0  0
  4  5  1  0  0  0
  4 90  1  0  0  0
  4 91  1  0  0  0
  5  6  1  0  0  0
  5 26  1  0  0  0
  5 92  1  0  0  0
  6 25  1  0  0  0
  6 93  1  0  0  0
  6 94  1  0  0  0
  7  8  2  0  0  0
  7 26  1  0  0  0
  7 29  1  0  0  0
  8  9  1  0  0  0
  8 22  1  0  0  0
  9 10  1  0  0  0
  9 27  2  0  0  0
 10 11  2  0  0  0
 10 15  1  0  0  0
 11 12  1  0  0  0
 11 95  1  0  0  0
 12 13  2  0  0  0
 12 96  1  0  0  0
 13 14  1  0  0  0
 13 31  1  0  0  0
 14 15  2  0  0  0
 14 97  1  0  0  0
 15 98  1  0  0  0
 16 17  2  0  0  0
 16 21  1  0  0  0
 16 31  1  0  0  0
 17 18  1  0  0  0
 17 99  1  0  0  0
 18 19  2  0  0  0
 18100  1  0  0  0
 19 20  1  0  0  0
 19 24  1  0  0  0
 20 21  2  0  0  0
 20101  1  0  0  0
 21 23  1  0  0  0
 22 28  1  0  0  0
 22 32  2  0  0  0
 26 27  1  0  0  0
 28102  1  0  0  0
 28103  1  0  0  0
 29104  1  0  0  0
 29105  1  0  0  0
 33 34  1  0  0  0
 33 66  1  0  0  0
 33 70  2  0  0  0
 34 36  1  0  0  0
 34 59  1  0  0  0
 34106  1  0  0  0
 35 44  2  0  0  0
 35 45  1  0  0  0
 35 68  1  0  0  0
 36 56  1  0  0  0
 36107  1  0  0  0
 37 39  1  0  0  0
 37 47  1  0  0  0
 37 66  1  0  0  0
 37108  1  0  0  0
 38 43  2  0  0  0
 38 46  1  0  0  0
 38 47  1  0  0  0
 39 64  1  0  0  0
 39 67  2  0  0  0
 40 52  1  0  0  0
 40 53  2  0  0  0
 40 58  1  0  0  0
 41109  1  0  0  0
 41110  1  0  0  0
 41111  1  0  0  0
 41 48  1  0  0  0
 42 43  1  0  0  0
 42 66  1  0  0  0
 42112  1  0  0  0
 42113  1  0  0  0
 43 44  1  0  0  0
 44114  1  0  0  0
 45 46  2  0  0  0
 45115  1  0  0  0
 46116  1  0  0  0
 47117  1  0  0  0
 47118  1  0  0  0
 48 56  1  0  0  0
 48 65  1  0  0  0
 48119  1  0  0  0
 49 50  1  0  0  0
 49 53  1  0  0  0
 49 64  1  0  0  0
 49120  1  0  0  0
 50 51  1  0  0  0
 50121  1  0  0  0
 50122  1  0  0  0
 51 52  1  0  0  0
 51123  1  0  0  0
 51124  1  0  0  0
 52125  1  0  0  0
 52126  1  0  0  0
 53 54  1  0  0  0
 54 55  2  0  0  0
 54127  1  0  0  0
 55 57  1  0  0  0
 55128  1  0  0  0
 56 69  2  0  0  0
 57 58  2  0  0  0
 57129  1  0  0  0
 58130  1  0  0  0
 59 60  1  0  0  0
 59 61  1  0  0  0
 59 62  1  0  0  0
 60131  1  0  0  0
 60132  1  0  0  0
 60133  1  0  0  0
 61134  1  0  0  0
 61135  1  0  0  0
 61136  1  0  0  0
 62137  1  0  0  0
 62138  1  0  0  0
 62139  1  0  0  0
 63 65  1  0  0  0
 63140  1  0  0  0
 63141  1  0  0  0
 63142  1  0  0  0
 64143  1  0  0  0
 65144  1  0  0  0
 68 81  1  0  0  0
 71 73  2  0  0  0
 71 74  1  0  0  0
 71145  1  0  0  0
 72 73  1  0  0  0
 72 75  2  0  0  0
 72146  1  0  0  0
 73 84  1  0  0  0
 74 82  2  0  0  0
 74 79  1  0  0  0
 75 82  1  0  0  0
 75 83  1  0  0  0
 76 77  1  0  0  0
 76 79  1  0  0  0
 76147  1  0  0  0
 76148  1  0  0  0
 77 80  1  0  0  0
 77149  1  0  0  0
 77150  1  0  0  0
 78 80  1  0  0  0
 78 85  1  0  0  0
 78151  1  0  0  0
 78152  1  0  0  0
 79 85  1  0  0  0
 79153  1  0  0  0
 80 81  1  0  0  0
 80154  1  0  0  0
 81155  1  0  0  0
 81156  1  0  0  0
 83157  1  0  0  0
 83158  1  0  0  0
 84159  1  0  0  0
 85160  1  0  0  0
 85161  1  0  0  0
M  CHG  1  85   1
M  ISO  4   1 100  68 101  81 101  84 100
M  END
> <chiral flag>
0

> <version>
0

> <s_m_source_file>
/data/baiqing/PycharmProjects/Reinvent-master-3.2/result/LINK_invent/BTK/process_docking_weight1_custom_product_contain_oxygen_bond_distance_aromatic_linkinvent_7_9_3/rearranged_h_0158.sdf

> <i_m_source_file_index>
46

> <r_mmod_Potential_Energy-OPLS-2005>
-430.241333007812

> <r_mmod_Stretch_Energy-OPLS-2005>
64.5609970092773

> <r_mmod_Bend_Energy-OPLS-2005>
128.861358642578

> <r_mmod_Torsional_Energy-OPLS-2005>
268.116088867188

> <r_mmod_Improper_Torsional_Energy-OPLS-2005>
6.22472620010376

> <r_mmod_Van_der_Waal_Energy-OPLS-2005>
156.479415893555

> <r_mmod_Electrostatic_Energy-OPLS-2005>
-619.906921386719

> <r_mmod_Solvation_Energy-OPLS-2005>
-473.408386230469

> <b_mmod_Minimization_Converged-OPLS-2005>
0

> <r_mmod_RMS_Derivative-OPLS-2005>
0.122663028538227

$$$$
46
                    3D
 Structure written by MMmdl.
158167  0  0  1  0            999 V2000
  -30.6384  -14.5830   20.5285 C   0  0  0  0  0  0
  -30.4382  -12.3624   19.4413 C   0  0  0  0  0  0
  -29.5055  -12.5083   18.2184 C   0  0  0  0  0  0
  -28.0270  -12.3536   18.6294 C   0  0  0  0  0  0
  -27.6586  -13.2096   19.8703 C   0  0  2  0  0  0
  -28.7022  -13.0268   20.9959 C   0  0  0  0  0  0
  -25.2584  -13.8160   20.5683 C   0  0  0  0  0  0
  -24.1838  -13.0437   20.9185 C   0  0  0  0  0  0
  -24.6395  -11.6904   20.8735 C   0  0  0  0  0  0
  -23.9058  -10.4291   21.0403 C   0  0  0  0  0  0
  -24.3612   -9.4207   21.9180 C   0  0  0  0  0  0
  -23.6287   -8.2244   22.0752 C   0  0  0  0  0  0
  -22.4269   -8.0282   21.3544 C   0  0  0  0  0  0
  -21.9901   -9.0256   20.4648 C   0  0  0  0  0  0
  -22.7231  -10.2135   20.3055 C   0  0  0  0  0  0
  -21.6853   -6.0731   22.5278 C   0  0  0  0  0  0
  -21.4015   -6.5637   23.8211 C   0  0  0  0  0  0
  -21.3659   -5.6790   24.9173 C   0  0  0  0  0  0
  -21.6045   -4.3052   24.7226 C   0  0  0  0  0  0
  -21.8820   -3.8143   23.4347 C   0  0  0  0  0  0
  -21.9194   -4.6959   22.3401 C   0  0  0  0  0  0
  -22.7862  -13.5239   21.1849 C   0  0  0  0  0  0
  -22.1662   -4.2144   21.0979 F   0  0  0  0  0  0
  -21.5628   -3.4538   25.7740 F   0  0  0  0  0  0
  -30.0244  -13.3641   20.4410 N   0  0  0  0  0  0
  -26.3011  -12.9328   20.3340 N   0  0  0  0  0  0
  -25.9321  -11.6489   20.5757 N   0  0  0  0  0  0
  -22.0499  -12.8237   22.0407 N   0  0  0  0  0  0
  -25.4308  -15.1881   20.4094 N   0  0  0  0  0  0
  -31.7867  -14.7621   20.1111 O   0  0  0  0  0  0
  -21.6637   -6.8876   21.4240 O   0  0  0  0  0  0
  -22.3550  -14.5544   20.6695 O   0  0  0  0  0  0
  -24.6209  -31.8638   23.2062 C   0  0  0  0  0  0
  -25.9075  -32.4803   23.8380 C   0  0  1  0  0  0
  -27.2308  -27.3715   20.1238 C   0  0  0  0  0  0
  -25.5908  -33.8602   24.2309 N   0  0  0  0  0  0
  -23.4141  -30.4863   21.5464 C   0  0  2  0  0  0
  -24.8659  -28.9475   20.1131 C   0  0  0  0  0  0
  -22.7454  -29.4636   22.4949 C   0  0  0  0  0  0
  -18.0284  -28.1382   22.8486 C   0  0  0  0  0  0
  -24.1487  -36.7307   23.2638 C   0  0  0  0  0  0
  -25.9495  -30.8127   21.3698 C   0  0  0  0  0  0
  -26.0300  -29.4426   20.7173 C   0  0  0  0  0  0
  -27.2212  -28.6661   20.7162 C   0  0  0  0  0  0
  -26.0552  -26.9182   19.4923 C   0  0  0  0  0  0
  -24.8767  -27.6875   19.4925 C   0  0  0  0  0  0
  -23.6291  -29.8199   20.1615 C   0  0  0  0  0  0
  -25.4108  -36.3099   24.0334 C   0  0  1  0  0  0
  -20.5881  -28.3681   23.1293 C   0  0  2  0  0  0
  -20.6773  -26.9407   22.5413 C   0  0  0  0  0  0
  -19.5751  -26.6384   21.5211 C   0  0  0  0  0  0
  -18.1930  -26.7926   22.1623 C   0  0  0  0  0  0
  -19.1535  -28.8847   23.2887 C   0  0  0  0  0  0
  -18.9459  -30.1449   23.8905 C   0  0  0  0  0  0
  -17.6460  -30.6584   24.0566 C   0  0  0  0  0  0
  -25.9040  -34.9465   23.5121 C   0  0  0  0  0  0
  -16.5351  -29.9086   23.6326 C   0  0  0  0  0  0
  -16.7272  -28.6503   23.0346 C   0  0  0  0  0  0
  -26.4483  -31.6593   25.0724 C   0  0  0  0  0  0
  -25.3737  -31.3719   26.1467 C   0  0  0  0  0  0
  -27.0314  -30.3023   24.6136 C   0  0  0  0  0  0
  -27.6055  -32.4315   25.7487 C   0  0  0  0  0  0
  -27.5580  -37.1808   24.8463 C   0  0  0  0  0  0
  -21.4173  -29.3039   22.3690 N   0  0  0  0  0  0
  -26.4292  -37.3786   23.9406 N   0  0  0  0  0  0
  -24.6797  -31.0693   22.0987 N   0  0  0  0  0  0
  -23.4197  -28.8175   23.3013 O   0  0  0  0  0  0
  -28.3162  -26.5025   20.1078 O   0  0  0  0  0  0
  -26.5607  -34.8922   22.4686 O   0  0  0  0  0  0
  -23.5383  -32.1410   23.7417 O   0  0  0  0  0  0
  -31.0062  -19.1954   20.2805 C   0  0  0  0  0  0
  -28.7724  -19.2278   21.1837 C   0  0  0  0  0  0
  -31.0268  -17.7734   20.3485 C   0  0  0  0  0  0
  -28.7923  -17.8080   21.2560 C   0  0  0  0  0  0
  -29.8856  -19.9587   20.7036 C   0  0  0  0  0  0
  -29.9167  -17.0434   20.8482 C   0  0  0  0  0  0
  -28.5994  -25.7505   21.2424 C   0  0  0  0  0  0
  -29.0490  -22.2483   19.6486 C   0  0  0  0  0  0
  -29.5701  -22.1619   22.0531 C   0  0  0  0  0  0
  -29.2196  -23.8127   19.6421 C   0  0  0  0  0  0
  -29.7931  -23.6992   22.0685 C   0  0  0  0  0  0
  -29.9274  -21.5226   20.6995 C   0  0  0  0  0  0
  -29.1254  -24.4494   20.9773 N   0  0  0  0  0  0
  -29.8419  -15.5969   20.9717 N   0  0  0  0  0  0
  -28.4126  -26.2003   22.3778 O   0  0  0  0  0  0
  -31.4796  -12.4856   19.1386 H   0  0  0  0  0  0
  -30.3675  -11.3583   19.8624 H   0  0  0  0  0  0
  -29.7609  -11.7679   17.4593 H   0  0  0  0  0  0
  -29.6567  -13.4848   17.7554 H   0  0  0  0  0  0
  -27.8536  -11.2987   18.8449 H   0  0  0  0  0  0
  -27.3746  -12.6034   17.7919 H   0  0  0  0  0  0
  -27.6892  -14.2511   19.5500 H   0  0  0  0  0  0
  -28.7019  -11.9952   21.3507 H   0  0  0  0  0  0
  -28.4510  -13.6338   21.8670 H   0  0  0  0  0  0
  -25.2758   -9.5684   22.4752 H   0  0  0  0  0  0
  -23.9999   -7.4635   22.7471 H   0  0  0  0  0  0
  -21.0830   -8.8777   19.8955 H   0  0  0  0  0  0
  -22.3689  -10.9674   19.6166 H   0  0  0  0  0  0
  -21.2007   -7.6145   23.9714 H   0  0  0  0  0  0
  -21.1479   -6.0519   25.9076 H   0  0  0  0  0  0
  -22.0599   -2.7605   23.2850 H   0  0  0  0  0  0
  -22.4107  -11.9896   22.4797 H   0  0  0  0  0  0
  -21.1119  -13.1270   22.2611 H   0  0  0  0  0  0
  -24.6620  -15.8413   20.5120 H   0  0  0  0  0  0
  -26.2752  -15.6241   20.0611 H   0  0  0  0  0  0
  -26.7148  -32.5505   23.1143 H   0  0  0  0  0  0
  -25.0058  -33.9755   25.0455 H   0  0  0  0  0  0
  -22.7051  -31.3044   21.4037 H   0  0  0  0  0  0
  -23.3742  -35.9647   23.3312 H   0  0  0  0  0  0
  -24.3580  -36.8912   22.2050 H   0  0  0  0  0  0
  -23.7247  -37.6518   23.6647 H   0  0  0  0  0  0
  -26.0702  -31.5764   20.6001 H   0  0  0  0  0  0
  -26.8335  -30.8667   21.9936 H   0  0  0  0  0  0
  -28.1163  -29.0395   21.1939 H   0  0  0  0  0  0
  -26.0452  -25.9459   19.0195 H   0  0  0  0  0  0
  -23.9851  -27.3021   19.0173 H   0  0  0  0  0  0
  -23.7435  -30.5959   19.4037 H   0  0  0  0  0  0
  -22.7521  -29.2439   19.8607 H   0  0  0  0  0  0
  -25.1286  -36.1963   25.0828 H   0  0  0  0  0  0
  -20.9974  -28.3256   24.1413 H   0  0  0  0  0  0
  -20.5671  -26.2291   23.3610 H   0  0  0  0  0  0
  -21.6645  -26.7440   22.1210 H   0  0  0  0  0  0
  -19.6914  -25.6298   21.1233 H   0  0  0  0  0  0
  -19.6688  -27.3201   20.6747 H   0  0  0  0  0  0
  -17.4199  -26.6669   21.4027 H   0  0  0  0  0  0
  -18.0334  -26.0068   22.9021 H   0  0  0  0  0  0
  -19.7937  -30.7260   24.2281 H   0  0  0  0  0  0
  -17.5016  -31.6263   24.5169 H   0  0  0  0  0  0
  -15.5352  -30.2991   23.7644 H   0  0  0  0  0  0
  -15.8672  -28.0824   22.7056 H   0  0  0  0  0  0
  -24.5900  -30.7079   25.7805 H   0  0  0  0  0  0
  -24.8945  -32.2885   26.4919 H   0  0  0  0  0  0
  -25.8080  -30.8881   27.0225 H   0  0  0  0  0  0
  -26.2872  -29.6783   24.1172 H   0  0  0  0  0  0
  -27.4044  -29.7262   25.4614 H   0  0  0  0  0  0
  -27.8727  -30.4320   23.9324 H   0  0  0  0  0  0
  -27.2673  -33.3608   26.2085 H   0  0  0  0  0  0
  -28.3854  -32.6887   25.0307 H   0  0  0  0  0  0
  -28.0735  -31.8428   26.5387 H   0  0  0  0  0  0
  -28.2606  -38.0096   24.7501 H   0  0  0  0  0  0
  -28.1066  -36.2629   24.6297 H   0  0  0  0  0  0
  -27.2300  -37.1472   25.8868 H   0  0  0  0  0  0
  -20.9342  -29.8766   21.6910 H   0  0  0  0  0  0
  -26.0181  -38.2864   24.1404 H   0  0  0  0  0  0
  -31.8850  -19.7046   19.9094 H   0  0  0  0  0  0
  -27.8923  -19.7564   21.5220 H   0  0  0  0  0  0
  -31.9179  -17.2592   20.0190 H   0  0  0  0  0  0
  -27.9166  -17.3057   21.6435 H   0  0  0  0  0  0
  -29.2789  -21.8613   18.6551 H   0  0  0  0  0  0
  -28.0013  -22.0031   19.8282 H   0  0  0  0  0  0
  -28.5326  -21.9437   22.3091 H   0  0  0  0  0  0
  -30.1767  -21.7094   22.8389 H   0  0  0  0  0  0
  -28.4789  -24.2392   18.9641 H   0  0  0  0  0  0
  -30.1945  -24.0674   19.2245 H   0  0  0  0  0  0
  -30.8621  -23.9056   21.9973 H   0  0  0  0  0  0
  -29.4888  -24.0698   23.0486 H   0  0  0  0  0  0
  -30.9632  -21.7910   20.4850 H   0  0  0  0  0  0
  -28.9625  -15.2563   21.3286 H   0  0  0  0  0  0
  1 25  1  0  0  0
  1 30  2  0  0  0
  1 84  1  0  0  0
  2  3  1  0  0  0
  2 25  1  0  0  0
  2 86  1  0  0  0
  2 87  1  0  0  0
  3  4  1  0  0  0
  3 88  1  0  0  0
  3 89  1  0  0  0
  4  5  1  0  0  0
  4 90  1  0  0  0
  4 91  1  0  0  0
  5  6  1  0  0  0
  5 26  1  0  0  0
  5 92  1  0  0  0
  6 25  1  0  0  0
  6 93  1  0  0  0
  6 94  1  0  0  0
  7  8  2  0  0  0
  7 26  1  0  0  0
  7 29  1  0  0  0
  8  9  1  0  0  0
  8 22  1  0  0  0
  9 10  1  0  0  0
  9 27  2  0  0  0
 10 11  2  0  0  0
 10 15  1  0  0  0
 11 12  1  0  0  0
 11 95  1  0  0  0
 12 13  2  0  0  0
 12 96  1  0  0  0
 13 14  1  0  0  0
 13 31  1  0  0  0
 14 15  2  0  0  0
 14 97  1  0  0  0
 15 98  1  0  0  0
 16 17  2  0  0  0
 16 21  1  0  0  0
 16 31  1  0  0  0
 17 18  1  0  0  0
 17 99  1  0  0  0
 18 19  2  0  0  0
 18100  1  0  0  0
 19 20  1  0  0  0
 19 24  1  0  0  0
 20 21  2  0  0  0
 20101  1  0  0  0
 21 23  1  0  0  0
 22 28  1  0  0  0
 22 32  2  0  0  0
 26 27  1  0  0  0
 28102  1  0  0  0
 28103  1  0  0  0
 29104  1  0  0  0
 29105  1  0  0  0
 33 34  1  0  0  0
 33 66  1  0  0  0
 33 70  2  0  0  0
 34 36  1  0  0  0
 34 59  1  0  0  0
 34106  1  0  0  0
 35 44  2  0  0  0
 35 45  1  0  0  0
 35 68  1  0  0  0
 36 56  1  0  0  0
 36107  1  0  0  0
 37 39  1  0  0  0
 37 47  1  0  0  0
 37 66  1  0  0  0
 37108  1  0  0  0
 38 43  2  0  0  0
 38 46  1  0  0  0
 38 47  1  0  0  0
 39 64  1  0  0  0
 39 67  2  0  0  0
 40 52  1  0  0  0
 40 53  2  0  0  0
 40 58  1  0  0  0
 41109  1  0  0  0
 41110  1  0  0  0
 41111  1  0  0  0
 41 48  1  0  0  0
 42 43  1  0  0  0
 42 66  1  0  0  0
 42112  1  0  0  0
 42113  1  0  0  0
 43 44  1  0  0  0
 44114  1  0  0  0
 45 46  2  0  0  0
 45115  1  0  0  0
 46116  1  0  0  0
 47117  1  0  0  0
 47118  1  0  0  0
 48 56  1  0  0  0
 48 65  1  0  0  0
 48119  1  0  0  0
 49 50  1  0  0  0
 49 53  1  0  0  0
 49 64  1  0  0  0
 49120  1  0  0  0
 50 51  1  0  0  0
 50121  1  0  0  0
 50122  1  0  0  0
 51 52  1  0  0  0
 51123  1  0  0  0
 51124  1  0  0  0
 52125  1  0  0  0
 52126  1  0  0  0
 53 54  1  0  0  0
 54 55  2  0  0  0
 54127  1  0  0  0
 55 57  1  0  0  0
 55128  1  0  0  0
 56 69  2  0  0  0
 57 58  2  0  0  0
 57129  1  0  0  0
 58130  1  0  0  0
 59 60  1  0  0  0
 59 61  1  0  0  0
 59 62  1  0  0  0
 60131  1  0  0  0
 60132  1  0  0  0
 60133  1  0  0  0
 61134  1  0  0  0
 61135  1  0  0  0
 61136  1  0  0  0
 62137  1  0  0  0
 62138  1  0  0  0
 62139  1  0  0  0
 63 65  1  0  0  0
 63140  1  0  0  0
 63141  1  0  0  0
 63142  1  0  0  0
 64143  1  0  0  0
 65144  1  0  0  0
 68 77  1  0  0  0
 71 73  2  0  0  0
 71 75  1  0  0  0
 71145  1  0  0  0
 72 74  1  0  0  0
 72 75  2  0  0  0
 72146  1  0  0  0
 73 76  1  0  0  0
 73147  1  0  0  0
 74 76  2  0  0  0
 74148  1  0  0  0
 75 82  1  0  0  0
 76 84  1  0  0  0
 77 83  1  0  0  0
 77 85  2  0  0  0
 78 80  1  0  0  0
 78 82  1  0  0  0
 78149  1  0  0  0
 78150  1  0  0  0
 79 81  1  0  0  0
 79 82  1  0  0  0
 79151  1  0  0  0
 79152  1  0  0  0
 80 83  1  0  0  0
 80153  1  0  0  0
 80154  1  0  0  0
 81 83  1  0  0  0
 81155  1  0  0  0
 81156  1  0  0  0
 82157  1  0  0  0
 84158  1  0  0  0
M  ISO  4   1 100  68 101  77 101  84 100
M  END
> <chiral flag>
0

> <version>
0

> <s_m_source_file>
/data/baiqing/PycharmProjects/Reinvent-master-3.2/result/LINK_invent/BTK/process_docking_weight1_custom_product_contain_oxygen_bond_distance_aromatic_linkinvent_7_9_3/rearranged_h_0158.sdf

> <i_m_source_file_index>
47

> <r_mmod_Potential_Energy-OPLS-2005>
93.9994354248047

> <r_mmod_Stretch_Energy-OPLS-2005>
62.2072296142578

> <r_mmod_Bend_Energy-OPLS-2005>
126.034469604492

> <r_mmod_Torsional_Energy-OPLS-2005>
283.064544677734

> <r_mmod_Improper_Torsional_Energy-OPLS-2005>
3.95588636398315

> <r_mmod_Van_der_Waal_Energy-OPLS-2005>
148.208831787109

> <r_mmod_Electrostatic_Energy-OPLS-2005>
-341.718597412109

> <r_mmod_Solvation_Energy-OPLS-2005>
-219.80290222168

> <b_mmod_Minimization_Converged-OPLS-2005>
0

> <r_mmod_RMS_Derivative-OPLS-2005>
0.341965794563293

$$$$
47
                    3D
 Structure written by MMmdl.
152160  0  0  1  0            999 V2000
  -30.5009  -15.0241   20.4110 C   0  0  0  0  0  0
  -30.4456  -12.6345   19.5117 C   0  0  0  0  0  0
  -29.5283  -12.5442   18.2675 C   0  0  0  0  0  0
  -28.0629  -12.3170   18.6832 C   0  0  0  0  0  0
  -27.6295  -13.2530   19.8406 C   0  0  2  0  0  0
  -28.6699  -13.2982   20.9810 C   0  0  0  0  0  0
  -25.2456  -13.8220   20.5716 C   0  0  0  0  0  0
  -24.1777  -13.0436   20.9231 C   0  0  0  0  0  0
  -24.6400  -11.6925   20.8753 C   0  0  0  0  0  0
  -23.9085  -10.4292   21.0406 C   0  0  0  0  0  0
  -24.3629   -9.4205   21.9183 C   0  0  0  0  0  0
  -23.6300   -8.2244   22.0753 C   0  0  0  0  0  0
  -22.4282   -8.0282   21.3544 C   0  0  0  0  0  0
  -21.9923   -9.0257   20.4646 C   0  0  0  0  0  0
  -22.7257  -10.2134   20.3055 C   0  0  0  0  0  0
  -21.6853   -6.0735   22.5278 C   0  0  0  0  0  0
  -21.4018   -6.5640   23.8212 C   0  0  0  0  0  0
  -21.3658   -5.6792   24.9174 C   0  0  0  0  0  0
  -21.6044   -4.3055   24.7225 C   0  0  0  0  0  0
  -21.8818   -3.8146   23.4347 C   0  0  0  0  0  0
  -21.9195   -4.6963   22.3403 C   0  0  0  0  0  0
  -22.7797  -13.5203   21.1889 C   0  0  0  0  0  0
  -22.1661   -4.2147   21.0981 F   0  0  0  0  0  0
  -21.5628   -3.4539   25.7739 F   0  0  0  0  0  0
  -29.9410  -13.7378   20.3874 N   0  0  0  0  0  0
  -26.2884  -12.9460   20.3251 N   0  0  0  0  0  0
  -25.9334  -11.6585   20.5737 N   0  0  0  0  0  0
  -22.0451  -12.8181   22.0441 N   0  0  0  0  0  0
  -25.4113  -15.1951   20.4132 N   0  0  0  0  0  0
  -31.6983  -15.0976   20.1035 O   0  0  0  0  0  0
  -21.6643   -6.8880   21.4241 O   0  0  0  0  0  0
  -22.3479  -14.5507   20.6734 O   0  0  0  0  0  0
  -24.6492  -31.8390   23.1862 C   0  0  0  0  0  0
  -25.9245  -32.4666   23.8258 C   0  0  1  0  0  0
  -27.2047  -27.0641   20.1740 C   0  0  0  0  0  0
  -25.5972  -33.8474   24.2166 N   0  0  0  0  0  0
  -23.4566  -30.4577   21.5325 C   0  0  2  0  0  0
  -24.9089  -28.8783   20.1106 C   0  0  0  0  0  0
  -22.7603  -29.4516   22.4838 C   0  0  0  0  0  0
  -18.0309  -28.1397   22.8468 C   0  0  0  0  0  0
  -24.1496  -36.7242   23.2642 C   0  0  0  0  0  0
  -26.0178  -30.6860   21.4035 C   0  0  0  0  0  0
  -26.0853  -29.2899   20.7505 C   0  0  0  0  0  0
  -27.2333  -28.3984   20.7701 C   0  0  0  0  0  0
  -26.0267  -26.8066   19.4395 C   0  0  0  0  0  0
  -24.8962  -27.6507   19.4357 C   0  0  0  0  0  0
  -23.6889  -29.7881   20.1525 C   0  0  0  0  0  0
  -25.4128  -36.3011   24.0311 C   0  0  1  0  0  0
  -20.5927  -28.3729   23.1215 C   0  0  2  0  0  0
  -20.6796  -26.9426   22.5398 C   0  0  0  0  0  0
  -19.5770  -26.6375   21.5207 C   0  0  0  0  0  0
  -18.1949  -26.7934   22.1616 C   0  0  0  0  0  0
  -19.1567  -28.8882   23.2830 C   0  0  0  0  0  0
  -18.9484  -30.1476   23.8860 C   0  0  0  0  0  0
  -17.6481  -30.6590   24.0557 C   0  0  0  0  0  0
  -25.9084  -34.9388   23.5047 C   0  0  0  0  0  0
  -16.5371  -29.9082   23.6341 C   0  0  0  0  0  0
  -16.7294  -28.6503   23.0356 C   0  0  0  0  0  0
  -26.4541  -31.6556   25.0728 C   0  0  0  0  0  0
  -25.3701  -31.3772   26.1406 C   0  0  0  0  0  0
  -27.0418  -30.2933   24.6377 C   0  0  0  0  0  0
  -27.6058  -32.4339   25.7515 C   0  0  0  0  0  0
  -27.5573  -37.1776   24.8465 C   0  0  0  0  0  0
  -21.4287  -29.3049   22.3583 N   0  0  0  0  0  0
  -26.4284  -37.3732   23.9408 N   0  0  0  0  0  0
  -24.7275  -31.0179   22.0943 N   0  0  0  0  0  0
  -23.4213  -28.8063   23.3015 O   0  0  0  0  0  0
  -28.2255  -26.0160   20.1922 O   0  0  0  0  0  0
  -26.5673  -34.8899   22.4629 O   0  0  0  0  0  0
  -23.5594  -32.1306   23.7033 O   0  0  0  0  0  0
  -28.9005  -18.6651   20.8880 C   0  0  0  0  0  0
  -29.3478  -20.0139   20.4223 C   0  0  0  0  0  0
  -29.7747  -17.6280   20.4583 C   0  0  0  0  0  0
  -28.6602  -21.4680   20.7984 C   0  0  0  0  0  0
  -28.5824  -24.7356   22.1615 C   0  0  0  0  0  0
  -26.5411  -24.1980   20.8426 C   0  0  0  0  0  0
  -28.8157  -23.0548   20.1610 C   0  0  0  0  0  0
  -28.0519  -24.5149   20.7338 C   0  0  0  0  0  0
  -30.4632  -19.7248   19.7260 N   0  0  0  0  0  0
  -27.8519  -21.3691   21.7664 N   0  0  0  0  0  0
  -29.6862  -16.1850   20.6373 N   0  0  0  0  0  0
  -30.7284  -18.3106   19.7426 O   0  0  0  0  0  0
  -31.4766  -12.8048   19.1974 H   0  0  0  0  0  0
  -30.4553  -11.6872   20.0537 H   0  0  0  0  0  0
  -29.8600  -11.7406   17.6083 H   0  0  0  0  0  0
  -29.6055  -13.4660   17.6892 H   0  0  0  0  0  0
  -27.9686  -11.2771   18.9979 H   0  0  0  0  0  0
  -27.4000  -12.4362   17.8254 H   0  0  0  0  0  0
  -27.5866  -14.2516   19.4046 H   0  0  0  0  0  0
  -28.7720  -12.3227   21.4592 H   0  0  0  0  0  0
  -28.3529  -13.9909   21.7622 H   0  0  0  0  0  0
  -25.2771   -9.5679   22.4760 H   0  0  0  0  0  0
  -24.0003   -7.4636   22.7475 H   0  0  0  0  0  0
  -21.0853   -8.8781   19.8952 H   0  0  0  0  0  0
  -22.3716  -10.9673   19.6165 H   0  0  0  0  0  0
  -21.2010   -7.6149   23.9714 H   0  0  0  0  0  0
  -21.1480   -6.0524   25.9076 H   0  0  0  0  0  0
  -22.0598   -2.7609   23.2850 H   0  0  0  0  0  0
  -22.4080  -11.9845   22.4823 H   0  0  0  0  0  0
  -21.1066  -13.1195   22.2651 H   0  0  0  0  0  0
  -24.6365  -15.8414   20.5177 H   0  0  0  0  0  0
  -26.2417  -15.6344   20.0384 H   0  0  0  0  0  0
  -26.7306  -32.5251   23.0975 H   0  0  0  0  0  0
  -25.0087  -33.9580   25.0292 H   0  0  0  0  0  0
  -22.7619  -31.2850   21.3747 H   0  0  0  0  0  0
  -23.3765  -35.9567   23.3289 H   0  0  0  0  0  0
  -24.3575  -36.8896   22.2060 H   0  0  0  0  0  0
  -23.7250  -37.6428   23.6699 H   0  0  0  0  0  0
  -26.1849  -31.4337   20.6270 H   0  0  0  0  0  0
  -26.8838  -30.7375   22.0510 H   0  0  0  0  0  0
  -28.1246  -28.7056   21.2988 H   0  0  0  0  0  0
  -25.9549  -25.8919   18.8724 H   0  0  0  0  0  0
  -24.0130  -27.3425   18.8927 H   0  0  0  0  0  0
  -23.8314  -30.5632   19.3990 H   0  0  0  0  0  0
  -22.8029  -29.2343   19.8375 H   0  0  0  0  0  0
  -25.1318  -36.1826   25.0802 H   0  0  0  0  0  0
  -21.0007  -28.3328   24.1340 H   0  0  0  0  0  0
  -20.5695  -26.2340   23.3624 H   0  0  0  0  0  0
  -21.6660  -26.7431   22.1193 H   0  0  0  0  0  0
  -19.6936  -25.6277   21.1256 H   0  0  0  0  0  0
  -19.6709  -27.3171   20.6727 H   0  0  0  0  0  0
  -17.4218  -26.6671   21.4023 H   0  0  0  0  0  0
  -18.0351  -26.0083   22.9020 H   0  0  0  0  0  0
  -19.7963  -30.7293   24.2213 H   0  0  0  0  0  0
  -17.5039  -31.6270   24.5162 H   0  0  0  0  0  0
  -15.5371  -30.2973   23.7691 H   0  0  0  0  0  0
  -15.8694  -28.0816   22.7088 H   0  0  0  0  0  0
  -24.5899  -30.7098   25.7726 H   0  0  0  0  0  0
  -24.8866  -32.2962   26.4727 H   0  0  0  0  0  0
  -25.7958  -30.9016   27.0250 H   0  0  0  0  0  0
  -26.3058  -29.6634   24.1366 H   0  0  0  0  0  0
  -27.3971  -29.7260   25.4989 H   0  0  0  0  0  0
  -27.8997  -30.4136   23.9758 H   0  0  0  0  0  0
  -27.2650  -33.3687   26.1976 H   0  0  0  0  0  0
  -28.3926  -32.6817   25.0380 H   0  0  0  0  0  0
  -28.0657  -31.8537   26.5523 H   0  0  0  0  0  0
  -28.2571  -38.0088   24.7508 H   0  0  0  0  0  0
  -28.1083  -36.2612   24.6294 H   0  0  0  0  0  0
  -27.2286  -37.1421   25.8866 H   0  0  0  0  0  0
  -20.9511  -29.8760   21.6749 H   0  0  0  0  0  0
  -26.0145  -38.2795   24.1417 H   0  0  0  0  0  0
  -28.0178  -18.4923   21.4848 H   0  0  0  0  0  0
  -28.4681  -23.8458   22.7806 H   0  0  0  0  0  0
  -28.0585  -25.5492   22.6639 H   0  0  0  0  0  0
  -29.6426  -24.9895   22.1469 H   0  0  0  0  0  0
  -25.9774  -24.9964   21.3230 H   0  0  0  0  0  0
  -26.3429  -23.3255   21.4576 H   0  0  0  0  0  0
  -26.1029  -23.9872   19.8682 H   0  0  0  0  0  0
  -28.5421  -22.9654   19.1097 H   0  0  0  0  0  0
  -29.8867  -23.2528   20.1349 H   0  0  0  0  0  0
  -27.8146  -20.4085   22.0910 H   0  0  0  0  0  0
  -28.7764  -15.9067   20.9658 H   0  0  0  0  0  0
  1 25  1  0  0  0
  1 30  2  0  0  0
  1 81  1  0  0  0
  2  3  1  0  0  0
  2 25  1  0  0  0
  2 83  1  0  0  0
  2 84  1  0  0  0
  3  4  1  0  0  0
  3 85  1  0  0  0
  3 86  1  0  0  0
  4  5  1  0  0  0
  4 87  1  0  0  0
  4 88  1  0  0  0
  5  6  1  0  0  0
  5 26  1  0  0  0
  5 89  1  0  0  0
  6 25  1  0  0  0
  6 90  1  0  0  0
  6 91  1  0  0  0
  7  8  2  0  0  0
  7 26  1  0  0  0
  7 29  1  0  0  0
  8  9  1  0  0  0
  8 22  1  0  0  0
  9 10  1  0  0  0
  9 27  2  0  0  0
 10 11  2  0  0  0
 10 15  1  0  0  0
 11 12  1  0  0  0
 11 92  1  0  0  0
 12 13  2  0  0  0
 12 93  1  0  0  0
 13 14  1  0  0  0
 13 31  1  0  0  0
 14 15  2  0  0  0
 14 94  1  0  0  0
 15 95  1  0  0  0
 16 17  2  0  0  0
 16 21  1  0  0  0
 16 31  1  0  0  0
 17 18  1  0  0  0
 17 96  1  0  0  0
 18 19  2  0  0  0
 18 97  1  0  0  0
 19 20  1  0  0  0
 19 24  1  0  0  0
 20 21  2  0  0  0
 20 98  1  0  0  0
 21 23  1  0  0  0
 22 28  1  0  0  0
 22 32  2  0  0  0
 26 27  1  0  0  0
 28 99  1  0  0  0
 28100  1  0  0  0
 29101  1  0  0  0
 29102  1  0  0  0
 33 34  1  0  0  0
 33 66  1  0  0  0
 33 70  2  0  0  0
 34 36  1  0  0  0
 34 59  1  0  0  0
 34103  1  0  0  0
 35 44  2  0  0  0
 35 45  1  0  0  0
 35 68  1  0  0  0
 36 56  1  0  0  0
 36104  1  0  0  0
 37 39  1  0  0  0
 37 47  1  0  0  0
 37 66  1  0  0  0
 37105  1  0  0  0
 38 43  2  0  0  0
 38 46  1  0  0  0
 38 47  1  0  0  0
 39 64  1  0  0  0
 39 67  2  0  0  0
 40 52  1  0  0  0
 40 53  2  0  0  0
 40 58  1  0  0  0
 41106  1  0  0  0
 41107  1  0  0  0
 41108  1  0  0  0
 41 48  1  0  0  0
 42 43  1  0  0  0
 42 66  1  0  0  0
 42109  1  0  0  0
 42110  1  0  0  0
 43 44  1  0  0  0
 44111  1  0  0  0
 45 46  2  0  0  0
 45112  1  0  0  0
 46113  1  0  0  0
 47114  1  0  0  0
 47115  1  0  0  0
 48 56  1  0  0  0
 48 65  1  0  0  0
 48116  1  0  0  0
 49 50  1  0  0  0
 49 53  1  0  0  0
 49 64  1  0  0  0
 49117  1  0  0  0
 50 51  1  0  0  0
 50118  1  0  0  0
 50119  1  0  0  0
 51 52  1  0  0  0
 51120  1  0  0  0
 51121  1  0  0  0
 52122  1  0  0  0
 52123  1  0  0  0
 53 54  1  0  0  0
 54 55  2  0  0  0
 54124  1  0  0  0
 55 57  1  0  0  0
 55125  1  0  0  0
 56 69  2  0  0  0
 57 58  2  0  0  0
 57126  1  0  0  0
 58127  1  0  0  0
 59 60  1  0  0  0
 59 61  1  0  0  0
 59 62  1  0  0  0
 60128  1  0  0  0
 60129  1  0  0  0
 60130  1  0  0  0
 61131  1  0  0  0
 61132  1  0  0  0
 61133  1  0  0  0
 62134  1  0  0  0
 62135  1  0  0  0
 62136  1  0  0  0
 63 65  1  0  0  0
 63137  1  0  0  0
 63138  1  0  0  0
 63139  1  0  0  0
 64140  1  0  0  0
 65141  1  0  0  0
 68 78  1  0  0  0
 71 72  1  0  0  0
 71 73  2  0  0  0
 71142  1  0  0  0
 72 74  1  0  0  0
 72 79  2  0  0  0
 73 81  1  0  0  0
 73 82  1  0  0  0
 74 77  1  0  0  0
 74 80  2  0  0  0
 75143  1  0  0  0
 75144  1  0  0  0
 75145  1  0  0  0
 75 78  1  0  0  0
 76 78  1  0  0  0
 76146  1  0  0  0
 76147  1  0  0  0
 76148  1  0  0  0
 77 78  1  0  0  0
 77149  1  0  0  0
 77150  1  0  0  0
 79 82  1  0  0  0
 80151  1  0  0  0
 81152  1  0  0  0
M  ISO  4   1 100  68 101  78 101  81 100
M  END
> <chiral flag>
0

> <version>
0

> <s_m_source_file>
/data/baiqing/PycharmProjects/Reinvent-master-3.2/result/LINK_invent/BTK/process_docking_weight1_custom_product_contain_oxygen_bond_distance_aromatic_linkinvent_7_9_3/rearranged_h_0158.sdf

> <i_m_source_file_index>
48

> <r_mmod_Potential_Energy-OPLS-2005>
635.160888671875

> <r_mmod_Stretch_Energy-OPLS-2005>
341.626708984375

> <r_mmod_Bend_Energy-OPLS-2005>
320.802551269531

> <r_mmod_Torsional_Energy-OPLS-2005>
230.255218505859

> <r_mmod_Improper_Torsional_Energy-OPLS-2005>
3.47517943382263

> <r_mmod_Van_der_Waal_Energy-OPLS-2005>
120.430862426758

> <r_mmod_Electrostatic_Energy-OPLS-2005>
-399.639038085938

> <r_mmod_Solvation_Energy-OPLS-2005>
-237.50959777832

> <b_mmod_Minimization_Converged-OPLS-2005>
0

> <r_mmod_RMS_Derivative-OPLS-2005>
0.663973927497864

$$$$
48
                    3D
 Structure written by MMmdl.
161170  0  0  1  0            999 V2000
  -30.5967  -14.6602   20.5011 C   0  0  0  0  0  0
  -30.4436  -12.4060   19.4517 C   0  0  0  0  0  0
  -29.5097  -12.5137   18.2244 C   0  0  0  0  0  0
  -28.0322  -12.3468   18.6354 C   0  0  0  0  0  0
  -27.6536  -13.2138   19.8655 C   0  0  2  0  0  0
  -28.6975  -13.0604   20.9942 C   0  0  0  0  0  0
  -25.2561  -13.8162   20.5677 C   0  0  0  0  0  0
  -24.1825  -13.0434   20.9182 C   0  0  0  0  0  0
  -24.6389  -11.6904   20.8730 C   0  0  0  0  0  0
  -23.9058  -10.4287   21.0401 C   0  0  0  0  0  0
  -24.3613   -9.4205   21.9181 C   0  0  0  0  0  0
  -23.6288   -8.2241   22.0755 C   0  0  0  0  0  0
  -22.4271   -8.0276   21.3543 C   0  0  0  0  0  0
  -21.9903   -9.0251   20.4648 C   0  0  0  0  0  0
  -22.7230  -10.2131   20.3056 C   0  0  0  0  0  0
  -21.6852   -6.0729   22.5275 C   0  0  0  0  0  0
  -21.4012   -6.5635   23.8210 C   0  0  0  0  0  0
  -21.3660   -5.6789   24.9172 C   0  0  0  0  0  0
  -21.6045   -4.3052   24.7223 C   0  0  0  0  0  0
  -21.8822   -3.8141   23.4345 C   0  0  0  0  0  0
  -21.9195   -4.6959   22.3399 C   0  0  0  0  0  0
  -22.7851  -13.5231   21.1852 C   0  0  0  0  0  0
  -22.1662   -4.2145   21.0976 F   0  0  0  0  0  0
  -21.5633   -3.4537   25.7737 F   0  0  0  0  0  0
  -30.0112  -13.4205   20.4352 N   0  0  0  0  0  0
  -26.2987  -12.9337   20.3319 N   0  0  0  0  0  0
  -25.9315  -11.6495   20.5747 N   0  0  0  0  0  0
  -22.0488  -12.8221   22.0405 N   0  0  0  0  0  0
  -25.4278  -15.1882   20.4081 N   0  0  0  0  0  0
  -31.7521  -14.8362   20.1002 O   0  0  0  0  0  0
  -21.6638   -6.8873   21.4239 O   0  0  0  0  0  0
  -22.3538  -14.5542   20.6707 O   0  0  0  0  0  0
  -24.6253  -31.8591   23.1998 C   0  0  0  0  0  0
  -25.9107  -32.4774   23.8330 C   0  0  1  0  0  0
  -27.2306  -27.3186   20.1289 C   0  0  0  0  0  0
  -25.5919  -33.8569   24.2265 N   0  0  0  0  0  0
  -23.4190  -30.4790   21.5434 C   0  0  2  0  0  0
  -24.8668  -28.9235   20.1183 C   0  0  0  0  0  0
  -22.7467  -29.4621   22.4957 C   0  0  0  0  0  0
  -18.0284  -28.1395   22.8488 C   0  0  0  0  0  0
  -24.1487  -36.7283   23.2634 C   0  0  0  0  0  0
  -25.9572  -30.7889   21.3698 C   0  0  0  0  0  0
  -26.0323  -29.4114   20.7225 C   0  0  0  0  0  0
  -27.2168  -28.6188   20.7196 C   0  0  0  0  0  0
  -26.0453  -26.8744   19.5068 C   0  0  0  0  0  0
  -24.8736  -27.6590   19.5044 C   0  0  0  0  0  0
  -23.6343  -29.8050   20.1616 C   0  0  0  0  0  0
  -25.4113  -36.3077   24.0324 C   0  0  1  0  0  0
  -20.5882  -28.3692   23.1297 C   0  0  2  0  0  0
  -20.6769  -26.9417   22.5420 C   0  0  0  0  0  0
  -19.5750  -26.6396   21.5216 C   0  0  0  0  0  0
  -18.1930  -26.7942   22.1623 C   0  0  0  0  0  0
  -19.1537  -28.8863   23.2887 C   0  0  0  0  0  0
  -18.9459  -30.1460   23.8908 C   0  0  0  0  0  0
  -17.6460  -30.6590   24.0574 C   0  0  0  0  0  0
  -25.9051  -34.9446   23.5103 C   0  0  0  0  0  0
  -16.5353  -29.9091   23.6330 C   0  0  0  0  0  0
  -16.7274  -28.6510   23.0352 C   0  0  0  0  0  0
  -26.4489  -31.6574   25.0695 C   0  0  0  0  0  0
  -25.3725  -31.3714   26.1426 C   0  0  0  0  0  0
  -27.0317  -30.2998   24.6130 C   0  0  0  0  0  0
  -27.6056  -32.4294   25.7474 C   0  0  0  0  0  0
  -27.5581  -37.1796   24.8461 C   0  0  0  0  0  0
  -21.4187  -29.3040   22.3692 N   0  0  0  0  0  0
  -26.4288  -37.3774   23.9412 N   0  0  0  0  0  0
  -24.6859  -31.0601   22.0949 N   0  0  0  0  0  0
  -23.4189  -28.8171   23.3049 O   0  0  0  0  0  0
  -28.3760  -26.5131   20.1035 O   0  0  0  0  0  0
  -26.5627  -34.8916   22.4673 O   0  0  0  0  0  0
  -23.5422  -32.1389   23.7334 O   0  0  0  0  0  0
  -30.2318  -19.3821   20.2909 C   0  0  0  0  0  0
  -30.6524  -17.9886   20.2428 C   0  0  0  0  0  0
  -28.9960  -19.5955   20.8637 C   0  0  0  0  0  0
  -29.7585  -17.0675   20.7619 C   0  0  0  0  0  0
  -29.0412  -24.2199   19.5509 C   0  0  0  0  0  0
  -28.3481  -25.1112   20.3074 C   0  0  0  0  0  0
  -28.1333  -20.7910   21.3037 C   0  0  0  0  0  0
  -29.1223  -22.6839   19.8524 C   0  0  0  0  0  0
  -27.6377  -24.6009   21.5417 C   0  0  0  0  0  0
  -27.2316  -23.0989   21.4366 C   0  0  0  0  0  0
  -31.3323  -24.4325   18.4487 C   0  0  0  0  0  0
  -29.8198  -24.6606   18.3196 C   0  0  0  0  0  0
  -28.2416  -22.1240   20.9092 N   0  0  0  0  0  0
  -31.9013  -17.6542   19.7162 N   0  0  0  0  0  0
  -29.7662  -15.6794   20.8990 N   0  0  0  0  0  0
  -27.2344  -20.4967   22.1002 O   0  0  0  0  0  0
  -28.3598  -17.9941   21.3161 S   0  0  0  0  0  0
  -31.4817  -12.5457   19.1465 H   0  0  0  0  0  0
  -30.3920  -11.4078   19.8890 H   0  0  0  0  0  0
  -29.7765  -11.7619   17.4802 H   0  0  0  0  0  0
  -29.6474  -13.4828   17.7418 H   0  0  0  0  0  0
  -27.8709  -11.2926   18.8632 H   0  0  0  0  0  0
  -27.3781  -12.5784   17.7946 H   0  0  0  0  0  0
  -27.6738  -14.2502   19.5291 H   0  0  0  0  0  0
  -28.7144  -12.0330   21.3608 H   0  0  0  0  0  0
  -28.4360  -13.6744   21.8572 H   0  0  0  0  0  0
  -25.2763   -9.5677   22.4750 H   0  0  0  0  0  0
  -24.0003   -7.4628   22.7469 H   0  0  0  0  0  0
  -21.0837   -8.8764   19.8946 H   0  0  0  0  0  0
  -22.3690  -10.9668   19.6159 H   0  0  0  0  0  0
  -21.2001   -7.6143   23.9708 H   0  0  0  0  0  0
  -21.1479   -6.0520   25.9074 H   0  0  0  0  0  0
  -22.0602   -2.7603   23.2848 H   0  0  0  0  0  0
  -22.4105  -11.9882   22.4789 H   0  0  0  0  0  0
  -21.1105  -13.1245   22.2606 H   0  0  0  0  0  0
  -24.6584  -15.8409   20.5118 H   0  0  0  0  0  0
  -26.2724  -15.6253   20.0623 H   0  0  0  0  0  0
  -26.7176  -32.5451   23.1076 H   0  0  0  0  0  0
  -25.0059  -33.9703   25.0411 H   0  0  0  0  0  0
  -22.7126  -31.2986   21.3964 H   0  0  0  0  0  0
  -23.3748  -35.9618   23.3308 H   0  0  0  0  0  0
  -24.3576  -36.8891   22.2045 H   0  0  0  0  0  0
  -23.7239  -37.6486   23.6650 H   0  0  0  0  0  0
  -26.0807  -31.5463   20.5943 H   0  0  0  0  0  0
  -26.8400  -30.8469   21.9944 H   0  0  0  0  0  0
  -28.1165  -28.9929   21.1873 H   0  0  0  0  0  0
  -26.0237  -25.9057   19.0284 H   0  0  0  0  0  0
  -23.9799  -27.2791   19.0292 H   0  0  0  0  0  0
  -23.7545  -30.5757   19.3996 H   0  0  0  0  0  0
  -22.7545  -29.2323   19.8632 H   0  0  0  0  0  0
  -25.1291  -36.1922   25.0815 H   0  0  0  0  0  0
  -20.9971  -28.3267   24.1420 H   0  0  0  0  0  0
  -20.5669  -26.2300   23.3613 H   0  0  0  0  0  0
  -21.6641  -26.7446   22.1224 H   0  0  0  0  0  0
  -19.6910  -25.6310   21.1234 H   0  0  0  0  0  0
  -19.6688  -27.3218   20.6752 H   0  0  0  0  0  0
  -17.4200  -26.6697   21.4024 H   0  0  0  0  0  0
  -18.0325  -26.0078   22.9012 H   0  0  0  0  0  0
  -19.7935  -30.7274   24.2284 H   0  0  0  0  0  0
  -17.5014  -31.6270   24.5179 H   0  0  0  0  0  0
  -15.5354  -30.2996   23.7645 H   0  0  0  0  0  0
  -15.8673  -28.0825   22.7071 H   0  0  0  0  0  0
  -24.5929  -30.7018   25.7772 H   0  0  0  0  0  0
  -24.8880  -32.2878   26.4808 H   0  0  0  0  0  0
  -25.8061  -30.8938   27.0223 H   0  0  0  0  0  0
  -26.2874  -29.6764   24.1160 H   0  0  0  0  0  0
  -27.4025  -29.7230   25.4612 H   0  0  0  0  0  0
  -27.8740  -30.4275   23.9328 H   0  0  0  0  0  0
  -27.2680  -33.3604   26.2038 H   0  0  0  0  0  0
  -28.3884  -32.6829   25.0314 H   0  0  0  0  0  0
  -28.0702  -31.8420   26.5402 H   0  0  0  0  0  0
  -28.2597  -38.0096   24.7520 H   0  0  0  0  0  0
  -28.1079  -36.2629   24.6270 H   0  0  0  0  0  0
  -27.2305  -37.1434   25.8866 H   0  0  0  0  0  0
  -20.9374  -29.8731   21.6870 H   0  0  0  0  0  0
  -26.0167  -38.2846   24.1423 H   0  0  0  0  0  0
  -30.8686  -20.1795   19.9382 H   0  0  0  0  0  0
  -30.1519  -22.4466   20.1186 H   0  0  0  0  0  0
  -28.9068  -22.1480   18.9268 H   0  0  0  0  0  0
  -26.7562  -25.2050   21.7577 H   0  0  0  0  0  0
  -28.3157  -24.7355   22.3853 H   0  0  0  0  0  0
  -26.3557  -23.0222   20.7905 H   0  0  0  0  0  0
  -26.8858  -22.8203   22.4329 H   0  0  0  0  0  0
  -31.8561  -24.8269   17.5778 H   0  0  0  0  0  0
  -31.5784  -23.3730   18.5200 H   0  0  0  0  0  0
  -31.7342  -24.9333   19.3304 H   0  0  0  0  0  0
  -29.6345  -25.7161   18.1184 H   0  0  0  0  0  0
  -29.4360  -24.1197   17.4539 H   0  0  0  0  0  0
  -32.2968  -18.2333   18.9834 H   0  0  0  0  0  0
  -32.0789  -16.6547   19.5967 H   0  0  0  0  0  0
  -28.8998  -15.3149   21.2623 H   0  0  0  0  0  0
  1 25  1  0  0  0
  1 30  2  0  0  0
  1 85  1  0  0  0
  2  3  1  0  0  0
  2 25  1  0  0  0
  2 88  1  0  0  0
  2 89  1  0  0  0
  3  4  1  0  0  0
  3 90  1  0  0  0
  3 91  1  0  0  0
  4  5  1  0  0  0
  4 92  1  0  0  0
  4 93  1  0  0  0
  5  6  1  0  0  0
  5 26  1  0  0  0
  5 94  1  0  0  0
  6 25  1  0  0  0
  6 95  1  0  0  0
  6 96  1  0  0  0
  7  8  2  0  0  0
  7 26  1  0  0  0
  7 29  1  0  0  0
  8  9  1  0  0  0
  8 22  1  0  0  0
  9 10  1  0  0  0
  9 27  2  0  0  0
 10 11  2  0  0  0
 10 15  1  0  0  0
 11 12  1  0  0  0
 11 97  1  0  0  0
 12 13  2  0  0  0
 12 98  1  0  0  0
 13 14  1  0  0  0
 13 31  1  0  0  0
 14 15  2  0  0  0
 14 99  1  0  0  0
 15100  1  0  0  0
 16 17  2  0  0  0
 16 21  1  0  0  0
 16 31  1  0  0  0
 17 18  1  0  0  0
 17101  1  0  0  0
 18 19  2  0  0  0
 18102  1  0  0  0
 19 20  1  0  0  0
 19 24  1  0  0  0
 20 21  2  0  0  0
 20103  1  0  0  0
 21 23  1  0  0  0
 22 28  1  0  0  0
 22 32  2  0  0  0
 26 27  1  0  0  0
 28104  1  0  0  0
 28105  1  0  0  0
 29106  1  0  0  0
 29107  1  0  0  0
 33 34  1  0  0  0
 33 66  1  0  0  0
 33 70  2  0  0  0
 34 36  1  0  0  0
 34 59  1  0  0  0
 34108  1  0  0  0
 35 44  2  0  0  0
 35 45  1  0  0  0
 35 68  1  0  0  0
 36 56  1  0  0  0
 36109  1  0  0  0
 37 39  1  0  0  0
 37 47  1  0  0  0
 37 66  1  0  0  0
 37110  1  0  0  0
 38 43  2  0  0  0
 38 46  1  0  0  0
 38 47  1  0  0  0
 39 64  1  0  0  0
 39 67  2  0  0  0
 40 52  1  0  0  0
 40 53  2  0  0  0
 40 58  1  0  0  0
 41111  1  0  0  0
 41112  1  0  0  0
 41113  1  0  0  0
 41 48  1  0  0  0
 42 43  1  0  0  0
 42 66  1  0  0  0
 42114  1  0  0  0
 42115  1  0  0  0
 43 44  1  0  0  0
 44116  1  0  0  0
 45 46  2  0  0  0
 45117  1  0  0  0
 46118  1  0  0  0
 47119  1  0  0  0
 47120  1  0  0  0
 48 56  1  0  0  0
 48 65  1  0  0  0
 48121  1  0  0  0
 49 50  1  0  0  0
 49 53  1  0  0  0
 49 64  1  0  0  0
 49122  1  0  0  0
 50 51  1  0  0  0
 50123  1  0  0  0
 50124  1  0  0  0
 51 52  1  0  0  0
 51125  1  0  0  0
 51126  1  0  0  0
 52127  1  0  0  0
 52128  1  0  0  0
 53 54  1  0  0  0
 54 55  2  0  0  0
 54129  1  0  0  0
 55 57  1  0  0  0
 55130  1  0  0  0
 56 69  2  0  0  0
 57 58  2  0  0  0
 57131  1  0  0  0
 58132  1  0  0  0
 59 60  1  0  0  0
 59 61  1  0  0  0
 59 62  1  0  0  0
 60133  1  0  0  0
 60134  1  0  0  0
 60135  1  0  0  0
 61136  1  0  0  0
 61137  1  0  0  0
 61138  1  0  0  0
 62139  1  0  0  0
 62140  1  0  0  0
 62141  1  0  0  0
 63 65  1  0  0  0
 63142  1  0  0  0
 63143  1  0  0  0
 63144  1  0  0  0
 64145  1  0  0  0
 65146  1  0  0  0
 68 76  1  0  0  0
 71 72  1  0  0  0
 71 73  2  0  0  0
 71147  1  0  0  0
 72 74  2  0  0  0
 72 84  1  0  0  0
 73 77  1  0  0  0
 73 87  1  0  0  0
 74 85  1  0  0  0
 74 87  1  0  0  0
 75 76  2  0  0  0
 75 78  1  0  0  0
 75 82  1  0  0  0
 76 79  1  0  0  0
 77 83  1  0  0  0
 77 86  2  0  0  0
 78 83  1  0  0  0
 78148  1  0  0  0
 78149  1  0  0  0
 79 80  1  0  0  0
 79150  1  0  0  0
 79151  1  0  0  0
 80 83  1  0  0  0
 80152  1  0  0  0
 80153  1  0  0  0
 81 82  1  0  0  0
 81154  1  0  0  0
 81155  1  0  0  0
 81156  1  0  0  0
 82157  1  0  0  0
 82158  1  0  0  0
 84159  1  0  0  0
 84160  1  0  0  0
 85161  1  0  0  0
M  ISO  4   1 100  68 101  76 101  85 100
M  END
> <chiral flag>
0

> <version>
0

> <s_m_source_file>
/data/baiqing/PycharmProjects/Reinvent-master-3.2/result/LINK_invent/BTK/process_docking_weight1_custom_product_contain_oxygen_bond_distance_aromatic_linkinvent_7_9_3/rearranged_h_0158.sdf

> <i_m_source_file_index>
49

> <r_mmod_Potential_Energy-OPLS-2005>
-8.06517028808594

> <r_mmod_Stretch_Energy-OPLS-2005>
81.9653778076172

> <r_mmod_Bend_Energy-OPLS-2005>
181.245361328125

> <r_mmod_Torsional_Energy-OPLS-2005>
263.124877929688

> <r_mmod_Improper_Torsional_Energy-OPLS-2005>
7.67879199981689

> <r_mmod_Van_der_Waal_Energy-OPLS-2005>
136.777008056641

> <r_mmod_Electrostatic_Energy-OPLS-2005>
-503.257873535156

> <r_mmod_Solvation_Energy-OPLS-2005>
-223.791961669922

> <b_mmod_Minimization_Converged-OPLS-2005>
0

> <r_mmod_RMS_Derivative-OPLS-2005>
1.09906852245331

$$$$
49
                    3D
 Structure written by MMmdl.
152160  0  0  1  0            999 V2000
  -30.6292  -14.7913   20.4618 C   0  0  0  0  0  0
  -30.4280  -12.4946   19.4701 C   0  0  0  0  0  0
  -29.5044  -12.4974   18.2334 C   0  0  0  0  0  0
  -28.0352  -12.3107   18.6576 C   0  0  0  0  0  0
  -27.6305  -13.2341   19.8380 C   0  0  2  0  0  0
  -28.6789  -13.2189   20.9714 C   0  0  0  0  0  0
  -25.2461  -13.8195   20.5704 C   0  0  0  0  0  0
  -24.1772  -13.0430   20.9247 C   0  0  0  0  0  0
  -24.6374  -11.6917   20.8777 C   0  0  0  0  0  0
  -23.9068  -10.4287   21.0420 C   0  0  0  0  0  0
  -24.3619   -9.4200   21.9194 C   0  0  0  0  0  0
  -23.6290   -8.2235   22.0754 C   0  0  0  0  0  0
  -22.4270   -8.0277   21.3545 C   0  0  0  0  0  0
  -21.9914   -9.0251   20.4647 C   0  0  0  0  0  0
  -22.7243  -10.2128   20.3067 C   0  0  0  0  0  0
  -21.6849   -6.0733   22.5279 C   0  0  0  0  0  0
  -21.4011   -6.5639   23.8214 C   0  0  0  0  0  0
  -21.3661   -5.6791   24.9175 C   0  0  0  0  0  0
  -21.6042   -4.3053   24.7226 C   0  0  0  0  0  0
  -21.8819   -3.8148   23.4348 C   0  0  0  0  0  0
  -21.9191   -4.6962   22.3402 C   0  0  0  0  0  0
  -22.7798  -13.5214   21.1896 C   0  0  0  0  0  0
  -22.1659   -4.2152   21.0979 F   0  0  0  0  0  0
  -21.5633   -3.4536   25.7738 F   0  0  0  0  0  0
  -29.9658  -13.5820   20.3680 N   0  0  0  0  0  0
  -26.2876  -12.9405   20.3248 N   0  0  0  0  0  0
  -25.9301  -11.6549   20.5770 N   0  0  0  0  0  0
  -22.0435  -12.8200   22.0442 N   0  0  0  0  0  0
  -25.4110  -15.1924   20.4103 N   0  0  0  0  0  0
  -31.8351  -14.8284   20.1965 O   0  0  0  0  0  0
  -21.6637   -6.8871   21.4237 O   0  0  0  0  0  0
  -22.3495  -14.5521   20.6735 O   0  0  0  0  0  0
  -24.6332  -31.8526   23.1959 C   0  0  0  0  0  0
  -25.9152  -32.4737   23.8309 C   0  0  1  0  0  0
  -27.2221  -27.2448   20.1429 C   0  0  0  0  0  0
  -25.5943  -33.8540   24.2233 N   0  0  0  0  0  0
  -23.4308  -30.4731   21.5396 C   0  0  2  0  0  0
  -24.8803  -28.9123   20.1135 C   0  0  0  0  0  0
  -22.7509  -29.4590   22.4911 C   0  0  0  0  0  0
  -18.0293  -28.1385   22.8476 C   0  0  0  0  0  0
  -24.1492  -36.7276   23.2639 C   0  0  0  0  0  0
  -25.9774  -30.7614   21.3760 C   0  0  0  0  0  0
  -26.0527  -29.3808   20.7211 C   0  0  0  0  0  0
  -27.2300  -28.5623   20.7182 C   0  0  0  0  0  0
  -26.0290  -26.8429   19.5090 C   0  0  0  0  0  0
  -24.8745  -27.6522   19.4936 C   0  0  0  0  0  0
  -23.6506  -29.8011   20.1583 C   0  0  0  0  0  0
  -25.4118  -36.3060   24.0324 C   0  0  1  0  0  0
  -20.5893  -28.3701   23.1265 C   0  0  2  0  0  0
  -20.6783  -26.9418   22.5412 C   0  0  0  0  0  0
  -19.5756  -26.6380   21.5216 C   0  0  0  0  0  0
  -18.1933  -26.7924   22.1621 C   0  0  0  0  0  0
  -19.1545  -28.8860   23.2862 C   0  0  0  0  0  0
  -18.9466  -30.1454   23.8889 C   0  0  0  0  0  0
  -17.6467  -30.6587   24.0556 C   0  0  0  0  0  0
  -25.9064  -34.9432   23.5082 C   0  0  0  0  0  0
  -16.5359  -29.9081   23.6336 C   0  0  0  0  0  0
  -16.7279  -28.6498   23.0357 C   0  0  0  0  0  0
  -26.4516  -31.6565   25.0703 C   0  0  0  0  0  0
  -25.3741  -31.3719   26.1424 C   0  0  0  0  0  0
  -27.0366  -30.2978   24.6205 C   0  0  0  0  0  0
  -27.6057  -32.4318   25.7486 C   0  0  0  0  0  0
  -27.5577  -37.1792   24.8462 C   0  0  0  0  0  0
  -21.4214  -29.3040   22.3652 N   0  0  0  0  0  0
  -26.4286  -37.3761   23.9411 N   0  0  0  0  0  0
  -24.6997  -31.0476   22.0936 N   0  0  0  0  0  0
  -23.4201  -28.8140   23.3024 O   0  0  0  0  0  0
  -28.3057  -26.3342   20.1496 O   0  0  0  0  0  0
  -26.5636  -34.8910   22.4652 O   0  0  0  0  0  0
  -23.5484  -32.1357   23.7252 O   0  0  0  0  0  0
  -29.5634  -19.9620   21.3067 C   0  0  0  0  0  0
  -28.9316  -20.3781   19.2277 C   0  0  0  0  0  0
  -29.0874  -21.0240   20.4299 C   0  0  0  0  0  0
  -29.7044  -18.7534   20.6076 C   0  0  0  0  0  0
  -30.3556  -17.4027   20.8951 C   0  0  0  0  0  0
  -28.6027  -23.6226   20.0637 C   0  0  0  0  0  0
  -32.4014  -16.7163   22.3246 C   0  0  0  0  0  0
  -28.1096  -24.9793   20.7954 C   0  0  0  0  0  0
  -28.7963  -22.4482   20.7930 N   0  0  0  0  0  0
  -29.8824  -16.1060   20.5892 N   0  0  0  0  0  0
  -31.5004  -17.6163   21.5891 N   0  3  0  0  0  0
  -28.7965  -23.6462   18.8447 O   0  0  0  0  0  0
  -29.2847  -19.0272   19.3226 O   0  0  0  0  0  0
  -31.4658  -12.6226   19.1575 H   0  0  0  0  0  0
  -30.3883  -11.5323   19.9831 H   0  0  0  0  0  0
  -29.7966  -11.7047   17.5430 H   0  0  0  0  0  0
  -29.6156  -13.4359   17.6878 H   0  0  0  0  0  0
  -27.9123  -11.2666   18.9500 H   0  0  0  0  0  0
  -27.3706  -12.4666   17.8067 H   0  0  0  0  0  0
  -27.6057  -14.2436   19.4269 H   0  0  0  0  0  0
  -28.7343  -12.2346   21.4394 H   0  0  0  0  0  0
  -28.4049  -13.9213   21.7609 H   0  0  0  0  0  0
  -25.2761   -9.5674   22.4777 H   0  0  0  0  0  0
  -23.9998   -7.4624   22.7475 H   0  0  0  0  0  0
  -21.0845   -8.8771   19.8952 H   0  0  0  0  0  0
  -22.3704  -10.9669   19.6181 H   0  0  0  0  0  0
  -21.2000   -7.6146   23.9716 H   0  0  0  0  0  0
  -21.1484   -6.0523   25.9077 H   0  0  0  0  0  0
  -22.0597   -2.7610   23.2850 H   0  0  0  0  0  0
  -22.4044  -11.9859   22.4835 H   0  0  0  0  0  0
  -21.1049  -13.1222   22.2639 H   0  0  0  0  0  0
  -24.6294  -15.8320   20.5090 H   0  0  0  0  0  0
  -26.2246  -15.6304   20.0010 H   0  0  0  0  0  0
  -26.7213  -32.5384   23.1046 H   0  0  0  0  0  0
  -25.0090  -33.9664   25.0380 H   0  0  0  0  0  0
  -22.7281  -31.2956   21.3894 H   0  0  0  0  0  0
  -23.3757  -35.9604   23.3293 H   0  0  0  0  0  0
  -24.3579  -36.8917   22.2054 H   0  0  0  0  0  0
  -23.7244  -37.6470   23.6678 H   0  0  0  0  0  0
  -26.1165  -31.5211   20.6055 H   0  0  0  0  0  0
  -26.8542  -30.8131   22.0102 H   0  0  0  0  0  0
  -28.1301  -28.9193   21.1983 H   0  0  0  0  0  0
  -25.9837  -25.8737   19.0325 H   0  0  0  0  0  0
  -23.9784  -27.2878   19.0110 H   0  0  0  0  0  0
  -23.7742  -30.5741   19.3989 H   0  0  0  0  0  0
  -22.7691  -29.2334   19.8548 H   0  0  0  0  0  0
  -25.1304  -36.1898   25.0815 H   0  0  0  0  0  0
  -20.9977  -28.3290   24.1388 H   0  0  0  0  0  0
  -20.5691  -26.2314   23.3619 H   0  0  0  0  0  0
  -21.6649  -26.7447   22.1198 H   0  0  0  0  0  0
  -19.6929  -25.6290   21.1244 H   0  0  0  0  0  0
  -19.6698  -27.3191   20.6743 H   0  0  0  0  0  0
  -17.4210  -26.6673   21.4019 H   0  0  0  0  0  0
  -18.0330  -26.0063   22.9012 H   0  0  0  0  0  0
  -19.7943  -30.7264   24.2263 H   0  0  0  0  0  0
  -17.5024  -31.6267   24.5151 H   0  0  0  0  0  0
  -15.5358  -30.2983   23.7663 H   0  0  0  0  0  0
  -15.8673  -28.0812   22.7092 H   0  0  0  0  0  0
  -24.5903  -30.7088   25.7744 H   0  0  0  0  0  0
  -24.8952  -32.2892   26.4859 H   0  0  0  0  0  0
  -25.8053  -30.8876   27.0195 H   0  0  0  0  0  0
  -26.2947  -29.6712   24.1236 H   0  0  0  0  0  0
  -27.4045  -29.7255   25.4732 H   0  0  0  0  0  0
  -27.8831  -30.4234   23.9448 H   0  0  0  0  0  0
  -27.2648  -33.3623   26.2040 H   0  0  0  0  0  0
  -28.3885  -32.6877   25.0330 H   0  0  0  0  0  0
  -28.0710  -31.8464   26.5429 H   0  0  0  0  0  0
  -28.2585  -38.0095   24.7515 H   0  0  0  0  0  0
  -28.1083  -36.2628   24.6285 H   0  0  0  0  0  0
  -27.2292  -37.1436   25.8862 H   0  0  0  0  0  0
  -20.9418  -29.8741   21.6824 H   0  0  0  0  0  0
  -26.0167  -38.2833   24.1413 H   0  0  0  0  0  0
  -29.8279  -20.0774   22.3482 H   0  0  0  0  0  0
  -28.5939  -20.6970   18.2503 H   0  0  0  0  0  0
  -32.9357  -17.2796   23.0894 H   0  0  0  0  0  0
  -33.1517  -16.2781   21.6677 H   0  0  0  0  0  0
  -31.8483  -15.9235   22.8272 H   0  0  0  0  0  0
  -28.6238  -25.0253   21.7559 H   0  0  0  0  0  0
  -27.0583  -24.8378   21.0490 H   0  0  0  0  0  0
  -28.7098  -22.6048   21.7892 H   0  0  0  0  0  0
  -28.8847  -16.1132   20.4765 H   0  0  0  0  0  0
  -31.7469  -18.5921   21.6824 H   0  0  0  0  0  0
  1 25  1  0  0  0
  1 30  2  0  0  0
  1 80  1  0  0  0
  2  3  1  0  0  0
  2 25  1  0  0  0
  2 84  1  0  0  0
  2 85  1  0  0  0
  3  4  1  0  0  0
  3 86  1  0  0  0
  3 87  1  0  0  0
  4  5  1  0  0  0
  4 88  1  0  0  0
  4 89  1  0  0  0
  5  6  1  0  0  0
  5 26  1  0  0  0
  5 90  1  0  0  0
  6 25  1  0  0  0
  6 91  1  0  0  0
  6 92  1  0  0  0
  7  8  2  0  0  0
  7 26  1  0  0  0
  7 29  1  0  0  0
  8  9  1  0  0  0
  8 22  1  0  0  0
  9 10  1  0  0  0
  9 27  2  0  0  0
 10 11  2  0  0  0
 10 15  1  0  0  0
 11 12  1  0  0  0
 11 93  1  0  0  0
 12 13  2  0  0  0
 12 94  1  0  0  0
 13 14  1  0  0  0
 13 31  1  0  0  0
 14 15  2  0  0  0
 14 95  1  0  0  0
 15 96  1  0  0  0
 16 17  2  0  0  0
 16 21  1  0  0  0
 16 31  1  0  0  0
 17 18  1  0  0  0
 17 97  1  0  0  0
 18 19  2  0  0  0
 18 98  1  0  0  0
 19 20  1  0  0  0
 19 24  1  0  0  0
 20 21  2  0  0  0
 20 99  1  0  0  0
 21 23  1  0  0  0
 22 28  1  0  0  0
 22 32  2  0  0  0
 26 27  1  0  0  0
 28100  1  0  0  0
 28101  1  0  0  0
 29102  1  0  0  0
 29103  1  0  0  0
 33 34  1  0  0  0
 33 66  1  0  0  0
 33 70  2  0  0  0
 34 36  1  0  0  0
 34 59  1  0  0  0
 34104  1  0  0  0
 35 44  2  0  0  0
 35 45  1  0  0  0
 35 68  1  0  0  0
 36 56  1  0  0  0
 36105  1  0  0  0
 37 39  1  0  0  0
 37 47  1  0  0  0
 37 66  1  0  0  0
 37106  1  0  0  0
 38 43  2  0  0  0
 38 46  1  0  0  0
 38 47  1  0  0  0
 39 64  1  0  0  0
 39 67  2  0  0  0
 40 52  1  0  0  0
 40 53  2  0  0  0
 40 58  1  0  0  0
 41107  1  0  0  0
 41108  1  0  0  0
 41109  1  0  0  0
 41 48  1  0  0  0
 42 43  1  0  0  0
 42 66  1  0  0  0
 42110  1  0  0  0
 42111  1  0  0  0
 43 44  1  0  0  0
 44112  1  0  0  0
 45 46  2  0  0  0
 45113  1  0  0  0
 46114  1  0  0  0
 47115  1  0  0  0
 47116  1  0  0  0
 48 56  1  0  0  0
 48 65  1  0  0  0
 48117  1  0  0  0
 49 50  1  0  0  0
 49 53  1  0  0  0
 49 64  1  0  0  0
 49118  1  0  0  0
 50 51  1  0  0  0
 50119  1  0  0  0
 50120  1  0  0  0
 51 52  1  0  0  0
 51121  1  0  0  0
 51122  1  0  0  0
 52123  1  0  0  0
 52124  1  0  0  0
 53 54  1  0  0  0
 54 55  2  0  0  0
 54125  1  0  0  0
 55 57  1  0  0  0
 55126  1  0  0  0
 56 69  2  0  0  0
 57 58  2  0  0  0
 57127  1  0  0  0
 58128  1  0  0  0
 59 60  1  0  0  0
 59 61  1  0  0  0
 59 62  1  0  0  0
 60129  1  0  0  0
 60130  1  0  0  0
 60131  1  0  0  0
 61132  1  0  0  0
 61133  1  0  0  0
 61134  1  0  0  0
 62135  1  0  0  0
 62136  1  0  0  0
 62137  1  0  0  0
 63 65  1  0  0  0
 63138  1  0  0  0
 63139  1  0  0  0
 63140  1  0  0  0
 64141  1  0  0  0
 65142  1  0  0  0
 68 78  1  0  0  0
 71 73  1  0  0  0
 71 74  2  0  0  0
 71143  1  0  0  0
 72 73  2  0  0  0
 72 83  1  0  0  0
 72144  1  0  0  0
 73 79  1  0  0  0
 74 75  1  0  0  0
 74 83  1  0  0  0
 75 80  1  0  0  0
 75 81  2  0  0  0
 76 78  1  0  0  0
 76 79  1  0  0  0
 76 82  2  0  0  0
 77 81  1  0  0  0
 77145  1  0  0  0
 77146  1  0  0  0
 77147  1  0  0  0
 78148  1  0  0  0
 78149  1  0  0  0
 79150  1  0  0  0
 80151  1  0  0  0
 81152  1  0  0  0
M  CHG  1  81   1
M  ISO  4   1 100  68 101  78 101  80 100
M  END
> <chiral flag>
0

> <version>
0

> <s_m_source_file>
/data/baiqing/PycharmProjects/Reinvent-master-3.2/result/LINK_invent/BTK/process_docking_weight1_custom_product_contain_oxygen_bond_distance_aromatic_linkinvent_7_9_3/rearranged_h_0158.sdf

> <i_m_source_file_index>
50

> <r_mmod_Potential_Energy-OPLS-2005>
65.2483901977539

> <r_mmod_Stretch_Energy-OPLS-2005>
137.905914306641

> <r_mmod_Bend_Energy-OPLS-2005>
210.788314819336

> <r_mmod_Torsional_Energy-OPLS-2005>
262.095336914062

> <r_mmod_Improper_Torsional_Energy-OPLS-2005>
7.41244506835938

> <r_mmod_Van_der_Waal_Energy-OPLS-2005>
118.933403015137

> <r_mmod_Electrostatic_Energy-OPLS-2005>
-294.9658203125

> <r_mmod_Solvation_Energy-OPLS-2005>
-480.860565185547

> <b_mmod_Minimization_Converged-OPLS-2005>
0

> <r_mmod_RMS_Derivative-OPLS-2005>
1.25283741950989

$$$$
50
                    3D
 Structure written by MMmdl.
157166  0  0  1  0            999 V2000
  -30.6136  -14.7315   20.5069 C   0  0  0  0  0  0
  -30.4316  -12.4496   19.4816 C   0  0  0  0  0  0
  -29.5163  -12.5301   18.2388 C   0  0  0  0  0  0
  -28.0393  -12.3494   18.6414 C   0  0  0  0  0  0
  -27.6472  -13.2308   19.8607 C   0  0  2  0  0  0
  -28.6860  -13.1277   20.9973 C   0  0  0  0  0  0
  -25.2523  -13.8194   20.5713 C   0  0  0  0  0  0
  -24.1813  -13.0437   20.9195 C   0  0  0  0  0  0
  -24.6414  -11.6925   20.8735 C   0  0  0  0  0  0
  -23.9089  -10.4291   21.0412 C   0  0  0  0  0  0
  -24.3649   -9.4206   21.9186 C   0  0  0  0  0  0
  -23.6328   -8.2235   22.0754 C   0  0  0  0  0  0
  -22.4299   -8.0272   21.3559 C   0  0  0  0  0  0
  -21.9945   -9.0241   20.4657 C   0  0  0  0  0  0
  -22.7269  -10.2121   20.3068 C   0  0  0  0  0  0
  -21.6847   -6.0749   22.5309 C   0  0  0  0  0  0
  -21.4007   -6.5660   23.8240 C   0  0  0  0  0  0
  -21.3656   -5.6808   24.9196 C   0  0  0  0  0  0
  -21.6046   -4.3072   24.7240 C   0  0  0  0  0  0
  -21.8805   -3.8165   23.4362 C   0  0  0  0  0  0
  -21.9195   -4.6981   22.3427 C   0  0  0  0  0  0
  -22.7828  -13.5216   21.1879 C   0  0  0  0  0  0
  -22.1641   -4.2172   21.0998 F   0  0  0  0  0  0
  -21.5654   -3.4553   25.7740 F   0  0  0  0  0  0
  -29.9925  -13.4975   20.4359 N   0  0  0  0  0  0
  -26.2952  -12.9414   20.3314 N   0  0  0  0  0  0
  -25.9351  -11.6557   20.5752 N   0  0  0  0  0  0
  -22.0467  -12.8192   22.0422 N   0  0  0  0  0  0
  -25.4206  -15.1928   20.4163 N   0  0  0  0  0  0
  -31.7528  -14.8555   20.0433 O   0  0  0  0  0  0
  -21.6660   -6.8883   21.4261 O   0  0  0  0  0  0
  -22.3489  -14.5515   20.6723 O   0  0  0  0  0  0
  -24.6353  -31.8558   23.2004 C   0  0  0  0  0  0
  -25.9172  -32.4758   23.8343 C   0  0  1  0  0  0
  -27.2095  -27.2482   20.1252 C   0  0  0  0  0  0
  -25.5977  -33.8560   24.2268 N   0  0  0  0  0  0
  -23.4301  -30.4808   21.5448 C   0  0  2  0  0  0
  -24.8737  -28.9315   20.1088 C   0  0  0  0  0  0
  -22.7500  -29.4630   22.4925 C   0  0  0  0  0  0
  -18.0296  -28.1404   22.8474 C   0  0  0  0  0  0
  -24.1482  -36.7269   23.2612 C   0  0  0  0  0  0
  -25.9788  -30.7621   21.3838 C   0  0  0  0  0  0
  -26.0476  -29.3864   20.7221 C   0  0  0  0  0  0
  -27.2194  -28.5581   20.7176 C   0  0  0  0  0  0
  -26.0102  -26.8740   19.4733 C   0  0  0  0  0  0
  -24.8604  -27.6836   19.4741 C   0  0  0  0  0  0
  -23.6461  -29.8195   20.1606 C   0  0  0  0  0  0
  -25.4096  -36.3076   24.0332 C   0  0  1  0  0  0
  -20.5900  -28.3731   23.1263 C   0  0  2  0  0  0
  -20.6797  -26.9442   22.5413 C   0  0  0  0  0  0
  -19.5772  -26.6398   21.5215 C   0  0  0  0  0  0
  -18.1942  -26.7952   22.1604 C   0  0  0  0  0  0
  -19.1544  -28.8879   23.2873 C   0  0  0  0  0  0
  -18.9466  -30.1466   23.8912 C   0  0  0  0  0  0
  -17.6462  -30.6609   24.0563 C   0  0  0  0  0  0
  -25.9070  -34.9450   23.5103 C   0  0  0  0  0  0
  -16.5357  -29.9094   23.6346 C   0  0  0  0  0  0
  -16.7271  -28.6508   23.0380 C   0  0  0  0  0  0
  -26.4515  -31.6586   25.0741 C   0  0  0  0  0  0
  -25.3722  -31.3755   26.1457 C   0  0  0  0  0  0
  -27.0338  -30.2984   24.6268 C   0  0  0  0  0  0
  -27.6088  -32.4306   25.7507 C   0  0  0  0  0  0
  -27.5631  -37.1711   24.8393 C   0  0  0  0  0  0
  -21.4213  -29.3081   22.3644 N   0  0  0  0  0  0
  -26.4224  -37.3834   23.9511 N   0  0  0  0  0  0
  -24.7009  -31.0512   22.0987 N   0  0  0  0  0  0
  -23.4183  -28.8170   23.3048 O   0  0  0  0  0  0
  -28.2859  -26.3235   20.2000 O   0  0  0  0  0  0
  -26.5645  -34.8936   22.4677 O   0  0  0  0  0  0
  -23.5500  -32.1388   23.7296 O   0  0  0  0  0  0
  -29.2404  -19.8120   20.1162 C   0  0  0  0  0  0
  -29.8485  -21.1044   22.0704 C   0  0  0  0  0  0
  -29.6753  -18.5700   20.7428 C   0  0  0  0  0  0
  -30.1325  -18.6443   22.0758 C   0  0  0  0  0  0
  -29.3043  -21.1145   20.7648 C   0  0  0  0  0  0
  -30.2482  -19.9088   22.7150 C   0  0  0  0  0  0
  -28.9796  -23.7276   20.4946 C   0  0  0  0  0  0
  -30.4756  -17.3383   22.7974 C   0  0  0  0  0  0
  -29.6924  -17.1378   20.0449 C   0  0  0  0  0  0
  -29.6459  -16.1296   22.2955 C   0  0  0  0  0  0
  -27.9964  -24.8628   19.9300 C   0  0  0  0  0  0
  -29.8721  -15.8593   20.8690 N   0  0  0  0  0  0
  -30.7529  -20.0044   24.0108 N   0  0  0  0  0  0
  -28.7651  -22.3827   20.1881 N   0  0  0  0  0  0
  -29.9350  -24.0853   21.1907 O   0  0  0  0  0  0
  -31.4760  -12.5620   19.1876 H   0  0  0  0  0  0
  -30.3628  -11.4608   19.9404 H   0  0  0  0  0  0
  -29.8034  -11.7750   17.5047 H   0  0  0  0  0  0
  -29.6479  -13.4981   17.7527 H   0  0  0  0  0  0
  -27.8926  -11.2961   18.8827 H   0  0  0  0  0  0
  -27.3854  -12.5656   17.7945 H   0  0  0  0  0  0
  -27.6505  -14.2634   19.5116 H   0  0  0  0  0  0
  -28.7156  -12.1145   21.4003 H   0  0  0  0  0  0
  -28.4034  -13.7690   21.8307 H   0  0  0  0  0  0
  -25.2796   -9.5700   22.4758 H   0  0  0  0  0  0
  -24.0061   -7.4631   22.7466 H   0  0  0  0  0  0
  -21.0882   -8.8764   19.8947 H   0  0  0  0  0  0
  -22.3736  -10.9669   19.6183 H   0  0  0  0  0  0
  -21.1963   -7.6162   23.9757 H   0  0  0  0  0  0
  -21.1502   -6.0532   25.9103 H   0  0  0  0  0  0
  -22.0583   -2.7631   23.2871 H   0  0  0  0  0  0
  -22.4095  -11.9868   22.4834 H   0  0  0  0  0  0
  -21.1071  -13.1219   22.2603 H   0  0  0  0  0  0
  -24.6614  -15.8521   20.5495 H   0  0  0  0  0  0
  -26.2857  -15.6390   20.1364 H   0  0  0  0  0  0
  -26.7244  -32.5378   23.1086 H   0  0  0  0  0  0
  -25.0122  -33.9692   25.0416 H   0  0  0  0  0  0
  -22.7289  -31.3078   21.4015 H   0  0  0  0  0  0
  -23.3852  -35.9474   23.3038 H   0  0  0  0  0  0
  -24.3646  -36.9127   22.2079 H   0  0  0  0  0  0
  -23.7057  -37.6314   23.6790 H   0  0  0  0  0  0
  -26.1250  -31.5207   20.6158 H   0  0  0  0  0  0
  -26.8551  -30.8052   22.0187 H   0  0  0  0  0  0
  -28.1150  -28.8987   21.2183 H   0  0  0  0  0  0
  -25.9171  -25.9248   18.9704 H   0  0  0  0  0  0
  -23.9647  -27.3286   18.9855 H   0  0  0  0  0  0
  -23.7723  -30.6005   19.4092 H   0  0  0  0  0  0
  -22.7611  -29.2572   19.8525 H   0  0  0  0  0  0
  -25.1237  -36.1864   25.0811 H   0  0  0  0  0  0
  -20.9968  -28.3317   24.1393 H   0  0  0  0  0  0
  -20.5718  -26.2335   23.3628 H   0  0  0  0  0  0
  -21.6662  -26.7508   22.1183 H   0  0  0  0  0  0
  -19.6946  -25.6292   21.1287 H   0  0  0  0  0  0
  -19.6734  -27.3195   20.6741 H   0  0  0  0  0  0
  -17.4217  -26.6713   21.3993 H   0  0  0  0  0  0
  -18.0336  -26.0096   22.9001 H   0  0  0  0  0  0
  -19.7928  -30.7289   24.2313 H   0  0  0  0  0  0
  -17.5012  -31.6304   24.5131 H   0  0  0  0  0  0
  -15.5366  -30.3017   23.7680 H   0  0  0  0  0  0
  -15.8648  -28.0830   22.7144 H   0  0  0  0  0  0
  -24.5929  -30.7072   25.7790 H   0  0  0  0  0  0
  -24.8879  -32.2913   26.4846 H   0  0  0  0  0  0
  -25.8021  -30.8962   27.0261 H   0  0  0  0  0  0
  -26.2916  -29.6743   24.1284 H   0  0  0  0  0  0
  -27.3953  -29.7264   25.4824 H   0  0  0  0  0  0
  -27.8836  -30.4224   23.9562 H   0  0  0  0  0  0
  -27.2739  -33.3635   26.2067 H   0  0  0  0  0  0
  -28.3917  -32.6813   25.0332 H   0  0  0  0  0  0
  -28.0742  -31.8424   26.5433 H   0  0  0  0  0  0
  -28.2368  -38.0284   24.7938 H   0  0  0  0  0  0
  -28.1431  -36.2904   24.5595 H   0  0  0  0  0  0
  -27.2472  -37.0539   25.8775 H   0  0  0  0  0  0
  -20.9405  -29.8737   21.6786 H   0  0  0  0  0  0
  -26.0087  -38.2818   24.1837 H   0  0  0  0  0  0
  -28.8432  -19.7563   19.1125 H   0  0  0  0  0  0
  -29.9310  -22.0315   22.6182 H   0  0  0  0  0  0
  -30.3080  -17.4448   23.8690 H   0  0  0  0  0  0
  -31.5408  -17.1455   22.6674 H   0  0  0  0  0  0
  -30.4745  -17.1601   19.2824 H   0  0  0  0  0  0
  -28.7553  -17.0255   19.4981 H   0  0  0  0  0  0
  -28.5826  -16.3258   22.4398 H   0  0  0  0  0  0
  -29.8749  -15.2555   22.9101 H   0  0  0  0  0  0
  -27.0324  -24.6112   20.3717 H   0  0  0  0  0  0
  -27.8996  -24.7233   18.8524 H   0  0  0  0  0  0
  -31.0561  -20.9148   24.3441 H   0  0  0  0  0  0
  -31.3270  -19.2457   24.3607 H   0  0  0  0  0  0
  -28.0475  -22.2460   19.4879 H   0  0  0  0  0  0
  1 25  1  0  0  0
  1 30  2  0  0  0
  1 82  1  0  0  0
  2  3  1  0  0  0
  2 25  1  0  0  0
  2 86  1  0  0  0
  2 87  1  0  0  0
  3  4  1  0  0  0
  3 88  1  0  0  0
  3 89  1  0  0  0
  4  5  1  0  0  0
  4 90  1  0  0  0
  4 91  1  0  0  0
  5  6  1  0  0  0
  5 26  1  0  0  0
  5 92  1  0  0  0
  6 25  1  0  0  0
  6 93  1  0  0  0
  6 94  1  0  0  0
  7  8  2  0  0  0
  7 26  1  0  0  0
  7 29  1  0  0  0
  8  9  1  0  0  0
  8 22  1  0  0  0
  9 10  1  0  0  0
  9 27  2  0  0  0
 10 11  2  0  0  0
 10 15  1  0  0  0
 11 12  1  0  0  0
 11 95  1  0  0  0
 12 13  2  0  0  0
 12 96  1  0  0  0
 13 14  1  0  0  0
 13 31  1  0  0  0
 14 15  2  0  0  0
 14 97  1  0  0  0
 15 98  1  0  0  0
 16 17  2  0  0  0
 16 21  1  0  0  0
 16 31  1  0  0  0
 17 18  1  0  0  0
 17 99  1  0  0  0
 18 19  2  0  0  0
 18100  1  0  0  0
 19 20  1  0  0  0
 19 24  1  0  0  0
 20 21  2  0  0  0
 20101  1  0  0  0
 21 23  1  0  0  0
 22 28  1  0  0  0
 22 32  2  0  0  0
 26 27  1  0  0  0
 28102  1  0  0  0
 28103  1  0  0  0
 29104  1  0  0  0
 29105  1  0  0  0
 33 34  1  0  0  0
 33 66  1  0  0  0
 33 70  2  0  0  0
 34 36  1  0  0  0
 34 59  1  0  0  0
 34106  1  0  0  0
 35 44  2  0  0  0
 35 45  1  0  0  0
 35 68  1  0  0  0
 36 56  1  0  0  0
 36107  1  0  0  0
 37 39  1  0  0  0
 37 47  1  0  0  0
 37 66  1  0  0  0
 37108  1  0  0  0
 38 43  2  0  0  0
 38 46  1  0  0  0
 38 47  1  0  0  0
 39 64  1  0  0  0
 39 67  2  0  0  0
 40 52  1  0  0  0
 40 53  2  0  0  0
 40 58  1  0  0  0
 41109  1  0  0  0
 41110  1  0  0  0
 41111  1  0  0  0
 41 48  1  0  0  0
 42 43  1  0  0  0
 42 66  1  0  0  0
 42112  1  0  0  0
 42113  1  0  0  0
 43 44  1  0  0  0
 44114  1  0  0  0
 45 46  2  0  0  0
 45115  1  0  0  0
 46116  1  0  0  0
 47117  1  0  0  0
 47118  1  0  0  0
 48 56  1  0  0  0
 48 65  1  0  0  0
 48119  1  0  0  0
 49 50  1  0  0  0
 49 53  1  0  0  0
 49 64  1  0  0  0
 49120  1  0  0  0
 50 51  1  0  0  0
 50121  1  0  0  0
 50122  1  0  0  0
 51 52  1  0  0  0
 51123  1  0  0  0
 51124  1  0  0  0
 52125  1  0  0  0
 52126  1  0  0  0
 53 54  1  0  0  0
 54 55  2  0  0  0
 54127  1  0  0  0
 55 57  1  0  0  0
 55128  1  0  0  0
 56 69  2  0  0  0
 57 58  2  0  0  0
 57129  1  0  0  0
 58130  1  0  0  0
 59 60  1  0  0  0
 59 61  1  0  0  0
 59 62  1  0  0  0
 60131  1  0  0  0
 60132  1  0  0  0
 60133  1  0  0  0
 61134  1  0  0  0
 61135  1  0  0  0
 61136  1  0  0  0
 62137  1  0  0  0
 62138  1  0  0  0
 62139  1  0  0  0
 63 65  1  0  0  0
 63140  1  0  0  0
 63141  1  0  0  0
 63142  1  0  0  0
 64143  1  0  0  0
 65144  1  0  0  0
 68 81  1  0  0  0
 71 73  2  0  0  0
 71 75  1  0  0  0
 71145  1  0  0  0
 72 75  2  0  0  0
 72 76  1  0  0  0
 72146  1  0  0  0
 73 74  1  0  0  0
 73 79  1  0  0  0
 74 76  2  0  0  0
 74 78  1  0  0  0
 75 84  1  0  0  0
 76 83  1  0  0  0
 77 81  1  0  0  0
 77 84  1  0  0  0
 77 85  2  0  0  0
 78 80  1  0  0  0
 78147  1  0  0  0
 78148  1  0  0  0
 79 82  1  0  0  0
 79149  1  0  0  0
 79150  1  0  0  0
 80 82  1  0  0  0
 80151  1  0  0  0
 80152  1  0  0  0
 81153  1  0  0  0
 81154  1  0  0  0
 83155  1  0  0  0
 83156  1  0  0  0
 84157  1  0  0  0
M  ISO  4   1 100  68 101  81 101  82 100
M  END
> <chiral flag>
0

> <version>
0

> <s_m_source_file>
/data/baiqing/PycharmProjects/Reinvent-master-3.2/result/LINK_invent/BTK/process_docking_weight1_custom_product_contain_oxygen_bond_distance_aromatic_linkinvent_7_9_3/rearranged_h_0158.sdf

> <i_m_source_file_index>
51

> <r_mmod_Potential_Energy-OPLS-2005>
266.778564453125

> <r_mmod_Stretch_Energy-OPLS-2005>
132.906585693359

> <r_mmod_Bend_Energy-OPLS-2005>
160.483032226562

> <r_mmod_Torsional_Energy-OPLS-2005>
304.514495849609

> <r_mmod_Improper_Torsional_Energy-OPLS-2005>
10.2937326431274

> <r_mmod_Van_der_Waal_Energy-OPLS-2005>
149.156127929688

> <r_mmod_Electrostatic_Energy-OPLS-2005>
-329.580169677734

> <r_mmod_Solvation_Energy-OPLS-2005>
-246.824264526367

> <b_mmod_Minimization_Converged-OPLS-2005>
0

> <r_mmod_RMS_Derivative-OPLS-2005>
3.35651159286499

$$$$
51
                    3D
 Structure written by MMmdl.
150158  0  0  1  0            999 V2000
  -30.7375  -14.4962   20.5500 C   0  0  0  0  0  0
  -30.4092  -12.3183   19.4360 C   0  0  0  0  0  0
  -29.4922  -12.4858   18.2097 C   0  0  0  0  0  0
  -28.0121  -12.3600   18.6185 C   0  0  0  0  0  0
  -27.6509  -13.2217   19.8592 C   0  0  2  0  0  0
  -28.6954  -13.0643   20.9872 C   0  0  0  0  0  0
  -25.2534  -13.8195   20.5680 C   0  0  0  0  0  0
  -24.1817  -13.0448   20.9204 C   0  0  0  0  0  0
  -24.6397  -11.6924   20.8748 C   0  0  0  0  0  0
  -23.9074  -10.4300   21.0404 C   0  0  0  0  0  0
  -24.3622   -9.4204   21.9172 C   0  0  0  0  0  0
  -23.6303   -8.2236   22.0738 C   0  0  0  0  0  0
  -22.4287   -8.0283   21.3526 C   0  0  0  0  0  0
  -21.9922   -9.0256   20.4626 C   0  0  0  0  0  0
  -22.7251  -10.2138   20.3043 C   0  0  0  0  0  0
  -21.6858   -6.0744   22.5268 C   0  0  0  0  0  0
  -21.4021   -6.5639   23.8203 C   0  0  0  0  0  0
  -21.3666   -5.6783   24.9160 C   0  0  0  0  0  0
  -21.6047   -4.3047   24.7209 C   0  0  0  0  0  0
  -21.8820   -3.8148   23.4328 C   0  0  0  0  0  0
  -21.9193   -4.6973   22.3390 C   0  0  0  0  0  0
  -22.7831  -13.5230   21.1860 C   0  0  0  0  0  0
  -22.1655   -4.2160   21.0965 F   0  0  0  0  0  0
  -21.5633   -3.4527   25.7717 F   0  0  0  0  0  0
  -30.0186  -13.3461   20.4146 N   0  0  0  0  0  0
  -26.2973  -12.9395   20.3310 N   0  0  0  0  0  0
  -25.9324  -11.6542   20.5756 N   0  0  0  0  0  0
  -22.0475  -12.8223   22.0418 N   0  0  0  0  0  0
  -25.4240  -15.1912   20.4071 N   0  0  0  0  0  0
  -31.9076  -14.5577   20.1642 O   0  0  0  0  0  0
  -21.6644   -6.8889   21.4231 O   0  0  0  0  0  0
  -22.3507  -14.5527   20.6706 O   0  0  0  0  0  0
  -24.6187  -31.8675   23.2118 C   0  0  0  0  0  0
  -25.9078  -32.4815   23.8406 C   0  0  1  0  0  0
  -27.2138  -27.3981   20.0902 C   0  0  0  0  0  0
  -25.5935  -33.8616   24.2330 N   0  0  0  0  0  0
  -23.4057  -30.4963   21.5538 C   0  0  2  0  0  0
  -24.8460  -28.9691   20.1106 C   0  0  0  0  0  0
  -22.7426  -29.4663   22.4976 C   0  0  0  0  0  0
  -18.0275  -28.1376   22.8477 C   0  0  0  0  0  0
  -24.1493  -36.7306   23.2637 C   0  0  0  0  0  0
  -25.9417  -30.8200   21.3745 C   0  0  0  0  0  0
  -26.0131  -29.4569   20.7120 C   0  0  0  0  0  0
  -27.1989  -28.6787   20.7019 C   0  0  0  0  0  0
  -26.0243  -26.9527   19.4603 C   0  0  0  0  0  0
  -24.8487  -27.7176   19.4813 C   0  0  0  0  0  0
  -23.6137  -29.8417   20.1646 C   0  0  0  0  0  0
  -25.4114  -36.3100   24.0334 C   0  0  1  0  0  0
  -20.5866  -28.3667   23.1301 C   0  0  2  0  0  0
  -20.6769  -26.9408   22.5404 C   0  0  0  0  0  0
  -19.5746  -26.6382   21.5202 C   0  0  0  0  0  0
  -18.1922  -26.7923   22.1614 C   0  0  0  0  0  0
  -19.1524  -28.8840   23.2883 C   0  0  0  0  0  0
  -18.9457  -30.1442   23.8896 C   0  0  0  0  0  0
  -17.6461  -30.6584   24.0560 C   0  0  0  0  0  0
  -25.9045  -34.9469   23.5119 C   0  0  0  0  0  0
  -16.5346  -29.9088   23.6331 C   0  0  0  0  0  0
  -16.7262  -28.6504   23.0348 C   0  0  0  0  0  0
  -26.4500  -31.6605   25.0745 C   0  0  0  0  0  0
  -25.3773  -31.3726   26.1500 C   0  0  0  0  0  0
  -27.0333  -30.3035   24.6155 C   0  0  0  0  0  0
  -27.6052  -32.4351   25.7519 C   0  0  0  0  0  0
  -27.5579  -37.1809   24.8465 C   0  0  0  0  0  0
  -21.4154  -29.3035   22.3714 N   0  0  0  0  0  0
  -26.4291  -37.3788   23.9411 N   0  0  0  0  0  0
  -24.6736  -31.0759   22.1031 N   0  0  0  0  0  0
  -23.4195  -28.8190   23.3016 O   0  0  0  0  0  0
  -28.3555  -26.6032   20.1355 O   0  0  0  0  0  0
  -26.5593  -34.8916   22.4673 O   0  0  0  0  0  0
  -23.5378  -32.1437   23.7502 O   0  0  0  0  0  0
  -30.0679  -19.3748   21.2026 C   0  0  0  0  0  0
  -28.1409  -19.7070   19.9195 C   0  0  0  0  0  0
  -29.1613  -20.3139   20.6127 C   0  0  0  0  0  0
  -29.7784  -18.0621   20.8900 C   0  0  0  0  0  0
  -30.5874  -16.8309   21.1325 C   0  0  0  0  0  0
  -28.9045  -22.7271   19.9563 C   0  0  0  0  0  0
  -29.2450  -24.1952   20.3310 C   0  0  0  0  0  0
  -28.1684  -25.1973   19.8299 C   0  0  0  0  0  0
  -29.3441  -21.7317   20.7619 N   0  0  0  0  0  0
  -30.0472  -15.6082   20.9026 N   0  0  0  0  0  0
  -31.7424  -16.9943   21.5430 O   0  0  0  0  0  0
  -28.2549  -22.5073   18.9300 O   0  0  0  0  0  0
  -28.3202  -17.9645   19.9236 S   0  0  0  0  0  0
  -31.4553  -12.3920   19.1344 H   0  0  0  0  0  0
  -30.2960  -11.3257   19.8740 H   0  0  0  0  0  0
  -29.7339  -11.7338   17.4573 H   0  0  0  0  0  0
  -29.6660  -13.4569   17.7442 H   0  0  0  0  0  0
  -27.8165  -11.3083   18.8297 H   0  0  0  0  0  0
  -27.3685  -12.6215   17.7773 H   0  0  0  0  0  0
  -27.6758  -14.2609   19.5300 H   0  0  0  0  0  0
  -28.6731  -12.0514   21.3926 H   0  0  0  0  0  0
  -28.4646  -13.7270   21.8225 H   0  0  0  0  0  0
  -25.2770   -9.5689   22.4745 H   0  0  0  0  0  0
  -24.0019   -7.4629   22.7452 H   0  0  0  0  0  0
  -21.0854   -8.8780   19.8930 H   0  0  0  0  0  0
  -22.3708  -10.9681   19.6154 H   0  0  0  0  0  0
  -21.2014   -7.6145   23.9718 H   0  0  0  0  0  0
  -21.1491   -6.0503   25.9064 H   0  0  0  0  0  0
  -22.0602   -2.7615   23.2811 H   0  0  0  0  0  0
  -22.4100  -11.9912   22.4854 H   0  0  0  0  0  0
  -21.1074  -13.1224   22.2578 H   0  0  0  0  0  0
  -24.6570  -15.8469   20.5102 H   0  0  0  0  0  0
  -26.2696  -15.6264   20.0623 H   0  0  0  0  0  0
  -26.7147  -32.5509   23.1160 H   0  0  0  0  0  0
  -25.0126  -33.9789   25.0508 H   0  0  0  0  0  0
  -22.6941  -31.3145   21.4221 H   0  0  0  0  0  0
  -23.3744  -35.9649   23.3308 H   0  0  0  0  0  0
  -24.3581  -36.8907   22.2046 H   0  0  0  0  0  0
  -23.7252  -37.6518   23.6647 H   0  0  0  0  0  0
  -26.0697  -31.5915   20.6143 H   0  0  0  0  0  0
  -26.8243  -30.8597   22.0016 H   0  0  0  0  0  0
  -28.0948  -29.0451   21.1833 H   0  0  0  0  0  0
  -25.9644  -26.0051   18.9451 H   0  0  0  0  0  0
  -23.9535  -27.3409   19.0060 H   0  0  0  0  0  0
  -23.7304  -30.6241   19.4131 H   0  0  0  0  0  0
  -22.7331  -29.2716   19.8610 H   0  0  0  0  0  0
  -25.1292  -36.1953   25.0826 H   0  0  0  0  0  0
  -20.9948  -28.3235   24.1426 H   0  0  0  0  0  0
  -20.5670  -26.2281   23.3591 H   0  0  0  0  0  0
  -21.6642  -26.7452   22.1197 H   0  0  0  0  0  0
  -19.6908  -25.6295   21.1229 H   0  0  0  0  0  0
  -19.6685  -27.3196   20.6735 H   0  0  0  0  0  0
  -17.4192  -26.6657   21.4018 H   0  0  0  0  0  0
  -18.0328  -26.0070   22.9018 H   0  0  0  0  0  0
  -19.7937  -30.7249   24.2268 H   0  0  0  0  0  0
  -17.5026  -31.6263   24.5161 H   0  0  0  0  0  0
  -15.5351  -30.2992   23.7658 H   0  0  0  0  0  0
  -15.8661  -28.0826   22.7067 H   0  0  0  0  0  0
  -24.5922  -30.7094   25.7854 H   0  0  0  0  0  0
  -24.9007  -32.2893   26.4978 H   0  0  0  0  0  0
  -25.8139  -30.8876   27.0238 H   0  0  0  0  0  0
  -26.2880  -29.6789   24.1204 H   0  0  0  0  0  0
  -27.4074  -29.7280   25.4633 H   0  0  0  0  0  0
  -27.8741  -30.4330   23.9333 H   0  0  0  0  0  0
  -27.2625  -33.3625   26.2124 H   0  0  0  0  0  0
  -28.3848  -32.6957   25.0351 H   0  0  0  0  0  0
  -28.0738  -31.8473   26.5421 H   0  0  0  0  0  0
  -28.2602  -38.0103   24.7505 H   0  0  0  0  0  0
  -28.1068  -36.2628   24.6299 H   0  0  0  0  0  0
  -27.2297  -37.1471   25.8870 H   0  0  0  0  0  0
  -20.9314  -29.8787   21.6961 H   0  0  0  0  0  0
  -26.0171  -38.2863   24.1408 H   0  0  0  0  0  0
  -30.9321  -19.6813   21.7760 H   0  0  0  0  0  0
  -27.3139  -20.1587   19.3828 H   0  0  0  0  0  0
  -30.2149  -24.4468   19.9033 H   0  0  0  0  0  0
  -29.3437  -24.2766   21.4139 H   0  0  0  0  0  0
  -27.2327  -24.8467   20.2702 H   0  0  0  0  0  0
  -28.0707  -25.1062   18.7464 H   0  0  0  0  0  0
  -29.9396  -22.0224   21.5259 H   0  0  0  0  0  0
  -29.0442  -15.5540   20.8743 H   0  0  0  0  0  0
  1 25  1  0  0  0
  1 30  2  0  0  0
  1 80  1  0  0  0
  2  3  1  0  0  0
  2 25  1  0  0  0
  2 84  1  0  0  0
  2 85  1  0  0  0
  3  4  1  0  0  0
  3 86  1  0  0  0
  3 87  1  0  0  0
  4  5  1  0  0  0
  4 88  1  0  0  0
  4 89  1  0  0  0
  5  6  1  0  0  0
  5 26  1  0  0  0
  5 90  1  0  0  0
  6 25  1  0  0  0
  6 91  1  0  0  0
  6 92  1  0  0  0
  7  8  2  0  0  0
  7 26  1  0  0  0
  7 29  1  0  0  0
  8  9  1  0  0  0
  8 22  1  0  0  0
  9 10  1  0  0  0
  9 27  2  0  0  0
 10 11  2  0  0  0
 10 15  1  0  0  0
 11 12  1  0  0  0
 11 93  1  0  0  0
 12 13  2  0  0  0
 12 94  1  0  0  0
 13 14  1  0  0  0
 13 31  1  0  0  0
 14 15  2  0  0  0
 14 95  1  0  0  0
 15 96  1  0  0  0
 16 17  2  0  0  0
 16 21  1  0  0  0
 16 31  1  0  0  0
 17 18  1  0  0  0
 17 97  1  0  0  0
 18 19  2  0  0  0
 18 98  1  0  0  0
 19 20  1  0  0  0
 19 24  1  0  0  0
 20 21  2  0  0  0
 20 99  1  0  0  0
 21 23  1  0  0  0
 22 28  1  0  0  0
 22 32  2  0  0  0
 26 27  1  0  0  0
 28100  1  0  0  0
 28101  1  0  0  0
 29102  1  0  0  0
 29103  1  0  0  0
 33 34  1  0  0  0
 33 66  1  0  0  0
 33 70  2  0  0  0
 34 36  1  0  0  0
 34 59  1  0  0  0
 34104  1  0  0  0
 35 44  2  0  0  0
 35 45  1  0  0  0
 35 68  1  0  0  0
 36 56  1  0  0  0
 36105  1  0  0  0
 37 39  1  0  0  0
 37 47  1  0  0  0
 37 66  1  0  0  0
 37106  1  0  0  0
 38 43  2  0  0  0
 38 46  1  0  0  0
 38 47  1  0  0  0
 39 64  1  0  0  0
 39 67  2  0  0  0
 40 52  1  0  0  0
 40 53  2  0  0  0
 40 58  1  0  0  0
 41107  1  0  0  0
 41108  1  0  0  0
 41109  1  0  0  0
 41 48  1  0  0  0
 42 43  1  0  0  0
 42 66  1  0  0  0
 42110  1  0  0  0
 42111  1  0  0  0
 43 44  1  0  0  0
 44112  1  0  0  0
 45 46  2  0  0  0
 45113  1  0  0  0
 46114  1  0  0  0
 47115  1  0  0  0
 47116  1  0  0  0
 48 56  1  0  0  0
 48 65  1  0  0  0
 48117  1  0  0  0
 49 50  1  0  0  0
 49 53  1  0  0  0
 49 64  1  0  0  0
 49118  1  0  0  0
 50 51  1  0  0  0
 50119  1  0  0  0
 50120  1  0  0  0
 51 52  1  0  0  0
 51121  1  0  0  0
 51122  1  0  0  0
 52123  1  0  0  0
 52124  1  0  0  0
 53 54  1  0  0  0
 54 55  2  0  0  0
 54125  1  0  0  0
 55 57  1  0  0  0
 55126  1  0  0  0
 56 69  2  0  0  0
 57 58  2  0  0  0
 57127  1  0  0  0
 58128  1  0  0  0
 59 60  1  0  0  0
 59 61  1  0  0  0
 59 62  1  0  0  0
 60129  1  0  0  0
 60130  1  0  0  0
 60131  1  0  0  0
 61132  1  0  0  0
 61133  1  0  0  0
 61134  1  0  0  0
 62135  1  0  0  0
 62136  1  0  0  0
 62137  1  0  0  0
 63 65  1  0  0  0
 63138  1  0  0  0
 63139  1  0  0  0
 63140  1  0  0  0
 64141  1  0  0  0
 65142  1  0  0  0
 68 78  1  0  0  0
 71 73  1  0  0  0
 71 74  2  0  0  0
 71143  1  0  0  0
 72 73  2  0  0  0
 72 83  1  0  0  0
 72144  1  0  0  0
 73 79  1  0  0  0
 74 75  1  0  0  0
 74 83  1  0  0  0
 75 80  1  0  0  0
 75 81  2  0  0  0
 76 77  1  0  0  0
 76 79  1  0  0  0
 76 82  2  0  0  0
 77 78  1  0  0  0
 77145  1  0  0  0
 77146  1  0  0  0
 78147  1  0  0  0
 78148  1  0  0  0
 79149  1  0  0  0
 80150  1  0  0  0
M  ISO  4   1 100  68 101  78 101  80 100
M  END
> <chiral flag>
0

> <version>
0

> <s_m_source_file>
/data/baiqing/PycharmProjects/Reinvent-master-3.2/result/LINK_invent/BTK/process_docking_weight1_custom_product_contain_oxygen_bond_distance_aromatic_linkinvent_7_9_3/rearranged_h_0158.sdf

> <i_m_source_file_index>
52

> <r_mmod_Potential_Energy-OPLS-2005>
-141.828948974609

> <r_mmod_Stretch_Energy-OPLS-2005>
41.4937515258789

> <r_mmod_Bend_Energy-OPLS-2005>
107.962593078613

> <r_mmod_Torsional_Energy-OPLS-2005>
244.199371337891

> <r_mmod_Improper_Torsional_Energy-OPLS-2005>
5.72412919998169

> <r_mmod_Van_der_Waal_Energy-OPLS-2005>
150.012390136719

> <r_mmod_Electrostatic_Energy-OPLS-2005>
-475.122985839844

> <r_mmod_Solvation_Energy-OPLS-2005>
-241.280776977539

> <b_mmod_Minimization_Converged-OPLS-2005>
0

> <r_mmod_RMS_Derivative-OPLS-2005>
1.69108355045319

$$$$
52
                    3D
 Structure written by MMmdl.
159168  0  0  1  0            999 V2000
  -30.6286  -14.5600   20.5632 C   0  0  0  0  0  0
  -30.4447  -12.3570   19.4326 C   0  0  0  0  0  0
  -29.5066  -12.5168   18.2147 C   0  0  0  0  0  0
  -28.0271  -12.3608   18.6236 C   0  0  0  0  0  0
  -27.6624  -13.2036   19.8743 C   0  0  2  0  0  0
  -28.7040  -12.9843   20.9953 C   0  0  0  0  0  0
  -25.2593  -13.8140   20.5652 C   0  0  0  0  0  0
  -24.1846  -13.0429   20.9180 C   0  0  0  0  0  0
  -24.6397  -11.6894   20.8737 C   0  0  0  0  0  0
  -23.9060  -10.4287   21.0412 C   0  0  0  0  0  0
  -24.3613   -9.4200   21.9189 C   0  0  0  0  0  0
  -23.6287   -8.2237   22.0755 C   0  0  0  0  0  0
  -22.4270   -8.0276   21.3544 C   0  0  0  0  0  0
  -21.9902   -9.0254   20.4650 C   0  0  0  0  0  0
  -22.7233  -10.2133   20.3060 C   0  0  0  0  0  0
  -21.6849   -6.0730   22.5279 C   0  0  0  0  0  0
  -21.4014   -6.5638   23.8211 C   0  0  0  0  0  0
  -21.3657   -5.6792   24.9172 C   0  0  0  0  0  0
  -21.6041   -4.3055   24.7225 C   0  0  0  0  0  0
  -21.8821   -3.8144   23.4348 C   0  0  0  0  0  0
  -21.9193   -4.6959   22.3404 C   0  0  0  0  0  0
  -22.7871  -13.5238   21.1843 C   0  0  0  0  0  0
  -22.1661   -4.2143   21.0982 F   0  0  0  0  0  0
  -21.5628   -3.4540   25.7739 F   0  0  0  0  0  0
  -30.0308  -13.3354   20.4534 N   0  0  0  0  0  0
  -26.3026  -12.9300   20.3337 N   0  0  0  0  0  0
  -25.9321  -11.6468   20.5757 N   0  0  0  0  0  0
  -22.0505  -12.8239   22.0403 N   0  0  0  0  0  0
  -25.4311  -15.1850   20.4005 N   0  0  0  0  0  0
  -31.7507  -14.7939   20.1004 O   0  0  0  0  0  0
  -21.6633   -6.8873   21.4239 O   0  0  0  0  0  0
  -22.3560  -14.5538   20.6680 O   0  0  0  0  0  0
  -24.6194  -31.8645   23.2066 C   0  0  0  0  0  0
  -25.9067  -32.4804   23.8383 C   0  0  1  0  0  0
  -27.2368  -27.3884   20.1102 C   0  0  0  0  0  0
  -25.5904  -33.8603   24.2312 N   0  0  0  0  0  0
  -23.4116  -30.4853   21.5476 C   0  0  2  0  0  0
  -24.8623  -28.9417   20.1188 C   0  0  0  0  0  0
  -22.7442  -29.4640   22.4974 C   0  0  0  0  0  0
  -18.0277  -28.1382   22.8491 C   0  0  0  0  0  0
  -24.1486  -36.7308   23.2637 C   0  0  0  0  0  0
  -25.9449  -30.8134   21.3697 C   0  0  0  0  0  0
  -26.0242  -29.4414   20.7230 C   0  0  0  0  0  0
  -27.2168  -28.6708   20.7199 C   0  0  0  0  0  0
  -26.0617  -26.9150   19.4960 C   0  0  0  0  0  0
  -24.8772  -27.6777   19.5031 C   0  0  0  0  0  0
  -23.6254  -29.8144   20.1643 C   0  0  0  0  0  0
  -25.4107  -36.3101   24.0336 C   0  0  1  0  0  0
  -20.5872  -28.3676   23.1303 C   0  0  2  0  0  0
  -20.6766  -26.9407   22.5417 C   0  0  0  0  0  0
  -19.5744  -26.6384   21.5216 C   0  0  0  0  0  0
  -18.1923  -26.7926   22.1627 C   0  0  0  0  0  0
  -19.1528  -28.8845   23.2892 C   0  0  0  0  0  0
  -18.9454  -30.1450   23.8907 C   0  0  0  0  0  0
  -17.6455  -30.6587   24.0566 C   0  0  0  0  0  0
  -25.9038  -34.9467   23.5123 C   0  0  0  0  0  0
  -16.5346  -29.9090   23.6327 C   0  0  0  0  0  0
  -16.7266  -28.6505   23.0349 C   0  0  0  0  0  0
  -26.4478  -31.6593   25.0723 C   0  0  0  0  0  0
  -25.3735  -31.3719   26.1470 C   0  0  0  0  0  0
  -27.0304  -30.3024   24.6126 C   0  0  0  0  0  0
  -27.6057  -32.4312   25.7477 C   0  0  0  0  0  0
  -27.5583  -37.1801   24.8461 C   0  0  0  0  0  0
  -21.4163  -29.3035   22.3707 N   0  0  0  0  0  0
  -26.4290  -37.3790   23.9411 N   0  0  0  0  0  0
  -24.6768  -31.0703   22.0992 N   0  0  0  0  0  0
  -23.4187  -28.8189   23.3041 O   0  0  0  0  0  0
  -28.3624  -26.5825   20.0608 O   0  0  0  0  0  0
  -26.5604  -34.8925   22.4687 O   0  0  0  0  0  0
  -23.5371  -32.1419   23.7424 O   0  0  0  0  0  0
  -30.5029  -19.2375   20.5073 C   0  0  0  0  0  0
  -30.7533  -17.8363   20.6146 C   0  0  0  0  0  0
  -28.4247  -17.4877   21.1393 C   0  0  0  0  0  0
  -29.2066  -19.7953   20.7005 C   0  0  0  0  0  0
  -29.7101  -16.9327   20.9411 C   0  0  0  0  0  0
  -28.1651  -18.8745   21.0037 C   0  0  0  0  0  0
  -28.7601  -24.2290   21.0461 C   0  0  0  0  0  0
  -29.5006  -23.7100   19.8069 C   0  0  0  0  0  0
  -29.9739  -22.2253   19.9192 C   0  0  0  0  0  0
  -28.5943  -21.9882   21.9676 C   0  0  0  0  0  0
  -28.9054  -21.3324   20.5926 C   0  0  2  0  0  0
  -28.6123  -25.7737   21.2339 C   0  0  0  0  0  0
  -28.3079  -23.4360   21.9485 N   0  0  0  0  0  0
  -26.8499  -19.3071   21.1794 N   0  0  0  0  0  0
  -29.8435  -15.5054   21.1411 N   0  0  0  0  0  0
  -31.4845  -12.4937   19.1309 H   0  0  0  0  0  0
  -30.3830  -11.3449   19.8357 H   0  0  0  0  0  0
  -29.7599  -11.7852   17.4464 H   0  0  0  0  0  0
  -29.6580  -13.4982   17.7619 H   0  0  0  0  0  0
  -27.8507  -11.3040   18.8275 H   0  0  0  0  0  0
  -27.3745  -12.6212   17.7893 H   0  0  0  0  0  0
  -27.7023  -14.2508   19.5731 H   0  0  0  0  0  0
  -28.7024  -11.9402   21.3119 H   0  0  0  0  0  0
  -28.4453  -13.5513   21.8907 H   0  0  0  0  0  0
  -25.2763   -9.5667   22.4759 H   0  0  0  0  0  0
  -23.9991   -7.4627   22.7475 H   0  0  0  0  0  0
  -21.0830   -8.8775   19.8963 H   0  0  0  0  0  0
  -22.3696  -10.9673   19.6165 H   0  0  0  0  0  0
  -21.2011   -7.6147   23.9714 H   0  0  0  0  0  0
  -21.1475   -6.0522   25.9074 H   0  0  0  0  0  0
  -22.0603   -2.7605   23.2850 H   0  0  0  0  0  0
  -22.4113  -11.9902   22.4802 H   0  0  0  0  0  0
  -21.1127  -13.1275   22.2610 H   0  0  0  0  0  0
  -24.6552  -15.8326   20.4848 H   0  0  0  0  0  0
  -26.2616  -15.6100   20.0103 H   0  0  0  0  0  0
  -26.7140  -32.5508   23.1147 H   0  0  0  0  0  0
  -25.0050  -33.9760   25.0454 H   0  0  0  0  0  0
  -22.7024  -31.3030   21.4039 H   0  0  0  0  0  0
  -23.3745  -35.9643   23.3301 H   0  0  0  0  0  0
  -24.3581  -36.8920   22.2052 H   0  0  0  0  0  0
  -23.7240  -37.6515   23.6650 H   0  0  0  0  0  0
  -26.0629  -31.5738   20.5967 H   0  0  0  0  0  0
  -26.8306  -30.8705   21.9902 H   0  0  0  0  0  0
  -28.1149  -29.0530   21.1847 H   0  0  0  0  0  0
  -26.0632  -25.9457   19.0174 H   0  0  0  0  0  0
  -23.9857  -27.2867   19.0324 H   0  0  0  0  0  0
  -23.7384  -30.5884   19.4043 H   0  0  0  0  0  0
  -22.7484  -29.2367   19.8661 H   0  0  0  0  0  0
  -25.1282  -36.1964   25.0830 H   0  0  0  0  0  0
  -20.9960  -28.3250   24.1426 H   0  0  0  0  0  0
  -20.5669  -26.2289   23.3612 H   0  0  0  0  0  0
  -21.6638  -26.7443   22.1213 H   0  0  0  0  0  0
  -19.6907  -25.6299   21.1235 H   0  0  0  0  0  0
  -19.6683  -27.3203   20.6754 H   0  0  0  0  0  0
  -17.4195  -26.6679   21.4027 H   0  0  0  0  0  0
  -18.0318  -26.0067   22.9021 H   0  0  0  0  0  0
  -19.7930  -30.7259   24.2287 H   0  0  0  0  0  0
  -17.5011  -31.6267   24.5168 H   0  0  0  0  0  0
  -15.5348  -30.2996   23.7642 H   0  0  0  0  0  0
  -15.8667  -28.0826   22.7060 H   0  0  0  0  0  0
  -24.5901  -30.7074   25.7808 H   0  0  0  0  0  0
  -24.8937  -32.2881   26.4920 H   0  0  0  0  0  0
  -25.8079  -30.8884   27.0228 H   0  0  0  0  0  0
  -26.2854  -29.6787   24.1170 H   0  0  0  0  0  0
  -27.4045  -29.7265   25.4599 H   0  0  0  0  0  0
  -27.8706  -30.4326   23.9301 H   0  0  0  0  0  0
  -27.2685  -33.3608   26.2075 H   0  0  0  0  0  0
  -28.3852  -32.6879   25.0290 H   0  0  0  0  0  0
  -28.0742  -31.8422   26.5371 H   0  0  0  0  0  0
  -28.2600  -38.0100   24.7517 H   0  0  0  0  0  0
  -28.1079  -36.2634   24.6269 H   0  0  0  0  0  0
  -27.2304  -37.1432   25.8864 H   0  0  0  0  0  0
  -20.9338  -29.8755   21.6917 H   0  0  0  0  0  0
  -26.0178  -38.2866   24.1421 H   0  0  0  0  0  0
  -31.3341  -19.8864   20.2735 H   0  0  0  0  0  0
  -31.7590  -17.4692   20.4643 H   0  0  0  0  0  0
  -27.6083  -16.8281   21.3991 H   0  0  0  0  0  0
  -30.3507  -24.3601   19.5985 H   0  0  0  0  0  0
  -28.8252  -23.8097   18.9570 H   0  0  0  0  0  0
  -30.8921  -22.1931   20.5067 H   0  0  0  0  0  0
  -30.2237  -21.8442   18.9285 H   0  0  0  0  0  0
  -29.4335  -21.8061   22.6409 H   0  0  0  0  0  0
  -27.7477  -21.4792   22.4278 H   0  0  0  0  0  0
  -28.0112  -21.4108   19.9728 H   0  0  0  0  0  0
  -29.5392  -26.1387   21.6769 H   0  0  0  0  0  0
  -27.8430  -25.9561   21.9881 H   0  0  0  0  0  0
  -26.1004  -18.6233   21.1549 H   0  0  0  0  0  0
  -26.5727  -20.2121   20.8159 H   0  0  0  0  0  0
  -29.0250  -15.0805   21.5496 H   0  0  0  0  0  0
  1 25  1  0  0  0
  1 30  2  0  0  0
  1 85  1  0  0  0
  2  3  1  0  0  0
  2 25  1  0  0  0
  2 86  1  0  0  0
  2 87  1  0  0  0
  3  4  1  0  0  0
  3 88  1  0  0  0
  3 89  1  0  0  0
  4  5  1  0  0  0
  4 90  1  0  0  0
  4 91  1  0  0  0
  5  6  1  0  0  0
  5 26  1  0  0  0
  5 92  1  0  0  0
  6 25  1  0  0  0
  6 93  1  0  0  0
  6 94  1  0  0  0
  7  8  2  0  0  0
  7 26  1  0  0  0
  7 29  1  0  0  0
  8  9  1  0  0  0
  8 22  1  0  0  0
  9 10  1  0  0  0
  9 27  2  0  0  0
 10 11  2  0  0  0
 10 15  1  0  0  0
 11 12  1  0  0  0
 11 95  1  0  0  0
 12 13  2  0  0  0
 12 96  1  0  0  0
 13 14  1  0  0  0
 13 31  1  0  0  0
 14 15  2  0  0  0
 14 97  1  0  0  0
 15 98  1  0  0  0
 16 17  2  0  0  0
 16 21  1  0  0  0
 16 31  1  0  0  0
 17 18  1  0  0  0
 17 99  1  0  0  0
 18 19  2  0  0  0
 18100  1  0  0  0
 19 20  1  0  0  0
 19 24  1  0  0  0
 20 21  2  0  0  0
 20101  1  0  0  0
 21 23  1  0  0  0
 22 28  1  0  0  0
 22 32  2  0  0  0
 26 27  1  0  0  0
 28102  1  0  0  0
 28103  1  0  0  0
 29104  1  0  0  0
 29105  1  0  0  0
 33 34  1  0  0  0
 33 66  1  0  0  0
 33 70  2  0  0  0
 34 36  1  0  0  0
 34 59  1  0  0  0
 34106  1  0  0  0
 35 44  2  0  0  0
 35 45  1  0  0  0
 35 68  1  0  0  0
 36 56  1  0  0  0
 36107  1  0  0  0
 37 39  1  0  0  0
 37 47  1  0  0  0
 37 66  1  0  0  0
 37108  1  0  0  0
 38 43  2  0  0  0
 38 46  1  0  0  0
 38 47  1  0  0  0
 39 64  1  0  0  0
 39 67  2  0  0  0
 40 52  1  0  0  0
 40 53  2  0  0  0
 40 58  1  0  0  0
 41109  1  0  0  0
 41110  1  0  0  0
 41111  1  0  0  0
 41 48  1  0  0  0
 42 43  1  0  0  0
 42 66  1  0  0  0
 42112  1  0  0  0
 42113  1  0  0  0
 43 44  1  0  0  0
 44114  1  0  0  0
 45 46  2  0  0  0
 45115  1  0  0  0
 46116  1  0  0  0
 47117  1  0  0  0
 47118  1  0  0  0
 48 56  1  0  0  0
 48 65  1  0  0  0
 48119  1  0  0  0
 49 50  1  0  0  0
 49 53  1  0  0  0
 49 64  1  0  0  0
 49120  1  0  0  0
 50 51  1  0  0  0
 50121  1  0  0  0
 50122  1  0  0  0
 51 52  1  0  0  0
 51123  1  0  0  0
 51124  1  0  0  0
 52125  1  0  0  0
 52126  1  0  0  0
 53 54  1  0  0  0
 54 55  2  0  0  0
 54127  1  0  0  0
 55 57  1  0  0  0
 55128  1  0  0  0
 56 69  2  0  0  0
 57 58  2  0  0  0
 57129  1  0  0  0
 58130  1  0  0  0
 59 60  1  0  0  0
 59 61  1  0  0  0
 59 62  1  0  0  0
 60131  1  0  0  0
 60132  1  0  0  0
 60133  1  0  0  0
 61134  1  0  0  0
 61135  1  0  0  0
 61136  1  0  0  0
 62137  1  0  0  0
 62138  1  0  0  0
 62139  1  0  0  0
 63 65  1  0  0  0
 63140  1  0  0  0
 63141  1  0  0  0
 63142  1  0  0  0
 64143  1  0  0  0
 65144  1  0  0  0
 68 82  1  0  0  0
 71 72  2  0  0  0
 71 74  1  0  0  0
 71145  1  0  0  0
 72 75  1  0  0  0
 72146  1  0  0  0
 73 75  2  0  0  0
 73 76  1  0  0  0
 73147  1  0  0  0
 74 76  2  0  0  0
 74 81  1  0  0  0
 75 85  1  0  0  0
 76 84  1  0  0  0
 77 78  1  0  0  0
 77 82  1  0  0  0
 77 83  2  0  0  0
 78 79  1  0  0  0
 78148  1  0  0  0
 78149  1  0  0  0
 79 81  1  0  0  0
 79150  1  0  0  0
 79151  1  0  0  0
 80 81  1  0  0  0
 80 83  1  0  0  0
 80152  1  0  0  0
 80153  1  0  0  0
 81154  1  0  0  0
 82155  1  0  0  0
 82156  1  0  0  0
 84157  1  0  0  0
 84158  1  0  0  0
 85159  1  0  0  0
M  ISO  4   1 100  68 101  82 101  85 100
M  END
> <chiral flag>
0

> <version>
0

> <s_m_source_file>
/data/baiqing/PycharmProjects/Reinvent-master-3.2/result/LINK_invent/BTK/process_docking_weight1_custom_product_contain_oxygen_bond_distance_aromatic_linkinvent_7_9_3/rearranged_h_0158.sdf

> <i_m_source_file_index>
53

> <r_mmod_Potential_Energy-OPLS-2005>
66.6595153808594

> <r_mmod_Stretch_Energy-OPLS-2005>
58.134937286377

> <r_mmod_Bend_Energy-OPLS-2005>
138.048110961914

> <r_mmod_Torsional_Energy-OPLS-2005>
256.256286621094

> <r_mmod_Improper_Torsional_Energy-OPLS-2005>
7.13622283935547

> <r_mmod_Van_der_Waal_Energy-OPLS-2005>
149.252532958984

> <r_mmod_Electrostatic_Energy-OPLS-2005>
-348.753631591797

> <r_mmod_Solvation_Energy-OPLS-2005>
-217.871826171875

> <b_mmod_Minimization_Converged-OPLS-2005>
0

> <r_mmod_RMS_Derivative-OPLS-2005>
0.673121690750122

$$$$
53
                    3D
 Structure written by MMmdl.
153161  0  0  1  0            999 V2000
  -30.5991  -14.7932   20.4539 C   0  0  0  0  0  0
  -30.4315  -12.4898   19.4737 C   0  0  0  0  0  0
  -29.5085  -12.5065   18.2355 C   0  0  0  0  0  0
  -28.0374  -12.3213   18.6542 C   0  0  0  0  0  0
  -27.6358  -13.2351   19.8422 C   0  0  2  0  0  0
  -28.6802  -13.2014   20.9773 C   0  0  0  0  0  0
  -25.2496  -13.8211   20.5681 C   0  0  0  0  0  0
  -24.1800  -13.0452   20.9229 C   0  0  0  0  0  0
  -24.6394  -11.6929   20.8764 C   0  0  0  0  0  0
  -23.9074  -10.4300   21.0419 C   0  0  0  0  0  0
  -24.3625   -9.4212   21.9193 C   0  0  0  0  0  0
  -23.6301   -8.2245   22.0757 C   0  0  0  0  0  0
  -22.4283   -8.0284   21.3548 C   0  0  0  0  0  0
  -21.9919   -9.0260   20.4652 C   0  0  0  0  0  0
  -22.7246  -10.2141   20.3067 C   0  0  0  0  0  0
  -21.6856   -6.0739   22.5279 C   0  0  0  0  0  0
  -21.4013   -6.5643   23.8212 C   0  0  0  0  0  0
  -21.3658   -5.6796   24.9175 C   0  0  0  0  0  0
  -21.6043   -4.3058   24.7226 C   0  0  0  0  0  0
  -21.8818   -3.8150   23.4347 C   0  0  0  0  0  0
  -21.9193   -4.6966   22.3402 C   0  0  0  0  0  0
  -22.7821  -13.5232   21.1883 C   0  0  0  0  0  0
  -22.1662   -4.2149   21.0980 F   0  0  0  0  0  0
  -21.5628   -3.4541   25.7739 F   0  0  0  0  0  0
  -29.9708  -13.5662   20.3841 N   0  0  0  0  0  0
  -26.2911  -12.9418   20.3247 N   0  0  0  0  0  0
  -25.9321  -11.6559   20.5753 N   0  0  0  0  0  0
  -22.0470  -12.8215   22.0435 N   0  0  0  0  0  0
  -25.4175  -15.1930   20.4042 N   0  0  0  0  0  0
  -31.8007  -14.8650   20.1815 O   0  0  0  0  0  0
  -21.6645   -6.8882   21.4241 O   0  0  0  0  0  0
  -22.3502  -14.5532   20.6722 O   0  0  0  0  0  0
  -24.6337  -31.8522   23.1944 C   0  0  0  0  0  0
  -25.9149  -32.4740   23.8306 C   0  0  1  0  0  0
  -27.2189  -27.2323   20.1463 C   0  0  0  0  0  0
  -25.5934  -33.8542   24.2232 N   0  0  0  0  0  0
  -23.4323  -30.4721   21.5384 C   0  0  2  0  0  0
  -24.8808  -28.9068   20.1165 C   0  0  0  0  0  0
  -22.7516  -29.4587   22.4906 C   0  0  0  0  0  0
  -18.0294  -28.1391   22.8484 C   0  0  0  0  0  0
  -24.1491  -36.7271   23.2642 C   0  0  0  0  0  0
  -25.9799  -30.7573   21.3768 C   0  0  0  0  0  0
  -26.0541  -29.3743   20.7240 C   0  0  0  0  0  0
  -27.2298  -28.5518   20.7208 C   0  0  0  0  0  0
  -26.0240  -26.8301   19.5191 C   0  0  0  0  0  0
  -24.8717  -27.6437   19.5017 C   0  0  0  0  0  0
  -23.6534  -29.7993   20.1576 C   0  0  0  0  0  0
  -25.4120  -36.3059   24.0325 C   0  0  1  0  0  0
  -20.5901  -28.3701   23.1266 C   0  0  2  0  0  0
  -20.6782  -26.9416   22.5411 C   0  0  0  0  0  0
  -19.5759  -26.6384   21.5216 C   0  0  0  0  0  0
  -18.1936  -26.7934   22.1623 C   0  0  0  0  0  0
  -19.1550  -28.8865   23.2868 C   0  0  0  0  0  0
  -18.9470  -30.1465   23.8888 C   0  0  0  0  0  0
  -17.6467  -30.6591   24.0564 C   0  0  0  0  0  0
  -25.9060  -34.9432   23.5082 C   0  0  0  0  0  0
  -16.5358  -29.9088   23.6336 C   0  0  0  0  0  0
  -16.7281  -28.6506   23.0355 C   0  0  0  0  0  0
  -26.4507  -31.6578   25.0709 C   0  0  0  0  0  0
  -25.3721  -31.3745   26.1423 C   0  0  0  0  0  0
  -27.0352  -30.2988   24.6212 C   0  0  0  0  0  0
  -27.6057  -32.4325   25.7481 C   0  0  0  0  0  0
  -27.5579  -37.1790   24.8468 C   0  0  0  0  0  0
  -21.4221  -29.3043   22.3651 N   0  0  0  0  0  0
  -26.4292  -37.3762   23.9410 N   0  0  0  0  0  0
  -24.7012  -31.0461   22.0929 N   0  0  0  0  0  0
  -23.4203  -28.8136   23.3022 O   0  0  0  0  0  0
  -28.3059  -26.3251   20.1293 O   0  0  0  0  0  0
  -26.5640  -34.8916   22.4657 O   0  0  0  0  0  0
  -23.5481  -32.1349   23.7226 O   0  0  0  0  0  0
  -29.8494  -20.1253   20.9290 C   0  0  0  0  0  0
  -29.5191  -18.7771   20.4483 C   0  0  0  0  0  0
  -28.3941  -19.0438   19.6812 C   0  0  0  0  0  0
  -28.9802  -21.0857   20.4097 C   0  0  0  0  0  0
  -27.5122  -18.1376   18.9417 C   0  0  0  0  0  0
  -28.3870  -23.5827   20.0684 C   0  0  0  0  0  0
  -26.4155  -18.7516   18.0836 C   0  0  0  0  0  0
  -30.3454  -17.4095   20.7247 C   0  0  0  0  0  0
  -28.1849  -24.9937   20.8428 C   0  0  0  0  0  0
  -28.9192  -22.4652   20.7175 N   0  0  0  0  0  0
  -29.8460  -15.9559   20.6314 N   0  0  0  0  0  0
  -27.6057  -16.9091   19.0089 O   0  0  0  0  0  0
  -28.0411  -23.5161   18.8853 O   0  0  0  0  0  0
  -28.0838  -20.4094   19.6385 O   0  0  0  0  0  0
  -31.4699  -12.6243   19.1663 H   0  0  0  0  0  0
  -30.3911  -11.5217   19.9751 H   0  0  0  0  0  0
  -29.7999  -11.7220   17.5358 H   0  0  0  0  0  0
  -29.6231  -13.4516   17.7023 H   0  0  0  0  0  0
  -27.9069  -11.2756   18.9348 H   0  0  0  0  0  0
  -27.3759  -12.4924   17.8040 H   0  0  0  0  0  0
  -27.6203  -14.2489   19.4433 H   0  0  0  0  0  0
  -28.7310  -12.2126   21.4357 H   0  0  0  0  0  0
  -28.4078  -13.8975   21.7725 H   0  0  0  0  0  0
  -25.2769   -9.5688   22.4769 H   0  0  0  0  0  0
  -24.0012   -7.4634   22.7473 H   0  0  0  0  0  0
  -21.0851   -8.8780   19.8956 H   0  0  0  0  0  0
  -22.3705  -10.9684   19.6177 H   0  0  0  0  0  0
  -21.2004   -7.6151   23.9716 H   0  0  0  0  0  0
  -21.1480   -6.0527   25.9079 H   0  0  0  0  0  0
  -22.0596   -2.7611   23.2847 H   0  0  0  0  0  0
  -22.4094  -11.9878   22.4820 H   0  0  0  0  0  0
  -21.1086  -13.1233   22.2644 H   0  0  0  0  0  0
  -24.6373  -15.8348   20.4871 H   0  0  0  0  0  0
  -26.2393  -15.6213   19.9871 H   0  0  0  0  0  0
  -26.7211  -32.5381   23.1042 H   0  0  0  0  0  0
  -25.0079  -33.9676   25.0376 H   0  0  0  0  0  0
  -22.7299  -31.2944   21.3873 H   0  0  0  0  0  0
  -23.3757  -35.9599   23.3307 H   0  0  0  0  0  0
  -24.3574  -36.8892   22.2055 H   0  0  0  0  0  0
  -23.7243  -37.6471   23.6665 H   0  0  0  0  0  0
  -26.1204  -31.5146   20.6041 H   0  0  0  0  0  0
  -26.8566  -30.8092   22.0110 H   0  0  0  0  0  0
  -28.1331  -28.9098   21.1944 H   0  0  0  0  0  0
  -25.9781  -25.8581   19.0474 H   0  0  0  0  0  0
  -23.9734  -27.2800   19.0217 H   0  0  0  0  0  0
  -23.7824  -30.5718   19.3987 H   0  0  0  0  0  0
  -22.7711  -29.2343   19.8520 H   0  0  0  0  0  0
  -25.1307  -36.1897   25.0817 H   0  0  0  0  0  0
  -20.9989  -28.3283   24.1388 H   0  0  0  0  0  0
  -20.5682  -26.2315   23.3619 H   0  0  0  0  0  0
  -21.6650  -26.7441   22.1203 H   0  0  0  0  0  0
  -19.6920  -25.6293   21.1250 H   0  0  0  0  0  0
  -19.6698  -27.3192   20.6745 H   0  0  0  0  0  0
  -17.4208  -26.6686   21.4022 H   0  0  0  0  0  0
  -18.0330  -26.0080   22.9021 H   0  0  0  0  0  0
  -19.7947  -30.7282   24.2253 H   0  0  0  0  0  0
  -17.5024  -31.6273   24.5163 H   0  0  0  0  0  0
  -15.5358  -30.2986   23.7668 H   0  0  0  0  0  0
  -15.8680  -28.0821   22.7078 H   0  0  0  0  0  0
  -24.5904  -30.7083   25.7754 H   0  0  0  0  0  0
  -24.8903  -32.2923   26.4807 H   0  0  0  0  0  0
  -25.8028  -30.8954   27.0224 H   0  0  0  0  0  0
  -26.2936  -29.6731   24.1230 H   0  0  0  0  0  0
  -27.4020  -29.7258   25.4737 H   0  0  0  0  0  0
  -27.8820  -30.4254   23.9464 H   0  0  0  0  0  0
  -27.2664  -33.3640   26.2023 H   0  0  0  0  0  0
  -28.3880  -32.6863   25.0315 H   0  0  0  0  0  0
  -28.0708  -31.8472   26.5422 H   0  0  0  0  0  0
  -28.2601  -38.0083   24.7503 H   0  0  0  0  0  0
  -28.1071  -36.2612   24.6308 H   0  0  0  0  0  0
  -27.2294  -37.1451   25.8871 H   0  0  0  0  0  0
  -20.9412  -29.8750   21.6837 H   0  0  0  0  0  0
  -26.0168  -38.2836   24.1410 H   0  0  0  0  0  0
  -30.6704  -20.3631   21.5915 H   0  0  0  0  0  0
  -25.6593  -19.2123   18.7181 H   0  0  0  0  0  0
  -25.9380  -17.9893   17.4693 H   0  0  0  0  0  0
  -26.8337  -19.5147   17.4282 H   0  0  0  0  0  0
  -30.7514  -17.5107   21.7319 H   0  0  0  0  0  0
  -31.2169  -17.4750   20.0720 H   0  0  0  0  0  0
  -28.9119  -25.0173   21.6543 H   0  0  0  0  0  0
  -27.2133  -24.9449   21.3357 H   0  0  0  0  0  0
  -29.3104  -22.6940   21.6209 H   0  0  0  0  0  0
  -28.8490  -15.8271   20.7200 H   0  0  0  0  0  0
  1 25  1  0  0  0
  1 30  2  0  0  0
  1 81  1  0  0  0
  2  3  1  0  0  0
  2 25  1  0  0  0
  2 85  1  0  0  0
  2 86  1  0  0  0
  3  4  1  0  0  0
  3 87  1  0  0  0
  3 88  1  0  0  0
  4  5  1  0  0  0
  4 89  1  0  0  0
  4 90  1  0  0  0
  5  6  1  0  0  0
  5 26  1  0  0  0
  5 91  1  0  0  0
  6 25  1  0  0  0
  6 92  1  0  0  0
  6 93  1  0  0  0
  7  8  2  0  0  0
  7 26  1  0  0  0
  7 29  1  0  0  0
  8  9  1  0  0  0
  8 22  1  0  0  0
  9 10  1  0  0  0
  9 27  2  0  0  0
 10 11  2  0  0  0
 10 15  1  0  0  0
 11 12  1  0  0  0
 11 94  1  0  0  0
 12 13  2  0  0  0
 12 95  1  0  0  0
 13 14  1  0  0  0
 13 31  1  0  0  0
 14 15  2  0  0  0
 14 96  1  0  0  0
 15 97  1  0  0  0
 16 17  2  0  0  0
 16 21  1  0  0  0
 16 31  1  0  0  0
 17 18  1  0  0  0
 17 98  1  0  0  0
 18 19  2  0  0  0
 18 99  1  0  0  0
 19 20  1  0  0  0
 19 24  1  0  0  0
 20 21  2  0  0  0
 20100  1  0  0  0
 21 23  1  0  0  0
 22 28  1  0  0  0
 22 32  2  0  0  0
 26 27  1  0  0  0
 28101  1  0  0  0
 28102  1  0  0  0
 29103  1  0  0  0
 29104  1  0  0  0
 33 34  1  0  0  0
 33 66  1  0  0  0
 33 70  2  0  0  0
 34 36  1  0  0  0
 34 59  1  0  0  0
 34105  1  0  0  0
 35 44  2  0  0  0
 35 45  1  0  0  0
 35 68  1  0  0  0
 36 56  1  0  0  0
 36106  1  0  0  0
 37 39  1  0  0  0
 37 47  1  0  0  0
 37 66  1  0  0  0
 37107  1  0  0  0
 38 43  2  0  0  0
 38 46  1  0  0  0
 38 47  1  0  0  0
 39 64  1  0  0  0
 39 67  2  0  0  0
 40 52  1  0  0  0
 40 53  2  0  0  0
 40 58  1  0  0  0
 41108  1  0  0  0
 41109  1  0  0  0
 41110  1  0  0  0
 41 48  1  0  0  0
 42 43  1  0  0  0
 42 66  1  0  0  0
 42111  1  0  0  0
 42112  1  0  0  0
 43 44  1  0  0  0
 44113  1  0  0  0
 45 46  2  0  0  0
 45114  1  0  0  0
 46115  1  0  0  0
 47116  1  0  0  0
 47117  1  0  0  0
 48 56  1  0  0  0
 48 65  1  0  0  0
 48118  1  0  0  0
 49 50  1  0  0  0
 49 53  1  0  0  0
 49 64  1  0  0  0
 49119  1  0  0  0
 50 51  1  0  0  0
 50120  1  0  0  0
 50121  1  0  0  0
 51 52  1  0  0  0
 51122  1  0  0  0
 51123  1  0  0  0
 52124  1  0  0  0
 52125  1  0  0  0
 53 54  1  0  0  0
 54 55  2  0  0  0
 54126  1  0  0  0
 55 57  1  0  0  0
 55127  1  0  0  0
 56 69  2  0  0  0
 57 58  2  0  0  0
 57128  1  0  0  0
 58129  1  0  0  0
 59 60  1  0  0  0
 59 61  1  0  0  0
 59 62  1  0  0  0
 60130  1  0  0  0
 60131  1  0  0  0
 60132  1  0  0  0
 61133  1  0  0  0
 61134  1  0  0  0
 61135  1  0  0  0
 62136  1  0  0  0
 62137  1  0  0  0
 62138  1  0  0  0
 63 65  1  0  0  0
 63139  1  0  0  0
 63140  1  0  0  0
 63141  1  0  0  0
 64142  1  0  0  0
 65143  1  0  0  0
 68 79  1  0  0  0
 71 72  1  0  0  0
 71 74  2  0  0  0
 71144  1  0  0  0
 72 73  2  0  0  0
 72 78  1  0  0  0
 73 75  1  0  0  0
 73 84  1  0  0  0
 74 80  1  0  0  0
 74 84  1  0  0  0
 75 77  1  0  0  0
 75 82  2  0  0  0
 76 79  1  0  0  0
 76 80  1  0  0  0
 76 83  2  0  0  0
 77145  1  0  0  0
 77146  1  0  0  0
 77147  1  0  0  0
 78 81  1  0  0  0
 78148  1  0  0  0
 78149  1  0  0  0
 79150  1  0  0  0
 79151  1  0  0  0
 80152  1  0  0  0
 81153  1  0  0  0
M  ISO  4   1 100  68 101  79 101  81 100
M  END
> <chiral flag>
0

> <version>
0

> <s_m_source_file>
/data/baiqing/PycharmProjects/Reinvent-master-3.2/result/LINK_invent/BTK/process_docking_weight1_custom_product_contain_oxygen_bond_distance_aromatic_linkinvent_7_9_3/rearranged_h_0158.sdf

> <i_m_source_file_index>
54

> <r_mmod_Potential_Energy-OPLS-2005>
81.6350936889648

> <r_mmod_Stretch_Energy-OPLS-2005>
136.811889648438

> <r_mmod_Bend_Energy-OPLS-2005>
196.418685913086

> <r_mmod_Torsional_Energy-OPLS-2005>
232.690170288086

> <r_mmod_Improper_Torsional_Energy-OPLS-2005>
5.14328336715698

> <r_mmod_Van_der_Waal_Energy-OPLS-2005>
103.85279083252

> <r_mmod_Electrostatic_Energy-OPLS-2005>
-460.687194824219

> <r_mmod_Solvation_Energy-OPLS-2005>
-238.043670654297

> <b_mmod_Minimization_Converged-OPLS-2005>
0

> <r_mmod_RMS_Derivative-OPLS-2005>
0.603120386600494

$$$$
54
                    3D
 Structure written by MMmdl.
161169  0  0  1  0            999 V2000
  -30.5720  -14.7995   20.4646 C   0  0  0  0  0  0
  -30.4419  -12.4911   19.4767 C   0  0  0  0  0  0
  -29.5136  -12.5141   18.2403 C   0  0  0  0  0  0
  -28.0413  -12.3237   18.6554 C   0  0  0  0  0  0
  -27.6394  -13.2290   19.8488 C   0  0  2  0  0  0
  -28.6842  -13.1731   20.9847 C   0  0  0  0  0  0
  -25.2500  -13.8188   20.5685 C   0  0  0  0  0  0
  -24.1797  -13.0434   20.9218 C   0  0  0  0  0  0
  -24.6388  -11.6911   20.8756 C   0  0  0  0  0  0
  -23.9065  -10.4289   21.0416 C   0  0  0  0  0  0
  -24.3618   -9.4204   21.9188 C   0  0  0  0  0  0
  -23.6295   -8.2239   22.0751 C   0  0  0  0  0  0
  -22.4278   -8.0277   21.3544 C   0  0  0  0  0  0
  -21.9915   -9.0252   20.4644 C   0  0  0  0  0  0
  -22.7241  -10.2132   20.3058 C   0  0  0  0  0  0
  -21.6852   -6.0735   22.5277 C   0  0  0  0  0  0
  -21.4013   -6.5639   23.8210 C   0  0  0  0  0  0
  -21.3659   -5.6794   24.9173 C   0  0  0  0  0  0
  -21.6047   -4.3056   24.7225 C   0  0  0  0  0  0
  -21.8818   -3.8147   23.4346 C   0  0  0  0  0  0
  -21.9193   -4.6963   22.3402 C   0  0  0  0  0  0
  -22.7819  -13.5216   21.1880 C   0  0  0  0  0  0
  -22.1660   -4.2149   21.0979 F   0  0  0  0  0  0
  -21.5631   -3.4536   25.7738 F   0  0  0  0  0  0
  -29.9793  -13.5521   20.4038 N   0  0  0  0  0  0
  -26.2919  -12.9385   20.3267 N   0  0  0  0  0  0
  -25.9317  -11.6533   20.5748 N   0  0  0  0  0  0
  -22.0471  -12.8199   22.0435 N   0  0  0  0  0  0
  -25.4185  -15.1911   20.4069 N   0  0  0  0  0  0
  -31.7668  -14.9073   20.1652 O   0  0  0  0  0  0
  -21.6640   -6.8877   21.4239 O   0  0  0  0  0  0
  -22.3505  -14.5526   20.6730 O   0  0  0  0  0  0
  -24.6336  -31.8528   23.1955 C   0  0  0  0  0  0
  -25.9153  -32.4742   23.8308 C   0  0  1  0  0  0
  -27.2179  -27.2262   20.1456 C   0  0  0  0  0  0
  -25.5934  -33.8545   24.2222 N   0  0  0  0  0  0
  -23.4326  -30.4747   21.5384 C   0  0  2  0  0  0
  -24.8814  -28.9158   20.1091 C   0  0  0  0  0  0
  -22.7526  -29.4586   22.4887 C   0  0  0  0  0  0
  -18.0303  -28.1399   22.8493 C   0  0  0  0  0  0
  -24.1483  -36.7271   23.2643 C   0  0  0  0  0  0
  -25.9816  -30.7537   21.3829 C   0  0  0  0  0  0
  -26.0525  -29.3714   20.7292 C   0  0  0  0  0  0
  -27.2224  -28.5388   20.7396 C   0  0  0  0  0  0
  -26.0288  -26.8546   19.4795 C   0  0  0  0  0  0
  -24.8764  -27.6658   19.4720 C   0  0  0  0  0  0
  -23.6537  -29.8084   20.1543 C   0  0  0  0  0  0
  -25.4119  -36.3060   24.0319 C   0  0  1  0  0  0
  -20.5911  -28.3708   23.1267 C   0  0  2  0  0  0
  -20.6790  -26.9419   22.5411 C   0  0  0  0  0  0
  -19.5759  -26.6392   21.5220 C   0  0  0  0  0  0
  -18.1940  -26.7942   22.1632 C   0  0  0  0  0  0
  -19.1560  -28.8873   23.2871 C   0  0  0  0  0  0
  -18.9477  -30.1478   23.8882 C   0  0  0  0  0  0
  -17.6473  -30.6595   24.0577 C   0  0  0  0  0  0
  -25.9068  -34.9437   23.5077 C   0  0  0  0  0  0
  -16.5364  -29.9092   23.6343 C   0  0  0  0  0  0
  -16.7288  -28.6515   23.0354 C   0  0  0  0  0  0
  -26.4508  -31.6584   25.0716 C   0  0  0  0  0  0
  -25.3711  -31.3760   26.1423 C   0  0  0  0  0  0
  -27.0369  -30.2998   24.6232 C   0  0  0  0  0  0
  -27.6050  -32.4337   25.7495 C   0  0  0  0  0  0
  -27.5574  -37.1799   24.8472 C   0  0  0  0  0  0
  -21.4226  -29.3042   22.3645 N   0  0  0  0  0  0
  -26.4290  -37.3768   23.9406 N   0  0  0  0  0  0
  -24.7014  -31.0478   22.0940 N   0  0  0  0  0  0
  -23.4219  -28.8134   23.3005 O   0  0  0  0  0  0
  -28.2952  -26.2982   20.1867 O   0  0  0  0  0  0
  -26.5647  -34.8922   22.4649 O   0  0  0  0  0  0
  -23.5476  -32.1364   23.7225 O   0  0  0  0  0  0
  -31.0487  -19.4333   20.8442 C   0  0  0  0  0  0
  -29.8265  -20.0428   20.5587 C   0  0  0  0  0  0
  -29.9280  -17.3882   20.6166 C   0  0  0  0  0  0
  -28.0541  -24.8860   20.3567 C   0  0  0  0  0  0
  -28.9546  -23.8228   20.2771 C   0  0  0  0  0  0
  -28.5966  -22.3490   20.4629 C   0  0  0  0  0  0
  -33.5804  -19.1071   19.1942 C   0  0  0  0  0  0
  -32.7564  -21.4704   19.0335 C   0  0  0  0  0  0
  -34.6498  -20.9055   20.5669 C   0  0  0  0  0  0
  -32.3292  -20.1638   21.1726 C   0  0  0  0  0  0
  -33.3126  -20.4001   19.9915 C   0  0  0  0  0  0
  -31.0890  -18.0048   20.8692 N   0  0  0  0  0  0
  -29.6503  -21.4470   20.4335 N   0  0  0  0  0  0
  -29.7354  -15.9048   20.6385 N   0  0  0  0  0  0
  -27.4433  -21.9515   20.6391 O   0  0  0  0  0  0
  -30.2384  -24.1108   20.0154 O   0  0  0  0  0  0
  -28.6619  -18.6798   20.3586 S   0  0  0  0  0  0
  -31.4782  -12.6392   19.1687 H   0  0  0  0  0  0
  -30.4113  -11.5167   19.9667 H   0  0  0  0  0  0
  -29.8055  -11.7360   17.5334 H   0  0  0  0  0  0
  -29.6264  -13.4632   17.7142 H   0  0  0  0  0  0
  -27.9111  -11.2761   18.9291 H   0  0  0  0  0  0
  -27.3806  -12.4999   17.8057 H   0  0  0  0  0  0
  -27.6274  -14.2462   19.4584 H   0  0  0  0  0  0
  -28.7344  -12.1732   21.4181 H   0  0  0  0  0  0
  -28.4081  -13.8437   21.8002 H   0  0  0  0  0  0
  -25.2763   -9.5677   22.4759 H   0  0  0  0  0  0
  -24.0002   -7.4629   22.7465 H   0  0  0  0  0  0
  -21.0846   -8.8775   19.8949 H   0  0  0  0  0  0
  -22.3703  -10.9673   19.6165 H   0  0  0  0  0  0
  -21.2003   -7.6145   23.9714 H   0  0  0  0  0  0
  -21.1481   -6.0522   25.9077 H   0  0  0  0  0  0
  -22.0598   -2.7608   23.2846 H   0  0  0  0  0  0
  -22.4086  -11.9853   22.4811 H   0  0  0  0  0  0
  -21.1089  -13.1218   22.2652 H   0  0  0  0  0  0
  -24.6423  -15.8369   20.5014 H   0  0  0  0  0  0
  -26.2437  -15.6264   20.0171 H   0  0  0  0  0  0
  -26.7225  -32.5378   23.1051 H   0  0  0  0  0  0
  -25.0082  -33.9668   25.0367 H   0  0  0  0  0  0
  -22.7307  -31.2984   21.3915 H   0  0  0  0  0  0
  -23.3744  -35.9605   23.3321 H   0  0  0  0  0  0
  -24.3580  -36.8883   22.2058 H   0  0  0  0  0  0
  -23.7236  -37.6475   23.6662 H   0  0  0  0  0  0
  -26.1297  -31.5100   20.6107 H   0  0  0  0  0  0
  -26.8571  -30.8049   22.0188 H   0  0  0  0  0  0
  -28.1159  -28.8817   21.2425 H   0  0  0  0  0  0
  -25.9732  -25.9000   18.9761 H   0  0  0  0  0  0
  -23.9839  -27.3142   18.9726 H   0  0  0  0  0  0
  -23.7815  -30.5851   19.3990 H   0  0  0  0  0  0
  -22.7708  -29.2448   19.8464 H   0  0  0  0  0  0
  -25.1304  -36.1910   25.0813 H   0  0  0  0  0  0
  -21.0018  -28.3287   24.1384 H   0  0  0  0  0  0
  -20.5705  -26.2315   23.3618 H   0  0  0  0  0  0
  -21.6660  -26.7438   22.1203 H   0  0  0  0  0  0
  -19.6916  -25.6300   21.1256 H   0  0  0  0  0  0
  -19.6699  -27.3205   20.6750 H   0  0  0  0  0  0
  -17.4217  -26.6701   21.4026 H   0  0  0  0  0  0
  -18.0326  -26.0080   22.9024 H   0  0  0  0  0  0
  -19.7952  -30.7311   24.2226 H   0  0  0  0  0  0
  -17.5026  -31.6272   24.5186 H   0  0  0  0  0  0
  -15.5367  -30.2993   23.7674 H   0  0  0  0  0  0
  -15.8689  -28.0841   22.7051 H   0  0  0  0  0  0
  -24.5882  -30.7116   25.7752 H   0  0  0  0  0  0
  -24.8906  -32.2942   26.4809 H   0  0  0  0  0  0
  -25.8010  -30.8964   27.0222 H   0  0  0  0  0  0
  -26.2969  -29.6738   24.1235 H   0  0  0  0  0  0
  -27.4029  -29.7279   25.4768 H   0  0  0  0  0  0
  -27.8855  -30.4282   23.9509 H   0  0  0  0  0  0
  -27.2645  -33.3646   26.2041 H   0  0  0  0  0  0
  -28.3873  -32.6883   25.0333 H   0  0  0  0  0  0
  -28.0697  -31.8482   26.5435 H   0  0  0  0  0  0
  -28.2609  -38.0080   24.7502 H   0  0  0  0  0  0
  -28.1049  -36.2613   24.6318 H   0  0  0  0  0  0
  -27.2296  -37.1479   25.8878 H   0  0  0  0  0  0
  -20.9414  -29.8753   21.6838 H   0  0  0  0  0  0
  -26.0160  -38.2841   24.1400 H   0  0  0  0  0  0
  -27.0156  -24.6860   20.5832 H   0  0  0  0  0  0
  -34.3344  -19.2622   18.4218 H   0  0  0  0  0  0
  -32.6824  -18.7449   18.6929 H   0  0  0  0  0  0
  -33.9356  -18.3071   19.8453 H   0  0  0  0  0  0
  -33.4561  -21.6796   18.2232 H   0  0  0  0  0  0
  -32.5710  -22.4133   19.5496 H   0  0  0  0  0  0
  -31.8200  -21.1529   18.5737 H   0  0  0  0  0  0
  -35.3728  -21.1178   19.7785 H   0  0  0  0  0  0
  -35.1022  -20.1691   21.2328 H   0  0  0  0  0  0
  -34.5162  -21.8239   21.1406 H   0  0  0  0  0  0
  -32.8503  -19.5974   21.9465 H   0  0  0  0  0  0
  -32.1021  -21.1161   21.6538 H   0  0  0  0  0  0
  -30.5172  -21.9589   20.3279 H   0  0  0  0  0  0
  -28.7722  -15.6348   20.7472 H   0  0  0  0  0  0
  -30.2919  -25.0527   19.9136 H   0  0  0  0  0  0
  1 25  1  0  0  0
  1 30  2  0  0  0
  1 84  1  0  0  0
  2  3  1  0  0  0
  2 25  1  0  0  0
  2 88  1  0  0  0
  2 89  1  0  0  0
  3  4  1  0  0  0
  3 90  1  0  0  0
  3 91  1  0  0  0
  4  5  1  0  0  0
  4 92  1  0  0  0
  4 93  1  0  0  0
  5  6  1  0  0  0
  5 26  1  0  0  0
  5 94  1  0  0  0
  6 25  1  0  0  0
  6 95  1  0  0  0
  6 96  1  0  0  0
  7  8  2  0  0  0
  7 26  1  0  0  0
  7 29  1  0  0  0
  8  9  1  0  0  0
  8 22  1  0  0  0
  9 10  1  0  0  0
  9 27  2  0  0  0
 10 11  2  0  0  0
 10 15  1  0  0  0
 11 12  1  0  0  0
 11 97  1  0  0  0
 12 13  2  0  0  0
 12 98  1  0  0  0
 13 14  1  0  0  0
 13 31  1  0  0  0
 14 15  2  0  0  0
 14 99  1  0  0  0
 15100  1  0  0  0
 16 17  2  0  0  0
 16 21  1  0  0  0
 16 31  1  0  0  0
 17 18  1  0  0  0
 17101  1  0  0  0
 18 19  2  0  0  0
 18102  1  0  0  0
 19 20  1  0  0  0
 19 24  1  0  0  0
 20 21  2  0  0  0
 20103  1  0  0  0
 21 23  1  0  0  0
 22 28  1  0  0  0
 22 32  2  0  0  0
 26 27  1  0  0  0
 28104  1  0  0  0
 28105  1  0  0  0
 29106  1  0  0  0
 29107  1  0  0  0
 33 34  1  0  0  0
 33 66  1  0  0  0
 33 70  2  0  0  0
 34 36  1  0  0  0
 34 59  1  0  0  0
 34108  1  0  0  0
 35 44  2  0  0  0
 35 45  1  0  0  0
 35 68  1  0  0  0
 36 56  1  0  0  0
 36109  1  0  0  0
 37 39  1  0  0  0
 37 47  1  0  0  0
 37 66  1  0  0  0
 37110  1  0  0  0
 38 43  2  0  0  0
 38 46  1  0  0  0
 38 47  1  0  0  0
 39 64  1  0  0  0
 39 67  2  0  0  0
 40 52  1  0  0  0
 40 53  2  0  0  0
 40 58  1  0  0  0
 41111  1  0  0  0
 41112  1  0  0  0
 41113  1  0  0  0
 41 48  1  0  0  0
 42 43  1  0  0  0
 42 66  1  0  0  0
 42114  1  0  0  0
 42115  1  0  0  0
 43 44  1  0  0  0
 44116  1  0  0  0
 45 46  2  0  0  0
 45117  1  0  0  0
 46118  1  0  0  0
 47119  1  0  0  0
 47120  1  0  0  0
 48 56  1  0  0  0
 48 65  1  0  0  0
 48121  1  0  0  0
 49 50  1  0  0  0
 49 53  1  0  0  0
 49 64  1  0  0  0
 49122  1  0  0  0
 50 51  1  0  0  0
 50123  1  0  0  0
 50124  1  0  0  0
 51 52  1  0  0  0
 51125  1  0  0  0
 51126  1  0  0  0
 52127  1  0  0  0
 52128  1  0  0  0
 53 54  1  0  0  0
 54 55  2  0  0  0
 54129  1  0  0  0
 55 57  1  0  0  0
 55130  1  0  0  0
 56 69  2  0  0  0
 57 58  2  0  0  0
 57131  1  0  0  0
 58132  1  0  0  0
 59 60  1  0  0  0
 59 61  1  0  0  0
 59 62  1  0  0  0
 60133  1  0  0  0
 60134  1  0  0  0
 60135  1  0  0  0
 61136  1  0  0  0
 61137  1  0  0  0
 61138  1  0  0  0
 62139  1  0  0  0
 62140  1  0  0  0
 62141  1  0  0  0
 63 65  1  0  0  0
 63142  1  0  0  0
 63143  1  0  0  0
 63144  1  0  0  0
 64145  1  0  0  0
 65146  1  0  0  0
 68 74  1  0  0  0
 71 72  2  0  0  0
 71 80  1  0  0  0
 71 82  1  0  0  0
 72 83  1  0  0  0
 72 87  1  0  0  0
 73 82  2  0  0  0
 73 84  1  0  0  0
 73 87  1  0  0  0
 74 75  2  0  0  0
 74147  1  0  0  0
 75 76  1  0  0  0
 75 86  1  0  0  0
 76 83  1  0  0  0
 76 85  2  0  0  0
 77148  1  0  0  0
 77149  1  0  0  0
 77150  1  0  0  0
 77 81  1  0  0  0
 78 81  1  0  0  0
 78151  1  0  0  0
 78152  1  0  0  0
 78153  1  0  0  0
 79 81  1  0  0  0
 79154  1  0  0  0
 79155  1  0  0  0
 79156  1  0  0  0
 80 81  1  0  0  0
 80157  1  0  0  0
 80158  1  0  0  0
 83159  1  0  0  0
 84160  1  0  0  0
 86161  1  0  0  0
M  ISO  4   1 100  68 101  74 101  84 100
M  END
> <chiral flag>
0

> <version>
0

> <s_m_source_file>
/data/baiqing/PycharmProjects/Reinvent-master-3.2/result/LINK_invent/BTK/process_docking_weight1_custom_product_contain_oxygen_bond_distance_aromatic_linkinvent_7_9_3/rearranged_h_0158.sdf

> <i_m_source_file_index>
55

> <r_mmod_Potential_Energy-OPLS-2005>
97.8925476074219

> <r_mmod_Stretch_Energy-OPLS-2005>
129.880722045898

> <r_mmod_Bend_Energy-OPLS-2005>
194.783126831055

> <r_mmod_Torsional_Energy-OPLS-2005>
194.114364624023

> <r_mmod_Improper_Torsional_Energy-OPLS-2005>
5.60722255706787

> <r_mmod_Van_der_Waal_Energy-OPLS-2005>
114.119186401367

> <r_mmod_Electrostatic_Energy-OPLS-2005>
-419.686614990234

> <r_mmod_Solvation_Energy-OPLS-2005>
-230.908920288086

> <b_mmod_Minimization_Converged-OPLS-2005>
0

> <r_mmod_RMS_Derivative-OPLS-2005>
1.28647816181183

$$$$
55
                    3D
 Structure written by MMmdl.
165175  0  0  1  0            999 V2000
  -31.7276  -15.4615   20.9063 C   0  0  0  0  0  0
  -30.7752  -14.1998   18.9858 C   0  0  0  0  0  0
  -29.5097  -13.3253   18.0942 C   0  0  0  0  0  0
  -27.8474  -13.0768   18.5169 C   0  0  0  0  0  0
  -26.9244  -14.0271   19.7042 C   0  0  2  0  0  0
  -27.6479  -15.3080   21.0433 C   0  0  0  0  0  0
  -24.8822  -13.9464   20.7033 C   0  0  0  0  0  0
  -23.9704  -13.0287   21.0165 C   0  0  0  0  0  0
  -24.5789  -11.7389   20.8870 C   0  0  0  0  0  0
  -23.9218  -10.4291   21.0210 C   0  0  0  0  0  0
  -24.3790   -9.4272   21.9060 C   0  0  0  0  0  0
  -23.6450   -8.2292   22.0698 C   0  0  0  0  0  0
  -22.4413   -8.0260   21.3517 C   0  0  0  0  0  0
  -22.0056   -9.0151   20.4542 C   0  0  0  0  0  0
  -22.7395  -10.2002   20.2871 C   0  0  0  0  0  0
  -21.6912   -6.0746   22.5294 C   0  0  0  0  0  0
  -21.4063   -6.5653   23.8221 C   0  0  0  0  0  0
  -21.3673   -5.6800   24.9177 C   0  0  0  0  0  0
  -21.6043   -4.3060   24.7228 C   0  0  0  0  0  0
  -21.8815   -3.8150   23.4348 C   0  0  0  0  0  0
  -21.9211   -4.6968   22.3410 C   0  0  0  0  0  0
  -22.5681  -13.4232   21.2603 C   0  0  0  0  0  0
  -22.1672   -4.2151   21.0986 F   0  0  0  0  0  0
  -21.5608   -3.4543   25.7739 F   0  0  0  0  0  0
  -30.4876  -15.4049   20.3748 N   0  0  0  0  0  0
  -25.9505  -13.2409   20.3292 N   0  0  0  0  0  0
  -25.8580  -11.8783   20.4996 N   0  0  0  0  0  0
  -21.8890  -12.7020   22.1292 N   0  0  0  0  0  0
  -24.8326  -15.3365   20.6003 N   0  0  0  0  0  0
  -32.6364  -14.8639   20.3504 O   0  0  0  0  0  0
  -21.6727   -6.8887   21.4259 O   0  0  0  0  0  0
  -22.1052  -14.4371   20.7336 O   0  0  0  0  0  0
  -24.7639  -31.6950   23.0830 C   0  0  0  0  0  0
  -25.9802  -32.3964   23.7680 C   0  0  1  0  0  0
  -27.1471  -25.8368   20.2251 C   0  0  0  0  0  0
  -25.6028  -33.7842   24.1470 N   0  0  0  0  0  0
  -23.6151  -30.2677   21.4620 C   0  0  2  0  0  0
  -25.0454  -28.4274   20.1294 C   0  0  0  0  0  0
  -22.8075  -29.3779   22.4518 C   0  0  0  0  0  0
  -18.0375  -28.1457   22.8411 C   0  0  0  0  0  0
  -24.1496  -36.6942   23.2677 C   0  0  0  0  0  0
  -26.2157  -30.1330   21.4681 C   0  0  0  0  0  0
  -26.2467  -28.6054   20.8204 C   0  0  0  0  0  0
  -27.2474  -27.3690   20.8133 C   0  0  0  0  0  0
  -25.9283  -26.0894   19.4743 C   0  0  0  0  0  0
  -24.9761  -27.2012   19.4313 C   0  0  0  0  0  0
  -23.8983  -29.4966   20.1275 C   0  0  0  0  0  0
  -25.4175  -36.2605   24.0225 C   0  0  1  0  0  0
  -20.6043  -28.3834   23.1015 C   0  0  2  0  0  0
  -20.6796  -26.9424   22.5424 C   0  0  0  0  0  0
  -19.5792  -26.6340   21.5224 C   0  0  0  0  0  0
  -18.1974  -26.7969   22.1599 C   0  0  0  0  0  0
  -19.1659  -28.8989   23.2672 C   0  0  0  0  0  0
  -18.9558  -30.1557   23.8748 C   0  0  0  0  0  0
  -17.6539  -30.6620   24.0535 C   0  0  0  0  0  0
  -25.9203  -34.9017   23.4753 C   0  0  0  0  0  0
  -16.5424  -29.9092   23.6368 C   0  0  0  0  0  0
  -16.7353  -28.6521   23.0378 C   0  0  0  0  0  0
  -26.4725  -31.6378   25.0645 C   0  0  0  0  0  0
  -25.3589  -31.3910   26.1116 C   0  0  0  0  0  0
  -27.0795  -30.2657   24.7109 C   0  0  0  0  0  0
  -27.6011  -32.4450   25.7502 C   0  0  0  0  0  0
  -27.5534  -37.1621   24.8468 C   0  0  0  0  0  0
  -21.4661  -29.2918   22.3250 N   0  0  0  0  0  0
  -26.4230  -37.3461   23.9411 N   0  0  0  0  0  0
  -24.9031  -30.7538   22.0558 N   0  0  0  0  0  0
  -23.4153  -28.7518   23.3219 O   0  0  0  0  0  0
  -27.9558  -24.2280   20.2125 O   0  0  0  0  0  0
  -26.5969  -34.8767   22.4460 O   0  0  0  0  0  0
  -23.6501  -32.0429   23.5270 O   0  0  0  0  0  0
  -29.4267  -14.2401   22.1398 C   0  0  0  0  0  0
  -29.0815  -13.7817   20.5461 C   0  0  0  0  0  0
  -29.4209  -15.8671   22.5393 C   0  0  0  0  0  0
  -28.6916  -15.7055   19.1855 C   0  0  0  0  0  0
  -29.1461  -17.2004   21.5781 C   0  0  0  0  0  0
  -28.7393  -17.4415   20.0463 C   0  0  0  0  0  0
  -31.0420  -19.6761   20.6415 C   0  0  0  0  0  0
  -29.2683  -18.6316   22.1134 C   0  0  0  0  0  0
  -33.2509  -19.6674   23.0425 C   0  0  0  0  0  0
  -32.6879  -18.3028   23.4291 C   0  0  0  0  0  0
  -28.6988  -19.6971   19.9618 C   0  0  1  0  0  0
  -32.2244  -18.7245   21.1066 C   0  0  1  0  0  0
  -33.4733  -19.5246   21.5495 C   0  0  0  0  0  0
  -32.2207  -16.3003   22.1300 C   0  0  0  0  0  0
  -27.8854  -22.0242   20.1475 C   0  0  0  0  0  0
  -29.7369  -19.5549   21.0297 N   0  0  0  0  0  0
  -31.9826  -17.7798   22.2458 N   0  0  0  0  0  0
  -31.3224  -20.5129   19.7758 O   0  0  0  0  0  0
  -33.6686  -20.7176   20.9852 F   0  0  0  0  0  0
  -34.5655  -18.7860   21.3356 F   0  0  0  0  0  0
  -31.3837  -14.7020   18.2302 H   0  0  0  0  0  0
  -31.3637  -13.3433   19.3289 H   0  0  0  0  0  0
  -29.9208  -12.3524   17.8245 H   0  0  0  0  0  0
  -29.4706  -13.8306   17.1277 H   0  0  0  0  0  0
  -27.7900  -12.0298   18.8150 H   0  0  0  0  0  0
  -27.2721  -13.0817   17.5909 H   0  0  0  0  0  0
  -26.4103  -14.6457   18.9623 H   0  0  0  0  0  0
  -27.2573  -14.9402   22.0066 H   0  0  0  0  0  0
  -27.0388  -16.2123   21.0015 H   0  0  0  0  0  0
  -25.2835   -9.5870   22.4758 H   0  0  0  0  0  0
  -24.0124   -7.4741   22.7500 H   0  0  0  0  0  0
  -21.0974   -8.8635   19.8880 H   0  0  0  0  0  0
  -22.3742  -10.9517   19.6017 H   0  0  0  0  0  0
  -21.2090   -7.6167   23.9725 H   0  0  0  0  0  0
  -21.1490   -6.0533   25.9078 H   0  0  0  0  0  0
  -22.0578   -2.7610   23.2845 H   0  0  0  0  0  0
  -22.3033  -11.8958   22.5725 H   0  0  0  0  0  0
  -20.9384  -12.9554   22.3564 H   0  0  0  0  0  0
  -23.9801  -15.8546   20.7822 H   0  0  0  0  0  0
  -25.5893  -15.9112   20.2528 H   0  0  0  0  0  0
  -26.7999  -32.4286   23.0485 H   0  0  0  0  0  0
  -24.9943  -33.8729   24.9473 H   0  0  0  0  0  0
  -22.9905  -31.1280   21.2117 H   0  0  0  0  0  0
  -23.3795  -35.9226   23.3203 H   0  0  0  0  0  0
  -24.3538  -36.8792   22.2119 H   0  0  0  0  0  0
  -23.7221  -37.6037   23.6912 H   0  0  0  0  0  0
  -26.5105  -30.8011   20.6579 H   0  0  0  0  0  0
  -27.0413  -30.2052   22.1615 H   0  0  0  0  0  0
  -28.1420  -27.5439   21.3938 H   0  0  0  0  0  0
  -25.6140  -25.2407   18.8831 H   0  0  0  0  0  0
  -24.0952  -27.0420   18.8251 H   0  0  0  0  0  0
  -24.1467  -30.2242   19.3541 H   0  0  0  0  0  0
  -22.9796  -29.0199   19.7824 H   0  0  0  0  0  0
  -25.1422  -36.1249   25.0709 H   0  0  0  0  0  0
  -21.0090  -28.3512   24.1160 H   0  0  0  0  0  0
  -20.5579  -26.2478   23.3753 H   0  0  0  0  0  0
  -21.6654  -26.7241   22.1299 H   0  0  0  0  0  0
  -19.6932  -25.6215   21.1346 H   0  0  0  0  0  0
  -19.6770  -27.3074   20.6700 H   0  0  0  0  0  0
  -17.4253  -26.6726   21.3994 H   0  0  0  0  0  0
  -18.0324  -26.0150   22.9023 H   0  0  0  0  0  0
  -19.8040  -30.7402   24.2059 H   0  0  0  0  0  0
  -17.5094  -31.6283   24.5169 H   0  0  0  0  0  0
  -15.5423  -30.2951   23.7779 H   0  0  0  0  0  0
  -15.8754  -28.0795   22.7175 H   0  0  0  0  0  0
  -24.5871  -30.7157   25.7404 H   0  0  0  0  0  0
  -24.8680  -32.3188   26.4062 H   0  0  0  0  0  0
  -25.7597  -30.9401   27.0203 H   0  0  0  0  0  0
  -26.3620  -29.5986   24.2331 H   0  0  0  0  0  0
  -27.4139  -29.7473   25.6104 H   0  0  0  0  0  0
  -27.9619  -30.3640   24.0789 H   0  0  0  0  0  0
  -27.2446  -33.3930   26.1548 H   0  0  0  0  0  0
  -28.4078  -32.6727   25.0521 H   0  0  0  0  0  0
  -28.0395  -31.8958   26.5845 H   0  0  0  0  0  0
  -28.2467  -37.9990   24.7514 H   0  0  0  0  0  0
  -28.1112  -36.2499   24.6293 H   0  0  0  0  0  0
  -27.2249  -37.1234   25.8868 H   0  0  0  0  0  0
  -21.0152  -29.8453   21.6099 H   0  0  0  0  0  0
  -25.9981  -38.2470   24.1442 H   0  0  0  0  0  0
  -29.6453  -13.4911   22.8870 H   0  0  0  0  0  0
  -29.1488  -12.7144   20.3667 H   0  0  0  0  0  0
  -29.6514  -16.0887   23.5715 H   0  0  0  0  0  0
  -28.4944  -15.6618   18.1233 H   0  0  0  0  0  0
  -29.8541  -18.7042   23.0265 H   0  0  0  0  0  0
  -28.2690  -18.9477   22.4148 H   0  0  0  0  0  0
  -34.1634  -19.9141   23.5870 H   0  0  0  0  0  0
  -32.5188  -20.4473   23.2503 H   0  0  0  0  0  0
  -32.0300  -18.3574   24.2970 H   0  0  0  0  0  0
  -33.5290  -17.6652   23.7112 H   0  0  0  0  0  0
  -29.1288  -19.7669   18.9596 H   0  0  0  0  0  0
  -32.4800  -18.1516   20.2141 H   0  0  0  0  0  0
  -31.9039  -15.8030   23.0467 H   0  0  0  0  0  0
  -33.3045  -16.1593   22.1309 H   0  0  0  0  0  0
  -27.3919  -21.9116   21.1117 H   0  0  0  0  0  0
  -27.0729  -21.9517   19.4246 H   0  0  0  0  0  0
  1 25  1  0  0  0
  1 30  2  0  0  0
  1 84  1  0  0  0
  2  3  1  0  0  0
  2 25  1  0  0  0
  2 91  1  0  0  0
  2 92  1  0  0  0
  3  4  1  0  0  0
  3 93  1  0  0  0
  3 94  1  0  0  0
  4  5  1  0  0  0
  4 95  1  0  0  0
  4 96  1  0  0  0
  5  6  1  0  0  0
  5 26  1  0  0  0
  5 97  1  0  0  0
  6 25  1  0  0  0
  6 98  1  0  0  0
  6 99  1  0  0  0
  7  8  2  0  0  0
  7 26  1  0  0  0
  7 29  1  0  0  0
  8  9  1  0  0  0
  8 22  1  0  0  0
  9 10  1  0  0  0
  9 27  2  0  0  0
 10 11  2  0  0  0
 10 15  1  0  0  0
 11 12  1  0  0  0
 11100  1  0  0  0
 12 13  2  0  0  0
 12101  1  0  0  0
 13 14  1  0  0  0
 13 31  1  0  0  0
 14 15  2  0  0  0
 14102  1  0  0  0
 15103  1  0  0  0
 16 17  2  0  0  0
 16 21  1  0  0  0
 16 31  1  0  0  0
 17 18  1  0  0  0
 17104  1  0  0  0
 18 19  2  0  0  0
 18105  1  0  0  0
 19 20  1  0  0  0
 19 24  1  0  0  0
 20 21  2  0  0  0
 20106  1  0  0  0
 21 23  1  0  0  0
 22 28  1  0  0  0
 22 32  2  0  0  0
 26 27  1  0  0  0
 28107  1  0  0  0
 28108  1  0  0  0
 29109  1  0  0  0
 29110  1  0  0  0
 33 34  1  0  0  0
 33 66  1  0  0  0
 33 70  2  0  0  0
 34 36  1  0  0  0
 34 59  1  0  0  0
 34111  1  0  0  0
 35 44  2  0  0  0
 35 45  1  0  0  0
 35 68  1  0  0  0
 36 56  1  0  0  0
 36112  1  0  0  0
 37 39  1  0  0  0
 37 47  1  0  0  0
 37 66  1  0  0  0
 37113  1  0  0  0
 38 43  2  0  0  0
 38 46  1  0  0  0
 38 47  1  0  0  0
 39 64  1  0  0  0
 39 67  2  0  0  0
 40 52  1  0  0  0
 40 53  2  0  0  0
 40 58  1  0  0  0
 41114  1  0  0  0
 41115  1  0  0  0
 41116  1  0  0  0
 41 48  1  0  0  0
 42 43  1  0  0  0
 42 66  1  0  0  0
 42117  1  0  0  0
 42118  1  0  0  0
 43 44  1  0  0  0
 44119  1  0  0  0
 45 46  2  0  0  0
 45120  1  0  0  0
 46121  1  0  0  0
 47122  1  0  0  0
 47123  1  0  0  0
 48 56  1  0  0  0
 48 65  1  0  0  0
 48124  1  0  0  0
 49 50  1  0  0  0
 49 53  1  0  0  0
 49 64  1  0  0  0
 49125  1  0  0  0
 50 51  1  0  0  0
 50126  1  0  0  0
 50127  1  0  0  0
 51 52  1  0  0  0
 51128  1  0  0  0
 51129  1  0  0  0
 52130  1  0  0  0
 52131  1  0  0  0
 53 54  1  0  0  0
 54 55  2  0  0  0
 54132  1  0  0  0
 55 57  1  0  0  0
 55133  1  0  0  0
 56 69  2  0  0  0
 57 58  2  0  0  0
 57134  1  0  0  0
 58135  1  0  0  0
 59 60  1  0  0  0
 59 61  1  0  0  0
 59 62  1  0  0  0
 60136  1  0  0  0
 60137  1  0  0  0
 60138  1  0  0  0
 61139  1  0  0  0
 61140  1  0  0  0
 61141  1  0  0  0
 62142  1  0  0  0
 62143  1  0  0  0
 62144  1  0  0  0
 63 65  1  0  0  0
 63145  1  0  0  0
 63146  1  0  0  0
 63147  1  0  0  0
 64148  1  0  0  0
 65149  1  0  0  0
 68 85  1  0  0  0
 71 72  2  0  0  0
 71 73  1  0  0  0
 71150  1  0  0  0
 72 74  1  0  0  0
 72151  1  0  0  0
 73 75  2  0  0  0
 73152  1  0  0  0
 74 76  2  0  0  0
 74153  1  0  0  0
 75 76  1  0  0  0
 75 78  1  0  0  0
 76 81  1  0  0  0
 77 86  1  0  0  0
 77 88  2  0  0  0
 77 82  1  0  0  0
 78 86  1  0  0  0
 78154  1  0  0  0
 78155  1  0  0  0
 79 80  1  0  0  0
 79 83  1  0  0  0
 79156  1  0  0  0
 79157  1  0  0  0
 80 87  1  0  0  0
 80158  1  0  0  0
 80159  1  0  0  0
 81 85  1  0  0  0
 81 86  1  0  0  0
 81160  1  0  0  0
 82 83  1  0  0  0
 82 87  1  0  0  0
 82161  1  0  0  0
 83 89  1  0  0  0
 83 90  1  0  0  0
 84 87  1  0  0  0
 84162  1  0  0  0
 84163  1  0  0  0
 85164  1  0  0  0
 85165  1  0  0  0
M  ISO  4   1 100  68 101  84 100  85 101
M  END
> <chiral flag>
0

> <version>
0

> <s_m_source_file>
/data/baiqing/PycharmProjects/Reinvent-master-3.2/result/LINK_invent/BTK/process_docking_weight1_custom_product_contain_oxygen_bond_distance_aromatic_linkinvent_7_9_3/rearranged_h_0158.sdf

> <i_m_source_file_index>
56

> <r_mmod_Potential_Energy-OPLS-2005>
18158.708984375

> <r_mmod_Stretch_Energy-OPLS-2005>
10008.75390625

> <r_mmod_Bend_Energy-OPLS-2005>
1488.79345703125

> <r_mmod_Torsional_Energy-OPLS-2005>
341.585693359375

> <r_mmod_Improper_Torsional_Energy-OPLS-2005>
12.6433238983154

> <r_mmod_Van_der_Waal_Energy-OPLS-2005>
3032.94213867188

> <r_mmod_Electrostatic_Energy-OPLS-2005>
-239.348388671875

> <r_mmod_Solvation_Energy-OPLS-2005>
-213.604309082031

> <b_mmod_Minimization_Converged-OPLS-2005>
0

> <r_mmod_RMS_Derivative-OPLS-2005>
3.54164934158325

$$$$
56
                    3D
 Structure written by MMmdl.
154163  0  0  1  0            999 V2000
  -30.4062  -14.9571   20.4769 C   0  0  0  0  0  0
  -30.4502  -12.6118   19.4949 C   0  0  0  0  0  0
  -29.5240  -12.5360   18.2566 C   0  0  0  0  0  0
  -28.0686  -12.2666   18.6926 C   0  0  0  0  0  0
  -27.6276  -13.2134   19.8388 C   0  0  2  0  0  0
  -28.6526  -13.2019   20.9873 C   0  0  0  0  0  0
  -25.2406  -13.8102   20.5415 C   0  0  0  0  0  0
  -24.1767  -13.0418   20.9195 C   0  0  0  0  0  0
  -24.6315  -11.6897   20.8790 C   0  0  0  0  0  0
  -23.9004  -10.4271   21.0466 C   0  0  0  0  0  0
  -24.3565   -9.4161   21.9202 C   0  0  0  0  0  0
  -23.6256   -8.2201   22.0738 C   0  0  0  0  0  0
  -22.4262   -8.0237   21.3526 C   0  0  0  0  0  0
  -21.9877   -9.0240   20.4669 C   0  0  0  0  0  0
  -22.7174  -10.2142   20.3109 C   0  0  0  0  0  0
  -21.6835   -6.0681   22.5231 C   0  0  0  0  0  0
  -21.3971   -6.5572   23.8183 C   0  0  0  0  0  0
  -21.3677   -5.6734   24.9157 C   0  0  0  0  0  0
  -21.6071   -4.3010   24.7214 C   0  0  0  0  0  0
  -21.8817   -3.8076   23.4322 C   0  0  0  0  0  0
  -21.9159   -4.6900   22.3370 C   0  0  0  0  0  0
  -22.7825  -13.5288   21.1876 C   0  0  0  0  0  0
  -22.1671   -4.2089   21.0935 F   0  0  0  0  0  0
  -21.5692   -3.4496   25.7710 F   0  0  0  0  0  0
  -29.9269  -13.6560   20.4193 N   0  0  0  0  0  0
  -26.2817  -12.9285   20.3127 N   0  0  0  0  0  0
  -25.9228  -11.6485   20.5776 N   0  0  0  0  0  0
  -22.0492  -12.8363   22.0496 N   0  0  0  0  0  0
  -25.3907  -15.1711   20.3304 N   0  0  0  0  0  0
  -31.5910  -15.1457   20.1747 O   0  0  0  0  0  0
  -21.6634   -6.8842   21.4209 O   0  0  0  0  0  0
  -22.3574  -14.5599   20.6700 O   0  0  0  0  0  0
  -24.6386  -31.8379   23.1885 C   0  0  0  0  0  0
  -25.9151  -32.4718   23.8242 C   0  0  1  0  0  0
  -27.2520  -27.1852   20.1184 C   0  0  0  0  0  0
  -25.5918  -33.8517   24.2195 N   0  0  0  0  0  0
  -23.4395  -30.4449   21.5328 C   0  0  2  0  0  0
  -24.9004  -28.8961   20.0737 C   0  0  0  0  0  0
  -22.7565  -29.4336   22.4849 C   0  0  0  0  0  0
  -18.0294  -28.1404   22.8454 C   0  0  0  0  0  0
  -24.1484  -36.7326   23.2620 C   0  0  0  0  0  0
  -25.9753  -30.7260   21.3648 C   0  0  0  0  0  0
  -26.0592  -29.3341   20.7209 C   0  0  0  0  0  0
  -27.2224  -28.4888   20.7434 C   0  0  0  0  0  0
  -26.0848  -26.8430   19.4005 C   0  0  0  0  0  0
  -24.9293  -27.6687   19.3803 C   0  0  0  0  0  0
  -23.6626  -29.7790   20.1412 C   0  0  0  0  0  0
  -25.4103  -36.3041   24.0307 C   0  0  1  0  0  0
  -20.5876  -28.3653   23.1337 C   0  0  2  0  0  0
  -20.6739  -26.9378   22.5444 C   0  0  0  0  0  0
  -19.5730  -26.6365   21.5209 C   0  0  0  0  0  0
  -18.1933  -26.7927   22.1611 C   0  0  0  0  0  0
  -19.1547  -28.8868   23.2848 C   0  0  0  0  0  0
  -18.9425  -30.1456   23.8863 C   0  0  0  0  0  0
  -17.6400  -30.6552   24.0552 C   0  0  0  0  0  0
  -25.9051  -34.9417   23.5068 C   0  0  0  0  0  0
  -16.5303  -29.9067   23.6301 C   0  0  0  0  0  0
  -16.7264  -28.6515   23.0314 C   0  0  0  0  0  0
  -26.4513  -31.6542   25.0659 C   0  0  0  0  0  0
  -25.3725  -31.3723   26.1414 C   0  0  0  0  0  0
  -27.0300  -30.2982   24.6015 C   0  0  0  0  0  0
  -27.6071  -32.4265   25.7475 C   0  0  0  0  0  0
  -27.5561  -37.1815   24.8446 C   0  0  0  0  0  0
  -21.4246  -29.2958   22.3720 N   0  0  0  0  0  0
  -26.4266  -37.3755   23.9401 N   0  0  0  0  0  0
  -24.7033  -31.0243   22.0872 N   0  0  0  0  0  0
  -23.4263  -28.7886   23.2943 O   0  0  0  0  0  0
  -28.2496  -26.1876   20.3847 O   0  0  0  0  0  0
  -26.5621  -34.8933   22.4647 O   0  0  0  0  0  0
  -23.5523  -32.1189   23.7121 O   0  0  0  0  0  0
  -29.7189  -18.7361   20.1808 C   0  0  0  0  0  0
  -29.1722  -17.4811   20.8127 C   0  0  0  0  0  0
  -28.0845  -17.8450   21.5949 C   0  0  0  0  0  0
  -29.0245  -19.9722   20.4345 C   0  0  0  0  0  0
  -28.7806  -25.1873   19.5034 C   0  0  0  0  0  0
  -29.0488  -23.7800   19.5026 C   0  0  0  0  0  0
  -28.7420  -22.6007   20.4273 C   0  0  0  0  0  0
  -26.2062  -17.5350   23.4743 C   0  0  0  0  0  0
  -27.5632  -17.1491   24.0357 C   0  0  0  0  0  0
  -27.2896  -16.9920   22.5572 C   0  0  0  0  0  0
  -29.4518  -15.9699   20.7516 N   0  0  0  0  0  0
  -29.1769  -21.3219   19.9789 N   0  0  0  0  0  0
  -28.1943  -22.7391   21.5208 O   0  0  0  0  0  0
  -29.7798  -23.3827   18.4446 O   0  0  0  0  0  0
  -27.6672  -19.5534   21.4515 S   0  0  0  0  0  0
  -31.4758  -12.8244   19.1952 H   0  0  0  0  0  0
  -30.4740  -11.6459   20.0048 H   0  0  0  0  0  0
  -29.8635  -11.7515   17.5800 H   0  0  0  0  0  0
  -29.5639  -13.4708   17.6931 H   0  0  0  0  0  0
  -28.0120  -11.2308   19.0370 H   0  0  0  0  0  0
  -27.3968  -12.3450   17.8386 H   0  0  0  0  0  0
  -27.5989  -14.2117   19.4052 H   0  0  0  0  0  0
  -28.7563  -12.2056   21.4160 H   0  0  0  0  0  0
  -28.3232  -13.8494   21.8030 H   0  0  0  0  0  0
  -25.2720   -9.5651   22.4774 H   0  0  0  0  0  0
  -23.9938   -7.4593   22.7455 H   0  0  0  0  0  0
  -21.0766   -8.8786   19.8986 H   0  0  0  0  0  0
  -22.3616  -10.9716   19.6255 H   0  0  0  0  0  0
  -21.1960   -7.6069   23.9663 H   0  0  0  0  0  0
  -21.1533   -6.0469   25.9078 H   0  0  0  0  0  0
  -22.0596   -2.7527   23.2833 H   0  0  0  0  0  0
  -22.4163  -12.0007   22.4822 H   0  0  0  0  0  0
  -21.1090  -13.1406   22.2747 H   0  0  0  0  0  0
  -24.5174  -15.6707   20.1886 H   0  0  0  0  0  0
  -26.0986  -15.4620   19.6697 H   0  0  0  0  0  0
  -26.7176  -32.5372   23.0938 H   0  0  0  0  0  0
  -25.0145  -33.9614   25.0391 H   0  0  0  0  0  0
  -22.7297  -31.2605   21.3901 H   0  0  0  0  0  0
  -23.3693  -35.9703   23.3266 H   0  0  0  0  0  0
  -24.3534  -36.9003   22.2025 H   0  0  0  0  0  0
  -23.7312  -37.6551   23.6692 H   0  0  0  0  0  0
  -26.0697  -31.4570   20.5580 H   0  0  0  0  0  0
  -26.8656  -30.8138   21.9732 H   0  0  0  0  0  0
  -28.0812  -28.7872   21.3257 H   0  0  0  0  0  0
  -26.0435  -25.8913   18.8925 H   0  0  0  0  0  0
  -24.0653  -27.3593   18.8070 H   0  0  0  0  0  0
  -23.7794  -30.5605   19.3889 H   0  0  0  0  0  0
  -22.7807  -29.2128   19.8361 H   0  0  0  0  0  0
  -25.1264  -36.1843   25.0789 H   0  0  0  0  0  0
  -20.9922  -28.3249   24.1461 H   0  0  0  0  0  0
  -20.5641  -26.2236   23.3618 H   0  0  0  0  0  0
  -21.6634  -26.7419   22.1231 H   0  0  0  0  0  0
  -19.6910  -25.6272   21.1269 H   0  0  0  0  0  0
  -19.6714  -27.3179   20.6745 H   0  0  0  0  0  0
  -17.4204  -26.6660   21.4026 H   0  0  0  0  0  0
  -18.0347  -26.0086   22.9041 H   0  0  0  0  0  0
  -19.7909  -30.7293   24.2238 H   0  0  0  0  0  0
  -17.4949  -31.6231   24.5202 H   0  0  0  0  0  0
  -15.5329  -30.2951   23.7607 H   0  0  0  0  0  0
  -15.8655  -28.0817   22.7024 H   0  0  0  0  0  0
  -24.5911  -30.7065   25.7769 H   0  0  0  0  0  0
  -24.8933  -32.2908   26.4811 H   0  0  0  0  0  0
  -25.8066  -30.8952   27.0200 H   0  0  0  0  0  0
  -26.2816  -29.6818   24.1069 H   0  0  0  0  0  0
  -27.4051  -29.7190   25.4421 H   0  0  0  0  0  0
  -27.8651  -30.4324   23.9159 H   0  0  0  0  0  0
  -27.2690  -33.3564   26.2058 H   0  0  0  0  0  0
  -28.3927  -32.6804   25.0354 H   0  0  0  0  0  0
  -28.0654  -31.8373   26.5401 H   0  0  0  0  0  0
  -28.2563  -38.0119   24.7442 H   0  0  0  0  0  0
  -28.1081  -36.2649   24.6308 H   0  0  0  0  0  0
  -27.2310  -37.1522   25.8862 H   0  0  0  0  0  0
  -20.9486  -29.8773   21.6967 H   0  0  0  0  0  0
  -26.0128  -38.2831   24.1410 H   0  0  0  0  0  0
  -30.5994  -18.7016   19.5583 H   0  0  0  0  0  0
  -29.1566  -25.7325   18.6500 H   0  0  0  0  0  0
  -25.9374  -18.5900   23.4194 H   0  0  0  0  0  0
  -25.3629  -16.8810   23.6974 H   0  0  0  0  0  0
  -27.6324  -16.2538   24.6517 H   0  0  0  0  0  0
  -28.2694  -17.9387   24.3036 H   0  0  0  0  0  0
  -27.1608  -15.9763   22.1962 H   0  0  0  0  0  0
  -28.6183  -15.4766   21.0403 H   0  0  0  0  0  0
  -29.6466  -21.4300   19.0876 H   0  0  0  0  0  0
  -30.0822  -24.1570   17.9952 H   0  0  0  0  0  0
  1 25  1  0  0  0
  1 30  2  0  0  0
  1 81  1  0  0  0
  2  3  1  0  0  0
  2 25  1  0  0  0
  2 86  1  0  0  0
  2 87  1  0  0  0
  3  4  1  0  0  0
  3 88  1  0  0  0
  3 89  1  0  0  0
  4  5  1  0  0  0
  4 90  1  0  0  0
  4 91  1  0  0  0
  5  6  1  0  0  0
  5 26  1  0  0  0
  5 92  1  0  0  0
  6 25  1  0  0  0
  6 93  1  0  0  0
  6 94  1  0  0  0
  7  8  2  0  0  0
  7 26  1  0  0  0
  7 29  1  0  0  0
  8  9  1  0  0  0
  8 22  1  0  0  0
  9 10  1  0  0  0
  9 27  2  0  0  0
 10 11  2  0  0  0
 10 15  1  0  0  0
 11 12  1  0  0  0
 11 95  1  0  0  0
 12 13  2  0  0  0
 12 96  1  0  0  0
 13 14  1  0  0  0
 13 31  1  0  0  0
 14 15  2  0  0  0
 14 97  1  0  0  0
 15 98  1  0  0  0
 16 17  2  0  0  0
 16 21  1  0  0  0
 16 31  1  0  0  0
 17 18  1  0  0  0
 17 99  1  0  0  0
 18 19  2  0  0  0
 18100  1  0  0  0
 19 20  1  0  0  0
 19 24  1  0  0  0
 20 21  2  0  0  0
 20101  1  0  0  0
 21 23  1  0  0  0
 22 28  1  0  0  0
 22 32  2  0  0  0
 26 27  1  0  0  0
 28102  1  0  0  0
 28103  1  0  0  0
 29104  1  0  0  0
 29105  1  0  0  0
 33 34  1  0  0  0
 33 66  1  0  0  0
 33 70  2  0  0  0
 34 36  1  0  0  0
 34 59  1  0  0  0
 34106  1  0  0  0
 35 44  2  0  0  0
 35 45  1  0  0  0
 35 68  1  0  0  0
 36 56  1  0  0  0
 36107  1  0  0  0
 37 39  1  0  0  0
 37 47  1  0  0  0
 37 66  1  0  0  0
 37108  1  0  0  0
 38 43  2  0  0  0
 38 46  1  0  0  0
 38 47  1  0  0  0
 39 64  1  0  0  0
 39 67  2  0  0  0
 40 52  1  0  0  0
 40 53  2  0  0  0
 40 58  1  0  0  0
 41109  1  0  0  0
 41110  1  0  0  0
 41111  1  0  0  0
 41 48  1  0  0  0
 42 43  1  0  0  0
 42 66  1  0  0  0
 42112  1  0  0  0
 42113  1  0  0  0
 43 44  1  0  0  0
 44114  1  0  0  0
 45 46  2  0  0  0
 45115  1  0  0  0
 46116  1  0  0  0
 47117  1  0  0  0
 47118  1  0  0  0
 48 56  1  0  0  0
 48 65  1  0  0  0
 48119  1  0  0  0
 49 50  1  0  0  0
 49 53  1  0  0  0
 49 64  1  0  0  0
 49120  1  0  0  0
 50 51  1  0  0  0
 50121  1  0  0  0
 50122  1  0  0  0
 51 52  1  0  0  0
 51123  1  0  0  0
 51124  1  0  0  0
 52125  1  0  0  0
 52126  1  0  0  0
 53 54  1  0  0  0
 54 55  2  0  0  0
 54127  1  0  0  0
 55 57  1  0  0  0
 55128  1  0  0  0
 56 69  2  0  0  0
 57 58  2  0  0  0
 57129  1  0  0  0
 58130  1  0  0  0
 59 60  1  0  0  0
 59 61  1  0  0  0
 59 62  1  0  0  0
 60131  1  0  0  0
 60132  1  0  0  0
 60133  1  0  0  0
 61134  1  0  0  0
 61135  1  0  0  0
 61136  1  0  0  0
 62137  1  0  0  0
 62138  1  0  0  0
 62139  1  0  0  0
 63 65  1  0  0  0
 63140  1  0  0  0
 63141  1  0  0  0
 63142  1  0  0  0
 64143  1  0  0  0
 65144  1  0  0  0
 68 75  1  0  0  0
 71 72  1  0  0  0
 71 74  2  0  0  0
 71145  1  0  0  0
 72 73  2  0  0  0
 72 81  1  0  0  0
 73 85  1  0  0  0
 73 80  1  0  0  0
 74 82  1  0  0  0
 74 85  1  0  0  0
 75 76  2  0  0  0
 75146  1  0  0  0
 76 77  1  0  0  0
 76 84  1  0  0  0
 77 82  1  0  0  0
 77 83  2  0  0  0
 78 79  1  0  0  0
 78 80  1  0  0  0
 78147  1  0  0  0
 78148  1  0  0  0
 79 80  1  0  0  0
 79149  1  0  0  0
 79150  1  0  0  0
 80151  1  0  0  0
 81152  1  0  0  0
 82153  1  0  0  0
 84154  1  0  0  0
M  ISO  4   1 100  68 101  75 101  81 100
M  END
> <chiral flag>
0

> <version>
0

> <s_m_source_file>
/data/baiqing/PycharmProjects/Reinvent-master-3.2/result/LINK_invent/BTK/process_docking_weight1_custom_product_contain_oxygen_bond_distance_aromatic_linkinvent_7_9_3/rearranged_h_0158.sdf

> <i_m_source_file_index>
57

> <r_mmod_Potential_Energy-OPLS-2005>
475.139343261719

> <r_mmod_Stretch_Energy-OPLS-2005>
195.117904663086

> <r_mmod_Bend_Energy-OPLS-2005>
333.049896240234

> <r_mmod_Torsional_Energy-OPLS-2005>
239.817947387695

> <r_mmod_Improper_Torsional_Energy-OPLS-2005>
10.9063997268677

> <r_mmod_Van_der_Waal_Energy-OPLS-2005>
110.148422241211

> <r_mmod_Electrostatic_Energy-OPLS-2005>
-388.668792724609

> <r_mmod_Solvation_Energy-OPLS-2005>
-236.81608581543

> <b_mmod_Minimization_Converged-OPLS-2005>
0

> <r_mmod_RMS_Derivative-OPLS-2005>
10.7556495666504

$$$$
57
                    3D
 Structure written by MMmdl.
164173  0  0  1  0            999 V2000
  -30.7108  -14.4697   20.6030 C   0  0  0  0  0  0
  -30.4321  -12.3186   19.4488 C   0  0  0  0  0  0
  -29.5127  -12.5171   18.2278 C   0  0  0  0  0  0
  -28.0281  -12.3820   18.6264 C   0  0  0  0  0  0
  -27.6649  -13.2171   19.8814 C   0  0  2  0  0  0
  -28.6965  -13.0059   21.0138 C   0  0  0  0  0  0
  -25.2572  -13.8200   20.5649 C   0  0  0  0  0  0
  -24.1819  -13.0467   20.9134 C   0  0  0  0  0  0
  -24.6395  -11.6926   20.8681 C   0  0  0  0  0  0
  -23.9071  -10.4307   21.0382 C   0  0  0  0  0  0
  -24.3619   -9.4217   21.9150 C   0  0  0  0  0  0
  -23.6284   -8.2258   22.0750 C   0  0  0  0  0  0
  -22.4244   -8.0309   21.3562 C   0  0  0  0  0  0
  -21.9898   -9.0285   20.4655 C   0  0  0  0  0  0
  -22.7247  -10.2136   20.3033 C   0  0  0  0  0  0
  -21.6862   -6.0735   22.5239 C   0  0  0  0  0  0
  -21.4043   -6.5627   23.8167 C   0  0  0  0  0  0
  -21.3651   -5.6766   24.9144 C   0  0  0  0  0  0
  -21.6048   -4.3032   24.7194 C   0  0  0  0  0  0
  -21.8823   -3.8142   23.4314 C   0  0  0  0  0  0
  -21.9206   -4.6961   22.3361 C   0  0  0  0  0  0
  -22.7830  -13.5237   21.1750 C   0  0  0  0  0  0
  -22.1661   -4.2140   21.0947 F   0  0  0  0  0  0
  -21.5626   -3.4529   25.7727 F   0  0  0  0  0  0
  -30.0388  -13.2923   20.4803 N   0  0  0  0  0  0
  -26.3000  -12.9384   20.3314 N   0  0  0  0  0  0
  -25.9312  -11.6516   20.5707 N   0  0  0  0  0  0
  -22.0456  -12.8261   22.0354 N   0  0  0  0  0  0
  -25.4356  -15.1935   20.4075 N   0  0  0  0  0  0
  -31.8069  -14.6764   20.0804 O   0  0  0  0  0  0
  -21.6627   -6.8877   21.4202 O   0  0  0  0  0  0
  -22.3511  -14.5532   20.6600 O   0  0  0  0  0  0
  -24.6178  -31.8661   23.2105 C   0  0  0  0  0  0
  -25.9079  -32.4803   23.8404 C   0  0  1  0  0  0
  -27.2232  -27.4045   20.1000 C   0  0  0  0  0  0
  -25.5939  -33.8609   24.2332 N   0  0  0  0  0  0
  -23.4045  -30.4972   21.5476 C   0  0  2  0  0  0
  -24.8453  -28.9646   20.1147 C   0  0  0  0  0  0
  -22.7414  -29.4674   22.4925 C   0  0  0  0  0  0
  -18.0289  -28.1392   22.8464 C   0  0  0  0  0  0
  -24.1498  -36.7293   23.2630 C   0  0  0  0  0  0
  -25.9384  -30.8273   21.3679 C   0  0  0  0  0  0
  -26.0104  -29.4612   20.7124 C   0  0  0  0  0  0
  -27.1974  -28.6920   20.6954 C   0  0  0  0  0  0
  -26.0246  -26.9232   19.5161 C   0  0  0  0  0  0
  -24.8517  -27.6949   19.5169 C   0  0  0  0  0  0
  -23.6132  -29.8374   20.1602 C   0  0  0  0  0  0
  -25.4108  -36.3086   24.0331 C   0  0  1  0  0  0
  -20.5866  -28.3687   23.1287 C   0  0  2  0  0  0
  -20.6775  -26.9431   22.5393 C   0  0  0  0  0  0
  -19.5752  -26.6404   21.5184 C   0  0  0  0  0  0
  -18.1927  -26.7940   22.1598 C   0  0  0  0  0  0
  -19.1527  -28.8854   23.2883 C   0  0  0  0  0  0
  -18.9470  -30.1447   23.8902 C   0  0  0  0  0  0
  -17.6474  -30.6602   24.0556 C   0  0  0  0  0  0
  -25.9038  -34.9464   23.5118 C   0  0  0  0  0  0
  -16.5358  -29.9105   23.6314 C   0  0  0  0  0  0
  -16.7267  -28.6520   23.0326 C   0  0  0  0  0  0
  -26.4504  -31.6605   25.0751 C   0  0  0  0  0  0
  -25.3774  -31.3750   26.1500 C   0  0  0  0  0  0
  -27.0326  -30.3023   24.6169 C   0  0  0  0  0  0
  -27.6087  -32.4332   25.7506 C   0  0  0  0  0  0
  -27.5594  -37.1789   24.8443 C   0  0  0  0  0  0
  -21.4131  -29.3067   22.3694 N   0  0  0  0  0  0
  -26.4272  -37.3793   23.9438 N   0  0  0  0  0  0
  -24.6721  -31.0784   22.0976 N   0  0  0  0  0  0
  -23.4182  -28.8194   23.2969 O   0  0  0  0  0  0
  -28.4139  -26.6933   20.1150 O   0  0  0  0  0  0
  -26.5574  -34.8929   22.4663 O   0  0  0  0  0  0
  -23.5372  -32.1415   23.7505 O   0  0  0  0  0  0
  -30.2451  -17.9774   21.3871 C   0  0  0  0  0  0
  -29.7118  -16.9194   19.2758 C   0  0  0  0  0  0
  -30.2540  -19.2267   20.7110 C   0  0  0  0  0  0
  -30.0026  -16.7876   20.6492 C   0  0  0  0  0  0
  -30.0055  -19.2039   19.3164 C   0  0  0  0  0  0
  -30.5839  -20.4818   21.4379 C   0  0  0  0  0  0
  -29.9534  -24.0809   21.2694 C   0  0  0  0  0  0
  -28.1539  -22.8387   20.0210 C   0  0  0  0  0  0
  -30.1393  -22.8453   22.1794 C   0  0  0  0  0  0
  -28.3820  -21.6269   20.9625 C   0  0  0  0  0  0
  -28.5430  -24.2054   20.6438 C   0  0  0  0  0  0
  -28.4899  -25.3525   19.5820 C   0  0  0  0  0  0
  -29.7086  -18.0953   18.6234 N   0  0  0  0  0  0
  -29.7676  -21.5892   21.4798 N   0  0  0  0  0  0
  -30.0923  -20.3314   18.5186 N   0  0  0  0  0  0
  -30.0562  -15.4762   21.2210 N   0  0  0  0  0  0
  -31.7673  -20.5233   22.0887 N   0  3  0  0  0  0
  -27.6562  -24.4594   21.6075 F   0  0  0  0  0  0
  -31.4815  -12.4170   19.1593 H   0  0  0  0  0  0
  -30.3375  -11.3068   19.8394 H   0  0  0  0  0  0
  -29.7562  -11.7888   17.4548 H   0  0  0  0  0  0
  -29.6968  -13.4937   17.7808 H   0  0  0  0  0  0
  -27.8150  -11.3243   18.8047 H   0  0  0  0  0  0
  -27.3948  -12.6841   17.7884 H   0  0  0  0  0  0
  -27.7062  -14.2630   19.5723 H   0  0  0  0  0  0
  -28.6527  -11.9781   21.3681 H   0  0  0  0  0  0
  -28.4396  -13.6169   21.8812 H   0  0  0  0  0  0
  -25.2780   -9.5723   22.4690 H   0  0  0  0  0  0
  -24.0008   -7.4667   22.7473 H   0  0  0  0  0  0
  -21.0833   -8.8853   19.8966 H   0  0  0  0  0  0
  -22.3744  -10.9686   19.6139 H   0  0  0  0  0  0
  -21.2045   -7.6125   23.9700 H   0  0  0  0  0  0
  -21.1449   -6.0478   25.9043 H   0  0  0  0  0  0
  -22.0614   -2.7600   23.2798 H   0  0  0  0  0  0
  -22.4030  -11.9950   22.4825 H   0  0  0  0  0  0
  -21.1116  -13.1361   22.2529 H   0  0  0  0  0  0
  -24.6866  -15.8681   20.5141 H   0  0  0  0  0  0
  -26.3036  -15.6199   20.1130 H   0  0  0  0  0  0
  -26.7154  -32.5505   23.1180 H   0  0  0  0  0  0
  -25.0185  -33.9798   25.0548 H   0  0  0  0  0  0
  -22.6911  -31.3136   21.4129 H   0  0  0  0  0  0
  -23.3772  -35.9611   23.3231 H   0  0  0  0  0  0
  -24.3611  -36.8950   22.2051 H   0  0  0  0  0  0
  -23.7246  -37.6477   23.6682 H   0  0  0  0  0  0
  -26.0695  -31.5985   20.6046 H   0  0  0  0  0  0
  -26.8162  -30.8684   21.9978 H   0  0  0  0  0  0
  -28.1011  -29.0791   21.1448 H   0  0  0  0  0  0
  -25.9398  -25.9509   19.0591 H   0  0  0  0  0  0
  -23.9537  -27.2980   19.0648 H   0  0  0  0  0  0
  -23.7452  -30.6155   19.4058 H   0  0  0  0  0  0
  -22.7304  -29.2712   19.8530 H   0  0  0  0  0  0
  -25.1281  -36.1910   25.0809 H   0  0  0  0  0  0
  -20.9968  -28.3297   24.1399 H   0  0  0  0  0  0
  -20.5674  -26.2309   23.3594 H   0  0  0  0  0  0
  -21.6659  -26.7490   22.1211 H   0  0  0  0  0  0
  -19.6920  -25.6315   21.1221 H   0  0  0  0  0  0
  -19.6680  -27.3194   20.6690 H   0  0  0  0  0  0
  -17.4193  -26.6685   21.3995 H   0  0  0  0  0  0
  -18.0324  -26.0109   22.9006 H   0  0  0  0  0  0
  -19.7942  -30.7252   24.2294 H   0  0  0  0  0  0
  -17.5034  -31.6273   24.5177 H   0  0  0  0  0  0
  -15.5356  -30.3006   23.7649 H   0  0  0  0  0  0
  -15.8664  -28.0842   22.7040 H   0  0  0  0  0  0
  -24.5928  -30.7088   25.7880 H   0  0  0  0  0  0
  -24.8983  -32.2918   26.4934 H   0  0  0  0  0  0
  -25.8129  -30.8960   27.0271 H   0  0  0  0  0  0
  -26.2865  -29.6780   24.1201 H   0  0  0  0  0  0
  -27.4027  -29.7280   25.4672 H   0  0  0  0  0  0
  -27.8749  -30.4304   23.9367 H   0  0  0  0  0  0
  -27.2699  -33.3625   26.2103 H   0  0  0  0  0  0
  -28.3871  -32.6878   25.0310 H   0  0  0  0  0  0
  -28.0766  -31.8432   26.5393 H   0  0  0  0  0  0
  -28.2543  -38.0152   24.7575 H   0  0  0  0  0  0
  -28.1151  -36.2678   24.6128 H   0  0  0  0  0  0
  -27.2353  -37.1299   25.8857 H   0  0  0  0  0  0
  -20.9269  -29.8810   21.6940 H   0  0  0  0  0  0
  -26.0123  -38.2846   24.1481 H   0  0  0  0  0  0
  -30.4673  -17.9349   22.4446 H   0  0  0  0  0  0
  -29.4946  -16.0541   18.6704 H   0  0  0  0  0  0
  -30.6988  -24.0309   20.4752 H   0  0  0  0  0  0
  -30.1700  -24.9857   21.8372 H   0  0  0  0  0  0
  -27.1007  -22.8679   19.7428 H   0  0  0  0  0  0
  -28.6977  -22.6817   19.0891 H   0  0  0  0  0  0
  -29.5339  -22.9339   23.0825 H   0  0  0  0  0  0
  -31.1729  -22.8305   22.5197 H   0  0  0  0  0  0
  -28.1101  -20.7019   20.4599 H   0  0  0  0  0  0
  -27.7073  -21.7011   21.8189 H   0  0  0  0  0  0
  -27.7445  -25.1358   18.8240 H   0  0  0  0  0  0
  -29.4139  -25.3219   19.0062 H   0  0  0  0  0  0
  -30.8435  -20.9771   18.7258 H   0  0  0  0  0  0
  -30.0438  -20.1465   17.5243 H   0  0  0  0  0  0
  -29.2821  -15.2062   21.8120 H   0  0  0  0  0  0
  -32.4701  -19.8077   21.9545 H   0  0  0  0  0  0
  -32.0324  -21.3112   22.6653 H   0  0  0  0  0  0
  1 25  1  0  0  0
  1 30  2  0  0  0
  1 86  1  0  0  0
  2  3  1  0  0  0
  2 25  1  0  0  0
  2 89  1  0  0  0
  2 90  1  0  0  0
  3  4  1  0  0  0
  3 91  1  0  0  0
  3 92  1  0  0  0
  4  5  1  0  0  0
  4 93  1  0  0  0
  4 94  1  0  0  0
  5  6  1  0  0  0
  5 26  1  0  0  0
  5 95  1  0  0  0
  6 25  1  0  0  0
  6 96  1  0  0  0
  6 97  1  0  0  0
  7  8  2  0  0  0
  7 26  1  0  0  0
  7 29  1  0  0  0
  8  9  1  0  0  0
  8 22  1  0  0  0
  9 10  1  0  0  0
  9 27  2  0  0  0
 10 11  2  0  0  0
 10 15  1  0  0  0
 11 12  1  0  0  0
 11 98  1  0  0  0
 12 13  2  0  0  0
 12 99  1  0  0  0
 13 14  1  0  0  0
 13 31  1  0  0  0
 14 15  2  0  0  0
 14100  1  0  0  0
 15101  1  0  0  0
 16 17  2  0  0  0
 16 21  1  0  0  0
 16 31  1  0  0  0
 17 18  1  0  0  0
 17102  1  0  0  0
 18 19  2  0  0  0
 18103  1  0  0  0
 19 20  1  0  0  0
 19 24  1  0  0  0
 20 21  2  0  0  0
 20104  1  0  0  0
 21 23  1  0  0  0
 22 28  1  0  0  0
 22 32  2  0  0  0
 26 27  1  0  0  0
 28105  1  0  0  0
 28106  1  0  0  0
 29107  1  0  0  0
 29108  1  0  0  0
 33 34  1  0  0  0
 33 66  1  0  0  0
 33 70  2  0  0  0
 34 36  1  0  0  0
 34 59  1  0  0  0
 34109  1  0  0  0
 35 44  2  0  0  0
 35 45  1  0  0  0
 35 68  1  0  0  0
 36 56  1  0  0  0
 36110  1  0  0  0
 37 39  1  0  0  0
 37 47  1  0  0  0
 37 66  1  0  0  0
 37111  1  0  0  0
 38 43  2  0  0  0
 38 46  1  0  0  0
 38 47  1  0  0  0
 39 64  1  0  0  0
 39 67  2  0  0  0
 40 52  1  0  0  0
 40 53  2  0  0  0
 40 58  1  0  0  0
 41112  1  0  0  0
 41113  1  0  0  0
 41114  1  0  0  0
 41 48  1  0  0  0
 42 43  1  0  0  0
 42 66  1  0  0  0
 42115  1  0  0  0
 42116  1  0  0  0
 43 44  1  0  0  0
 44117  1  0  0  0
 45 46  2  0  0  0
 45118  1  0  0  0
 46119  1  0  0  0
 47120  1  0  0  0
 47121  1  0  0  0
 48 56  1  0  0  0
 48 65  1  0  0  0
 48122  1  0  0  0
 49 50  1  0  0  0
 49 53  1  0  0  0
 49 64  1  0  0  0
 49123  1  0  0  0
 50 51  1  0  0  0
 50124  1  0  0  0
 50125  1  0  0  0
 51 52  1  0  0  0
 51126  1  0  0  0
 51127  1  0  0  0
 52128  1  0  0  0
 52129  1  0  0  0
 53 54  1  0  0  0
 54 55  2  0  0  0
 54130  1  0  0  0
 55 57  1  0  0  0
 55131  1  0  0  0
 56 69  2  0  0  0
 57 58  2  0  0  0
 57132  1  0  0  0
 58133  1  0  0  0
 59 60  1  0  0  0
 59 61  1  0  0  0
 59 62  1  0  0  0
 60134  1  0  0  0
 60135  1  0  0  0
 60136  1  0  0  0
 61137  1  0  0  0
 61138  1  0  0  0
 61139  1  0  0  0
 62140  1  0  0  0
 62141  1  0  0  0
 62142  1  0  0  0
 63 65  1  0  0  0
 63143  1  0  0  0
 63144  1  0  0  0
 63145  1  0  0  0
 64146  1  0  0  0
 65147  1  0  0  0
 68 82  1  0  0  0
 71 73  2  0  0  0
 71 74  1  0  0  0
 71148  1  0  0  0
 72 74  2  0  0  0
 72 83  1  0  0  0
 72149  1  0  0  0
 73 75  1  0  0  0
 73 76  1  0  0  0
 74 86  1  0  0  0
 75 83  2  0  0  0
 75 85  1  0  0  0
 76 84  1  0  0  0
 76 87  2  0  0  0
 77 79  1  0  0  0
 77 81  1  0  0  0
 77150  1  0  0  0
 77151  1  0  0  0
 78 80  1  0  0  0
 78 81  1  0  0  0
 78152  1  0  0  0
 78153  1  0  0  0
 79 84  1  0  0  0
 79154  1  0  0  0
 79155  1  0  0  0
 80 84  1  0  0  0
 80156  1  0  0  0
 80157  1  0  0  0
 81 82  1  0  0  0
 81 88  1  0  0  0
 82158  1  0  0  0
 82159  1  0  0  0
 85160  1  0  0  0
 85161  1  0  0  0
 86162  1  0  0  0
 87163  1  0  0  0
 87164  1  0  0  0
M  CHG  1  87   1
M  ISO  4   1 100  68 101  82 101  86 100
M  END
> <chiral flag>
0

> <version>
0

> <s_m_source_file>
/data/baiqing/PycharmProjects/Reinvent-master-3.2/result/LINK_invent/BTK/process_docking_weight1_custom_product_contain_oxygen_bond_distance_aromatic_linkinvent_7_9_3/rearranged_h_0158.sdf

> <i_m_source_file_index>
58

> <r_mmod_Potential_Energy-OPLS-2005>
-244.472747802734

> <r_mmod_Stretch_Energy-OPLS-2005>
46.3019752502441

> <r_mmod_Bend_Energy-OPLS-2005>
119.303184509277

> <r_mmod_Torsional_Energy-OPLS-2005>
293.947143554688

> <r_mmod_Improper_Torsional_Energy-OPLS-2005>
10.1063585281372

> <r_mmod_Van_der_Waal_Energy-OPLS-2005>
168.003692626953

> <r_mmod_Electrostatic_Energy-OPLS-2005>
-430.229583740234

> <r_mmod_Solvation_Energy-OPLS-2005>
-466.380584716797

> <b_mmod_Minimization_Converged-OPLS-2005>
0

> <r_mmod_RMS_Derivative-OPLS-2005>
5.99505233764648

$$$$
58
                    3D
 Structure written by MMmdl.
157165  0  0  1  0            999 V2000
  -30.5967  -14.7907   20.4356 C   0  0  0  0  0  0
  -30.4305  -12.4756   19.4956 C   0  0  0  0  0  0
  -29.5182  -12.5158   18.2488 C   0  0  0  0  0  0
  -28.0422  -12.3367   18.6545 C   0  0  0  0  0  0
  -27.6409  -13.2387   19.8526 C   0  0  2  0  0  0
  -28.6825  -13.1942   20.9928 C   0  0  0  0  0  0
  -25.2495  -13.8207   20.5702 C   0  0  0  0  0  0
  -24.1792  -13.0443   20.9209 C   0  0  0  0  0  0
  -24.6389  -11.6924   20.8739 C   0  0  0  0  0  0
  -23.9067  -10.4299   21.0398 C   0  0  0  0  0  0
  -24.3621   -9.4219   21.9179 C   0  0  0  0  0  0
  -23.6304   -8.2248   22.0750 C   0  0  0  0  0  0
  -22.4285   -8.0279   21.3543 C   0  0  0  0  0  0
  -21.9913   -9.0251   20.4644 C   0  0  0  0  0  0
  -22.7234  -10.2135   20.3054 C   0  0  0  0  0  0
  -21.6854   -6.0739   22.5282 C   0  0  0  0  0  0
  -21.4015   -6.5640   23.8217 C   0  0  0  0  0  0
  -21.3664   -5.6790   24.9176 C   0  0  0  0  0  0
  -21.6047   -4.3053   24.7224 C   0  0  0  0  0  0
  -21.8817   -3.8146   23.4344 C   0  0  0  0  0  0
  -21.9192   -4.6965   22.3405 C   0  0  0  0  0  0
  -22.7817  -13.5221   21.1875 C   0  0  0  0  0  0
  -22.1662   -4.2151   21.0984 F   0  0  0  0  0  0
  -21.5632   -3.4537   25.7740 F   0  0  0  0  0  0
  -29.9813  -13.5531   20.4125 N   0  0  0  0  0  0
  -26.2930  -12.9426   20.3281 N   0  0  0  0  0  0
  -25.9323  -11.6559   20.5743 N   0  0  0  0  0  0
  -22.0462  -12.8216   22.0431 N   0  0  0  0  0  0
  -25.4161  -15.1932   20.4124 N   0  0  0  0  0  0
  -31.7807  -14.8736   20.0969 O   0  0  0  0  0  0
  -21.6643   -6.8881   21.4244 O   0  0  0  0  0  0
  -22.3511  -14.5530   20.6722 O   0  0  0  0  0  0
  -24.6353  -31.8522   23.1978 C   0  0  0  0  0  0
  -25.9170  -32.4734   23.8327 C   0  0  1  0  0  0
  -27.2121  -27.2198   20.1298 C   0  0  0  0  0  0
  -25.5953  -33.8537   24.2241 N   0  0  0  0  0  0
  -23.4339  -30.4766   21.5406 C   0  0  2  0  0  0
  -24.8817  -28.9243   20.1063 C   0  0  0  0  0  0
  -22.7533  -29.4589   22.4888 C   0  0  0  0  0  0
  -18.0305  -28.1392   22.8475 C   0  0  0  0  0  0
  -24.1494  -36.7273   23.2639 C   0  0  0  0  0  0
  -25.9856  -30.7492   21.3892 C   0  0  0  0  0  0
  -26.0554  -29.3709   20.7266 C   0  0  0  0  0  0
  -27.2207  -28.5300   20.7319 C   0  0  0  0  0  0
  -26.0200  -26.8697   19.4531 C   0  0  0  0  0  0
  -24.8724  -27.6835   19.4563 C   0  0  0  0  0  0
  -23.6553  -29.8151   20.1559 C   0  0  0  0  0  0
  -25.4122  -36.3051   24.0320 C   0  0  1  0  0  0
  -20.5910  -28.3707   23.1253 C   0  0  2  0  0  0
  -20.6787  -26.9414   22.5416 C   0  0  0  0  0  0
  -19.5770  -26.6379   21.5214 C   0  0  0  0  0  0
  -18.1945  -26.7940   22.1611 C   0  0  0  0  0  0
  -19.1557  -28.8868   23.2861 C   0  0  0  0  0  0
  -18.9471  -30.1465   23.8880 C   0  0  0  0  0  0
  -17.6470  -30.6584   24.0558 C   0  0  0  0  0  0
  -25.9066  -34.9424   23.5081 C   0  0  0  0  0  0
  -16.5361  -29.9077   23.6335 C   0  0  0  0  0  0
  -16.7288  -28.6500   23.0348 C   0  0  0  0  0  0
  -26.4510  -31.6574   25.0737 C   0  0  0  0  0  0
  -25.3714  -31.3772   26.1452 C   0  0  0  0  0  0
  -27.0338  -30.2958   24.6295 C   0  0  0  0  0  0
  -27.6071  -32.4316   25.7496 C   0  0  0  0  0  0
  -27.5588  -37.1790   24.8459 C   0  0  0  0  0  0
  -21.4237  -29.3037   22.3625 N   0  0  0  0  0  0
  -26.4294  -37.3758   23.9406 N   0  0  0  0  0  0
  -24.7035  -31.0459   22.0970 N   0  0  0  0  0  0
  -23.4220  -28.8133   23.2999 O   0  0  0  0  0  0
  -28.2738  -26.2711   20.2216 O   0  0  0  0  0  0
  -26.5635  -34.8906   22.4649 O   0  0  0  0  0  0
  -23.5494  -32.1359   23.7254 O   0  0  0  0  0  0
  -29.4223  -20.7125   21.8498 C   0  0  0  0  0  0
  -29.7213  -19.2975   21.9072 C   0  0  0  0  0  0
  -29.6849  -18.7495   20.6386 C   0  0  0  0  0  0
  -29.1765  -21.0366   20.5425 C   0  0  0  0  0  0
  -30.0971  -18.5808   23.1533 C   0  0  0  0  0  0
  -28.8419  -23.6028   20.5424 C   0  0  0  0  0  0
  -28.8815  -18.1239   25.3548 C   0  0  0  0  0  0
  -30.0832  -17.3453   19.9839 C   0  0  0  0  0  0
  -29.6172  -19.1541   24.4834 C   0  0  0  0  0  0
  -28.0128  -24.8117   19.8595 C   0  0  0  0  0  0
  -30.7804  -17.5162   23.1536 N   0  0  0  0  0  0
  -28.7638  -22.2956   20.0436 N   0  0  0  0  0  0
  -29.8275  -15.9466   20.5887 N   0  0  0  0  0  0
  -29.5400  -23.8648   21.5264 O   0  0  0  0  0  0
  -29.3176  -19.8395   19.7956 O   0  0  0  0  0  0
  -31.4757  -12.5881   19.2035 H   0  0  0  0  0  0
  -30.3642  -11.5040   19.9880 H   0  0  0  0  0  0
  -29.8093  -11.7381   17.5407 H   0  0  0  0  0  0
  -29.6448  -13.4673   17.7294 H   0  0  0  0  0  0
  -27.8984  -11.2881   18.9164 H   0  0  0  0  0  0
  -27.3888  -12.5276   17.8022 H   0  0  0  0  0  0
  -27.6285  -14.2575   19.4642 H   0  0  0  0  0  0
  -28.7241  -12.2021   21.4447 H   0  0  0  0  0  0
  -28.4104  -13.8845   21.7927 H   0  0  0  0  0  0
  -25.2764   -9.5703   22.4755 H   0  0  0  0  0  0
  -24.0015   -7.4641   22.7471 H   0  0  0  0  0  0
  -21.0841   -8.8765   19.8961 H   0  0  0  0  0  0
  -22.3679  -10.9673   19.6169 H   0  0  0  0  0  0
  -21.2003   -7.6147   23.9721 H   0  0  0  0  0  0
  -21.1491   -6.0521   25.9085 H   0  0  0  0  0  0
  -22.0590   -2.7609   23.2838 H   0  0  0  0  0  0
  -22.4072  -11.9877   22.4823 H   0  0  0  0  0  0
  -21.1088  -13.1259   22.2648 H   0  0  0  0  0  0
  -24.6426  -15.8404   20.5195 H   0  0  0  0  0  0
  -26.2568  -15.6366   20.0662 H   0  0  0  0  0  0
  -26.7237  -32.5366   23.1067 H   0  0  0  0  0  0
  -25.0098  -33.9663   25.0385 H   0  0  0  0  0  0
  -22.7316  -31.2998   21.3953 H   0  0  0  0  0  0
  -23.3757  -35.9607   23.3293 H   0  0  0  0  0  0
  -24.3587  -36.8906   22.2059 H   0  0  0  0  0  0
  -23.7250  -37.6469   23.6674 H   0  0  0  0  0  0
  -26.1406  -31.5113   20.6241 H   0  0  0  0  0  0
  -26.8571  -30.7904   22.0312 H   0  0  0  0  0  0
  -28.1118  -28.8611   21.2470 H   0  0  0  0  0  0
  -25.9306  -25.9363   18.9195 H   0  0  0  0  0  0
  -23.9800  -27.3412   18.9497 H   0  0  0  0  0  0
  -23.7839  -30.5931   19.4022 H   0  0  0  0  0  0
  -22.7723  -29.2519   19.8485 H   0  0  0  0  0  0
  -25.1310  -36.1887   25.0815 H   0  0  0  0  0  0
  -21.0010  -28.3297   24.1372 H   0  0  0  0  0  0
  -20.5670  -26.2319   23.3631 H   0  0  0  0  0  0
  -21.6656  -26.7419   22.1221 H   0  0  0  0  0  0
  -19.6923  -25.6285   21.1253 H   0  0  0  0  0  0
  -19.6719  -27.3181   20.6739 H   0  0  0  0  0  0
  -17.4225  -26.6699   21.4002 H   0  0  0  0  0  0
  -18.0325  -26.0083   22.9004 H   0  0  0  0  0  0
  -19.7947  -30.7290   24.2240 H   0  0  0  0  0  0
  -17.5019  -31.6264   24.5165 H   0  0  0  0  0  0
  -15.5357  -30.2966   23.7674 H   0  0  0  0  0  0
  -15.8697  -28.0816   22.7061 H   0  0  0  0  0  0
  -24.5929  -30.7060   25.7808 H   0  0  0  0  0  0
  -24.8856  -32.2950   26.4775 H   0  0  0  0  0  0
  -25.8024  -30.9049   27.0289 H   0  0  0  0  0  0
  -26.2929  -29.6709   24.1295 H   0  0  0  0  0  0
  -27.3920  -29.7240   25.4866 H   0  0  0  0  0  0
  -27.8866  -30.4164   23.9612 H   0  0  0  0  0  0
  -27.2691  -33.3633   26.2046 H   0  0  0  0  0  0
  -28.3893  -32.6846   25.0326 H   0  0  0  0  0  0
  -28.0730  -31.8456   26.5430 H   0  0  0  0  0  0
  -28.2601  -38.0089   24.7496 H   0  0  0  0  0  0
  -28.1081  -36.2620   24.6281 H   0  0  0  0  0  0
  -27.2312  -37.1441   25.8862 H   0  0  0  0  0  0
  -20.9432  -29.8738   21.6806 H   0  0  0  0  0  0
  -26.0164  -38.2827   24.1408 H   0  0  0  0  0  0
  -29.3944  -21.4108   22.6733 H   0  0  0  0  0  0
  -28.5206  -18.5852   26.2740 H   0  0  0  0  0  0
  -29.5358  -17.2974   25.6341 H   0  0  0  0  0  0
  -28.0191  -17.7084   24.8322 H   0  0  0  0  0  0
  -31.1518  -17.3999   19.7754 H   0  0  0  0  0  0
  -29.6266  -17.3135   18.9937 H   0  0  0  0  0  0
  -28.9388  -19.9906   24.3204 H   0  0  0  0  0  0
  -30.4762  -19.5579   25.0201 H   0  0  0  0  0  0
  -26.9872  -24.5609   20.1286 H   0  0  0  0  0  0
  -28.0877  -24.7100   18.7764 H   0  0  0  0  0  0
  -31.0187  -17.2252   22.2119 H   0  0  0  0  0  0
  -28.2797  -22.2416   19.1579 H   0  0  0  0  0  0
  -28.8807  -15.7859   20.8977 H   0  0  0  0  0  0
  1 25  1  0  0  0
  1 30  2  0  0  0
  1 83  1  0  0  0
  2  3  1  0  0  0
  2 25  1  0  0  0
  2 86  1  0  0  0
  2 87  1  0  0  0
  3  4  1  0  0  0
  3 88  1  0  0  0
  3 89  1  0  0  0
  4  5  1  0  0  0
  4 90  1  0  0  0
  4 91  1  0  0  0
  5  6  1  0  0  0
  5 26  1  0  0  0
  5 92  1  0  0  0
  6 25  1  0  0  0
  6 93  1  0  0  0
  6 94  1  0  0  0
  7  8  2  0  0  0
  7 26  1  0  0  0
  7 29  1  0  0  0
  8  9  1  0  0  0
  8 22  1  0  0  0
  9 10  1  0  0  0
  9 27  2  0  0  0
 10 11  2  0  0  0
 10 15  1  0  0  0
 11 12  1  0  0  0
 11 95  1  0  0  0
 12 13  2  0  0  0
 12 96  1  0  0  0
 13 14  1  0  0  0
 13 31  1  0  0  0
 14 15  2  0  0  0
 14 97  1  0  0  0
 15 98  1  0  0  0
 16 17  2  0  0  0
 16 21  1  0  0  0
 16 31  1  0  0  0
 17 18  1  0  0  0
 17 99  1  0  0  0
 18 19  2  0  0  0
 18100  1  0  0  0
 19 20  1  0  0  0
 19 24  1  0  0  0
 20 21  2  0  0  0
 20101  1  0  0  0
 21 23  1  0  0  0
 22 28  1  0  0  0
 22 32  2  0  0  0
 26 27  1  0  0  0
 28102  1  0  0  0
 28103  1  0  0  0
 29104  1  0  0  0
 29105  1  0  0  0
 33 34  1  0  0  0
 33 66  1  0  0  0
 33 70  2  0  0  0
 34 36  1  0  0  0
 34 59  1  0  0  0
 34106  1  0  0  0
 35 44  2  0  0  0
 35 45  1  0  0  0
 35 68  1  0  0  0
 36 56  1  0  0  0
 36107  1  0  0  0
 37 39  1  0  0  0
 37 47  1  0  0  0
 37 66  1  0  0  0
 37108  1  0  0  0
 38 43  2  0  0  0
 38 46  1  0  0  0
 38 47  1  0  0  0
 39 64  1  0  0  0
 39 67  2  0  0  0
 40 52  1  0  0  0
 40 53  2  0  0  0
 40 58  1  0  0  0
 41109  1  0  0  0
 41110  1  0  0  0
 41111  1  0  0  0
 41 48  1  0  0  0
 42 43  1  0  0  0
 42 66  1  0  0  0
 42112  1  0  0  0
 42113  1  0  0  0
 43 44  1  0  0  0
 44114  1  0  0  0
 45 46  2  0  0  0
 45115  1  0  0  0
 46116  1  0  0  0
 47117  1  0  0  0
 47118  1  0  0  0
 48 56  1  0  0  0
 48 65  1  0  0  0
 48119  1  0  0  0
 49 50  1  0  0  0
 49 53  1  0  0  0
 49 64  1  0  0  0
 49120  1  0  0  0
 50 51  1  0  0  0
 50121  1  0  0  0
 50122  1  0  0  0
 51 52  1  0  0  0
 51123  1  0  0  0
 51124  1  0  0  0
 52125  1  0  0  0
 52126  1  0  0  0
 53 54  1  0  0  0
 54 55  2  0  0  0
 54127  1  0  0  0
 55 57  1  0  0  0
 55128  1  0  0  0
 56 69  2  0  0  0
 57 58  2  0  0  0
 57129  1  0  0  0
 58130  1  0  0  0
 59 60  1  0  0  0
 59 61  1  0  0  0
 59 62  1  0  0  0
 60131  1  0  0  0
 60132  1  0  0  0
 60133  1  0  0  0
 61134  1  0  0  0
 61135  1  0  0  0
 61136  1  0  0  0
 62137  1  0  0  0
 62138  1  0  0  0
 62139  1  0  0  0
 63 65  1  0  0  0
 63140  1  0  0  0
 63141  1  0  0  0
 63142  1  0  0  0
 64143  1  0  0  0
 65144  1  0  0  0
 68 80  1  0  0  0
 71 72  1  0  0  0
 71 74  2  0  0  0
 71145  1  0  0  0
 72 73  2  0  0  0
 72 75  1  0  0  0
 73 78  1  0  0  0
 73 85  1  0  0  0
 74 82  1  0  0  0
 74 85  1  0  0  0
 75 79  1  0  0  0
 75 81  2  0  0  0
 76 80  1  0  0  0
 76 82  1  0  0  0
 76 84  2  0  0  0
 77 79  1  0  0  0
 77146  1  0  0  0
 77147  1  0  0  0
 77148  1  0  0  0
 78 83  1  0  0  0
 78149  1  0  0  0
 78150  1  0  0  0
 79151  1  0  0  0
 79152  1  0  0  0
 80153  1  0  0  0
 80154  1  0  0  0
 81155  1  0  0  0
 82156  1  0  0  0
 83157  1  0  0  0
M  ISO  4   1 100  68 101  80 101  83 100
M  END
> <chiral flag>
0

> <version>
0

> <s_m_source_file>
/data/baiqing/PycharmProjects/Reinvent-master-3.2/result/LINK_invent/BTK/process_docking_weight1_custom_product_contain_oxygen_bond_distance_aromatic_linkinvent_7_9_3/rearranged_h_0158.sdf

> <i_m_source_file_index>
59

> <r_mmod_Potential_Energy-OPLS-2005>
83.4556732177734

> <r_mmod_Stretch_Energy-OPLS-2005>
147.296493530273

> <r_mmod_Bend_Energy-OPLS-2005>
196.040710449219

> <r_mmod_Torsional_Energy-OPLS-2005>
218.155899047852

> <r_mmod_Improper_Torsional_Energy-OPLS-2005>
7.59144163131714

> <r_mmod_Van_der_Waal_Energy-OPLS-2005>
125.873809814453

> <r_mmod_Electrostatic_Energy-OPLS-2005>
-470.6396484375

> <r_mmod_Solvation_Energy-OPLS-2005>
-253.979843139648

> <b_mmod_Minimization_Converged-OPLS-2005>
0

> <r_mmod_RMS_Derivative-OPLS-2005>
1.27779471874237

$$$$
59
                    3D
 Structure written by MMmdl.
164173  0  0  1  0            999 V2000
  -30.6136  -14.7551   20.4575 C   0  0  0  0  0  0
  -30.4365  -12.4693   19.4707 C   0  0  0  0  0  0
  -29.5052  -12.5285   18.2388 C   0  0  0  0  0  0
  -28.0327  -12.3533   18.6567 C   0  0  0  0  0  0
  -27.6458  -13.2426   19.8678 C   0  0  2  0  0  0
  -28.6960  -13.1562   20.9984 C   0  0  0  0  0  0
  -25.2490  -13.8187   20.5778 C   0  0  0  0  0  0
  -24.1787  -13.0407   20.9235 C   0  0  0  0  0  0
  -24.6403  -11.6895   20.8744 C   0  0  0  0  0  0
  -23.9081  -10.4267   21.0391 C   0  0  0  0  0  0
  -24.3629   -9.4191   21.9178 C   0  0  0  0  0  0
  -23.6309   -8.2225   22.0740 C   0  0  0  0  0  0
  -22.4292   -8.0263   21.3530 C   0  0  0  0  0  0
  -21.9924   -9.0228   20.4626 C   0  0  0  0  0  0
  -22.7251  -10.2116   20.3037 C   0  0  0  0  0  0
  -21.6857   -6.0721   22.5277 C   0  0  0  0  0  0
  -21.4013   -6.5626   23.8204 C   0  0  0  0  0  0
  -21.3664   -5.6787   24.9170 C   0  0  0  0  0  0
  -21.6050   -4.3047   24.7222 C   0  0  0  0  0  0
  -21.8824   -3.8136   23.4341 C   0  0  0  0  0  0
  -21.9196   -4.6951   22.3396 C   0  0  0  0  0  0
  -22.7804  -13.5169   21.1892 C   0  0  0  0  0  0
  -22.1660   -4.2132   21.0969 F   0  0  0  0  0  0
  -21.5644   -3.4535   25.7734 F   0  0  0  0  0  0
  -30.0000  -13.5192   20.4263 N   0  0  0  0  0  0
  -26.2960  -12.9447   20.3390 N   0  0  0  0  0  0
  -25.9341  -11.6561   20.5777 N   0  0  0  0  0  0
  -22.0459  -12.8140   22.0444 N   0  0  0  0  0  0
  -25.4077  -15.1920   20.4281 N   0  0  0  0  0  0
  -31.7796  -14.8628   20.0641 O   0  0  0  0  0  0
  -21.6645   -6.8872   21.4239 O   0  0  0  0  0  0
  -22.3481  -14.5457   20.6731 O   0  0  0  0  0  0
  -24.6306  -31.8545   23.1964 C   0  0  0  0  0  0
  -25.9126  -32.4752   23.8324 C   0  0  1  0  0  0
  -27.2244  -27.2551   20.1135 C   0  0  0  0  0  0
  -25.5912  -33.8555   24.2243 N   0  0  0  0  0  0
  -23.4290  -30.4761   21.5387 C   0  0  2  0  0  0
  -24.8774  -28.9236   20.1057 C   0  0  0  0  0  0
  -22.7503  -29.4578   22.4874 C   0  0  0  0  0  0
  -18.0303  -28.1385   22.8411 C   0  0  0  0  0  0
  -24.1495  -36.7288   23.2643 C   0  0  0  0  0  0
  -25.9770  -30.7619   21.3811 C   0  0  0  0  0  0
  -26.0479  -29.3863   20.7179 C   0  0  0  0  0  0
  -27.2191  -28.5622   20.7126 C   0  0  0  0  0  0
  -26.0223  -26.8536   19.4895 C   0  0  0  0  0  0
  -24.8697  -27.6652   19.4846 C   0  0  0  0  0  0
  -23.6506  -29.8136   20.1539 C   0  0  0  0  0  0
  -25.4120  -36.3079   24.0331 C   0  0  1  0  0  0
  -20.5889  -28.3690   23.1275 C   0  0  2  0  0  0
  -20.6720  -26.9378   22.5503 C   0  0  0  0  0  0
  -19.5831  -26.6436   21.5146 C   0  0  0  0  0  0
  -18.1967  -26.7976   22.1446 C   0  0  0  0  0  0
  -19.1530  -28.8858   23.2852 C   0  0  0  0  0  0
  -18.9418  -30.1433   23.8879 C   0  0  0  0  0  0
  -17.6419  -30.6582   24.0496 C   0  0  0  0  0  0
  -25.9057  -34.9440   23.5097 C   0  0  0  0  0  0
  -16.5319  -29.9071   23.6239 C   0  0  0  0  0  0
  -16.7287  -28.6478   23.0260 C   0  0  0  0  0  0
  -26.4481  -31.6579   25.0716 C   0  0  0  0  0  0
  -25.3686  -31.3718   26.1420 C   0  0  0  0  0  0
  -27.0336  -30.2989   24.6226 C   0  0  0  0  0  0
  -27.6041  -32.4319   25.7482 C   0  0  0  0  0  0
  -27.5587  -37.1808   24.8467 C   0  0  0  0  0  0
  -21.4200  -29.3009   22.3598 N   0  0  0  0  0  0
  -26.4304  -37.3769   23.9399 N   0  0  0  0  0  0
  -24.6982  -31.0506   22.0946 N   0  0  0  0  0  0
  -23.4199  -28.8132   23.2986 O   0  0  0  0  0  0
  -28.3431  -26.3881   20.1924 O   0  0  0  0  0  0
  -26.5638  -34.8910   22.4673 O   0  0  0  0  0  0
  -23.5447  -32.1358   23.7245 O   0  0  0  0  0  0
  -27.1645  -17.7743   19.2652 C   0  0  0  0  0  0
  -29.3544  -16.8720   18.6942 C   0  0  0  0  0  0
  -29.1157  -18.4017   20.5412 C   0  0  0  0  0  0
  -27.7039  -18.3062   20.4600 C   0  0  0  0  0  0
  -28.0250  -17.1753   18.3174 C   0  0  0  0  0  0
  -29.7439  -17.1697   20.0228 C   0  0  0  0  0  0
  -27.9689  -23.5982   21.5953 C   0  0  0  0  0  0
  -28.5164  -23.6876   20.3763 C   0  0  0  0  0  0
  -29.6004  -19.8256   20.0509 C   0  0  0  0  0  0
  -27.9717  -22.3245   22.4258 C   0  0  0  0  0  0
  -29.1734  -22.3714   19.7661 C   0  0  0  0  0  0
  -29.0313  -21.2757   21.9985 C   0  0  0  0  0  0
  -26.7707  -18.9600   21.4617 C   0  0  0  0  0  0
  -28.4408  -25.0380   19.5283 C   0  0  0  0  0  0
  -29.1271  -21.0506   20.5498 N   0  0  0  0  0  0
  -27.5243  -16.7736   17.0835 N   0  0  0  0  0  0
  -29.8753  -15.8886   20.7847 N   0  0  0  0  0  0
  -30.3640  -19.8481   19.0807 O   0  0  0  0  0  0
  -31.4706  -12.6034   19.1483 H   0  0  0  0  0  0
  -30.3998  -11.4857   19.9392 H   0  0  0  0  0  0
  -29.7811  -11.7549   17.5226 H   0  0  0  0  0  0
  -29.6306  -13.4850   17.7276 H   0  0  0  0  0  0
  -27.8861  -11.3031   18.9114 H   0  0  0  0  0  0
  -27.3695  -12.5599   17.8163 H   0  0  0  0  0  0
  -27.6433  -14.2700   19.5016 H   0  0  0  0  0  0
  -28.7354  -12.1449   21.4076 H   0  0  0  0  0  0
  -28.4330  -13.8090   21.8320 H   0  0  0  0  0  0
  -25.2764   -9.5667   22.4781 H   0  0  0  0  0  0
  -24.0016   -7.4606   22.7446 H   0  0  0  0  0  0
  -21.0864   -8.8738   19.8926 H   0  0  0  0  0  0
  -22.3694  -10.9660   19.6160 H   0  0  0  0  0  0
  -21.1991   -7.6133   23.9703 H   0  0  0  0  0  0
  -21.1495   -6.0511   25.9075 H   0  0  0  0  0  0
  -22.0602   -2.7596   23.2837 H   0  0  0  0  0  0
  -22.4117  -11.9858   22.4908 H   0  0  0  0  0  0
  -21.1026  -13.1079   22.2541 H   0  0  0  0  0  0
  -24.6255  -15.8267   20.5398 H   0  0  0  0  0  0
  -26.2431  -15.6456   20.0799 H   0  0  0  0  0  0
  -26.7186  -32.5385   23.1063 H   0  0  0  0  0  0
  -25.0047  -33.9689   25.0379 H   0  0  0  0  0  0
  -22.7260  -31.2989   21.3918 H   0  0  0  0  0  0
  -23.3762  -35.9620   23.3308 H   0  0  0  0  0  0
  -24.3591  -36.8904   22.2059 H   0  0  0  0  0  0
  -23.7242  -37.6485   23.6661 H   0  0  0  0  0  0
  -26.1269  -31.5268   20.6191 H   0  0  0  0  0  0
  -26.8511  -30.8032   22.0195 H   0  0  0  0  0  0
  -28.1161  -28.9149   21.2030 H   0  0  0  0  0  0
  -25.9222  -25.8877   19.0227 H   0  0  0  0  0  0
  -23.9685  -27.3009   19.0102 H   0  0  0  0  0  0
  -23.7848  -30.5919   19.4014 H   0  0  0  0  0  0
  -22.7689  -29.2522   19.8426 H   0  0  0  0  0  0
  -25.1307  -36.1936   25.0824 H   0  0  0  0  0  0
  -20.9996  -28.3321   24.1382 H   0  0  0  0  0  0
  -20.5349  -26.2297   23.3695 H   0  0  0  0  0  0
  -21.6645  -26.7246   22.1546 H   0  0  0  0  0  0
  -19.6991  -25.6373   21.1100 H   0  0  0  0  0  0
  -19.6891  -27.3327   20.6756 H   0  0  0  0  0  0
  -17.4333  -26.6885   21.3730 H   0  0  0  0  0  0
  -18.0240  -26.0026   22.8710 H   0  0  0  0  0  0
  -19.7872  -30.7253   24.2298 H   0  0  0  0  0  0
  -17.4959  -31.6283   24.5050 H   0  0  0  0  0  0
  -15.5313  -30.2986   23.7479 H   0  0  0  0  0  0
  -15.8719  -28.0803   22.6880 H   0  0  0  0  0  0
  -24.5893  -30.7043   25.7723 H   0  0  0  0  0  0
  -24.8839  -32.2876   26.4812 H   0  0  0  0  0  0
  -25.7992  -30.8909   27.0212 H   0  0  0  0  0  0
  -26.2927  -29.6730   24.1237 H   0  0  0  0  0  0
  -27.3984  -29.7265   25.4766 H   0  0  0  0  0  0
  -27.8823  -30.4251   23.9499 H   0  0  0  0  0  0
  -27.2664  -33.3636   26.2027 H   0  0  0  0  0  0
  -28.3858  -32.6843   25.0308 H   0  0  0  0  0  0
  -28.0694  -31.8453   26.5412 H   0  0  0  0  0  0
  -28.2608  -38.0102   24.7511 H   0  0  0  0  0  0
  -28.1080  -36.2634   24.6307 H   0  0  0  0  0  0
  -27.2302  -37.1473   25.8869 H   0  0  0  0  0  0
  -20.9405  -29.8661   21.6736 H   0  0  0  0  0  0
  -26.0192  -38.2854   24.1372 H   0  0  0  0  0  0
  -26.1038  -17.8618   19.0675 H   0  0  0  0  0  0
  -29.9049  -16.1527   18.1014 H   0  0  0  0  0  0
  -27.4650  -24.4582   22.0171 H   0  0  0  0  0  0
  -26.9709  -21.8966   22.3942 H   0  0  0  0  0  0
  -28.1492  -22.6020   23.4656 H   0  0  0  0  0  0
  -30.2183  -22.5994   19.5520 H   0  0  0  0  0  0
  -28.7047  -22.2004   18.7956 H   0  0  0  0  0  0
  -28.8849  -20.3475   22.5490 H   0  0  0  0  0  0
  -30.0117  -21.6367   22.3168 H   0  0  0  0  0  0
  -26.5310  -19.9802   21.1644 H   0  0  0  0  0  0
  -27.2061  -18.9600   22.4607 H   0  0  0  0  0  0
  -25.8384  -18.4013   21.5243 H   0  0  0  0  0  0
  -27.7044  -24.9015   18.7418 H   0  0  0  0  0  0
  -29.3839  -25.0812   18.9814 H   0  0  0  0  0  0
  -26.6821  -17.2352   16.7516 H   0  0  0  0  0  0
  -28.1863  -16.6178   16.3307 H   0  0  0  0  0  0
  -29.0804  -15.6902   21.3761 H   0  0  0  0  0  0
  1 25  1  0  0  0
  1 30  2  0  0  0
  1 87  1  0  0  0
  2  3  1  0  0  0
  2 25  1  0  0  0
  2 89  1  0  0  0
  2 90  1  0  0  0
  3  4  1  0  0  0
  3 91  1  0  0  0
  3 92  1  0  0  0
  4  5  1  0  0  0
  4 93  1  0  0  0
  4 94  1  0  0  0
  5  6  1  0  0  0
  5 26  1  0  0  0
  5 95  1  0  0  0
  6 25  1  0  0  0
  6 96  1  0  0  0
  6 97  1  0  0  0
  7  8  2  0  0  0
  7 26  1  0  0  0
  7 29  1  0  0  0
  8  9  1  0  0  0
  8 22  1  0  0  0
  9 10  1  0  0  0
  9 27  2  0  0  0
 10 11  2  0  0  0
 10 15  1  0  0  0
 11 12  1  0  0  0
 11 98  1  0  0  0
 12 13  2  0  0  0
 12 99  1  0  0  0
 13 14  1  0  0  0
 13 31  1  0  0  0
 14 15  2  0  0  0
 14100  1  0  0  0
 15101  1  0  0  0
 16 17  2  0  0  0
 16 21  1  0  0  0
 16 31  1  0  0  0
 17 18  1  0  0  0
 17102  1  0  0  0
 18 19  2  0  0  0
 18103  1  0  0  0
 19 20  1  0  0  0
 19 24  1  0  0  0
 20 21  2  0  0  0
 20104  1  0  0  0
 21 23  1  0  0  0
 22 28  1  0  0  0
 22 32  2  0  0  0
 26 27  1  0  0  0
 28105  1  0  0  0
 28106  1  0  0  0
 29107  1  0  0  0
 29108  1  0  0  0
 33 34  1  0  0  0
 33 66  1  0  0  0
 33 70  2  0  0  0
 34 36  1  0  0  0
 34 59  1  0  0  0
 34109  1  0  0  0
 35 44  2  0  0  0
 35 45  1  0  0  0
 35 68  1  0  0  0
 36 56  1  0  0  0
 36110  1  0  0  0
 37 39  1  0  0  0
 37 47  1  0  0  0
 37 66  1  0  0  0
 37111  1  0  0  0
 38 43  2  0  0  0
 38 46  1  0  0  0
 38 47  1  0  0  0
 39 64  1  0  0  0
 39 67  2  0  0  0
 40 52  1  0  0  0
 40 53  2  0  0  0
 40 58  1  0  0  0
 41112  1  0  0  0
 41113  1  0  0  0
 41114  1  0  0  0
 41 48  1  0  0  0
 42 43  1  0  0  0
 42 66  1  0  0  0
 42115  1  0  0  0
 42116  1  0  0  0
 43 44  1  0  0  0
 44117  1  0  0  0
 45 46  2  0  0  0
 45118  1  0  0  0
 46119  1  0  0  0
 47120  1  0  0  0
 47121  1  0  0  0
 48 56  1  0  0  0
 48 65  1  0  0  0
 48122  1  0  0  0
 49 50  1  0  0  0
 49 53  1  0  0  0
 49 64  1  0  0  0
 49123  1  0  0  0
 50 51  1  0  0  0
 50124  1  0  0  0
 50125  1  0  0  0
 51 52  1  0  0  0
 51126  1  0  0  0
 51127  1  0  0  0
 52128  1  0  0  0
 52129  1  0  0  0
 53 54  1  0  0  0
 54 55  2  0  0  0
 54130  1  0  0  0
 55 57  1  0  0  0
 55131  1  0  0  0
 56 69  2  0  0  0
 57 58  2  0  0  0
 57132  1  0  0  0
 58133  1  0  0  0
 59 60  1  0  0  0
 59 61  1  0  0  0
 59 62  1  0  0  0
 60134  1  0  0  0
 60135  1  0  0  0
 60136  1  0  0  0
 61137  1  0  0  0
 61138  1  0  0  0
 61139  1  0  0  0
 62140  1  0  0  0
 62141  1  0  0  0
 62142  1  0  0  0
 63 65  1  0  0  0
 63143  1  0  0  0
 63144  1  0  0  0
 63145  1  0  0  0
 64146  1  0  0  0
 65147  1  0  0  0
 68 84  1  0  0  0
 71 74  2  0  0  0
 71 75  1  0  0  0
 71148  1  0  0  0
 72 75  2  0  0  0
 72 76  1  0  0  0
 72149  1  0  0  0
 73 74  1  0  0  0
 73 76  2  0  0  0
 73 79  1  0  0  0
 74 83  1  0  0  0
 75 86  1  0  0  0
 76 87  1  0  0  0
 77 78  2  0  0  0
 77 80  1  0  0  0
 77150  1  0  0  0
 78 81  1  0  0  0
 78 84  1  0  0  0
 79 85  1  0  0  0
 79 88  2  0  0  0
 80 82  1  0  0  0
 80151  1  0  0  0
 80152  1  0  0  0
 81 85  1  0  0  0
 81153  1  0  0  0
 81154  1  0  0  0
 82 85  1  0  0  0
 82155  1  0  0  0
 82156  1  0  0  0
 83157  1  0  0  0
 83158  1  0  0  0
 83159  1  0  0  0
 84160  1  0  0  0
 84161  1  0  0  0
 86162  1  0  0  0
 86163  1  0  0  0
 87164  1  0  0  0
M  ISO  4   1 100  68 101  84 101  87 100
M  END
> <chiral flag>
0

> <version>
0

> <s_m_source_file>
/data/baiqing/PycharmProjects/Reinvent-master-3.2/result/LINK_invent/BTK/process_docking_weight1_custom_product_contain_oxygen_bond_distance_aromatic_linkinvent_7_9_3/rearranged_h_0158.sdf

> <i_m_source_file_index>
60

> <r_mmod_Potential_Energy-OPLS-2005>
674.706176757812

> <r_mmod_Stretch_Energy-OPLS-2005>
146.480224609375

> <r_mmod_Bend_Energy-OPLS-2005>
207.585433959961

> <r_mmod_Torsional_Energy-OPLS-2005>
538.641296386719

> <r_mmod_Improper_Torsional_Energy-OPLS-2005>
48.8919982910156

> <r_mmod_Van_der_Waal_Energy-OPLS-2005>
139.634170532227

> <r_mmod_Electrostatic_Energy-OPLS-2005>
-264.091979980469

> <r_mmod_Solvation_Energy-OPLS-2005>
-228.269927978516

> <b_mmod_Minimization_Converged-OPLS-2005>
0

> <r_mmod_RMS_Derivative-OPLS-2005>
3.44594502449036

$$$$
60
                    3D
 Structure written by MMmdl.
157165  0  0  1  0            999 V2000
  -30.6820  -14.5132   20.5433 C   0  0  0  0  0  0
  -30.4295  -12.3228   19.4302 C   0  0  0  0  0  0
  -29.4992  -12.5007   18.2107 C   0  0  0  0  0  0
  -28.0207  -12.3545   18.6234 C   0  0  0  0  0  0
  -27.6598  -13.2062   19.8694 C   0  0  2  0  0  0
  -28.7037  -13.0101   20.9934 C   0  0  0  0  0  0
  -25.2592  -13.8151   20.5678 C   0  0  0  0  0  0
  -24.1842  -13.0436   20.9186 C   0  0  0  0  0  0
  -24.6390  -11.6900   20.8733 C   0  0  0  0  0  0
  -23.9054  -10.4290   21.0399 C   0  0  0  0  0  0
  -24.3609   -9.4209   21.9180 C   0  0  0  0  0  0
  -23.6289   -8.2240   22.0749 C   0  0  0  0  0  0
  -22.4271   -8.0275   21.3542 C   0  0  0  0  0  0
  -21.9902   -9.0247   20.4645 C   0  0  0  0  0  0
  -22.7225  -10.2129   20.3053 C   0  0  0  0  0  0
  -21.6852   -6.0733   22.5278 C   0  0  0  0  0  0
  -21.4008   -6.5638   23.8211 C   0  0  0  0  0  0
  -21.3665   -5.6792   24.9175 C   0  0  0  0  0  0
  -21.6046   -4.3054   24.7227 C   0  0  0  0  0  0
  -21.8820   -3.8145   23.4349 C   0  0  0  0  0  0
  -21.9195   -4.6960   22.3403 C   0  0  0  0  0  0
  -22.7868  -13.5242   21.1855 C   0  0  0  0  0  0
  -22.1663   -4.2147   21.0982 F   0  0  0  0  0  0
  -21.5637   -3.4539   25.7740 F   0  0  0  0  0  0
  -30.0320  -13.3194   20.4376 N   0  0  0  0  0  0
  -26.3018  -12.9317   20.3339 N   0  0  0  0  0  0
  -25.9316  -11.6481   20.5753 N   0  0  0  0  0  0
  -22.0504  -12.8232   22.0405 N   0  0  0  0  0  0
  -25.4326  -15.1867   20.4084 N   0  0  0  0  0  0
  -31.8361  -14.6770   20.1353 O   0  0  0  0  0  0
  -21.6641   -6.8870   21.4237 O   0  0  0  0  0  0
  -22.3559  -14.5556   20.6714 O   0  0  0  0  0  0
  -24.6198  -31.8673   23.2118 C   0  0  0  0  0  0
  -25.9082  -32.4814   23.8409 C   0  0  1  0  0  0
  -27.2219  -27.3915   20.0906 C   0  0  0  0  0  0
  -25.5934  -33.8615   24.2334 N   0  0  0  0  0  0
  -23.4079  -30.4963   21.5542 C   0  0  2  0  0  0
  -24.8509  -28.9697   20.1120 C   0  0  0  0  0  0
  -22.7436  -29.4663   22.4978 C   0  0  0  0  0  0
  -18.0278  -28.1378   22.8489 C   0  0  0  0  0  0
  -24.1492  -36.7306   23.2636 C   0  0  0  0  0  0
  -25.9458  -30.8176   21.3764 C   0  0  0  0  0  0
  -26.0182  -29.4531   20.7162 C   0  0  0  0  0  0
  -27.2048  -28.6720   20.7063 C   0  0  0  0  0  0
  -26.0286  -26.9558   19.4566 C   0  0  0  0  0  0
  -24.8539  -27.7215   19.4785 C   0  0  0  0  0  0
  -23.6170  -29.8408   20.1658 C   0  0  0  0  0  0
  -25.4112  -36.3102   24.0337 C   0  0  1  0  0  0
  -20.5872  -28.3670   23.1303 C   0  0  2  0  0  0
  -20.6768  -26.9400   22.5413 C   0  0  0  0  0  0
  -19.5749  -26.6383   21.5212 C   0  0  0  0  0  0
  -18.1926  -26.7927   22.1615 C   0  0  0  0  0  0
  -19.1528  -28.8841   23.2894 C   0  0  0  0  0  0
  -18.9453  -30.1447   23.8901 C   0  0  0  0  0  0
  -17.6453  -30.6580   24.0565 C   0  0  0  0  0  0
  -25.9045  -34.9471   23.5126 C   0  0  0  0  0  0
  -16.5344  -29.9078   23.6334 C   0  0  0  0  0  0
  -16.7264  -28.6499   23.0347 C   0  0  0  0  0  0
  -26.4491  -31.6599   25.0745 C   0  0  0  0  0  0
  -25.3742  -31.3721   26.1481 C   0  0  0  0  0  0
  -27.0320  -30.3027   24.6158 C   0  0  0  0  0  0
  -27.6071  -32.4316   25.7500 C   0  0  0  0  0  0
  -27.5585  -37.1806   24.8461 C   0  0  0  0  0  0
  -21.4159  -29.3038   22.3711 N   0  0  0  0  0  0
  -26.4294  -37.3790   23.9410 N   0  0  0  0  0  0
  -24.6762  -31.0747   22.1044 N   0  0  0  0  0  0
  -23.4197  -28.8187   23.3013 O   0  0  0  0  0  0
  -28.3591  -26.5839   20.1332 O   0  0  0  0  0  0
  -26.5596  -34.8922   22.4681 O   0  0  0  0  0  0
  -23.5380  -32.1443   23.7493 O   0  0  0  0  0  0
  -29.2085  -17.8109   20.4319 C   0  0  0  0  0  0
  -29.9231  -19.0438   20.2944 C   0  0  0  0  0  0
  -31.2304  -18.8041   20.6430 C   0  0  0  0  0  0
  -30.1546  -16.8829   20.7811 C   0  0  0  0  0  0
  -29.3313  -20.2804   19.7276 C   0  0  0  0  0  0
  -32.4035  -19.6705   20.6890 C   0  0  0  0  0  0
  -29.1802  -24.1459   20.1544 C   0  0  0  0  0  0
  -33.7315  -19.0584   21.1110 C   0  0  0  0  0  0
  -28.9809  -22.7626   19.4923 C   0  0  0  0  0  0
  -28.1471  -25.2087   19.7085 C   0  0  0  0  0  0
  -29.9073  -15.5486   20.9392 N   0  0  0  0  0  0
  -29.5702  -21.5559   20.1407 N   0  0  0  0  0  0
  -28.4829  -20.0888   18.7065 N   0  3  0  0  0  0
  -32.3470  -20.8716   20.4147 O   0  0  0  0  0  0
  -30.0734  -24.3672   20.9804 O   0  0  0  0  0  0
  -31.3804  -17.4650   20.9398 O   0  0  0  0  0  0
  -31.4734  -12.4272   19.1291 H   0  0  0  0  0  0
  -30.3370  -11.3161   19.8403 H   0  0  0  0  0  0
  -29.7438  -11.7686   17.4399 H   0  0  0  0  0  0
  -29.6606  -13.4822   17.7616 H   0  0  0  0  0  0
  -27.8400  -11.2996   18.8325 H   0  0  0  0  0  0
  -27.3679  -12.6128   17.7888 H   0  0  0  0  0  0
  -27.6947  -14.2491   19.5542 H   0  0  0  0  0  0
  -28.6866  -11.9799   21.3518 H   0  0  0  0  0  0
  -28.4655  -13.6254   21.8626 H   0  0  0  0  0  0
  -25.2752   -9.5695   22.4757 H   0  0  0  0  0  0
  -24.0005   -7.4635   22.7467 H   0  0  0  0  0  0
  -21.0835   -8.8762   19.8952 H   0  0  0  0  0  0
  -22.3678  -10.9668   19.6165 H   0  0  0  0  0  0
  -21.1985   -7.6144   23.9712 H   0  0  0  0  0  0
  -21.1491   -6.0523   25.9080 H   0  0  0  0  0  0
  -22.0593   -2.7606   23.2847 H   0  0  0  0  0  0
  -22.4107  -11.9883   22.4784 H   0  0  0  0  0  0
  -21.1122  -13.1258   22.2615 H   0  0  0  0  0  0
  -24.6637  -15.8405   20.5099 H   0  0  0  0  0  0
  -26.2762  -15.6198   20.0570 H   0  0  0  0  0  0
  -26.7149  -32.5503   23.1164 H   0  0  0  0  0  0
  -25.0120  -33.9780   25.0503 H   0  0  0  0  0  0
  -22.6983  -31.3153   21.4200 H   0  0  0  0  0  0
  -23.3755  -35.9639   23.3298 H   0  0  0  0  0  0
  -24.3588  -36.8916   22.2048 H   0  0  0  0  0  0
  -23.7241  -37.6512   23.6646 H   0  0  0  0  0  0
  -26.0725  -31.5863   20.6129 H   0  0  0  0  0  0
  -26.8287  -30.8603   22.0023 H   0  0  0  0  0  0
  -28.0994  -29.0387   21.1904 H   0  0  0  0  0  0
  -25.9563  -26.0169   18.9295 H   0  0  0  0  0  0
  -23.9608  -27.3474   18.9964 H   0  0  0  0  0  0
  -23.7294  -30.6212   19.4123 H   0  0  0  0  0  0
  -22.7388  -29.2667   19.8649 H   0  0  0  0  0  0
  -25.1293  -36.1962   25.0831 H   0  0  0  0  0  0
  -20.9964  -28.3228   24.1423 H   0  0  0  0  0  0
  -20.5664  -26.2279   23.3605 H   0  0  0  0  0  0
  -21.6639  -26.7437   22.1209 H   0  0  0  0  0  0
  -19.6910  -25.6296   21.1233 H   0  0  0  0  0  0
  -19.6692  -27.3197   20.6746 H   0  0  0  0  0  0
  -17.4202  -26.6687   21.4012 H   0  0  0  0  0  0
  -18.0311  -26.0058   22.8999 H   0  0  0  0  0  0
  -19.7926  -30.7268   24.2264 H   0  0  0  0  0  0
  -17.5006  -31.6262   24.5163 H   0  0  0  0  0  0
  -15.5344  -30.2980   23.7661 H   0  0  0  0  0  0
  -15.8665  -28.0824   22.7054 H   0  0  0  0  0  0
  -24.5948  -30.7023   25.7830 H   0  0  0  0  0  0
  -24.8892  -32.2876   26.4885 H   0  0  0  0  0  0
  -25.8089  -30.8941   27.0268 H   0  0  0  0  0  0
  -26.2877  -29.6783   24.1200 H   0  0  0  0  0  0
  -27.4047  -29.7273   25.4643 H   0  0  0  0  0  0
  -27.8742  -30.4319   23.9355 H   0  0  0  0  0  0
  -27.2703  -33.3617   26.2095 H   0  0  0  0  0  0
  -28.3877  -32.6867   25.0321 H   0  0  0  0  0  0
  -28.0747  -31.8426   26.5401 H   0  0  0  0  0  0
  -28.2600  -38.0105   24.7516 H   0  0  0  0  0  0
  -28.1083  -36.2639   24.6275 H   0  0  0  0  0  0
  -27.2309  -37.1436   25.8866 H   0  0  0  0  0  0
  -20.9315  -29.8783   21.6957 H   0  0  0  0  0  0
  -26.0181  -38.2867   24.1413 H   0  0  0  0  0  0
  -28.1621  -17.6247   20.2352 H   0  0  0  0  0  0
  -33.9533  -18.1840   20.4999 H   0  0  0  0  0  0
  -33.6862  -18.7512   22.1555 H   0  0  0  0  0  0
  -34.5398  -19.7793   20.9935 H   0  0  0  0  0  0
  -29.3713  -22.8285   18.4770 H   0  0  0  0  0  0
  -27.9062  -22.6052   19.4022 H   0  0  0  0  0  0
  -27.2068  -24.8436   20.1222 H   0  0  0  0  0  0
  -28.0643  -25.1775   18.6215 H   0  0  0  0  0  0
  -28.9604  -15.2949   21.1711 H   0  0  0  0  0  0
  -30.2549  -21.7274   20.8664 H   0  0  0  0  0  0
  -28.3231  -19.1509   18.3707 H   0  0  0  0  0  0
  -28.0119  -20.8346   18.2231 H   0  0  0  0  0  0
  1 25  1  0  0  0
  1 30  2  0  0  0
  1 81  1  0  0  0
  2  3  1  0  0  0
  2 25  1  0  0  0
  2 87  1  0  0  0
  2 88  1  0  0  0
  3  4  1  0  0  0
  3 89  1  0  0  0
  3 90  1  0  0  0
  4  5  1  0  0  0
  4 91  1  0  0  0
  4 92  1  0  0  0
  5  6  1  0  0  0
  5 26  1  0  0  0
  5 93  1  0  0  0
  6 25  1  0  0  0
  6 94  1  0  0  0
  6 95  1  0  0  0
  7  8  2  0  0  0
  7 26  1  0  0  0
  7 29  1  0  0  0
  8  9  1  0  0  0
  8 22  1  0  0  0
  9 10  1  0  0  0
  9 27  2  0  0  0
 10 11  2  0  0  0
 10 15  1  0  0  0
 11 12  1  0  0  0
 11 96  1  0  0  0
 12 13  2  0  0  0
 12 97  1  0  0  0
 13 14  1  0  0  0
 13 31  1  0  0  0
 14 15  2  0  0  0
 14 98  1  0  0  0
 15 99  1  0  0  0
 16 17  2  0  0  0
 16 21  1  0  0  0
 16 31  1  0  0  0
 17 18  1  0  0  0
 17100  1  0  0  0
 18 19  2  0  0  0
 18101  1  0  0  0
 19 20  1  0  0  0
 19 24  1  0  0  0
 20 21  2  0  0  0
 20102  1  0  0  0
 21 23  1  0  0  0
 22 28  1  0  0  0
 22 32  2  0  0  0
 26 27  1  0  0  0
 28103  1  0  0  0
 28104  1  0  0  0
 29105  1  0  0  0
 29106  1  0  0  0
 33 34  1  0  0  0
 33 66  1  0  0  0
 33 70  2  0  0  0
 34 36  1  0  0  0
 34 59  1  0  0  0
 34107  1  0  0  0
 35 44  2  0  0  0
 35 45  1  0  0  0
 35 68  1  0  0  0
 36 56  1  0  0  0
 36108  1  0  0  0
 37 39  1  0  0  0
 37 47  1  0  0  0
 37 66  1  0  0  0
 37109  1  0  0  0
 38 43  2  0  0  0
 38 46  1  0  0  0
 38 47  1  0  0  0
 39 64  1  0  0  0
 39 67  2  0  0  0
 40 52  1  0  0  0
 40 53  2  0  0  0
 40 58  1  0  0  0
 41110  1  0  0  0
 41111  1  0  0  0
 41112  1  0  0  0
 41 48  1  0  0  0
 42 43  1  0  0  0
 42 66  1  0  0  0
 42113  1  0  0  0
 42114  1  0  0  0
 43 44  1  0  0  0
 44115  1  0  0  0
 45 46  2  0  0  0
 45116  1  0  0  0
 46117  1  0  0  0
 47118  1  0  0  0
 47119  1  0  0  0
 48 56  1  0  0  0
 48 65  1  0  0  0
 48120  1  0  0  0
 49 50  1  0  0  0
 49 53  1  0  0  0
 49 64  1  0  0  0
 49121  1  0  0  0
 50 51  1  0  0  0
 50122  1  0  0  0
 50123  1  0  0  0
 51 52  1  0  0  0
 51124  1  0  0  0
 51125  1  0  0  0
 52126  1  0  0  0
 52127  1  0  0  0
 53 54  1  0  0  0
 54 55  2  0  0  0
 54128  1  0  0  0
 55 57  1  0  0  0
 55129  1  0  0  0
 56 69  2  0  0  0
 57 58  2  0  0  0
 57130  1  0  0  0
 58131  1  0  0  0
 59 60  1  0  0  0
 59 61  1  0  0  0
 59 62  1  0  0  0
 60132  1  0  0  0
 60133  1  0  0  0
 60134  1  0  0  0
 61135  1  0  0  0
 61136  1  0  0  0
 61137  1  0  0  0
 62138  1  0  0  0
 62139  1  0  0  0
 62140  1  0  0  0
 63 65  1  0  0  0
 63141  1  0  0  0
 63142  1  0  0  0
 63143  1  0  0  0
 64144  1  0  0  0
 65145  1  0  0  0
 68 80  1  0  0  0
 71 72  1  0  0  0
 71 74  2  0  0  0
 71146  1  0  0  0
 72 73  2  0  0  0
 72 75  1  0  0  0
 73 76  1  0  0  0
 73 86  1  0  0  0
 74 81  1  0  0  0
 74 86  1  0  0  0
 75 82  1  0  0  0
 75 83  2  0  0  0
 76 78  1  0  0  0
 76 84  2  0  0  0
 77 79  1  0  0  0
 77 80  1  0  0  0
 77 85  2  0  0  0
 78147  1  0  0  0
 78148  1  0  0  0
 78149  1  0  0  0
 79 82  1  0  0  0
 79150  1  0  0  0
 79151  1  0  0  0
 80152  1  0  0  0
 80153  1  0  0  0
 81154  1  0  0  0
 82155  1  0  0  0
 83156  1  0  0  0
 83157  1  0  0  0
M  CHG  1  83   1
M  ISO  4   1 100  68 101  80 101  81 100
M  END
> <chiral flag>
0

> <version>
0

> <s_m_source_file>
/data/baiqing/PycharmProjects/Reinvent-master-3.2/result/LINK_invent/BTK/process_docking_weight1_custom_product_contain_oxygen_bond_distance_aromatic_linkinvent_7_9_3/rearranged_h_0158.sdf

> <i_m_source_file_index>
61

> <r_mmod_Potential_Energy-OPLS-2005>
-369.858703613281

> <r_mmod_Stretch_Energy-OPLS-2005>
43.2492523193359

> <r_mmod_Bend_Energy-OPLS-2005>
126.99681854248

> <r_mmod_Torsional_Energy-OPLS-2005>
206.113784790039

> <r_mmod_Improper_Torsional_Energy-OPLS-2005>
5.90639925003052

> <r_mmod_Van_der_Waal_Energy-OPLS-2005>
139.559631347656

> <r_mmod_Electrostatic_Energy-OPLS-2005>
-412.305816650391

> <r_mmod_Solvation_Energy-OPLS-2005>
-501.631744384766

> <b_mmod_Minimization_Converged-OPLS-2005>
0

> <r_mmod_RMS_Derivative-OPLS-2005>
0.738328337669373

$$$$
61
                    3D
 Structure written by MMmdl.
156165  0  0  1  0            999 V2000
  -30.6730  -14.5946   20.4795 C   0  0  0  0  0  0
  -30.4195  -12.3578   19.4552 C   0  0  0  0  0  0
  -29.5004  -12.4908   18.2229 C   0  0  0  0  0  0
  -28.0211  -12.3486   18.6323 C   0  0  0  0  0  0
  -27.6499  -13.2220   19.8615 C   0  0  2  0  0  0
  -28.6948  -13.0928   20.9920 C   0  0  0  0  0  0
  -25.2534  -13.8184   20.5678 C   0  0  0  0  0  0
  -24.1817  -13.0441   20.9215 C   0  0  0  0  0  0
  -24.6391  -11.6918   20.8757 C   0  0  0  0  0  0
  -23.9063  -10.4300   21.0415 C   0  0  0  0  0  0
  -24.3618   -9.4206   21.9187 C   0  0  0  0  0  0
  -23.6294   -8.2237   22.0750 C   0  0  0  0  0  0
  -22.4274   -8.0282   21.3547 C   0  0  0  0  0  0
  -21.9916   -9.0251   20.4640 C   0  0  0  0  0  0
  -22.7239  -10.2134   20.3050 C   0  0  0  0  0  0
  -21.6840   -6.0747   22.5285 C   0  0  0  0  0  0
  -21.4004   -6.5652   23.8218 C   0  0  0  0  0  0
  -21.3662   -5.6805   24.9179 C   0  0  0  0  0  0
  -21.6042   -4.3068   24.7227 C   0  0  0  0  0  0
  -21.8815   -3.8156   23.4346 C   0  0  0  0  0  0
  -21.9187   -4.6976   22.3407 C   0  0  0  0  0  0
  -22.7838  -13.5219   21.1875 C   0  0  0  0  0  0
  -22.1654   -4.2160   21.0985 F   0  0  0  0  0  0
  -21.5633   -3.4553   25.7742 F   0  0  0  0  0  0
  -30.0135  -13.3976   20.4207 N   0  0  0  0  0  0
  -26.2971  -12.9376   20.3325 N   0  0  0  0  0  0
  -25.9321  -11.6528   20.5782 N   0  0  0  0  0  0
  -22.0477  -12.8205   22.0423 N   0  0  0  0  0  0
  -25.4232  -15.1902   20.4032 N   0  0  0  0  0  0
  -31.8542  -14.6727   20.1302 O   0  0  0  0  0  0
  -21.6629   -6.8887   21.4246 O   0  0  0  0  0  0
  -22.3533  -14.5532   20.6723 O   0  0  0  0  0  0
  -24.6227  -31.8624   23.2055 C   0  0  0  0  0  0
  -25.9091  -32.4793   23.8369 C   0  0  1  0  0  0
  -27.2217  -27.3599   20.1126 C   0  0  0  0  0  0
  -25.5924  -33.8595   24.2303 N   0  0  0  0  0  0
  -23.4149  -30.4855   21.5469 C   0  0  2  0  0  0
  -24.8622  -28.9463   20.1105 C   0  0  0  0  0  0
  -22.7460  -29.4628   22.4951 C   0  0  0  0  0  0
  -18.0282  -28.1382   22.8487 C   0  0  0  0  0  0
  -24.1488  -36.7298   23.2636 C   0  0  0  0  0  0
  -25.9520  -30.8073   21.3693 C   0  0  0  0  0  0
  -26.0293  -29.4381   20.7113 C   0  0  0  0  0  0
  -27.2176  -28.6554   20.7031 C   0  0  0  0  0  0
  -26.0410  -26.9112   19.4867 C   0  0  0  0  0  0
  -24.8667  -27.6863   19.4907 C   0  0  0  0  0  0
  -23.6276  -29.8208   20.1613 C   0  0  0  0  0  0
  -25.4112  -36.3094   24.0332 C   0  0  1  0  0  0
  -20.5881  -28.3677   23.1294 C   0  0  2  0  0  0
  -20.6774  -26.9404   22.5414 C   0  0  0  0  0  0
  -19.5752  -26.6381   21.5213 C   0  0  0  0  0  0
  -18.1928  -26.7926   22.1620 C   0  0  0  0  0  0
  -19.1534  -28.8846   23.2885 C   0  0  0  0  0  0
  -18.9459  -30.1453   23.8896 C   0  0  0  0  0  0
  -17.6460  -30.6584   24.0560 C   0  0  0  0  0  0
  -25.9049  -34.9460   23.5115 C   0  0  0  0  0  0
  -16.5350  -29.9084   23.6327 C   0  0  0  0  0  0
  -16.7270  -28.6501   23.0346 C   0  0  0  0  0  0
  -26.4494  -31.6590   25.0722 C   0  0  0  0  0  0
  -25.3740  -31.3712   26.1456 C   0  0  0  0  0  0
  -27.0325  -30.3016   24.6148 C   0  0  0  0  0  0
  -27.6058  -32.4318   25.7486 C   0  0  0  0  0  0
  -27.5582  -37.1805   24.8464 C   0  0  0  0  0  0
  -21.4176  -29.3033   22.3694 N   0  0  0  0  0  0
  -26.4295  -37.3784   23.9410 N   0  0  0  0  0  0
  -24.6819  -31.0669   22.0984 N   0  0  0  0  0  0
  -23.4199  -28.8166   23.3014 O   0  0  0  0  0  0
  -28.3209  -26.5068   20.1398 O   0  0  0  0  0  0
  -26.5603  -34.8920   22.4674 O   0  0  0  0  0  0
  -23.5399  -32.1401   23.7405 O   0  0  0  0  0  0
  -31.3966  -17.5726   19.9357 C   0  0  0  0  0  0
  -30.2251  -17.1148   20.4961 C   0  0  0  0  0  0
  -29.8061  -19.4222   20.4359 C   0  0  0  0  0  0
  -28.8562  -21.5977   19.3332 C   0  0  0  0  0  0
  -29.8587  -21.7252   21.6101 C   0  0  0  0  0  0
  -28.1597  -22.9856   19.5548 C   0  0  0  0  0  0
  -29.1590  -23.0992   21.8343 C   0  0  0  0  0  0
  -29.1059  -20.7834   20.6363 C   0  0  2  0  0  0
  -28.8926  -23.9372   20.5478 C   0  0  2  0  0  0
  -28.1048  -25.2712   20.8984 C   0  0  0  0  0  0
  -29.3311  -18.1909   20.7714 N   0  0  0  0  0  0
  -29.9255  -15.7107   20.7498 N   0  0  0  0  0  0
  -31.4199  -19.3095   19.7367 S   0  0  0  0  0  0
  -31.4645  -12.4467   19.1552 H   0  0  0  0  0  0
  -30.3240  -11.3675   19.9023 H   0  0  0  0  0  0
  -29.7553  -11.7337   17.4796 H   0  0  0  0  0  0
  -29.6628  -13.4570   17.7424 H   0  0  0  0  0  0
  -27.8426  -11.2972   18.8591 H   0  0  0  0  0  0
  -27.3697  -12.5887   17.7903 H   0  0  0  0  0  0
  -27.6648  -14.2562   19.5171 H   0  0  0  0  0  0
  -28.6918  -12.0831   21.4051 H   0  0  0  0  0  0
  -28.4551  -13.7597   21.8215 H   0  0  0  0  0  0
  -25.2758   -9.5665   22.4767 H   0  0  0  0  0  0
  -23.9996   -7.4619   22.7460 H   0  0  0  0  0  0
  -21.0844   -8.8754   19.8952 H   0  0  0  0  0  0
  -22.3684  -10.9667   19.6161 H   0  0  0  0  0  0
  -21.1983   -7.6160   23.9729 H   0  0  0  0  0  0
  -21.1500   -6.0531   25.9087 H   0  0  0  0  0  0
  -22.0593   -2.7617   23.2833 H   0  0  0  0  0  0
  -22.4082  -11.9870   22.4819 H   0  0  0  0  0  0
  -21.1101  -13.1240   22.2638 H   0  0  0  0  0  0
  -24.6546  -15.8434   20.5080 H   0  0  0  0  0  0
  -26.2641  -15.6258   20.0464 H   0  0  0  0  0  0
  -26.7163  -32.5478   23.1123 H   0  0  0  0  0  0
  -25.0087  -33.9748   25.0457 H   0  0  0  0  0  0
  -22.7069  -31.3043   21.4050 H   0  0  0  0  0  0
  -23.3753  -35.9627   23.3300 H   0  0  0  0  0  0
  -24.3579  -36.8915   22.2051 H   0  0  0  0  0  0
  -23.7241  -37.6502   23.6651 H   0  0  0  0  0  0
  -26.0776  -31.5749   20.6040 H   0  0  0  0  0  0
  -26.8349  -30.8558   21.9953 H   0  0  0  0  0  0
  -28.1161  -29.0257   21.1772 H   0  0  0  0  0  0
  -26.0225  -25.9417   19.0081 H   0  0  0  0  0  0
  -23.9718  -27.3047   19.0189 H   0  0  0  0  0  0
  -23.7426  -30.5974   19.4043 H   0  0  0  0  0  0
  -22.7497  -29.2461   19.8603 H   0  0  0  0  0  0
  -25.1293  -36.1949   25.0826 H   0  0  0  0  0  0
  -20.9969  -28.3245   24.1415 H   0  0  0  0  0  0
  -20.5670  -26.2285   23.3606 H   0  0  0  0  0  0
  -21.6645  -26.7430   22.1209 H   0  0  0  0  0  0
  -19.6913  -25.6291   21.1241 H   0  0  0  0  0  0
  -19.6699  -27.3191   20.6740 H   0  0  0  0  0  0
  -17.4203  -26.6670   21.4018 H   0  0  0  0  0  0
  -18.0326  -26.0066   22.9013 H   0  0  0  0  0  0
  -19.7937  -30.7267   24.2263 H   0  0  0  0  0  0
  -17.5015  -31.6264   24.5161 H   0  0  0  0  0  0
  -15.5352  -30.2985   23.7657 H   0  0  0  0  0  0
  -15.8667  -28.0823   22.7057 H   0  0  0  0  0  0
  -24.5928  -30.7044   25.7790 H   0  0  0  0  0  0
  -24.8913  -32.2871   26.4876 H   0  0  0  0  0  0
  -25.8081  -30.8904   27.0230 H   0  0  0  0  0  0
  -26.2886  -29.6777   24.1181 H   0  0  0  0  0  0
  -27.4043  -29.7259   25.4635 H   0  0  0  0  0  0
  -27.8747  -30.4304   23.9344 H   0  0  0  0  0  0
  -27.2672  -33.3611   26.2076 H   0  0  0  0  0  0
  -28.3861  -32.6894   25.0313 H   0  0  0  0  0  0
  -28.0737  -31.8440   26.5394 H   0  0  0  0  0  0
  -28.2602  -38.0100   24.7513 H   0  0  0  0  0  0
  -28.1079  -36.2634   24.6288 H   0  0  0  0  0  0
  -27.2298  -37.1448   25.8866 H   0  0  0  0  0  0
  -20.9349  -29.8764   21.6915 H   0  0  0  0  0  0
  -26.0178  -38.2860   24.1412 H   0  0  0  0  0  0
  -32.2617  -17.0081   19.6148 H   0  0  0  0  0  0
  -29.8089  -21.7652   18.8296 H   0  0  0  0  0  0
  -28.2573  -20.9988   18.6459 H   0  0  0  0  0  0
  -29.9834  -21.2230   22.5700 H   0  0  0  0  0  0
  -30.8659  -21.9036   21.2317 H   0  0  0  0  0  0
  -27.1469  -22.8064   19.9195 H   0  0  0  0  0  0
  -28.0419  -23.4891   18.5945 H   0  0  0  0  0  0
  -29.7640  -23.6890   22.5243 H   0  0  0  0  0  0
  -28.2123  -22.9274   22.3496 H   0  0  0  0  0  0
  -28.1323  -20.5652   21.0769 H   0  0  0  0  0  0
  -29.8580  -24.2143   20.1231 H   0  0  0  0  0  0
  -28.3706  -25.5484   21.9190 H   0  0  0  0  0  0
  -27.0452  -25.0205   20.9664 H   0  0  0  0  0  0
  -28.9859  -15.5210   21.0621 H   0  0  0  0  0  0
  1 25  1  0  0  0
  1 30  2  0  0  0
  1 82  1  0  0  0
  2  3  1  0  0  0
  2 25  1  0  0  0
  2 84  1  0  0  0
  2 85  1  0  0  0
  3  4  1  0  0  0
  3 86  1  0  0  0
  3 87  1  0  0  0
  4  5  1  0  0  0
  4 88  1  0  0  0
  4 89  1  0  0  0
  5  6  1  0  0  0
  5 26  1  0  0  0
  5 90  1  0  0  0
  6 25  1  0  0  0
  6 91  1  0  0  0
  6 92  1  0  0  0
  7  8  2  0  0  0
  7 26  1  0  0  0
  7 29  1  0  0  0
  8  9  1  0  0  0
  8 22  1  0  0  0
  9 10  1  0  0  0
  9 27  2  0  0  0
 10 11  2  0  0  0
 10 15  1  0  0  0
 11 12  1  0  0  0
 11 93  1  0  0  0
 12 13  2  0  0  0
 12 94  1  0  0  0
 13 14  1  0  0  0
 13 31  1  0  0  0
 14 15  2  0  0  0
 14 95  1  0  0  0
 15 96  1  0  0  0
 16 17  2  0  0  0
 16 21  1  0  0  0
 16 31  1  0  0  0
 17 18  1  0  0  0
 17 97  1  0  0  0
 18 19  2  0  0  0
 18 98  1  0  0  0
 19 20  1  0  0  0
 19 24  1  0  0  0
 20 21  2  0  0  0
 20 99  1  0  0  0
 21 23  1  0  0  0
 22 28  1  0  0  0
 22 32  2  0  0  0
 26 27  1  0  0  0
 28100  1  0  0  0
 28101  1  0  0  0
 29102  1  0  0  0
 29103  1  0  0  0
 33 34  1  0  0  0
 33 66  1  0  0  0
 33 70  2  0  0  0
 34 36  1  0  0  0
 34 59  1  0  0  0
 34104  1  0  0  0
 35 44  2  0  0  0
 35 45  1  0  0  0
 35 68  1  0  0  0
 36 56  1  0  0  0
 36105  1  0  0  0
 37 39  1  0  0  0
 37 47  1  0  0  0
 37 66  1  0  0  0
 37106  1  0  0  0
 38 43  2  0  0  0
 38 46  1  0  0  0
 38 47  1  0  0  0
 39 64  1  0  0  0
 39 67  2  0  0  0
 40 52  1  0  0  0
 40 53  2  0  0  0
 40 58  1  0  0  0
 41107  1  0  0  0
 41108  1  0  0  0
 41109  1  0  0  0
 41 48  1  0  0  0
 42 43  1  0  0  0
 42 66  1  0  0  0
 42110  1  0  0  0
 42111  1  0  0  0
 43 44  1  0  0  0
 44112  1  0  0  0
 45 46  2  0  0  0
 45113  1  0  0  0
 46114  1  0  0  0
 47115  1  0  0  0
 47116  1  0  0  0
 48 56  1  0  0  0
 48 65  1  0  0  0
 48117  1  0  0  0
 49 50  1  0  0  0
 49 53  1  0  0  0
 49 64  1  0  0  0
 49118  1  0  0  0
 50 51  1  0  0  0
 50119  1  0  0  0
 50120  1  0  0  0
 51 52  1  0  0  0
 51121  1  0  0  0
 51122  1  0  0  0
 52123  1  0  0  0
 52124  1  0  0  0
 53 54  1  0  0  0
 54 55  2  0  0  0
 54125  1  0  0  0
 55 57  1  0  0  0
 55126  1  0  0  0
 56 69  2  0  0  0
 57 58  2  0  0  0
 57127  1  0  0  0
 58128  1  0  0  0
 59 60  1  0  0  0
 59 61  1  0  0  0
 59 62  1  0  0  0
 60129  1  0  0  0
 60130  1  0  0  0
 60131  1  0  0  0
 61132  1  0  0  0
 61133  1  0  0  0
 61134  1  0  0  0
 62135  1  0  0  0
 62136  1  0  0  0
 62137  1  0  0  0
 63 65  1  0  0  0
 63138  1  0  0  0
 63139  1  0  0  0
 63140  1  0  0  0
 64141  1  0  0  0
 65142  1  0  0  0
 68 80  1  0  0  0
 71 72  2  0  0  0
 71 83  1  0  0  0
 71143  1  0  0  0
 72 81  1  0  0  0
 72 82  1  0  0  0
 73 81  2  0  0  0
 73 83  1  0  0  0
 73 78  1  0  0  0
 74 76  1  0  0  0
 74 78  1  0  0  0
 74144  1  0  0  0
 74145  1  0  0  0
 75 77  1  0  0  0
 75 78  1  0  0  0
 75146  1  0  0  0
 75147  1  0  0  0
 76 79  1  0  0  0
 76148  1  0  0  0
 76149  1  0  0  0
 77 79  1  0  0  0
 77150  1  0  0  0
 77151  1  0  0  0
 78152  1  0  0  0
 79 80  1  0  0  0
 79153  1  0  0  0
 80154  1  0  0  0
 80155  1  0  0  0
 82156  1  0  0  0
M  ISO  4   1 100  68 101  80 101  82 100
M  END
> <chiral flag>
0

> <version>
0

> <s_m_source_file>
/data/baiqing/PycharmProjects/Reinvent-master-3.2/result/LINK_invent/BTK/process_docking_weight1_custom_product_contain_oxygen_bond_distance_aromatic_linkinvent_7_9_3/rearranged_h_0158.sdf

> <i_m_source_file_index>
62

> <r_mmod_Potential_Energy-OPLS-2005>
16.242036819458

> <r_mmod_Stretch_Energy-OPLS-2005>
61.873291015625

> <r_mmod_Bend_Energy-OPLS-2005>
125.386474609375

> <r_mmod_Torsional_Energy-OPLS-2005>
229.359497070312

> <r_mmod_Improper_Torsional_Energy-OPLS-2005>
4.51742267608643

> <r_mmod_Van_der_Waal_Energy-OPLS-2005>
128.049880981445

> <r_mmod_Electrostatic_Energy-OPLS-2005>
-372.402435302734

> <r_mmod_Solvation_Energy-OPLS-2005>
-198.489715576172

> <b_mmod_Minimization_Converged-OPLS-2005>
0

> <r_mmod_RMS_Derivative-OPLS-2005>
1.31930863857269

$$$$
62
                    3D
 Structure written by MMmdl.
164172  0  0  1  0            999 V2000
  -30.6409  -14.6471   20.5075 C   0  0  0  0  0  0
  -30.4311  -12.4047   19.4595 C   0  0  0  0  0  0
  -29.5030  -12.4893   18.2297 C   0  0  0  0  0  0
  -28.0320  -12.3189   18.6489 C   0  0  0  0  0  0
  -27.6458  -13.2188   19.8528 C   0  0  2  0  0  0
  -28.6856  -13.1195   20.9892 C   0  0  0  0  0  0
  -25.2510  -13.8144   20.5622 C   0  0  0  0  0  0
  -24.1827  -13.0418   20.9203 C   0  0  0  0  0  0
  -24.6399  -11.6879   20.8759 C   0  0  0  0  0  0
  -23.9078  -10.4273   21.0408 C   0  0  0  0  0  0
  -24.3611   -9.4197   21.9201 C   0  0  0  0  0  0
  -23.6277   -8.2243   22.0785 C   0  0  0  0  0  0
  -22.4274   -8.0270   21.3553 C   0  0  0  0  0  0
  -21.9905   -9.0250   20.4662 C   0  0  0  0  0  0
  -22.7246  -10.2118   20.3062 C   0  0  0  0  0  0
  -21.6841   -6.0720   22.5278 C   0  0  0  0  0  0
  -21.4024   -6.5639   23.8210 C   0  0  0  0  0  0
  -21.3656   -5.6794   24.9175 C   0  0  0  0  0  0
  -21.6035   -4.3050   24.7224 C   0  0  0  0  0  0
  -21.8820   -3.8140   23.4354 C   0  0  0  0  0  0
  -21.9196   -4.6955   22.3407 C   0  0  0  0  0  0
  -22.7859  -13.5217   21.1854 C   0  0  0  0  0  0
  -22.1660   -4.2131   21.0983 F   0  0  0  0  0  0
  -21.5618   -3.4541   25.7746 F   0  0  0  0  0  0
  -29.9973  -13.4429   20.4144 N   0  0  0  0  0  0
  -26.2949  -12.9354   20.3267 N   0  0  0  0  0  0
  -25.9325  -11.6501   20.5766 N   0  0  0  0  0  0
  -22.0492  -12.8211   22.0379 N   0  0  0  0  0  0
  -25.4120  -15.1865   20.3883 N   0  0  0  0  0  0
  -31.8226  -14.7615   20.1668 O   0  0  0  0  0  0
  -21.6637   -6.8865   21.4235 O   0  0  0  0  0  0
  -22.3569  -14.5540   20.6712 O   0  0  0  0  0  0
  -24.6198  -31.8622   23.2073 C   0  0  0  0  0  0
  -25.9102  -32.4795   23.8345 C   0  0  1  0  0  0
  -27.2539  -27.3681   20.1285 C   0  0  0  0  0  0
  -25.5907  -33.8573   24.2287 N   0  0  0  0  0  0
  -23.4183  -30.4800   21.5499 C   0  0  2  0  0  0
  -24.8754  -28.9320   20.1271 C   0  0  0  0  0  0
  -22.7464  -29.4631   22.5004 C   0  0  0  0  0  0
  -18.0304  -28.1345   22.8454 C   0  0  0  0  0  0
  -24.1510  -36.7313   23.2644 C   0  0  0  0  0  0
  -25.9481  -30.7996   21.3799 C   0  0  0  0  0  0
  -26.0374  -29.4238   20.7394 C   0  0  0  0  0  0
  -27.2313  -28.6502   20.7459 C   0  0  0  0  0  0
  -26.0777  -26.9137   19.4966 C   0  0  0  0  0  0
  -24.8923  -27.6737   19.5014 C   0  0  0  0  0  0
  -23.6393  -29.8025   20.1677 C   0  0  0  0  0  0
  -25.4127  -36.3101   24.0321 C   0  0  1  0  0  0
  -20.5872  -28.3687   23.1243 C   0  0  2  0  0  0
  -20.6787  -26.9393   22.5379 C   0  0  0  0  0  0
  -19.5769  -26.6345   21.5174 C   0  0  0  0  0  0
  -18.1945  -26.7895   22.1579 C   0  0  0  0  0  0
  -19.1534  -28.8827   23.2854 C   0  0  0  0  0  0
  -18.9471  -30.1415   23.8902 C   0  0  0  0  0  0
  -17.6470  -30.6566   24.0519 C   0  0  0  0  0  0
  -25.9021  -34.9446   23.5100 C   0  0  0  0  0  0
  -16.5365  -29.9040   23.6309 C   0  0  0  0  0  0
  -16.7291  -28.6452   23.0340 C   0  0  0  0  0  0
  -26.4487  -31.6604   25.0726 C   0  0  0  0  0  0
  -25.3705  -31.3705   26.1441 C   0  0  0  0  0  0
  -27.0349  -30.3028   24.6172 C   0  0  0  0  0  0
  -27.6080  -32.4312   25.7470 C   0  0  0  0  0  0
  -27.5601  -37.1812   24.8442 C   0  0  0  0  0  0
  -21.4189  -29.3055   22.3667 N   0  0  0  0  0  0
  -26.4303  -37.3767   23.9390 N   0  0  0  0  0  0
  -24.6793  -31.0639   22.1035 N   0  0  0  0  0  0
  -23.4179  -28.8173   23.3109 O   0  0  0  0  0  0
  -28.3727  -26.5483   20.0097 O   0  0  0  0  0  0
  -26.5592  -34.8897   22.4672 O   0  0  0  0  0  0
  -23.5377  -32.1424   23.7431 O   0  0  0  0  0  0
  -28.4416  -20.2086   19.8191 C   0  0  0  0  0  0
  -28.7132  -18.8025   19.7079 C   0  0  0  0  0  0
  -29.6330  -18.4176   20.6626 C   0  0  0  0  0  0
  -29.2165  -20.6375   20.8587 C   0  0  0  0  0  0
  -28.0861  -17.9524   18.6989 C   0  0  0  0  0  0
  -27.0814  -24.3475   21.6886 C   0  0  0  0  0  0
  -29.1687  -24.3392   23.0794 C   0  0  0  0  0  0
  -30.4056  -17.1400   21.0899 C   0  0  0  0  0  0
  -29.1991  -23.2494   20.7696 C   0  0  0  0  0  0
  -28.9910  -25.9503   21.1737 C   0  0  0  0  0  0
  -28.6160  -24.4637   21.6339 C   0  0  0  0  0  0
  -28.8115  -17.1028   17.9719 N   0  0  0  0  0  0
  -29.2555  -21.9258   21.4668 N   0  0  0  0  0  0
  -29.8892  -15.7518   20.8215 N   0  0  0  0  0  0
  -26.7687  -18.0368   18.4816 N   0  3  0  0  0  0
  -29.9275  -19.5736   21.3882 O   0  0  0  0  0  0
  -31.4708  -12.5319   19.1535 H   0  0  0  0  0  0
  -30.3781  -11.4192   19.9264 H   0  0  0  0  0  0
  -29.7764  -11.7262   17.4992 H   0  0  0  0  0  0
  -29.6366  -13.4539   17.7363 H   0  0  0  0  0  0
  -27.8896  -11.2720   18.9174 H   0  0  0  0  0  0
  -27.3711  -12.5110   17.8034 H   0  0  0  0  0  0
  -27.6534  -14.2443   19.4816 H   0  0  0  0  0  0
  -28.6948  -12.1191   21.4243 H   0  0  0  0  0  0
  -28.4250  -13.7983   21.8041 H   0  0  0  0  0  0
  -25.2744   -9.5656   22.4790 H   0  0  0  0  0  0
  -23.9960   -7.4628   22.7526 H   0  0  0  0  0  0
  -21.0828   -8.8766   19.8966 H   0  0  0  0  0  0
  -22.3706  -10.9655   19.6168 H   0  0  0  0  0  0
  -21.2035   -7.6151   23.9703 H   0  0  0  0  0  0
  -21.1470   -6.0534   25.9069 H   0  0  0  0  0  0
  -22.0605   -2.7605   23.2867 H   0  0  0  0  0  0
  -22.4108  -11.9854   22.4757 H   0  0  0  0  0  0
  -21.1129  -13.1284   22.2606 H   0  0  0  0  0  0
  -24.6055  -15.7996   20.4234 H   0  0  0  0  0  0
  -26.2152  -15.6113   19.9486 H   0  0  0  0  0  0
  -26.7181  -32.5500   23.1108 H   0  0  0  0  0  0
  -25.0033  -33.9673   25.0427 H   0  0  0  0  0  0
  -22.7179  -31.3028   21.3999 H   0  0  0  0  0  0
  -23.3739  -35.9674   23.3266 H   0  0  0  0  0  0
  -24.3618  -36.8962   22.2061 H   0  0  0  0  0  0
  -23.7251  -37.6518   23.6681 H   0  0  0  0  0  0
  -26.0574  -31.5611   20.6057 H   0  0  0  0  0  0
  -26.8337  -30.8637   22.0016 H   0  0  0  0  0  0
  -28.1319  -29.0347   21.2073 H   0  0  0  0  0  0
  -26.0805  -25.9531   18.9984 H   0  0  0  0  0  0
  -24.0039  -27.2918   19.0154 H   0  0  0  0  0  0
  -23.7573  -30.5739   19.4043 H   0  0  0  0  0  0
  -22.7641  -29.2198   19.8737 H   0  0  0  0  0  0
  -25.1295  -36.1961   25.0803 H   0  0  0  0  0  0
  -20.9953  -28.3254   24.1364 H   0  0  0  0  0  0
  -20.5694  -26.2276   23.3589 H   0  0  0  0  0  0
  -21.6657  -26.7436   22.1148 H   0  0  0  0  0  0
  -19.6918  -25.6257   21.1188 H   0  0  0  0  0  0
  -19.6673  -27.3192   20.6720 H   0  0  0  0  0  0
  -17.4204  -26.6646   21.3987 H   0  0  0  0  0  0
  -18.0324  -26.0037   22.8974 H   0  0  0  0  0  0
  -19.7966  -30.7164   24.2294 H   0  0  0  0  0  0
  -17.5061  -31.6258   24.5097 H   0  0  0  0  0  0
  -15.5366  -30.2920   23.7668 H   0  0  0  0  0  0
  -15.8696  -28.0759   22.7056 H   0  0  0  0  0  0
  -24.5901  -30.7034   25.7757 H   0  0  0  0  0  0
  -24.8853  -32.2849   26.4862 H   0  0  0  0  0  0
  -25.7998  -30.8896   27.0226 H   0  0  0  0  0  0
  -26.2924  -29.6717   24.1272 H   0  0  0  0  0  0
  -27.4139  -29.7349   25.4689 H   0  0  0  0  0  0
  -27.8751  -30.4296   23.9313 H   0  0  0  0  0  0
  -27.2753  -33.3624   26.2043 H   0  0  0  0  0  0
  -28.3910  -32.6802   25.0299 H   0  0  0  0  0  0
  -28.0721  -31.8397   26.5391 H   0  0  0  0  0  0
  -28.2565  -38.0163   24.7565 H   0  0  0  0  0  0
  -28.1142  -36.2679   24.6192 H   0  0  0  0  0  0
  -27.2302  -37.1377   25.8838 H   0  0  0  0  0  0
  -20.9392  -29.8772   21.6844 H   0  0  0  0  0  0
  -26.0189  -38.2838   24.1438 H   0  0  0  0  0  0
  -27.7671  -20.8066   19.2232 H   0  0  0  0  0  0
  -26.7590  -23.5204   22.3210 H   0  0  0  0  0  0
  -26.6693  -24.1852   20.6939 H   0  0  0  0  0  0
  -26.6190  -25.2518   22.0833 H   0  0  0  0  0  0
  -28.8833  -23.4015   23.5534 H   0  0  0  0  0  0
  -28.8030  -25.1316   23.7366 H   0  0  0  0  0  0
  -30.2584  -24.3851   23.0966 H   0  0  0  0  0  0
  -30.5442  -17.1887   22.1713 H   0  0  0  0  0  0
  -31.4162  -17.2230   20.6876 H   0  0  0  0  0  0
  -30.2281  -23.4927   20.5033 H   0  0  0  0  0  0
  -28.6646  -23.1682   19.8230 H   0  0  0  0  0  0
  -30.0695  -25.9838   20.9955 H   0  0  0  0  0  0
  -28.8331  -26.6411   22.0064 H   0  0  0  0  0  0
  -29.8128  -17.1072   18.0769 H   0  0  0  0  0  0
  -28.4290  -16.5762   17.2020 H   0  0  0  0  0  0
  -29.7724  -21.9612   22.3405 H   0  0  0  0  0  0
  -28.9167  -15.5859   21.0304 H   0  0  0  0  0  0
  -26.2031  -18.6517   19.0482 H   0  0  0  0  0  0
  -26.2896  -17.5389   17.7463 H   0  0  0  0  0  0
  1 25  1  0  0  0
  1 30  2  0  0  0
  1 84  1  0  0  0
  2  3  1  0  0  0
  2 25  1  0  0  0
  2 87  1  0  0  0
  2 88  1  0  0  0
  3  4  1  0  0  0
  3 89  1  0  0  0
  3 90  1  0  0  0
  4  5  1  0  0  0
  4 91  1  0  0  0
  4 92  1  0  0  0
  5  6  1  0  0  0
  5 26  1  0  0  0
  5 93  1  0  0  0
  6 25  1  0  0  0
  6 94  1  0  0  0
  6 95  1  0  0  0
  7  8  2  0  0  0
  7 26  1  0  0  0
  7 29  1  0  0  0
  8  9  1  0  0  0
  8 22  1  0  0  0
  9 10  1  0  0  0
  9 27  2  0  0  0
 10 11  2  0  0  0
 10 15  1  0  0  0
 11 12  1  0  0  0
 11 96  1  0  0  0
 12 13  2  0  0  0
 12 97  1  0  0  0
 13 14  1  0  0  0
 13 31  1  0  0  0
 14 15  2  0  0  0
 14 98  1  0  0  0
 15 99  1  0  0  0
 16 17  2  0  0  0
 16 21  1  0  0  0
 16 31  1  0  0  0
 17 18  1  0  0  0
 17100  1  0  0  0
 18 19  2  0  0  0
 18101  1  0  0  0
 19 20  1  0  0  0
 19 24  1  0  0  0
 20 21  2  0  0  0
 20102  1  0  0  0
 21 23  1  0  0  0
 22 28  1  0  0  0
 22 32  2  0  0  0
 26 27  1  0  0  0
 28103  1  0  0  0
 28104  1  0  0  0
 29105  1  0  0  0
 29106  1  0  0  0
 33 34  1  0  0  0
 33 66  1  0  0  0
 33 70  2  0  0  0
 34 36  1  0  0  0
 34 59  1  0  0  0
 34107  1  0  0  0
 35 44  2  0  0  0
 35 45  1  0  0  0
 35 68  1  0  0  0
 36 56  1  0  0  0
 36108  1  0  0  0
 37 39  1  0  0  0
 37 47  1  0  0  0
 37 66  1  0  0  0
 37109  1  0  0  0
 38 43  2  0  0  0
 38 46  1  0  0  0
 38 47  1  0  0  0
 39 64  1  0  0  0
 39 67  2  0  0  0
 40 52  1  0  0  0
 40 53  2  0  0  0
 40 58  1  0  0  0
 41110  1  0  0  0
 41111  1  0  0  0
 41112  1  0  0  0
 41 48  1  0  0  0
 42 43  1  0  0  0
 42 66  1  0  0  0
 42113  1  0  0  0
 42114  1  0  0  0
 43 44  1  0  0  0
 44115  1  0  0  0
 45 46  2  0  0  0
 45116  1  0  0  0
 46117  1  0  0  0
 47118  1  0  0  0
 47119  1  0  0  0
 48 56  1  0  0  0
 48 65  1  0  0  0
 48120  1  0  0  0
 49 50  1  0  0  0
 49 53  1  0  0  0
 49 64  1  0  0  0
 49121  1  0  0  0
 50 51  1  0  0  0
 50122  1  0  0  0
 50123  1  0  0  0
 51 52  1  0  0  0
 51124  1  0  0  0
 51125  1  0  0  0
 52126  1  0  0  0
 52127  1  0  0  0
 53 54  1  0  0  0
 54 55  2  0  0  0
 54128  1  0  0  0
 55 57  1  0  0  0
 55129  1  0  0  0
 56 69  2  0  0  0
 57 58  2  0  0  0
 57130  1  0  0  0
 58131  1  0  0  0
 59 60  1  0  0  0
 59 61  1  0  0  0
 59 62  1  0  0  0
 60132  1  0  0  0
 60133  1  0  0  0
 60134  1  0  0  0
 61135  1  0  0  0
 61136  1  0  0  0
 61137  1  0  0  0
 62138  1  0  0  0
 62139  1  0  0  0
 62140  1  0  0  0
 63 65  1  0  0  0
 63141  1  0  0  0
 63142  1  0  0  0
 63143  1  0  0  0
 64144  1  0  0  0
 65145  1  0  0  0
 68 80  1  0  0  0
 71 72  1  0  0  0
 71 74  2  0  0  0
 71146  1  0  0  0
 72 73  2  0  0  0
 72 75  1  0  0  0
 73 78  1  0  0  0
 73 86  1  0  0  0
 74 83  1  0  0  0
 74 86  1  0  0  0
 75 82  1  0  0  0
 75 85  2  0  0  0
 76147  1  0  0  0
 76148  1  0  0  0
 76149  1  0  0  0
 76 81  1  0  0  0
 77 81  1  0  0  0
 77150  1  0  0  0
 77151  1  0  0  0
 77152  1  0  0  0
 78 84  1  0  0  0
 78153  1  0  0  0
 78154  1  0  0  0
 79 81  1  0  0  0
 79 83  1  0  0  0
 79155  1  0  0  0
 79156  1  0  0  0
 80 81  1  0  0  0
 80157  1  0  0  0
 80158  1  0  0  0
 82159  1  0  0  0
 82160  1  0  0  0
 83161  1  0  0  0
 84162  1  0  0  0
 85163  1  0  0  0
 85164  1  0  0  0
M  CHG  1  85   1
M  ISO  4   1 100  68 101  80 101  84 100
M  END
> <chiral flag>
0

> <version>
0

> <s_m_source_file>
/data/baiqing/PycharmProjects/Reinvent-master-3.2/result/LINK_invent/BTK/process_docking_weight1_custom_product_contain_oxygen_bond_distance_aromatic_linkinvent_7_9_3/rearranged_h_0158.sdf

> <i_m_source_file_index>
63

> <r_mmod_Potential_Energy-OPLS-2005>
-331.513916015625

> <r_mmod_Stretch_Energy-OPLS-2005>
69.8212051391602

> <r_mmod_Bend_Energy-OPLS-2005>
170.957702636719

> <r_mmod_Torsional_Energy-OPLS-2005>
251.812118530273

> <r_mmod_Improper_Torsional_Energy-OPLS-2005>
7.66681146621704

> <r_mmod_Van_der_Waal_Energy-OPLS-2005>
113.413124084473

> <r_mmod_Electrostatic_Energy-OPLS-2005>
-492.542785644531

> <r_mmod_Solvation_Energy-OPLS-2005>
-495.040802001953

> <b_mmod_Minimization_Converged-OPLS-2005>
0

> <r_mmod_RMS_Derivative-OPLS-2005>
5.75615358352661

$$$$
63
                    3D
 Structure written by MMmdl.
159167  0  0  1  0            999 V2000
  -30.5661  -14.7640   20.4732 C   0  0  0  0  0  0
  -30.4411  -12.4676   19.4795 C   0  0  0  0  0  0
  -29.5130  -12.5156   18.2430 C   0  0  0  0  0  0
  -28.0400  -12.3279   18.6556 C   0  0  0  0  0  0
  -27.6435  -13.2233   19.8586 C   0  0  2  0  0  0
  -28.6866  -13.1375   20.9957 C   0  0  0  0  0  0
  -25.2518  -13.8177   20.5692 C   0  0  0  0  0  0
  -24.1795  -13.0437   20.9194 C   0  0  0  0  0  0
  -24.6369  -11.6905   20.8757 C   0  0  0  0  0  0
  -23.9045  -10.4290   21.0413 C   0  0  0  0  0  0
  -24.3597   -9.4206   21.9190 C   0  0  0  0  0  0
  -23.6280   -8.2242   22.0762 C   0  0  0  0  0  0
  -22.4272   -8.0277   21.3535 C   0  0  0  0  0  0
  -21.9898   -9.0248   20.4642 C   0  0  0  0  0  0
  -22.7221  -10.2128   20.3057 C   0  0  0  0  0  0
  -21.6853   -6.0731   22.5270 C   0  0  0  0  0  0
  -21.4015   -6.5628   23.8204 C   0  0  0  0  0  0
  -21.3659   -5.6786   24.9163 C   0  0  0  0  0  0
  -21.6042   -4.3048   24.7216 C   0  0  0  0  0  0
  -21.8822   -3.8139   23.4339 C   0  0  0  0  0  0
  -21.9189   -4.6962   22.3394 C   0  0  0  0  0  0
  -22.7816  -13.5232   21.1865 C   0  0  0  0  0  0
  -22.1660   -4.2141   21.0977 F   0  0  0  0  0  0
  -21.5629   -3.4541   25.7732 F   0  0  0  0  0  0
  -29.9868  -13.5136   20.4249 N   0  0  0  0  0  0
  -26.2932  -12.9355   20.3317 N   0  0  0  0  0  0
  -25.9294  -11.6507   20.5766 N   0  0  0  0  0  0
  -22.0460  -12.8221   22.0418 N   0  0  0  0  0  0
  -25.4236  -15.1902   20.4092 N   0  0  0  0  0  0
  -31.7451  -14.9045   20.1280 O   0  0  0  0  0  0
  -21.6637   -6.8875   21.4232 O   0  0  0  0  0  0
  -22.3506  -14.5545   20.6716 O   0  0  0  0  0  0
  -24.6300  -31.8518   23.1910 C   0  0  0  0  0  0
  -25.9132  -32.4721   23.8269 C   0  0  1  0  0  0
  -27.2328  -27.2424   20.1487 C   0  0  0  0  0  0
  -25.5923  -33.8518   24.2194 N   0  0  0  0  0  0
  -23.4281  -30.4676   21.5353 C   0  0  2  0  0  0
  -24.8793  -28.8968   20.1202 C   0  0  0  0  0  0
  -22.7484  -29.4574   22.4916 C   0  0  0  0  0  0
  -18.0285  -28.1370   22.8448 C   0  0  0  0  0  0
  -24.1508  -36.7262   23.2646 C   0  0  0  0  0  0
  -25.9722  -30.7607   21.3710 C   0  0  0  0  0  0
  -26.0493  -29.3764   20.7215 C   0  0  0  0  0  0
  -27.2282  -28.5658   20.7125 C   0  0  0  0  0  0
  -26.0393  -26.8211   19.5299 C   0  0  0  0  0  0
  -24.8796  -27.6271   19.5148 C   0  0  0  0  0  0
  -23.6492  -29.7856   20.1573 C   0  0  0  0  0  0
  -25.4125  -36.3032   24.0324 C   0  0  1  0  0  0
  -20.5880  -28.3675   23.1262 C   0  0  2  0  0  0
  -20.6773  -26.9396   22.5407 C   0  0  0  0  0  0
  -19.5766  -26.6354   21.5200 C   0  0  0  0  0  0
  -18.1931  -26.7901   22.1594 C   0  0  0  0  0  0
  -19.1535  -28.8844   23.2834 C   0  0  0  0  0  0
  -18.9479  -30.1436   23.8868 C   0  0  0  0  0  0
  -17.6486  -30.6574   24.0546 C   0  0  0  0  0  0
  -25.9075  -34.9411   23.5062 C   0  0  0  0  0  0
  -16.5369  -29.9078   23.6327 C   0  0  0  0  0  0
  -16.7280  -28.6497   23.0337 C   0  0  0  0  0  0
  -26.4490  -31.6554   25.0662 C   0  0  0  0  0  0
  -25.3704  -31.3725   26.1385 C   0  0  0  0  0  0
  -27.0348  -30.2982   24.6128 C   0  0  0  0  0  0
  -27.6024  -32.4314   25.7457 C   0  0  0  0  0  0
  -27.5586  -37.1768   24.8456 C   0  0  0  0  0  0
  -21.4198  -29.3024   22.3658 N   0  0  0  0  0  0
  -26.4286  -37.3741   23.9419 N   0  0  0  0  0  0
  -24.6958  -31.0454   22.0895 N   0  0  0  0  0  0
  -23.4183  -28.8139   23.3037 O   0  0  0  0  0  0
  -28.3764  -26.4101   20.1188 O   0  0  0  0  0  0
  -26.5645  -34.8900   22.4639 O   0  0  0  0  0  0
  -23.5449  -32.1361   23.7186 O   0  0  0  0  0  0
  -28.7791  -18.3064   20.6640 C   0  0  0  0  0  0
  -30.9595  -18.0584   20.2589 C   0  0  0  0  0  0
  -29.8464  -17.3218   20.5659 C   0  0  0  0  0  0
  -29.2237  -19.5979   20.3484 C   0  0  0  0  0  0
  -28.5015  -20.9272   20.1354 C   0  0  0  0  0  0
  -28.0232  -24.9501   22.1496 C   0  0  0  0  0  0
  -28.9241  -24.2614   23.1685 C   0  0  0  0  0  0
  -31.5283  -20.4482   19.7078 C   0  0  0  0  0  0
  -28.2250  -23.5944   19.9172 C   0  0  0  0  0  0
  -28.5200  -25.0026   20.6919 C   0  0  1  0  0  0
  -30.5958  -19.4139   20.1104 N   0  0  0  0  0  0
  -27.2586  -20.7766   19.6620 N   0  0  0  0  0  0
  -29.7305  -15.8449   20.7498 N   0  0  0  0  0  0
  -28.9181  -22.2528   20.3307 N   0  3  0  0  0  0
  -26.9332  -25.4132   22.4989 O   0  0  0  0  0  0
  -31.4803  -12.6074   19.1784 H   0  0  0  0  0  0
  -30.3981  -11.4860   19.9534 H   0  0  0  0  0  0
  -29.8010  -11.7469   17.5248 H   0  0  0  0  0  0
  -29.6271  -13.4732   17.7325 H   0  0  0  0  0  0
  -27.9077  -11.2785   18.9223 H   0  0  0  0  0  0
  -27.3781  -12.5121   17.8090 H   0  0  0  0  0  0
  -27.6443  -14.2476   19.4847 H   0  0  0  0  0  0
  -28.7290  -12.1271   21.4064 H   0  0  0  0  0  0
  -28.4155  -13.7890   21.8270 H   0  0  0  0  0  0
  -25.2739   -9.5693   22.4763 H   0  0  0  0  0  0
  -23.9985   -7.4647   22.7486 H   0  0  0  0  0  0
  -21.0832   -8.8748   19.8956 H   0  0  0  0  0  0
  -22.3668  -10.9656   19.6168 H   0  0  0  0  0  0
  -21.2005   -7.6142   23.9700 H   0  0  0  0  0  0
  -21.1484   -6.0521   25.9064 H   0  0  0  0  0  0
  -22.0601   -2.7604   23.2842 H   0  0  0  0  0  0
  -22.4064  -11.9861   22.4781 H   0  0  0  0  0  0
  -21.1082  -13.1255   22.2647 H   0  0  0  0  0  0
  -24.6537  -15.8438   20.5035 H   0  0  0  0  0  0
  -26.2645  -15.6205   20.0466 H   0  0  0  0  0  0
  -26.7187  -32.5370   23.1006 H   0  0  0  0  0  0
  -25.0088  -33.9658   25.0354 H   0  0  0  0  0  0
  -22.7233  -31.2876   21.3796 H   0  0  0  0  0  0
  -23.3777  -35.9586   23.3267 H   0  0  0  0  0  0
  -24.3617  -36.8928   22.2061 H   0  0  0  0  0  0
  -23.7254  -37.6443   23.6711 H   0  0  0  0  0  0
  -26.1073  -31.5164   20.5962 H   0  0  0  0  0  0
  -26.8505  -30.8158   22.0030 H   0  0  0  0  0  0
  -28.1344  -28.9357   21.1708 H   0  0  0  0  0  0
  -26.0012  -25.8495   19.0581 H   0  0  0  0  0  0
  -23.9810  -27.2523   19.0452 H   0  0  0  0  0  0
  -23.7722  -30.5557   19.3953 H   0  0  0  0  0  0
  -22.7674  -29.2171   19.8546 H   0  0  0  0  0  0
  -25.1308  -36.1864   25.0813 H   0  0  0  0  0  0
  -20.9940  -28.3260   24.1398 H   0  0  0  0  0  0
  -20.5665  -26.2283   23.3608 H   0  0  0  0  0  0
  -21.6640  -26.7415   22.1212 H   0  0  0  0  0  0
  -19.6938  -25.6266   21.1238 H   0  0  0  0  0  0
  -19.6723  -27.3154   20.6715 H   0  0  0  0  0  0
  -17.4198  -26.6635   21.4001 H   0  0  0  0  0  0
  -18.0348  -26.0037   22.8995 H   0  0  0  0  0  0
  -19.7965  -30.7226   24.2232 H   0  0  0  0  0  0
  -17.5058  -31.6254   24.5141 H   0  0  0  0  0  0
  -15.5378  -30.2981   23.7672 H   0  0  0  0  0  0
  -15.8666  -28.0820   22.7084 H   0  0  0  0  0  0
  -24.5894  -30.7061   25.7724 H   0  0  0  0  0  0
  -24.8894  -32.2900   26.4763 H   0  0  0  0  0  0
  -25.8010  -30.8938   27.0192 H   0  0  0  0  0  0
  -26.2924  -29.6713   24.1175 H   0  0  0  0  0  0
  -27.4092  -29.7242   25.4611 H   0  0  0  0  0  0
  -27.8759  -30.4281   23.9323 H   0  0  0  0  0  0
  -27.2618  -33.3649   26.1950 H   0  0  0  0  0  0
  -28.3877  -32.6813   25.0317 H   0  0  0  0  0  0
  -28.0630  -31.8488   26.5443 H   0  0  0  0  0  0
  -28.2528  -38.0128   24.7542 H   0  0  0  0  0  0
  -28.1150  -36.2648   24.6235 H   0  0  0  0  0  0
  -27.2306  -37.1341   25.8857 H   0  0  0  0  0  0
  -20.9403  -29.8763   21.6872 H   0  0  0  0  0  0
  -26.0153  -38.2808   24.1453 H   0  0  0  0  0  0
  -27.7475  -18.0851   20.8970 H   0  0  0  0  0  0
  -31.9831  -17.7472   20.0983 H   0  0  0  0  0  0
  -28.8285  -23.1783   23.0891 H   0  0  0  0  0  0
  -28.6504  -24.5593   24.1809 H   0  0  0  0  0  0
  -29.9656  -24.5412   23.0064 H   0  0  0  0  0  0
  -32.5079  -20.0165   19.5001 H   0  0  0  0  0  0
  -31.6383  -21.1837   20.5035 H   0  0  0  0  0  0
  -31.1706  -20.9359   18.8015 H   0  0  0  0  0  0
  -28.4740  -23.7456   18.8675 H   0  0  0  0  0  0
  -27.1476  -23.4372   19.9370 H   0  0  0  0  0  0
  -29.6034  -24.9706   20.8087 H   0  0  0  0  0  0
  -26.9102  -19.8461   19.4879 H   0  0  0  0  0  0
  -26.6531  -21.5417   19.4195 H   0  0  0  0  0  0
  -28.8130  -15.5392   21.0394 H   0  0  0  0  0  0
  -29.8554  -22.3566   20.6937 H   0  0  0  0  0  0
  1 25  1  0  0  0
  1 30  2  0  0  0
  1 83  1  0  0  0
  2  3  1  0  0  0
  2 25  1  0  0  0
  2 86  1  0  0  0
  2 87  1  0  0  0
  3  4  1  0  0  0
  3 88  1  0  0  0
  3 89  1  0  0  0
  4  5  1  0  0  0
  4 90  1  0  0  0
  4 91  1  0  0  0
  5  6  1  0  0  0
  5 26  1  0  0  0
  5 92  1  0  0  0
  6 25  1  0  0  0
  6 93  1  0  0  0
  6 94  1  0  0  0
  7  8  2  0  0  0
  7 26  1  0  0  0
  7 29  1  0  0  0
  8  9  1  0  0  0
  8 22  1  0  0  0
  9 10  1  0  0  0
  9 27  2  0  0  0
 10 11  2  0  0  0
 10 15  1  0  0  0
 11 12  1  0  0  0
 11 95  1  0  0  0
 12 13  2  0  0  0
 12 96  1  0  0  0
 13 14  1  0  0  0
 13 31  1  0  0  0
 14 15  2  0  0  0
 14 97  1  0  0  0
 15 98  1  0  0  0
 16 17  2  0  0  0
 16 21  1  0  0  0
 16 31  1  0  0  0
 17 18  1  0  0  0
 17 99  1  0  0  0
 18 19  2  0  0  0
 18100  1  0  0  0
 19 20  1  0  0  0
 19 24  1  0  0  0
 20 21  2  0  0  0
 20101  1  0  0  0
 21 23  1  0  0  0
 22 28  1  0  0  0
 22 32  2  0  0  0
 26 27  1  0  0  0
 28102  1  0  0  0
 28103  1  0  0  0
 29104  1  0  0  0
 29105  1  0  0  0
 33 34  1  0  0  0
 33 66  1  0  0  0
 33 70  2  0  0  0
 34 36  1  0  0  0
 34 59  1  0  0  0
 34106  1  0  0  0
 35 44  2  0  0  0
 35 45  1  0  0  0
 35 68  1  0  0  0
 36 56  1  0  0  0
 36107  1  0  0  0
 37 39  1  0  0  0
 37 47  1  0  0  0
 37 66  1  0  0  0
 37108  1  0  0  0
 38 43  2  0  0  0
 38 46  1  0  0  0
 38 47  1  0  0  0
 39 64  1  0  0  0
 39 67  2  0  0  0
 40 52  1  0  0  0
 40 53  2  0  0  0
 40 58  1  0  0  0
 41109  1  0  0  0
 41110  1  0  0  0
 41111  1  0  0  0
 41 48  1  0  0  0
 42 43  1  0  0  0
 42 66  1  0  0  0
 42112  1  0  0  0
 42113  1  0  0  0
 43 44  1  0  0  0
 44114  1  0  0  0
 45 46  2  0  0  0
 45115  1  0  0  0
 46116  1  0  0  0
 47117  1  0  0  0
 47118  1  0  0  0
 48 56  1  0  0  0
 48 65  1  0  0  0
 48119  1  0  0  0
 49 50  1  0  0  0
 49 53  1  0  0  0
 49 64  1  0  0  0
 49120  1  0  0  0
 50 51  1  0  0  0
 50121  1  0  0  0
 50122  1  0  0  0
 51 52  1  0  0  0
 51123  1  0  0  0
 51124  1  0  0  0
 52125  1  0  0  0
 52126  1  0  0  0
 53 54  1  0  0  0
 54 55  2  0  0  0
 54127  1  0  0  0
 55 57  1  0  0  0
 55128  1  0  0  0
 56 69  2  0  0  0
 57 58  2  0  0  0
 57129  1  0  0  0
 58130  1  0  0  0
 59 60  1  0  0  0
 59 61  1  0  0  0
 59 62  1  0  0  0
 60131  1  0  0  0
 60132  1  0  0  0
 60133  1  0  0  0
 61134  1  0  0  0
 61135  1  0  0  0
 61136  1  0  0  0
 62137  1  0  0  0
 62138  1  0  0  0
 62139  1  0  0  0
 63 65  1  0  0  0
 63140  1  0  0  0
 63141  1  0  0  0
 63142  1  0  0  0
 64143  1  0  0  0
 65144  1  0  0  0
 68 80  1  0  0  0
 71 73  1  0  0  0
 71 74  2  0  0  0
 71145  1  0  0  0
 72 73  2  0  0  0
 72 81  1  0  0  0
 72146  1  0  0  0
 73 83  1  0  0  0
 74 75  1  0  0  0
 74 81  1  0  0  0
 75 82  1  0  0  0
 75 84  2  0  0  0
 76 77  1  0  0  0
 76 80  1  0  0  0
 76 85  2  0  0  0
 77147  1  0  0  0
 77148  1  0  0  0
 77149  1  0  0  0
 78 81  1  0  0  0
 78150  1  0  0  0
 78151  1  0  0  0
 78152  1  0  0  0
 79 84  1  0  0  0
 79153  1  0  0  0
 79154  1  0  0  0
 79 80  1  0  0  0
 80155  1  0  0  0
 82156  1  0  0  0
 82157  1  0  0  0
 83158  1  0  0  0
 84159  1  0  0  0
M  CHG  1  84   1
M  ISO  4   1 100  68 101  80 101  83 100
M  END
> <chiral flag>
0

> <version>
0

> <s_m_source_file>
/data/baiqing/PycharmProjects/Reinvent-master-3.2/result/LINK_invent/BTK/process_docking_weight1_custom_product_contain_oxygen_bond_distance_aromatic_linkinvent_7_9_3/rearranged_h_0158.sdf

> <i_m_source_file_index>
64

> <r_mmod_Potential_Energy-OPLS-2005>
14.5915937423706

> <r_mmod_Stretch_Energy-OPLS-2005>
137.306106567383

> <r_mmod_Bend_Energy-OPLS-2005>
219.478118896484

> <r_mmod_Torsional_Energy-OPLS-2005>
227.522048950195

> <r_mmod_Improper_Torsional_Energy-OPLS-2005>
4.87791585922241

> <r_mmod_Van_der_Waal_Energy-OPLS-2005>
108.048004150391

> <r_mmod_Electrostatic_Energy-OPLS-2005>
-261.971069335938

> <r_mmod_Solvation_Energy-OPLS-2005>
-508.200164794922

> <b_mmod_Minimization_Converged-OPLS-2005>
0

> <r_mmod_RMS_Derivative-OPLS-2005>
2.66349315643311

$$$$
64
                    3D
 Structure written by MMmdl.
159169  0  0  1  0            999 V2000
  -30.7105  -14.6800   20.4803 C   0  0  0  0  0  0
  -30.4054  -12.4262   19.4642 C   0  0  0  0  0  0
  -29.4910  -12.4894   18.2255 C   0  0  0  0  0  0
  -28.0231  -12.3025   18.6467 C   0  0  0  0  0  0
  -27.6303  -13.2130   19.8380 C   0  0  2  0  0  0
  -28.6814  -13.1849   20.9747 C   0  0  0  0  0  0
  -25.2471  -13.8139   20.5670 C   0  0  0  0  0  0
  -24.1770  -13.0406   20.9225 C   0  0  0  0  0  0
  -24.6351  -11.6885   20.8772 C   0  0  0  0  0  0
  -23.9031  -10.4273   21.0422 C   0  0  0  0  0  0
  -24.3595   -9.4192   21.9195 C   0  0  0  0  0  0
  -23.6279   -8.2223   22.0756 C   0  0  0  0  0  0
  -22.4263   -8.0260   21.3543 C   0  0  0  0  0  0
  -21.9890   -9.0232   20.4646 C   0  0  0  0  0  0
  -22.7209  -10.2117   20.3062 C   0  0  0  0  0  0
  -21.6850   -6.0725   22.5279 C   0  0  0  0  0  0
  -21.4008   -6.5632   23.8211 C   0  0  0  0  0  0
  -21.3662   -5.6790   24.9178 C   0  0  0  0  0  0
  -21.6045   -4.3051   24.7230 C   0  0  0  0  0  0
  -21.8819   -3.8140   23.4352 C   0  0  0  0  0  0
  -21.9189   -4.6953   22.3405 C   0  0  0  0  0  0
  -22.7800  -13.5208   21.1881 C   0  0  0  0  0  0
  -22.1658   -4.2138   21.0985 F   0  0  0  0  0  0
  -21.5632   -3.4538   25.7745 F   0  0  0  0  0  0
  -29.9831  -13.5129   20.3816 N   0  0  0  0  0  0
  -26.2874  -12.9310   20.3257 N   0  0  0  0  0  0
  -25.9270  -11.6477   20.5778 N   0  0  0  0  0  0
  -22.0449  -12.8204   22.0442 N   0  0  0  0  0  0
  -25.4124  -15.1859   20.4033 N   0  0  0  0  0  0
  -31.9070  -14.6462   20.1798 O   0  0  0  0  0  0
  -21.6632   -6.8859   21.4238 O   0  0  0  0  0  0
  -22.3493  -14.5520   20.6732 O   0  0  0  0  0  0
  -24.6251  -31.8592   23.2023 C   0  0  0  0  0  0
  -25.9098  -32.4774   23.8349 C   0  0  1  0  0  0
  -27.2230  -27.3139   20.1180 C   0  0  0  0  0  0
  -25.5911  -33.8575   24.2272 N   0  0  0  0  0  0
  -23.4184  -30.4826   21.5453 C   0  0  2  0  0  0
  -24.8638  -28.9354   20.1109 C   0  0  0  0  0  0
  -22.7465  -29.4618   22.4945 C   0  0  0  0  0  0
  -18.0285  -28.1386   22.8490 C   0  0  0  0  0  0
  -24.1485  -36.7293   23.2640 C   0  0  0  0  0  0
  -25.9590  -30.7865   21.3755 C   0  0  0  0  0  0
  -26.0303  -29.4122   20.7209 C   0  0  0  0  0  0
  -27.2089  -28.6096   20.7207 C   0  0  0  0  0  0
  -26.0330  -26.8917   19.4793 C   0  0  0  0  0  0
  -24.8663  -27.6800   19.4836 C   0  0  0  0  0  0
  -23.6321  -29.8166   20.1603 C   0  0  0  0  0  0
  -25.4109  -36.3082   24.0331 C   0  0  1  0  0  0
  -20.5883  -28.3681   23.1288 C   0  0  2  0  0  0
  -20.6774  -26.9406   22.5414 C   0  0  0  0  0  0
  -19.5751  -26.6382   21.5215 C   0  0  0  0  0  0
  -18.1930  -26.7928   22.1628 C   0  0  0  0  0  0
  -19.1538  -28.8853   23.2884 C   0  0  0  0  0  0
  -18.9463  -30.1458   23.8896 C   0  0  0  0  0  0
  -17.6464  -30.6590   24.0565 C   0  0  0  0  0  0
  -25.9049  -34.9451   23.5102 C   0  0  0  0  0  0
  -16.5354  -29.9090   23.6333 C   0  0  0  0  0  0
  -16.7272  -28.6509   23.0350 C   0  0  0  0  0  0
  -26.4483  -31.6590   25.0723 C   0  0  0  0  0  0
  -25.3715  -31.3738   26.1451 C   0  0  0  0  0  0
  -27.0325  -30.3013   24.6180 C   0  0  0  0  0  0
  -27.6042  -32.4328   25.7489 C   0  0  0  0  0  0
  -27.5578  -37.1796   24.8462 C   0  0  0  0  0  0
  -21.4181  -29.3032   22.3681 N   0  0  0  0  0  0
  -26.4287  -37.3777   23.9415 N   0  0  0  0  0  0
  -24.6862  -31.0601   22.0976 N   0  0  0  0  0  0
  -23.4193  -28.8159   23.3021 O   0  0  0  0  0  0
  -28.3596  -26.4884   20.1641 O   0  0  0  0  0  0
  -26.5624  -34.8920   22.4675 O   0  0  0  0  0  0
  -23.5415  -32.1395   23.7350 O   0  0  0  0  0  0
  -28.8994  -22.6436   20.4256 C   0  0  0  0  0  0
  -28.9413  -22.3472   19.1093 C   0  0  0  0  0  0
  -29.3365  -20.4689   20.1731 C   0  0  0  0  0  0
  -28.6787  -24.1156   20.8538 C   0  0  0  0  0  0
  -28.7289  -23.3418   18.0121 C   0  0  0  0  0  0
  -30.5621  -18.4695   21.4179 C   0  0  0  0  0  0
  -28.4810  -17.9467   20.3148 C   0  0  0  0  0  0
  -28.8722  -24.8077   18.5522 C   0  0  0  0  0  0
  -31.0884  -17.0044   21.2294 C   0  0  0  0  0  0
  -28.8591  -16.4124   20.2279 C   0  0  0  0  0  0
  -29.6597  -18.9414   20.2664 C   0  0  0  0  0  0
  -29.1230  -21.4267   21.1219 N   0  0  0  0  0  0
  -30.1424  -15.9165   20.8086 N   0  0  0  0  0  0
  -28.1262  -25.0398   19.8067 N   0  0  0  0  0  0
  -29.1714  -21.0013   18.9150 O   0  0  0  0  0  0
  -31.4487  -12.5043   19.1551 H   0  0  0  0  0  0
  -30.3192  -11.4562   19.9574 H   0  0  0  0  0  0
  -29.7734  -11.7202   17.5050 H   0  0  0  0  0  0
  -29.6135  -13.4480   17.7184 H   0  0  0  0  0  0
  -27.8891  -11.2556   18.9198 H   0  0  0  0  0  0
  -27.3606  -12.4809   17.7987 H   0  0  0  0  0  0
  -27.6001  -14.2086   19.4072 H   0  0  0  0  0  0
  -28.7165  -12.2011   21.4448 H   0  0  0  0  0  0
  -28.4244  -13.8889   21.7669 H   0  0  0  0  0  0
  -25.2734   -9.5676   22.4778 H   0  0  0  0  0  0
  -23.9994   -7.4608   22.7469 H   0  0  0  0  0  0
  -21.0824   -8.8742   19.8946 H   0  0  0  0  0  0
  -22.3660  -10.9661   19.6178 H   0  0  0  0  0  0
  -21.2000   -7.6140   23.9712 H   0  0  0  0  0  0
  -21.1486   -6.0523   25.9082 H   0  0  0  0  0  0
  -22.0597   -2.7601   23.2858 H   0  0  0  0  0  0
  -22.4065  -11.9861   22.4820 H   0  0  0  0  0  0
  -21.1069  -13.1232   22.2659 H   0  0  0  0  0  0
  -24.6416  -15.8355   20.5137 H   0  0  0  0  0  0
  -26.2571  -15.6277   20.0668 H   0  0  0  0  0  0
  -26.7158  -32.5439   23.1091 H   0  0  0  0  0  0
  -25.0037  -33.9719   25.0400 H   0  0  0  0  0  0
  -22.7121  -31.3031   21.4026 H   0  0  0  0  0  0
  -23.3749  -35.9621   23.3296 H   0  0  0  0  0  0
  -24.3576  -36.8919   22.2055 H   0  0  0  0  0  0
  -23.7233  -37.6490   23.6666 H   0  0  0  0  0  0
  -26.0907  -31.5476   20.6056 H   0  0  0  0  0  0
  -26.8397  -30.8352   22.0040 H   0  0  0  0  0  0
  -28.1050  -28.9698   21.2057 H   0  0  0  0  0  0
  -25.9761  -25.9345   18.9829 H   0  0  0  0  0  0
  -23.9721  -27.3096   19.0010 H   0  0  0  0  0  0
  -23.7496  -30.5927   19.4030 H   0  0  0  0  0  0
  -22.7521  -29.2452   19.8601 H   0  0  0  0  0  0
  -25.1289  -36.1930   25.0823 H   0  0  0  0  0  0
  -20.9978  -28.3253   24.1409 H   0  0  0  0  0  0
  -20.5675  -26.2289   23.3611 H   0  0  0  0  0  0
  -21.6642  -26.7435   22.1205 H   0  0  0  0  0  0
  -19.6911  -25.6291   21.1248 H   0  0  0  0  0  0
  -19.6694  -27.3192   20.6745 H   0  0  0  0  0  0
  -17.4198  -26.6673   21.4032 H   0  0  0  0  0  0
  -18.0333  -26.0071   22.9028 H   0  0  0  0  0  0
  -19.7940  -30.7277   24.2258 H   0  0  0  0  0  0
  -17.5019  -31.6270   24.5165 H   0  0  0  0  0  0
  -15.5356  -30.2994   23.7657 H   0  0  0  0  0  0
  -15.8671  -28.0833   22.7057 H   0  0  0  0  0  0
  -24.5871  -30.7111   25.7776 H   0  0  0  0  0  0
  -24.8932  -32.2914   26.4889 H   0  0  0  0  0  0
  -25.8032  -30.8896   27.0220 H   0  0  0  0  0  0
  -26.2901  -29.6768   24.1197 H   0  0  0  0  0  0
  -27.4012  -29.7265   25.4686 H   0  0  0  0  0  0
  -27.8774  -30.4300   23.9411 H   0  0  0  0  0  0
  -27.2649  -33.3628   26.2065 H   0  0  0  0  0  0
  -28.3850  -32.6891   25.0315 H   0  0  0  0  0  0
  -28.0711  -31.8457   26.5408 H   0  0  0  0  0  0
  -28.2585  -38.0104   24.7524 H   0  0  0  0  0  0
  -28.1087  -36.2637   24.6269 H   0  0  0  0  0  0
  -27.2304  -37.1418   25.8867 H   0  0  0  0  0  0
  -20.9356  -29.8750   21.6890 H   0  0  0  0  0  0
  -26.0169  -38.2848   24.1428 H   0  0  0  0  0  0
  -29.6330  -24.5244   21.1876 H   0  0  0  0  0  0
  -28.0202  -24.1575   21.7215 H   0  0  0  0  0  0
  -27.7320  -23.2056   17.5912 H   0  0  0  0  0  0
  -29.4360  -23.1702   17.2002 H   0  0  0  0  0  0
  -31.4189  -19.1392   21.5010 H   0  0  0  0  0  0
  -30.0277  -18.5592   22.3650 H   0  0  0  0  0  0
  -27.9236  -18.1234   21.2360 H   0  0  0  0  0  0
  -27.7834  -18.1805   19.5101 H   0  0  0  0  0  0
  -28.5422  -25.5140   17.7896 H   0  0  0  0  0  0
  -29.9275  -25.0207   18.7335 H   0  0  0  0  0  0
  -31.5835  -16.6903   22.1493 H   0  0  0  0  0  0
  -31.8804  -17.0739   20.4807 H   0  0  0  0  0  0
  -28.8511  -16.1257   19.1751 H   0  0  0  0  0  0
  -28.0490  -15.8764   20.7140 H   0  0  0  0  0  0
  -30.2043  -18.7296   19.3453 H   0  0  0  0  0  0
  1 25  1  0  0  0
  1 30  2  0  0  0
  1 83  1  0  0  0
  2  3  1  0  0  0
  2 25  1  0  0  0
  2 86  1  0  0  0
  2 87  1  0  0  0
  3  4  1  0  0  0
  3 88  1  0  0  0
  3 89  1  0  0  0
  4  5  1  0  0  0
  4 90  1  0  0  0
  4 91  1  0  0  0
  5  6  1  0  0  0
  5 26  1  0  0  0
  5 92  1  0  0  0
  6 25  1  0  0  0
  6 93  1  0  0  0
  6 94  1  0  0  0
  7  8  2  0  0  0
  7 26  1  0  0  0
  7 29  1  0  0  0
  8  9  1  0  0  0
  8 22  1  0  0  0
  9 10  1  0  0  0
  9 27  2  0  0  0
 10 11  2  0  0  0
 10 15  1  0  0  0
 11 12  1  0  0  0
 11 95  1  0  0  0
 12 13  2  0  0  0
 12 96  1  0  0  0
 13 14  1  0  0  0
 13 31  1  0  0  0
 14 15  2  0  0  0
 14 97  1  0  0  0
 15 98  1  0  0  0
 16 17  2  0  0  0
 16 21  1  0  0  0
 16 31  1  0  0  0
 17 18  1  0  0  0
 17 99  1  0  0  0
 18 19  2  0  0  0
 18100  1  0  0  0
 19 20  1  0  0  0
 19 24  1  0  0  0
 20 21  2  0  0  0
 20101  1  0  0  0
 21 23  1  0  0  0
 22 28  1  0  0  0
 22 32  2  0  0  0
 26 27  1  0  0  0
 28102  1  0  0  0
 28103  1  0  0  0
 29104  1  0  0  0
 29105  1  0  0  0
 33 34  1  0  0  0
 33 66  1  0  0  0
 33 70  2  0  0  0
 34 36  1  0  0  0
 34 59  1  0  0  0
 34106  1  0  0  0
 35 44  2  0  0  0
 35 45  1  0  0  0
 35 68  1  0  0  0
 36 56  1  0  0  0
 36107  1  0  0  0
 37 39  1  0  0  0
 37 47  1  0  0  0
 37 66  1  0  0  0
 37108  1  0  0  0
 38 43  2  0  0  0
 38 46  1  0  0  0
 38 47  1  0  0  0
 39 64  1  0  0  0
 39 67  2  0  0  0
 40 52  1  0  0  0
 40 53  2  0  0  0
 40 58  1  0  0  0
 41109  1  0  0  0
 41110  1  0  0  0
 41111  1  0  0  0
 41 48  1  0  0  0
 42 43  1  0  0  0
 42 66  1  0  0  0
 42112  1  0  0  0
 42113  1  0  0  0
 43 44  1  0  0  0
 44114  1  0  0  0
 45 46  2  0  0  0
 45115  1  0  0  0
 46116  1  0  0  0
 47117  1  0  0  0
 47118  1  0  0  0
 48 56  1  0  0  0
 48 65  1  0  0  0
 48119  1  0  0  0
 49 50  1  0  0  0
 49 53  1  0  0  0
 49 64  1  0  0  0
 49120  1  0  0  0
 50 51  1  0  0  0
 50121  1  0  0  0
 50122  1  0  0  0
 51 52  1  0  0  0
 51123  1  0  0  0
 51124  1  0  0  0
 52125  1  0  0  0
 52126  1  0  0  0
 53 54  1  0  0  0
 54 55  2  0  0  0
 54127  1  0  0  0
 55 57  1  0  0  0
 55128  1  0  0  0
 56 69  2  0  0  0
 57 58  2  0  0  0
 57129  1  0  0  0
 58130  1  0  0  0
 59 60  1  0  0  0
 59 61  1  0  0  0
 59 62  1  0  0  0
 60131  1  0  0  0
 60132  1  0  0  0
 60133  1  0  0  0
 61134  1  0  0  0
 61135  1  0  0  0
 61136  1  0  0  0
 62137  1  0  0  0
 62138  1  0  0  0
 62139  1  0  0  0
 63 65  1  0  0  0
 63140  1  0  0  0
 63141  1  0  0  0
 63142  1  0  0  0
 64143  1  0  0  0
 65144  1  0  0  0
 68 84  1  0  0  0
 71 72  2  0  0  0
 71 74  1  0  0  0
 71 82  1  0  0  0
 72 75  1  0  0  0
 72 85  1  0  0  0
 73 82  2  0  0  0
 73 85  1  0  0  0
 73 81  1  0  0  0
 74 84  1  0  0  0
 74145  1  0  0  0
 74146  1  0  0  0
 75 78  1  0  0  0
 75147  1  0  0  0
 75148  1  0  0  0
 76 79  1  0  0  0
 76 81  1  0  0  0
 76149  1  0  0  0
 76150  1  0  0  0
 77 80  1  0  0  0
 77 81  1  0  0  0
 77151  1  0  0  0
 77152  1  0  0  0
 78 84  1  0  0  0
 78153  1  0  0  0
 78154  1  0  0  0
 79 83  1  0  0  0
 79155  1  0  0  0
 79156  1  0  0  0
 80 83  1  0  0  0
 80157  1  0  0  0
 80158  1  0  0  0
 81159  1  0  0  0
M  ISO  4   1 100  68 101  83 100  84 101
M  END
> <chiral flag>
0

> <version>
0

> <s_m_source_file>
/data/baiqing/PycharmProjects/Reinvent-master-3.2/result/LINK_invent/BTK/process_docking_weight1_custom_product_contain_oxygen_bond_distance_aromatic_linkinvent_7_9_3/rearranged_h_0158.sdf

> <i_m_source_file_index>
65

> <r_mmod_Potential_Energy-OPLS-2005>
361.460021972656

> <r_mmod_Stretch_Energy-OPLS-2005>
90.4922180175781

> <r_mmod_Bend_Energy-OPLS-2005>
201.542556762695

> <r_mmod_Torsional_Energy-OPLS-2005>
327.841339111328

> <r_mmod_Improper_Torsional_Energy-OPLS-2005>
4.06378507614136

> <r_mmod_Van_der_Waal_Energy-OPLS-2005>
141.13655090332

> <r_mmod_Electrostatic_Energy-OPLS-2005>
-245.616653442383

> <r_mmod_Solvation_Energy-OPLS-2005>
-220.959274291992

> <b_mmod_Minimization_Converged-OPLS-2005>
0

> <r_mmod_RMS_Derivative-OPLS-2005>
0.823274075984955

$$$$
65
                    3D
 Structure written by MMmdl.
159167  0  0  1  0            999 V2000
  -30.5822  -14.7659   20.4738 C   0  0  0  0  0  0
  -30.4440  -12.4678   19.4813 C   0  0  0  0  0  0
  -29.5175  -12.5220   18.2444 C   0  0  0  0  0  0
  -28.0433  -12.3397   18.6548 C   0  0  0  0  0  0
  -27.6489  -13.2299   19.8621 C   0  0  2  0  0  0
  -28.6924  -13.1419   20.9986 C   0  0  0  0  0  0
  -25.2536  -13.8195   20.5703 C   0  0  0  0  0  0
  -24.1816  -13.0442   20.9193 C   0  0  0  0  0  0
  -24.6403  -11.6917   20.8741 C   0  0  0  0  0  0
  -23.9078  -10.4295   21.0404 C   0  0  0  0  0  0
  -24.3626   -9.4211   21.9184 C   0  0  0  0  0  0
  -23.6301   -8.2246   22.0754 C   0  0  0  0  0  0
  -22.4284   -8.0285   21.3542 C   0  0  0  0  0  0
  -21.9918   -9.0260   20.4645 C   0  0  0  0  0  0
  -22.7248  -10.2138   20.3055 C   0  0  0  0  0  0
  -21.6854   -6.0742   22.5280 C   0  0  0  0  0  0
  -21.4012   -6.5646   23.8213 C   0  0  0  0  0  0
  -21.3657   -5.6798   24.9174 C   0  0  0  0  0  0
  -21.6044   -4.3061   24.7224 C   0  0  0  0  0  0
  -21.8819   -3.8152   23.4345 C   0  0  0  0  0  0
  -21.9192   -4.6969   22.3401 C   0  0  0  0  0  0
  -22.7836  -13.5225   21.1854 C   0  0  0  0  0  0
  -22.1665   -4.2156   21.0978 F   0  0  0  0  0  0
  -21.5626   -3.4542   25.7735 F   0  0  0  0  0  0
  -29.9984  -13.5145   20.4335 N   0  0  0  0  0  0
  -26.2972  -12.9397   20.3321 N   0  0  0  0  0  0
  -25.9339  -11.6540   20.5768 N   0  0  0  0  0  0
  -22.0491  -12.8211   22.0416 N   0  0  0  0  0  0
  -25.4242  -15.1922   20.4143 N   0  0  0  0  0  0
  -31.7360  -14.9184   20.0595 O   0  0  0  0  0  0
  -21.6642   -6.8886   21.4244 O   0  0  0  0  0  0
  -22.3515  -14.5533   20.6710 O   0  0  0  0  0  0
  -24.6332  -31.8527   23.1965 C   0  0  0  0  0  0
  -25.9148  -32.4744   23.8322 C   0  0  1  0  0  0
  -27.2196  -27.2347   20.1397 C   0  0  0  0  0  0
  -25.5930  -33.8551   24.2240 N   0  0  0  0  0  0
  -23.4325  -30.4746   21.5403 C   0  0  2  0  0  0
  -24.8811  -28.9203   20.1067 C   0  0  0  0  0  0
  -22.7516  -29.4586   22.4900 C   0  0  0  0  0  0
  -18.0298  -28.1381   22.8478 C   0  0  0  0  0  0
  -24.1491  -36.7281   23.2640 C   0  0  0  0  0  0
  -25.9800  -30.7581   21.3812 C   0  0  0  0  0  0
  -26.0530  -29.3789   20.7217 C   0  0  0  0  0  0
  -27.2239  -28.5495   20.7258 C   0  0  0  0  0  0
  -26.0308  -26.8634   19.4705 C   0  0  0  0  0  0
  -24.8775  -27.6718   19.4673 C   0  0  0  0  0  0
  -23.6525  -29.8091   20.1561 C   0  0  0  0  0  0
  -25.4121  -36.3066   24.0322 C   0  0  1  0  0  0
  -20.5900  -28.3709   23.1259 C   0  0  2  0  0  0
  -20.6795  -26.9423   22.5399 C   0  0  0  0  0  0
  -19.5772  -26.6379   21.5204 C   0  0  0  0  0  0
  -18.1952  -26.7921   22.1615 C   0  0  0  0  0  0
  -19.1549  -28.8863   23.2862 C   0  0  0  0  0  0
  -18.9464  -30.1463   23.8881 C   0  0  0  0  0  0
  -17.6462  -30.6582   24.0559 C   0  0  0  0  0  0
  -25.9063  -34.9436   23.5087 C   0  0  0  0  0  0
  -16.5358  -29.9078   23.6323 C   0  0  0  0  0  0
  -16.7286  -28.6497   23.0346 C   0  0  0  0  0  0
  -26.4507  -31.6578   25.0722 C   0  0  0  0  0  0
  -25.3718  -31.3739   26.1432 C   0  0  0  0  0  0
  -27.0361  -30.2988   24.6231 C   0  0  0  0  0  0
  -27.6050  -32.4330   25.7503 C   0  0  0  0  0  0
  -27.5578  -37.1800   24.8465 C   0  0  0  0  0  0
  -21.4214  -29.3059   22.3652 N   0  0  0  0  0  0
  -26.4293  -37.3766   23.9403 N   0  0  0  0  0  0
  -24.7009  -31.0471   22.0953 N   0  0  0  0  0  0
  -23.4198  -28.8118   23.3005 O   0  0  0  0  0  0
  -28.2965  -26.3087   20.2380 O   0  0  0  0  0  0
  -26.5642  -34.8916   22.4659 O   0  0  0  0  0  0
  -23.5472  -32.1358   23.7239 O   0  0  0  0  0  0
  -29.9880  -18.4981   21.1295 C   0  0  0  0  0  0
  -28.7617  -17.6190   19.4850 C   0  0  0  0  0  0
  -29.6336  -17.2454   20.4706 C   0  0  0  0  0  0
  -29.3099  -19.6038   20.5763 C   0  0  0  0  0  0
  -29.2776  -21.0919   20.9369 C   0  0  0  0  0  0
  -27.4274  -19.6008   18.8326 C   0  0  0  0  0  0
  -26.6596  -20.8149   19.3431 C   0  0  0  0  0  0
  -27.0491  -24.4731   21.3810 C   0  0  0  0  0  0
  -29.2846  -23.7571   20.4381 C   0  0  0  0  0  0
  -28.0487  -24.8022   20.2510 C   0  0  2  0  0  0
  -28.4999  -18.9999   19.5942 N   0  0  0  0  0  0
  -29.4505  -21.3260   22.2422 N   0  0  0  0  0  0
  -29.8079  -15.8318   20.9176 N   0  0  0  0  0  0
  -29.1292  -22.2357   20.1384 N   0  3  0  0  0  0
  -27.0717  -19.0355   17.7928 O   0  0  0  0  0  0
  -31.4829  -12.6053   19.1773 H   0  0  0  0  0  0
  -30.4007  -11.4842   19.9519 H   0  0  0  0  0  0
  -29.8019  -11.7542   17.5239 H   0  0  0  0  0  0
  -29.6412  -13.4796   17.7362 H   0  0  0  0  0  0
  -27.9022  -11.2898   18.9125 H   0  0  0  0  0  0
  -27.3852  -12.5366   17.8076 H   0  0  0  0  0  0
  -27.6496  -14.2564   19.4952 H   0  0  0  0  0  0
  -28.7299  -12.1329   21.4116 H   0  0  0  0  0  0
  -28.4156  -13.7933   21.8288 H   0  0  0  0  0  0
  -25.2772   -9.5690   22.4759 H   0  0  0  0  0  0
  -24.0012   -7.4637   22.7471 H   0  0  0  0  0  0
  -21.0848   -8.8780   19.8950 H   0  0  0  0  0  0
  -22.3706  -10.9681   19.6167 H   0  0  0  0  0  0
  -21.2009   -7.6154   23.9718 H   0  0  0  0  0  0
  -21.1477   -6.0526   25.9076 H   0  0  0  0  0  0
  -22.0601   -2.7616   23.2841 H   0  0  0  0  0  0
  -22.4109  -11.9864   22.4788 H   0  0  0  0  0  0
  -21.1109  -13.1227   22.2630 H   0  0  0  0  0  0
  -24.6570  -15.8464   20.5232 H   0  0  0  0  0  0
  -26.2791  -15.6338   20.1031 H   0  0  0  0  0  0
  -26.7212  -32.5384   23.1059 H   0  0  0  0  0  0
  -25.0061  -33.9686   25.0375 H   0  0  0  0  0  0
  -22.7298  -31.2977   21.3932 H   0  0  0  0  0  0
  -23.3755  -35.9610   23.3303 H   0  0  0  0  0  0
  -24.3573  -36.8904   22.2053 H   0  0  0  0  0  0
  -23.7242  -37.6481   23.6667 H   0  0  0  0  0  0
  -26.1226  -31.5181   20.6123 H   0  0  0  0  0  0
  -26.8554  -30.8054   22.0166 H   0  0  0  0  0  0
  -28.1153  -28.8908   21.2334 H   0  0  0  0  0  0
  -25.9570  -25.9095   18.9717 H   0  0  0  0  0  0
  -23.9835  -27.3166   18.9729 H   0  0  0  0  0  0
  -23.7780  -30.5865   19.4013 H   0  0  0  0  0  0
  -22.7705  -29.2443   19.8498 H   0  0  0  0  0  0
  -25.1306  -36.1917   25.0817 H   0  0  0  0  0  0
  -20.9997  -28.3293   24.1379 H   0  0  0  0  0  0
  -20.5690  -26.2323   23.3605 H   0  0  0  0  0  0
  -21.6668  -26.7446   22.1200 H   0  0  0  0  0  0
  -19.6943  -25.6281   21.1245 H   0  0  0  0  0  0
  -19.6696  -27.3180   20.6729 H   0  0  0  0  0  0
  -17.4222  -26.6648   21.4025 H   0  0  0  0  0  0
  -18.0372  -26.0067   22.9020 H   0  0  0  0  0  0
  -19.7936  -30.7289   24.2241 H   0  0  0  0  0  0
  -17.5010  -31.6260   24.5166 H   0  0  0  0  0  0
  -15.5356  -30.2977   23.7638 H   0  0  0  0  0  0
  -15.8687  -28.0808   22.7066 H   0  0  0  0  0  0
  -24.5902  -30.7079   25.7755 H   0  0  0  0  0  0
  -24.8904  -32.2915   26.4825 H   0  0  0  0  0  0
  -25.8023  -30.8934   27.0227 H   0  0  0  0  0  0
  -26.2956  -29.6729   24.1237 H   0  0  0  0  0  0
  -27.4009  -29.7258   25.4767 H   0  0  0  0  0  0
  -27.8847  -30.4251   23.9504 H   0  0  0  0  0  0
  -27.2645  -33.3634   26.2061 H   0  0  0  0  0  0
  -28.3873  -32.6886   25.0344 H   0  0  0  0  0  0
  -28.0707  -31.8473   26.5439 H   0  0  0  0  0  0
  -28.2600  -38.0093   24.7507 H   0  0  0  0  0  0
  -28.1073  -36.2625   24.6307 H   0  0  0  0  0  0
  -27.2291  -37.1460   25.8866 H   0  0  0  0  0  0
  -20.9400  -29.8769   21.6845 H   0  0  0  0  0  0
  -26.0172  -38.2839   24.1406 H   0  0  0  0  0  0
  -30.6379  -18.5813   21.9890 H   0  0  0  0  0  0
  -28.1954  -17.0115   18.7906 H   0  0  0  0  0  0
  -26.9331  -21.7118   18.7901 H   0  0  0  0  0  0
  -26.8100  -20.9688   20.4109 H   0  0  0  0  0  0
  -25.5927  -20.6547   19.1918 H   0  0  0  0  0  0
  -26.8220  -23.4073   21.4040 H   0  0  0  0  0  0
  -26.0957  -24.9867   21.2802 H   0  0  0  0  0  0
  -27.4617  -24.7397   22.3542 H   0  0  0  0  0  0
  -29.6937  -23.8757   21.4412 H   0  0  0  0  0  0
  -30.0844  -24.0975   19.7801 H   0  0  0  0  0  0
  -27.5913  -24.5409   19.2975 H   0  0  0  0  0  0
  -29.5612  -20.5492   22.8768 H   0  0  0  0  0  0
  -29.4628  -22.2483   22.6431 H   0  0  0  0  0  0
  -28.9815  -15.4712   21.3709 H   0  0  0  0  0  0
  -29.0801  -22.0577   19.1452 H   0  0  0  0  0  0
  1 25  1  0  0  0
  1 30  2  0  0  0
  1 83  1  0  0  0
  2  3  1  0  0  0
  2 25  1  0  0  0
  2 86  1  0  0  0
  2 87  1  0  0  0
  3  4  1  0  0  0
  3 88  1  0  0  0
  3 89  1  0  0  0
  4  5  1  0  0  0
  4 90  1  0  0  0
  4 91  1  0  0  0
  5  6  1  0  0  0
  5 26  1  0  0  0
  5 92  1  0  0  0
  6 25  1  0  0  0
  6 93  1  0  0  0
  6 94  1  0  0  0
  7  8  2  0  0  0
  7 26  1  0  0  0
  7 29  1  0  0  0
  8  9  1  0  0  0
  8 22  1  0  0  0
  9 10  1  0  0  0
  9 27  2  0  0  0
 10 11  2  0  0  0
 10 15  1  0  0  0
 11 12  1  0  0  0
 11 95  1  0  0  0
 12 13  2  0  0  0
 12 96  1  0  0  0
 13 14  1  0  0  0
 13 31  1  0  0  0
 14 15  2  0  0  0
 14 97  1  0  0  0
 15 98  1  0  0  0
 16 17  2  0  0  0
 16 21  1  0  0  0
 16 31  1  0  0  0
 17 18  1  0  0  0
 17 99  1  0  0  0
 18 19  2  0  0  0
 18100  1  0  0  0
 19 20  1  0  0  0
 19 24  1  0  0  0
 20 21  2  0  0  0
 20101  1  0  0  0
 21 23  1  0  0  0
 22 28  1  0  0  0
 22 32  2  0  0  0
 26 27  1  0  0  0
 28102  1  0  0  0
 28103  1  0  0  0
 29104  1  0  0  0
 29105  1  0  0  0
 33 34  1  0  0  0
 33 66  1  0  0  0
 33 70  2  0  0  0
 34 36  1  0  0  0
 34 59  1  0  0  0
 34106  1  0  0  0
 35 44  2  0  0  0
 35 45  1  0  0  0
 35 68  1  0  0  0
 36 56  1  0  0  0
 36107  1  0  0  0
 37 39  1  0  0  0
 37 47  1  0  0  0
 37 66  1  0  0  0
 37108  1  0  0  0
 38 43  2  0  0  0
 38 46  1  0  0  0
 38 47  1  0  0  0
 39 64  1  0  0  0
 39 67  2  0  0  0
 40 52  1  0  0  0
 40 53  2  0  0  0
 40 58  1  0  0  0
 41109  1  0  0  0
 41110  1  0  0  0
 41111  1  0  0  0
 41 48  1  0  0  0
 42 43  1  0  0  0
 42 66  1  0  0  0
 42112  1  0  0  0
 42113  1  0  0  0
 43 44  1  0  0  0
 44114  1  0  0  0
 45 46  2  0  0  0
 45115  1  0  0  0
 46116  1  0  0  0
 47117  1  0  0  0
 47118  1  0  0  0
 48 56  1  0  0  0
 48 65  1  0  0  0
 48119  1  0  0  0
 49 50  1  0  0  0
 49 53  1  0  0  0
 49 64  1  0  0  0
 49120  1  0  0  0
 50 51  1  0  0  0
 50121  1  0  0  0
 50122  1  0  0  0
 51 52  1  0  0  0
 51123  1  0  0  0
 51124  1  0  0  0
 52125  1  0  0  0
 52126  1  0  0  0
 53 54  1  0  0  0
 54 55  2  0  0  0
 54127  1  0  0  0
 55 57  1  0  0  0
 55128  1  0  0  0
 56 69  2  0  0  0
 57 58  2  0  0  0
 57129  1  0  0  0
 58130  1  0  0  0
 59 60  1  0  0  0
 59 61  1  0  0  0
 59 62  1  0  0  0
 60131  1  0  0  0
 60132  1  0  0  0
 60133  1  0  0  0
 61134  1  0  0  0
 61135  1  0  0  0
 61136  1  0  0  0
 62137  1  0  0  0
 62138  1  0  0  0
 62139  1  0  0  0
 63 65  1  0  0  0
 63140  1  0  0  0
 63141  1  0  0  0
 63142  1  0  0  0
 64143  1  0  0  0
 65144  1  0  0  0
 68 80  1  0  0  0
 71 73  1  0  0  0
 71 74  2  0  0  0
 71145  1  0  0  0
 72 73  2  0  0  0
 72 81  1  0  0  0
 72146  1  0  0  0
 73 83  1  0  0  0
 74 75  1  0  0  0
 74 81  1  0  0  0
 75 82  1  0  0  0
 75 84  2  0  0  0
 76 77  1  0  0  0
 76 81  1  0  0  0
 76 85  2  0  0  0
 77147  1  0  0  0
 77148  1  0  0  0
 77149  1  0  0  0
 78150  1  0  0  0
 78151  1  0  0  0
 78152  1  0  0  0
 78 80  1  0  0  0
 79 80  1  0  0  0
 79 84  1  0  0  0
 79153  1  0  0  0
 79154  1  0  0  0
 80155  1  0  0  0
 82156  1  0  0  0
 82157  1  0  0  0
 83158  1  0  0  0
 84159  1  0  0  0
M  CHG  1  84   1
M  ISO  4   1 100  68 101  80 101  83 100
M  END
> <chiral flag>
0

> <version>
0

> <s_m_source_file>
/data/baiqing/PycharmProjects/Reinvent-master-3.2/result/LINK_invent/BTK/process_docking_weight1_custom_product_contain_oxygen_bond_distance_aromatic_linkinvent_7_9_3/rearranged_h_0158.sdf

> <i_m_source_file_index>
66

> <r_mmod_Potential_Energy-OPLS-2005>
1.59826672077179

> <r_mmod_Stretch_Energy-OPLS-2005>
140.629379272461

> <r_mmod_Bend_Energy-OPLS-2005>
200.941390991211

> <r_mmod_Torsional_Energy-OPLS-2005>
278.397918701172

> <r_mmod_Improper_Torsional_Energy-OPLS-2005>
9.7206335067749

> <r_mmod_Van_der_Waal_Energy-OPLS-2005>
120.886581420898

> <r_mmod_Electrostatic_Energy-OPLS-2005>
-346.402221679688

> <r_mmod_Solvation_Energy-OPLS-2005>
-502.537261962891

> <b_mmod_Minimization_Converged-OPLS-2005>
0

> <r_mmod_RMS_Derivative-OPLS-2005>
0.903844177722931

$$$$
66
                    3D
 Structure written by MMmdl.
165174  0  0  1  0            999 V2000
  -30.5332  -14.8175   20.4450 C   0  0  0  0  0  0
  -30.4367  -12.5023   19.4688 C   0  0  0  0  0  0
  -29.5076  -12.5065   18.2337 C   0  0  0  0  0  0
  -28.0355  -12.3199   18.6494 C   0  0  0  0  0  0
  -27.6302  -13.2266   19.8415 C   0  0  2  0  0  0
  -28.6745  -13.1722   20.9738 C   0  0  0  0  0  0
  -25.2451  -13.8183   20.5681 C   0  0  0  0  0  0
  -24.1747  -13.0434   20.9231 C   0  0  0  0  0  0
  -24.6332  -11.6907   20.8773 C   0  0  0  0  0  0
  -23.9029  -10.4283   21.0443 C   0  0  0  0  0  0
  -24.3599   -9.4200   21.9197 C   0  0  0  0  0  0
  -23.6294   -8.2232   22.0760 C   0  0  0  0  0  0
  -22.4269   -8.0263   21.3555 C   0  0  0  0  0  0
  -21.9900   -9.0226   20.4665 C   0  0  0  0  0  0
  -22.7209  -10.2117   20.3087 C   0  0  0  0  0  0
  -21.6848   -6.0724   22.5280 C   0  0  0  0  0  0
  -21.4012   -6.5644   23.8203 C   0  0  0  0  0  0
  -21.3672   -5.6809   24.9185 C   0  0  0  0  0  0
  -21.6043   -4.3058   24.7236 C   0  0  0  0  0  0
  -21.8830   -3.8152   23.4361 C   0  0  0  0  0  0
  -21.9197   -4.6954   22.3405 C   0  0  0  0  0  0
  -22.7776  -13.5228   21.1879 C   0  0  0  0  0  0
  -22.1664   -4.2144   21.0973 F   0  0  0  0  0  0
  -21.5639   -3.4533   25.7755 F   0  0  0  0  0  0
  -29.9573  -13.5648   20.3821 N   0  0  0  0  0  0
  -26.2862  -12.9371   20.3250 N   0  0  0  0  0  0
  -25.9251  -11.6525   20.5716 N   0  0  0  0  0  0
  -22.0430  -12.8197   22.0433 N   0  0  0  0  0  0
  -25.4137  -15.1907   20.4048 N   0  0  0  0  0  0
  -31.7404  -14.9246   20.2088 O   0  0  0  0  0  0
  -21.6653   -6.8854   21.4239 O   0  0  0  0  0  0
  -22.3452  -14.5529   20.6751 O   0  0  0  0  0  0
  -24.6293  -31.8519   23.1935 C   0  0  0  0  0  0
  -25.9120  -32.4724   23.8296 C   0  0  1  0  0  0
  -27.2220  -27.2391   20.1231 C   0  0  0  0  0  0
  -25.5913  -33.8528   24.2216 N   0  0  0  0  0  0
  -23.4258  -30.4677   21.5366 C   0  0  2  0  0  0
  -24.8707  -28.8962   20.1116 C   0  0  0  0  0  0
  -22.7481  -29.4561   22.4910 C   0  0  0  0  0  0
  -18.0278  -28.1394   22.8490 C   0  0  0  0  0  0
  -24.1484  -36.7274   23.2634 C   0  0  0  0  0  0
  -25.9686  -30.7510   21.3782 C   0  0  0  0  0  0
  -26.0350  -29.3667   20.7284 C   0  0  0  0  0  0
  -27.2052  -28.5459   20.7263 C   0  0  0  0  0  0
  -26.0433  -26.8332   19.4686 C   0  0  0  0  0  0
  -24.8795  -27.6401   19.4752 C   0  0  0  0  0  0
  -23.6443  -29.7910   20.1558 C   0  0  0  0  0  0
  -25.4106  -36.3056   24.0322 C   0  0  1  0  0  0
  -20.5879  -28.3698   23.1280 C   0  0  2  0  0  0
  -20.6763  -26.9411   22.5420 C   0  0  0  0  0  0
  -19.5743  -26.6381   21.5222 C   0  0  0  0  0  0
  -18.1921  -26.7934   22.1633 C   0  0  0  0  0  0
  -19.1533  -28.8862   23.2881 C   0  0  0  0  0  0
  -18.9465  -30.1469   23.8885 C   0  0  0  0  0  0
  -17.6467  -30.6596   24.0562 C   0  0  0  0  0  0
  -25.9066  -34.9427   23.5082 C   0  0  0  0  0  0
  -16.5354  -29.9090   23.6337 C   0  0  0  0  0  0
  -16.7270  -28.6513   23.0345 C   0  0  0  0  0  0
  -26.4483  -31.6579   25.0704 C   0  0  0  0  0  0
  -25.3707  -31.3747   26.1432 C   0  0  0  0  0  0
  -27.0341  -30.2989   24.6239 C   0  0  0  0  0  0
  -27.6026  -32.4331   25.7469 C   0  0  0  0  0  0
  -27.5608  -37.1735   24.8421 C   0  0  0  0  0  0
  -21.4188  -29.3033   22.3661 N   0  0  0  0  0  0
  -26.4252  -37.3789   23.9469 N   0  0  0  0  0  0
  -24.6932  -31.0438   22.0930 N   0  0  0  0  0  0
  -23.4188  -28.8114   23.3012 O   0  0  0  0  0  0
  -28.3967  -26.4546   20.1442 O   0  0  0  0  0  0
  -26.5662  -34.8913   22.4670 O   0  0  0  0  0  0
  -23.5443  -32.1359   23.7233 O   0  0  0  0  0  0
  -24.0961  -20.7696   19.0758 C   0  0  0  0  0  0
  -24.8083  -21.7053   18.2907 C   0  0  0  0  0  0
  -24.7608  -20.0193   20.0729 C   0  0  0  0  0  0
  -26.1842  -21.9311   18.5180 C   0  0  0  0  0  0
  -26.1354  -20.2429   20.2759 C   0  0  0  0  0  0
  -26.8229  -21.1991   19.5454 C   0  0  0  0  0  0
  -28.6690  -25.0531   19.9373 C   0  0  0  0  0  0
  -28.0738  -23.8352   20.2625 C   0  0  0  0  0  0
  -28.8250  -22.4964   20.1239 C   0  0  0  0  0  0
  -29.1475  -18.6070   20.0182 C   0  0  0  0  0  0
  -27.0652  -19.5096   21.2126 C   0  0  0  0  0  0
  -28.4914  -19.9269   20.7255 C   0  0  2  0  0  0
  -31.3448  -17.8124   21.1023 C   0  0  0  0  0  0
  -29.8664  -17.4418   20.8968 C   0  0  2  0  0  0
  -29.0921  -18.4574   18.7648 N   0  0  0  0  0  0
  -28.1682  -21.2627   19.9787 N   0  0  0  0  0  0
  -29.6860  -15.9277   20.5821 N   0  0  0  0  0  0
  -26.7259  -23.8945   20.8717 N   0  3  0  0  0  0
  -30.0561  -22.4683   20.2079 O   0  0  0  0  0  0
  -31.4690  -12.6658   19.1612 H   0  0  0  0  0  0
  -30.4210  -11.5350   19.9704 H   0  0  0  0  0  0
  -29.7979  -11.7246   17.5303 H   0  0  0  0  0  0
  -29.6144  -13.4524   17.7010 H   0  0  0  0  0  0
  -27.8998  -11.2713   18.9193 H   0  0  0  0  0  0
  -27.3800  -12.4989   17.7951 H   0  0  0  0  0  0
  -27.6161  -14.2444   19.4507 H   0  0  0  0  0  0
  -28.7277  -12.1697   21.4012 H   0  0  0  0  0  0
  -28.3989  -13.8399   21.7921 H   0  0  0  0  0  0
  -25.2751   -9.5693   22.4743 H   0  0  0  0  0  0
  -24.0028   -7.4628   22.7463 H   0  0  0  0  0  0
  -21.0835   -8.8747   19.8934 H   0  0  0  0  0  0
  -22.3678  -10.9664   19.6191 H   0  0  0  0  0  0
  -21.1988   -7.6153   23.9713 H   0  0  0  0  0  0
  -21.1483   -6.0533   25.9084 H   0  0  0  0  0  0
  -22.0587   -2.7611   23.2871 H   0  0  0  0  0  0
  -22.4089  -11.9899   22.4882 H   0  0  0  0  0  0
  -21.1040  -13.1203   22.2635 H   0  0  0  0  0  0
  -24.6328  -15.8318   20.4912 H   0  0  0  0  0  0
  -26.2237  -15.6119   19.9720 H   0  0  0  0  0  0
  -26.7159  -32.5351   23.1013 H   0  0  0  0  0  0
  -24.9996  -33.9662   25.0313 H   0  0  0  0  0  0
  -22.7250  -31.2907   21.3852 H   0  0  0  0  0  0
  -23.3799  -35.9543   23.3147 H   0  0  0  0  0  0
  -24.3609  -36.9068   22.2086 H   0  0  0  0  0  0
  -23.7143  -37.6383   23.6760 H   0  0  0  0  0  0
  -26.1122  -31.5080   20.6066 H   0  0  0  0  0  0
  -26.8439  -30.8024   22.0127 H   0  0  0  0  0  0
  -28.1028  -28.9084   21.2078 H   0  0  0  0  0  0
  -26.0160  -25.8951   18.9330 H   0  0  0  0  0  0
  -23.9882  -27.2878   18.9734 H   0  0  0  0  0  0
  -23.7735  -30.5628   19.3961 H   0  0  0  0  0  0
  -22.7620  -29.2257   19.8529 H   0  0  0  0  0  0
  -25.1259  -36.1874   25.0800 H   0  0  0  0  0  0
  -20.9964  -28.3277   24.1405 H   0  0  0  0  0  0
  -20.5668  -26.2303   23.3624 H   0  0  0  0  0  0
  -21.6630  -26.7429   22.1209 H   0  0  0  0  0  0
  -19.6895  -25.6287   21.1259 H   0  0  0  0  0  0
  -19.6682  -27.3188   20.6750 H   0  0  0  0  0  0
  -17.4184  -26.6687   21.4031 H   0  0  0  0  0  0
  -18.0319  -26.0074   22.9031 H   0  0  0  0  0  0
  -19.7940  -30.7293   24.2241 H   0  0  0  0  0  0
  -17.5016  -31.6268   24.5177 H   0  0  0  0  0  0
  -15.5353  -30.2993   23.7655 H   0  0  0  0  0  0
  -15.8675  -28.0833   22.7053 H   0  0  0  0  0  0
  -24.5820  -30.7182   25.7738 H   0  0  0  0  0  0
  -24.8979  -32.2940   26.4902 H   0  0  0  0  0  0
  -25.8009  -30.8851   27.0186 H   0  0  0  0  0  0
  -26.2944  -29.6715   24.1261 H   0  0  0  0  0  0
  -27.3994  -29.7273   25.4784 H   0  0  0  0  0  0
  -27.8825  -30.4236   23.9508 H   0  0  0  0  0  0
  -27.2616  -33.3614   26.2070 H   0  0  0  0  0  0
  -28.3818  -32.6949   25.0293 H   0  0  0  0  0  0
  -28.0735  -31.8468   26.5377 H   0  0  0  0  0  0
  -28.2438  -38.0216   24.7750 H   0  0  0  0  0  0
  -28.1292  -36.2771   24.5870 H   0  0  0  0  0  0
  -27.2386  -37.0927   25.8820 H   0  0  0  0  0  0
  -20.9379  -29.8759   21.6867 H   0  0  0  0  0  0
  -26.0114  -38.2809   24.1661 H   0  0  0  0  0  0
  -23.0394  -20.6127   18.8992 H   0  0  0  0  0  0
  -24.2918  -22.2521   17.5129 H   0  0  0  0  0  0
  -24.2232  -19.2843   20.6555 H   0  0  0  0  0  0
  -26.7218  -22.6405   17.9013 H   0  0  0  0  0  0
  -29.6508  -24.9954   19.4860 H   0  0  0  0  0  0
  -26.8795  -18.4335   21.1889 H   0  0  0  0  0  0
  -26.8852  -19.8583   22.2300 H   0  0  0  0  0  0
  -29.1090  -20.1609   21.5929 H   0  0  0  0  0  0
  -31.4567  -18.8633   21.3714 H   0  0  0  0  0  0
  -31.9257  -17.6409   20.1959 H   0  0  0  0  0  0
  -31.7844  -17.2222   21.9076 H   0  0  0  0  0  0
  -29.4040  -17.5323   21.8825 H   0  0  0  0  0  0
  -28.6139  -19.2261   18.3059 H   0  0  0  0  0  0
  -28.7138  -15.6601   20.5918 H   0  0  0  0  0  0
  -26.3902  -24.8397   20.8867 H   0  0  0  0  0  0
  -26.7414  -23.5557   21.8187 H   0  0  0  0  0  0
  -26.0765  -23.3296   20.3500 H   0  0  0  0  0  0
  1 25  1  0  0  0
  1 30  2  0  0  0
  1 87  1  0  0  0
  2  3  1  0  0  0
  2 25  1  0  0  0
  2 90  1  0  0  0
  2 91  1  0  0  0
  3  4  1  0  0  0
  3 92  1  0  0  0
  3 93  1  0  0  0
  4  5  1  0  0  0
  4 94  1  0  0  0
  4 95  1  0  0  0
  5  6  1  0  0  0
  5 26  1  0  0  0
  5 96  1  0  0  0
  6 25  1  0  0  0
  6 97  1  0  0  0
  6 98  1  0  0  0
  7  8  2  0  0  0
  7 26  1  0  0  0
  7 29  1  0  0  0
  8  9  1  0  0  0
  8 22  1  0  0  0
  9 10  1  0  0  0
  9 27  2  0  0  0
 10 11  2  0  0  0
 10 15  1  0  0  0
 11 12  1  0  0  0
 11 99  1  0  0  0
 12 13  2  0  0  0
 12100  1  0  0  0
 13 14  1  0  0  0
 13 31  1  0  0  0
 14 15  2  0  0  0
 14101  1  0  0  0
 15102  1  0  0  0
 16 17  2  0  0  0
 16 21  1  0  0  0
 16 31  1  0  0  0
 17 18  1  0  0  0
 17103  1  0  0  0
 18 19  2  0  0  0
 18104  1  0  0  0
 19 20  1  0  0  0
 19 24  1  0  0  0
 20 21  2  0  0  0
 20105  1  0  0  0
 21 23  1  0  0  0
 22 28  1  0  0  0
 22 32  2  0  0  0
 26 27  1  0  0  0
 28106  1  0  0  0
 28107  1  0  0  0
 29108  1  0  0  0
 29109  1  0  0  0
 33 34  1  0  0  0
 33 66  1  0  0  0
 33 70  2  0  0  0
 34 36  1  0  0  0
 34 59  1  0  0  0
 34110  1  0  0  0
 35 44  2  0  0  0
 35 45  1  0  0  0
 35 68  1  0  0  0
 36 56  1  0  0  0
 36111  1  0  0  0
 37 39  1  0  0  0
 37 47  1  0  0  0
 37 66  1  0  0  0
 37112  1  0  0  0
 38 43  2  0  0  0
 38 46  1  0  0  0
 38 47  1  0  0  0
 39 64  1  0  0  0
 39 67  2  0  0  0
 40 52  1  0  0  0
 40 53  2  0  0  0
 40 58  1  0  0  0
 41113  1  0  0  0
 41114  1  0  0  0
 41115  1  0  0  0
 41 48  1  0  0  0
 42 43  1  0  0  0
 42 66  1  0  0  0
 42116  1  0  0  0
 42117  1  0  0  0
 43 44  1  0  0  0
 44118  1  0  0  0
 45 46  2  0  0  0
 45119  1  0  0  0
 46120  1  0  0  0
 47121  1  0  0  0
 47122  1  0  0  0
 48 56  1  0  0  0
 48 65  1  0  0  0
 48123  1  0  0  0
 49 50  1  0  0  0
 49 53  1  0  0  0
 49 64  1  0  0  0
 49124  1  0  0  0
 50 51  1  0  0  0
 50125  1  0  0  0
 50126  1  0  0  0
 51 52  1  0  0  0
 51127  1  0  0  0
 51128  1  0  0  0
 52129  1  0  0  0
 52130  1  0  0  0
 53 54  1  0  0  0
 54 55  2  0  0  0
 54131  1  0  0  0
 55 57  1  0  0  0
 55132  1  0  0  0
 56 69  2  0  0  0
 57 58  2  0  0  0
 57133  1  0  0  0
 58134  1  0  0  0
 59 60  1  0  0  0
 59 61  1  0  0  0
 59 62  1  0  0  0
 60135  1  0  0  0
 60136  1  0  0  0
 60137  1  0  0  0
 61138  1  0  0  0
 61139  1  0  0  0
 61140  1  0  0  0
 62141  1  0  0  0
 62142  1  0  0  0
 62143  1  0  0  0
 63 65  1  0  0  0
 63144  1  0  0  0
 63145  1  0  0  0
 63146  1  0  0  0
 64147  1  0  0  0
 65148  1  0  0  0
 68 77  1  0  0  0
 71 72  2  0  0  0
 71 73  1  0  0  0
 71149  1  0  0  0
 72 74  1  0  0  0
 72150  1  0  0  0
 73 75  2  0  0  0
 73151  1  0  0  0
 74 76  2  0  0  0
 74152  1  0  0  0
 75 76  1  0  0  0
 75 81  1  0  0  0
 76 86  1  0  0  0
 77 78  2  0  0  0
 77153  1  0  0  0
 78 79  1  0  0  0
 78 88  1  0  0  0
 79 86  1  0  0  0
 79 89  2  0  0  0
 80 84  1  0  0  0
 80 85  2  0  0  0
 80 82  1  0  0  0
 81 82  1  0  0  0
 81154  1  0  0  0
 81155  1  0  0  0
 82 86  1  0  0  0
 82156  1  0  0  0
 83157  1  0  0  0
 83158  1  0  0  0
 83159  1  0  0  0
 83 84  1  0  0  0
 84 87  1  0  0  0
 84160  1  0  0  0
 85161  1  0  0  0
 87162  1  0  0  0
 88163  1  0  0  0
 88164  1  0  0  0
 88165  1  0  0  0
M  CHG  1  88   1
M  ISO  4   1 100  68 101  77 101  87 100
M  END
> <chiral flag>
0

> <version>
0

> <s_m_source_file>
/data/baiqing/PycharmProjects/Reinvent-master-3.2/result/LINK_invent/BTK/process_docking_weight1_custom_product_contain_oxygen_bond_distance_aromatic_linkinvent_7_9_3/rearranged_h_0158.sdf

> <i_m_source_file_index>
67

> <r_mmod_Potential_Energy-OPLS-2005>
-9.64743137359619

> <r_mmod_Stretch_Energy-OPLS-2005>
171.403060913086

> <r_mmod_Bend_Energy-OPLS-2005>
309.122680664062

> <r_mmod_Torsional_Energy-OPLS-2005>
281.584136962891

> <r_mmod_Improper_Torsional_Energy-OPLS-2005>
9.17957878112793

> <r_mmod_Van_der_Waal_Energy-OPLS-2005>
128.160827636719

> <r_mmod_Electrostatic_Energy-OPLS-2005>
-492.695709228516

> <r_mmod_Solvation_Energy-OPLS-2005>
-520.503356933594

> <b_mmod_Minimization_Converged-OPLS-2005>
0

> <r_mmod_RMS_Derivative-OPLS-2005>
3.6225061416626

$$$$
67
                    3D
 Structure written by MMmdl.
164173  0  0  1  0            999 V2000
  -29.3032  -16.1880   20.4353 C   0  0  0  0  0  0
  -30.1881  -13.5990   19.5874 C   0  0  0  0  0  0
  -29.5039  -12.8150   18.4047 C   0  0  0  0  0  0
  -28.1398  -12.2500   18.8327 C   0  0  0  0  0  0
  -27.4701  -13.2634   19.7707 C   0  0  2  0  0  0
  -28.3443  -13.7241   20.9336 C   0  0  0  0  0  0
  -25.1800  -13.8046   20.5669 C   0  0  0  0  0  0
  -24.1287  -13.0281   20.9405 C   0  0  0  0  0  0
  -24.5982  -11.6773   20.8884 C   0  0  0  0  0  0
  -23.8784  -10.4155   21.0514 C   0  0  0  0  0  0
  -24.3471   -9.4080   21.9193 C   0  0  0  0  0  0
  -23.6208   -8.2108   22.0746 C   0  0  0  0  0  0
  -22.4186   -8.0150   21.3556 C   0  0  0  0  0  0
  -21.9784   -9.0081   20.4630 C   0  0  0  0  0  0
  -22.7049  -10.1967   20.3062 C   0  0  0  0  0  0
  -21.6808   -6.0686   22.5282 C   0  0  0  0  0  0
  -21.3970   -6.5612   23.8208 C   0  0  0  0  0  0
  -21.3647   -5.6772   24.9189 C   0  0  0  0  0  0
  -21.6072   -4.3038   24.7238 C   0  0  0  0  0  0
  -21.8810   -3.8109   23.4357 C   0  0  0  0  0  0
  -21.9170   -4.6923   22.3407 C   0  0  0  0  0  0
  -22.7377  -13.5097   21.2080 C   0  0  0  0  0  0
  -22.1644   -4.2125   21.0987 F   0  0  0  0  0  0
  -21.5649   -3.4524   25.7748 F   0  0  0  0  0  0
  -29.2451  -14.6715   20.2774 N   0  0  0  0  0  0
  -26.1884  -12.9159   20.2751 N   0  0  0  0  0  0
  -25.8774  -11.6373   20.5535 N   0  0  0  0  0  0
  -22.0050  -12.8141   22.0643 N   0  0  0  0  0  0
  -25.3587  -15.1762   20.4014 N   0  0  0  0  0  0
  -30.5821  -16.2663   20.4046 O   0  0  0  0  0  0
  -21.6566   -6.8766   21.4234 O   0  0  0  0  0  0
  -22.3150  -14.5401   20.6848 O   0  0  0  0  0  0
  -24.7170  -31.6527   22.6557 C   0  0  0  0  0  0
  -25.9142  -32.3460   23.5573 C   0  0  1  0  0  0
  -26.4196  -28.0990   21.5892 C   0  0  0  0  0  0
  -25.5115  -33.7256   23.9950 N   0  0  0  0  0  0
  -24.1521  -29.1059   20.8396 C   0  0  2  0  0  0
  -25.5362  -28.9300   19.3314 C   0  0  0  0  0  0
  -23.8720  -27.2838   22.7623 C   0  0  0  0  0  0
  -18.1644  -28.0629   22.8111 C   0  0  0  0  0  0
  -24.1386  -36.6800   23.2816 C   0  0  0  0  0  0
  -25.9940  -31.0261   20.7040 C   0  0  0  0  0  0
  -26.4541  -29.7093   20.1219 C   0  0  0  0  0  0
  -27.2870  -28.9841   20.9686 C   0  0  0  0  0  0
  -26.1041  -27.0849   20.5836 C   0  0  0  0  0  0
  -25.6105  -27.5296   19.3543 C   0  0  0  0  0  0
  -24.1598  -29.3160   19.3621 C   0  0  0  0  0  0
  -25.4105  -36.2296   24.0184 C   0  0  1  0  0  0
  -20.8056  -27.5687   22.9845 C   0  0  2  0  0  0
  -20.3587  -26.2663   22.3894 C   0  0  0  0  0  0
  -19.3207  -26.4225   21.3132 C   0  0  0  0  0  0
  -18.0369  -26.7922   22.0035 C   0  0  0  0  0  0
  -19.4608  -28.5839   23.2225 C   0  0  0  0  0  0
  -19.3091  -29.8891   23.8198 C   0  0  0  0  0  0
  -18.0385  -30.5419   24.0216 C   0  0  0  0  0  0
  -25.9091  -34.8812   23.4330 C   0  0  0  0  0  0
  -16.8263  -29.9131   23.6773 C   0  0  0  0  0  0
  -16.9048  -28.6652   23.0668 C   0  0  0  0  0  0
  -26.4158  -31.6193   24.9135 C   0  0  0  0  0  0
  -25.3244  -31.3768   25.9908 C   0  0  0  0  0  0
  -27.0925  -30.2755   24.5973 C   0  0  0  0  0  0
  -27.5310  -32.4367   25.6315 C   0  0  0  0  0  0
  -27.5456  -37.1368   24.8438 C   0  0  0  0  0  0
  -22.3862  -27.2281   23.2698 N   0  0  0  0  0  0
  -26.4096  -37.3241   23.9461 N   0  0  0  0  0  0
  -24.7465  -30.7918   21.4132 N   0  0  0  0  0  0
  -24.4133  -27.3014   23.8432 O   0  0  0  0  0  0
  -25.4515  -28.9259   22.5601 O   0  0  0  0  0  0
  -26.6432  -34.8895   22.4412 O   0  0  0  0  0  0
  -23.6447  -32.0568   23.1475 O   0  0  0  0  0  0
  -24.1563  -22.6808   19.6299 C   0  0  0  0  0  0
  -24.9268  -21.3141   19.6540 C   0  0  0  0  0  0
  -26.0219  -20.9977   20.5343 C   0  0  0  0  0  0
  -24.4203  -23.7323   20.5640 C   0  0  0  0  0  0
  -22.2738  -19.9546   17.9523 C   0  0  0  0  0  0
  -22.3188  -19.6370   19.4459 C   0  0  0  0  0  0
  -23.7038  -20.4482   17.6335 C   0  0  0  0  0  0
  -23.7813  -19.2346   19.6225 C   0  0  0  0  0  0
  -22.7802  -29.6202   24.2659 C   0  0  0  0  0  0
  -27.3796  -19.3287   20.8894 C   0  0  0  0  0  0
  -22.7008  -27.1790   20.8014 C   0  0  0  0  0  0
  -23.1249  -29.3869   22.6938 C   0  0  2  0  0  0
  -24.5148  -20.2279   18.8446 N   0  0  0  0  0  0
  -23.5390  -25.3292   21.0014 N   0  0  0  0  0  0
  -28.1114  -17.4586   20.4838 N   0  0  0  0  0  0
  -25.5679  -22.5670   21.1551 O   0  0  0  0  0  0
  -31.0620  -14.1099   19.1857 H   0  0  0  0  0  0
  -30.6079  -12.8992   20.3119 H   0  0  0  0  0  0
  -30.1471  -12.0213   18.0255 H   0  0  0  0  0  0
  -29.3480  -13.4999   17.5712 H   0  0  0  0  0  0
  -28.2970  -11.3146   19.3693 H   0  0  0  0  0  0
  -27.5151  -12.0143   17.9723 H   0  0  0  0  0  0
  -27.2686  -14.1089   19.1140 H   0  0  0  0  0  0
  -28.8063  -12.9020   21.4856 H   0  0  0  0  0  0
  -27.7647  -14.2848   21.6677 H   0  0  0  0  0  0
  -25.2626   -9.5606   22.4775 H   0  0  0  0  0  0
  -23.9925   -7.4507   22.7465 H   0  0  0  0  0  0
  -21.0722   -8.8553   19.8956 H   0  0  0  0  0  0
  -22.3478  -10.9516   19.6174 H   0  0  0  0  0  0
  -21.1940   -7.6112   23.9725 H   0  0  0  0  0  0
  -21.1502   -6.0491   25.9093 H   0  0  0  0  0  0
  -22.0608   -2.7581   23.2858 H   0  0  0  0  0  0
  -22.3715  -11.9764   22.4996 H   0  0  0  0  0  0
  -21.0659  -13.1127   22.2876 H   0  0  0  0  0  0
  -24.5346  -15.7629   20.3926 H   0  0  0  0  0  0
  -26.0541  -15.4787   19.7331 H   0  0  0  0  0  0
  -26.8104  -32.4715   22.9597 H   0  0  0  0  0  0
  -24.8247  -33.7786   24.7336 H   0  0  0  0  0  0
  -23.1291  -29.3800   20.5288 H   0  0  0  0  0  0
  -23.3725  -35.9036   23.3101 H   0  0  0  0  0  0
  -24.3425  -36.8973   22.2328 H   0  0  0  0  0  0
  -23.7039  -37.5730   23.7305 H   0  0  0  0  0  0
  -25.8112  -31.7300   19.8939 H   0  0  0  0  0  0
  -26.8215  -31.4444   21.2523 H   0  0  0  0  0  0
  -27.8481  -29.6025   21.6543 H   0  0  0  0  0  0
  -25.9586  -26.0594   20.8848 H   0  0  0  0  0  0
  -25.0174  -26.8777   18.7349 H   0  0  0  0  0  0
  -24.0419  -30.3572   19.0424 H   0  0  0  0  0  0
  -23.5467  -28.7409   18.6704 H   0  0  0  0  0  0
  -25.1443  -36.0651   25.0657 H   0  0  0  0  0  0
  -20.6721  -27.3262   24.0352 H   0  0  0  0  0  0
  -19.9264  -25.6466   23.1739 H   0  0  0  0  0  0
  -21.1509  -25.6216   22.0138 H   0  0  0  0  0  0
  -19.1608  -25.4693   20.8041 H   0  0  0  0  0  0
  -19.5714  -27.1466   20.5363 H   0  0  0  0  0  0
  -17.2666  -26.9269   21.2395 H   0  0  0  0  0  0
  -17.6814  -25.9771   22.6348 H   0  0  0  0  0  0
  -20.1915  -30.4320   24.1346 H   0  0  0  0  0  0
  -18.0031  -31.5222   24.4670 H   0  0  0  0  0  0
  -15.8726  -30.3871   23.8681 H   0  0  0  0  0  0
  -15.9854  -28.1795   22.7674 H   0  0  0  0  0  0
  -25.4584  -30.4292   26.5165 H   0  0  0  0  0  0
  -24.3421  -31.3609   25.5411 H   0  0  0  0  0  0
  -25.2853  -32.1689   26.7392 H   0  0  0  0  0  0
  -26.3790  -29.4592   24.5497 H   0  0  0  0  0  0
  -27.7954  -29.9748   25.3756 H   0  0  0  0  0  0
  -27.6651  -30.3251   23.6720 H   0  0  0  0  0  0
  -27.1773  -33.3960   26.0057 H   0  0  0  0  0  0
  -28.3729  -32.6281   24.9676 H   0  0  0  0  0  0
  -27.9205  -31.8999   26.4970 H   0  0  0  0  0  0
  -28.2347  -37.9791   24.7604 H   0  0  0  0  0  0
  -28.1044  -36.2299   24.6023 H   0  0  0  0  0  0
  -27.2256  -37.0771   25.8867 H   0  0  0  0  0  0
  -22.4535  -26.8919   24.2208 H   0  0  0  0  0  0
  -25.9823  -38.2236   24.1458 H   0  0  0  0  0  0
  -23.3409  -22.8523   18.9408 H   0  0  0  0  0  0
  -21.5157  -20.6930   17.6934 H   0  0  0  0  0  0
  -22.0130  -19.0464   17.3963 H   0  0  0  0  0  0
  -21.5959  -18.8753   19.7464 H   0  0  0  0  0  0
  -22.1148  -20.5360   20.0357 H   0  0  0  0  0  0
  -23.6883  -21.4824   17.2955 H   0  0  0  0  0  0
  -24.1060  -19.8719   16.7980 H   0  0  0  0  0  0
  -23.9460  -18.2387   19.1980 H   0  0  0  0  0  0
  -24.0759  -19.1873   20.6756 H   0  0  0  0  0  0
  -22.5912  -30.6464   24.5432 H   0  0  0  0  0  0
  -23.5913  -29.2909   24.9172 H   0  0  0  0  0  0
  -21.8705  -29.1686   24.6431 H   0  0  0  0  0  0
  -26.9936  -19.0332   21.8805 H   0  0  0  0  0  0
  -28.3178  -19.8297   21.1590 H   0  0  0  0  0  0
  -22.9698  -27.3303   19.7816 H   0  0  0  0  0  0
  -21.6468  -27.1142   20.5898 H   0  0  0  0  0  0
  -22.5678  -30.2263   22.2510 H   0  0  0  0  0  0
  -23.4932  -25.1482   22.0078 H   0  0  0  0  0  0
  -27.2815  -16.9627   20.1992 H   0  0  0  0  0  0
  1 25  1  0  0  0
  1 30  2  0  0  0
  1 85  1  0  0  0
  2  3  1  0  0  0
  2 25  1  0  0  0
  2 87  1  0  0  0
  2 88  1  0  0  0
  3  4  1  0  0  0
  3 89  1  0  0  0
  3 90  1  0  0  0
  4  5  1  0  0  0
  4 91  1  0  0  0
  4 92  1  0  0  0
  5  6  1  0  0  0
  5 26  1  0  0  0
  5 93  1  0  0  0
  6 25  1  0  0  0
  6 94  1  0  0  0
  6 95  1  0  0  0
  7  8  2  0  0  0
  7 26  1  0  0  0
  7 29  1  0  0  0
  8  9  1  0  0  0
  8 22  1  0  0  0
  9 10  1  0  0  0
  9 27  2  0  0  0
 10 11  2  0  0  0
 10 15  1  0  0  0
 11 12  1  0  0  0
 11 96  1  0  0  0
 12 13  2  0  0  0
 12 97  1  0  0  0
 13 14  1  0  0  0
 13 31  1  0  0  0
 14 15  2  0  0  0
 14 98  1  0  0  0
 15 99  1  0  0  0
 16 17  2  0  0  0
 16 21  1  0  0  0
 16 31  1  0  0  0
 17 18  1  0  0  0
 17100  1  0  0  0
 18 19  2  0  0  0
 18101  1  0  0  0
 19 20  1  0  0  0
 19 24  1  0  0  0
 20 21  2  0  0  0
 20102  1  0  0  0
 21 23  1  0  0  0
 22 28  1  0  0  0
 22 32  2  0  0  0
 26 27  1  0  0  0
 28103  1  0  0  0
 28104  1  0  0  0
 29105  1  0  0  0
 29106  1  0  0  0
 33 34  1  0  0  0
 33 66  1  0  0  0
 33 70  2  0  0  0
 34 36  1  0  0  0
 34 59  1  0  0  0
 34107  1  0  0  0
 35 44  2  0  0  0
 35 45  1  0  0  0
 35 68  1  0  0  0
 36 56  1  0  0  0
 36108  1  0  0  0
 37 39  1  0  0  0
 37 47  1  0  0  0
 37 66  1  0  0  0
 37109  1  0  0  0
 38 43  2  0  0  0
 38 46  1  0  0  0
 38 47  1  0  0  0
 39 64  1  0  0  0
 39 67  2  0  0  0
 40 52  1  0  0  0
 40 53  2  0  0  0
 40 58  1  0  0  0
 41110  1  0  0  0
 41111  1  0  0  0
 41112  1  0  0  0
 41 48  1  0  0  0
 42 43  1  0  0  0
 42 66  1  0  0  0
 42113  1  0  0  0
 42114  1  0  0  0
 43 44  1  0  0  0
 44115  1  0  0  0
 45 46  2  0  0  0
 45116  1  0  0  0
 46117  1  0  0  0
 47118  1  0  0  0
 47119  1  0  0  0
 48 56  1  0  0  0
 48 65  1  0  0  0
 48120  1  0  0  0
 49 50  1  0  0  0
 49 53  1  0  0  0
 49 64  1  0  0  0
 49121  1  0  0  0
 50 51  1  0  0  0
 50122  1  0  0  0
 50123  1  0  0  0
 51 52  1  0  0  0
 51124  1  0  0  0
 51125  1  0  0  0
 52126  1  0  0  0
 52127  1  0  0  0
 53 54  1  0  0  0
 54 55  2  0  0  0
 54128  1  0  0  0
 55 57  1  0  0  0
 55129  1  0  0  0
 56 69  2  0  0  0
 57 58  2  0  0  0
 57130  1  0  0  0
 58131  1  0  0  0
 59 60  1  0  0  0
 59 61  1  0  0  0
 59 62  1  0  0  0
 60132  1  0  0  0
 60133  1  0  0  0
 60134  1  0  0  0
 61135  1  0  0  0
 61136  1  0  0  0
 61137  1  0  0  0
 62138  1  0  0  0
 62139  1  0  0  0
 62140  1  0  0  0
 63 65  1  0  0  0
 63141  1  0  0  0
 63142  1  0  0  0
 63143  1  0  0  0
 64144  1  0  0  0
 65145  1  0  0  0
 68 82  1  0  0  0
 71 72  1  0  0  0
 71 74  2  0  0  0
 71146  1  0  0  0
 72 73  2  0  0  0
 72 83  1  0  0  0
 73 80  1  0  0  0
 73 86  1  0  0  0
 74 84  1  0  0  0
 74 86  1  0  0  0
 75 76  1  0  0  0
 75 77  1  0  0  0
 75147  1  0  0  0
 75148  1  0  0  0
 76 78  1  0  0  0
 76149  1  0  0  0
 76150  1  0  0  0
 77 83  1  0  0  0
 77151  1  0  0  0
 77152  1  0  0  0
 78 83  1  0  0  0
 78153  1  0  0  0
 78154  1  0  0  0
 79155  1  0  0  0
 79156  1  0  0  0
 79157  1  0  0  0
 79 82  1  0  0  0
 80 85  1  0  0  0
 80158  1  0  0  0
 80159  1  0  0  0
 81 82  1  0  0  0
 81 84  1  0  0  0
 81160  1  0  0  0
 81161  1  0  0  0
 82162  1  0  0  0
 84163  1  0  0  0
 85164  1  0  0  0
M  ISO  4   1 100  68 101  82 101  85 100
M  END
> <chiral flag>
0

> <version>
0

> <s_m_source_file>
/data/baiqing/PycharmProjects/Reinvent-master-3.2/result/LINK_invent/BTK/process_docking_weight1_custom_product_contain_oxygen_bond_distance_aromatic_linkinvent_7_9_3/rearranged_h_0158.sdf

> <i_m_source_file_index>
68

> <r_mmod_Potential_Energy-OPLS-2005>
20551.896484375

> <r_mmod_Stretch_Energy-OPLS-2005>
8957.365234375

> <r_mmod_Bend_Energy-OPLS-2005>
2252.87377929688

> <r_mmod_Torsional_Energy-OPLS-2005>
755.891052246094

> <r_mmod_Improper_Torsional_Energy-OPLS-2005>
119.895706176758

> <r_mmod_Van_der_Waal_Energy-OPLS-2005>
2449.7255859375

> <r_mmod_Electrostatic_Energy-OPLS-2005>
-397.914276123047

> <r_mmod_Solvation_Energy-OPLS-2005>
-237.696166992188

> <b_mmod_Minimization_Converged-OPLS-2005>
0

> <r_mmod_RMS_Derivative-OPLS-2005>
19.6427192687988

$$$$
68
                    3D
 Structure written by MMmdl.
155163  0  0  1  0            999 V2000
  -30.6439  -14.5700   20.4965 C   0  0  0  0  0  0
  -30.4306  -12.3439   19.4502 C   0  0  0  0  0  0
  -29.5039  -12.4933   18.2228 C   0  0  0  0  0  0
  -28.0226  -12.3530   18.6307 C   0  0  0  0  0  0
  -27.6538  -13.2037   19.8748 C   0  0  2  0  0  0
  -28.6987  -13.0346   21.0015 C   0  0  0  0  0  0
  -25.2556  -13.8148   20.5697 C   0  0  0  0  0  0
  -24.1811  -13.0424   20.9186 C   0  0  0  0  0  0
  -24.6365  -11.6896   20.8751 C   0  0  0  0  0  0
  -23.9034  -10.4288   21.0417 C   0  0  0  0  0  0
  -24.3596   -9.4204   21.9190 C   0  0  0  0  0  0
  -23.6283   -8.2236   22.0758 C   0  0  0  0  0  0
  -22.4261   -8.0278   21.3550 C   0  0  0  0  0  0
  -21.9884   -9.0249   20.4648 C   0  0  0  0  0  0
  -22.7212  -10.2131   20.3064 C   0  0  0  0  0  0
  -21.6846   -6.0736   22.5279 C   0  0  0  0  0  0
  -21.4015   -6.5638   23.8212 C   0  0  0  0  0  0
  -21.3663   -5.6791   24.9174 C   0  0  0  0  0  0
  -21.6044   -4.3056   24.7224 C   0  0  0  0  0  0
  -21.8817   -3.8146   23.4342 C   0  0  0  0  0  0
  -21.9189   -4.6965   22.3402 C   0  0  0  0  0  0
  -22.7835  -13.5228   21.1845 C   0  0  0  0  0  0
  -22.1662   -4.2155   21.0979 F   0  0  0  0  0  0
  -21.5626   -3.4543   25.7736 F   0  0  0  0  0  0
  -30.0232  -13.3536   20.4436 N   0  0  0  0  0  0
  -26.2976  -12.9297   20.3380 N   0  0  0  0  0  0
  -25.9289  -11.6466   20.5785 N   0  0  0  0  0  0
  -22.0467  -12.8232   22.0402 N   0  0  0  0  0  0
  -25.4292  -15.1870   20.4109 N   0  0  0  0  0  0
  -31.7949  -14.7355   20.0780 O   0  0  0  0  0  0
  -21.6632   -6.8873   21.4239 O   0  0  0  0  0  0
  -22.3535  -14.5548   20.6701 O   0  0  0  0  0  0
  -24.6190  -31.8637   23.2056 C   0  0  0  0  0  0
  -25.9071  -32.4797   23.8360 C   0  0  1  0  0  0
  -27.2362  -27.3851   20.0980 C   0  0  0  0  0  0
  -25.5911  -33.8595   24.2297 N   0  0  0  0  0  0
  -23.4089  -30.4867   21.5464 C   0  0  2  0  0  0
  -24.8545  -28.9448   20.1109 C   0  0  0  0  0  0
  -22.7429  -29.4643   22.4960 C   0  0  0  0  0  0
  -18.0278  -28.1379   22.8487 C   0  0  0  0  0  0
  -24.1486  -36.7306   23.2639 C   0  0  0  0  0  0
  -25.9420  -30.8122   21.3663 C   0  0  0  0  0  0
  -26.0158  -29.4424   20.7127 C   0  0  0  0  0  0
  -27.2034  -28.6690   20.7053 C   0  0  0  0  0  0
  -26.0506  -26.9120   19.4899 C   0  0  0  0  0  0
  -24.8692  -27.6801   19.4979 C   0  0  0  0  0  0
  -23.6194  -29.8181   20.1613 C   0  0  0  0  0  0
  -25.4109  -36.3098   24.0334 C   0  0  1  0  0  0
  -20.5870  -28.3671   23.1302 C   0  0  2  0  0  0
  -20.6769  -26.9402   22.5411 C   0  0  0  0  0  0
  -19.5747  -26.6384   21.5209 C   0  0  0  0  0  0
  -18.1926  -26.7925   22.1619 C   0  0  0  0  0  0
  -19.1527  -28.8841   23.2893 C   0  0  0  0  0  0
  -18.9458  -30.1447   23.8907 C   0  0  0  0  0  0
  -17.6459  -30.6582   24.0567 C   0  0  0  0  0  0
  -25.9042  -34.9466   23.5116 C   0  0  0  0  0  0
  -16.5350  -29.9085   23.6328 C   0  0  0  0  0  0
  -16.7268  -28.6502   23.0349 C   0  0  0  0  0  0
  -26.4484  -31.6593   25.0708 C   0  0  0  0  0  0
  -25.3749  -31.3714   26.1458 C   0  0  0  0  0  0
  -27.0314  -30.3026   24.6113 C   0  0  0  0  0  0
  -27.6047  -32.4322   25.7475 C   0  0  0  0  0  0
  -27.5581  -37.1810   24.8467 C   0  0  0  0  0  0
  -21.4151  -29.3031   22.3700 N   0  0  0  0  0  0
  -26.4291  -37.3787   23.9407 N   0  0  0  0  0  0
  -24.6752  -31.0701   22.0972 N   0  0  0  0  0  0
  -23.4182  -28.8188   23.3021 O   0  0  0  0  0  0
  -28.4067  -26.6347   20.1553 O   0  0  0  0  0  0
  -26.5609  -34.8927   22.4683 O   0  0  0  0  0  0
  -23.5376  -32.1406   23.7431 O   0  0  0  0  0  0
  -28.5591  -17.7854   18.1752 C   0  0  0  0  0  0
  -28.7270  -19.0628   18.7244 C   0  0  0  0  0  0
  -29.0069  -16.6686   18.9000 C   0  0  0  0  0  0
  -29.3414  -19.1742   19.9795 C   0  0  0  0  0  0
  -29.6095  -16.8222   20.1685 C   0  0  0  0  0  0
  -29.6908  -20.5160   20.5273 C   0  0  0  0  0  0
  -28.2885  -24.0785   20.0949 C   0  0  0  0  0  0
  -29.3610  -22.9528   20.3013 C   0  0  0  0  0  0
  -28.5894  -25.4281   19.3607 C   0  0  0  0  0  0
  -29.7760  -18.0811   20.6910 N   0  0  0  0  0  0
  -30.6413  -23.3197   20.4780 N   0  3  0  0  0  0
  -29.8755  -15.6138   20.9065 N   0  0  0  0  0  0
  -30.8084  -20.5489   21.2655 N   0  3  0  0  0  0
  -28.9594  -21.6421   20.2587 N   0  0  0  0  0  0
  -27.1373  -23.8411   20.4792 O   0  0  0  0  0  0
  -31.4758  -12.4492   19.1532 H   0  0  0  0  0  0
  -30.3458  -11.3444   19.8788 H   0  0  0  0  0  0
  -29.7544  -11.7440   17.4703 H   0  0  0  0  0  0
  -29.6680  -13.4629   17.7499 H   0  0  0  0  0  0
  -27.8369  -11.2979   18.8382 H   0  0  0  0  0  0
  -27.3748  -12.6142   17.7929 H   0  0  0  0  0  0
  -27.6722  -14.2424   19.5575 H   0  0  0  0  0  0
  -28.6906  -12.0090   21.3734 H   0  0  0  0  0  0
  -28.4519  -13.6597   21.8616 H   0  0  0  0  0  0
  -25.2748   -9.5691   22.4751 H   0  0  0  0  0  0
  -24.0015   -7.4618   22.7459 H   0  0  0  0  0  0
  -21.0822   -8.8749   19.8946 H   0  0  0  0  0  0
  -22.3670  -10.9661   19.6166 H   0  0  0  0  0  0
  -21.2015   -7.6147   23.9722 H   0  0  0  0  0  0
  -21.1486   -6.0521   25.9077 H   0  0  0  0  0  0
  -22.0597   -2.7610   23.2837 H   0  0  0  0  0  0
  -22.4071  -11.9898   22.4814 H   0  0  0  0  0  0
  -21.1086  -13.1267   22.2600 H   0  0  0  0  0  0
  -24.6605  -15.8407   20.5149 H   0  0  0  0  0  0
  -26.2770  -15.6270   20.0782 H   0  0  0  0  0  0
  -26.7137  -32.5487   23.1112 H   0  0  0  0  0  0
  -25.0071  -33.9740   25.0450 H   0  0  0  0  0  0
  -22.7003  -31.3057   21.4049 H   0  0  0  0  0  0
  -23.3744  -35.9643   23.3309 H   0  0  0  0  0  0
  -24.3580  -36.8913   22.2052 H   0  0  0  0  0  0
  -23.7242  -37.6514   23.6647 H   0  0  0  0  0  0
  -26.0652  -31.5759   20.5971 H   0  0  0  0  0  0
  -26.8271  -30.8631   21.9889 H   0  0  0  0  0  0
  -28.0972  -29.0511   21.1784 H   0  0  0  0  0  0
  -26.0066  -25.9385   19.0260 H   0  0  0  0  0  0
  -23.9740  -27.2866   19.0358 H   0  0  0  0  0  0
  -23.7348  -30.5937   19.4029 H   0  0  0  0  0  0
  -22.7407  -29.2436   19.8619 H   0  0  0  0  0  0
  -25.1287  -36.1960   25.0826 H   0  0  0  0  0  0
  -20.9969  -28.3247   24.1419 H   0  0  0  0  0  0
  -20.5665  -26.2280   23.3607 H   0  0  0  0  0  0
  -21.6640  -26.7440   22.1210 H   0  0  0  0  0  0
  -19.6910  -25.6297   21.1234 H   0  0  0  0  0  0
  -19.6687  -27.3200   20.6745 H   0  0  0  0  0  0
  -17.4196  -26.6676   21.4024 H   0  0  0  0  0  0
  -18.0327  -26.0064   22.9012 H   0  0  0  0  0  0
  -19.7937  -30.7261   24.2277 H   0  0  0  0  0  0
  -17.5018  -31.6264   24.5167 H   0  0  0  0  0  0
  -15.5353  -30.2992   23.7644 H   0  0  0  0  0  0
  -15.8668  -28.0825   22.7059 H   0  0  0  0  0  0
  -24.5908  -30.7074   25.7809 H   0  0  0  0  0  0
  -24.8959  -32.2877   26.4919 H   0  0  0  0  0  0
  -25.8108  -30.8877   27.0208 H   0  0  0  0  0  0
  -26.2856  -29.6782   24.1176 H   0  0  0  0  0  0
  -27.4080  -29.7273   25.4581 H   0  0  0  0  0  0
  -27.8699  -30.4329   23.9266 H   0  0  0  0  0  0
  -27.2652  -33.3611   26.2073 H   0  0  0  0  0  0
  -28.3847  -32.6908   25.0301 H   0  0  0  0  0  0
  -28.0728  -31.8439   26.5379 H   0  0  0  0  0  0
  -28.2608  -38.0097   24.7506 H   0  0  0  0  0  0
  -28.1066  -36.2632   24.6301 H   0  0  0  0  0  0
  -27.2301  -37.1475   25.8871 H   0  0  0  0  0  0
  -20.9317  -29.8749   21.6916 H   0  0  0  0  0  0
  -26.0183  -38.2865   24.1401 H   0  0  0  0  0  0
  -28.0959  -17.6587   17.2068 H   0  0  0  0  0  0
  -28.4221  -19.9351   18.1644 H   0  0  0  0  0  0
  -28.8655  -15.6932   18.4590 H   0  0  0  0  0  0
  -28.0011  -25.4739   18.4454 H   0  0  0  0  0  0
  -29.6253  -25.4167   19.0256 H   0  0  0  0  0  0
  -30.9012  -24.2811   20.5868 H   0  0  0  0  0  0
  -31.3742  -22.6396   20.5497 H   0  0  0  0  0  0
  -29.0816  -15.3043   21.4443 H   0  0  0  0  0  0
  -30.7465  -20.8937   22.2122 H   0  0  0  0  0  0
  -31.2085  -19.6140   21.2354 H   0  0  0  0  0  0
  -28.0049  -21.4981   19.9648 H   0  0  0  0  0  0
  1 25  1  0  0  0
  1 30  2  0  0  0
  1 82  1  0  0  0
  2  3  1  0  0  0
  2 25  1  0  0  0
  2 86  1  0  0  0
  2 87  1  0  0  0
  3  4  1  0  0  0
  3 88  1  0  0  0
  3 89  1  0  0  0
  4  5  1  0  0  0
  4 90  1  0  0  0
  4 91  1  0  0  0
  5  6  1  0  0  0
  5 26  1  0  0  0
  5 92  1  0  0  0
  6 25  1  0  0  0
  6 93  1  0  0  0
  6 94  1  0  0  0
  7  8  2  0  0  0
  7 26  1  0  0  0
  7 29  1  0  0  0
  8  9  1  0  0  0
  8 22  1  0  0  0
  9 10  1  0  0  0
  9 27  2  0  0  0
 10 11  2  0  0  0
 10 15  1  0  0  0
 11 12  1  0  0  0
 11 95  1  0  0  0
 12 13  2  0  0  0
 12 96  1  0  0  0
 13 14  1  0  0  0
 13 31  1  0  0  0
 14 15  2  0  0  0
 14 97  1  0  0  0
 15 98  1  0  0  0
 16 17  2  0  0  0
 16 21  1  0  0  0
 16 31  1  0  0  0
 17 18  1  0  0  0
 17 99  1  0  0  0
 18 19  2  0  0  0
 18100  1  0  0  0
 19 20  1  0  0  0
 19 24  1  0  0  0
 20 21  2  0  0  0
 20101  1  0  0  0
 21 23  1  0  0  0
 22 28  1  0  0  0
 22 32  2  0  0  0
 26 27  1  0  0  0
 28102  1  0  0  0
 28103  1  0  0  0
 29104  1  0  0  0
 29105  1  0  0  0
 33 34  1  0  0  0
 33 66  1  0  0  0
 33 70  2  0  0  0
 34 36  1  0  0  0
 34 59  1  0  0  0
 34106  1  0  0  0
 35 44  2  0  0  0
 35 45  1  0  0  0
 35 68  1  0  0  0
 36 56  1  0  0  0
 36107  1  0  0  0
 37 39  1  0  0  0
 37 47  1  0  0  0
 37 66  1  0  0  0
 37108  1  0  0  0
 38 43  2  0  0  0
 38 46  1  0  0  0
 38 47  1  0  0  0
 39 64  1  0  0  0
 39 67  2  0  0  0
 40 52  1  0  0  0
 40 53  2  0  0  0
 40 58  1  0  0  0
 41109  1  0  0  0
 41110  1  0  0  0
 41111  1  0  0  0
 41 48  1  0  0  0
 42 43  1  0  0  0
 42 66  1  0  0  0
 42112  1  0  0  0
 42113  1  0  0  0
 43 44  1  0  0  0
 44114  1  0  0  0
 45 46  2  0  0  0
 45115  1  0  0  0
 46116  1  0  0  0
 47117  1  0  0  0
 47118  1  0  0  0
 48 56  1  0  0  0
 48 65  1  0  0  0
 48119  1  0  0  0
 49 50  1  0  0  0
 49 53  1  0  0  0
 49 64  1  0  0  0
 49120  1  0  0  0
 50 51  1  0  0  0
 50121  1  0  0  0
 50122  1  0  0  0
 51 52  1  0  0  0
 51123  1  0  0  0
 51124  1  0  0  0
 52125  1  0  0  0
 52126  1  0  0  0
 53 54  1  0  0  0
 54 55  2  0  0  0
 54127  1  0  0  0
 55 57  1  0  0  0
 55128  1  0  0  0
 56 69  2  0  0  0
 57 58  2  0  0  0
 57129  1  0  0  0
 58130  1  0  0  0
 59 60  1  0  0  0
 59 61  1  0  0  0
 59 62  1  0  0  0
 60131  1  0  0  0
 60132  1  0  0  0
 60133  1  0  0  0
 61134  1  0  0  0
 61135  1  0  0  0
 61136  1  0  0  0
 62137  1  0  0  0
 62138  1  0  0  0
 62139  1  0  0  0
 63 65  1  0  0  0
 63140  1  0  0  0
 63141  1  0  0  0
 63142  1  0  0  0
 64143  1  0  0  0
 65144  1  0  0  0
 68 79  1  0  0  0
 71 72  2  0  0  0
 71 73  1  0  0  0
 71145  1  0  0  0
 72 74  1  0  0  0
 72146  1  0  0  0
 73 75  2  0  0  0
 73147  1  0  0  0
 74 76  1  0  0  0
 74 80  2  0  0  0
 75 80  1  0  0  0
 75 82  1  0  0  0
 76 83  2  0  0  0
 76 84  1  0  0  0
 77 78  1  0  0  0
 77 79  1  0  0  0
 77 85  2  0  0  0
 78 81  2  0  0  0
 78 84  1  0  0  0
 79148  1  0  0  0
 79149  1  0  0  0
 81150  1  0  0  0
 81151  1  0  0  0
 82152  1  0  0  0
 83153  1  0  0  0
 83154  1  0  0  0
 84155  1  0  0  0
M  CHG  2  81   1  83   1
M  ISO  4   1 100  68 101  79 101  82 100
M  END
> <chiral flag>
0

> <version>
0

> <s_m_source_file>
/data/baiqing/PycharmProjects/Reinvent-master-3.2/result/LINK_invent/BTK/process_docking_weight1_custom_product_contain_oxygen_bond_distance_aromatic_linkinvent_7_9_3/rearranged_h_0158.sdf

> <i_m_source_file_index>
69

> <r_mmod_Potential_Energy-OPLS-2005>
-877.2626953125

> <r_mmod_Stretch_Energy-OPLS-2005>
56.3791007995605

> <r_mmod_Bend_Energy-OPLS-2005>
135.789794921875

> <r_mmod_Torsional_Energy-OPLS-2005>
297.39404296875

> <r_mmod_Improper_Torsional_Energy-OPLS-2005>
12.7442378997803

> <r_mmod_Van_der_Waal_Energy-OPLS-2005>
154.259475708008

> <r_mmod_Electrostatic_Energy-OPLS-2005>
-375.050964355469

> <r_mmod_Solvation_Energy-OPLS-2005>
-1185.60229492188

> <b_mmod_Minimization_Converged-OPLS-2005>
0

> <r_mmod_RMS_Derivative-OPLS-2005>
1.42689168453217

$$$$
69
                    3D
 Structure written by MMmdl.
159168  0  0  1  0            999 V2000
  -30.5993  -14.5988   20.5187 C   0  0  0  0  0  0
  -30.4469  -12.3715   19.4329 C   0  0  0  0  0  0
  -29.5063  -12.5016   18.2132 C   0  0  0  0  0  0
  -28.0271  -12.3407   18.6252 C   0  0  0  0  0  0
  -27.6548  -13.1982   19.8629 C   0  0  2  0  0  0
  -28.6994  -13.0130   20.9873 C   0  0  0  0  0  0
  -25.2572  -13.8119   20.5647 C   0  0  0  0  0  0
  -24.1834  -13.0419   20.9211 C   0  0  0  0  0  0
  -24.6375  -11.6885   20.8752 C   0  0  0  0  0  0
  -23.9040  -10.4281   21.0412 C   0  0  0  0  0  0
  -24.3600   -9.4199   21.9183 C   0  0  0  0  0  0
  -23.6280   -8.2235   22.0752 C   0  0  0  0  0  0
  -22.4261   -8.0275   21.3544 C   0  0  0  0  0  0
  -21.9891   -9.0248   20.4648 C   0  0  0  0  0  0
  -22.7217  -10.2127   20.3058 C   0  0  0  0  0  0
  -21.6849   -6.0726   22.5273 C   0  0  0  0  0  0
  -21.4013   -6.5628   23.8207 C   0  0  0  0  0  0
  -21.3659   -5.6783   24.9170 C   0  0  0  0  0  0
  -21.6043   -4.3046   24.7220 C   0  0  0  0  0  0
  -21.8822   -3.8138   23.4342 C   0  0  0  0  0  0
  -21.9192   -4.6955   22.3398 C   0  0  0  0  0  0
  -22.7863  -13.5239   21.1865 C   0  0  0  0  0  0
  -22.1665   -4.2141   21.0975 F   0  0  0  0  0  0
  -21.5628   -3.4532   25.7735 F   0  0  0  0  0  0
  -30.0175  -13.3650   20.4316 N   0  0  0  0  0  0
  -26.2978  -12.9263   20.3280 N   0  0  0  0  0  0
  -25.9287  -11.6444   20.5739 N   0  0  0  0  0  0
  -22.0487  -12.8249   22.0419 N   0  0  0  0  0  0
  -25.4290  -15.1828   20.3959 N   0  0  0  0  0  0
  -31.7622  -14.8073   20.1577 O   0  0  0  0  0  0
  -21.6631   -6.8870   21.4236 O   0  0  0  0  0  0
  -22.3570  -14.5548   20.6701 O   0  0  0  0  0  0
  -24.6202  -31.8627   23.2023 C   0  0  0  0  0  0
  -25.9070  -32.4794   23.8347 C   0  0  1  0  0  0
  -27.2398  -27.3658   20.1204 C   0  0  0  0  0  0
  -25.5906  -33.8592   24.2290 N   0  0  0  0  0  0
  -23.4115  -30.4813   21.5448 C   0  0  2  0  0  0
  -24.8582  -28.9240   20.1256 C   0  0  0  0  0  0
  -22.7437  -29.4633   22.4976 C   0  0  0  0  0  0
  -18.0279  -28.1384   22.8493 C   0  0  0  0  0  0
  -24.1485  -36.7295   23.2636 C   0  0  0  0  0  0
  -25.9441  -30.8074   21.3622 C   0  0  0  0  0  0
  -26.0206  -29.4315   20.7181 C   0  0  0  0  0  0
  -27.2134  -28.6641   20.6997 C   0  0  0  0  0  0
  -26.0553  -26.8769   19.5324 C   0  0  0  0  0  0
  -24.8735  -27.6492   19.5287 C   0  0  0  0  0  0
  -23.6246  -29.8022   20.1644 C   0  0  0  0  0  0
  -25.4108  -36.3096   24.0337 C   0  0  1  0  0  0
  -20.5870  -28.3679   23.1308 C   0  0  2  0  0  0
  -20.6767  -26.9409   22.5415 C   0  0  0  0  0  0
  -19.5743  -26.6389   21.5215 C   0  0  0  0  0  0
  -18.1926  -26.7929   22.1631 C   0  0  0  0  0  0
  -19.1528  -28.8849   23.2897 C   0  0  0  0  0  0
  -18.9457  -30.1454   23.8910 C   0  0  0  0  0  0
  -17.6457  -30.6588   24.0569 C   0  0  0  0  0  0
  -25.9042  -34.9463   23.5115 C   0  0  0  0  0  0
  -16.5349  -29.9091   23.6324 C   0  0  0  0  0  0
  -16.7265  -28.6507   23.0347 C   0  0  0  0  0  0
  -26.4477  -31.6587   25.0697 C   0  0  0  0  0  0
  -25.3738  -31.3723   26.1449 C   0  0  0  0  0  0
  -27.0294  -30.3018   24.6097 C   0  0  0  0  0  0
  -27.6054  -32.4309   25.7460 C   0  0  0  0  0  0
  -27.5588  -37.1795   24.8463 C   0  0  0  0  0  0
  -21.4158  -29.3036   22.3711 N   0  0  0  0  0  0
  -26.4290  -37.3789   23.9422 N   0  0  0  0  0  0
  -24.6773  -31.0671   22.0947 N   0  0  0  0  0  0
  -23.4181  -28.8184   23.3050 O   0  0  0  0  0  0
  -28.4374  -26.6666   20.0391 O   0  0  0  0  0  0
  -26.5609  -34.8929   22.4680 O   0  0  0  0  0  0
  -23.5382  -32.1403   23.7389 O   0  0  0  0  0  0
  -28.5573  -17.7721   20.7962 C   0  0  0  0  0  0
  -30.9585  -17.8070   21.0043 C   0  0  0  0  0  0
  -29.6681  -19.9285   21.2644 C   0  0  0  0  0  0
  -29.7765  -17.0435   20.8452 C   0  0  0  0  0  0
  -28.4972  -19.1801   20.9897 C   0  0  0  0  0  0
  -30.9036  -19.2148   21.2169 C   0  0  0  0  0  0
  -28.4060  -24.1463   19.4794 C   0  0  0  0  0  0
  -29.5923  -21.3046   21.8741 C   0  0  0  0  0  0
  -28.5189  -22.6696   19.9994 C   0  0  0  0  0  0
  -28.0187  -24.8514   21.8258 C   0  0  0  0  0  0
  -28.7922  -23.6238   22.3701 C   0  0  0  0  0  0
  -28.6325  -25.2847   20.5001 C   0  0  2  0  0  0
  -28.9920  -22.4691   21.4145 N   0  0  0  0  0  0
  -29.7146  -15.5912   20.8227 N   0  0  0  0  0  0
  -30.1740  -21.4008   23.0757 N   0  3  0  0  0  0
  -28.1554  -24.3860   18.2947 O   0  0  0  0  0  0
  -27.2840  -19.7863   21.0084 F   0  0  0  0  0  0
  -32.0674  -19.8672   21.4624 F   0  0  0  0  0  0
  -31.4844  -12.5190   19.1277 H   0  0  0  0  0  0
  -30.3977  -11.3666   19.8553 H   0  0  0  0  0  0
  -29.7660  -11.7582   17.4581 H   0  0  0  0  0  0
  -29.6494  -13.4756   17.7426 H   0  0  0  0  0  0
  -27.8568  -11.2859   18.8440 H   0  0  0  0  0  0
  -27.3742  -12.5855   17.7870 H   0  0  0  0  0  0
  -27.6816  -14.2367   19.5345 H   0  0  0  0  0  0
  -28.7062  -11.9783   21.3336 H   0  0  0  0  0  0
  -28.4467  -13.6108   21.8648 H   0  0  0  0  0  0
  -25.2747   -9.5674   22.4757 H   0  0  0  0  0  0
  -23.9989   -7.4623   22.7469 H   0  0  0  0  0  0
  -21.0822   -8.8764   19.8956 H   0  0  0  0  0  0
  -22.3674  -10.9665   19.6170 H   0  0  0  0  0  0
  -21.2007   -7.6136   23.9708 H   0  0  0  0  0  0
  -21.1478   -6.0511   25.9071 H   0  0  0  0  0  0
  -22.0603   -2.7600   23.2841 H   0  0  0  0  0  0
  -22.4080  -11.9904   22.4814 H   0  0  0  0  0  0
  -21.1109  -13.1290   22.2615 H   0  0  0  0  0  0
  -24.6379  -15.8147   20.4575 H   0  0  0  0  0  0
  -26.2125  -15.5832   19.8988 H   0  0  0  0  0  0
  -26.7135  -32.5486   23.1101 H   0  0  0  0  0  0
  -25.0076  -33.9738   25.0450 H   0  0  0  0  0  0
  -22.7032  -31.2993   21.3977 H   0  0  0  0  0  0
  -23.3757  -35.9615   23.3288 H   0  0  0  0  0  0
  -24.3583  -36.8921   22.2052 H   0  0  0  0  0  0
  -23.7220  -37.6491   23.6654 H   0  0  0  0  0  0
  -26.0600  -31.5660   20.5871 H   0  0  0  0  0  0
  -26.8304  -30.8676   21.9819 H   0  0  0  0  0  0
  -28.1185  -29.0652   21.1338 H   0  0  0  0  0  0
  -26.0465  -25.9094   19.0520 H   0  0  0  0  0  0
  -23.9804  -27.2547   19.0638 H   0  0  0  0  0  0
  -23.7427  -30.5708   19.3998 H   0  0  0  0  0  0
  -22.7461  -29.2269   19.8674 H   0  0  0  0  0  0
  -25.1280  -36.1953   25.0827 H   0  0  0  0  0  0
  -20.9962  -28.3250   24.1428 H   0  0  0  0  0  0
  -20.5679  -26.2285   23.3606 H   0  0  0  0  0  0
  -21.6639  -26.7456   22.1206 H   0  0  0  0  0  0
  -19.6905  -25.6304   21.1236 H   0  0  0  0  0  0
  -19.6674  -27.3207   20.6749 H   0  0  0  0  0  0
  -17.4190  -26.6671   21.4038 H   0  0  0  0  0  0
  -18.0333  -26.0074   22.9032 H   0  0  0  0  0  0
  -19.7933  -30.7272   24.2281 H   0  0  0  0  0  0
  -17.5011  -31.6269   24.5170 H   0  0  0  0  0  0
  -15.5352  -30.3000   23.7641 H   0  0  0  0  0  0
  -15.8663  -28.0832   22.7056 H   0  0  0  0  0  0
  -24.5887  -30.7095   25.7794 H   0  0  0  0  0  0
  -24.8961  -32.2894   26.4907 H   0  0  0  0  0  0
  -25.8086  -30.8880   27.0202 H   0  0  0  0  0  0
  -26.2833  -29.6789   24.1152 H   0  0  0  0  0  0
  -27.4047  -29.7250   25.4561 H   0  0  0  0  0  0
  -27.8677  -30.4312   23.9249 H   0  0  0  0  0  0
  -27.2680  -33.3616   26.2030 H   0  0  0  0  0  0
  -28.3866  -32.6858   25.0287 H   0  0  0  0  0  0
  -28.0711  -31.8434   26.5383 H   0  0  0  0  0  0
  -28.2589  -38.0111   24.7558 H   0  0  0  0  0  0
  -28.1105  -36.2651   24.6229 H   0  0  0  0  0  0
  -27.2317  -37.1375   25.8867 H   0  0  0  0  0  0
  -20.9334  -29.8749   21.6915 H   0  0  0  0  0  0
  -26.0177  -38.2861   24.1451 H   0  0  0  0  0  0
  -27.6239  -17.2459   20.6646 H   0  0  0  0  0  0
  -31.9195  -17.3157   21.0412 H   0  0  0  0  0  0
  -29.1918  -22.1431   19.3218 H   0  0  0  0  0  0
  -27.5420  -22.1988   19.8868 H   0  0  0  0  0  0
  -28.1005  -25.6663   22.5451 H   0  0  0  0  0  0
  -26.9534  -24.6387   21.7222 H   0  0  0  0  0  0
  -28.2676  -23.2718   23.2614 H   0  0  0  0  0  0
  -29.7695  -23.9751   22.7085 H   0  0  0  0  0  0
  -29.7106  -25.2629   20.6611 H   0  0  0  0  0  0
  -28.7971  -15.2156   21.0018 H   0  0  0  0  0  0
  -30.6560  -20.6013   23.4589 H   0  0  0  0  0  0
  -30.2618  -22.2754   23.5624 H   0  0  0  0  0  0
  1 25  1  0  0  0
  1 30  2  0  0  0
  1 84  1  0  0  0
  2  3  1  0  0  0
  2 25  1  0  0  0
  2 89  1  0  0  0
  2 90  1  0  0  0
  3  4  1  0  0  0
  3 91  1  0  0  0
  3 92  1  0  0  0
  4  5  1  0  0  0
  4 93  1  0  0  0
  4 94  1  0  0  0
  5  6  1  0  0  0
  5 26  1  0  0  0
  5 95  1  0  0  0
  6 25  1  0  0  0
  6 96  1  0  0  0
  6 97  1  0  0  0
  7  8  2  0  0  0
  7 26  1  0  0  0
  7 29  1  0  0  0
  8  9  1  0  0  0
  8 22  1  0  0  0
  9 10  1  0  0  0
  9 27  2  0  0  0
 10 11  2  0  0  0
 10 15  1  0  0  0
 11 12  1  0  0  0
 11 98  1  0  0  0
 12 13  2  0  0  0
 12 99  1  0  0  0
 13 14  1  0  0  0
 13 31  1  0  0  0
 14 15  2  0  0  0
 14100  1  0  0  0
 15101  1  0  0  0
 16 17  2  0  0  0
 16 21  1  0  0  0
 16 31  1  0  0  0
 17 18  1  0  0  0
 17102  1  0  0  0
 18 19  2  0  0  0
 18103  1  0  0  0
 19 20  1  0  0  0
 19 24  1  0  0  0
 20 21  2  0  0  0
 20104  1  0  0  0
 21 23  1  0  0  0
 22 28  1  0  0  0
 22 32  2  0  0  0
 26 27  1  0  0  0
 28105  1  0  0  0
 28106  1  0  0  0
 29107  1  0  0  0
 29108  1  0  0  0
 33 34  1  0  0  0
 33 66  1  0  0  0
 33 70  2  0  0  0
 34 36  1  0  0  0
 34 59  1  0  0  0
 34109  1  0  0  0
 35 44  2  0  0  0
 35 45  1  0  0  0
 35 68  1  0  0  0
 36 56  1  0  0  0
 36110  1  0  0  0
 37 39  1  0  0  0
 37 47  1  0  0  0
 37 66  1  0  0  0
 37111  1  0  0  0
 38 43  2  0  0  0
 38 46  1  0  0  0
 38 47  1  0  0  0
 39 64  1  0  0  0
 39 67  2  0  0  0
 40 52  1  0  0  0
 40 53  2  0  0  0
 40 58  1  0  0  0
 41112  1  0  0  0
 41113  1  0  0  0
 41114  1  0  0  0
 41 48  1  0  0  0
 42 43  1  0  0  0
 42 66  1  0  0  0
 42115  1  0  0  0
 42116  1  0  0  0
 43 44  1  0  0  0
 44117  1  0  0  0
 45 46  2  0  0  0
 45118  1  0  0  0
 46119  1  0  0  0
 47120  1  0  0  0
 47121  1  0  0  0
 48 56  1  0  0  0
 48 65  1  0  0  0
 48122  1  0  0  0
 49 50  1  0  0  0
 49 53  1  0  0  0
 49 64  1  0  0  0
 49123  1  0  0  0
 50 51  1  0  0  0
 50124  1  0  0  0
 50125  1  0  0  0
 51 52  1  0  0  0
 51126  1  0  0  0
 51127  1  0  0  0
 52128  1  0  0  0
 52129  1  0  0  0
 53 54  1  0  0  0
 54 55  2  0  0  0
 54130  1  0  0  0
 55 57  1  0  0  0
 55131  1  0  0  0
 56 69  2  0  0  0
 57 58  2  0  0  0
 57132  1  0  0  0
 58133  1  0  0  0
 59 60  1  0  0  0
 59 61  1  0  0  0
 59 62  1  0  0  0
 60134  1  0  0  0
 60135  1  0  0  0
 60136  1  0  0  0
 61137  1  0  0  0
 61138  1  0  0  0
 61139  1  0  0  0
 62140  1  0  0  0
 62141  1  0  0  0
 62142  1  0  0  0
 63 65  1  0  0  0
 63143  1  0  0  0
 63144  1  0  0  0
 63145  1  0  0  0
 64146  1  0  0  0
 65147  1  0  0  0
 68 82  1  0  0  0
 71 74  2  0  0  0
 71 75  1  0  0  0
 71148  1  0  0  0
 72 74  1  0  0  0
 72 76  2  0  0  0
 72149  1  0  0  0
 73 75  2  0  0  0
 73 76  1  0  0  0
 73 78  1  0  0  0
 74 84  1  0  0  0
 75 87  1  0  0  0
 76 88  1  0  0  0
 77 79  1  0  0  0
 77 82  1  0  0  0
 77 86  2  0  0  0
 78 83  1  0  0  0
 78 85  2  0  0  0
 79 83  1  0  0  0
 79150  1  0  0  0
 79151  1  0  0  0
 80 81  1  0  0  0
 80 82  1  0  0  0
 80152  1  0  0  0
 80153  1  0  0  0
 81 83  1  0  0  0
 81154  1  0  0  0
 81155  1  0  0  0
 82156  1  0  0  0
 84157  1  0  0  0
 85158  1  0  0  0
 85159  1  0  0  0
M  CHG  1  85   1
M  ISO  4   1 100  68 101  82 101  84 100
M  END
> <chiral flag>
0

> <version>
0

> <s_m_source_file>
/data/baiqing/PycharmProjects/Reinvent-master-3.2/result/LINK_invent/BTK/process_docking_weight1_custom_product_contain_oxygen_bond_distance_aromatic_linkinvent_7_9_3/rearranged_h_0158.sdf

> <i_m_source_file_index>
70

> <r_mmod_Potential_Energy-OPLS-2005>
6.51768970489502

> <r_mmod_Stretch_Energy-OPLS-2005>
68.1990509033203

> <r_mmod_Bend_Energy-OPLS-2005>
167.139312744141

> <r_mmod_Torsional_Energy-OPLS-2005>
276.672271728516

> <r_mmod_Improper_Torsional_Energy-OPLS-2005>
9.56478118896484

> <r_mmod_Van_der_Waal_Energy-OPLS-2005>
152.602966308594

> <r_mmod_Electrostatic_Energy-OPLS-2005>
-264.159759521484

> <r_mmod_Solvation_Energy-OPLS-2005>
-434.631530761719

> <b_mmod_Minimization_Converged-OPLS-2005>
0

> <r_mmod_RMS_Derivative-OPLS-2005>
0.784738421440125

$$$$
70
                    3D
 Structure written by MMmdl.
148156  0  0  1  0            999 V2000
  -30.3973  -15.5494   20.3455 C   0  0  0  0  0  0
  -30.4102  -13.0315   19.5195 C   0  0  0  0  0  0
  -29.5333  -12.6291   18.3053 C   0  0  0  0  0  0
  -28.1062  -12.2921   18.7573 C   0  0  0  0  0  0
  -27.5907  -13.3049   19.8059 C   0  0  2  0  0  0
  -28.6129  -13.6396   20.9172 C   0  0  0  0  0  0
  -25.2318  -13.8293   20.5810 C   0  0  0  0  0  0
  -24.1703  -13.0444   20.9295 C   0  0  0  0  0  0
  -24.6399  -11.6952   20.8773 C   0  0  0  0  0  0
  -23.9106  -10.4298   21.0402 C   0  0  0  0  0  0
  -24.3648   -9.4208   21.9178 C   0  0  0  0  0  0
  -23.6313   -8.2247   22.0751 C   0  0  0  0  0  0
  -22.4291   -8.0287   21.3545 C   0  0  0  0  0  0
  -21.9936   -9.0263   20.4646 C   0  0  0  0  0  0
  -22.7275  -10.2137   20.3053 C   0  0  0  0  0  0
  -21.6860   -6.0741   22.5279 C   0  0  0  0  0  0
  -21.4020   -6.5643   23.8213 C   0  0  0  0  0  0
  -21.3660   -5.6793   24.9173 C   0  0  0  0  0  0
  -21.6042   -4.3057   24.7223 C   0  0  0  0  0  0
  -21.8819   -3.8150   23.4343 C   0  0  0  0  0  0
  -21.9195   -4.6968   22.3400 C   0  0  0  0  0  0
  -22.7717  -13.5174   21.1924 C   0  0  0  0  0  0
  -22.1663   -4.2153   21.0978 F   0  0  0  0  0  0
  -21.5626   -3.4539   25.7735 F   0  0  0  0  0  0
  -29.7896  -14.2310   20.2422 N   0  0  0  0  0  0
  -26.2752  -12.9617   20.3238 N   0  0  0  0  0  0
  -25.9342  -11.6691   20.5714 N   0  0  0  0  0  0
  -22.0382  -12.8152   22.0479 N   0  0  0  0  0  0
  -25.3942  -15.2032   20.4265 N   0  0  0  0  0  0
  -31.6308  -15.3922   20.2555 O   0  0  0  0  0  0
  -21.6649   -6.8887   21.4242 O   0  0  0  0  0  0
  -22.3391  -14.5467   20.6754 O   0  0  0  0  0  0
  -24.6804  -31.8047   23.1556 C   0  0  0  0  0  0
  -25.9402  -32.4492   23.8087 C   0  0  1  0  0  0
  -27.2170  -26.7432   20.2134 C   0  0  0  0  0  0
  -25.5999  -33.8315   24.1977 N   0  0  0  0  0  0
  -23.5036  -30.4094   21.5090 C   0  0  2  0  0  0
  -24.9580  -28.7579   20.1198 C   0  0  0  0  0  0
  -22.7747  -29.4344   22.4727 C   0  0  0  0  0  0
  -18.0335  -28.1418   22.8458 C   0  0  0  0  0  0
  -24.1494  -36.7163   23.2649 C   0  0  0  0  0  0
  -26.0827  -30.5518   21.4130 C   0  0  0  0  0  0
  -26.1476  -29.1209   20.7628 C   0  0  0  0  0  0
  -27.2663  -28.1411   20.7753 C   0  0  0  0  0  0
  -25.9947  -26.5779   19.5173 C   0  0  0  0  0  0
  -24.9180  -27.5112   19.4733 C   0  0  0  0  0  0
  -23.7544  -29.7101   20.1428 C   0  0  0  0  0  0
  -25.4141  -36.2910   24.0285 C   0  0  1  0  0  0
  -20.5969  -28.3774   23.1153 C   0  0  2  0  0  0
  -20.6802  -26.9436   22.5407 C   0  0  0  0  0  0
  -19.5778  -26.6370   21.5218 C   0  0  0  0  0  0
  -18.1960  -26.7948   22.1620 C   0  0  0  0  0  0
  -19.1601  -28.8919   23.2788 C   0  0  0  0  0  0
  -18.9505  -30.1504   23.8830 C   0  0  0  0  0  0
  -17.6496  -30.6601   24.0549 C   0  0  0  0  0  0
  -25.9121  -34.9299   23.4964 C   0  0  0  0  0  0
  -16.5385  -29.9084   23.6347 C   0  0  0  0  0  0
  -16.7315  -28.6507   23.0367 C   0  0  0  0  0  0
  -26.4590  -31.6511   25.0693 C   0  0  0  0  0  0
  -25.3668  -31.3835   26.1321 C   0  0  0  0  0  0
  -27.0499  -30.2847   24.6565 C   0  0  0  0  0  0
  -27.6055  -32.4356   25.7500 C   0  0  0  0  0  0
  -27.5568  -37.1733   24.8459 C   0  0  0  0  0  0
  -21.4400  -29.3032   22.3477 N   0  0  0  0  0  0
  -26.4269  -37.3669   23.9412 N   0  0  0  0  0  0
  -24.7787  -30.9538   22.0785 N   0  0  0  0  0  0
  -23.4211  -28.7938   23.3051 O   0  0  0  0  0  0
  -28.1882  -25.5471   20.2629 O   0  0  0  0  0  0
  -26.5752  -34.8868   22.4576 O   0  0  0  0  0  0
  -23.5834  -32.1100   23.6540 O   0  0  0  0  0  0
  -29.0452  -22.3801   20.1628 C   0  0  0  0  0  0
  -30.2796  -19.8786   19.8916 C   0  0  0  0  0  0
  -28.2015  -19.5488   20.6133 C   0  0  0  0  0  0
  -30.6474  -18.3368   20.5542 C   0  0  0  0  0  0
  -28.5022  -17.8437   20.2357 C   0  0  0  0  0  0
  -27.9184  -23.8262   20.2927 C   0  0  0  0  0  0
  -29.0763  -20.8195   20.2548 N   0  0  0  0  0  0
  -29.8413  -17.0079   20.3754 N   0  0  0  0  0  0
  -30.1640  -22.8169   19.8750 O   0  0  0  0  0  0
  -31.4098  -13.2629   19.1496 H   0  0  0  0  0  0
  -30.5480  -12.1876   20.1977 H   0  0  0  0  0  0
  -29.9734  -11.7817   17.7778 H   0  0  0  0  0  0
  -29.5048  -13.4547   17.5927 H   0  0  0  0  0  0
  -28.1247  -11.2933   19.1949 H   0  0  0  0  0  0
  -27.4324  -12.2413   17.9012 H   0  0  0  0  0  0
  -27.4526  -14.2254   19.2368 H   0  0  0  0  0  0
  -28.8626  -12.7654   21.5200 H   0  0  0  0  0  0
  -28.1927  -14.3787   21.6011 H   0  0  0  0  0  0
  -25.2788   -9.5683   22.4761 H   0  0  0  0  0  0
  -24.0017   -7.4638   22.7472 H   0  0  0  0  0  0
  -21.0865   -8.8790   19.8953 H   0  0  0  0  0  0
  -22.3731  -10.9679   19.6168 H   0  0  0  0  0  0
  -21.2017   -7.6152   23.9716 H   0  0  0  0  0  0
  -21.1480   -6.0524   25.9076 H   0  0  0  0  0  0
  -22.0597   -2.7613   23.2842 H   0  0  0  0  0  0
  -22.4031  -11.9835   22.4879 H   0  0  0  0  0  0
  -21.0987  -13.1145   22.2671 H   0  0  0  0  0  0
  -24.6271  -15.8555   20.5473 H   0  0  0  0  0  0
  -26.2446  -15.6453   20.1034 H   0  0  0  0  0  0
  -26.7481  -32.4974   23.0799 H   0  0  0  0  0  0
  -25.0072  -33.9361   25.0080 H   0  0  0  0  0  0
  -22.8265  -31.2458   21.3232 H   0  0  0  0  0  0
  -23.3776  -35.9472   23.3258 H   0  0  0  0  0  0
  -24.3570  -36.8874   22.2074 H   0  0  0  0  0  0
  -23.7229  -37.6320   23.6754 H   0  0  0  0  0  0
  -26.2818  -31.2795   20.6251 H   0  0  0  0  0  0
  -26.9353  -30.6172   22.0767 H   0  0  0  0  0  0
  -28.1655  -28.4259   21.3033 H   0  0  0  0  0  0
  -25.8345  -25.6336   19.0173 H   0  0  0  0  0  0
  -24.0189  -27.2258   18.9443 H   0  0  0  0  0  0
  -23.9287  -30.4715   19.3818 H   0  0  0  0  0  0
  -22.8595  -29.1764   19.8185 H   0  0  0  0  0  0
  -25.1347  -36.1678   25.0775 H   0  0  0  0  0  0
  -21.0051  -28.3395   24.1280 H   0  0  0  0  0  0
  -20.5660  -26.2399   23.3667 H   0  0  0  0  0  0
  -21.6665  -26.7380   22.1227 H   0  0  0  0  0  0
  -19.6932  -25.6261   21.1295 H   0  0  0  0  0  0
  -19.6722  -27.3141   20.6717 H   0  0  0  0  0  0
  -17.4231  -26.6692   21.4021 H   0  0  0  0  0  0
  -18.0345  -26.0105   22.9030 H   0  0  0  0  0  0
  -19.7979  -30.7340   24.2169 H   0  0  0  0  0  0
  -17.5044  -31.6273   24.5165 H   0  0  0  0  0  0
  -15.5381  -30.2963   23.7709 H   0  0  0  0  0  0
  -15.8717  -28.0800   22.7120 H   0  0  0  0  0  0
  -24.5871  -30.7159   25.7638 H   0  0  0  0  0  0
  -24.8834  -32.3061   26.4545 H   0  0  0  0  0  0
  -25.7856  -30.9138   27.0229 H   0  0  0  0  0  0
  -26.3201  -29.6483   24.1550 H   0  0  0  0  0  0
  -27.3923  -29.7275   25.5295 H   0  0  0  0  0  0
  -27.9191  -30.3970   24.0083 H   0  0  0  0  0  0
  -27.2609  -33.3723   26.1895 H   0  0  0  0  0  0
  -28.3958  -32.6810   25.0393 H   0  0  0  0  0  0
  -28.0623  -31.8604   26.5564 H   0  0  0  0  0  0
  -28.2544  -38.0067   24.7528 H   0  0  0  0  0  0
  -28.1104  -36.2592   24.6255 H   0  0  0  0  0  0
  -27.2292  -37.1336   25.8862 H   0  0  0  0  0  0
  -20.9692  -29.8695   21.6555 H   0  0  0  0  0  0
  -26.0099  -38.2715   24.1440 H   0  0  0  0  0  0
  -30.2525  -19.7683   18.8066 H   0  0  0  0  0  0
  -31.1717  -20.4792   20.0717 H   0  0  0  0  0  0
  -28.1011  -19.5992   21.6982 H   0  0  0  0  0  0
  -27.2005  -19.7776   20.2466 H   0  0  0  0  0  0
  -30.7705  -18.4667   21.6304 H   0  0  0  0  0  0
  -31.6524  -18.0992   20.2025 H   0  0  0  0  0  0
  -28.2239  -17.7180   19.1887 H   0  0  0  0  0  0
  -27.7516  -17.2690   20.7788 H   0  0  0  0  0  0
  -27.3714  -23.6535   21.2196 H   0  0  0  0  0  0
  -27.1799  -23.6502   19.5112 H   0  0  0  0  0  0
  1 25  1  0  0  0
  1 30  2  0  0  0
  1 78  1  0  0  0
  2  3  1  0  0  0
  2 25  1  0  0  0
  2 80  1  0  0  0
  2 81  1  0  0  0
  3  4  1  0  0  0
  3 82  1  0  0  0
  3 83  1  0  0  0
  4  5  1  0  0  0
  4 84  1  0  0  0
  4 85  1  0  0  0
  5  6  1  0  0  0
  5 26  1  0  0  0
  5 86  1  0  0  0
  6 25  1  0  0  0
  6 87  1  0  0  0
  6 88  1  0  0  0
  7  8  2  0  0  0
  7 26  1  0  0  0
  7 29  1  0  0  0
  8  9  1  0  0  0
  8 22  1  0  0  0
  9 10  1  0  0  0
  9 27  2  0  0  0
 10 11  2  0  0  0
 10 15  1  0  0  0
 11 12  1  0  0  0
 11 89  1  0  0  0
 12 13  2  0  0  0
 12 90  1  0  0  0
 13 14  1  0  0  0
 13 31  1  0  0  0
 14 15  2  0  0  0
 14 91  1  0  0  0
 15 92  1  0  0  0
 16 17  2  0  0  0
 16 21  1  0  0  0
 16 31  1  0  0  0
 17 18  1  0  0  0
 17 93  1  0  0  0
 18 19  2  0  0  0
 18 94  1  0  0  0
 19 20  1  0  0  0
 19 24  1  0  0  0
 20 21  2  0  0  0
 20 95  1  0  0  0
 21 23  1  0  0  0
 22 28  1  0  0  0
 22 32  2  0  0  0
 26 27  1  0  0  0
 28 96  1  0  0  0
 28 97  1  0  0  0
 29 98  1  0  0  0
 29 99  1  0  0  0
 33 34  1  0  0  0
 33 66  1  0  0  0
 33 70  2  0  0  0
 34 36  1  0  0  0
 34 59  1  0  0  0
 34100  1  0  0  0
 35 44  2  0  0  0
 35 45  1  0  0  0
 35 68  1  0  0  0
 36 56  1  0  0  0
 36101  1  0  0  0
 37 39  1  0  0  0
 37 47  1  0  0  0
 37 66  1  0  0  0
 37102  1  0  0  0
 38 43  2  0  0  0
 38 46  1  0  0  0
 38 47  1  0  0  0
 39 64  1  0  0  0
 39 67  2  0  0  0
 40 52  1  0  0  0
 40 53  2  0  0  0
 40 58  1  0  0  0
 41103  1  0  0  0
 41104  1  0  0  0
 41105  1  0  0  0
 41 48  1  0  0  0
 42 43  1  0  0  0
 42 66  1  0  0  0
 42106  1  0  0  0
 42107  1  0  0  0
 43 44  1  0  0  0
 44108  1  0  0  0
 45 46  2  0  0  0
 45109  1  0  0  0
 46110  1  0  0  0
 47111  1  0  0  0
 47112  1  0  0  0
 48 56  1  0  0  0
 48 65  1  0  0  0
 48113  1  0  0  0
 49 50  1  0  0  0
 49 53  1  0  0  0
 49 64  1  0  0  0
 49114  1  0  0  0
 50 51  1  0  0  0
 50115  1  0  0  0
 50116  1  0  0  0
 51 52  1  0  0  0
 51117  1  0  0  0
 51118  1  0  0  0
 52119  1  0  0  0
 52120  1  0  0  0
 53 54  1  0  0  0
 54 55  2  0  0  0
 54121  1  0  0  0
 55 57  1  0  0  0
 55122  1  0  0  0
 56 69  2  0  0  0
 57 58  2  0  0  0
 57123  1  0  0  0
 58124  1  0  0  0
 59 60  1  0  0  0
 59 61  1  0  0  0
 59 62  1  0  0  0
 60125  1  0  0  0
 60126  1  0  0  0
 60127  1  0  0  0
 61128  1  0  0  0
 61129  1  0  0  0
 61130  1  0  0  0
 62131  1  0  0  0
 62132  1  0  0  0
 62133  1  0  0  0
 63 65  1  0  0  0
 63134  1  0  0  0
 63135  1  0  0  0
 63136  1  0  0  0
 64137  1  0  0  0
 65138  1  0  0  0
 68 76  1  0  0  0
 71 76  1  0  0  0
 71 77  1  0  0  0
 71 79  2  0  0  0
 72 74  1  0  0  0
 72 77  1  0  0  0
 72139  1  0  0  0
 72140  1  0  0  0
 73 75  1  0  0  0
 73 77  1  0  0  0
 73141  1  0  0  0
 73142  1  0  0  0
 74 78  1  0  0  0
 74143  1  0  0  0
 74144  1  0  0  0
 75 78  1  0  0  0
 75145  1  0  0  0
 75146  1  0  0  0
 76147  1  0  0  0
 76148  1  0  0  0
M  ISO  4   1 100  68 101  76 101  78 100
M  END
> <chiral flag>
0

> <version>
0

> <s_m_source_file>
/data/baiqing/PycharmProjects/Reinvent-master-3.2/result/LINK_invent/BTK/process_docking_weight1_custom_product_contain_oxygen_bond_distance_aromatic_linkinvent_7_9_3/rearranged_h_0158.sdf

> <i_m_source_file_index>
71

> <r_mmod_Potential_Energy-OPLS-2005>
2369.73095703125

> <r_mmod_Stretch_Energy-OPLS-2005>
869.715454101562

> <r_mmod_Bend_Energy-OPLS-2005>
728.713317871094

> <r_mmod_Torsional_Energy-OPLS-2005>
368.303558349609

> <r_mmod_Improper_Torsional_Energy-OPLS-2005>
3.77189683914185

> <r_mmod_Van_der_Waal_Energy-OPLS-2005>
122.739151000977

> <r_mmod_Electrostatic_Energy-OPLS-2005>
-255.999908447266

> <r_mmod_Solvation_Energy-OPLS-2005>
-255.698532104492

> <b_mmod_Minimization_Converged-OPLS-2005>
0

> <r_mmod_RMS_Derivative-OPLS-2005>
0.484431892633438

$$$$
71
                    3D
 Structure written by MMmdl.
150158  0  0  1  0            999 V2000
  -30.6765  -14.5761   20.4901 C   0  0  0  0  0  0
  -30.4170  -12.3487   19.4562 C   0  0  0  0  0  0
  -29.4984  -12.4909   18.2245 C   0  0  0  0  0  0
  -28.0200  -12.3487   18.6340 C   0  0  0  0  0  0
  -27.6500  -13.2204   19.8648 C   0  0  2  0  0  0
  -28.6937  -13.0851   20.9971 C   0  0  0  0  0  0
  -25.2537  -13.8194   20.5705 C   0  0  0  0  0  0
  -24.1813  -13.0442   20.9198 C   0  0  0  0  0  0
  -24.6390  -11.6917   20.8749 C   0  0  0  0  0  0
  -23.9069  -10.4292   21.0403 C   0  0  0  0  0  0
  -24.3621   -9.4206   21.9182 C   0  0  0  0  0  0
  -23.6294   -8.2243   22.0757 C   0  0  0  0  0  0
  -22.4280   -8.0276   21.3540 C   0  0  0  0  0  0
  -21.9913   -9.0250   20.4648 C   0  0  0  0  0  0
  -22.7241  -10.2128   20.3051 C   0  0  0  0  0  0
  -21.6851   -6.0737   22.5280 C   0  0  0  0  0  0
  -21.4013   -6.5644   23.8213 C   0  0  0  0  0  0
  -21.3654   -5.6799   24.9175 C   0  0  0  0  0  0
  -21.6040   -4.3061   24.7228 C   0  0  0  0  0  0
  -21.8815   -3.8151   23.4351 C   0  0  0  0  0  0
  -21.9191   -4.6968   22.3407 C   0  0  0  0  0  0
  -22.7832  -13.5225   21.1854 C   0  0  0  0  0  0
  -22.1656   -4.2151   21.0984 F   0  0  0  0  0  0
  -21.5628   -3.4547   25.7742 F   0  0  0  0  0  0
  -30.0128  -13.3845   20.4271 N   0  0  0  0  0  0
  -26.2969  -12.9383   20.3345 N   0  0  0  0  0  0
  -25.9323  -11.6533   20.5791 N   0  0  0  0  0  0
  -22.0484  -12.8210   22.0412 N   0  0  0  0  0  0
  -25.4238  -15.1920   20.4119 N   0  0  0  0  0  0
  -31.8482  -14.6752   20.1184 O   0  0  0  0  0  0
  -21.6637   -6.8881   21.4242 O   0  0  0  0  0  0
  -22.3511  -14.5520   20.6691 O   0  0  0  0  0  0
  -24.6209  -31.8619   23.2058 C   0  0  0  0  0  0
  -25.9080  -32.4785   23.8373 C   0  0  1  0  0  0
  -27.2274  -27.3652   20.1082 C   0  0  0  0  0  0
  -25.5916  -33.8587   24.2302 N   0  0  0  0  0  0
  -23.4118  -30.4857   21.5464 C   0  0  2  0  0  0
  -24.8577  -28.9440   20.1107 C   0  0  0  0  0  0
  -22.7439  -29.4632   22.4952 C   0  0  0  0  0  0
  -18.0273  -28.1379   22.8486 C   0  0  0  0  0  0
  -24.1487  -36.7298   23.2640 C   0  0  0  0  0  0
  -25.9467  -30.8073   21.3690 C   0  0  0  0  0  0
  -26.0211  -29.4376   20.7127 C   0  0  0  0  0  0
  -27.2066  -28.6560   20.7059 C   0  0  0  0  0  0
  -26.0420  -26.9053   19.4907 C   0  0  0  0  0  0
  -24.8666  -27.6812   19.4946 C   0  0  0  0  0  0
  -23.6237  -29.8194   20.1608 C   0  0  0  0  0  0
  -25.4110  -36.3088   24.0332 C   0  0  1  0  0  0
  -20.5869  -28.3675   23.1299 C   0  0  2  0  0  0
  -20.6760  -26.9402   22.5416 C   0  0  0  0  0  0
  -19.5741  -26.6384   21.5212 C   0  0  0  0  0  0
  -18.1922  -26.7926   22.1622 C   0  0  0  0  0  0
  -19.1524  -28.8845   23.2891 C   0  0  0  0  0  0
  -18.9453  -30.1448   23.8904 C   0  0  0  0  0  0
  -17.6454  -30.6586   24.0565 C   0  0  0  0  0  0
  -25.9040  -34.9452   23.5114 C   0  0  0  0  0  0
  -16.5344  -29.9086   23.6329 C   0  0  0  0  0  0
  -16.7263  -28.6503   23.0350 C   0  0  0  0  0  0
  -26.4492  -31.6581   25.0724 C   0  0  0  0  0  0
  -25.3750  -31.3694   26.1469 C   0  0  0  0  0  0
  -27.0326  -30.3011   24.6145 C   0  0  0  0  0  0
  -27.6066  -32.4303   25.7487 C   0  0  0  0  0  0
  -27.5579  -37.1805   24.8466 C   0  0  0  0  0  0
  -21.4159  -29.3034   22.3696 N   0  0  0  0  0  0
  -26.4292  -37.3781   23.9409 N   0  0  0  0  0  0
  -24.6783  -31.0671   22.0983 N   0  0  0  0  0  0
  -23.4182  -28.8171   23.3016 O   0  0  0  0  0  0
  -28.3756  -26.5798   20.1692 O   0  0  0  0  0  0
  -26.5608  -34.8913   22.4680 O   0  0  0  0  0  0
  -23.5389  -32.1395   23.7421 O   0  0  0  0  0  0
  -29.5687  -19.5882   20.1404 C   0  0  0  0  0  0
  -28.7688  -19.6257   22.2251 C   0  0  0  0  0  0
  -29.0031  -20.4374   21.1484 C   0  0  0  0  0  0
  -29.6800  -18.3204   20.6895 C   0  0  0  0  0  0
  -28.3683  -25.2343   19.7934 C   0  0  0  0  0  0
  -28.5990  -24.1880   20.6383 C   0  0  0  0  0  0
  -28.6767  -22.7812   20.1573 C   0  0  0  0  0  0
  -30.3777  -17.0406   20.2158 C   0  0  0  0  0  0
  -28.7926  -21.8723   21.1604 N   0  0  0  0  0  0
  -29.9421  -15.7018   20.7140 N   0  0  0  0  0  0
  -28.6394  -22.4445   18.9715 O   0  0  0  0  0  0
  -29.1690  -18.3379   21.9583 O   0  0  0  0  0  0
  -28.7770  -24.4431   21.9446 O   0  0  0  0  0  0
  -31.4631  -12.4353   19.1573 H   0  0  0  0  0  0
  -30.3160  -11.3564   19.8991 H   0  0  0  0  0  0
  -29.7513  -11.7389   17.4763 H   0  0  0  0  0  0
  -29.6589  -13.4598   17.7501 H   0  0  0  0  0  0
  -27.8425  -11.2962   18.8578 H   0  0  0  0  0  0
  -27.3697  -12.5910   17.7927 H   0  0  0  0  0  0
  -27.6682  -14.2549   19.5225 H   0  0  0  0  0  0
  -28.6873  -12.0746   21.4090 H   0  0  0  0  0  0
  -28.4583  -13.7532   21.8269 H   0  0  0  0  0  0
  -25.2763   -9.5683   22.4760 H   0  0  0  0  0  0
  -23.9997   -7.4637   22.7479 H   0  0  0  0  0  0
  -21.0841   -8.8769   19.8965 H   0  0  0  0  0  0
  -22.3693  -10.9666   19.6163 H   0  0  0  0  0  0
  -21.2009   -7.6154   23.9714 H   0  0  0  0  0  0
  -21.1475   -6.0536   25.9075 H   0  0  0  0  0  0
  -22.0599   -2.7615   23.2858 H   0  0  0  0  0  0
  -22.4100  -11.9870   22.4795 H   0  0  0  0  0  0
  -21.1104  -13.1231   22.2617 H   0  0  0  0  0  0
  -24.6587  -15.8474   20.5286 H   0  0  0  0  0  0
  -26.2744  -15.6334   20.0859 H   0  0  0  0  0  0
  -26.7144  -32.5472   23.1124 H   0  0  0  0  0  0
  -25.0072  -33.9745   25.0451 H   0  0  0  0  0  0
  -22.7044  -31.3054   21.4053 H   0  0  0  0  0  0
  -23.3742  -35.9639   23.3312 H   0  0  0  0  0  0
  -24.3578  -36.8909   22.2052 H   0  0  0  0  0  0
  -23.7249  -37.6510   23.6650 H   0  0  0  0  0  0
  -26.0709  -31.5731   20.6023 H   0  0  0  0  0  0
  -26.8300  -30.8572   21.9938 H   0  0  0  0  0  0
  -28.1029  -29.0295   21.1809 H   0  0  0  0  0  0
  -26.0032  -25.9356   19.0166 H   0  0  0  0  0  0
  -23.9712  -27.2959   19.0267 H   0  0  0  0  0  0
  -23.7400  -30.5958   19.4039 H   0  0  0  0  0  0
  -22.7452  -29.2462   19.8599 H   0  0  0  0  0  0
  -25.1289  -36.1949   25.0825 H   0  0  0  0  0  0
  -20.9963  -28.3243   24.1419 H   0  0  0  0  0  0
  -20.5656  -26.2281   23.3606 H   0  0  0  0  0  0
  -21.6628  -26.7434   22.1214 H   0  0  0  0  0  0
  -19.6901  -25.6297   21.1236 H   0  0  0  0  0  0
  -19.6685  -27.3197   20.6741 H   0  0  0  0  0  0
  -17.4190  -26.6674   21.4027 H   0  0  0  0  0  0
  -18.0323  -26.0066   22.9015 H   0  0  0  0  0  0
  -19.7927  -30.7263   24.2278 H   0  0  0  0  0  0
  -17.5008  -31.6270   24.5162 H   0  0  0  0  0  0
  -15.5346  -30.2993   23.7649 H   0  0  0  0  0  0
  -15.8659  -28.0829   22.7058 H   0  0  0  0  0  0
  -24.5931  -30.7031   25.7807 H   0  0  0  0  0  0
  -24.8933  -32.2844   26.4920 H   0  0  0  0  0  0
  -25.8104  -30.8865   27.0226 H   0  0  0  0  0  0
  -26.2879  -29.6764   24.1196 H   0  0  0  0  0  0
  -27.4066  -29.7265   25.4632 H   0  0  0  0  0  0
  -27.8733  -30.4308   23.9324 H   0  0  0  0  0  0
  -27.2690  -33.3599   26.2079 H   0  0  0  0  0  0
  -28.3868  -32.6865   25.0307 H   0  0  0  0  0  0
  -28.0739  -31.8414   26.5391 H   0  0  0  0  0  0
  -28.2599  -38.0098   24.7505 H   0  0  0  0  0  0
  -28.1070  -36.2630   24.6297 H   0  0  0  0  0  0
  -27.2295  -37.1462   25.8869 H   0  0  0  0  0  0
  -20.9319  -29.8765   21.6925 H   0  0  0  0  0  0
  -26.0174  -38.2857   24.1413 H   0  0  0  0  0  0
  -29.9243  -19.8786   19.1615 H   0  0  0  0  0  0
  -28.3727  -19.7879   23.2189 H   0  0  0  0  0  0
  -28.1950  -25.1119   18.7320 H   0  0  0  0  0  0
  -31.4394  -17.1589   20.4399 H   0  0  0  0  0  0
  -30.3212  -17.0070   19.1273 H   0  0  0  0  0  0
  -28.7143  -22.3055   22.0725 H   0  0  0  0  0  0
  -28.9813  -15.5987   21.0029 H   0  0  0  0  0  0
  -28.7026  -25.3832   22.0509 H   0  0  0  0  0  0
  1 25  1  0  0  0
  1 30  2  0  0  0
  1 80  1  0  0  0
  2  3  1  0  0  0
  2 25  1  0  0  0
  2 84  1  0  0  0
  2 85  1  0  0  0
  3  4  1  0  0  0
  3 86  1  0  0  0
  3 87  1  0  0  0
  4  5  1  0  0  0
  4 88  1  0  0  0
  4 89  1  0  0  0
  5  6  1  0  0  0
  5 26  1  0  0  0
  5 90  1  0  0  0
  6 25  1  0  0  0
  6 91  1  0  0  0
  6 92  1  0  0  0
  7  8  2  0  0  0
  7 26  1  0  0  0
  7 29  1  0  0  0
  8  9  1  0  0  0
  8 22  1  0  0  0
  9 10  1  0  0  0
  9 27  2  0  0  0
 10 11  2  0  0  0
 10 15  1  0  0  0
 11 12  1  0  0  0
 11 93  1  0  0  0
 12 13  2  0  0  0
 12 94  1  0  0  0
 13 14  1  0  0  0
 13 31  1  0  0  0
 14 15  2  0  0  0
 14 95  1  0  0  0
 15 96  1  0  0  0
 16 17  2  0  0  0
 16 21  1  0  0  0
 16 31  1  0  0  0
 17 18  1  0  0  0
 17 97  1  0  0  0
 18 19  2  0  0  0
 18 98  1  0  0  0
 19 20  1  0  0  0
 19 24  1  0  0  0
 20 21  2  0  0  0
 20 99  1  0  0  0
 21 23  1  0  0  0
 22 28  1  0  0  0
 22 32  2  0  0  0
 26 27  1  0  0  0
 28100  1  0  0  0
 28101  1  0  0  0
 29102  1  0  0  0
 29103  1  0  0  0
 33 34  1  0  0  0
 33 66  1  0  0  0
 33 70  2  0  0  0
 34 36  1  0  0  0
 34 59  1  0  0  0
 34104  1  0  0  0
 35 44  2  0  0  0
 35 45  1  0  0  0
 35 68  1  0  0  0
 36 56  1  0  0  0
 36105  1  0  0  0
 37 39  1  0  0  0
 37 47  1  0  0  0
 37 66  1  0  0  0
 37106  1  0  0  0
 38 43  2  0  0  0
 38 46  1  0  0  0
 38 47  1  0  0  0
 39 64  1  0  0  0
 39 67  2  0  0  0
 40 52  1  0  0  0
 40 53  2  0  0  0
 40 58  1  0  0  0
 41107  1  0  0  0
 41108  1  0  0  0
 41109  1  0  0  0
 41 48  1  0  0  0
 42 43  1  0  0  0
 42 66  1  0  0  0
 42110  1  0  0  0
 42111  1  0  0  0
 43 44  1  0  0  0
 44112  1  0  0  0
 45 46  2  0  0  0
 45113  1  0  0  0
 46114  1  0  0  0
 47115  1  0  0  0
 47116  1  0  0  0
 48 56  1  0  0  0
 48 65  1  0  0  0
 48117  1  0  0  0
 49 50  1  0  0  0
 49 53  1  0  0  0
 49 64  1  0  0  0
 49118  1  0  0  0
 50 51  1  0  0  0
 50119  1  0  0  0
 50120  1  0  0  0
 51 52  1  0  0  0
 51121  1  0  0  0
 51122  1  0  0  0
 52123  1  0  0  0
 52124  1  0  0  0
 53 54  1  0  0  0
 54 55  2  0  0  0
 54125  1  0  0  0
 55 57  1  0  0  0
 55126  1  0  0  0
 56 69  2  0  0  0
 57 58  2  0  0  0
 57127  1  0  0  0
 58128  1  0  0  0
 59 60  1  0  0  0
 59 61  1  0  0  0
 59 62  1  0  0  0
 60129  1  0  0  0
 60130  1  0  0  0
 60131  1  0  0  0
 61132  1  0  0  0
 61133  1  0  0  0
 61134  1  0  0  0
 62135  1  0  0  0
 62136  1  0  0  0
 62137  1  0  0  0
 63 65  1  0  0  0
 63138  1  0  0  0
 63139  1  0  0  0
 63140  1  0  0  0
 64141  1  0  0  0
 65142  1  0  0  0
 68 75  1  0  0  0
 71 73  1  0  0  0
 71 74  2  0  0  0
 71143  1  0  0  0
 72 73  2  0  0  0
 72 82  1  0  0  0
 72144  1  0  0  0
 73 79  1  0  0  0
 74 78  1  0  0  0
 74 82  1  0  0  0
 75 76  2  0  0  0
 75145  1  0  0  0
 76 77  1  0  0  0
 76 83  1  0  0  0
 77 79  1  0  0  0
 77 81  2  0  0  0
 78 80  1  0  0  0
 78146  1  0  0  0
 78147  1  0  0  0
 79148  1  0  0  0
 80149  1  0  0  0
 83150  1  0  0  0
M  ISO  4   1 100  68 101  75 101  80 100
M  END
> <chiral flag>
0

> <version>
0

> <s_m_source_file>
/data/baiqing/PycharmProjects/Reinvent-master-3.2/result/LINK_invent/BTK/process_docking_weight1_custom_product_contain_oxygen_bond_distance_aromatic_linkinvent_7_9_3/rearranged_h_0158.sdf

> <i_m_source_file_index>
72

> <r_mmod_Potential_Energy-OPLS-2005>
-138.955612182617

> <r_mmod_Stretch_Energy-OPLS-2005>
53.0352210998535

> <r_mmod_Bend_Energy-OPLS-2005>
129.687789916992

> <r_mmod_Torsional_Energy-OPLS-2005>
214.150802612305

> <r_mmod_Improper_Torsional_Energy-OPLS-2005>
7.96618556976318

> <r_mmod_Van_der_Waal_Energy-OPLS-2005>
130.904586791992

> <r_mmod_Electrostatic_Energy-OPLS-2005>
-482.632171630859

> <r_mmod_Solvation_Energy-OPLS-2005>
-224.611663818359

> <b_mmod_Minimization_Converged-OPLS-2005>
0

> <r_mmod_RMS_Derivative-OPLS-2005>
0.950808584690094

$$$$
72
                    3D
 Structure written by MMmdl.
159168  0  0  1  0            999 V2000
  -30.6201  -14.6641   20.4818 C   0  0  0  0  0  0
  -30.4328  -12.4044   19.4591 C   0  0  0  0  0  0
  -29.5032  -12.4978   18.2282 C   0  0  0  0  0  0
  -28.0274  -12.3350   18.6421 C   0  0  0  0  0  0
  -27.6482  -13.2197   19.8595 C   0  0  2  0  0  0
  -28.6924  -13.1004   20.9918 C   0  0  0  0  0  0
  -25.2551  -13.8189   20.5683 C   0  0  0  0  0  0
  -24.1821  -13.0457   20.9209 C   0  0  0  0  0  0
  -24.6391  -11.6926   20.8767 C   0  0  0  0  0  0
  -23.9068  -10.4303   21.0441 C   0  0  0  0  0  0
  -24.3625   -9.4211   21.9205 C   0  0  0  0  0  0
  -23.6297   -8.2248   22.0753 C   0  0  0  0  0  0
  -22.4272   -8.0300   21.3552 C   0  0  0  0  0  0
  -21.9927   -9.0277   20.4653 C   0  0  0  0  0  0
  -22.7255  -10.2153   20.3074 C   0  0  0  0  0  0
  -21.6850   -6.0762   22.5288 C   0  0  0  0  0  0
  -21.4008   -6.5659   23.8229 C   0  0  0  0  0  0
  -21.3645   -5.6807   24.9188 C   0  0  0  0  0  0
  -21.6041   -4.3071   24.7230 C   0  0  0  0  0  0
  -21.8818   -3.8176   23.4353 C   0  0  0  0  0  0
  -21.9190   -4.6994   22.3409 C   0  0  0  0  0  0
  -22.7851  -13.5261   21.1879 C   0  0  0  0  0  0
  -22.1660   -4.2185   21.0985 F   0  0  0  0  0  0
  -21.5622   -3.4548   25.7741 F   0  0  0  0  0  0
  -30.0030  -13.4407   20.4206 N   0  0  0  0  0  0
  -26.2970  -12.9366   20.3311 N   0  0  0  0  0  0
  -25.9313  -11.6521   20.5786 N   0  0  0  0  0  0
  -22.0487  -12.8239   22.0426 N   0  0  0  0  0  0
  -25.4271  -15.1910   20.4096 N   0  0  0  0  0  0
  -31.7997  -14.7865   20.1329 O   0  0  0  0  0  0
  -21.6628   -6.8904   21.4251 O   0  0  0  0  0  0
  -22.3541  -14.5571   20.6727 O   0  0  0  0  0  0
  -24.6265  -31.8583   23.2008 C   0  0  0  0  0  0
  -25.9109  -32.4767   23.8353 C   0  0  1  0  0  0
  -27.2292  -27.3217   20.1168 C   0  0  0  0  0  0
  -25.5928  -33.8566   24.2286 N   0  0  0  0  0  0
  -23.4217  -30.4800   21.5411 C   0  0  2  0  0  0
  -24.8718  -28.9334   20.1094 C   0  0  0  0  0  0
  -22.7492  -29.4608   22.4910 C   0  0  0  0  0  0
  -18.0293  -28.1388   22.8483 C   0  0  0  0  0  0
  -24.1475  -36.7252   23.2645 C   0  0  0  0  0  0
  -25.9626  -30.7887   21.3730 C   0  0  0  0  0  0
  -26.0402  -29.4162   20.7141 C   0  0  0  0  0  0
  -27.2256  -28.6220   20.7070 C   0  0  0  0  0  0
  -26.0441  -26.8922   19.4825 C   0  0  0  0  0  0
  -24.8751  -27.6760   19.4844 C   0  0  0  0  0  0
  -23.6392  -29.8124   20.1573 C   0  0  0  0  0  0
  -25.4094  -36.3062   24.0348 C   0  0  1  0  0  0
  -20.5893  -28.3682   23.1272 C   0  0  2  0  0  0
  -20.6778  -26.9402   22.5403 C   0  0  0  0  0  0
  -19.5751  -26.6369   21.5211 C   0  0  0  0  0  0
  -18.1922  -26.7930   22.1612 C   0  0  0  0  0  0
  -19.1550  -28.8854   23.2878 C   0  0  0  0  0  0
  -18.9473  -30.1456   23.8895 C   0  0  0  0  0  0
  -17.6470  -30.6592   24.0560 C   0  0  0  0  0  0
  -25.9044  -34.9443   23.5113 C   0  0  0  0  0  0
  -16.5364  -29.9082   23.6350 C   0  0  0  0  0  0
  -16.7280  -28.6501   23.0362 C   0  0  0  0  0  0
  -26.4504  -31.6589   25.0728 C   0  0  0  0  0  0
  -25.3741  -31.3707   26.1454 C   0  0  0  0  0  0
  -27.0367  -30.3021   24.6185 C   0  0  0  0  0  0
  -27.6075  -32.4320   25.7472 C   0  0  0  0  0  0
  -27.5577  -37.1747   24.8460 C   0  0  0  0  0  0
  -21.4201  -29.3041   22.3673 N   0  0  0  0  0  0
  -26.4255  -37.3779   23.9468 N   0  0  0  0  0  0
  -24.6888  -31.0594   22.0954 N   0  0  0  0  0  0
  -23.4209  -28.8152   23.2999 O   0  0  0  0  0  0
  -28.3252  -26.4482   20.1468 O   0  0  0  0  0  0
  -26.5607  -34.8925   22.4674 O   0  0  0  0  0  0
  -23.5419  -32.1373   23.7326 O   0  0  0  0  0  0
  -29.1668  -18.1576   20.7762 C   0  0  0  0  0  0
  -29.9193  -19.3582   20.4873 C   0  0  0  0  0  0
  -30.0618  -17.1065   20.5965 C   0  0  0  0  0  0
  -27.7016  -22.5383   20.7913 C   0  0  0  0  0  0
  -30.0007  -23.2562   20.4092 C   0  0  0  0  0  0
  -28.0678  -21.0688   20.3621 C   0  0  0  0  0  0
  -30.3691  -21.7805   19.9993 C   0  0  0  0  0  0
  -28.5250  -23.6963   20.1281 C   0  0  0  0  0  0
  -28.9774  -24.3128   17.8062 C   0  0  0  0  0  0
  -28.0768  -25.1152   20.7527 C   0  0  0  0  0  0
  -31.1644  -19.0269   20.1574 N   0  0  0  0  0  0
  -29.4852  -20.7354   20.5609 N   0  0  0  0  0  0
  -29.8181  -15.7472   20.7547 N   0  0  0  0  0  0
  -31.2652  -17.6215   20.2175 O   0  0  0  0  0  0
  -28.1559  -23.6254   18.7444 O   0  0  0  0  0  0
  -31.4731  -12.5266   19.1530 H   0  0  0  0  0  0
  -30.3715  -11.4156   19.9162 H   0  0  0  0  0  0
  -29.7702  -11.7345   17.4967 H   0  0  0  0  0  0
  -29.6417  -13.4599   17.7337 H   0  0  0  0  0  0
  -27.8686  -11.2841   18.8863 H   0  0  0  0  0  0
  -27.3707  -12.5546   17.7995 H   0  0  0  0  0  0
  -27.6583  -14.2496   19.5017 H   0  0  0  0  0  0
  -28.7060  -12.0876   21.3958 H   0  0  0  0  0  0
  -28.4352  -13.7512   21.8290 H   0  0  0  0  0  0
  -25.2777   -9.5679   22.4784 H   0  0  0  0  0  0
  -24.0016   -7.4633   22.7465 H   0  0  0  0  0  0
  -21.0859   -8.8816   19.8949 H   0  0  0  0  0  0
  -22.3742  -10.9707   19.6185 H   0  0  0  0  0  0
  -21.1986   -7.6160   23.9743 H   0  0  0  0  0  0
  -21.1455   -6.0532   25.9089 H   0  0  0  0  0  0
  -22.0598   -2.7638   23.2844 H   0  0  0  0  0  0
  -22.4073  -11.9868   22.4789 H   0  0  0  0  0  0
  -21.1126  -13.1295   22.2681 H   0  0  0  0  0  0
  -24.6534  -15.8404   20.4999 H   0  0  0  0  0  0
  -26.2679  -15.6282   20.0567 H   0  0  0  0  0  0
  -26.7178  -32.5433   23.1099 H   0  0  0  0  0  0
  -25.0151  -33.9724   25.0478 H   0  0  0  0  0  0
  -22.7146  -31.2979   21.3932 H   0  0  0  0  0  0
  -23.3780  -35.9533   23.3240 H   0  0  0  0  0  0
  -24.3588  -36.8930   22.2072 H   0  0  0  0  0  0
  -23.7166  -37.6411   23.6695 H   0  0  0  0  0  0
  -26.0977  -31.5530   20.6057 H   0  0  0  0  0  0
  -26.8415  -30.8350   22.0057 H   0  0  0  0  0  0
  -28.1224  -28.9856   21.1892 H   0  0  0  0  0  0
  -26.0171  -25.9250   18.9988 H   0  0  0  0  0  0
  -23.9813  -27.3014   19.0060 H   0  0  0  0  0  0
  -23.7597  -30.5874   19.3993 H   0  0  0  0  0  0
  -22.7605  -29.2410   19.8529 H   0  0  0  0  0  0
  -25.1262  -36.1890   25.0836 H   0  0  0  0  0  0
  -20.9984  -28.3245   24.1389 H   0  0  0  0  0  0
  -20.5667  -26.2293   23.3607 H   0  0  0  0  0  0
  -21.6646  -26.7410   22.1193 H   0  0  0  0  0  0
  -19.6907  -25.6271   21.1249 H   0  0  0  0  0  0
  -19.6700  -27.3177   20.6736 H   0  0  0  0  0  0
  -17.4194  -26.6704   21.4011 H   0  0  0  0  0  0
  -18.0309  -26.0072   22.9001 H   0  0  0  0  0  0
  -19.7954  -30.7286   24.2253 H   0  0  0  0  0  0
  -17.5029  -31.6279   24.5144 H   0  0  0  0  0  0
  -15.5363  -30.2981   23.7697 H   0  0  0  0  0  0
  -15.8673  -28.0826   22.7083 H   0  0  0  0  0  0
  -24.5940  -30.7032   25.7781 H   0  0  0  0  0  0
  -24.8908  -32.2862   26.4884 H   0  0  0  0  0  0
  -25.8082  -30.8893   27.0227 H   0  0  0  0  0  0
  -26.2957  -29.6733   24.1243 H   0  0  0  0  0  0
  -27.4131  -29.7317   25.4689 H   0  0  0  0  0  0
  -27.8785  -30.4331   23.9375 H   0  0  0  0  0  0
  -27.2734  -33.3660   26.1997 H   0  0  0  0  0  0
  -28.3905  -32.6807   25.0293 H   0  0  0  0  0  0
  -28.0720  -31.8471   26.5421 H   0  0  0  0  0  0
  -28.2502  -38.0136   24.7657 H   0  0  0  0  0  0
  -28.1171  -36.2683   24.6077 H   0  0  0  0  0  0
  -27.2340  -37.1136   25.8869 H   0  0  0  0  0  0
  -20.9377  -29.8771   21.6893 H   0  0  0  0  0  0
  -26.0115  -38.2822   24.1588 H   0  0  0  0  0  0
  -28.1334  -18.0804   21.0798 H   0  0  0  0  0  0
  -27.8083  -22.6134   21.8750 H   0  0  0  0  0  0
  -26.6398  -22.6969   20.5995 H   0  0  0  0  0  0
  -30.7016  -23.9501   19.9436 H   0  0  0  0  0  0
  -30.1873  -23.3593   21.4799 H   0  0  0  0  0  0
  -27.8224  -20.9232   19.3090 H   0  0  0  0  0  0
  -27.4451  -20.3696   20.9222 H   0  0  0  0  0  0
  -31.3979  -21.5903   20.3078 H   0  0  0  0  0  0
  -30.3576  -21.6932   18.9119 H   0  0  0  0  0  0
  -28.5500  -24.1945   16.8095 H   0  0  0  0  0  0
  -29.9860  -23.8997   17.7661 H   0  0  0  0  0  0
  -29.0409  -25.3812   18.0049 H   0  0  0  0  0  0
  -28.5197  -25.1757   21.7475 H   0  0  0  0  0  0
  -27.0126  -25.0262   20.9686 H   0  0  0  0  0  0
  -28.8796  -15.5060   21.0262 H   0  0  0  0  0  0
  1 25  1  0  0  0
  1 30  2  0  0  0
  1 83  1  0  0  0
  2  3  1  0  0  0
  2 25  1  0  0  0
  2 86  1  0  0  0
  2 87  1  0  0  0
  3  4  1  0  0  0
  3 88  1  0  0  0
  3 89  1  0  0  0
  4  5  1  0  0  0
  4 90  1  0  0  0
  4 91  1  0  0  0
  5  6  1  0  0  0
  5 26  1  0  0  0
  5 92  1  0  0  0
  6 25  1  0  0  0
  6 93  1  0  0  0
  6 94  1  0  0  0
  7  8  2  0  0  0
  7 26  1  0  0  0
  7 29  1  0  0  0
  8  9  1  0  0  0
  8 22  1  0  0  0
  9 10  1  0  0  0
  9 27  2  0  0  0
 10 11  2  0  0  0
 10 15  1  0  0  0
 11 12  1  0  0  0
 11 95  1  0  0  0
 12 13  2  0  0  0
 12 96  1  0  0  0
 13 14  1  0  0  0
 13 31  1  0  0  0
 14 15  2  0  0  0
 14 97  1  0  0  0
 15 98  1  0  0  0
 16 17  2  0  0  0
 16 21  1  0  0  0
 16 31  1  0  0  0
 17 18  1  0  0  0
 17 99  1  0  0  0
 18 19  2  0  0  0
 18100  1  0  0  0
 19 20  1  0  0  0
 19 24  1  0  0  0
 20 21  2  0  0  0
 20101  1  0  0  0
 21 23  1  0  0  0
 22 28  1  0  0  0
 22 32  2  0  0  0
 26 27  1  0  0  0
 28102  1  0  0  0
 28103  1  0  0  0
 29104  1  0  0  0
 29105  1  0  0  0
 33 34  1  0  0  0
 33 66  1  0  0  0
 33 70  2  0  0  0
 34 36  1  0  0  0
 34 59  1  0  0  0
 34106  1  0  0  0
 35 44  2  0  0  0
 35 45  1  0  0  0
 35 68  1  0  0  0
 36 56  1  0  0  0
 36107  1  0  0  0
 37 39  1  0  0  0
 37 47  1  0  0  0
 37 66  1  0  0  0
 37108  1  0  0  0
 38 43  2  0  0  0
 38 46  1  0  0  0
 38 47  1  0  0  0
 39 64  1  0  0  0
 39 67  2  0  0  0
 40 52  1  0  0  0
 40 53  2  0  0  0
 40 58  1  0  0  0
 41109  1  0  0  0
 41110  1  0  0  0
 41111  1  0  0  0
 41 48  1  0  0  0
 42 43  1  0  0  0
 42 66  1  0  0  0
 42112  1  0  0  0
 42113  1  0  0  0
 43 44  1  0  0  0
 44114  1  0  0  0
 45 46  2  0  0  0
 45115  1  0  0  0
 46116  1  0  0  0
 47117  1  0  0  0
 47118  1  0  0  0
 48 56  1  0  0  0
 48 65  1  0  0  0
 48119  1  0  0  0
 49 50  1  0  0  0
 49 53  1  0  0  0
 49 64  1  0  0  0
 49120  1  0  0  0
 50 51  1  0  0  0
 50121  1  0  0  0
 50122  1  0  0  0
 51 52  1  0  0  0
 51123  1  0  0  0
 51124  1  0  0  0
 52125  1  0  0  0
 52126  1  0  0  0
 53 54  1  0  0  0
 54 55  2  0  0  0
 54127  1  0  0  0
 55 57  1  0  0  0
 55128  1  0  0  0
 56 69  2  0  0  0
 57 58  2  0  0  0
 57129  1  0  0  0
 58130  1  0  0  0
 59 60  1  0  0  0
 59 61  1  0  0  0
 59 62  1  0  0  0
 60131  1  0  0  0
 60132  1  0  0  0
 60133  1  0  0  0
 61134  1  0  0  0
 61135  1  0  0  0
 61136  1  0  0  0
 62137  1  0  0  0
 62138  1  0  0  0
 62139  1  0  0  0
 63 65  1  0  0  0
 63140  1  0  0  0
 63141  1  0  0  0
 63142  1  0  0  0
 64143  1  0  0  0
 65144  1  0  0  0
 68 80  1  0  0  0
 71 72  1  0  0  0
 71 73  2  0  0  0
 71145  1  0  0  0
 72 81  2  0  0  0
 72 82  1  0  0  0
 73 83  1  0  0  0
 73 84  1  0  0  0
 74 76  1  0  0  0
 74 78  1  0  0  0
 74146  1  0  0  0
 74147  1  0  0  0
 75 77  1  0  0  0
 75 78  1  0  0  0
 75148  1  0  0  0
 75149  1  0  0  0
 76 82  1  0  0  0
 76150  1  0  0  0
 76151  1  0  0  0
 77 82  1  0  0  0
 77152  1  0  0  0
 77153  1  0  0  0
 78 80  1  0  0  0
 78 85  1  0  0  0
 79 85  1  0  0  0
 79154  1  0  0  0
 79155  1  0  0  0
 79156  1  0  0  0
 80157  1  0  0  0
 80158  1  0  0  0
 81 84  1  0  0  0
 83159  1  0  0  0
M  ISO  4   1 100  68 101  80 101  83 100
M  END
> <chiral flag>
0

> <version>
0

> <s_m_source_file>
/data/baiqing/PycharmProjects/Reinvent-master-3.2/result/LINK_invent/BTK/process_docking_weight1_custom_product_contain_oxygen_bond_distance_aromatic_linkinvent_7_9_3/rearranged_h_0158.sdf

> <i_m_source_file_index>
73

> <r_mmod_Potential_Energy-OPLS-2005>
2.14860224723816

> <r_mmod_Stretch_Energy-OPLS-2005>
79.9090042114258

> <r_mmod_Bend_Energy-OPLS-2005>
168.07536315918

> <r_mmod_Torsional_Energy-OPLS-2005>
257.627593994141

> <r_mmod_Improper_Torsional_Energy-OPLS-2005>
7.6627779006958

> <r_mmod_Van_der_Waal_Energy-OPLS-2005>
130.65608215332

> <r_mmod_Electrostatic_Energy-OPLS-2005>
-444.046813964844

> <r_mmod_Solvation_Energy-OPLS-2005>
-252.181442260742

> <b_mmod_Minimization_Converged-OPLS-2005>
0

> <r_mmod_RMS_Derivative-OPLS-2005>
2.08237552642822

$$$$
73
                    3D
 Structure written by MMmdl.
150158  0  0  1  0            999 V2000
  -30.6378  -14.7562   20.4372 C   0  0  0  0  0  0
  -30.4324  -12.4566   19.4764 C   0  0  0  0  0  0
  -29.5163  -12.4774   18.2359 C   0  0  0  0  0  0
  -28.0400  -12.3141   18.6506 C   0  0  0  0  0  0
  -27.6404  -13.2316   19.8376 C   0  0  2  0  0  0
  -28.6849  -13.2018   20.9707 C   0  0  0  0  0  0
  -25.2525  -13.8202   20.5687 C   0  0  0  0  0  0
  -24.1827  -13.0452   20.9231 C   0  0  0  0  0  0
  -24.6430  -11.6933   20.8763 C   0  0  0  0  0  0
  -23.9114  -10.4310   21.0429 C   0  0  0  0  0  0
  -24.3665   -9.4215   21.9197 C   0  0  0  0  0  0
  -23.6350   -8.2241   22.0748 C   0  0  0  0  0  0
  -22.4316   -8.0289   21.3558 C   0  0  0  0  0  0
  -21.9969   -9.0257   20.4645 C   0  0  0  0  0  0
  -22.7298  -10.2144   20.3064 C   0  0  0  0  0  0
  -21.6857   -6.0759   22.5296 C   0  0  0  0  0  0
  -21.3990   -6.5667   23.8229 C   0  0  0  0  0  0
  -21.3643   -5.6815   24.9199 C   0  0  0  0  0  0
  -21.6049   -4.3082   24.7250 C   0  0  0  0  0  0
  -21.8811   -3.8180   23.4371 C   0  0  0  0  0  0
  -21.9192   -4.6989   22.3426 C   0  0  0  0  0  0
  -22.7854  -13.5225   21.1875 C   0  0  0  0  0  0
  -22.1670   -4.2164   21.1008 F   0  0  0  0  0  0
  -21.5623   -3.4564   25.7768 F   0  0  0  0  0  0
  -29.9793  -13.5462   20.3728 N   0  0  0  0  0  0
  -26.2942  -12.9411   20.3229 N   0  0  0  0  0  0
  -25.9346  -11.6556   20.5733 N   0  0  0  0  0  0
  -22.0495  -12.8202   22.0423 N   0  0  0  0  0  0
  -25.4246  -15.1910   20.4037 N   0  0  0  0  0  0
  -31.8440  -14.7680   20.1796 O   0  0  0  0  0  0
  -21.6665   -6.8896   21.4261 O   0  0  0  0  0  0
  -22.3538  -14.5516   20.6700 O   0  0  0  0  0  0
  -24.6306  -31.8560   23.1919 C   0  0  0  0  0  0
  -25.9151  -32.4741   23.8256 C   0  0  1  0  0  0
  -27.2160  -27.2557   20.1542 C   0  0  0  0  0  0
  -25.5983  -33.8528   24.2206 N   0  0  0  0  0  0
  -23.4270  -30.4754   21.5323 C   0  0  2  0  0  0
  -24.8759  -28.9121   20.1117 C   0  0  0  0  0  0
  -22.7477  -29.4620   22.4847 C   0  0  0  0  0  0
  -18.0282  -28.1427   22.8509 C   0  0  0  0  0  0
  -24.1487  -36.7229   23.2626 C   0  0  0  0  0  0
  -25.9703  -30.7676   21.3723 C   0  0  0  0  0  0
  -26.0457  -29.3846   20.7227 C   0  0  0  0  0  0
  -27.2219  -28.5674   20.7373 C   0  0  0  0  0  0
  -26.0312  -26.8426   19.5179 C   0  0  0  0  0  0
  -24.8715  -27.6460   19.4996 C   0  0  0  0  0  0
  -23.6478  -29.8015   20.1506 C   0  0  0  0  0  0
  -25.4107  -36.3031   24.0329 C   0  0  1  0  0  0
  -20.5901  -28.3726   23.1262 C   0  0  2  0  0  0
  -20.6788  -26.9446   22.5414 C   0  0  0  0  0  0
  -19.5756  -26.6411   21.5222 C   0  0  0  0  0  0
  -18.1926  -26.7969   22.1635 C   0  0  0  0  0  0
  -19.1554  -28.8878   23.2879 C   0  0  0  0  0  0
  -18.9471  -30.1486   23.8885 C   0  0  0  0  0  0
  -17.6471  -30.6610   24.0574 C   0  0  0  0  0  0
  -25.9077  -34.9431   23.5064 C   0  0  0  0  0  0
  -16.5355  -29.9120   23.6350 C   0  0  0  0  0  0
  -16.7273  -28.6543   23.0380 C   0  0  0  0  0  0
  -26.4535  -31.6577   25.0649 C   0  0  0  0  0  0
  -25.3767  -31.3785   26.1371 C   0  0  0  0  0  0
  -27.0378  -30.2994   24.6162 C   0  0  0  0  0  0
  -27.6059  -32.4343   25.7428 C   0  0  0  0  0  0
  -27.5598  -37.1688   24.8410 C   0  0  0  0  0  0
  -21.4185  -29.3076   22.3606 N   0  0  0  0  0  0
  -26.4221  -37.3790   23.9508 N   0  0  0  0  0  0
  -24.6945  -31.0541   22.0884 N   0  0  0  0  0  0
  -23.4161  -28.8189   23.2979 O   0  0  0  0  0  0
  -28.2997  -26.3530   20.1621 O   0  0  0  0  0  0
  -26.5619  -34.8948   22.4613 O   0  0  0  0  0  0
  -23.5473  -32.1375   23.7244 O   0  0  0  0  0  0
  -28.2134  -20.3776   19.6082 C   0  0  0  0  0  0
  -28.5285  -18.9483   19.5684 C   0  0  0  0  0  0
  -29.5374  -18.5470   20.4309 C   0  0  0  0  0  0
  -28.9360  -21.1603   20.4895 C   0  0  0  0  0  0
  -30.3797  -17.2484   20.6424 C   0  0  0  0  0  0
  -28.4081  -23.6478   20.1136 C   0  0  0  0  0  0
  -27.8143  -18.0228   18.6232 C   0  0  0  0  0  0
  -28.1259  -25.0372   20.8765 C   0  0  0  0  0  0
  -28.8228  -22.5247   20.8207 N   0  0  0  0  0  0
  -29.9014  -15.9430   20.5368 N   0  0  0  0  0  0
  -31.5654  -17.4515   20.9249 O   0  0  0  0  0  0
  -28.2292  -23.5966   18.8945 O   0  0  0  0  0  0
  -30.0613  -20.0305   21.2978 S   0  0  0  0  0  0
  -31.4731  -12.5731   19.1679 H   0  0  0  0  0  0
  -30.3798  -11.4939   19.9874 H   0  0  0  0  0  0
  -29.7986  -11.6763   17.5517 H   0  0  0  0  0  0
  -29.6548  -13.4142   17.6905 H   0  0  0  0  0  0
  -27.8971  -11.2693   18.9296 H   0  0  0  0  0  0
  -27.3872  -12.4927   17.7953 H   0  0  0  0  0  0
  -27.6264  -14.2437   19.4334 H   0  0  0  0  0  0
  -28.7222  -12.2207   21.4442 H   0  0  0  0  0  0
  -28.4206  -13.9120   21.7555 H   0  0  0  0  0  0
  -25.2816   -9.5680   22.4766 H   0  0  0  0  0  0
  -24.0068   -7.4615   22.7445 H   0  0  0  0  0  0
  -21.0909   -8.8809   19.8936 H   0  0  0  0  0  0
  -22.3796  -10.9690   19.6166 H   0  0  0  0  0  0
  -21.1960   -7.6174   23.9738 H   0  0  0  0  0  0
  -21.1457   -6.0554   25.9093 H   0  0  0  0  0  0
  -22.0584   -2.7633   23.2891 H   0  0  0  0  0  0
  -22.4173  -11.9922   22.4863 H   0  0  0  0  0  0
  -21.1048  -13.1135   22.2508 H   0  0  0  0  0  0
  -24.6595  -15.8473   20.5013 H   0  0  0  0  0  0
  -26.2681  -15.6181   20.0490 H   0  0  0  0  0  0
  -26.7192  -32.5415   23.0971 H   0  0  0  0  0  0
  -25.0256  -33.9666   25.0444 H   0  0  0  0  0  0
  -22.7284  -31.3009   21.3831 H   0  0  0  0  0  0
  -23.3818  -35.9468   23.3132 H   0  0  0  0  0  0
  -24.3641  -36.9012   22.2070 H   0  0  0  0  0  0
  -23.7100  -37.6341   23.6735 H   0  0  0  0  0  0
  -26.1145  -31.5288   20.6048 H   0  0  0  0  0  0
  -26.8447  -30.8195   22.0089 H   0  0  0  0  0  0
  -28.1107  -28.9213   21.2381 H   0  0  0  0  0  0
  -25.9941  -25.8675   19.0493 H   0  0  0  0  0  0
  -23.9750  -27.2735   19.0227 H   0  0  0  0  0  0
  -23.7779  -30.5731   19.3913 H   0  0  0  0  0  0
  -22.7698  -29.2324   19.8409 H   0  0  0  0  0  0
  -25.1262  -36.1811   25.0801 H   0  0  0  0  0  0
  -21.0012  -28.3318   24.1384 H   0  0  0  0  0  0
  -20.5719  -26.2340   23.3625 H   0  0  0  0  0  0
  -21.6651  -26.7509   22.1179 H   0  0  0  0  0  0
  -19.6914  -25.6317   21.1273 H   0  0  0  0  0  0
  -19.6703  -27.3204   20.6736 H   0  0  0  0  0  0
  -17.4219  -26.6744   21.4007 H   0  0  0  0  0  0
  -18.0307  -26.0118   22.9025 H   0  0  0  0  0  0
  -19.7951  -30.7320   24.2227 H   0  0  0  0  0  0
  -17.5047  -31.6287   24.5201 H   0  0  0  0  0  0
  -15.5368  -30.3040   23.7691 H   0  0  0  0  0  0
  -15.8688  -28.0871   22.7111 H   0  0  0  0  0  0
  -24.5902  -30.7185   25.7708 H   0  0  0  0  0  0
  -24.9024  -32.3009   26.4730 H   0  0  0  0  0  0
  -25.8075  -30.8991   27.0165 H   0  0  0  0  0  0
  -26.2953  -29.6729   24.1214 H   0  0  0  0  0  0
  -27.4104  -29.7286   25.4673 H   0  0  0  0  0  0
  -27.8826  -30.4275   23.9387 H   0  0  0  0  0  0
  -27.2608  -33.3653   26.1939 H   0  0  0  0  0  0
  -28.3880  -32.6880   25.0257 H   0  0  0  0  0  0
  -28.0715  -31.8524   26.5399 H   0  0  0  0  0  0
  -28.2359  -38.0231   24.7879 H   0  0  0  0  0  0
  -28.1343  -36.2818   24.5685 H   0  0  0  0  0  0
  -27.2435  -37.0659   25.8809 H   0  0  0  0  0  0
  -20.9341  -29.8790   21.6839 H   0  0  0  0  0  0
  -26.0070  -38.2784   24.1809 H   0  0  0  0  0  0
  -27.4371  -20.7858   18.9752 H   0  0  0  0  0  0
  -27.4279  -18.5582   17.7544 H   0  0  0  0  0  0
  -26.9646  -17.5464   19.1084 H   0  0  0  0  0  0
  -28.4643  -17.2348   18.2447 H   0  0  0  0  0  0
  -28.7775  -25.0656   21.7505 H   0  0  0  0  0  0
  -27.1118  -24.9722   21.2739 H   0  0  0  0  0  0
  -29.0878  -22.7356   21.7736 H   0  0  0  0  0  0
  -28.9014  -15.8523   20.4985 H   0  0  0  0  0  0
  1 25  1  0  0  0
  1 30  2  0  0  0
  1 80  1  0  0  0
  2  3  1  0  0  0
  2 25  1  0  0  0
  2 84  1  0  0  0
  2 85  1  0  0  0
  3  4  1  0  0  0
  3 86  1  0  0  0
  3 87  1  0  0  0
  4  5  1  0  0  0
  4 88  1  0  0  0
  4 89  1  0  0  0
  5  6  1  0  0  0
  5 26  1  0  0  0
  5 90  1  0  0  0
  6 25  1  0  0  0
  6 91  1  0  0  0
  6 92  1  0  0  0
  7  8  2  0  0  0
  7 26  1  0  0  0
  7 29  1  0  0  0
  8  9  1  0  0  0
  8 22  1  0  0  0
  9 10  1  0  0  0
  9 27  2  0  0  0
 10 11  2  0  0  0
 10 15  1  0  0  0
 11 12  1  0  0  0
 11 93  1  0  0  0
 12 13  2  0  0  0
 12 94  1  0  0  0
 13 14  1  0  0  0
 13 31  1  0  0  0
 14 15  2  0  0  0
 14 95  1  0  0  0
 15 96  1  0  0  0
 16 17  2  0  0  0
 16 21  1  0  0  0
 16 31  1  0  0  0
 17 18  1  0  0  0
 17 97  1  0  0  0
 18 19  2  0  0  0
 18 98  1  0  0  0
 19 20  1  0  0  0
 19 24  1  0  0  0
 20 21  2  0  0  0
 20 99  1  0  0  0
 21 23  1  0  0  0
 22 28  1  0  0  0
 22 32  2  0  0  0
 26 27  1  0  0  0
 28100  1  0  0  0
 28101  1  0  0  0
 29102  1  0  0  0
 29103  1  0  0  0
 33 34  1  0  0  0
 33 66  1  0  0  0
 33 70  2  0  0  0
 34 36  1  0  0  0
 34 59  1  0  0  0
 34104  1  0  0  0
 35 44  2  0  0  0
 35 45  1  0  0  0
 35 68  1  0  0  0
 36 56  1  0  0  0
 36105  1  0  0  0
 37 39  1  0  0  0
 37 47  1  0  0  0
 37 66  1  0  0  0
 37106  1  0  0  0
 38 43  2  0  0  0
 38 46  1  0  0  0
 38 47  1  0  0  0
 39 64  1  0  0  0
 39 67  2  0  0  0
 40 52  1  0  0  0
 40 53  2  0  0  0
 40 58  1  0  0  0
 41107  1  0  0  0
 41108  1  0  0  0
 41109  1  0  0  0
 41 48  1  0  0  0
 42 43  1  0  0  0
 42 66  1  0  0  0
 42110  1  0  0  0
 42111  1  0  0  0
 43 44  1  0  0  0
 44112  1  0  0  0
 45 46  2  0  0  0
 45113  1  0  0  0
 46114  1  0  0  0
 47115  1  0  0  0
 47116  1  0  0  0
 48 56  1  0  0  0
 48 65  1  0  0  0
 48117  1  0  0  0
 49 50  1  0  0  0
 49 53  1  0  0  0
 49 64  1  0  0  0
 49118  1  0  0  0
 50 51  1  0  0  0
 50119  1  0  0  0
 50120  1  0  0  0
 51 52  1  0  0  0
 51121  1  0  0  0
 51122  1  0  0  0
 52123  1  0  0  0
 52124  1  0  0  0
 53 54  1  0  0  0
 54 55  2  0  0  0
 54125  1  0  0  0
 55 57  1  0  0  0
 55126  1  0  0  0
 56 69  2  0  0  0
 57 58  2  0  0  0
 57127  1  0  0  0
 58128  1  0  0  0
 59 60  1  0  0  0
 59 61  1  0  0  0
 59 62  1  0  0  0
 60129  1  0  0  0
 60130  1  0  0  0
 60131  1  0  0  0
 61132  1  0  0  0
 61133  1  0  0  0
 61134  1  0  0  0
 62135  1  0  0  0
 62136  1  0  0  0
 62137  1  0  0  0
 63 65  1  0  0  0
 63138  1  0  0  0
 63139  1  0  0  0
 63140  1  0  0  0
 64141  1  0  0  0
 65142  1  0  0  0
 68 78  1  0  0  0
 71 72  1  0  0  0
 71 74  2  0  0  0
 71143  1  0  0  0
 72 73  2  0  0  0
 72 77  1  0  0  0
 73 75  1  0  0  0
 73 83  1  0  0  0
 74 79  1  0  0  0
 74 83  1  0  0  0
 75 80  1  0  0  0
 75 81  2  0  0  0
 76 78  1  0  0  0
 76 79  1  0  0  0
 76 82  2  0  0  0
 77144  1  0  0  0
 77145  1  0  0  0
 77146  1  0  0  0
 78147  1  0  0  0
 78148  1  0  0  0
 79149  1  0  0  0
 80150  1  0  0  0
M  ISO  4   1 100  68 101  78 101  80 100
M  END
> <chiral flag>
0

> <version>
0

> <s_m_source_file>
/data/baiqing/PycharmProjects/Reinvent-master-3.2/result/LINK_invent/BTK/process_docking_weight1_custom_product_contain_oxygen_bond_distance_aromatic_linkinvent_7_9_3/rearranged_h_0158.sdf

> <i_m_source_file_index>
74

> <r_mmod_Potential_Energy-OPLS-2005>
94.4817733764648

> <r_mmod_Stretch_Energy-OPLS-2005>
116.284957885742

> <r_mmod_Bend_Energy-OPLS-2005>
175.459579467773

> <r_mmod_Torsional_Energy-OPLS-2005>
262.502136230469

> <r_mmod_Improper_Torsional_Energy-OPLS-2005>
6.52060270309448

> <r_mmod_Van_der_Waal_Energy-OPLS-2005>
116.17936706543

> <r_mmod_Electrostatic_Energy-OPLS-2005>
-418.749114990234

> <r_mmod_Solvation_Energy-OPLS-2005>
-256.649536132812

> <b_mmod_Minimization_Converged-OPLS-2005>
0

> <r_mmod_RMS_Derivative-OPLS-2005>
4.36147928237915

$$$$
74
                    3D
 Structure written by MMmdl.
158167  0  0  1  0            999 V2000
  -30.6643  -14.6133   20.5355 C   0  0  0  0  0  0
  -30.4266  -12.3909   19.4566 C   0  0  0  0  0  0
  -29.4932  -12.4868   18.2319 C   0  0  0  0  0  0
  -28.0220  -12.3198   18.6600 C   0  0  0  0  0  0
  -27.6452  -13.2194   19.8655 C   0  0  2  0  0  0
  -28.6882  -13.1054   20.9987 C   0  0  0  0  0  0
  -25.2500  -13.8200   20.5724 C   0  0  0  0  0  0
  -24.1780  -13.0445   20.9288 C   0  0  0  0  0  0
  -24.6365  -11.6932   20.8840 C   0  0  0  0  0  0
  -23.9059  -10.4302   21.0489 C   0  0  0  0  0  0
  -24.3600   -9.4207   21.9246 C   0  0  0  0  0  0
  -23.6288   -8.2230   22.0774 C   0  0  0  0  0  0
  -22.4273   -8.0280   21.3566 C   0  0  0  0  0  0
  -21.9925   -9.0269   20.4679 C   0  0  0  0  0  0
  -22.7248  -10.2151   20.3122 C   0  0  0  0  0  0
  -21.6846   -6.0774   22.5296 C   0  0  0  0  0  0
  -21.3998   -6.5672   23.8230 C   0  0  0  0  0  0
  -21.3666   -5.6819   24.9193 C   0  0  0  0  0  0
  -21.6023   -4.3077   24.7232 C   0  0  0  0  0  0
  -21.8806   -3.8179   23.4347 C   0  0  0  0  0  0
  -21.9185   -4.7002   22.3411 C   0  0  0  0  0  0
  -22.7815  -13.5264   21.1917 C   0  0  0  0  0  0
  -22.1654   -4.2182   21.0990 F   0  0  0  0  0  0
  -21.5637   -3.4559   25.7749 F   0  0  0  0  0  0
  -30.0021  -13.4220   20.4234 N   0  0  0  0  0  0
  -26.2930  -12.9384   20.3384 N   0  0  0  0  0  0
  -25.9280  -11.6534   20.5844 N   0  0  0  0  0  0
  -22.0422  -12.8269   22.0468 N   0  0  0  0  0  0
  -25.4186  -15.1916   20.4092 N   0  0  0  0  0  0
  -31.8343  -14.7281   20.1602 O   0  0  0  0  0  0
  -21.6612   -6.8905   21.4257 O   0  0  0  0  0  0
  -22.3535  -14.5574   20.6779 O   0  0  0  0  0  0
  -24.6228  -31.8634   23.2065 C   0  0  0  0  0  0
  -25.9088  -32.4803   23.8401 C   0  0  1  0  0  0
  -27.2072  -27.3358   20.1256 C   0  0  0  0  0  0
  -25.5920  -33.8588   24.2350 N   0  0  0  0  0  0
  -23.4140  -30.4895   21.5473 C   0  0  2  0  0  0
  -24.8592  -28.9506   20.1068 C   0  0  0  0  0  0
  -22.7448  -29.4625   22.4923 C   0  0  0  0  0  0
  -18.0271  -28.1338   22.8487 C   0  0  0  0  0  0
  -24.1475  -36.7287   23.2635 C   0  0  0  0  0  0
  -25.9511  -30.8012   21.3722 C   0  0  0  0  0  0
  -26.0265  -29.4289   20.7167 C   0  0  0  0  0  0
  -27.2065  -28.6291   20.7231 C   0  0  0  0  0  0
  -26.0248  -26.9061   19.4868 C   0  0  0  0  0  0
  -24.8578  -27.6923   19.4844 C   0  0  0  0  0  0
  -23.6275  -29.8308   20.1592 C   0  0  0  0  0  0
  -25.4084  -36.3086   24.0351 C   0  0  1  0  0  0
  -20.5876  -28.3637   23.1283 C   0  0  2  0  0  0
  -20.6743  -26.9357   22.5390 C   0  0  0  0  0  0
  -19.5724  -26.6342   21.5183 C   0  0  0  0  0  0
  -18.1913  -26.7891   22.1614 C   0  0  0  0  0  0
  -19.1522  -28.8800   23.2901 C   0  0  0  0  0  0
  -18.9445  -30.1405   23.8927 C   0  0  0  0  0  0
  -17.6447  -30.6562   24.0537 C   0  0  0  0  0  0
  -25.9011  -34.9454   23.5144 C   0  0  0  0  0  0
  -16.5339  -29.9049   23.6307 C   0  0  0  0  0  0
  -16.7262  -28.6443   23.0378 C   0  0  0  0  0  0
  -26.4498  -31.6615   25.0753 C   0  0  0  0  0  0
  -25.3779  -31.3754   26.1529 C   0  0  0  0  0  0
  -27.0337  -30.3049   24.6159 C   0  0  0  0  0  0
  -27.6037  -32.4358   25.7554 C   0  0  0  0  0  0
  -27.5585  -37.1779   24.8446 C   0  0  0  0  0  0
  -21.4154  -29.3034   22.3701 N   0  0  0  0  0  0
  -26.4267  -37.3772   23.9431 N   0  0  0  0  0  0
  -24.6819  -31.0668   22.1002 N   0  0  0  0  0  0
  -23.4202  -28.8146   23.2966 O   0  0  0  0  0  0
  -28.2943  -26.4618   20.1658 O   0  0  0  0  0  0
  -26.5542  -34.8922   22.4686 O   0  0  0  0  0  0
  -23.5395  -32.1390   23.7409 O   0  0  0  0  0  0
  -29.6409  -18.2840   20.9617 C   0  0  0  0  0  0
  -31.4749  -19.5225   21.8987 C   0  0  0  0  0  0
  -31.6816  -17.2302   21.7368 C   0  0  0  0  0  0
  -30.1666  -19.5755   21.3438 C   0  0  0  0  0  0
  -30.4069  -17.0745   21.1534 C   0  0  0  0  0  0
  -28.3022  -22.6883   19.8640 C   0  0  0  0  0  0
  -29.2594  -23.2696   22.0486 C   0  0  0  0  0  0
  -29.1072  -21.3237   19.8838 C   0  0  0  0  0  0
  -30.0776  -21.9546   22.0057 C   0  0  0  0  0  0
  -28.9226  -23.8803   20.6706 C   0  0  0  0  0  0
  -28.0184  -25.1854   20.8531 C   0  0  0  0  0  0
  -32.2050  -18.4125   22.0961 N   0  0  0  0  0  0
  -29.4773  -20.8478   21.2317 N   0  0  0  0  0  0
  -29.9231  -15.7249   20.8508 N   0  0  0  0  0  0
  -30.0660  -24.2398   20.0827 F   0  0  0  0  0  0
  -31.4641  -12.5118   19.1454 H   0  0  0  0  0  0
  -30.3687  -11.4034   19.9139 H   0  0  0  0  0  0
  -29.7535  -11.7234   17.4955 H   0  0  0  0  0  0
  -29.6251  -13.4514   17.7411 H   0  0  0  0  0  0
  -27.8810  -11.2727   18.9287 H   0  0  0  0  0  0
  -27.3520  -12.5101   17.8204 H   0  0  0  0  0  0
  -27.6578  -14.2451   19.4960 H   0  0  0  0  0  0
  -28.6918  -12.1016   21.4286 H   0  0  0  0  0  0
  -28.4368  -13.7793   21.8167 H   0  0  0  0  0  0
  -25.2722   -9.5669   22.4845 H   0  0  0  0  0  0
  -23.9996   -7.4623   22.7472 H   0  0  0  0  0  0
  -21.0873   -8.8836   19.8964 H   0  0  0  0  0  0
  -22.3750  -10.9723   19.6260 H   0  0  0  0  0  0
  -21.1972   -7.6176   23.9756 H   0  0  0  0  0  0
  -21.1506   -6.0548   25.9110 H   0  0  0  0  0  0
  -22.0565   -2.7635   23.2846 H   0  0  0  0  0  0
  -22.3975  -11.9892   22.4818 H   0  0  0  0  0  0
  -21.1064  -13.1362   22.2683 H   0  0  0  0  0  0
  -24.6415  -15.8384   20.5016 H   0  0  0  0  0  0
  -26.2503  -15.6273   20.0301 H   0  0  0  0  0  0
  -26.7162  -32.5536   23.1171 H   0  0  0  0  0  0
  -25.0162  -33.9747   25.0564 H   0  0  0  0  0  0
  -22.7036  -31.3082   21.4115 H   0  0  0  0  0  0
  -23.3748  -35.9611   23.3290 H   0  0  0  0  0  0
  -24.3570  -36.8885   22.2046 H   0  0  0  0  0  0
  -23.7225  -37.6491   23.6640 H   0  0  0  0  0  0
  -26.0666  -31.5634   20.5999 H   0  0  0  0  0  0
  -26.8356  -30.8612   21.9947 H   0  0  0  0  0  0
  -28.0957  -28.9794   21.2263 H   0  0  0  0  0  0
  -25.9933  -25.9370   19.0078 H   0  0  0  0  0  0
  -23.9594  -27.3229   19.0069 H   0  0  0  0  0  0
  -23.7396  -30.6138   19.4070 H   0  0  0  0  0  0
  -22.7478  -29.2567   19.8637 H   0  0  0  0  0  0
  -25.1254  -36.1926   25.0839 H   0  0  0  0  0  0
  -20.9974  -28.3176   24.1399 H   0  0  0  0  0  0
  -20.5545  -26.2239   23.3577 H   0  0  0  0  0  0
  -21.6629  -26.7317   22.1250 H   0  0  0  0  0  0
  -19.6869  -25.6237   21.1232 H   0  0  0  0  0  0
  -19.6698  -27.3138   20.6709 H   0  0  0  0  0  0
  -17.4166  -26.6628   21.4035 H   0  0  0  0  0  0
  -18.0347  -26.0018   22.8998 H   0  0  0  0  0  0
  -19.7917  -30.7198   24.2348 H   0  0  0  0  0  0
  -17.4992  -31.6262   24.5096 H   0  0  0  0  0  0
  -15.5333  -30.2959   23.7595 H   0  0  0  0  0  0
  -15.8664  -28.0742   22.7140 H   0  0  0  0  0  0
  -24.5892  -30.7147   25.7918 H   0  0  0  0  0  0
  -24.9058  -32.2937   26.5033 H   0  0  0  0  0  0
  -25.8146  -30.8899   27.0272 H   0  0  0  0  0  0
  -26.2915  -29.6829   24.1130 H   0  0  0  0  0  0
  -27.4017  -29.7254   25.4641 H   0  0  0  0  0  0
  -27.8792  -30.4368   23.9394 H   0  0  0  0  0  0
  -27.2589  -33.3582   26.2255 H   0  0  0  0  0  0
  -28.3821  -32.7064   25.0406 H   0  0  0  0  0  0
  -28.0771  -31.8438   26.5405 H   0  0  0  0  0  0
  -28.2537  -38.0138   24.7563 H   0  0  0  0  0  0
  -28.1155  -36.2670   24.6179 H   0  0  0  0  0  0
  -27.2321  -37.1307   25.8850 H   0  0  0  0  0  0
  -20.9250  -29.8876   21.7074 H   0  0  0  0  0  0
  -26.0157  -38.2826   24.1509 H   0  0  0  0  0  0
  -28.6491  -18.2159   20.5425 H   0  0  0  0  0  0
  -32.0039  -20.4081   22.2110 H   0  0  0  0  0  0
  -32.3139  -16.3885   21.9745 H   0  0  0  0  0  0
  -27.2963  -22.4932   20.2378 H   0  0  0  0  0  0
  -28.1683  -22.9972   18.8267 H   0  0  0  0  0  0
  -29.8367  -24.0057   22.6105 H   0  0  0  0  0  0
  -28.3381  -23.1047   22.6117 H   0  0  0  0  0  0
  -28.5151  -20.5538   19.3865 H   0  0  0  0  0  0
  -30.0180  -21.4404   19.2939 H   0  0  0  0  0  0
  -30.2434  -21.6347   23.0354 H   0  0  0  0  0  0
  -31.0497  -22.1975   21.5758 H   0  0  0  0  0  0
  -28.0861  -25.4768   21.9018 H   0  0  0  0  0  0
  -26.9789  -24.8713   20.7566 H   0  0  0  0  0  0
  -28.9248  -15.5854   20.8990 H   0  0  0  0  0  0
  1 25  1  0  0  0
  1 30  2  0  0  0
  1 84  1  0  0  0
  2  3  1  0  0  0
  2 25  1  0  0  0
  2 86  1  0  0  0
  2 87  1  0  0  0
  3  4  1  0  0  0
  3 88  1  0  0  0
  3 89  1  0  0  0
  4  5  1  0  0  0
  4 90  1  0  0  0
  4 91  1  0  0  0
  5  6  1  0  0  0
  5 26  1  0  0  0
  5 92  1  0  0  0
  6 25  1  0  0  0
  6 93  1  0  0  0
  6 94  1  0  0  0
  7  8  2  0  0  0
  7 26  1  0  0  0
  7 29  1  0  0  0
  8  9  1  0  0  0
  8 22  1  0  0  0
  9 10  1  0  0  0
  9 27  2  0  0  0
 10 11  2  0  0  0
 10 15  1  0  0  0
 11 12  1  0  0  0
 11 95  1  0  0  0
 12 13  2  0  0  0
 12 96  1  0  0  0
 13 14  1  0  0  0
 13 31  1  0  0  0
 14 15  2  0  0  0
 14 97  1  0  0  0
 15 98  1  0  0  0
 16 17  2  0  0  0
 16 21  1  0  0  0
 16 31  1  0  0  0
 17 18  1  0  0  0
 17 99  1  0  0  0
 18 19  2  0  0  0
 18100  1  0  0  0
 19 20  1  0  0  0
 19 24  1  0  0  0
 20 21  2  0  0  0
 20101  1  0  0  0
 21 23  1  0  0  0
 22 28  1  0  0  0
 22 32  2  0  0  0
 26 27  1  0  0  0
 28102  1  0  0  0
 28103  1  0  0  0
 29104  1  0  0  0
 29105  1  0  0  0
 33 34  1  0  0  0
 33 66  1  0  0  0
 33 70  2  0  0  0
 34 36  1  0  0  0
 34 59  1  0  0  0
 34106  1  0  0  0
 35 44  2  0  0  0
 35 45  1  0  0  0
 35 68  1  0  0  0
 36 56  1  0  0  0
 36107  1  0  0  0
 37 39  1  0  0  0
 37 47  1  0  0  0
 37 66  1  0  0  0
 37108  1  0  0  0
 38 43  2  0  0  0
 38 46  1  0  0  0
 38 47  1  0  0  0
 39 64  1  0  0  0
 39 67  2  0  0  0
 40 52  1  0  0  0
 40 53  2  0  0  0
 40 58  1  0  0  0
 41109  1  0  0  0
 41110  1  0  0  0
 41111  1  0  0  0
 41 48  1  0  0  0
 42 43  1  0  0  0
 42 66  1  0  0  0
 42112  1  0  0  0
 42113  1  0  0  0
 43 44  1  0  0  0
 44114  1  0  0  0
 45 46  2  0  0  0
 45115  1  0  0  0
 46116  1  0  0  0
 47117  1  0  0  0
 47118  1  0  0  0
 48 56  1  0  0  0
 48 65  1  0  0  0
 48119  1  0  0  0
 49 50  1  0  0  0
 49 53  1  0  0  0
 49 64  1  0  0  0
 49120  1  0  0  0
 50 51  1  0  0  0
 50121  1  0  0  0
 50122  1  0  0  0
 51 52  1  0  0  0
 51123  1  0  0  0
 51124  1  0  0  0
 52125  1  0  0  0
 52126  1  0  0  0
 53 54  1  0  0  0
 54 55  2  0  0  0
 54127  1  0  0  0
 55 57  1  0  0  0
 55128  1  0  0  0
 56 69  2  0  0  0
 57 58  2  0  0  0
 57129  1  0  0  0
 58130  1  0  0  0
 59 60  1  0  0  0
 59 61  1  0  0  0
 59 62  1  0  0  0
 60131  1  0  0  0
 60132  1  0  0  0
 60133  1  0  0  0
 61134  1  0  0  0
 61135  1  0  0  0
 61136  1  0  0  0
 62137  1  0  0  0
 62138  1  0  0  0
 62139  1  0  0  0
 63 65  1  0  0  0
 63140  1  0  0  0
 63141  1  0  0  0
 63142  1  0  0  0
 64143  1  0  0  0
 65144  1  0  0  0
 68 81  1  0  0  0
 71 74  2  0  0  0
 71 75  1  0  0  0
 71145  1  0  0  0
 72 74  1  0  0  0
 72 82  2  0  0  0
 72146  1  0  0  0
 73 75  2  0  0  0
 73 82  1  0  0  0
 73147  1  0  0  0
 74 83  1  0  0  0
 75 84  1  0  0  0
 76 78  1  0  0  0
 76 80  1  0  0  0
 76148  1  0  0  0
 76149  1  0  0  0
 77 79  1  0  0  0
 77 80  1  0  0  0
 77150  1  0  0  0
 77151  1  0  0  0
 78 83  1  0  0  0
 78152  1  0  0  0
 78153  1  0  0  0
 79 83  1  0  0  0
 79154  1  0  0  0
 79155  1  0  0  0
 80 81  1  0  0  0
 80 85  1  0  0  0
 81156  1  0  0  0
 81157  1  0  0  0
 84158  1  0  0  0
M  ISO  4   1 100  68 101  81 101  84 100
M  END
> <chiral flag>
0

> <version>
0

> <s_m_source_file>
/data/baiqing/PycharmProjects/Reinvent-master-3.2/result/LINK_invent/BTK/process_docking_weight1_custom_product_contain_oxygen_bond_distance_aromatic_linkinvent_7_9_3/rearranged_h_0158.sdf

> <i_m_source_file_index>
75

> <r_mmod_Potential_Energy-OPLS-2005>
31.6953163146973

> <r_mmod_Stretch_Energy-OPLS-2005>
78.4734268188477

> <r_mmod_Bend_Energy-OPLS-2005>
139.399948120117

> <r_mmod_Torsional_Energy-OPLS-2005>
283.679656982422

> <r_mmod_Improper_Torsional_Energy-OPLS-2005>
10.0717926025391

> <r_mmod_Van_der_Waal_Energy-OPLS-2005>
167.517715454102

> <r_mmod_Electrostatic_Energy-OPLS-2005>
-455.341339111328

> <r_mmod_Solvation_Energy-OPLS-2005>
-238.522308349609

> <b_mmod_Minimization_Converged-OPLS-2005>
0

> <r_mmod_RMS_Derivative-OPLS-2005>
4.54498815536499

$$$$
75
                    3D
 Structure written by MMmdl.
151159  0  0  1  0            999 V2000
  -30.5302  -14.7922   20.4832 C   0  0  0  0  0  0
  -30.4621  -12.4894   19.4657 C   0  0  0  0  0  0
  -29.5219  -12.5281   18.2362 C   0  0  0  0  0  0
  -28.0473  -12.3351   18.6486 C   0  0  0  0  0  0
  -27.6512  -13.2190   19.8595 C   0  0  2  0  0  0
  -28.6987  -13.1079   20.9905 C   0  0  0  0  0  0
  -25.2567  -13.8162   20.5692 C   0  0  0  0  0  0
  -24.1836  -13.0431   20.9204 C   0  0  0  0  0  0
  -24.6404  -11.6901   20.8741 C   0  0  0  0  0  0
  -23.9067  -10.4288   21.0406 C   0  0  0  0  0  0
  -24.3617   -9.4203   21.9185 C   0  0  0  0  0  0
  -23.6290   -8.2240   22.0755 C   0  0  0  0  0  0
  -22.4273   -8.0280   21.3545 C   0  0  0  0  0  0
  -21.9908   -9.0255   20.4648 C   0  0  0  0  0  0
  -22.7238  -10.2133   20.3057 C   0  0  0  0  0  0
  -21.6852   -6.0735   22.5279 C   0  0  0  0  0  0
  -21.4014   -6.5639   23.8213 C   0  0  0  0  0  0
  -21.3659   -5.6791   24.9174 C   0  0  0  0  0  0
  -21.6044   -4.3054   24.7225 C   0  0  0  0  0  0
  -21.8819   -3.8146   23.4346 C   0  0  0  0  0  0
  -21.9192   -4.6963   22.3403 C   0  0  0  0  0  0
  -22.7858  -13.5229   21.1860 C   0  0  0  0  0  0
  -22.1661   -4.2149   21.0980 F   0  0  0  0  0  0
  -21.5629   -3.4537   25.7738 F   0  0  0  0  0  0
  -29.9982  -13.5168   20.4271 N   0  0  0  0  0  0
  -26.2985  -12.9338   20.3294 N   0  0  0  0  0  0
  -25.9331  -11.6495   20.5740 N   0  0  0  0  0  0
  -22.0492  -12.8225   22.0412 N   0  0  0  0  0  0
  -25.4280  -15.1886   20.4102 N   0  0  0  0  0  0
  -31.6897  -15.0002   20.1071 O   0  0  0  0  0  0
  -21.6637   -6.8877   21.4240 O   0  0  0  0  0  0
  -22.3551  -14.5537   20.6704 O   0  0  0  0  0  0
  -24.6357  -31.8524   23.1965 C   0  0  0  0  0  0
  -25.9164  -32.4742   23.8322 C   0  0  1  0  0  0
  -27.2221  -27.2223   20.1341 C   0  0  0  0  0  0
  -25.5944  -33.8544   24.2241 N   0  0  0  0  0  0
  -23.4349  -30.4750   21.5408 C   0  0  2  0  0  0
  -24.8837  -28.9176   20.1134 C   0  0  0  0  0  0
  -22.7526  -29.4590   22.4898 C   0  0  0  0  0  0
  -18.0296  -28.1392   22.8482 C   0  0  0  0  0  0
  -24.1491  -36.7276   23.2640 C   0  0  0  0  0  0
  -25.9855  -30.7525   21.3844 C   0  0  0  0  0  0
  -26.0585  -29.3716   20.7265 C   0  0  0  0  0  0
  -27.2303  -28.5387   20.7235 C   0  0  0  0  0  0
  -26.0241  -26.8571   19.4778 C   0  0  0  0  0  0
  -24.8745  -27.6698   19.4764 C   0  0  0  0  0  0
  -23.6568  -29.8093   20.1581 C   0  0  0  0  0  0
  -25.4120  -36.3062   24.0322 C   0  0  1  0  0  0
  -20.5903  -28.3710   23.1256 C   0  0  2  0  0  0
  -20.6784  -26.9423   22.5405 C   0  0  0  0  0  0
  -19.5757  -26.6385   21.5212 C   0  0  0  0  0  0
  -18.1939  -26.7932   22.1625 C   0  0  0  0  0  0
  -19.1551  -28.8868   23.2863 C   0  0  0  0  0  0
  -18.9469  -30.1466   23.8886 C   0  0  0  0  0  0
  -17.6468  -30.6591   24.0560 C   0  0  0  0  0  0
  -25.9063  -34.9433   23.5085 C   0  0  0  0  0  0
  -16.5359  -29.9086   23.6334 C   0  0  0  0  0  0
  -16.7282  -28.6504   23.0355 C   0  0  0  0  0  0
  -26.4512  -31.6581   25.0729 C   0  0  0  0  0  0
  -25.3718  -31.3745   26.1436 C   0  0  0  0  0  0
  -27.0369  -30.2990   24.6254 C   0  0  0  0  0  0
  -27.6057  -32.4331   25.7508 C   0  0  0  0  0  0
  -27.5578  -37.1797   24.8466 C   0  0  0  0  0  0
  -21.4228  -29.3051   22.3641 N   0  0  0  0  0  0
  -26.4291  -37.3764   23.9407 N   0  0  0  0  0  0
  -24.7046  -31.0453   22.0964 N   0  0  0  0  0  0
  -23.4207  -28.8125   23.3009 O   0  0  0  0  0  0
  -28.3034  -26.2923   20.1712 O   0  0  0  0  0  0
  -26.5637  -34.8913   22.4656 O   0  0  0  0  0  0
  -23.5495  -32.1362   23.7233 O   0  0  0  0  0  0
  -30.0805  -18.4759   20.3770 C   0  0  0  0  0  0
  -28.2127  -17.6331   21.4851 C   0  0  0  0  0  0
  -29.3883  -17.2623   20.8777 C   0  0  0  0  0  0
  -29.4211  -19.7192   20.6334 C   0  0  0  0  0  0
  -29.7766  -21.1929   20.4028 C   0  0  0  0  0  0
  -29.1072  -23.6836   20.1728 C   0  0  0  0  0  0
  -28.0026  -24.8092   20.3905 C   0  0  0  0  0  0
  -30.2631  -24.1774   19.6810 N   0  3  0  0  0  0
  -29.6250  -15.7804   20.8579 N   0  0  0  0  0  0
  -31.1008  -21.3963   20.2394 N   0  3  0  0  0  0
  -28.8924  -22.3028   20.4197 N   0  0  0  0  0  0
  -27.9360  -19.3650   21.4871 S   0  0  0  0  0  0
  -31.4938  -12.6650   19.1560 H   0  0  0  0  0  0
  -30.4528  -11.5018   19.9294 H   0  0  0  0  0  0
  -29.8119  -11.7625   17.5153 H   0  0  0  0  0  0
  -29.6324  -13.4853   17.7240 H   0  0  0  0  0  0
  -27.9096  -11.2832   18.9015 H   0  0  0  0  0  0
  -27.3882  -12.5332   17.8026 H   0  0  0  0  0  0
  -27.6541  -14.2469   19.4971 H   0  0  0  0  0  0
  -28.7507  -12.0846   21.3653 H   0  0  0  0  0  0
  -28.4162  -13.7191   21.8491 H   0  0  0  0  0  0
  -25.2762   -9.5677   22.4758 H   0  0  0  0  0  0
  -23.9998   -7.4631   22.7473 H   0  0  0  0  0  0
  -21.0839   -8.8774   19.8955 H   0  0  0  0  0  0
  -22.3698  -10.9672   19.6165 H   0  0  0  0  0  0
  -21.2006   -7.6147   23.9716 H   0  0  0  0  0  0
  -21.1481   -6.0521   25.9078 H   0  0  0  0  0  0
  -22.0599   -2.7608   23.2846 H   0  0  0  0  0  0
  -22.4098  -11.9883   22.4802 H   0  0  0  0  0  0
  -21.1109  -13.1255   22.2610 H   0  0  0  0  0  0
  -24.6482  -15.8317   20.4945 H   0  0  0  0  0  0
  -26.2514  -15.6184   20.0088 H   0  0  0  0  0  0
  -26.7230  -32.5380   23.1060 H   0  0  0  0  0  0
  -25.0083  -33.9676   25.0381 H   0  0  0  0  0  0
  -22.7336  -31.2988   21.3926 H   0  0  0  0  0  0
  -23.3756  -35.9606   23.3298 H   0  0  0  0  0  0
  -24.3579  -36.8906   22.2055 H   0  0  0  0  0  0
  -23.7241  -37.6474   23.6670 H   0  0  0  0  0  0
  -26.1308  -31.5113   20.6142 H   0  0  0  0  0  0
  -26.8602  -30.8013   22.0213 H   0  0  0  0  0  0
  -28.1277  -28.8831   21.2180 H   0  0  0  0  0  0
  -25.9421  -25.9224   18.9468 H   0  0  0  0  0  0
  -23.9803  -27.3223   18.9772 H   0  0  0  0  0  0
  -23.7872  -30.5857   19.4033 H   0  0  0  0  0  0
  -22.7740  -29.2465   19.8495 H   0  0  0  0  0  0
  -25.1304  -36.1904   25.0815 H   0  0  0  0  0  0
  -20.9995  -28.3292   24.1377 H   0  0  0  0  0  0
  -20.5684  -26.2322   23.3615 H   0  0  0  0  0  0
  -21.6650  -26.7443   22.1199 H   0  0  0  0  0  0
  -19.6919  -25.6292   21.1251 H   0  0  0  0  0  0
  -19.6693  -27.3187   20.6734 H   0  0  0  0  0  0
  -17.4207  -26.6674   21.4030 H   0  0  0  0  0  0
  -18.0343  -26.0078   22.9027 H   0  0  0  0  0  0
  -19.7944  -30.7285   24.2253 H   0  0  0  0  0  0
  -17.5021  -31.6271   24.5163 H   0  0  0  0  0  0
  -15.5358  -30.2984   23.7664 H   0  0  0  0  0  0
  -15.8681  -28.0818   22.7078 H   0  0  0  0  0  0
  -24.5900  -30.7089   25.7758 H   0  0  0  0  0  0
  -24.8901  -32.2918   26.4831 H   0  0  0  0  0  0
  -25.8017  -30.8939   27.0233 H   0  0  0  0  0  0
  -26.2969  -29.6727   24.1258 H   0  0  0  0  0  0
  -27.4008  -29.7270   25.4799 H   0  0  0  0  0  0
  -27.8865  -30.4251   23.9539 H   0  0  0  0  0  0
  -27.2660  -33.3641   26.2058 H   0  0  0  0  0  0
  -28.3883  -32.6874   25.0348 H   0  0  0  0  0  0
  -28.0708  -31.8473   26.5448 H   0  0  0  0  0  0
  -28.2594  -38.0096   24.7512 H   0  0  0  0  0  0
  -28.1075  -36.2626   24.6296 H   0  0  0  0  0  0
  -27.2293  -37.1449   25.8868 H   0  0  0  0  0  0
  -20.9422  -29.8776   21.6841 H   0  0  0  0  0  0
  -26.0166  -38.2837   24.1405 H   0  0  0  0  0  0
  -31.0284  -18.3952   19.8646 H   0  0  0  0  0  0
  -27.4647  -17.0013   21.9513 H   0  0  0  0  0  0
  -27.6473  -24.7170   21.4176 H   0  0  0  0  0  0
  -27.1667  -24.4965   19.7711 H   0  0  0  0  0  0
  -30.3141  -25.1804   19.5711 H   0  0  0  0  0  0
  -30.8983  -23.6199   19.1332 H   0  0  0  0  0  0
  -28.8095  -15.2897   21.1888 H   0  0  0  0  0  0
  -31.7143  -20.5974   20.2233 H   0  0  0  0  0  0
  -31.5339  -22.2896   20.4119 H   0  0  0  0  0  0
  -27.9439  -22.0747   20.6587 H   0  0  0  0  0  0
  1 25  1  0  0  0
  1 30  2  0  0  0
  1 79  1  0  0  0
  2  3  1  0  0  0
  2 25  1  0  0  0
  2 83  1  0  0  0
  2 84  1  0  0  0
  3  4  1  0  0  0
  3 85  1  0  0  0
  3 86  1  0  0  0
  4  5  1  0  0  0
  4 87  1  0  0  0
  4 88  1  0  0  0
  5  6  1  0  0  0
  5 26  1  0  0  0
  5 89  1  0  0  0
  6 25  1  0  0  0
  6 90  1  0  0  0
  6 91  1  0  0  0
  7  8  2  0  0  0
  7 26  1  0  0  0
  7 29  1  0  0  0
  8  9  1  0  0  0
  8 22  1  0  0  0
  9 10  1  0  0  0
  9 27  2  0  0  0
 10 11  2  0  0  0
 10 15  1  0  0  0
 11 12  1  0  0  0
 11 92  1  0  0  0
 12 13  2  0  0  0
 12 93  1  0  0  0
 13 14  1  0  0  0
 13 31  1  0  0  0
 14 15  2  0  0  0
 14 94  1  0  0  0
 15 95  1  0  0  0
 16 17  2  0  0  0
 16 21  1  0  0  0
 16 31  1  0  0  0
 17 18  1  0  0  0
 17 96  1  0  0  0
 18 19  2  0  0  0
 18 97  1  0  0  0
 19 20  1  0  0  0
 19 24  1  0  0  0
 20 21  2  0  0  0
 20 98  1  0  0  0
 21 23  1  0  0  0
 22 28  1  0  0  0
 22 32  2  0  0  0
 26 27  1  0  0  0
 28 99  1  0  0  0
 28100  1  0  0  0
 29101  1  0  0  0
 29102  1  0  0  0
 33 34  1  0  0  0
 33 66  1  0  0  0
 33 70  2  0  0  0
 34 36  1  0  0  0
 34 59  1  0  0  0
 34103  1  0  0  0
 35 44  2  0  0  0
 35 45  1  0  0  0
 35 68  1  0  0  0
 36 56  1  0  0  0
 36104  1  0  0  0
 37 39  1  0  0  0
 37 47  1  0  0  0
 37 66  1  0  0  0
 37105  1  0  0  0
 38 43  2  0  0  0
 38 46  1  0  0  0
 38 47  1  0  0  0
 39 64  1  0  0  0
 39 67  2  0  0  0
 40 52  1  0  0  0
 40 53  2  0  0  0
 40 58  1  0  0  0
 41106  1  0  0  0
 41107  1  0  0  0
 41108  1  0  0  0
 41 48  1  0  0  0
 42 43  1  0  0  0
 42 66  1  0  0  0
 42109  1  0  0  0
 42110  1  0  0  0
 43 44  1  0  0  0
 44111  1  0  0  0
 45 46  2  0  0  0
 45112  1  0  0  0
 46113  1  0  0  0
 47114  1  0  0  0
 47115  1  0  0  0
 48 56  1  0  0  0
 48 65  1  0  0  0
 48116  1  0  0  0
 49 50  1  0  0  0
 49 53  1  0  0  0
 49 64  1  0  0  0
 49117  1  0  0  0
 50 51  1  0  0  0
 50118  1  0  0  0
 50119  1  0  0  0
 51 52  1  0  0  0
 51120  1  0  0  0
 51121  1  0  0  0
 52122  1  0  0  0
 52123  1  0  0  0
 53 54  1  0  0  0
 54 55  2  0  0  0
 54124  1  0  0  0
 55 57  1  0  0  0
 55125  1  0  0  0
 56 69  2  0  0  0
 57 58  2  0  0  0
 57126  1  0  0  0
 58127  1  0  0  0
 59 60  1  0  0  0
 59 61  1  0  0  0
 59 62  1  0  0  0
 60128  1  0  0  0
 60129  1  0  0  0
 60130  1  0  0  0
 61131  1  0  0  0
 61132  1  0  0  0
 61133  1  0  0  0
 62134  1  0  0  0
 62135  1  0  0  0
 62136  1  0  0  0
 63 65  1  0  0  0
 63137  1  0  0  0
 63138  1  0  0  0
 63139  1  0  0  0
 64140  1  0  0  0
 65141  1  0  0  0
 68 77  1  0  0  0
 71 73  1  0  0  0
 71 74  2  0  0  0
 71142  1  0  0  0
 72 73  2  0  0  0
 72 82  1  0  0  0
 72143  1  0  0  0
 73 79  1  0  0  0
 74 75  1  0  0  0
 74 82  1  0  0  0
 75 80  2  0  0  0
 75 81  1  0  0  0
 76 77  1  0  0  0
 76 78  2  0  0  0
 76 81  1  0  0  0
 77144  1  0  0  0
 77145  1  0  0  0
 78146  1  0  0  0
 78147  1  0  0  0
 79148  1  0  0  0
 80149  1  0  0  0
 80150  1  0  0  0
 81151  1  0  0  0
M  CHG  2  78   1  80   1
M  ISO  4   1 100  68 101  77 101  79 100
M  END
> <chiral flag>
0

> <version>
0

> <s_m_source_file>
/data/baiqing/PycharmProjects/Reinvent-master-3.2/result/LINK_invent/BTK/process_docking_weight1_custom_product_contain_oxygen_bond_distance_aromatic_linkinvent_7_9_3/rearranged_h_0158.sdf

> <i_m_source_file_index>
76

> <r_mmod_Potential_Energy-OPLS-2005>
-208.036636352539

> <r_mmod_Stretch_Energy-OPLS-2005>
156.463973999023

> <r_mmod_Bend_Energy-OPLS-2005>
234.083694458008

> <r_mmod_Torsional_Energy-OPLS-2005>
224.626358032227

> <r_mmod_Improper_Torsional_Energy-OPLS-2005>
6.31682777404785

> <r_mmod_Van_der_Waal_Energy-OPLS-2005>
121.08765411377

> <r_mmod_Electrostatic_Energy-OPLS-2005>
92.1215591430664

> <r_mmod_Solvation_Energy-OPLS-2005>
-1152.90246582031

> <b_mmod_Minimization_Converged-OPLS-2005>
0

> <r_mmod_RMS_Derivative-OPLS-2005>
0.187748491764069

$$$$
76
                    3D
 Structure written by MMmdl.
157166  0  0  1  0            999 V2000
  -30.5497  -14.9037   20.3948 C   0  0  0  0  0  0
  -30.4595  -12.5575   19.4711 C   0  0  0  0  0  0
  -29.5179  -12.5193   18.2412 C   0  0  0  0  0  0
  -28.0422  -12.3267   18.6611 C   0  0  0  0  0  0
  -27.6359  -13.2147   19.8678 C   0  0  2  0  0  0
  -28.7116  -13.1378   20.9750 C   0  0  0  0  0  0
  -25.2319  -13.7833   20.5661 C   0  0  0  0  0  0
  -24.1664  -13.0167   20.9246 C   0  0  0  0  0  0
  -24.6338  -11.6711   20.8842 C   0  0  0  0  0  0
  -23.9021  -10.4150   21.0476 C   0  0  0  0  0  0
  -24.3592   -9.4083   21.9238 C   0  0  0  0  0  0
  -23.6257   -8.2142   22.0792 C   0  0  0  0  0  0
  -22.4240   -8.0216   21.3575 C   0  0  0  0  0  0
  -21.9863   -9.0191   20.4693 C   0  0  0  0  0  0
  -22.7199  -10.2048   20.3111 C   0  0  0  0  0  0
  -21.6813   -6.0693   22.5277 C   0  0  0  0  0  0
  -21.3982   -6.5599   23.8208 C   0  0  0  0  0  0
  -21.3656   -5.6763   24.9175 C   0  0  0  0  0  0
  -21.6051   -4.3029   24.7238 C   0  0  0  0  0  0
  -21.8822   -3.8113   23.4354 C   0  0  0  0  0  0
  -21.9176   -4.6925   22.3405 C   0  0  0  0  0  0
  -22.7694  -13.5040   21.1874 C   0  0  0  0  0  0
  -22.1659   -4.2120   21.0982 F   0  0  0  0  0  0
  -21.5650   -3.4506   25.7743 F   0  0  0  0  0  0
  -29.9774  -13.6240   20.3927 N   0  0  0  0  0  0
  -26.2903  -12.9167   20.3465 N   0  0  0  0  0  0
  -25.9298  -11.6334   20.5907 N   0  0  0  0  0  0
  -22.0317  -12.8143   22.0495 N   0  0  0  0  0  0
  -25.3579  -15.1426   20.3815 N   0  0  0  0  0  0
  -31.7663  -14.9348   20.1739 O   0  0  0  0  0  0
  -21.6606   -6.8826   21.4245 O   0  0  0  0  0  0
  -22.3432  -14.5359   20.6686 O   0  0  0  0  0  0
  -24.6325  -31.8537   23.1981 C   0  0  0  0  0  0
  -25.9130  -32.4751   23.8344 C   0  0  1  0  0  0
  -27.2489  -27.2385   20.1372 C   0  0  0  0  0  0
  -25.5935  -33.8563   24.2285 N   0  0  0  0  0  0
  -23.4335  -30.4696   21.5448 C   0  0  2  0  0  0
  -24.8873  -28.9073   20.1182 C   0  0  0  0  0  0
  -22.7516  -29.4580   22.4971 C   0  0  0  0  0  0
  -18.0289  -28.1388   22.8488 C   0  0  0  0  0  0
  -24.1493  -36.7277   23.2645 C   0  0  0  0  0  0
  -25.9793  -30.7538   21.3857 C   0  0  0  0  0  0
  -26.0560  -29.3713   20.7337 C   0  0  0  0  0  0
  -27.2295  -28.5463   20.7406 C   0  0  0  0  0  0
  -26.0554  -26.8542   19.4792 C   0  0  0  0  0  0
  -24.8933  -27.6561   19.4822 C   0  0  0  0  0  0
  -23.6556  -29.7956   20.1643 C   0  0  0  0  0  0
  -25.4118  -36.3090   24.0349 C   0  0  1  0  0  0
  -20.5886  -28.3701   23.1296 C   0  0  2  0  0  0
  -20.6787  -26.9422   22.5426 C   0  0  0  0  0  0
  -19.5770  -26.6390   21.5224 C   0  0  0  0  0  0
  -18.1940  -26.7930   22.1622 C   0  0  0  0  0  0
  -19.1536  -28.8861   23.2876 C   0  0  0  0  0  0
  -18.9457  -30.1456   23.8894 C   0  0  0  0  0  0
  -17.6452  -30.6587   24.0549 C   0  0  0  0  0  0
  -25.9061  -34.9446   23.5122 C   0  0  0  0  0  0
  -16.5344  -29.9073   23.6331 C   0  0  0  0  0  0
  -16.7270  -28.6492   23.0354 C   0  0  0  0  0  0
  -26.4498  -31.6558   25.0728 C   0  0  0  0  0  0
  -25.3720  -31.3668   26.1441 C   0  0  0  0  0  0
  -27.0343  -30.2984   24.6193 C   0  0  0  0  0  0
  -27.6080  -32.4281   25.7467 C   0  0  0  0  0  0
  -27.5587  -37.1795   24.8475 C   0  0  0  0  0  0
  -21.4226  -29.3038   22.3691 N   0  0  0  0  0  0
  -26.4305  -37.3777   23.9414 N   0  0  0  0  0  0
  -24.7011  -31.0430   22.1002 N   0  0  0  0  0  0
  -23.4185  -28.8147   23.3109 O   0  0  0  0  0  0
  -28.3788  -26.3703   20.1877 O   0  0  0  0  0  0
  -26.5631  -34.8919   22.4691 O   0  0  0  0  0  0
  -23.5469  -32.1400   23.7243 O   0  0  0  0  0  0
  -31.7891  -18.0337   20.9228 C   0  0  0  0  0  0
  -30.5000  -17.7980   20.5048 C   0  0  0  0  0  0
  -30.5788  -20.2383   20.5753 C   0  0  0  0  0  0
  -28.3122  -24.9362   20.0656 C   0  0  0  0  0  0
  -29.2652  -23.9909   20.4491 C   0  0  0  0  0  0
  -29.1177  -22.4789   20.2543 C   0  0  0  0  0  0
  -27.6757  -17.1249   19.1107 C   0  0  0  0  0  0
  -27.4782  -17.3647   20.6179 C   0  0  0  0  0  0
  -29.0658  -16.4739   18.9382 C   0  0  0  0  0  0
  -28.5264  -16.4747   21.3041 C   0  0  0  0  0  0
  -29.7367  -16.3748   20.3358 C   0  0  0  0  0  0
  -29.8653  -19.1054   20.2841 N   0  0  0  0  0  0
  -30.2272  -21.6927   20.5372 N   0  0  0  0  0  0
  -28.0744  -21.9628   19.8514 O   0  0  0  0  0  0
  -30.3751  -24.4445   21.0528 O   0  0  0  0  0  0
  -32.1949  -19.7468   21.0877 S   0  0  0  0  0  0
  -31.4836  -12.7331   19.1399 H   0  0  0  0  0  0
  -30.4786  -11.5891   19.9727 H   0  0  0  0  0  0
  -29.8215  -11.7184   17.5664 H   0  0  0  0  0  0
  -29.6216  -13.4423   17.6698 H   0  0  0  0  0  0
  -27.9159  -11.2777   18.9328 H   0  0  0  0  0  0
  -27.3751  -12.4988   17.8162 H   0  0  0  0  0  0
  -27.5981  -14.2333   19.5006 H   0  0  0  0  0  0
  -28.8145  -12.1004   21.2950 H   0  0  0  0  0  0
  -28.4510  -13.6412   21.9015 H   0  0  0  0  0  0
  -25.2765   -9.5523   22.4772 H   0  0  0  0  0  0
  -24.0002   -7.4535   22.7474 H   0  0  0  0  0  0
  -21.0806   -8.8700   19.8986 H   0  0  0  0  0  0
  -22.3693  -10.9597   19.6207 H   0  0  0  0  0  0
  -21.1970   -7.6112   23.9684 H   0  0  0  0  0  0
  -21.1493   -6.0502   25.9073 H   0  0  0  0  0  0
  -22.0625   -2.7576   23.2857 H   0  0  0  0  0  0
  -22.3907  -11.9836   22.4977 H   0  0  0  0  0  0
  -21.0917  -13.1204   22.2630 H   0  0  0  0  0  0
  -24.5682  -15.7670   20.4938 H   0  0  0  0  0  0
  -26.2151  -15.6148   20.1252 H   0  0  0  0  0  0
  -26.7175  -32.5383   23.1066 H   0  0  0  0  0  0
  -25.0080  -33.9693   25.0429 H   0  0  0  0  0  0
  -22.7320  -31.2929   21.3953 H   0  0  0  0  0  0
  -23.3787  -35.9578   23.3311 H   0  0  0  0  0  0
  -24.3595  -36.8882   22.2059 H   0  0  0  0  0  0
  -23.7197  -37.6468   23.6645 H   0  0  0  0  0  0
  -26.1166  -31.5093   20.6113 H   0  0  0  0  0  0
  -26.8578  -30.8090   22.0163 H   0  0  0  0  0  0
  -28.1184  -28.8992   21.2437 H   0  0  0  0  0  0
  -25.9867  -25.9144   18.9532 H   0  0  0  0  0  0
  -24.0005  -27.2966   18.9885 H   0  0  0  0  0  0
  -23.7786  -30.5719   19.4090 H   0  0  0  0  0  0
  -22.7750  -29.2274   19.8584 H   0  0  0  0  0  0
  -25.1286  -36.1974   25.0844 H   0  0  0  0  0  0
  -20.9938  -28.3253   24.1429 H   0  0  0  0  0  0
  -20.5736  -26.2279   23.3613 H   0  0  0  0  0  0
  -21.6652  -26.7479   22.1186 H   0  0  0  0  0  0
  -19.6948  -25.6309   21.1232 H   0  0  0  0  0  0
  -19.6712  -27.3224   20.6779 H   0  0  0  0  0  0
  -17.4218  -26.6690   21.4007 H   0  0  0  0  0  0
  -18.0330  -26.0061   22.9013 H   0  0  0  0  0  0
  -19.7927  -30.7276   24.2270 H   0  0  0  0  0  0
  -17.5004  -31.6275   24.5150 H   0  0  0  0  0  0
  -15.5345  -30.2967   23.7681 H   0  0  0  0  0  0
  -15.8669  -28.0806   22.7083 H   0  0  0  0  0  0
  -24.5959  -30.6952   25.7749 H   0  0  0  0  0  0
  -24.8838  -32.2803   26.4843 H   0  0  0  0  0  0
  -25.8056  -30.8871   27.0223 H   0  0  0  0  0  0
  -26.2914  -29.6727   24.1241 H   0  0  0  0  0  0
  -27.4061  -29.7247   25.4685 H   0  0  0  0  0  0
  -27.8773  -30.4286   23.9413 H   0  0  0  0  0  0
  -27.2747  -33.3621   26.1995 H   0  0  0  0  0  0
  -28.3885  -32.6758   25.0262 H   0  0  0  0  0  0
  -28.0739  -31.8424   26.5396 H   0  0  0  0  0  0
  -28.2614  -38.0086   24.7531 H   0  0  0  0  0  0
  -28.1078  -36.2619   24.6301 H   0  0  0  0  0  0
  -27.2306  -37.1432   25.8879 H   0  0  0  0  0  0
  -20.9461  -29.8682   21.6794 H   0  0  0  0  0  0
  -26.0212  -38.2867   24.1404 H   0  0  0  0  0  0
  -32.5385  -17.2916   21.1681 H   0  0  0  0  0  0
  -27.4019  -24.5998   19.5986 H   0  0  0  0  0  0
  -27.6134  -18.0664   18.5633 H   0  0  0  0  0  0
  -26.9034  -16.4792   18.6935 H   0  0  0  0  0  0
  -26.4678  -17.2068   20.9815 H   0  0  0  0  0  0
  -27.6333  -18.4125   20.8599 H   0  0  0  0  0  0
  -29.6864  -17.0427   18.2440 H   0  0  0  0  0  0
  -28.9514  -15.5039   18.4618 H   0  0  0  0  0  0
  -28.0309  -15.5384   21.4847 H   0  0  0  0  0  0
  -28.8152  -16.8594   22.2824 H   0  0  0  0  0  0
  -31.0230  -22.2612   20.7730 H   0  0  0  0  0  0
  -30.7331  -23.7396   21.5773 H   0  0  0  0  0  0
  1 25  1  0  0  0
  1 30  2  0  0  0
  1 81  1  0  0  0
  2  3  1  0  0  0
  2 25  1  0  0  0
  2 87  1  0  0  0
  2 88  1  0  0  0
  3  4  1  0  0  0
  3 89  1  0  0  0
  3 90  1  0  0  0
  4  5  1  0  0  0
  4 91  1  0  0  0
  4 92  1  0  0  0
  5  6  1  0  0  0
  5 26  1  0  0  0
  5 93  1  0  0  0
  6 25  1  0  0  0
  6 94  1  0  0  0
  6 95  1  0  0  0
  7  8  2  0  0  0
  7 26  1  0  0  0
  7 29  1  0  0  0
  8  9  1  0  0  0
  8 22  1  0  0  0
  9 10  1  0  0  0
  9 27  2  0  0  0
 10 11  2  0  0  0
 10 15  1  0  0  0
 11 12  1  0  0  0
 11 96  1  0  0  0
 12 13  2  0  0  0
 12 97  1  0  0  0
 13 14  1  0  0  0
 13 31  1  0  0  0
 14 15  2  0  0  0
 14 98  1  0  0  0
 15 99  1  0  0  0
 16 17  2  0  0  0
 16 21  1  0  0  0
 16 31  1  0  0  0
 17 18  1  0  0  0
 17100  1  0  0  0
 18 19  2  0  0  0
 18101  1  0  0  0
 19 20  1  0  0  0
 19 24  1  0  0  0
 20 21  2  0  0  0
 20102  1  0  0  0
 21 23  1  0  0  0
 22 28  1  0  0  0
 22 32  2  0  0  0
 26 27  1  0  0  0
 28103  1  0  0  0
 28104  1  0  0  0
 29105  1  0  0  0
 29106  1  0  0  0
 33 34  1  0  0  0
 33 66  1  0  0  0
 33 70  2  0  0  0
 34 36  1  0  0  0
 34 59  1  0  0  0
 34107  1  0  0  0
 35 44  2  0  0  0
 35 45  1  0  0  0
 35 68  1  0  0  0
 36 56  1  0  0  0
 36108  1  0  0  0
 37 39  1  0  0  0
 37 47  1  0  0  0
 37 66  1  0  0  0
 37109  1  0  0  0
 38 43  2  0  0  0
 38 46  1  0  0  0
 38 47  1  0  0  0
 39 64  1  0  0  0
 39 67  2  0  0  0
 40 52  1  0  0  0
 40 53  2  0  0  0
 40 58  1  0  0  0
 41110  1  0  0  0
 41111  1  0  0  0
 41112  1  0  0  0
 41 48  1  0  0  0
 42 43  1  0  0  0
 42 66  1  0  0  0
 42113  1  0  0  0
 42114  1  0  0  0
 43 44  1  0  0  0
 44115  1  0  0  0
 45 46  2  0  0  0
 45116  1  0  0  0
 46117  1  0  0  0
 47118  1  0  0  0
 47119  1  0  0  0
 48 56  1  0  0  0
 48 65  1  0  0  0
 48120  1  0  0  0
 49 50  1  0  0  0
 49 53  1  0  0  0
 49 64  1  0  0  0
 49121  1  0  0  0
 50 51  1  0  0  0
 50122  1  0  0  0
 50123  1  0  0  0
 51 52  1  0  0  0
 51124  1  0  0  0
 51125  1  0  0  0
 52126  1  0  0  0
 52127  1  0  0  0
 53 54  1  0  0  0
 54 55  2  0  0  0
 54128  1  0  0  0
 55 57  1  0  0  0
 55129  1  0  0  0
 56 69  2  0  0  0
 57 58  2  0  0  0
 57130  1  0  0  0
 58131  1  0  0  0
 59 60  1  0  0  0
 59 61  1  0  0  0
 59 62  1  0  0  0
 60132  1  0  0  0
 60133  1  0  0  0
 60134  1  0  0  0
 61135  1  0  0  0
 61136  1  0  0  0
 61137  1  0  0  0
 62138  1  0  0  0
 62139  1  0  0  0
 62140  1  0  0  0
 63 65  1  0  0  0
 63141  1  0  0  0
 63142  1  0  0  0
 63143  1  0  0  0
 64144  1  0  0  0
 65145  1  0  0  0
 68 74  1  0  0  0
 71 72  2  0  0  0
 71 86  1  0  0  0
 71146  1  0  0  0
 72 81  1  0  0  0
 72 82  1  0  0  0
 73 82  2  0  0  0
 73 83  1  0  0  0
 73 86  1  0  0  0
 74 75  2  0  0  0
 74147  1  0  0  0
 75 76  1  0  0  0
 75 85  1  0  0  0
 76 83  1  0  0  0
 76 84  2  0  0  0
 77 78  1  0  0  0
 77 79  1  0  0  0
 77148  1  0  0  0
 77149  1  0  0  0
 78 80  1  0  0  0
 78150  1  0  0  0
 78151  1  0  0  0
 79 81  1  0  0  0
 79152  1  0  0  0
 79153  1  0  0  0
 80 81  1  0  0  0
 80154  1  0  0  0
 80155  1  0  0  0
 83156  1  0  0  0
 85157  1  0  0  0
M  ISO  4   1 100  68 101  74 101  81 100
M  END
> <chiral flag>
0

> <version>
0

> <s_m_source_file>
/data/baiqing/PycharmProjects/Reinvent-master-3.2/result/LINK_invent/BTK/process_docking_weight1_custom_product_contain_oxygen_bond_distance_aromatic_linkinvent_7_9_3/rearranged_h_0158.sdf

> <i_m_source_file_index>
77

> <r_mmod_Potential_Energy-OPLS-2005>
429.173889160156

> <r_mmod_Stretch_Energy-OPLS-2005>
174.985305786133

> <r_mmod_Bend_Energy-OPLS-2005>
252.554809570312

> <r_mmod_Torsional_Energy-OPLS-2005>
256.578033447266

> <r_mmod_Improper_Torsional_Energy-OPLS-2005>
7.26487398147583

> <r_mmod_Van_der_Waal_Energy-OPLS-2005>
142.389663696289

> <r_mmod_Electrostatic_Energy-OPLS-2005>
-298.094818115234

> <r_mmod_Solvation_Energy-OPLS-2005>
-233.676406860352

> <b_mmod_Minimization_Converged-OPLS-2005>
0

> <r_mmod_RMS_Derivative-OPLS-2005>
2.43359899520874

$$$$
77
                    3D
 Structure written by MMmdl.
162171  0  0  1  0            999 V2000
  -30.6803  -14.5457   20.5983 C   0  0  0  0  0  0
  -30.4382  -12.3594   19.4396 C   0  0  0  0  0  0
  -29.5051  -12.5217   18.2197 C   0  0  0  0  0  0
  -28.0278  -12.3633   18.6281 C   0  0  0  0  0  0
  -27.6613  -13.2127   19.8730 C   0  0  2  0  0  0
  -28.7029  -13.0127   21.0000 C   0  0  0  0  0  0
  -25.2467  -13.8106   20.5523 C   0  0  0  0  0  0
  -24.1794  -13.0381   20.9174 C   0  0  0  0  0  0
  -24.6400  -11.6873   20.8750 C   0  0  0  0  0  0
  -23.9069  -10.4264   21.0412 C   0  0  0  0  0  0
  -24.3616   -9.4185   21.9193 C   0  0  0  0  0  0
  -23.6281   -8.2227   22.0760 C   0  0  0  0  0  0
  -22.4267   -8.0271   21.3544 C   0  0  0  0  0  0
  -21.9901   -9.0247   20.4650 C   0  0  0  0  0  0
  -22.7239  -10.2119   20.3062 C   0  0  0  0  0  0
  -21.6849   -6.0726   22.5276 C   0  0  0  0  0  0
  -21.4013   -6.5634   23.8211 C   0  0  0  0  0  0
  -21.3656   -5.6789   24.9172 C   0  0  0  0  0  0
  -21.6042   -4.3049   24.7228 C   0  0  0  0  0  0
  -21.8818   -3.8142   23.4349 C   0  0  0  0  0  0
  -21.9192   -4.6957   22.3403 C   0  0  0  0  0  0
  -22.7819  -13.5183   21.1841 C   0  0  0  0  0  0
  -22.1662   -4.2142   21.0980 F   0  0  0  0  0  0
  -21.5626   -3.4535   25.7741 F   0  0  0  0  0  0
  -30.0394  -13.3429   20.4654 N   0  0  0  0  0  0
  -26.2998  -12.9346   20.3316 N   0  0  0  0  0  0
  -25.9341  -11.6500   20.5790 N   0  0  0  0  0  0
  -22.0472  -12.8200   22.0424 N   0  0  0  0  0  0
  -25.3887  -15.1793   20.3628 N   0  0  0  0  0  0
  -31.7509  -14.7904   20.0342 O   0  0  0  0  0  0
  -21.6631   -6.8869   21.4239 O   0  0  0  0  0  0
  -22.3505  -14.5493   20.6689 O   0  0  0  0  0  0
  -24.6200  -31.8633   23.2048 C   0  0  0  0  0  0
  -25.9067  -32.4801   23.8366 C   0  0  1  0  0  0
  -27.2396  -27.3826   20.1155 C   0  0  0  0  0  0
  -25.5901  -33.8598   24.2302 N   0  0  0  0  0  0
  -23.4120  -30.4839   21.5461 C   0  0  2  0  0  0
  -24.8616  -28.9385   20.1183 C   0  0  0  0  0  0
  -22.7441  -29.4635   22.4970 C   0  0  0  0  0  0
  -18.0279  -28.1381   22.8489 C   0  0  0  0  0  0
  -24.1486  -36.7306   23.2639 C   0  0  0  0  0  0
  -25.9450  -30.8144   21.3641 C   0  0  0  0  0  0
  -26.0252  -29.4432   20.7138 C   0  0  0  0  0  0
  -27.2201  -28.6766   20.7007 C   0  0  0  0  0  0
  -26.0585  -26.9033   19.5118 C   0  0  0  0  0  0
  -24.8758  -27.6701   19.5113 C   0  0  0  0  0  0
  -23.6249  -29.8111   20.1637 C   0  0  0  0  0  0
  -25.4109  -36.3099   24.0336 C   0  0  1  0  0  0
  -20.5872  -28.3676   23.1303 C   0  0  2  0  0  0
  -20.6769  -26.9408   22.5415 C   0  0  0  0  0  0
  -19.5747  -26.6386   21.5212 C   0  0  0  0  0  0
  -18.1926  -26.7926   22.1623 C   0  0  0  0  0  0
  -19.1529  -28.8845   23.2891 C   0  0  0  0  0  0
  -18.9454  -30.1448   23.8907 C   0  0  0  0  0  0
  -17.6456  -30.6585   24.0565 C   0  0  0  0  0  0
  -25.9039  -34.9466   23.5121 C   0  0  0  0  0  0
  -16.5348  -29.9086   23.6327 C   0  0  0  0  0  0
  -16.7266  -28.6502   23.0349 C   0  0  0  0  0  0
  -26.4480  -31.6587   25.0708 C   0  0  0  0  0  0
  -25.3740  -31.3697   26.1453 C   0  0  0  0  0  0
  -27.0320  -30.3026   24.6104 C   0  0  0  0  0  0
  -27.6052  -32.4312   25.7471 C   0  0  0  0  0  0
  -27.5578  -37.1808   24.8469 C   0  0  0  0  0  0
  -21.4163  -29.3036   22.3706 N   0  0  0  0  0  0
  -26.4296  -37.3784   23.9406 N   0  0  0  0  0  0
  -24.6775  -31.0690   22.0968 N   0  0  0  0  0  0
  -23.4185  -28.8187   23.3040 O   0  0  0  0  0  0
  -28.3825  -26.5954   20.0978 O   0  0  0  0  0  0
  -26.5608  -34.8923   22.4686 O   0  0  0  0  0  0
  -23.5379  -32.1402   23.7413 O   0  0  0  0  0  0
  -27.5932  -18.1540   20.8157 C   0  0  0  0  0  0
  -28.3710  -19.3216   20.7342 C   0  0  0  0  0  0
  -28.2054  -16.9049   21.0153 C   0  0  0  0  0  0
  -30.3899  -17.9637   20.9931 C   0  0  0  0  0  0
  -29.7775  -19.2609   20.8373 C   0  0  0  0  0  0
  -29.6033  -16.7714   21.0806 C   0  0  0  0  0  0
  -28.8568  -24.0913   20.0764 C   0  0  0  0  0  0
  -32.4872  -21.7796   20.0234 C   0  0  0  0  0  0
  -32.0589  -20.4190   20.5426 C   0  0  0  0  0  0
  -31.2344  -22.2447   19.2899 C   0  0  0  0  0  0
  -30.5735  -20.6004   20.9123 C   0  0  1  0  0  0
  -29.4469  -22.9034   20.9145 C   0  0  0  0  0  0
  -28.3058  -25.3397   20.8391 C   0  0  0  0  0  0
  -30.0791  -15.4485   21.4095 N   0  0  0  0  0  0
  -30.0734  -21.7867   20.1016 N   0  3  1  0  0  0
  -28.7860  -24.0268   18.8434 O   0  0  0  0  0  0
  -31.4803  -12.4791   19.1373 H   0  0  0  0  0  0
  -30.3642  -11.3485   19.8440 H   0  0  0  0  0  0
  -29.7588  -11.7904   17.4513 H   0  0  0  0  0  0
  -29.6584  -13.5035   17.7689 H   0  0  0  0  0  0
  -27.8524  -11.3068   18.8359 H   0  0  0  0  0  0
  -27.3768  -12.6192   17.7913 H   0  0  0  0  0  0
  -27.6970  -14.2562   19.5598 H   0  0  0  0  0  0
  -28.6935  -11.9763   21.3405 H   0  0  0  0  0  0
  -28.4336  -13.6034   21.8759 H   0  0  0  0  0  0
  -25.2760   -9.5657   22.4768 H   0  0  0  0  0  0
  -23.9981   -7.4620   22.7485 H   0  0  0  0  0  0
  -21.0829   -8.8772   19.8958 H   0  0  0  0  0  0
  -22.3702  -10.9660   19.6171 H   0  0  0  0  0  0
  -21.2006   -7.6142   23.9710 H   0  0  0  0  0  0
  -21.1479   -6.0520   25.9073 H   0  0  0  0  0  0
  -22.0600   -2.7605   23.2856 H   0  0  0  0  0  0
  -22.4087  -11.9871   22.4828 H   0  0  0  0  0  0
  -21.1096  -13.1241   22.2636 H   0  0  0  0  0  0
  -24.5911  -15.8021   20.4344 H   0  0  0  0  0  0
  -26.1879  -15.6105   19.9177 H   0  0  0  0  0  0
  -26.7139  -32.5500   23.1127 H   0  0  0  0  0  0
  -25.0050  -33.9747   25.0449 H   0  0  0  0  0  0
  -22.7033  -31.3018   21.4020 H   0  0  0  0  0  0
  -23.3740  -35.9650   23.3328 H   0  0  0  0  0  0
  -24.3575  -36.8894   22.2049 H   0  0  0  0  0  0
  -23.7253  -37.6523   23.6639 H   0  0  0  0  0  0
  -26.0617  -31.5767   20.5927 H   0  0  0  0  0  0
  -26.8310  -30.8710   21.9848 H   0  0  0  0  0  0
  -28.1201  -29.0653   21.1563 H   0  0  0  0  0  0
  -26.0527  -25.9309   19.0389 H   0  0  0  0  0  0
  -23.9828  -27.2762   19.0455 H   0  0  0  0  0  0
  -23.7380  -30.5837   19.4023 H   0  0  0  0  0  0
  -22.7477  -29.2334   19.8668 H   0  0  0  0  0  0
  -25.1287  -36.1964   25.0830 H   0  0  0  0  0  0
  -20.9958  -28.3247   24.1425 H   0  0  0  0  0  0
  -20.5671  -26.2285   23.3606 H   0  0  0  0  0  0
  -21.6640  -26.7446   22.1210 H   0  0  0  0  0  0
  -19.6911  -25.6300   21.1234 H   0  0  0  0  0  0
  -19.6685  -27.3202   20.6746 H   0  0  0  0  0  0
  -17.4195  -26.6670   21.4026 H   0  0  0  0  0  0
  -18.0329  -26.0065   22.9017 H   0  0  0  0  0  0
  -19.7929  -30.7261   24.2280 H   0  0  0  0  0  0
  -17.5011  -31.6266   24.5164 H   0  0  0  0  0  0
  -15.5350  -30.2992   23.7645 H   0  0  0  0  0  0
  -15.8664  -28.0825   22.7062 H   0  0  0  0  0  0
  -24.5911  -30.7047   25.7786 H   0  0  0  0  0  0
  -24.8935  -32.2854   26.4909 H   0  0  0  0  0  0
  -25.8089  -30.8857   27.0207 H   0  0  0  0  0  0
  -26.2870  -29.6775   24.1167 H   0  0  0  0  0  0
  -27.4096  -29.7274   25.4567 H   0  0  0  0  0  0
  -27.8702  -30.4342   23.9256 H   0  0  0  0  0  0
  -27.2667  -33.3597   26.2079 H   0  0  0  0  0  0
  -28.3841  -32.6895   25.0285 H   0  0  0  0  0  0
  -28.0746  -31.8421   26.5359 H   0  0  0  0  0  0
  -28.2615  -38.0087   24.7497 H   0  0  0  0  0  0
  -28.1056  -36.2620   24.6322 H   0  0  0  0  0  0
  -27.2295  -37.1491   25.8872 H   0  0  0  0  0  0
  -20.9337  -29.8746   21.6911 H   0  0  0  0  0  0
  -26.0187  -38.2866   24.1391 H   0  0  0  0  0  0
  -26.5150  -18.2208   20.7707 H   0  0  0  0  0  0
  -27.8599  -20.2690   20.6405 H   0  0  0  0  0  0
  -27.5874  -16.0350   21.1576 H   0  0  0  0  0  0
  -31.4600  -17.8799   21.1177 H   0  0  0  0  0  0
  -33.3650  -21.7344   19.3778 H   0  0  0  0  0  0
  -32.7123  -22.4514   20.8536 H   0  0  0  0  0  0
  -32.6658  -20.0656   21.3772 H   0  0  0  0  0  0
  -32.1630  -19.7005   19.7278 H   0  0  0  0  0  0
  -31.1809  -21.7497   18.3188 H   0  0  0  0  0  0
  -31.2722  -23.3156   19.0924 H   0  0  0  0  0  0
  -30.5480  -20.8983   21.9620 H   0  0  0  0  0  0
  -28.6403  -22.4910   21.5204 H   0  0  0  0  0  0
  -30.1857  -23.3052   21.6079 H   0  0  0  0  0  0
  -28.8728  -25.4586   21.7624 H   0  0  0  0  0  0
  -27.2779  -25.1288   21.1358 H   0  0  0  0  0  0
  -29.4150  -14.9531   21.9853 H   0  0  0  0  0  0
  -29.3726  -21.4681   19.4490 H   0  0  0  0  0  0
  1 25  1  0  0  0
  1 30  2  0  0  0
  1 84  1  0  0  0
  2  3  1  0  0  0
  2 25  1  0  0  0
  2 87  1  0  0  0
  2 88  1  0  0  0
  3  4  1  0  0  0
  3 89  1  0  0  0
  3 90  1  0  0  0
  4  5  1  0  0  0
  4 91  1  0  0  0
  4 92  1  0  0  0
  5  6  1  0  0  0
  5 26  1  0  0  0
  5 93  1  0  0  0
  6 25  1  0  0  0
  6 94  1  0  0  0
  6 95  1  0  0  0
  7  8  2  0  0  0
  7 26  1  0  0  0
  7 29  1  0  0  0
  8  9  1  0  0  0
  8 22  1  0  0  0
  9 10  1  0  0  0
  9 27  2  0  0  0
 10 11  2  0  0  0
 10 15  1  0  0  0
 11 12  1  0  0  0
 11 96  1  0  0  0
 12 13  2  0  0  0
 12 97  1  0  0  0
 13 14  1  0  0  0
 13 31  1  0  0  0
 14 15  2  0  0  0
 14 98  1  0  0  0
 15 99  1  0  0  0
 16 17  2  0  0  0
 16 21  1  0  0  0
 16 31  1  0  0  0
 17 18  1  0  0  0
 17100  1  0  0  0
 18 19  2  0  0  0
 18101  1  0  0  0
 19 20  1  0  0  0
 19 24  1  0  0  0
 20 21  2  0  0  0
 20102  1  0  0  0
 21 23  1  0  0  0
 22 28  1  0  0  0
 22 32  2  0  0  0
 26 27  1  0  0  0
 28103  1  0  0  0
 28104  1  0  0  0
 29105  1  0  0  0
 29106  1  0  0  0
 33 34  1  0  0  0
 33 66  1  0  0  0
 33 70  2  0  0  0
 34 36  1  0  0  0
 34 59  1  0  0  0
 34107  1  0  0  0
 35 44  2  0  0  0
 35 45  1  0  0  0
 35 68  1  0  0  0
 36 56  1  0  0  0
 36108  1  0  0  0
 37 39  1  0  0  0
 37 47  1  0  0  0
 37 66  1  0  0  0
 37109  1  0  0  0
 38 43  2  0  0  0
 38 46  1  0  0  0
 38 47  1  0  0  0
 39 64  1  0  0  0
 39 67  2  0  0  0
 40 52  1  0  0  0
 40 53  2  0  0  0
 40 58  1  0  0  0
 41110  1  0  0  0
 41111  1  0  0  0
 41112  1  0  0  0
 41 48  1  0  0  0
 42 43  1  0  0  0
 42 66  1  0  0  0
 42113  1  0  0  0
 42114  1  0  0  0
 43 44  1  0  0  0
 44115  1  0  0  0
 45 46  2  0  0  0
 45116  1  0  0  0
 46117  1  0  0  0
 47118  1  0  0  0
 47119  1  0  0  0
 48 56  1  0  0  0
 48 65  1  0  0  0
 48120  1  0  0  0
 49 50  1  0  0  0
 49 53  1  0  0  0
 49 64  1  0  0  0
 49121  1  0  0  0
 50 51  1  0  0  0
 50122  1  0  0  0
 50123  1  0  0  0
 51 52  1  0  0  0
 51124  1  0  0  0
 51125  1  0  0  0
 52126  1  0  0  0
 52127  1  0  0  0
 53 54  1  0  0  0
 54 55  2  0  0  0
 54128  1  0  0  0
 55 57  1  0  0  0
 55129  1  0  0  0
 56 69  2  0  0  0
 57 58  2  0  0  0
 57130  1  0  0  0
 58131  1  0  0  0
 59 60  1  0  0  0
 59 61  1  0  0  0
 59 62  1  0  0  0
 60132  1  0  0  0
 60133  1  0  0  0
 60134  1  0  0  0
 61135  1  0  0  0
 61136  1  0  0  0
 61137  1  0  0  0
 62138  1  0  0  0
 62139  1  0  0  0
 62140  1  0  0  0
 63 65  1  0  0  0
 63141  1  0  0  0
 63142  1  0  0  0
 63143  1  0  0  0
 64144  1  0  0  0
 65145  1  0  0  0
 68 83  1  0  0  0
 71 72  2  0  0  0
 71 73  1  0  0  0
 71146  1  0  0  0
 72 75  1  0  0  0
 72147  1  0  0  0
 73 76  2  0  0  0
 73148  1  0  0  0
 74 75  2  0  0  0
 74 76  1  0  0  0
 74149  1  0  0  0
 75 81  1  0  0  0
 76 84  1  0  0  0
 77 82  1  0  0  0
 77 83  1  0  0  0
 77 86  2  0  0  0
 78 79  1  0  0  0
 78 80  1  0  0  0
 78150  1  0  0  0
 78151  1  0  0  0
 79 81  1  0  0  0
 79152  1  0  0  0
 79153  1  0  0  0
 80 85  1  0  0  0
 80154  1  0  0  0
 80155  1  0  0  0
 81 85  1  0  0  0
 81156  1  0  0  0
 82157  1  0  0  0
 82158  1  0  0  0
 82 85  1  0  0  0
 83159  1  0  0  0
 83160  1  0  0  0
 84161  1  0  0  0
 85162  1  0  0  0
M  CHG  1  85   1
M  ISO  4   1 100  68 101  83 101  84 100
M  END
> <chiral flag>
0

> <version>
0

> <s_m_source_file>
/data/baiqing/PycharmProjects/Reinvent-master-3.2/result/LINK_invent/BTK/process_docking_weight1_custom_product_contain_oxygen_bond_distance_aromatic_linkinvent_7_9_3/rearranged_h_0158.sdf

> <i_m_source_file_index>
78

> <r_mmod_Potential_Energy-OPLS-2005>
-96.6338577270508

> <r_mmod_Stretch_Energy-OPLS-2005>
62.5577545166016

> <r_mmod_Bend_Energy-OPLS-2005>
147.435958862305

> <r_mmod_Torsional_Energy-OPLS-2005>
321.324371337891

> <r_mmod_Improper_Torsional_Energy-OPLS-2005>
7.94317626953125

> <r_mmod_Van_der_Waal_Energy-OPLS-2005>
139.336791992188

> <r_mmod_Electrostatic_Energy-OPLS-2005>
-343.290252685547

> <r_mmod_Solvation_Energy-OPLS-2005>
-455.02880859375

> <b_mmod_Minimization_Converged-OPLS-2005>
0

> <r_mmod_RMS_Derivative-OPLS-2005>
0.812200665473938

$$$$
78
                    3D
 Structure written by MMmdl.
163172  0  0  1  0            999 V2000
  -30.6403  -14.6924   20.4779 C   0  0  0  0  0  0
  -30.4282  -12.4246   19.4608 C   0  0  0  0  0  0
  -29.5036  -12.5005   18.2266 C   0  0  0  0  0  0
  -28.0301  -12.3338   18.6432 C   0  0  0  0  0  0
  -27.6451  -13.2266   19.8531 C   0  0  2  0  0  0
  -28.6919  -13.1443   20.9866 C   0  0  0  0  0  0
  -25.2533  -13.8192   20.5693 C   0  0  0  0  0  0
  -24.1818  -13.0437   20.9206 C   0  0  0  0  0  0
  -24.6402  -11.6917   20.8749 C   0  0  0  0  0  0
  -23.9070  -10.4295   21.0409 C   0  0  0  0  0  0
  -24.3622   -9.4211   21.9186 C   0  0  0  0  0  0
  -23.6299   -8.2247   22.0755 C   0  0  0  0  0  0
  -22.4282   -8.0284   21.3546 C   0  0  0  0  0  0
  -21.9920   -9.0253   20.4647 C   0  0  0  0  0  0
  -22.7244  -10.2135   20.3056 C   0  0  0  0  0  0
  -21.6858   -6.0737   22.5280 C   0  0  0  0  0  0
  -21.4011   -6.5641   23.8210 C   0  0  0  0  0  0
  -21.3656   -5.6796   24.9173 C   0  0  0  0  0  0
  -21.6045   -4.3059   24.7228 C   0  0  0  0  0  0
  -21.8819   -3.8150   23.4350 C   0  0  0  0  0  0
  -21.9194   -4.6965   22.3403 C   0  0  0  0  0  0
  -22.7844  -13.5226   21.1863 C   0  0  0  0  0  0
  -22.1665   -4.2153   21.0979 F   0  0  0  0  0  0
  -21.5628   -3.4539   25.7739 F   0  0  0  0  0  0
  -29.9968  -13.4809   20.4037 N   0  0  0  0  0  0
  -26.2957  -12.9390   20.3296 N   0  0  0  0  0  0
  -25.9332  -11.6536   20.5761 N   0  0  0  0  0  0
  -22.0490  -12.8205   22.0416 N   0  0  0  0  0  0
  -25.4213  -15.1909   20.4094 N   0  0  0  0  0  0
  -31.8250  -14.7741   20.1421 O   0  0  0  0  0  0
  -21.6648   -6.8880   21.4240 O   0  0  0  0  0  0
  -22.3528  -14.5536   20.6722 O   0  0  0  0  0  0
  -24.6269  -31.8577   23.1977 C   0  0  0  0  0  0
  -25.9115  -32.4758   23.8322 C   0  0  1  0  0  0
  -27.2266  -27.3041   20.1312 C   0  0  0  0  0  0
  -25.5926  -33.8560   24.2244 N   0  0  0  0  0  0
  -23.4221  -30.4763   21.5413 C   0  0  2  0  0  0
  -24.8727  -28.9252   20.1081 C   0  0  0  0  0  0
  -22.7494  -29.4600   22.4940 C   0  0  0  0  0  0
  -18.0283  -28.1386   22.8479 C   0  0  0  0  0  0
  -24.1499  -36.7293   23.2639 C   0  0  0  0  0  0
  -25.9615  -30.7858   21.3689 C   0  0  0  0  0  0
  -26.0399  -29.4091   20.7142 C   0  0  0  0  0  0
  -27.2234  -28.6109   20.7129 C   0  0  0  0  0  0
  -26.0462  -26.8729   19.4946 C   0  0  0  0  0  0
  -24.8786  -27.6635   19.4869 C   0  0  0  0  0  0
  -23.6389  -29.8052   20.1572 C   0  0  0  0  0  0
  -25.4118  -36.3066   24.0320 C   0  0  1  0  0  0
  -20.5880  -28.3701   23.1289 C   0  0  2  0  0  0
  -20.6775  -26.9424   22.5417 C   0  0  0  0  0  0
  -19.5754  -26.6386   21.5217 C   0  0  0  0  0  0
  -18.1928  -26.7931   22.1620 C   0  0  0  0  0  0
  -19.1535  -28.8862   23.2872 C   0  0  0  0  0  0
  -18.9471  -30.1464   23.8887 C   0  0  0  0  0  0
  -17.6473  -30.6596   24.0555 C   0  0  0  0  0  0
  -25.9058  -34.9442   23.5085 C   0  0  0  0  0  0
  -16.5361  -29.9090   23.6319 C   0  0  0  0  0  0
  -16.7270  -28.6506   23.0332 C   0  0  0  0  0  0
  -26.4495  -31.6565   25.0701 C   0  0  0  0  0  0
  -25.3723  -31.3708   26.1423 C   0  0  0  0  0  0
  -27.0340  -30.2985   24.6150 C   0  0  0  0  0  0
  -27.6046  -32.4310   25.7483 C   0  0  0  0  0  0
  -27.5581  -37.1793   24.8461 C   0  0  0  0  0  0
  -21.4203  -29.3050   22.3702 N   0  0  0  0  0  0
  -26.4287  -37.3767   23.9411 N   0  0  0  0  0  0
  -24.6887  -31.0575   22.0928 N   0  0  0  0  0  0
  -23.4216  -28.8149   23.3031 O   0  0  0  0  0  0
  -28.3291  -26.4333   20.1673 O   0  0  0  0  0  0
  -26.5638  -34.8921   22.4662 O   0  0  0  0  0  0
  -23.5430  -32.1393   23.7296 O   0  0  0  0  0  0
  -31.9489  -18.9877   21.1979 C   0  0  0  0  0  0
  -31.5710  -17.6337   21.0893 C   0  0  0  0  0  0
  -29.3207  -18.3505   20.5432 C   0  0  0  0  0  0
  -31.0331  -20.0400   20.9835 C   0  0  0  0  0  0
  -29.6916  -19.7526   20.6383 C   0  0  0  0  0  0
  -30.2493  -17.2558   20.7590 C   0  0  0  0  0  0
  -31.5247  -21.4681   21.2005 C   0  0  0  0  0  0
  -28.7008  -20.9641   20.3985 C   0  0  0  0  0  0
  -30.5943  -22.5962   20.7083 C   0  0  0  0  0  0
  -29.0826  -22.4149   20.9930 C   0  0  1  0  0  0
  -27.2397  -25.3415   22.1134 C   0  0  0  0  0  0
  -28.3074  -23.7041   20.3309 C   0  0  0  0  0  0
  -28.3106  -25.1872   21.0019 C   0  0  1  0  0  0
  -28.8025  -22.3444   22.5272 C   0  0  0  0  0  0
  -29.8743  -15.8245   20.7069 N   0  0  0  0  0  0
  -29.3330  -21.2691   23.1085 F   0  0  0  0  0  0
  -29.3079  -23.4019   23.1610 F   0  0  0  0  0  0
  -27.4880  -22.2822   22.7418 F   0  0  0  0  0  0
  -31.4689  -12.5388   19.1527 H   0  0  0  0  0  0
  -30.3624  -11.4429   19.9327 H   0  0  0  0  0  0
  -29.7748  -11.7306   17.5029 H   0  0  0  0  0  0
  -29.6387  -13.4573   17.7200 H   0  0  0  0  0  0
  -27.8789  -11.2844   18.8976 H   0  0  0  0  0  0
  -27.3728  -12.5384   17.7981 H   0  0  0  0  0  0
  -27.6451  -14.2508   19.4810 H   0  0  0  0  0  0
  -28.7176  -12.1456   21.4244 H   0  0  0  0  0  0
  -28.4363  -13.8258   21.8000 H   0  0  0  0  0  0
  -25.2766   -9.5691   22.4767 H   0  0  0  0  0  0
  -24.0005   -7.4641   22.7482 H   0  0  0  0  0  0
  -21.0849   -8.8776   19.8956 H   0  0  0  0  0  0
  -22.3701  -10.9677   19.6173 H   0  0  0  0  0  0
  -21.2005   -7.6150   23.9710 H   0  0  0  0  0  0
  -21.1475   -6.0530   25.9075 H   0  0  0  0  0  0
  -22.0603   -2.7613   23.2850 H   0  0  0  0  0  0
  -22.4111  -11.9850   22.4774 H   0  0  0  0  0  0
  -21.1113  -13.1226   22.2638 H   0  0  0  0  0  0
  -24.6496  -15.8402   20.5179 H   0  0  0  0  0  0
  -26.2590  -15.6312   20.0522 H   0  0  0  0  0  0
  -26.7196  -32.5426   23.1083 H   0  0  0  0  0  0
  -25.0035  -33.9687   25.0362 H   0  0  0  0  0  0
  -22.7137  -31.2948   21.3942 H   0  0  0  0  0  0
  -23.3749  -35.9638   23.3290 H   0  0  0  0  0  0
  -24.3589  -36.8940   22.2059 H   0  0  0  0  0  0
  -23.7272  -37.6495   23.6688 H   0  0  0  0  0  0
  -26.0870  -31.5490   20.5991 H   0  0  0  0  0  0
  -26.8424  -30.8415   21.9978 H   0  0  0  0  0  0
  -28.1211  -28.9733   21.1954 H   0  0  0  0  0  0
  -26.0229  -25.8985   19.0261 H   0  0  0  0  0  0
  -23.9847  -27.2895   19.0054 H   0  0  0  0  0  0
  -23.7559  -30.5812   19.3995 H   0  0  0  0  0  0
  -22.7596  -29.2337   19.8550 H   0  0  0  0  0  0
  -25.1297  -36.1901   25.0809 H   0  0  0  0  0  0
  -20.9947  -28.3280   24.1418 H   0  0  0  0  0  0
  -20.5705  -26.2308   23.3616 H   0  0  0  0  0  0
  -21.6642  -26.7468   22.1204 H   0  0  0  0  0  0
  -19.6931  -25.6293   21.1256 H   0  0  0  0  0  0
  -19.6692  -27.3184   20.6735 H   0  0  0  0  0  0
  -17.4203  -26.6677   21.4015 H   0  0  0  0  0  0
  -18.0318  -26.0070   22.9011 H   0  0  0  0  0  0
  -19.7954  -30.7268   24.2256 H   0  0  0  0  0  0
  -17.5034  -31.6262   24.5182 H   0  0  0  0  0  0
  -15.5363  -30.2994   23.7660 H   0  0  0  0  0  0
  -15.8663  -28.0839   22.7035 H   0  0  0  0  0  0
  -24.5926  -30.7013   25.7769 H   0  0  0  0  0  0
  -24.8866  -32.2868   26.4797 H   0  0  0  0  0  0
  -25.8045  -30.8946   27.0227 H   0  0  0  0  0  0
  -26.2914  -29.6726   24.1190 H   0  0  0  0  0  0
  -27.4064  -29.7246   25.4645 H   0  0  0  0  0  0
  -27.8768  -30.4261   23.9351 H   0  0  0  0  0  0
  -27.2641  -33.3629   26.2011 H   0  0  0  0  0  0
  -28.3885  -32.6836   25.0324 H   0  0  0  0  0  0
  -28.0673  -31.8457   26.5442 H   0  0  0  0  0  0
  -28.2568  -38.0116   24.7504 H   0  0  0  0  0  0
  -28.1102  -36.2639   24.6270 H   0  0  0  0  0  0
  -27.2297  -37.1419   25.8863 H   0  0  0  0  0  0
  -20.9405  -29.8761   21.6886 H   0  0  0  0  0  0
  -26.0163  -38.2841   24.1405 H   0  0  0  0  0  0
  -32.9688  -19.2179   21.4740 H   0  0  0  0  0  0
  -32.3272  -16.8902   21.2943 H   0  0  0  0  0  0
  -28.2958  -18.1103   20.2983 H   0  0  0  0  0  0
  -32.4987  -21.5804   20.7218 H   0  0  0  0  0  0
  -31.7066  -21.5912   22.2686 H   0  0  0  0  0  0
  -27.7120  -20.6737   20.7546 H   0  0  0  0  0  0
  -28.5965  -21.0627   19.3184 H   0  0  0  0  0  0
  -30.7221  -22.6725   19.6279 H   0  0  0  0  0  0
  -30.9466  -23.5456   21.1126 H   0  0  0  0  0  0
  -27.3054  -24.6016   22.9017 H   0  0  0  0  0  0
  -26.2285  -25.2731   21.7119 H   0  0  0  0  0  0
  -27.3348  -26.3036   22.6162 H   0  0  0  0  0  0
  -27.2649  -23.4221   20.1869 H   0  0  0  0  0  0
  -28.6852  -23.8156   19.3146 H   0  0  0  0  0  0
  -29.2736  -25.2613   21.5058 H   0  0  0  0  0  0
  -28.8922  -15.6323   20.8290 H   0  0  0  0  0  0
  1 25  1  0  0  0
  1 30  2  0  0  0
  1 85  1  0  0  0
  2  3  1  0  0  0
  2 25  1  0  0  0
  2 89  1  0  0  0
  2 90  1  0  0  0
  3  4  1  0  0  0
  3 91  1  0  0  0
  3 92  1  0  0  0
  4  5  1  0  0  0
  4 93  1  0  0  0
  4 94  1  0  0  0
  5  6  1  0  0  0
  5 26  1  0  0  0
  5 95  1  0  0  0
  6 25  1  0  0  0
  6 96  1  0  0  0
  6 97  1  0  0  0
  7  8  2  0  0  0
  7 26  1  0  0  0
  7 29  1  0  0  0
  8  9  1  0  0  0
  8 22  1  0  0  0
  9 10  1  0  0  0
  9 27  2  0  0  0
 10 11  2  0  0  0
 10 15  1  0  0  0
 11 12  1  0  0  0
 11 98  1  0  0  0
 12 13  2  0  0  0
 12 99  1  0  0  0
 13 14  1  0  0  0
 13 31  1  0  0  0
 14 15  2  0  0  0
 14100  1  0  0  0
 15101  1  0  0  0
 16 17  2  0  0  0
 16 21  1  0  0  0
 16 31  1  0  0  0
 17 18  1  0  0  0
 17102  1  0  0  0
 18 19  2  0  0  0
 18103  1  0  0  0
 19 20  1  0  0  0
 19 24  1  0  0  0
 20 21  2  0  0  0
 20104  1  0  0  0
 21 23  1  0  0  0
 22 28  1  0  0  0
 22 32  2  0  0  0
 26 27  1  0  0  0
 28105  1  0  0  0
 28106  1  0  0  0
 29107  1  0  0  0
 29108  1  0  0  0
 33 34  1  0  0  0
 33 66  1  0  0  0
 33 70  2  0  0  0
 34 36  1  0  0  0
 34 59  1  0  0  0
 34109  1  0  0  0
 35 44  2  0  0  0
 35 45  1  0  0  0
 35 68  1  0  0  0
 36 56  1  0  0  0
 36110  1  0  0  0
 37 39  1  0  0  0
 37 47  1  0  0  0
 37 66  1  0  0  0
 37111  1  0  0  0
 38 43  2  0  0  0
 38 46  1  0  0  0
 38 47  1  0  0  0
 39 64  1  0  0  0
 39 67  2  0  0  0
 40 52  1  0  0  0
 40 53  2  0  0  0
 40 58  1  0  0  0
 41112  1  0  0  0
 41113  1  0  0  0
 41114  1  0  0  0
 41 48  1  0  0  0
 42 43  1  0  0  0
 42 66  1  0  0  0
 42115  1  0  0  0
 42116  1  0  0  0
 43 44  1  0  0  0
 44117  1  0  0  0
 45 46  2  0  0  0
 45118  1  0  0  0
 46119  1  0  0  0
 47120  1  0  0  0
 47121  1  0  0  0
 48 56  1  0  0  0
 48 65  1  0  0  0
 48122  1  0  0  0
 49 50  1  0  0  0
 49 53  1  0  0  0
 49 64  1  0  0  0
 49123  1  0  0  0
 50 51  1  0  0  0
 50124  1  0  0  0
 50125  1  0  0  0
 51 52  1  0  0  0
 51126  1  0  0  0
 51127  1  0  0  0
 52128  1  0  0  0
 52129  1  0  0  0
 53 54  1  0  0  0
 54 55  2  0  0  0
 54130  1  0  0  0
 55 57  1  0  0  0
 55131  1  0  0  0
 56 69  2  0  0  0
 57 58  2  0  0  0
 57132  1  0  0  0
 58133  1  0  0  0
 59 60  1  0  0  0
 59 61  1  0  0  0
 59 62  1  0  0  0
 60134  1  0  0  0
 60135  1  0  0  0
 60136  1  0  0  0
 61137  1  0  0  0
 61138  1  0  0  0
 61139  1  0  0  0
 62140  1  0  0  0
 62141  1  0  0  0
 62142  1  0  0  0
 63 65  1  0  0  0
 63143  1  0  0  0
 63144  1  0  0  0
 63145  1  0  0  0
 64146  1  0  0  0
 65147  1  0  0  0
 68 83  1  0  0  0
 71 72  2  0  0  0
 71 74  1  0  0  0
 71148  1  0  0  0
 72 76  1  0  0  0
 72149  1  0  0  0
 73 75  1  0  0  0
 73 76  2  0  0  0
 73150  1  0  0  0
 74 75  2  0  0  0
 74 77  1  0  0  0
 75 78  1  0  0  0
 76 85  1  0  0  0
 77 79  1  0  0  0
 77151  1  0  0  0
 77152  1  0  0  0
 78 80  1  0  0  0
 78153  1  0  0  0
 78154  1  0  0  0
 79 80  1  0  0  0
 79155  1  0  0  0
 79156  1  0  0  0
 80 82  1  0  0  0
 80 84  1  0  0  0
 81157  1  0  0  0
 81158  1  0  0  0
 81159  1  0  0  0
 81 83  1  0  0  0
 82 83  1  0  0  0
 82160  1  0  0  0
 82161  1  0  0  0
 83162  1  0  0  0
 84 86  1  0  0  0
 84 87  1  0  0  0
 84 88  1  0  0  0
 85163  1  0  0  0
M  ISO  4   1 100  68 101  83 101  85 100
M  END
> <chiral flag>
0

> <version>
0

> <s_m_source_file>
/data/baiqing/PycharmProjects/Reinvent-master-3.2/result/LINK_invent/BTK/process_docking_weight1_custom_product_contain_oxygen_bond_distance_aromatic_linkinvent_7_9_3/rearranged_h_0158.sdf

> <i_m_source_file_index>
79

> <r_mmod_Potential_Energy-OPLS-2005>
190.91162109375

> <r_mmod_Stretch_Energy-OPLS-2005>
119.201553344727

> <r_mmod_Bend_Energy-OPLS-2005>
164.805053710938

> <r_mmod_Torsional_Energy-OPLS-2005>
271.055084228516

> <r_mmod_Improper_Torsional_Energy-OPLS-2005>
5.30033540725708

> <r_mmod_Van_der_Waal_Energy-OPLS-2005>
154.524429321289

> <r_mmod_Electrostatic_Energy-OPLS-2005>
-386.485137939453

> <r_mmod_Solvation_Energy-OPLS-2005>
-200.714965820312

> <b_mmod_Minimization_Converged-OPLS-2005>
0

> <r_mmod_RMS_Derivative-OPLS-2005>
1.73957431316376

$$$$
79
                    3D
 Structure written by MMmdl.
163172  0  0  1  0            999 V2000
  -30.6089  -14.6056   20.6037 C   0  0  0  0  0  0
  -30.4556  -12.4075   19.4261 C   0  0  0  0  0  0
  -29.5068  -12.5352   18.2108 C   0  0  0  0  0  0
  -28.0309  -12.3634   18.6252 C   0  0  0  0  0  0
  -27.6616  -13.2064   19.8726 C   0  0  2  0  0  0
  -28.7064  -12.9916   20.9913 C   0  0  0  0  0  0
  -25.2584  -13.8127   20.5643 C   0  0  0  0  0  0
  -24.1839  -13.0430   20.9178 C   0  0  0  0  0  0
  -24.6376  -11.6882   20.8719 C   0  0  0  0  0  0
  -23.9019  -10.4291   21.0394 C   0  0  0  0  0  0
  -24.3582   -9.4218   21.9171 C   0  0  0  0  0  0
  -23.6279   -8.2241   22.0744 C   0  0  0  0  0  0
  -22.4255   -8.0276   21.3537 C   0  0  0  0  0  0
  -21.9882   -9.0242   20.4634 C   0  0  0  0  0  0
  -22.7195  -10.2131   20.3042 C   0  0  0  0  0  0
  -21.6843   -6.0733   22.5280 C   0  0  0  0  0  0
  -21.4005   -6.5638   23.8222 C   0  0  0  0  0  0
  -21.3659   -5.6782   24.9177 C   0  0  0  0  0  0
  -21.6054   -4.3051   24.7226 C   0  0  0  0  0  0
  -21.8818   -3.8140   23.4347 C   0  0  0  0  0  0
  -21.9191   -4.6958   22.3400 C   0  0  0  0  0  0
  -22.7867  -13.5246   21.1858 C   0  0  0  0  0  0
  -22.1638   -4.2144   21.0975 F   0  0  0  0  0  0
  -21.5643   -3.4528   25.7736 F   0  0  0  0  0  0
  -30.0280  -13.3724   20.4569 N   0  0  0  0  0  0
  -26.3021  -12.9301   20.3322 N   0  0  0  0  0  0
  -25.9314  -11.6468   20.5753 N   0  0  0  0  0  0
  -22.0464  -12.8222   22.0394 N   0  0  0  0  0  0
  -25.4324  -15.1839   20.4008 N   0  0  0  0  0  0
  -31.6830  -14.8995   20.0711 O   0  0  0  0  0  0
  -21.6627   -6.8868   21.4246 O   0  0  0  0  0  0
  -22.3564  -14.5556   20.6717 O   0  0  0  0  0  0
  -24.6231  -31.8603   23.2027 C   0  0  0  0  0  0
  -25.9084  -32.4782   23.8358 C   0  0  1  0  0  0
  -27.2352  -27.3390   20.1269 C   0  0  0  0  0  0
  -25.5894  -33.8585   24.2278 N   0  0  0  0  0  0
  -23.4171  -30.4792   21.5453 C   0  0  2  0  0  0
  -24.8663  -28.9243   20.1236 C   0  0  0  0  0  0
  -22.7456  -29.4617   22.4969 C   0  0  0  0  0  0
  -18.0280  -28.1372   22.8492 C   0  0  0  0  0  0
  -24.1478  -36.7303   23.2644 C   0  0  0  0  0  0
  -25.9546  -30.7965   21.3708 C   0  0  0  0  0  0
  -26.0322  -29.4204   20.7235 C   0  0  0  0  0  0
  -27.2221  -28.6380   20.7126 C   0  0  0  0  0  0
  -26.0492  -26.8771   19.5225 C   0  0  0  0  0  0
  -24.8734  -27.6558   19.5180 C   0  0  0  0  0  0
  -23.6327  -29.8032   20.1645 C   0  0  0  0  0  0
  -25.4104  -36.3093   24.0337 C   0  0  1  0  0  0
  -20.5868  -28.3671   23.1305 C   0  0  2  0  0  0
  -20.6751  -26.9398   22.5423 C   0  0  0  0  0  0
  -19.5740  -26.6376   21.5215 C   0  0  0  0  0  0
  -18.1920  -26.7921   22.1623 C   0  0  0  0  0  0
  -19.1530  -28.8844   23.2889 C   0  0  0  0  0  0
  -18.9448  -30.1443   23.8909 C   0  0  0  0  0  0
  -17.6454  -30.6577   24.0564 C   0  0  0  0  0  0
  -25.9043  -34.9462   23.5111 C   0  0  0  0  0  0
  -16.5347  -29.9084   23.6325 C   0  0  0  0  0  0
  -16.7262  -28.6496   23.0351 C   0  0  0  0  0  0
  -26.4477  -31.6597   25.0733 C   0  0  0  0  0  0
  -25.3717  -31.3756   26.1474 C   0  0  0  0  0  0
  -27.0300  -30.3009   24.6189 C   0  0  0  0  0  0
  -27.6048  -32.4327   25.7490 C   0  0  0  0  0  0
  -27.5581  -37.1803   24.8460 C   0  0  0  0  0  0
  -21.4169  -29.3028   22.3704 N   0  0  0  0  0  0
  -26.4287  -37.3782   23.9409 N   0  0  0  0  0  0
  -24.6832  -31.0626   22.0967 N   0  0  0  0  0  0
  -23.4190  -28.8159   23.3041 O   0  0  0  0  0  0
  -28.3796  -26.5479   20.0456 O   0  0  0  0  0  0
  -26.5616  -34.8926   22.4685 O   0  0  0  0  0  0
  -23.5396  -32.1395   23.7356 O   0  0  0  0  0  0
  -29.5716  -19.2867   20.7706 C   0  0  0  0  0  0
  -31.4934  -20.6859   20.3327 C   0  0  0  0  0  0
  -30.4131  -18.1471   21.0771 C   0  0  0  0  0  0
  -31.8285  -18.3363   21.0475 C   0  0  0  0  0  0
  -30.0951  -20.5774   20.4326 C   0  0  0  0  0  0
  -32.3419  -19.5966   20.6219 C   0  0  0  0  0  0
  -28.4431  -25.2933   20.6715 C   0  0  0  0  0  0
  -29.7548  -16.9085   21.6398 C   0  0  0  0  0  0
  -28.8277  -24.1213   20.0705 C   0  0  0  0  0  0
  -29.0556  -22.8579   20.8354 C   0  0  0  0  0  0
  -32.7252  -16.5034   22.7987 C   0  0  0  0  0  0
  -33.7796  -17.5630   22.6361 C   0  0  0  0  0  0
  -32.8200  -17.2800   21.4952 C   0  0  0  0  0  0
  -33.7195  -19.8038   20.5026 N   0  0  0  0  0  0
  -29.3075  -21.7514   20.0742 N   0  0  0  0  0  0
  -29.8191  -15.5536   21.3879 N   0  0  0  0  0  0
  -28.9056  -17.2155   22.6309 N   0  3  0  0  0  0
  -29.0224  -22.7833   22.0655 O   0  0  0  0  0  0
  -29.0462  -24.1181   18.7467 O   0  0  0  0  0  0
  -31.4906  -12.5757   19.1191 H   0  0  0  0  0  0
  -30.4265  -11.3933   19.8290 H   0  0  0  0  0  0
  -29.7706  -11.7983   17.4515 H   0  0  0  0  0  0
  -29.6420  -13.5125   17.7455 H   0  0  0  0  0  0
  -27.8643  -11.3053   18.8325 H   0  0  0  0  0  0
  -27.3736  -12.6152   17.7923 H   0  0  0  0  0  0
  -27.7012  -14.2532   19.5710 H   0  0  0  0  0  0
  -28.7198  -11.9398   21.2881 H   0  0  0  0  0  0
  -28.4320  -13.5335   21.8954 H   0  0  0  0  0  0
  -25.2728   -9.5697   22.4751 H   0  0  0  0  0  0
  -24.0000   -7.4617   22.7441 H   0  0  0  0  0  0
  -21.0822   -8.8743   19.8939 H   0  0  0  0  0  0
  -22.3645  -10.9661   19.6143 H   0  0  0  0  0  0
  -21.1990   -7.6141   23.9725 H   0  0  0  0  0  0
  -21.1472   -6.0502   25.9085 H   0  0  0  0  0  0
  -22.0602   -2.7604   23.2829 H   0  0  0  0  0  0
  -22.4069  -11.9891   22.4815 H   0  0  0  0  0  0
  -21.1091  -13.1288   22.2592 H   0  0  0  0  0  0
  -24.6605  -15.8335   20.5020 H   0  0  0  0  0  0
  -26.2539  -15.6102   19.9914 H   0  0  0  0  0  0
  -26.7155  -32.5457   23.1116 H   0  0  0  0  0  0
  -25.0013  -33.9730   25.0400 H   0  0  0  0  0  0
  -22.7105  -31.2989   21.3958 H   0  0  0  0  0  0
  -23.3730  -35.9649   23.3330 H   0  0  0  0  0  0
  -24.3568  -36.8897   22.2054 H   0  0  0  0  0  0
  -23.7252  -37.6525   23.6639 H   0  0  0  0  0  0
  -26.0806  -31.5566   20.5979 H   0  0  0  0  0  0
  -26.8378  -30.8491   21.9954 H   0  0  0  0  0  0
  -28.1271  -29.0232   21.1597 H   0  0  0  0  0  0
  -26.0378  -25.9073   19.0456 H   0  0  0  0  0  0
  -23.9787  -27.2704   19.0462 H   0  0  0  0  0  0
  -23.7504  -30.5732   19.4011 H   0  0  0  0  0  0
  -22.7549  -29.2264   19.8669 H   0  0  0  0  0  0
  -25.1287  -36.1948   25.0830 H   0  0  0  0  0  0
  -20.9963  -28.3233   24.1426 H   0  0  0  0  0  0
  -20.5613  -26.2290   23.3623 H   0  0  0  0  0  0
  -21.6625  -26.7405   22.1239 H   0  0  0  0  0  0
  -19.6894  -25.6287   21.1247 H   0  0  0  0  0  0
  -19.6686  -27.3188   20.6747 H   0  0  0  0  0  0
  -17.4190  -26.6677   21.4016 H   0  0  0  0  0  0
  -18.0312  -26.0057   22.9009 H   0  0  0  0  0  0
  -19.7930  -30.7247   24.2283 H   0  0  0  0  0  0
  -17.5012  -31.6271   24.5158 H   0  0  0  0  0  0
  -15.5340  -30.2992   23.7641 H   0  0  0  0  0  0
  -15.8662  -28.0820   22.7060 H   0  0  0  0  0  0
  -24.5879  -30.7108   25.7824 H   0  0  0  0  0  0
  -24.8921  -32.2927   26.4898 H   0  0  0  0  0  0
  -25.8046  -30.8946   27.0253 H   0  0  0  0  0  0
  -26.2865  -29.6781   24.1192 H   0  0  0  0  0  0
  -27.3953  -29.7253   25.4704 H   0  0  0  0  0  0
  -27.8758  -30.4279   23.9430 H   0  0  0  0  0  0
  -27.2662  -33.3617   26.2083 H   0  0  0  0  0  0
  -28.3845  -32.6902   25.0310 H   0  0  0  0  0  0
  -28.0729  -31.8445   26.5393 H   0  0  0  0  0  0
  -28.2607  -38.0091   24.7492 H   0  0  0  0  0  0
  -28.1066  -36.2624   24.6287 H   0  0  0  0  0  0
  -27.2309  -37.1462   25.8867 H   0  0  0  0  0  0
  -20.9338  -29.8779   21.6947 H   0  0  0  0  0  0
  -26.0176  -38.2860   24.1401 H   0  0  0  0  0  0
  -28.4979  -19.1784   20.8329 H   0  0  0  0  0  0
  -31.9216  -21.6324   20.0344 H   0  0  0  0  0  0
  -28.2097  -25.3594   21.7261 H   0  0  0  0  0  0
  -31.9155  -16.7235   23.4914 H   0  0  0  0  0  0
  -33.0709  -15.4704   22.7965 H   0  0  0  0  0  0
  -34.8115  -17.2379   22.5157 H   0  0  0  0  0  0
  -33.6442  -18.4890   23.1935 H   0  0  0  0  0  0
  -33.2578  -16.7931   20.6265 H   0  0  0  0  0  0
  -34.0624  -20.6126   19.9943 H   0  0  0  0  0  0
  -34.3351  -19.0001   20.4396 H   0  0  0  0  0  0
  -29.2493  -21.9598   19.0852 H   0  0  0  0  0  0
  -29.0256  -15.1268   21.8226 H   0  0  0  0  0  0
  -28.8337  -18.1891   22.8902 H   0  0  0  0  0  0
  -28.5300  -16.5440   23.2823 H   0  0  0  0  0  0
  -28.8692  -24.9975   18.4388 H   0  0  0  0  0  0
  1 25  1  0  0  0
  1 30  2  0  0  0
  1 86  1  0  0  0
  2  3  1  0  0  0
  2 25  1  0  0  0
  2 90  1  0  0  0
  2 91  1  0  0  0
  3  4  1  0  0  0
  3 92  1  0  0  0
  3 93  1  0  0  0
  4  5  1  0  0  0
  4 94  1  0  0  0
  4 95  1  0  0  0
  5  6  1  0  0  0
  5 26  1  0  0  0
  5 96  1  0  0  0
  6 25  1  0  0  0
  6 97  1  0  0  0
  6 98  1  0  0  0
  7  8  2  0  0  0
  7 26  1  0  0  0
  7 29  1  0  0  0
  8  9  1  0  0  0
  8 22  1  0  0  0
  9 10  1  0  0  0
  9 27  2  0  0  0
 10 11  2  0  0  0
 10 15  1  0  0  0
 11 12  1  0  0  0
 11 99  1  0  0  0
 12 13  2  0  0  0
 12100  1  0  0  0
 13 14  1  0  0  0
 13 31  1  0  0  0
 14 15  2  0  0  0
 14101  1  0  0  0
 15102  1  0  0  0
 16 17  2  0  0  0
 16 21  1  0  0  0
 16 31  1  0  0  0
 17 18  1  0  0  0
 17103  1  0  0  0
 18 19  2  0  0  0
 18104  1  0  0  0
 19 20  1  0  0  0
 19 24  1  0  0  0
 20 21  2  0  0  0
 20105  1  0  0  0
 21 23  1  0  0  0
 22 28  1  0  0  0
 22 32  2  0  0  0
 26 27  1  0  0  0
 28106  1  0  0  0
 28107  1  0  0  0
 29108  1  0  0  0
 29109  1  0  0  0
 33 34  1  0  0  0
 33 66  1  0  0  0
 33 70  2  0  0  0
 34 36  1  0  0  0
 34 59  1  0  0  0
 34110  1  0  0  0
 35 44  2  0  0  0
 35 45  1  0  0  0
 35 68  1  0  0  0
 36 56  1  0  0  0
 36111  1  0  0  0
 37 39  1  0  0  0
 37 47  1  0  0  0
 37 66  1  0  0  0
 37112  1  0  0  0
 38 43  2  0  0  0
 38 46  1  0  0  0
 38 47  1  0  0  0
 39 64  1  0  0  0
 39 67  2  0  0  0
 40 52  1  0  0  0
 40 53  2  0  0  0
 40 58  1  0  0  0
 41113  1  0  0  0
 41114  1  0  0  0
 41115  1  0  0  0
 41 48  1  0  0  0
 42 43  1  0  0  0
 42 66  1  0  0  0
 42116  1  0  0  0
 42117  1  0  0  0
 43 44  1  0  0  0
 44118  1  0  0  0
 45 46  2  0  0  0
 45119  1  0  0  0
 46120  1  0  0  0
 47121  1  0  0  0
 47122  1  0  0  0
 48 56  1  0  0  0
 48 65  1  0  0  0
 48123  1  0  0  0
 49 50  1  0  0  0
 49 53  1  0  0  0
 49 64  1  0  0  0
 49124  1  0  0  0
 50 51  1  0  0  0
 50125  1  0  0  0
 50126  1  0  0  0
 51 52  1  0  0  0
 51127  1  0  0  0
 51128  1  0  0  0
 52129  1  0  0  0
 52130  1  0  0  0
 53 54  1  0  0  0
 54 55  2  0  0  0
 54131  1  0  0  0
 55 57  1  0  0  0
 55132  1  0  0  0
 56 69  2  0  0  0
 57 58  2  0  0  0
 57133  1  0  0  0
 58134  1  0  0  0
 59 60  1  0  0  0
 59 61  1  0  0  0
 59 62  1  0  0  0
 60135  1  0  0  0
 60136  1  0  0  0
 60137  1  0  0  0
 61138  1  0  0  0
 61139  1  0  0  0
 61140  1  0  0  0
 62141  1  0  0  0
 62142  1  0  0  0
 62143  1  0  0  0
 63 65  1  0  0  0
 63144  1  0  0  0
 63145  1  0  0  0
 63146  1  0  0  0
 64147  1  0  0  0
 65148  1  0  0  0
 68 77  1  0  0  0
 71 73  2  0  0  0
 71 75  1  0  0  0
 71149  1  0  0  0
 72 75  2  0  0  0
 72 76  1  0  0  0
 72150  1  0  0  0
 73 74  1  0  0  0
 73 78  1  0  0  0
 74 76  2  0  0  0
 74 83  1  0  0  0
 75 85  1  0  0  0
 76 84  1  0  0  0
 77 79  2  0  0  0
 77151  1  0  0  0
 78 86  1  0  0  0
 78 87  2  0  0  0
 79 80  1  0  0  0
 79 89  1  0  0  0
 80 85  1  0  0  0
 80 88  2  0  0  0
 81 82  1  0  0  0
 81 83  1  0  0  0
 81152  1  0  0  0
 81153  1  0  0  0
 82 83  1  0  0  0
 82154  1  0  0  0
 82155  1  0  0  0
 83156  1  0  0  0
 84157  1  0  0  0
 84158  1  0  0  0
 85159  1  0  0  0
 86160  1  0  0  0
 87161  1  0  0  0
 87162  1  0  0  0
 89163  1  0  0  0
M  CHG  1  87   1
M  ISO  4   1 100  68 101  77 101  86 100
M  END
> <chiral flag>
0

> <version>
0

> <s_m_source_file>
/data/baiqing/PycharmProjects/Reinvent-master-3.2/result/LINK_invent/BTK/process_docking_weight1_custom_product_contain_oxygen_bond_distance_aromatic_linkinvent_7_9_3/rearranged_h_0158.sdf

> <i_m_source_file_index>
80

> <r_mmod_Potential_Energy-OPLS-2005>
-175.665817260742

> <r_mmod_Stretch_Energy-OPLS-2005>
74.1660308837891

> <r_mmod_Bend_Energy-OPLS-2005>
196.542449951172

> <r_mmod_Torsional_Energy-OPLS-2005>
290.575469970703

> <r_mmod_Improper_Torsional_Energy-OPLS-2005>
9.94862747192383

> <r_mmod_Van_der_Waal_Energy-OPLS-2005>
143.636093139648

> <r_mmod_Electrostatic_Energy-OPLS-2005>
-482.009338378906

> <r_mmod_Solvation_Energy-OPLS-2005>
-446.983337402344

> <b_mmod_Minimization_Converged-OPLS-2005>
0

> <r_mmod_RMS_Derivative-OPLS-2005>
2.70674681663513

$$$$
80
                    3D
 Structure written by MMmdl.
154162  0  0  1  0            999 V2000
  -30.6870  -14.6972   20.4401 C   0  0  0  0  0  0
  -30.4110  -12.4183   19.4876 C   0  0  0  0  0  0
  -29.5047  -12.4918   18.2415 C   0  0  0  0  0  0
  -28.0294  -12.3372   18.6506 C   0  0  0  0  0  0
  -27.6404  -13.2414   19.8514 C   0  0  2  0  0  0
  -28.6852  -13.1946   20.9899 C   0  0  0  0  0  0
  -25.2491  -13.8225   20.5713 C   0  0  0  0  0  0
  -24.1792  -13.0455   20.9220 C   0  0  0  0  0  0
  -24.6394  -11.6935   20.8761 C   0  0  0  0  0  0
  -23.9076  -10.4306   21.0412 C   0  0  0  0  0  0
  -24.3622   -9.4221   21.9191 C   0  0  0  0  0  0
  -23.6299   -8.2255   22.0758 C   0  0  0  0  0  0
  -22.4282   -8.0290   21.3546 C   0  0  0  0  0  0
  -21.9918   -9.0265   20.4649 C   0  0  0  0  0  0
  -22.7248  -10.2146   20.3063 C   0  0  0  0  0  0
  -21.6853   -6.0739   22.5278 C   0  0  0  0  0  0
  -21.4016   -6.5640   23.8212 C   0  0  0  0  0  0
  -21.3661   -5.6793   24.9172 C   0  0  0  0  0  0
  -21.6047   -4.3057   24.7224 C   0  0  0  0  0  0
  -21.8816   -3.8149   23.4346 C   0  0  0  0  0  0
  -21.9191   -4.6967   22.3401 C   0  0  0  0  0  0
  -22.7809  -13.5230   21.1873 C   0  0  0  0  0  0
  -22.1659   -4.2152   21.0979 F   0  0  0  0  0  0
  -21.5632   -3.4539   25.7738 F   0  0  0  0  0  0
  -29.9940  -13.5069   20.4049 N   0  0  0  0  0  0
  -26.2930  -12.9454   20.3301 N   0  0  0  0  0  0
  -25.9328  -11.6586   20.5778 N   0  0  0  0  0  0
  -22.0443  -12.8224   22.0423 N   0  0  0  0  0  0
  -25.4161  -15.1950   20.4132 N   0  0  0  0  0  0
  -31.8844  -14.6681   20.1454 O   0  0  0  0  0  0
  -21.6644   -6.8886   21.4242 O   0  0  0  0  0  0
  -22.3497  -14.5535   20.6720 O   0  0  0  0  0  0
  -24.6311  -31.8590   23.2058 C   0  0  0  0  0  0
  -25.9153  -32.4766   23.8376 C   0  0  1  0  0  0
  -27.1943  -27.2588   20.1095 C   0  0  0  0  0  0
  -25.5954  -33.8571   24.2287 N   0  0  0  0  0  0
  -23.4248  -30.4896   21.5511 C   0  0  2  0  0  0
  -24.8668  -28.9570   20.1050 C   0  0  0  0  0  0
  -22.7497  -29.4630   22.4931 C   0  0  0  0  0  0
  -18.0288  -28.1385   22.8487 C   0  0  0  0  0  0
  -24.1488  -36.7279   23.2638 C   0  0  0  0  0  0
  -25.9760  -30.7667   21.3946 C   0  0  0  0  0  0
  -26.0408  -29.3942   20.7295 C   0  0  0  0  0  0
  -27.2039  -28.5541   20.7346 C   0  0  0  0  0  0
  -26.0114  -26.9428   19.4010 C   0  0  0  0  0  0
  -24.8579  -27.7359   19.4294 C   0  0  0  0  0  0
  -23.6391  -29.8406   20.1620 C   0  0  0  0  0  0
  -25.4116  -36.3075   24.0325 C   0  0  1  0  0  0
  -20.5894  -28.3692   23.1268 C   0  0  2  0  0  0
  -20.6771  -26.9409   22.5407 C   0  0  0  0  0  0
  -19.5745  -26.6386   21.5210 C   0  0  0  0  0  0
  -18.1928  -26.7927   22.1627 C   0  0  0  0  0  0
  -19.1543  -28.8858   23.2872 C   0  0  0  0  0  0
  -18.9466  -30.1459   23.8890 C   0  0  0  0  0  0
  -17.6464  -30.6588   24.0564 C   0  0  0  0  0  0
  -25.9062  -34.9444   23.5105 C   0  0  0  0  0  0
  -16.5354  -29.9084   23.6334 C   0  0  0  0  0  0
  -16.7274  -28.6501   23.0355 C   0  0  0  0  0  0
  -26.4517  -31.6581   25.0758 C   0  0  0  0  0  0
  -25.3740  -31.3726   26.1470 C   0  0  0  0  0  0
  -27.0367  -30.2991   24.6267 C   0  0  0  0  0  0
  -27.6071  -32.4313   25.7530 C   0  0  0  0  0  0
  -27.5578  -37.1800   24.8468 C   0  0  0  0  0  0
  -21.4207  -29.3045   22.3662 N   0  0  0  0  0  0
  -26.4290  -37.3776   23.9409 N   0  0  0  0  0  0
  -24.6964  -31.0555   22.1052 N   0  0  0  0  0  0
  -23.4204  -28.8156   23.3015 O   0  0  0  0  0  0
  -28.2570  -26.3166   20.2152 O   0  0  0  0  0  0
  -26.5628  -34.8911   22.4671 O   0  0  0  0  0  0
  -23.5462  -32.1427   23.7347 O   0  0  0  0  0  0
  -29.0562  -19.0497   21.5736 C   0  0  0  0  0  0
  -28.7982  -20.4827   21.4746 C   0  0  0  0  0  0
  -29.7720  -18.5034   20.5253 C   0  0  0  0  0  0
  -29.2885  -21.0923   20.3368 C   0  0  0  0  0  0
  -30.4787  -17.1628   20.2374 C   0  0  0  0  0  0
  -28.1352  -24.7004   18.3860 C   0  0  0  0  0  0
  -26.7589  -24.2844   20.5714 C   0  0  0  0  0  0
  -29.1486  -23.7697   20.5087 C   0  0  0  0  0  0
  -28.0702  -24.8324   19.9304 C   0  0  0  0  0  0
  -29.1972  -22.4297   19.8057 N   0  0  0  0  0  0
  -30.0128  -15.9042   20.6039 N   0  0  0  0  0  0
  -31.5302  -17.2885   19.5992 O   0  0  0  0  0  0
  -30.0954  -19.8334   19.3830 S   0  0  0  0  0  0
  -31.4583  -12.4863   19.1885 H   0  0  0  0  0  0
  -30.3120  -11.4496   19.9801 H   0  0  0  0  0  0
  -29.7783  -11.7114   17.5301 H   0  0  0  0  0  0
  -29.6515  -13.4427   17.7261 H   0  0  0  0  0  0
  -27.8743  -11.2903   18.9128 H   0  0  0  0  0  0
  -27.3763  -12.5357   17.8003 H   0  0  0  0  0  0
  -27.6328  -14.2606   19.4650 H   0  0  0  0  0  0
  -28.7041  -12.2106   21.4608 H   0  0  0  0  0  0
  -28.4315  -13.9053   21.7777 H   0  0  0  0  0  0
  -25.2763   -9.5697   22.4772 H   0  0  0  0  0  0
  -24.0003   -7.4647   22.7479 H   0  0  0  0  0  0
  -21.0848   -8.8793   19.8953 H   0  0  0  0  0  0
  -22.3709  -10.9688   19.6179 H   0  0  0  0  0  0
  -21.2011   -7.6149   23.9718 H   0  0  0  0  0  0
  -21.1483   -6.0522   25.9076 H   0  0  0  0  0  0
  -22.0593   -2.7611   23.2843 H   0  0  0  0  0  0
  -22.4046  -11.9889   22.4826 H   0  0  0  0  0  0
  -21.1060  -13.1256   22.2613 H   0  0  0  0  0  0
  -24.6485  -15.8469   20.5337 H   0  0  0  0  0  0
  -26.2606  -15.6368   20.0725 H   0  0  0  0  0  0
  -26.7216  -32.5412   23.1110 H   0  0  0  0  0  0
  -25.0076  -33.9713   25.0415 H   0  0  0  0  0  0
  -22.7208  -31.3133   21.4148 H   0  0  0  0  0  0
  -23.3752  -35.9611   23.3314 H   0  0  0  0  0  0
  -24.3587  -36.8887   22.2052 H   0  0  0  0  0  0
  -23.7237  -37.6481   23.6655 H   0  0  0  0  0  0
  -26.1251  -31.5318   20.6312 H   0  0  0  0  0  0
  -26.8509  -30.8037   22.0318 H   0  0  0  0  0  0
  -28.0909  -28.8736   21.2634 H   0  0  0  0  0  0
  -25.9118  -26.0550   18.8072 H   0  0  0  0  0  0
  -23.9712  -27.4069   18.9053 H   0  0  0  0  0  0
  -23.7604  -30.6247   19.4138 H   0  0  0  0  0  0
  -22.7564  -29.2766   19.8548 H   0  0  0  0  0  0
  -25.1297  -36.1927   25.0816 H   0  0  0  0  0  0
  -20.9986  -28.3268   24.1388 H   0  0  0  0  0  0
  -20.5662  -26.2304   23.3612 H   0  0  0  0  0  0
  -21.6638  -26.7425   22.1208 H   0  0  0  0  0  0
  -19.6901  -25.6300   21.1233 H   0  0  0  0  0  0
  -19.6677  -27.3201   20.6747 H   0  0  0  0  0  0
  -17.4191  -26.6673   21.4036 H   0  0  0  0  0  0
  -18.0331  -26.0071   22.9028 H   0  0  0  0  0  0
  -19.7942  -30.7276   24.2257 H   0  0  0  0  0  0
  -17.5018  -31.6267   24.5164 H   0  0  0  0  0  0
  -15.5354  -30.2981   23.7669 H   0  0  0  0  0  0
  -15.8673  -28.0821   22.7073 H   0  0  0  0  0  0
  -24.5931  -30.7050   25.7807 H   0  0  0  0  0  0
  -24.8907  -32.2886   26.4877 H   0  0  0  0  0  0
  -25.8061  -30.8928   27.0260 H   0  0  0  0  0  0
  -26.2968  -29.6730   24.1265 H   0  0  0  0  0  0
  -27.4002  -29.7262   25.4809 H   0  0  0  0  0  0
  -27.8871  -30.4248   23.9560 H   0  0  0  0  0  0
  -27.2688  -33.3614   26.2107 H   0  0  0  0  0  0
  -28.3889  -32.6868   25.0365 H   0  0  0  0  0  0
  -28.0731  -31.8433   26.5445 H   0  0  0  0  0  0
  -28.2597  -38.0095   24.7514 H   0  0  0  0  0  0
  -28.1072  -36.2628   24.6298 H   0  0  0  0  0  0
  -27.2300  -37.1451   25.8872 H   0  0  0  0  0  0
  -20.9382  -29.8791   21.6890 H   0  0  0  0  0  0
  -26.0167  -38.2847   24.1418 H   0  0  0  0  0  0
  -28.7433  -18.4850   22.4399 H   0  0  0  0  0  0
  -28.2484  -21.0029   22.2461 H   0  0  0  0  0  0
  -27.7255  -23.7505   18.0423 H   0  0  0  0  0  0
  -29.1694  -24.7550   18.0457 H   0  0  0  0  0  0
  -27.6201  -25.4847   17.8396 H   0  0  0  0  0  0
  -25.8385  -24.4772   20.0324 H   0  0  0  0  0  0
  -26.6410  -24.6672   21.5853 H   0  0  0  0  0  0
  -26.7734  -23.1970   20.6514 H   0  0  0  0  0  0
  -29.0105  -23.6248   21.5818 H   0  0  0  0  0  0
  -30.1419  -24.2085   20.4036 H   0  0  0  0  0  0
  -29.4499  -22.5166   18.8248 H   0  0  0  0  0  0
  -29.0759  -15.8635   20.9673 H   0  0  0  0  0  0
  1 25  1  0  0  0
  1 30  2  0  0  0
  1 81  1  0  0  0
  2  3  1  0  0  0
  2 25  1  0  0  0
  2 84  1  0  0  0
  2 85  1  0  0  0
  3  4  1  0  0  0
  3 86  1  0  0  0
  3 87  1  0  0  0
  4  5  1  0  0  0
  4 88  1  0  0  0
  4 89  1  0  0  0
  5  6  1  0  0  0
  5 26  1  0  0  0
  5 90  1  0  0  0
  6 25  1  0  0  0
  6 91  1  0  0  0
  6 92  1  0  0  0
  7  8  2  0  0  0
  7 26  1  0  0  0
  7 29  1  0  0  0
  8  9  1  0  0  0
  8 22  1  0  0  0
  9 10  1  0  0  0
  9 27  2  0  0  0
 10 11  2  0  0  0
 10 15  1  0  0  0
 11 12  1  0  0  0
 11 93  1  0  0  0
 12 13  2  0  0  0
 12 94  1  0  0  0
 13 14  1  0  0  0
 13 31  1  0  0  0
 14 15  2  0  0  0
 14 95  1  0  0  0
 15 96  1  0  0  0
 16 17  2  0  0  0
 16 21  1  0  0  0
 16 31  1  0  0  0
 17 18  1  0  0  0
 17 97  1  0  0  0
 18 19  2  0  0  0
 18 98  1  0  0  0
 19 20  1  0  0  0
 19 24  1  0  0  0
 20 21  2  0  0  0
 20 99  1  0  0  0
 21 23  1  0  0  0
 22 28  1  0  0  0
 22 32  2  0  0  0
 26 27  1  0  0  0
 28100  1  0  0  0
 28101  1  0  0  0
 29102  1  0  0  0
 29103  1  0  0  0
 33 34  1  0  0  0
 33 66  1  0  0  0
 33 70  2  0  0  0
 34 36  1  0  0  0
 34 59  1  0  0  0
 34104  1  0  0  0
 35 44  2  0  0  0
 35 45  1  0  0  0
 35 68  1  0  0  0
 36 56  1  0  0  0
 36105  1  0  0  0
 37 39  1  0  0  0
 37 47  1  0  0  0
 37 66  1  0  0  0
 37106  1  0  0  0
 38 43  2  0  0  0
 38 46  1  0  0  0
 38 47  1  0  0  0
 39 64  1  0  0  0
 39 67  2  0  0  0
 40 52  1  0  0  0
 40 53  2  0  0  0
 40 58  1  0  0  0
 41107  1  0  0  0
 41108  1  0  0  0
 41109  1  0  0  0
 41 48  1  0  0  0
 42 43  1  0  0  0
 42 66  1  0  0  0
 42110  1  0  0  0
 42111  1  0  0  0
 43 44  1  0  0  0
 44112  1  0  0  0
 45 46  2  0  0  0
 45113  1  0  0  0
 46114  1  0  0  0
 47115  1  0  0  0
 47116  1  0  0  0
 48 56  1  0  0  0
 48 65  1  0  0  0
 48117  1  0  0  0
 49 50  1  0  0  0
 49 53  1  0  0  0
 49 64  1  0  0  0
 49118  1  0  0  0
 50 51  1  0  0  0
 50119  1  0  0  0
 50120  1  0  0  0
 51 52  1  0  0  0
 51121  1  0  0  0
 51122  1  0  0  0
 52123  1  0  0  0
 52124  1  0  0  0
 53 54  1  0  0  0
 54 55  2  0  0  0
 54125  1  0  0  0
 55 57  1  0  0  0
 55126  1  0  0  0
 56 69  2  0  0  0
 57 58  2  0  0  0
 57127  1  0  0  0
 58128  1  0  0  0
 59 60  1  0  0  0
 59 61  1  0  0  0
 59 62  1  0  0  0
 60129  1  0  0  0
 60130  1  0  0  0
 60131  1  0  0  0
 61132  1  0  0  0
 61133  1  0  0  0
 61134  1  0  0  0
 62135  1  0  0  0
 62136  1  0  0  0
 62137  1  0  0  0
 63 65  1  0  0  0
 63138  1  0  0  0
 63139  1  0  0  0
 63140  1  0  0  0
 64141  1  0  0  0
 65142  1  0  0  0
 68 79  1  0  0  0
 71 72  1  0  0  0
 71 73  2  0  0  0
 71143  1  0  0  0
 72 74  2  0  0  0
 72144  1  0  0  0
 73 75  1  0  0  0
 73 83  1  0  0  0
 74 80  1  0  0  0
 74 83  1  0  0  0
 75 81  1  0  0  0
 75 82  2  0  0  0
 76145  1  0  0  0
 76146  1  0  0  0
 76147  1  0  0  0
 76 79  1  0  0  0
 77 79  1  0  0  0
 77148  1  0  0  0
 77149  1  0  0  0
 77150  1  0  0  0
 78 79  1  0  0  0
 78 80  1  0  0  0
 78151  1  0  0  0
 78152  1  0  0  0
 80153  1  0  0  0
 81154  1  0  0  0
M  ISO  4   1 100  68 101  79 101  81 100
M  END
> <chiral flag>
0

> <version>
0

> <s_m_source_file>
/data/baiqing/PycharmProjects/Reinvent-master-3.2/result/LINK_invent/BTK/process_docking_weight1_custom_product_contain_oxygen_bond_distance_aromatic_linkinvent_7_9_3/rearranged_h_0158.sdf

> <i_m_source_file_index>
81

> <r_mmod_Potential_Energy-OPLS-2005>
89.9751663208008

> <r_mmod_Stretch_Energy-OPLS-2005>
111.783386230469

> <r_mmod_Bend_Energy-OPLS-2005>
197.827987670898

> <r_mmod_Torsional_Energy-OPLS-2005>
249.286972045898

> <r_mmod_Improper_Torsional_Energy-OPLS-2005>
6.02538299560547

> <r_mmod_Van_der_Waal_Energy-OPLS-2005>
155.664169311523

> <r_mmod_Electrostatic_Energy-OPLS-2005>
-487.182678222656

> <r_mmod_Solvation_Energy-OPLS-2005>
-230.630294799805

> <b_mmod_Minimization_Converged-OPLS-2005>
0

> <r_mmod_RMS_Derivative-OPLS-2005>
0.922282636165619

$$$$
81
                    3D
 Structure written by MMmdl.
146154  0  0  1  0            999 V2000
  -30.5480  -14.8981   20.4315 C   0  0  0  0  0  0
  -30.4453  -12.5509   19.4957 C   0  0  0  0  0  0
  -29.5231  -12.5289   18.2537 C   0  0  0  0  0  0
  -28.0528  -12.3243   18.6671 C   0  0  0  0  0  0
  -27.6378  -13.2423   19.8468 C   0  0  2  0  0  0
  -28.6818  -13.2320   20.9858 C   0  0  0  0  0  0
  -25.2498  -13.8209   20.5708 C   0  0  0  0  0  0
  -24.1802  -13.0438   20.9214 C   0  0  0  0  0  0
  -24.6412  -11.6921   20.8753 C   0  0  0  0  0  0
  -23.9091  -10.4291   21.0407 C   0  0  0  0  0  0
  -24.3633   -9.4203   21.9186 C   0  0  0  0  0  0
  -23.6298   -8.2244   22.0757 C   0  0  0  0  0  0
  -22.4281   -8.0286   21.3544 C   0  0  0  0  0  0
  -21.9922   -9.0266   20.4649 C   0  0  0  0  0  0
  -22.7259  -10.2141   20.3059 C   0  0  0  0  0  0
  -21.6855   -6.0733   22.5278 C   0  0  0  0  0  0
  -21.4016   -6.5639   23.8211 C   0  0  0  0  0  0
  -21.3661   -5.6792   24.9174 C   0  0  0  0  0  0
  -21.6046   -4.3054   24.7227 C   0  0  0  0  0  0
  -21.8818   -3.8144   23.4349 C   0  0  0  0  0  0
  -21.9195   -4.6960   22.3404 C   0  0  0  0  0  0
  -22.7820  -13.5210   21.1867 C   0  0  0  0  0  0
  -22.1659   -4.2142   21.0982 F   0  0  0  0  0  0
  -21.5634   -3.4542   25.7741 F   0  0  0  0  0  0
  -29.9692  -13.6331   20.4006 N   0  0  0  0  0  0
  -26.2927  -12.9432   20.3270 N   0  0  0  0  0  0
  -25.9345  -11.6566   20.5752 N   0  0  0  0  0  0
  -22.0473  -12.8203   22.0429 N   0  0  0  0  0  0
  -25.4162  -15.1942   20.4138 N   0  0  0  0  0  0
  -31.7381  -14.9932   20.1080 O   0  0  0  0  0  0
  -21.6644   -6.8882   21.4240 O   0  0  0  0  0  0
  -22.3502  -14.5513   20.6709 O   0  0  0  0  0  0
  -24.6407  -31.8467   23.1913 C   0  0  0  0  0  0
  -25.9188  -32.4715   23.8294 C   0  0  1  0  0  0
  -27.2210  -27.1722   20.1449 C   0  0  0  0  0  0
  -25.5941  -33.8519   24.2207 N   0  0  0  0  0  0
  -23.4448  -30.4667   21.5356 C   0  0  2  0  0  0
  -24.8985  -28.9041   20.1063 C   0  0  0  0  0  0
  -22.7562  -29.4552   22.4861 C   0  0  0  0  0  0
  -18.0301  -28.1396   22.8477 C   0  0  0  0  0  0
  -24.1492  -36.7269   23.2640 C   0  0  0  0  0  0
  -25.9993  -30.7307   21.3883 C   0  0  0  0  0  0
  -26.0746  -29.3456   20.7294 C   0  0  0  0  0  0
  -27.2404  -28.4931   20.7392 C   0  0  0  0  0  0
  -26.0275  -26.8325   19.4722 C   0  0  0  0  0  0
  -24.8855  -27.6585   19.4622 C   0  0  0  0  0  0
  -23.6716  -29.8002   20.1533 C   0  0  0  0  0  0
  -25.4121  -36.3046   24.0317 C   0  0  1  0  0  0
  -20.5913  -28.3721   23.1238 C   0  0  2  0  0  0
  -20.6785  -26.9426   22.5404 C   0  0  0  0  0  0
  -19.5761  -26.6382   21.5211 C   0  0  0  0  0  0
  -18.1943  -26.7932   22.1625 C   0  0  0  0  0  0
  -19.1559  -28.8876   23.2849 C   0  0  0  0  0  0
  -18.9476  -30.1471   23.8876 C   0  0  0  0  0  0
  -17.6474  -30.6593   24.0560 C   0  0  0  0  0  0
  -25.9068  -34.9419   23.5071 C   0  0  0  0  0  0
  -16.5364  -29.9088   23.6335 C   0  0  0  0  0  0
  -16.7285  -28.6506   23.0355 C   0  0  0  0  0  0
  -26.4515  -31.6570   25.0724 C   0  0  0  0  0  0
  -25.3704  -31.3760   26.1422 C   0  0  0  0  0  0
  -27.0372  -30.2964   24.6293 C   0  0  0  0  0  0
  -27.6047  -32.4329   25.7511 C   0  0  0  0  0  0
  -27.5577  -37.1792   24.8463 C   0  0  0  0  0  0
  -21.4255  -29.3049   22.3612 N   0  0  0  0  0  0
  -26.4289  -37.3754   23.9405 N   0  0  0  0  0  0
  -24.7142  -31.0347   22.0937 N   0  0  0  0  0  0
  -23.4213  -28.8096   23.3002 O   0  0  0  0  0  0
  -28.2157  -26.1361   20.2190 O   0  0  0  0  0  0
  -26.5661  -34.8907   22.4652 O   0  0  0  0  0  0
  -23.5529  -32.1328   23.7140 O   0  0  0  0  0  0
  -28.9537  -18.4605   20.8602 C   0  0  0  0  0  0
  -29.4751  -19.7644   20.4124 C   0  0  0  0  0  0
  -29.8548  -17.4409   20.4899 C   0  0  0  0  0  0
  -27.7806  -24.8808   20.8022 C   0  0  0  0  0  0
  -28.0471  -23.4803   20.8585 C   0  0  0  0  0  0
  -29.0509  -22.4777   20.2652 C   0  0  0  0  0  0
  -30.6361  -19.5021   19.7993 N   0  0  0  0  0  0
  -28.8326  -21.1237   20.6276 N   0  0  0  0  0  0
  -29.7351  -16.0264   20.6769 N   0  0  0  0  0  0
  -29.9824  -22.8071   19.5282 O   0  0  0  0  0  0
  -30.8773  -18.0914   19.8434 O   0  0  0  0  0  0
  -27.1713  -22.8468   21.6616 O   0  0  0  0  0  0
  -31.4808  -12.7032   19.1866 H   0  0  0  0  0  0
  -30.4275  -11.5880   20.0088 H   0  0  0  0  0  0
  -29.8324  -11.7409   17.5658 H   0  0  0  0  0  0
  -29.6218  -13.4684   17.7072 H   0  0  0  0  0  0
  -27.9360  -11.2790   18.9553 H   0  0  0  0  0  0
  -27.3926  -12.4795   17.8128 H   0  0  0  0  0  0
  -27.6126  -14.2526   19.4379 H   0  0  0  0  0  0
  -28.7540  -12.2442   21.4430 H   0  0  0  0  0  0
  -28.3891  -13.9167   21.7834 H   0  0  0  0  0  0
  -25.2781   -9.5672   22.4756 H   0  0  0  0  0  0
  -24.0003   -7.4634   22.7479 H   0  0  0  0  0  0
  -21.0849   -8.8794   19.8956 H   0  0  0  0  0  0
  -22.3723  -10.9682   19.6169 H   0  0  0  0  0  0
  -21.2005   -7.6145   23.9715 H   0  0  0  0  0  0
  -21.1484   -6.0520   25.9077 H   0  0  0  0  0  0
  -22.0595   -2.7603   23.2853 H   0  0  0  0  0  0
  -22.4093  -11.9869   22.4822 H   0  0  0  0  0  0
  -21.1090  -13.1227   22.2639 H   0  0  0  0  0  0
  -24.6430  -15.8417   20.5231 H   0  0  0  0  0  0
  -26.2542  -15.6392   20.0633 H   0  0  0  0  0  0
  -26.7261  -32.5336   23.1033 H   0  0  0  0  0  0
  -25.0056  -33.9645   25.0332 H   0  0  0  0  0  0
  -22.7458  -31.2916   21.3836 H   0  0  0  0  0  0
  -23.3753  -35.9602   23.3295 H   0  0  0  0  0  0
  -24.3576  -36.8906   22.2055 H   0  0  0  0  0  0
  -23.7248  -37.6464   23.6680 H   0  0  0  0  0  0
  -26.1509  -31.4871   20.6171 H   0  0  0  0  0  0
  -26.8708  -30.7808   22.0292 H   0  0  0  0  0  0
  -28.1316  -28.8180   21.2576 H   0  0  0  0  0  0
  -25.9577  -25.8699   18.9853 H   0  0  0  0  0  0
  -23.9904  -27.3157   18.9614 H   0  0  0  0  0  0
  -23.8027  -30.5772   19.3992 H   0  0  0  0  0  0
  -22.7887  -29.2388   19.8429 H   0  0  0  0  0  0
  -25.1307  -36.1881   25.0810 H   0  0  0  0  0  0
  -21.0002  -28.3310   24.1359 H   0  0  0  0  0  0
  -20.5674  -26.2338   23.3623 H   0  0  0  0  0  0
  -21.6653  -26.7431   22.1208 H   0  0  0  0  0  0
  -19.6923  -25.6285   21.1258 H   0  0  0  0  0  0
  -19.6696  -27.3178   20.6729 H   0  0  0  0  0  0
  -17.4208  -26.6667   21.4032 H   0  0  0  0  0  0
  -18.0351  -26.0081   22.9031 H   0  0  0  0  0  0
  -19.7954  -30.7290   24.2238 H   0  0  0  0  0  0
  -17.5029  -31.6270   24.5168 H   0  0  0  0  0  0
  -15.5364  -30.2987   23.7667 H   0  0  0  0  0  0
  -15.8685  -28.0819   22.7082 H   0  0  0  0  0  0
  -24.5892  -30.7096   25.7748 H   0  0  0  0  0  0
  -24.8882  -32.2942   26.4785 H   0  0  0  0  0  0
  -25.7990  -30.8979   27.0239 H   0  0  0  0  0  0
  -26.2986  -29.6700   24.1277 H   0  0  0  0  0  0
  -27.3958  -29.7251   25.4866 H   0  0  0  0  0  0
  -27.8908  -30.4196   23.9624 H   0  0  0  0  0  0
  -27.2639  -33.3644   26.2044 H   0  0  0  0  0  0
  -28.3886  -32.6864   25.0362 H   0  0  0  0  0  0
  -28.0683  -31.8481   26.5467 H   0  0  0  0  0  0
  -28.2589  -38.0093   24.7505 H   0  0  0  0  0  0
  -28.1078  -36.2620   24.6297 H   0  0  0  0  0  0
  -27.2294  -37.1449   25.8867 H   0  0  0  0  0  0
  -20.9459  -29.8771   21.6804 H   0  0  0  0  0  0
  -26.0158  -38.2825   24.1400 H   0  0  0  0  0  0
  -28.0259  -18.3017   21.3896 H   0  0  0  0  0  0
  -26.9395  -25.1585   21.4242 H   0  0  0  0  0  0
  -28.0068  -21.0842   21.2093 H   0  0  0  0  0  0
  -28.8240  -15.7527   21.0049 H   0  0  0  0  0  0
  -26.5724  -23.4949   22.0086 H   0  0  0  0  0  0
  1 25  1  0  0  0
  1 30  2  0  0  0
  1 79  1  0  0  0
  2  3  1  0  0  0
  2 25  1  0  0  0
  2 83  1  0  0  0
  2 84  1  0  0  0
  3  4  1  0  0  0
  3 85  1  0  0  0
  3 86  1  0  0  0
  4  5  1  0  0  0
  4 87  1  0  0  0
  4 88  1  0  0  0
  5  6  1  0  0  0
  5 26  1  0  0  0
  5 89  1  0  0  0
  6 25  1  0  0  0
  6 90  1  0  0  0
  6 91  1  0  0  0
  7  8  2  0  0  0
  7 26  1  0  0  0
  7 29  1  0  0  0
  8  9  1  0  0  0
  8 22  1  0  0  0
  9 10  1  0  0  0
  9 27  2  0  0  0
 10 11  2  0  0  0
 10 15  1  0  0  0
 11 12  1  0  0  0
 11 92  1  0  0  0
 12 13  2  0  0  0
 12 93  1  0  0  0
 13 14  1  0  0  0
 13 31  1  0  0  0
 14 15  2  0  0  0
 14 94  1  0  0  0
 15 95  1  0  0  0
 16 17  2  0  0  0
 16 21  1  0  0  0
 16 31  1  0  0  0
 17 18  1  0  0  0
 17 96  1  0  0  0
 18 19  2  0  0  0
 18 97  1  0  0  0
 19 20  1  0  0  0
 19 24  1  0  0  0
 20 21  2  0  0  0
 20 98  1  0  0  0
 21 23  1  0  0  0
 22 28  1  0  0  0
 22 32  2  0  0  0
 26 27  1  0  0  0
 28 99  1  0  0  0
 28100  1  0  0  0
 29101  1  0  0  0
 29102  1  0  0  0
 33 34  1  0  0  0
 33 66  1  0  0  0
 33 70  2  0  0  0
 34 36  1  0  0  0
 34 59  1  0  0  0
 34103  1  0  0  0
 35 44  2  0  0  0
 35 45  1  0  0  0
 35 68  1  0  0  0
 36 56  1  0  0  0
 36104  1  0  0  0
 37 39  1  0  0  0
 37 47  1  0  0  0
 37 66  1  0  0  0
 37105  1  0  0  0
 38 43  2  0  0  0
 38 46  1  0  0  0
 38 47  1  0  0  0
 39 64  1  0  0  0
 39 67  2  0  0  0
 40 52  1  0  0  0
 40 53  2  0  0  0
 40 58  1  0  0  0
 41106  1  0  0  0
 41107  1  0  0  0
 41108  1  0  0  0
 41 48  1  0  0  0
 42 43  1  0  0  0
 42 66  1  0  0  0
 42109  1  0  0  0
 42110  1  0  0  0
 43 44  1  0  0  0
 44111  1  0  0  0
 45 46  2  0  0  0
 45112  1  0  0  0
 46113  1  0  0  0
 47114  1  0  0  0
 47115  1  0  0  0
 48 56  1  0  0  0
 48 65  1  0  0  0
 48116  1  0  0  0
 49 50  1  0  0  0
 49 53  1  0  0  0
 49 64  1  0  0  0
 49117  1  0  0  0
 50 51  1  0  0  0
 50118  1  0  0  0
 50119  1  0  0  0
 51 52  1  0  0  0
 51120  1  0  0  0
 51121  1  0  0  0
 52122  1  0  0  0
 52123  1  0  0  0
 53 54  1  0  0  0
 54 55  2  0  0  0
 54124  1  0  0  0
 55 57  1  0  0  0
 55125  1  0  0  0
 56 69  2  0  0  0
 57 58  2  0  0  0
 57126  1  0  0  0
 58127  1  0  0  0
 59 60  1  0  0  0
 59 61  1  0  0  0
 59 62  1  0  0  0
 60128  1  0  0  0
 60129  1  0  0  0
 60130  1  0  0  0
 61131  1  0  0  0
 61132  1  0  0  0
 61133  1  0  0  0
 62134  1  0  0  0
 62135  1  0  0  0
 62136  1  0  0  0
 63 65  1  0  0  0
 63137  1  0  0  0
 63138  1  0  0  0
 63139  1  0  0  0
 64140  1  0  0  0
 65141  1  0  0  0
 68 74  1  0  0  0
 71 72  1  0  0  0
 71 73  2  0  0  0
 71142  1  0  0  0
 72 77  2  0  0  0
 72 78  1  0  0  0
 73 79  1  0  0  0
 73 81  1  0  0  0
 74 75  2  0  0  0
 74143  1  0  0  0
 75 76  1  0  0  0
 75 82  1  0  0  0
 76 78  1  0  0  0
 76 80  2  0  0  0
 77 81  1  0  0  0
 78144  1  0  0  0
 79145  1  0  0  0
 82146  1  0  0  0
M  ISO  4   1 100  68 101  74 101  79 100
M  END
> <chiral flag>
0

> <version>
0

> <s_m_source_file>
/data/baiqing/PycharmProjects/Reinvent-master-3.2/result/LINK_invent/BTK/process_docking_weight1_custom_product_contain_oxygen_bond_distance_aromatic_linkinvent_7_9_3/rearranged_h_0158.sdf

> <i_m_source_file_index>
82

> <r_mmod_Potential_Energy-OPLS-2005>
248.612060546875

> <r_mmod_Stretch_Energy-OPLS-2005>
179.58088684082

> <r_mmod_Bend_Energy-OPLS-2005>
307.795593261719

> <r_mmod_Torsional_Energy-OPLS-2005>
198.569320678711

> <r_mmod_Improper_Torsional_Energy-OPLS-2005>
3.6674382686615

> <r_mmod_Van_der_Waal_Energy-OPLS-2005>
123.504592895508

> <r_mmod_Electrostatic_Energy-OPLS-2005>
-453.519165039062

> <r_mmod_Solvation_Energy-OPLS-2005>
-280.678741455078

> <b_mmod_Minimization_Converged-OPLS-2005>
0

> <r_mmod_RMS_Derivative-OPLS-2005>
0.71595972776413

$$$$
82
                    3D
 Structure written by MMmdl.
162171  0  0  1  0            999 V2000
  -30.6660  -14.5867   20.4869 C   0  0  0  0  0  0
  -30.4264  -12.3572   19.4606 C   0  0  0  0  0  0
  -29.5007  -12.4950   18.2332 C   0  0  0  0  0  0
  -28.0258  -12.3463   18.6474 C   0  0  0  0  0  0
  -27.6539  -13.2196   19.8754 C   0  0  2  0  0  0
  -28.6946  -13.0820   21.0093 C   0  0  0  0  0  0
  -25.2524  -13.8229   20.5721 C   0  0  0  0  0  0
  -24.1807  -13.0478   20.9235 C   0  0  0  0  0  0
  -24.6381  -11.6940   20.8801 C   0  0  0  0  0  0
  -23.9075  -10.4294   21.0403 C   0  0  0  0  0  0
  -24.3617   -9.4193   21.9152 C   0  0  0  0  0  0
  -23.6285   -8.2243   22.0731 C   0  0  0  0  0  0
  -22.4243   -8.0304   21.3563 C   0  0  0  0  0  0
  -21.9915   -9.0272   20.4646 C   0  0  0  0  0  0
  -22.7264  -10.2137   20.3037 C   0  0  0  0  0  0
  -21.6835   -6.0739   22.5301 C   0  0  0  0  0  0
  -21.4023   -6.5649   23.8239 C   0  0  0  0  0  0
  -21.3649   -5.6806   24.9196 C   0  0  0  0  0  0
  -21.6004   -4.3071   24.7234 C   0  0  0  0  0  0
  -21.8814   -3.8151   23.4371 C   0  0  0  0  0  0
  -21.9175   -4.6961   22.3412 C   0  0  0  0  0  0
  -22.7819  -13.5223   21.1910 C   0  0  0  0  0  0
  -22.1622   -4.2146   21.0981 F   0  0  0  0  0  0
  -21.5641   -3.4556   25.7757 F   0  0  0  0  0  0
  -30.0178  -13.3848   20.4419 N   0  0  0  0  0  0
  -26.2976  -12.9406   20.3396 N   0  0  0  0  0  0
  -25.9309  -11.6558   20.5861 N   0  0  0  0  0  0
  -22.0487  -12.8130   22.0420 N   0  0  0  0  0  0
  -25.4226  -15.1945   20.4054 N   0  0  0  0  0  0
  -31.8319  -14.7054   20.0992 O   0  0  0  0  0  0
  -21.6612   -6.8892   21.4266 O   0  0  0  0  0  0
  -22.3459  -14.5531   20.6788 O   0  0  0  0  0  0
  -24.6263  -31.8607   23.2131 C   0  0  0  0  0  0
  -25.9123  -32.4793   23.8415 C   0  0  1  0  0  0
  -27.1902  -27.3196   20.1022 C   0  0  0  0  0  0
  -25.5950  -33.8587   24.2334 N   0  0  0  0  0  0
  -23.4131  -30.4922   21.5614 C   0  0  2  0  0  0
  -24.8471  -28.9625   20.1159 C   0  0  0  0  0  0
  -22.7467  -29.4625   22.5035 C   0  0  0  0  0  0
  -18.0285  -28.1320   22.8560 C   0  0  0  0  0  0
  -24.1485  -36.7304   23.2633 C   0  0  0  0  0  0
  -25.9581  -30.7928   21.3824 C   0  0  0  0  0  0
  -26.0247  -29.4241   20.7202 C   0  0  0  0  0  0
  -27.1980  -28.6113   20.7120 C   0  0  0  0  0  0
  -25.9814  -26.9234   19.4685 C   0  0  0  0  0  0
  -24.8265  -27.7144   19.4882 C   0  0  0  0  0  0
  -23.6195  -29.8396   20.1719 C   0  0  0  0  0  0
  -25.4105  -36.3090   24.0342 C   0  0  1  0  0  0
  -20.5893  -28.3621   23.1340 C   0  0  2  0  0  0
  -20.6772  -26.9352   22.5432 C   0  0  0  0  0  0
  -19.5721  -26.6346   21.5250 C   0  0  0  0  0  0
  -18.1892  -26.7880   22.1661 C   0  0  0  0  0  0
  -19.1535  -28.8800   23.2938 C   0  0  0  0  0  0
  -18.9434  -30.1438   23.8911 C   0  0  0  0  0  0
  -17.6415  -30.6537   24.0571 C   0  0  0  0  0  0
  -25.9057  -34.9457   23.5140 C   0  0  0  0  0  0
  -16.5331  -29.9033   23.6326 C   0  0  0  0  0  0
  -16.7262  -28.6438   23.0395 C   0  0  0  0  0  0
  -26.4471  -31.6599   25.0785 C   0  0  0  0  0  0
  -25.3726  -31.3757   26.1545 C   0  0  0  0  0  0
  -27.0318  -30.3028   24.6239 C   0  0  0  0  0  0
  -27.6003  -32.4362   25.7552 C   0  0  0  0  0  0
  -27.5598  -37.1793   24.8447 C   0  0  0  0  0  0
  -21.4190  -29.3004   22.3766 N   0  0  0  0  0  0
  -26.4277  -37.3794   23.9445 N   0  0  0  0  0  0
  -24.6856  -31.0649   22.1084 N   0  0  0  0  0  0
  -23.4211  -28.8130   23.3073 O   0  0  0  0  0  0
  -28.2860  -26.4382   20.1507 O   0  0  0  0  0  0
  -26.5597  -34.8918   22.4692 O   0  0  0  0  0  0
  -23.5439  -32.1401   23.7470 O   0  0  0  0  0  0
  -29.4602  -19.1138   19.4343 C   0  0  0  0  0  0
  -29.6823  -18.5284   18.1910 C   0  0  0  0  0  0
  -29.9112  -16.8966   20.0235 C   0  0  0  0  0  0
  -29.7893  -21.6357   18.8015 C   0  0  0  0  0  0
  -28.9587  -21.2234   21.0546 C   0  0  0  0  0  0
  -29.0846  -23.0150   18.7276 C   0  0  0  0  0  0
  -28.3045  -22.6589   21.0551 C   0  0  0  0  0  0
  -28.9858  -20.5923   19.6294 C   0  0  2  0  0  0
  -28.9245  -23.7456   20.0898 C   0  0  2  0  0  0
  -30.5097  -24.8342   21.6103 C   0  0  0  0  0  0
  -27.9708  -25.0183   19.8848 C   0  0  0  0  0  0
  -29.5305  -18.1272   20.4664 N   0  0  0  0  0  0
  -29.5077  -19.0462   16.9118 N   0  0  0  0  0  0
  -29.9416  -15.6916   20.8198 N   0  0  0  0  0  0
  -30.2744  -24.0682   20.4356 O   0  0  0  0  0  0
  -30.1785  -16.8614   18.2881 S   0  0  0  0  0  0
  -31.4701  -12.4580   19.1544 H   0  0  0  0  0  0
  -30.3428  -11.3632   19.9041 H   0  0  0  0  0  0
  -29.7500  -11.7463   17.4842 H   0  0  0  0  0  0
  -29.6497  -13.4654   17.7597 H   0  0  0  0  0  0
  -27.8530  -11.2940   18.8731 H   0  0  0  0  0  0
  -27.3785  -12.5852   17.8038 H   0  0  0  0  0  0
  -27.6741  -14.2587   19.5430 H   0  0  0  0  0  0
  -28.6870  -12.0746   21.4258 H   0  0  0  0  0  0
  -28.4505  -13.7440   21.8434 H   0  0  0  0  0  0
  -25.2736   -9.5669   22.4748 H   0  0  0  0  0  0
  -24.0022   -7.4616   22.7399 H   0  0  0  0  0  0
  -21.0891   -8.8789   19.8896 H   0  0  0  0  0  0
  -22.3744  -10.9681   19.6161 H   0  0  0  0  0  0
  -21.2043   -7.6162   23.9742 H   0  0  0  0  0  0
  -21.1450   -6.0546   25.9097 H   0  0  0  0  0  0
  -22.0595   -2.7612   23.2913 H   0  0  0  0  0  0
  -22.4154  -11.9770   22.4716 H   0  0  0  0  0  0
  -21.1060  -13.1062   22.2608 H   0  0  0  0  0  0
  -24.6714  -15.8617   20.5452 H   0  0  0  0  0  0
  -26.2598  -15.6265   20.0347 H   0  0  0  0  0  0
  -26.7191  -32.5420   23.1153 H   0  0  0  0  0  0
  -25.0180  -33.9741   25.0535 H   0  0  0  0  0  0
  -22.7049  -31.3140   21.4320 H   0  0  0  0  0  0
  -23.3789  -35.9591   23.3192 H   0  0  0  0  0  0
  -24.3606  -36.9025   22.2072 H   0  0  0  0  0  0
  -23.7176  -37.6450   23.6717 H   0  0  0  0  0  0
  -26.0945  -31.5557   20.6139 H   0  0  0  0  0  0
  -26.8369  -30.8301   22.0145 H   0  0  0  0  0  0
  -28.0978  -28.9529   21.2062 H   0  0  0  0  0  0
  -25.8609  -25.9809   18.9593 H   0  0  0  0  0  0
  -23.9207  -27.3533   19.0180 H   0  0  0  0  0  0
  -23.7398  -30.6204   19.4221 H   0  0  0  0  0  0
  -22.7332  -29.2765   19.8686 H   0  0  0  0  0  0
  -25.1271  -36.1951   25.0831 H   0  0  0  0  0  0
  -20.9986  -28.3171   24.1473 H   0  0  0  0  0  0
  -20.5713  -26.2221   23.3616 H   0  0  0  0  0  0
  -21.6629  -26.7387   22.1201 H   0  0  0  0  0  0
  -19.6877  -25.6279   21.1235 H   0  0  0  0  0  0
  -19.6650  -27.3218   20.6829 H   0  0  0  0  0  0
  -17.4198  -26.6752   21.4009 H   0  0  0  0  0  0
  -18.0217  -25.9957   22.8968 H   0  0  0  0  0  0
  -19.7893  -30.7289   24.2251 H   0  0  0  0  0  0
  -17.4939  -31.6201   24.5166 H   0  0  0  0  0  0
  -15.5324  -30.2910   23.7585 H   0  0  0  0  0  0
  -15.8694  -28.0714   22.7128 H   0  0  0  0  0  0
  -24.5850  -30.7146   25.7913 H   0  0  0  0  0  0
  -24.8999  -32.2953   26.5008 H   0  0  0  0  0  0
  -25.8066  -30.8916   27.0303 H   0  0  0  0  0  0
  -26.2913  -29.6804   24.1216 H   0  0  0  0  0  0
  -27.3965  -29.7246   25.4731 H   0  0  0  0  0  0
  -27.8786  -30.4320   23.9504 H   0  0  0  0  0  0
  -27.2568  -33.3661   26.2091 H   0  0  0  0  0  0
  -28.3809  -32.6929   25.0388 H   0  0  0  0  0  0
  -28.0663  -31.8543   26.5509 H   0  0  0  0  0  0
  -28.2521  -38.0173   24.7623 H   0  0  0  0  0  0
  -28.1181  -36.2727   24.6094 H   0  0  0  0  0  0
  -27.2361  -37.1231   25.8847 H   0  0  0  0  0  0
  -20.9355  -29.8785   21.7043 H   0  0  0  0  0  0
  -26.0158  -38.2858   24.1509 H   0  0  0  0  0  0
  -30.7918  -21.7447   19.2158 H   0  0  0  0  0  0
  -29.9406  -21.3148   17.7753 H   0  0  0  0  0  0
  -28.3936  -20.5719   21.7262 H   0  0  0  0  0  0
  -29.9695  -21.2872   21.4620 H   0  0  0  0  0  0
  -28.1049  -22.8576   18.2757 H   0  0  0  0  0  0
  -29.6327  -23.6583   18.0381 H   0  0  0  0  0  0
  -28.2369  -23.0413   22.0729 H   0  0  0  0  0  0
  -27.2649  -22.5100   20.7591 H   0  0  0  0  0  0
  -27.9584  -20.6164   19.2623 H   0  0  0  0  0  0
  -31.5845  -24.8147   21.7967 H   0  0  0  0  0  0
  -30.0110  -24.4326   22.4928 H   0  0  0  0  0  0
  -30.2337  -25.8831   21.4896 H   0  0  0  0  0  0
  -27.7019  -25.0065   18.8300 H   0  0  0  0  0  0
  -27.0550  -24.7782   20.4288 H   0  0  0  0  0  0
  -28.9560  -19.8806   16.7360 H   0  0  0  0  0  0
  -29.6721  -18.5178   16.0607 H   0  0  0  0  0  0
  -29.1236  -15.5294   21.3831 H   0  0  0  0  0  0
  1 25  1  0  0  0
  1 30  2  0  0  0
  1 84  1  0  0  0
  2  3  1  0  0  0
  2 25  1  0  0  0
  2 87  1  0  0  0
  2 88  1  0  0  0
  3  4  1  0  0  0
  3 89  1  0  0  0
  3 90  1  0  0  0
  4  5  1  0  0  0
  4 91  1  0  0  0
  4 92  1  0  0  0
  5  6  1  0  0  0
  5 26  1  0  0  0
  5 93  1  0  0  0
  6 25  1  0  0  0
  6 94  1  0  0  0
  6 95  1  0  0  0
  7  8  2  0  0  0
  7 26  1  0  0  0
  7 29  1  0  0  0
  8  9  1  0  0  0
  8 22  1  0  0  0
  9 10  1  0  0  0
  9 27  2  0  0  0
 10 11  2  0  0  0
 10 15  1  0  0  0
 11 12  1  0  0  0
 11 96  1  0  0  0
 12 13  2  0  0  0
 12 97  1  0  0  0
 13 14  1  0  0  0
 13 31  1  0  0  0
 14 15  2  0  0  0
 14 98  1  0  0  0
 15 99  1  0  0  0
 16 17  2  0  0  0
 16 21  1  0  0  0
 16 31  1  0  0  0
 17 18  1  0  0  0
 17100  1  0  0  0
 18 19  2  0  0  0
 18101  1  0  0  0
 19 20  1  0  0  0
 19 24  1  0  0  0
 20 21  2  0  0  0
 20102  1  0  0  0
 21 23  1  0  0  0
 22 28  1  0  0  0
 22 32  2  0  0  0
 26 27  1  0  0  0
 28103  1  0  0  0
 28104  1  0  0  0
 29105  1  0  0  0
 29106  1  0  0  0
 33 34  1  0  0  0
 33 66  1  0  0  0
 33 70  2  0  0  0
 34 36  1  0  0  0
 34 59  1  0  0  0
 34107  1  0  0  0
 35 44  2  0  0  0
 35 45  1  0  0  0
 35 68  1  0  0  0
 36 56  1  0  0  0
 36108  1  0  0  0
 37 39  1  0  0  0
 37 47  1  0  0  0
 37 66  1  0  0  0
 37109  1  0  0  0
 38 43  2  0  0  0
 38 46  1  0  0  0
 38 47  1  0  0  0
 39 64  1  0  0  0
 39 67  2  0  0  0
 40 52  1  0  0  0
 40 53  2  0  0  0
 40 58  1  0  0  0
 41110  1  0  0  0
 41111  1  0  0  0
 41112  1  0  0  0
 41 48  1  0  0  0
 42 43  1  0  0  0
 42 66  1  0  0  0
 42113  1  0  0  0
 42114  1  0  0  0
 43 44  1  0  0  0
 44115  1  0  0  0
 45 46  2  0  0  0
 45116  1  0  0  0
 46117  1  0  0  0
 47118  1  0  0  0
 47119  1  0  0  0
 48 56  1  0  0  0
 48 65  1  0  0  0
 48120  1  0  0  0
 49 50  1  0  0  0
 49 53  1  0  0  0
 49 64  1  0  0  0
 49121  1  0  0  0
 50 51  1  0  0  0
 50122  1  0  0  0
 50123  1  0  0  0
 51 52  1  0  0  0
 51124  1  0  0  0
 51125  1  0  0  0
 52126  1  0  0  0
 52127  1  0  0  0
 53 54  1  0  0  0
 54 55  2  0  0  0
 54128  1  0  0  0
 55 57  1  0  0  0
 55129  1  0  0  0
 56 69  2  0  0  0
 57 58  2  0  0  0
 57130  1  0  0  0
 58131  1  0  0  0
 59 60  1  0  0  0
 59 61  1  0  0  0
 59 62  1  0  0  0
 60132  1  0  0  0
 60133  1  0  0  0
 60134  1  0  0  0
 61135  1  0  0  0
 61136  1  0  0  0
 61137  1  0  0  0
 62138  1  0  0  0
 62139  1  0  0  0
 62140  1  0  0  0
 63 65  1  0  0  0
 63141  1  0  0  0
 63142  1  0  0  0
 63143  1  0  0  0
 64144  1  0  0  0
 65145  1  0  0  0
 68 81  1  0  0  0
 71 72  2  0  0  0
 71 82  1  0  0  0
 71 78  1  0  0  0
 72 83  1  0  0  0
 72 86  1  0  0  0
 73 82  2  0  0  0
 73 84  1  0  0  0
 73 86  1  0  0  0
 74 76  1  0  0  0
 74 78  1  0  0  0
 74146  1  0  0  0
 74147  1  0  0  0
 75 77  1  0  0  0
 75 78  1  0  0  0
 75148  1  0  0  0
 75149  1  0  0  0
 76 79  1  0  0  0
 76150  1  0  0  0
 76151  1  0  0  0
 77 79  1  0  0  0
 77152  1  0  0  0
 77153  1  0  0  0
 78154  1  0  0  0
 79 81  1  0  0  0
 79 85  1  0  0  0
 80 85  1  0  0  0
 80155  1  0  0  0
 80156  1  0  0  0
 80157  1  0  0  0
 81158  1  0  0  0
 81159  1  0  0  0
 83160  1  0  0  0
 83161  1  0  0  0
 84162  1  0  0  0
M  ISO  4   1 100  68 101  81 101  84 100
M  END
> <chiral flag>
0

> <version>
0

> <s_m_source_file>
/data/baiqing/PycharmProjects/Reinvent-master-3.2/result/LINK_invent/BTK/process_docking_weight1_custom_product_contain_oxygen_bond_distance_aromatic_linkinvent_7_9_3/rearranged_h_0158.sdf

> <i_m_source_file_index>
83

> <r_mmod_Potential_Energy-OPLS-2005>
137.172225952148

> <r_mmod_Stretch_Energy-OPLS-2005>
74.2828674316406

> <r_mmod_Bend_Energy-OPLS-2005>
170.929779052734

> <r_mmod_Torsional_Energy-OPLS-2005>
278.580078125

> <r_mmod_Improper_Torsional_Energy-OPLS-2005>
7.83055353164673

> <r_mmod_Van_der_Waal_Energy-OPLS-2005>
146.623474121094

> <r_mmod_Electrostatic_Energy-OPLS-2005>
-361.037384033203

> <r_mmod_Solvation_Energy-OPLS-2005>
-225.715957641602

> <b_mmod_Minimization_Converged-OPLS-2005>
0

> <r_mmod_RMS_Derivative-OPLS-2005>
5.1981348991394

$$$$
83
                    3D
 Structure written by MMmdl.
156165  0  0  1  0            999 V2000
  -30.6503  -14.6365   20.4934 C   0  0  0  0  0  0
  -30.4327  -12.3913   19.4519 C   0  0  0  0  0  0
  -29.5047  -12.4991   18.2225 C   0  0  0  0  0  0
  -28.0286  -12.3384   18.6374 C   0  0  0  0  0  0
  -27.6499  -13.2197   19.8575 C   0  0  2  0  0  0
  -28.6971  -13.1003   20.9880 C   0  0  0  0  0  0
  -25.2548  -13.8178   20.5686 C   0  0  0  0  0  0
  -24.1823  -13.0438   20.9200 C   0  0  0  0  0  0
  -24.6397  -11.6911   20.8747 C   0  0  0  0  0  0
  -23.9067  -10.4293   21.0411 C   0  0  0  0  0  0
  -24.3619   -9.4206   21.9187 C   0  0  0  0  0  0
  -23.6293   -8.2242   22.0755 C   0  0  0  0  0  0
  -22.4275   -8.0282   21.3545 C   0  0  0  0  0  0
  -21.9911   -9.0256   20.4648 C   0  0  0  0  0  0
  -22.7240  -10.2135   20.3058 C   0  0  0  0  0  0
  -21.6853   -6.0736   22.5280 C   0  0  0  0  0  0
  -21.4014   -6.5640   23.8213 C   0  0  0  0  0  0
  -21.3659   -5.6793   24.9175 C   0  0  0  0  0  0
  -21.6043   -4.3055   24.7225 C   0  0  0  0  0  0
  -21.8819   -3.8147   23.4347 C   0  0  0  0  0  0
  -21.9192   -4.6964   22.3403 C   0  0  0  0  0  0
  -22.7845  -13.5228   21.1859 C   0  0  0  0  0  0
  -22.1661   -4.2150   21.0980 F   0  0  0  0  0  0
  -21.5628   -3.4538   25.7737 F   0  0  0  0  0  0
  -30.0103  -13.4277   20.4141 N   0  0  0  0  0  0
  -26.2976  -12.9365   20.3307 N   0  0  0  0  0  0
  -25.9326  -11.6518   20.5762 N   0  0  0  0  0  0
  -22.0484  -12.8222   22.0414 N   0  0  0  0  0  0
  -25.4242  -15.1902   20.4091 N   0  0  0  0  0  0
  -31.8321  -14.7549   20.1580 O   0  0  0  0  0  0
  -21.6638   -6.8879   21.4242 O   0  0  0  0  0  0
  -22.3533  -14.5535   20.6705 O   0  0  0  0  0  0
  -24.6280  -31.8616   23.2063 C   0  0  0  0  0  0
  -25.9128  -32.4788   23.8382 C   0  0  1  0  0  0
  -27.2138  -27.3110   20.1030 C   0  0  0  0  0  0
  -25.5945  -33.8589   24.2302 N   0  0  0  0  0  0
  -23.4205  -30.4905   21.5501 C   0  0  2  0  0  0
  -24.8637  -28.9556   20.1104 C   0  0  0  0  0  0
  -22.7483  -29.4641   22.4937 C   0  0  0  0  0  0
  -18.0289  -28.1383   22.8487 C   0  0  0  0  0  0
  -24.1491  -36.7294   23.2635 C   0  0  0  0  0  0
  -25.9663  -30.7880   21.3827 C   0  0  0  0  0  0
  -26.0370  -29.4178   20.7197 C   0  0  0  0  0  0
  -27.2140  -28.6065   20.7121 C   0  0  0  0  0  0
  -26.0111  -26.9209   19.4584 C   0  0  0  0  0  0
  -24.8532  -27.7115   19.4728 C   0  0  0  0  0  0
  -23.6346  -29.8368   20.1626 C   0  0  0  0  0  0
  -25.4114  -36.3088   24.0330 C   0  0  1  0  0  0
  -20.5892  -28.3693   23.1276 C   0  0  2  0  0  0
  -20.6781  -26.9417   22.5401 C   0  0  0  0  0  0
  -19.5753  -26.6385   21.5209 C   0  0  0  0  0  0
  -18.1935  -26.7926   22.1626 C   0  0  0  0  0  0
  -19.1542  -28.8855   23.2877 C   0  0  0  0  0  0
  -18.9463  -30.1456   23.8894 C   0  0  0  0  0  0
  -17.6462  -30.6586   24.0561 C   0  0  0  0  0  0
  -25.9054  -34.9456   23.5111 C   0  0  0  0  0  0
  -16.5354  -29.9083   23.6330 C   0  0  0  0  0  0
  -16.7276  -28.6500   23.0353 C   0  0  0  0  0  0
  -26.4504  -31.6592   25.0749 C   0  0  0  0  0  0
  -25.3734  -31.3731   26.1472 C   0  0  0  0  0  0
  -27.0346  -30.3011   24.6212 C   0  0  0  0  0  0
  -27.6065  -32.4324   25.7518 C   0  0  0  0  0  0
  -27.5582  -37.1802   24.8463 C   0  0  0  0  0  0
  -21.4197  -29.3052   22.3675 N   0  0  0  0  0  0
  -26.4291  -37.3782   23.9411 N   0  0  0  0  0  0
  -24.6906  -31.0626   22.1025 N   0  0  0  0  0  0
  -23.4208  -28.8161   23.3001 O   0  0  0  0  0  0
  -28.3130  -26.4255   20.1591 O   0  0  0  0  0  0
  -26.5612  -34.8918   22.4672 O   0  0  0  0  0  0
  -23.5441  -32.1420   23.7384 O   0  0  0  0  0  0
  -31.4097  -17.7477   20.8273 C   0  0  0  0  0  0
  -30.2106  -17.0795   20.7082 C   0  0  0  0  0  0
  -29.8762  -19.3074   20.5964 C   0  0  0  0  0  0
  -29.2257  -21.2633   18.9748 C   0  0  0  0  0  0
  -28.5365  -22.6593   18.8751 C   0  0  0  0  0  0
  -29.0030  -23.0062   21.3176 C   0  0  0  0  0  0
  -29.1132  -20.6469   20.3882 C   0  0  2  0  0  0
  -28.9926  -23.7315   19.9219 C   0  0  2  0  0  0
  -28.0412  -25.0160   19.7733 C   0  0  0  0  0  0
  -31.1899  -19.1329   20.7720 N   0  0  0  0  0  0
  -29.8645  -15.7362   20.7276 N   0  0  0  0  0  0
  -29.6727  -21.6495   21.3385 N   0  3  0  0  0  0
  -29.2358  -18.0787   20.5598 O   0  0  0  0  0  0
  -30.2412  -24.0796   19.6052 F   0  0  0  0  0  0
  -31.4748  -12.5063   19.1483 H   0  0  0  0  0  0
  -30.3605  -11.4015   19.9052 H   0  0  0  0  0  0
  -29.7692  -11.7424   17.4825 H   0  0  0  0  0  0
  -29.6467  -13.4654   17.7356 H   0  0  0  0  0  0
  -27.8686  -11.2870   18.8789 H   0  0  0  0  0  0
  -27.3727  -12.5584   17.7944 H   0  0  0  0  0  0
  -27.6601  -14.2500   19.5019 H   0  0  0  0  0  0
  -28.7080  -12.0896   21.3988 H   0  0  0  0  0  0
  -28.4486  -13.7608   21.8204 H   0  0  0  0  0  0
  -25.2765   -9.5680   22.4761 H   0  0  0  0  0  0
  -24.0003   -7.4631   22.7472 H   0  0  0  0  0  0
  -21.0842   -8.8777   19.8954 H   0  0  0  0  0  0
  -22.3701  -10.9674   19.6167 H   0  0  0  0  0  0
  -21.2008   -7.6149   23.9717 H   0  0  0  0  0  0
  -21.1480   -6.0522   25.9078 H   0  0  0  0  0  0
  -22.0599   -2.7609   23.2845 H   0  0  0  0  0  0
  -22.4095  -11.9881   22.4802 H   0  0  0  0  0  0
  -21.1103  -13.1251   22.2616 H   0  0  0  0  0  0
  -24.6521  -15.8398   20.5134 H   0  0  0  0  0  0
  -26.2646  -15.6313   20.0584 H   0  0  0  0  0  0
  -26.7195  -32.5451   23.1127 H   0  0  0  0  0  0
  -25.0106  -33.9739   25.0456 H   0  0  0  0  0  0
  -22.7146  -31.3123   21.4126 H   0  0  0  0  0  0
  -23.3754  -35.9626   23.3297 H   0  0  0  0  0  0
  -24.3586  -36.8913   22.2050 H   0  0  0  0  0  0
  -23.7241  -37.6497   23.6653 H   0  0  0  0  0  0
  -26.1042  -31.5537   20.6180 H   0  0  0  0  0  0
  -26.8448  -30.8302   22.0148 H   0  0  0  0  0  0
  -28.1099  -28.9550   21.2068 H   0  0  0  0  0  0
  -25.9065  -25.9835   18.9355 H   0  0  0  0  0  0
  -23.9562  -27.3541   18.9856 H   0  0  0  0  0  0
  -23.7570  -30.6184   19.4120 H   0  0  0  0  0  0
  -22.7531  -29.2710   19.8554 H   0  0  0  0  0  0
  -25.1291  -36.1943   25.0823 H   0  0  0  0  0  0
  -20.9984  -28.3263   24.1396 H   0  0  0  0  0  0
  -20.5689  -26.2302   23.3601 H   0  0  0  0  0  0
  -21.6648  -26.7451   22.1189 H   0  0  0  0  0  0
  -19.6916  -25.6295   21.1240 H   0  0  0  0  0  0
  -19.6686  -27.3193   20.6736 H   0  0  0  0  0  0
  -17.4202  -26.6668   21.4032 H   0  0  0  0  0  0
  -18.0342  -26.0068   22.9025 H   0  0  0  0  0  0
  -19.7938  -30.7272   24.2263 H   0  0  0  0  0  0
  -17.5017  -31.6267   24.5161 H   0  0  0  0  0  0
  -15.5354  -30.2984   23.7655 H   0  0  0  0  0  0
  -15.8676  -28.0816   22.7072 H   0  0  0  0  0  0
  -24.5909  -30.7082   25.7800 H   0  0  0  0  0  0
  -24.8927  -32.2898   26.4899 H   0  0  0  0  0  0
  -25.8057  -30.8907   27.0248 H   0  0  0  0  0  0
  -26.2925  -29.6766   24.1224 H   0  0  0  0  0  0
  -27.4020  -29.7265   25.4725 H   0  0  0  0  0  0
  -27.8809  -30.4290   23.9460 H   0  0  0  0  0  0
  -27.2676  -33.3622   26.2099 H   0  0  0  0  0  0
  -28.3874  -32.6886   25.0345 H   0  0  0  0  0  0
  -28.0735  -31.8447   26.5431 H   0  0  0  0  0  0
  -28.2589  -38.0110   24.7526 H   0  0  0  0  0  0
  -28.1088  -36.2642   24.6267 H   0  0  0  0  0  0
  -27.2303  -37.1424   25.8866 H   0  0  0  0  0  0
  -20.9371  -29.8794   21.6905 H   0  0  0  0  0  0
  -26.0173  -38.2857   24.1417 H   0  0  0  0  0  0
  -32.4042  -17.3440   20.9618 H   0  0  0  0  0  0
  -30.2772  -21.3614   18.7011 H   0  0  0  0  0  0
  -28.7877  -20.5812   18.2453 H   0  0  0  0  0  0
  -27.4604  -22.5090   18.9778 H   0  0  0  0  0  0
  -28.6799  -23.0503   17.8669 H   0  0  0  0  0  0
  -27.9751  -22.8744   21.6585 H   0  0  0  0  0  0
  -29.4810  -23.6496   22.0568 H   0  0  0  0  0  0
  -28.0642  -20.4724   20.6314 H   0  0  0  0  0  0
  -27.1045  -24.7144   20.2443 H   0  0  0  0  0  0
  -27.8432  -25.0840   18.7027 H   0  0  0  0  0  0
  -28.8880  -15.5337   20.8708 H   0  0  0  0  0  0
  -29.6068  -21.2616   22.2648 H   0  0  0  0  0  0
  -30.6536  -21.7464   21.1320 H   0  0  0  0  0  0
  1 25  1  0  0  0
  1 30  2  0  0  0
  1 81  1  0  0  0
  2  3  1  0  0  0
  2 25  1  0  0  0
  2 85  1  0  0  0
  2 86  1  0  0  0
  3  4  1  0  0  0
  3 87  1  0  0  0
  3 88  1  0  0  0
  4  5  1  0  0  0
  4 89  1  0  0  0
  4 90  1  0  0  0
  5  6  1  0  0  0
  5 26  1  0  0  0
  5 91  1  0  0  0
  6 25  1  0  0  0
  6 92  1  0  0  0
  6 93  1  0  0  0
  7  8  2  0  0  0
  7 26  1  0  0  0
  7 29  1  0  0  0
  8  9  1  0  0  0
  8 22  1  0  0  0
  9 10  1  0  0  0
  9 27  2  0  0  0
 10 11  2  0  0  0
 10 15  1  0  0  0
 11 12  1  0  0  0
 11 94  1  0  0  0
 12 13  2  0  0  0
 12 95  1  0  0  0
 13 14  1  0  0  0
 13 31  1  0  0  0
 14 15  2  0  0  0
 14 96  1  0  0  0
 15 97  1  0  0  0
 16 17  2  0  0  0
 16 21  1  0  0  0
 16 31  1  0  0  0
 17 18  1  0  0  0
 17 98  1  0  0  0
 18 19  2  0  0  0
 18 99  1  0  0  0
 19 20  1  0  0  0
 19 24  1  0  0  0
 20 21  2  0  0  0
 20100  1  0  0  0
 21 23  1  0  0  0
 22 28  1  0  0  0
 22 32  2  0  0  0
 26 27  1  0  0  0
 28101  1  0  0  0
 28102  1  0  0  0
 29103  1  0  0  0
 29104  1  0  0  0
 33 34  1  0  0  0
 33 66  1  0  0  0
 33 70  2  0  0  0
 34 36  1  0  0  0
 34 59  1  0  0  0
 34105  1  0  0  0
 35 44  2  0  0  0
 35 45  1  0  0  0
 35 68  1  0  0  0
 36 56  1  0  0  0
 36106  1  0  0  0
 37 39  1  0  0  0
 37 47  1  0  0  0
 37 66  1  0  0  0
 37107  1  0  0  0
 38 43  2  0  0  0
 38 46  1  0  0  0
 38 47  1  0  0  0
 39 64  1  0  0  0
 39 67  2  0  0  0
 40 52  1  0  0  0
 40 53  2  0  0  0
 40 58  1  0  0  0
 41108  1  0  0  0
 41109  1  0  0  0
 41110  1  0  0  0
 41 48  1  0  0  0
 42 43  1  0  0  0
 42 66  1  0  0  0
 42111  1  0  0  0
 42112  1  0  0  0
 43 44  1  0  0  0
 44113  1  0  0  0
 45 46  2  0  0  0
 45114  1  0  0  0
 46115  1  0  0  0
 47116  1  0  0  0
 47117  1  0  0  0
 48 56  1  0  0  0
 48 65  1  0  0  0
 48118  1  0  0  0
 49 50  1  0  0  0
 49 53  1  0  0  0
 49 64  1  0  0  0
 49119  1  0  0  0
 50 51  1  0  0  0
 50120  1  0  0  0
 50121  1  0  0  0
 51 52  1  0  0  0
 51122  1  0  0  0
 51123  1  0  0  0
 52124  1  0  0  0
 52125  1  0  0  0
 53 54  1  0  0  0
 54 55  2  0  0  0
 54126  1  0  0  0
 55 57  1  0  0  0
 55127  1  0  0  0
 56 69  2  0  0  0
 57 58  2  0  0  0
 57128  1  0  0  0
 58129  1  0  0  0
 59 60  1  0  0  0
 59 61  1  0  0  0
 59 62  1  0  0  0
 60130  1  0  0  0
 60131  1  0  0  0
 60132  1  0  0  0
 61133  1  0  0  0
 61134  1  0  0  0
 61135  1  0  0  0
 62136  1  0  0  0
 62137  1  0  0  0
 62138  1  0  0  0
 63 65  1  0  0  0
 63139  1  0  0  0
 63140  1  0  0  0
 63141  1  0  0  0
 64142  1  0  0  0
 65143  1  0  0  0
 68 79  1  0  0  0
 71 72  2  0  0  0
 71 80  1  0  0  0
 71144  1  0  0  0
 72 81  1  0  0  0
 72 83  1  0  0  0
 73 80  2  0  0  0
 73 83  1  0  0  0
 73 77  1  0  0  0
 74 75  1  0  0  0
 74 77  1  0  0  0
 74145  1  0  0  0
 74146  1  0  0  0
 75 78  1  0  0  0
 75147  1  0  0  0
 75148  1  0  0  0
 76 78  1  0  0  0
 76 82  1  0  0  0
 76149  1  0  0  0
 76150  1  0  0  0
 77 82  1  0  0  0
 77151  1  0  0  0
 78 79  1  0  0  0
 78 84  1  0  0  0
 79152  1  0  0  0
 79153  1  0  0  0
 81154  1  0  0  0
 82155  1  0  0  0
 82156  1  0  0  0
M  CHG  1  82   1
M  ISO  4   1 100  68 101  79 101  81 100
M  END
> <chiral flag>
0

> <version>
0

> <s_m_source_file>
/data/baiqing/PycharmProjects/Reinvent-master-3.2/result/LINK_invent/BTK/process_docking_weight1_custom_product_contain_oxygen_bond_distance_aromatic_linkinvent_7_9_3/rearranged_h_0158.sdf

> <i_m_source_file_index>
84

> <r_mmod_Potential_Energy-OPLS-2005>
-233.516357421875

> <r_mmod_Stretch_Energy-OPLS-2005>
78.5691986083984

> <r_mmod_Bend_Energy-OPLS-2005>
148.706604003906

> <r_mmod_Torsional_Energy-OPLS-2005>
244.119079589844

> <r_mmod_Improper_Torsional_Energy-OPLS-2005>
5.46857023239136

> <r_mmod_Van_der_Waal_Energy-OPLS-2005>
138.007064819336

> <r_mmod_Electrostatic_Energy-OPLS-2005>
-416.424957275391

> <r_mmod_Solvation_Energy-OPLS-2005>
-485.627593994141

> <b_mmod_Minimization_Converged-OPLS-2005>
0

> <r_mmod_RMS_Derivative-OPLS-2005>
0.18783999979496

$$$$
84
                    3D
 Structure written by MMmdl.
163172  0  0  1  0            999 V2000
  -30.5636  -14.8025   20.4644 C   0  0  0  0  0  0
  -30.4453  -12.4938   19.4780 C   0  0  0  0  0  0
  -29.5126  -12.4950   18.2454 C   0  0  0  0  0  0
  -28.0457  -12.2944   18.6687 C   0  0  0  0  0  0
  -27.6352  -13.2210   19.8425 C   0  0  2  0  0  0
  -28.6776  -13.1870   20.9790 C   0  0  0  0  0  0
  -25.2502  -13.8173   20.5703 C   0  0  0  0  0  0
  -24.1785  -13.0427   20.9222 C   0  0  0  0  0  0
  -24.6374  -11.6908   20.8772 C   0  0  0  0  0  0
  -23.9038  -10.4289   21.0433 C   0  0  0  0  0  0
  -24.3594   -9.4193   21.9207 C   0  0  0  0  0  0
  -23.6287   -8.2224   22.0750 C   0  0  0  0  0  0
  -22.4274   -8.0272   21.3535 C   0  0  0  0  0  0
  -21.9890   -9.0246   20.4648 C   0  0  0  0  0  0
  -22.7208  -10.2131   20.3077 C   0  0  0  0  0  0
  -21.6854   -6.0738   22.5281 C   0  0  0  0  0  0
  -21.4016   -6.5644   23.8214 C   0  0  0  0  0  0
  -21.3660   -5.6792   24.9172 C   0  0  0  0  0  0
  -21.6043   -4.3058   24.7215 C   0  0  0  0  0  0
  -21.8823   -3.8146   23.4341 C   0  0  0  0  0  0
  -21.9184   -4.6963   22.3395 C   0  0  0  0  0  0
  -22.7808  -13.5225   21.1869 C   0  0  0  0  0  0
  -22.1664   -4.2151   21.0974 F   0  0  0  0  0  0
  -21.5600   -3.4544   25.7723 F   0  0  0  0  0  0
  -29.9700  -13.5582   20.3919 N   0  0  0  0  0  0
  -26.2890  -12.9349   20.3245 N   0  0  0  0  0  0
  -25.9291  -11.6509   20.5765 N   0  0  0  0  0  0
  -22.0461  -12.8235   22.0448 N   0  0  0  0  0  0
  -25.4209  -15.1913   20.4134 N   0  0  0  0  0  0
  -31.7681  -14.9109   20.2143 O   0  0  0  0  0  0
  -21.6628   -6.8884   21.4254 O   0  0  0  0  0  0
  -22.3513  -14.5528   20.6700 O   0  0  0  0  0  0
  -24.6341  -31.8501   23.1911 C   0  0  0  0  0  0
  -25.9140  -32.4740   23.8285 C   0  0  1  0  0  0
  -27.2053  -27.2114   20.1671 C   0  0  0  0  0  0
  -25.5921  -33.8543   24.2202 N   0  0  0  0  0  0
  -23.4348  -30.4705   21.5354 C   0  0  2  0  0  0
  -24.8833  -28.9061   20.1128 C   0  0  0  0  0  0
  -22.7513  -29.4572   22.4855 C   0  0  0  0  0  0
  -18.0296  -28.1401   22.8467 C   0  0  0  0  0  0
  -24.1501  -36.7288   23.2632 C   0  0  0  0  0  0
  -25.9828  -30.7563   21.3727 C   0  0  0  0  0  0
  -26.0573  -29.3714   20.7214 C   0  0  0  0  0  0
  -27.2290  -28.5398   20.7244 C   0  0  0  0  0  0
  -26.0120  -26.8220   19.5294 C   0  0  0  0  0  0
  -24.8667  -27.6426   19.5030 C   0  0  0  0  0  0
  -23.6565  -29.7978   20.1539 C   0  0  0  0  0  0
  -25.4124  -36.3048   24.0307 C   0  0  1  0  0  0
  -20.5905  -28.3704   23.1252 C   0  0  2  0  0  0
  -20.6778  -26.9405   22.5414 C   0  0  0  0  0  0
  -19.5764  -26.6364   21.5215 C   0  0  0  0  0  0
  -18.1940  -26.7935   22.1615 C   0  0  0  0  0  0
  -19.1550  -28.8865   23.2860 C   0  0  0  0  0  0
  -18.9474  -30.1459   23.8889 C   0  0  0  0  0  0
  -17.6473  -30.6591   24.0562 C   0  0  0  0  0  0
  -25.9052  -34.9427   23.5056 C   0  0  0  0  0  0
  -16.5357  -29.9082   23.6333 C   0  0  0  0  0  0
  -16.7288  -28.6502   23.0344 C   0  0  0  0  0  0
  -26.4486  -31.6588   25.0702 C   0  0  0  0  0  0
  -25.3692  -31.3830   26.1424 C   0  0  0  0  0  0
  -27.0290  -30.2970   24.6238 C   0  0  0  0  0  0
  -27.6030  -32.4341   25.7487 C   0  0  0  0  0  0
  -27.5583  -37.1788   24.8441 C   0  0  0  0  0  0
  -21.4215  -29.3044   22.3620 N   0  0  0  0  0  0
  -26.4293  -37.3748   23.9390 N   0  0  0  0  0  0
  -24.7039  -31.0436   22.0901 N   0  0  0  0  0  0
  -23.4185  -28.8110   23.2968 O   0  0  0  0  0  0
  -28.2707  -26.2746   20.2024 O   0  0  0  0  0  0
  -26.5646  -34.8912   22.4639 O   0  0  0  0  0  0
  -23.5481  -32.1340   23.7181 O   0  0  0  0  0  0
  -30.6875  -19.2834   21.5399 C   0  0  0  0  0  0
  -30.8841  -17.8532   21.5341 C   0  0  0  0  0  0
  -29.6156  -19.5903   20.7349 C   0  0  0  0  0  0
  -29.9396  -17.2985   20.7116 C   0  0  0  0  0  0
  -27.9411  -22.6709   19.1022 C   0  0  0  0  0  0
  -28.4270  -21.1832   19.1076 C   0  0  0  0  0  0
  -28.7085  -23.4485   20.2129 C   0  0  2  0  0  0
  -28.8942  -22.1649   21.2102 C   0  0  0  0  0  0
  -27.6087  -21.9106   22.0320 C   0  0  0  0  0  0
  -30.0101  -22.4113   22.2414 C   0  0  0  0  0  0
  -30.1561  -24.4261   18.5248 C   0  0  0  0  0  0
  -28.0287  -24.8674   20.7483 C   0  0  0  0  0  0
  -29.1416  -20.9358   20.3562 N   0  0  0  0  0  0
  -29.7184  -15.9127   20.5351 N   0  0  0  0  0  0
  -29.1402  -18.3618   20.2051 O   0  0  0  0  0  0
  -30.0345  -23.7879   19.7916 O   0  0  0  0  0  0
  -31.4795  -12.6524   19.1633 H   0  0  0  0  0  0
  -30.4275  -11.5272   19.9853 H   0  0  0  0  0  0
  -29.8087  -11.7110   17.5454 H   0  0  0  0  0  0
  -29.6137  -13.4392   17.7081 H   0  0  0  0  0  0
  -27.9368  -11.2542   18.9755 H   0  0  0  0  0  0
  -27.3799  -12.4291   17.8166 H   0  0  0  0  0  0
  -27.6143  -14.2285   19.4285 H   0  0  0  0  0  0
  -28.7307  -12.1945   21.4292 H   0  0  0  0  0  0
  -28.4022  -13.8763   21.7795 H   0  0  0  0  0  0
  -25.2756   -9.5638   22.4767 H   0  0  0  0  0  0
  -23.9983   -7.4598   22.7456 H   0  0  0  0  0  0
  -21.0806   -8.8766   19.8974 H   0  0  0  0  0  0
  -22.3677  -10.9660   19.6174 H   0  0  0  0  0  0
  -21.2046   -7.6162   23.9724 H   0  0  0  0  0  0
  -21.1472   -6.0526   25.9075 H   0  0  0  0  0  0
  -22.0602   -2.7607   23.2843 H   0  0  0  0  0  0
  -22.4077  -11.9910   22.4868 H   0  0  0  0  0  0
  -21.1087  -13.1278   22.2658 H   0  0  0  0  0  0
  -24.6545  -15.8439   20.5295 H   0  0  0  0  0  0
  -26.2576  -15.6288   20.0501 H   0  0  0  0  0  0
  -26.7214  -32.5400   23.1036 H   0  0  0  0  0  0
  -25.0035  -33.9669   25.0323 H   0  0  0  0  0  0
  -22.7358  -31.2944   21.3820 H   0  0  0  0  0  0
  -23.3742  -35.9639   23.3285 H   0  0  0  0  0  0
  -24.3581  -36.8933   22.2044 H   0  0  0  0  0  0
  -23.7287  -37.6498   23.6677 H   0  0  0  0  0  0
  -26.1179  -31.5135   20.5983 H   0  0  0  0  0  0
  -26.8620  -30.8155   22.0026 H   0  0  0  0  0  0
  -28.1349  -28.8895   21.2014 H   0  0  0  0  0  0
  -25.9514  -25.8454   19.0724 H   0  0  0  0  0  0
  -23.9656  -27.2820   19.0269 H   0  0  0  0  0  0
  -23.7846  -30.5721   19.3966 H   0  0  0  0  0  0
  -22.7771  -29.2293   19.8463 H   0  0  0  0  0  0
  -25.1313  -36.1877   25.0801 H   0  0  0  0  0  0
  -21.0017  -28.3305   24.1364 H   0  0  0  0  0  0
  -20.5649  -26.2312   23.3624 H   0  0  0  0  0  0
  -21.6651  -26.7392   22.1238 H   0  0  0  0  0  0
  -19.6918  -25.6260   21.1271 H   0  0  0  0  0  0
  -19.6734  -27.3149   20.6731 H   0  0  0  0  0  0
  -17.4208  -26.6674   21.4026 H   0  0  0  0  0  0
  -18.0347  -26.0089   22.9022 H   0  0  0  0  0  0
  -19.7947  -30.7281   24.2259 H   0  0  0  0  0  0
  -17.5019  -31.6272   24.5157 H   0  0  0  0  0  0
  -15.5359  -30.2985   23.7649 H   0  0  0  0  0  0
  -15.8687  -28.0819   22.7063 H   0  0  0  0  0  0
  -24.5848  -30.7190   25.7778 H   0  0  0  0  0  0
  -24.8919  -32.3054   26.4750 H   0  0  0  0  0  0
  -25.7987  -30.9080   27.0252 H   0  0  0  0  0  0
  -26.2866  -29.6757   24.1224 H   0  0  0  0  0  0
  -27.3858  -29.7221   25.4788 H   0  0  0  0  0  0
  -27.8802  -30.4167   23.9536 H   0  0  0  0  0  0
  -27.2606  -33.3631   26.2058 H   0  0  0  0  0  0
  -28.3854  -32.6928   25.0340 H   0  0  0  0  0  0
  -28.0683  -31.8483   26.5422 H   0  0  0  0  0  0
  -28.2577  -38.0100   24.7475 H   0  0  0  0  0  0
  -28.1104  -36.2631   24.6277 H   0  0  0  0  0  0
  -27.2304  -37.1448   25.8843 H   0  0  0  0  0  0
  -20.9371  -29.8782   21.6858 H   0  0  0  0  0  0
  -26.0164  -38.2811   24.1423 H   0  0  0  0  0  0
  -31.3059  -19.9919   22.0693 H   0  0  0  0  0  0
  -31.6270  -17.3010   22.0925 H   0  0  0  0  0  0
  -26.8788  -22.6813   19.3417 H   0  0  0  0  0  0
  -28.0048  -23.1084   18.1058 H   0  0  0  0  0  0
  -29.1098  -21.0148   18.2735 H   0  0  0  0  0  0
  -27.5859  -20.4999   18.9844 H   0  0  0  0  0  0
  -27.3391  -22.7741   22.6406 H   0  0  0  0  0  0
  -27.7411  -21.0731   22.7189 H   0  0  0  0  0  0
  -26.7467  -21.6645   21.4117 H   0  0  0  0  0  0
  -29.7966  -23.2999   22.8364 H   0  0  0  0  0  0
  -30.9815  -22.5641   21.7713 H   0  0  0  0  0  0
  -30.0958  -21.5907   22.9531 H   0  0  0  0  0  0
  -31.0713  -25.0162   18.5014 H   0  0  0  0  0  0
  -29.3240  -25.0935   18.2977 H   0  0  0  0  0  0
  -30.2140  -23.6792   17.7315 H   0  0  0  0  0  0
  -28.3769  -24.9626   21.7763 H   0  0  0  0  0  0
  -26.9574  -24.6977   20.8651 H   0  0  0  0  0  0
  -28.7476  -15.6625   20.4522 H   0  0  0  0  0  0
  1 25  1  0  0  0
  1 30  2  0  0  0
  1 84  1  0  0  0
  2  3  1  0  0  0
  2 25  1  0  0  0
  2 87  1  0  0  0
  2 88  1  0  0  0
  3  4  1  0  0  0
  3 89  1  0  0  0
  3 90  1  0  0  0
  4  5  1  0  0  0
  4 91  1  0  0  0
  4 92  1  0  0  0
  5  6  1  0  0  0
  5 26  1  0  0  0
  5 93  1  0  0  0
  6 25  1  0  0  0
  6 94  1  0  0  0
  6 95  1  0  0  0
  7  8  2  0  0  0
  7 26  1  0  0  0
  7 29  1  0  0  0
  8  9  1  0  0  0
  8 22  1  0  0  0
  9 10  1  0  0  0
  9 27  2  0  0  0
 10 11  2  0  0  0
 10 15  1  0  0  0
 11 12  1  0  0  0
 11 96  1  0  0  0
 12 13  2  0  0  0
 12 97  1  0  0  0
 13 14  1  0  0  0
 13 31  1  0  0  0
 14 15  2  0  0  0
 14 98  1  0  0  0
 15 99  1  0  0  0
 16 17  2  0  0  0
 16 21  1  0  0  0
 16 31  1  0  0  0
 17 18  1  0  0  0
 17100  1  0  0  0
 18 19  2  0  0  0
 18101  1  0  0  0
 19 20  1  0  0  0
 19 24  1  0  0  0
 20 21  2  0  0  0
 20102  1  0  0  0
 21 23  1  0  0  0
 22 28  1  0  0  0
 22 32  2  0  0  0
 26 27  1  0  0  0
 28103  1  0  0  0
 28104  1  0  0  0
 29105  1  0  0  0
 29106  1  0  0  0
 33 34  1  0  0  0
 33 66  1  0  0  0
 33 70  2  0  0  0
 34 36  1  0  0  0
 34 59  1  0  0  0
 34107  1  0  0  0
 35 44  2  0  0  0
 35 45  1  0  0  0
 35 68  1  0  0  0
 36 56  1  0  0  0
 36108  1  0  0  0
 37 39  1  0  0  0
 37 47  1  0  0  0
 37 66  1  0  0  0
 37109  1  0  0  0
 38 43  2  0  0  0
 38 46  1  0  0  0
 38 47  1  0  0  0
 39 64  1  0  0  0
 39 67  2  0  0  0
 40 52  1  0  0  0
 40 53  2  0  0  0
 40 58  1  0  0  0
 41110  1  0  0  0
 41111  1  0  0  0
 41112  1  0  0  0
 41 48  1  0  0  0
 42 43  1  0  0  0
 42 66  1  0  0  0
 42113  1  0  0  0
 42114  1  0  0  0
 43 44  1  0  0  0
 44115  1  0  0  0
 45 46  2  0  0  0
 45116  1  0  0  0
 46117  1  0  0  0
 47118  1  0  0  0
 47119  1  0  0  0
 48 56  1  0  0  0
 48 65  1  0  0  0
 48120  1  0  0  0
 49 50  1  0  0  0
 49 53  1  0  0  0
 49 64  1  0  0  0
 49121  1  0  0  0
 50 51  1  0  0  0
 50122  1  0  0  0
 50123  1  0  0  0
 51 52  1  0  0  0
 51124  1  0  0  0
 51125  1  0  0  0
 52126  1  0  0  0
 52127  1  0  0  0
 53 54  1  0  0  0
 54 55  2  0  0  0
 54128  1  0  0  0
 55 57  1  0  0  0
 55129  1  0  0  0
 56 69  2  0  0  0
 57 58  2  0  0  0
 57130  1  0  0  0
 58131  1  0  0  0
 59 60  1  0  0  0
 59 61  1  0  0  0
 59 62  1  0  0  0
 60132  1  0  0  0
 60133  1  0  0  0
 60134  1  0  0  0
 61135  1  0  0  0
 61136  1  0  0  0
 61137  1  0  0  0
 62138  1  0  0  0
 62139  1  0  0  0
 62140  1  0  0  0
 63 65  1  0  0  0
 63141  1  0  0  0
 63142  1  0  0  0
 63143  1  0  0  0
 64144  1  0  0  0
 65145  1  0  0  0
 68 82  1  0  0  0
 71 72  1  0  0  0
 71 73  2  0  0  0
 71146  1  0  0  0
 72 74  2  0  0  0
 72147  1  0  0  0
 73 83  1  0  0  0
 73 85  1  0  0  0
 74 84  1  0  0  0
 74 85  1  0  0  0
 75 76  1  0  0  0
 75 77  1  0  0  0
 75148  1  0  0  0
 75149  1  0  0  0
 76 83  1  0  0  0
 76150  1  0  0  0
 76151  1  0  0  0
 77 78  1  0  0  0
 77 82  1  0  0  0
 77 86  1  0  0  0
 78 79  1  0  0  0
 78 80  1  0  0  0
 78 83  1  0  0  0
 79152  1  0  0  0
 79153  1  0  0  0
 79154  1  0  0  0
 80155  1  0  0  0
 80156  1  0  0  0
 80157  1  0  0  0
 81 86  1  0  0  0
 81158  1  0  0  0
 81159  1  0  0  0
 81160  1  0  0  0
 82161  1  0  0  0
 82162  1  0  0  0
 84163  1  0  0  0
M  ISO  4   1 100  68 101  82 101  84 100
M  END
> <chiral flag>
0

> <version>
0

> <s_m_source_file>
/data/baiqing/PycharmProjects/Reinvent-master-3.2/result/LINK_invent/BTK/process_docking_weight1_custom_product_contain_oxygen_bond_distance_aromatic_linkinvent_7_9_3/rearranged_h_0158.sdf

> <i_m_source_file_index>
85

> <r_mmod_Potential_Energy-OPLS-2005>
366.420135498047

> <r_mmod_Stretch_Energy-OPLS-2005>
152.133056640625

> <r_mmod_Bend_Energy-OPLS-2005>
244.552185058594

> <r_mmod_Torsional_Energy-OPLS-2005>
342.978271484375

> <r_mmod_Improper_Torsional_Energy-OPLS-2005>
8.71035671234131

> <r_mmod_Van_der_Waal_Energy-OPLS-2005>
119.311614990234

> <r_mmod_Electrostatic_Energy-OPLS-2005>
-399.856964111328

> <r_mmod_Solvation_Energy-OPLS-2005>
-221.742691040039

> <b_mmod_Minimization_Converged-OPLS-2005>
0

> <r_mmod_RMS_Derivative-OPLS-2005>
3.97254204750061

$$$$
85
                    3D
 Structure written by MMmdl.
150158  0  0  1  0            999 V2000
  -30.6171  -14.7267   20.4390 C   0  0  0  0  0  0
  -30.4363  -12.4335   19.4876 C   0  0  0  0  0  0
  -29.5200  -12.4993   18.2448 C   0  0  0  0  0  0
  -28.0452  -12.3240   18.6547 C   0  0  0  0  0  0
  -27.6485  -13.2288   19.8521 C   0  0  2  0  0  0
  -28.6893  -13.1600   20.9932 C   0  0  0  0  0  0
  -25.2556  -13.8184   20.5692 C   0  0  0  0  0  0
  -24.1829  -13.0433   20.9180 C   0  0  0  0  0  0
  -24.6415  -11.6908   20.8724 C   0  0  0  0  0  0
  -23.9091  -10.4291   21.0390 C   0  0  0  0  0  0
  -24.3637   -9.4204   21.9166 C   0  0  0  0  0  0
  -23.6295   -8.2250   22.0741 C   0  0  0  0  0  0
  -22.4274   -8.0295   21.3534 C   0  0  0  0  0  0
  -21.9917   -9.0273   20.4634 C   0  0  0  0  0  0
  -22.7263  -10.2137   20.3043 C   0  0  0  0  0  0
  -21.6864   -6.0739   22.5276 C   0  0  0  0  0  0
  -21.4020   -6.5634   23.8208 C   0  0  0  0  0  0
  -21.3654   -5.6784   24.9169 C   0  0  0  0  0  0
  -21.6041   -4.3051   24.7209 C   0  0  0  0  0  0
  -21.8820   -3.8146   23.4334 C   0  0  0  0  0  0
  -21.9199   -4.6967   22.3391 C   0  0  0  0  0  0
  -22.7853  -13.5229   21.1846 C   0  0  0  0  0  0
  -22.1665   -4.2155   21.0963 F   0  0  0  0  0  0
  -21.5628   -3.4531   25.7720 F   0  0  0  0  0  0
  -30.0012  -13.4967   20.4227 N   0  0  0  0  0  0
  -26.2978  -12.9383   20.3263 N   0  0  0  0  0  0
  -25.9341  -11.6536   20.5717 N   0  0  0  0  0  0
  -22.0506  -12.8218   22.0398 N   0  0  0  0  0  0
  -25.4290  -15.1911   20.4156 N   0  0  0  0  0  0
  -31.7920  -14.8382   20.0795 O   0  0  0  0  0  0
  -21.6637   -6.8894   21.4241 O   0  0  0  0  0  0
  -22.3536  -14.5544   20.6709 O   0  0  0  0  0  0
  -24.6324  -31.8560   23.2002 C   0  0  0  0  0  0
  -25.9147  -32.4756   23.8341 C   0  0  1  0  0  0
  -27.2165  -27.2669   20.1062 C   0  0  0  0  0  0
  -25.5947  -33.8560   24.2264 N   0  0  0  0  0  0
  -23.4288  -30.4803   21.5434 C   0  0  2  0  0  0
  -24.8735  -28.9341   20.1081 C   0  0  0  0  0  0
  -22.7511  -29.4600   22.4900 C   0  0  0  0  0  0
  -18.0297  -28.1396   22.8459 C   0  0  0  0  0  0
  -24.1493  -36.7295   23.2628 C   0  0  0  0  0  0
  -25.9758  -30.7673   21.3819 C   0  0  0  0  0  0
  -26.0465  -29.3921   20.7200 C   0  0  0  0  0  0
  -27.2196  -28.5691   20.7131 C   0  0  0  0  0  0
  -26.0201  -26.8913   19.4488 C   0  0  0  0  0  0
  -24.8649  -27.6911   19.4636 C   0  0  0  0  0  0
  -23.6471  -29.8223   20.1576 C   0  0  0  0  0  0
  -25.4116  -36.3071   24.0317 C   0  0  1  0  0  0
  -20.5894  -28.3705   23.1253 C   0  0  2  0  0  0
  -20.6783  -26.9426   22.5392 C   0  0  0  0  0  0
  -19.5759  -26.6391   21.5194 C   0  0  0  0  0  0
  -18.1944  -26.7934   22.1614 C   0  0  0  0  0  0
  -19.1547  -28.8867   23.2851 C   0  0  0  0  0  0
  -18.9467  -30.1462   23.8878 C   0  0  0  0  0  0
  -17.6467  -30.6586   24.0564 C   0  0  0  0  0  0
  -25.9061  -34.9437   23.5092 C   0  0  0  0  0  0
  -16.5360  -29.9088   23.6322 C   0  0  0  0  0  0
  -16.7286  -28.6514   23.0329 C   0  0  0  0  0  0
  -26.4509  -31.6572   25.0729 C   0  0  0  0  0  0
  -25.3733  -31.3743   26.1454 C   0  0  0  0  0  0
  -27.0328  -30.2973   24.6221 C   0  0  0  0  0  0
  -27.6081  -32.4291   25.7494 C   0  0  0  0  0  0
  -27.5584  -37.1796   24.8457 C   0  0  0  0  0  0
  -21.4219  -29.3053   22.3649 N   0  0  0  0  0  0
  -26.4293  -37.3769   23.9403 N   0  0  0  0  0  0
  -24.6977  -31.0519   22.0980 N   0  0  0  0  0  0
  -23.4207  -28.8127   23.2992 O   0  0  0  0  0  0
  -28.3039  -26.3614   20.1770 O   0  0  0  0  0  0
  -26.5625  -34.8910   22.4659 O   0  0  0  0  0  0
  -23.5472  -32.1381   23.7289 O   0  0  0  0  0  0
  -29.5968  -18.4629   20.6979 C   0  0  0  0  0  0
  -29.8932  -19.5919   18.5984 C   0  0  0  0  0  0
  -29.5755  -19.7248   19.9697 C   0  0  0  0  0  0
  -29.9163  -17.1925   20.0688 C   0  0  0  0  0  0
  -30.1850  -17.2769   18.6836 C   0  0  0  0  0  0
  -28.9335  -23.7488   20.3976 C   0  0  0  0  0  0
  -28.9020  -22.2814   19.7447 C   0  0  0  0  0  0
  -28.0840  -24.9357   19.7442 C   0  0  0  0  0  0
  -30.1829  -18.4284   17.9826 N   0  0  0  0  0  0
  -29.8627  -15.8538   20.7182 N   0  0  0  0  0  0
  -29.2809  -21.0334   20.5392 N   0  0  0  0  0  0
  -29.6055  -23.9471   21.4161 O   0  0  0  0  0  0
  -30.3746  -16.1499   17.9579 F   0  0  0  0  0  0
  -31.4816  -12.5418   19.1935 H   0  0  0  0  0  0
  -30.3635  -11.4571   19.9682 H   0  0  0  0  0  0
  -29.8036  -11.7287   17.5263 H   0  0  0  0  0  0
  -29.6530  -13.4558   17.7366 H   0  0  0  0  0  0
  -27.9060  -11.2757   18.9216 H   0  0  0  0  0  0
  -27.3922  -12.5094   17.8015 H   0  0  0  0  0  0
  -27.6462  -14.2496   19.4697 H   0  0  0  0  0  0
  -28.7112  -12.1632   21.4352 H   0  0  0  0  0  0
  -28.4228  -13.8454   21.7996 H   0  0  0  0  0  0
  -25.2787   -9.5672   22.4732 H   0  0  0  0  0  0
  -24.0002   -7.4632   22.7449 H   0  0  0  0  0  0
  -21.0856   -8.8807   19.8928 H   0  0  0  0  0  0
  -22.3741  -10.9678   19.6154 H   0  0  0  0  0  0
  -21.2011   -7.6138   23.9717 H   0  0  0  0  0  0
  -21.1480   -6.0505   25.9071 H   0  0  0  0  0  0
  -22.0606   -2.7609   23.2830 H   0  0  0  0  0  0
  -22.4138  -11.9892   22.4808 H   0  0  0  0  0  0
  -21.1112  -13.1223   22.2575 H   0  0  0  0  0  0
  -24.6676  -15.8496   20.5377 H   0  0  0  0  0  0
  -26.2840  -15.6304   20.0993 H   0  0  0  0  0  0
  -26.7215  -32.5402   23.1085 H   0  0  0  0  0  0
  -25.0088  -33.9697   25.0405 H   0  0  0  0  0  0
  -22.7257  -31.3029   21.4010 H   0  0  0  0  0  0
  -23.3755  -35.9629   23.3272 H   0  0  0  0  0  0
  -24.3586  -36.8939   22.2049 H   0  0  0  0  0  0
  -23.7251  -37.6490   23.6667 H   0  0  0  0  0  0
  -26.1173  -31.5286   20.6133 H   0  0  0  0  0  0
  -26.8531  -30.8121   22.0156 H   0  0  0  0  0  0
  -28.1164  -28.9112   21.2096 H   0  0  0  0  0  0
  -25.9294  -25.9582   18.9152 H   0  0  0  0  0  0
  -23.9695  -27.3429   18.9672 H   0  0  0  0  0  0
  -23.7812  -30.6029   19.4081 H   0  0  0  0  0  0
  -22.7633  -29.2632   19.8436 H   0  0  0  0  0  0
  -25.1296  -36.1916   25.0808 H   0  0  0  0  0  0
  -20.9978  -28.3290   24.1375 H   0  0  0  0  0  0
  -20.5675  -26.2322   23.3600 H   0  0  0  0  0  0
  -21.6657  -26.7449   22.1193 H   0  0  0  0  0  0
  -19.6929  -25.6299   21.1233 H   0  0  0  0  0  0
  -19.6690  -27.3190   20.6713 H   0  0  0  0  0  0
  -17.4202  -26.6638   21.4040 H   0  0  0  0  0  0
  -18.0378  -26.0096   22.9034 H   0  0  0  0  0  0
  -19.7940  -30.7281   24.2249 H   0  0  0  0  0  0
  -17.5020  -31.6256   24.5187 H   0  0  0  0  0  0
  -15.5361  -30.2989   23.7656 H   0  0  0  0  0  0
  -15.8684  -28.0843   22.7034 H   0  0  0  0  0  0
  -24.5870  -30.7139   25.7776 H   0  0  0  0  0  0
  -24.8978  -32.2927   26.4907 H   0  0  0  0  0  0
  -25.8039  -30.8877   27.0215 H   0  0  0  0  0  0
  -26.2894  -29.6728   24.1255 H   0  0  0  0  0  0
  -27.3992  -29.7233   25.4744 H   0  0  0  0  0  0
  -27.8792  -30.4211   23.9463 H   0  0  0  0  0  0
  -27.2715  -33.3600   26.2067 H   0  0  0  0  0  0
  -28.3902  -32.6827   25.0325 H   0  0  0  0  0  0
  -28.0737  -31.8410   26.5416 H   0  0  0  0  0  0
  -28.2588  -38.0106   24.7521 H   0  0  0  0  0  0
  -28.1096  -36.2641   24.6260 H   0  0  0  0  0  0
  -27.2303  -37.1417   25.8858 H   0  0  0  0  0  0
  -20.9420  -29.8791   21.6858 H   0  0  0  0  0  0
  -26.0172  -38.2841   24.1408 H   0  0  0  0  0  0
  -29.3559  -18.4717   21.7505 H   0  0  0  0  0  0
  -29.9186  -20.4537   17.9488 H   0  0  0  0  0  0
  -29.5450  -22.3500   18.8672 H   0  0  0  0  0  0
  -27.8932  -22.1323   19.3563 H   0  0  0  0  0  0
  -27.0585  -24.6467   19.9662 H   0  0  0  0  0  0
  -28.1988  -24.8826   18.6610 H   0  0  0  0  0  0
  -29.0197  -15.6656   21.2414 H   0  0  0  0  0  0
  -29.0080  -21.0652   21.5196 H   0  0  0  0  0  0
  1 25  1  0  0  0
  1 30  2  0  0  0
  1 80  1  0  0  0
  2  3  1  0  0  0
  2 25  1  0  0  0
  2 84  1  0  0  0
  2 85  1  0  0  0
  3  4  1  0  0  0
  3 86  1  0  0  0
  3 87  1  0  0  0
  4  5  1  0  0  0
  4 88  1  0  0  0
  4 89  1  0  0  0
  5  6  1  0  0  0
  5 26  1  0  0  0
  5 90  1  0  0  0
  6 25  1  0  0  0
  6 91  1  0  0  0
  6 92  1  0  0  0
  7  8  2  0  0  0
  7 26  1  0  0  0
  7 29  1  0  0  0
  8  9  1  0  0  0
  8 22  1  0  0  0
  9 10  1  0  0  0
  9 27  2  0  0  0
 10 11  2  0  0  0
 10 15  1  0  0  0
 11 12  1  0  0  0
 11 93  1  0  0  0
 12 13  2  0  0  0
 12 94  1  0  0  0
 13 14  1  0  0  0
 13 31  1  0  0  0
 14 15  2  0  0  0
 14 95  1  0  0  0
 15 96  1  0  0  0
 16 17  2  0  0  0
 16 21  1  0  0  0
 16 31  1  0  0  0
 17 18  1  0  0  0
 17 97  1  0  0  0
 18 19  2  0  0  0
 18 98  1  0  0  0
 19 20  1  0  0  0
 19 24  1  0  0  0
 20 21  2  0  0  0
 20 99  1  0  0  0
 21 23  1  0  0  0
 22 28  1  0  0  0
 22 32  2  0  0  0
 26 27  1  0  0  0
 28100  1  0  0  0
 28101  1  0  0  0
 29102  1  0  0  0
 29103  1  0  0  0
 33 34  1  0  0  0
 33 66  1  0  0  0
 33 70  2  0  0  0
 34 36  1  0  0  0
 34 59  1  0  0  0
 34104  1  0  0  0
 35 44  2  0  0  0
 35 45  1  0  0  0
 35 68  1  0  0  0
 36 56  1  0  0  0
 36105  1  0  0  0
 37 39  1  0  0  0
 37 47  1  0  0  0
 37 66  1  0  0  0
 37106  1  0  0  0
 38 43  2  0  0  0
 38 46  1  0  0  0
 38 47  1  0  0  0
 39 64  1  0  0  0
 39 67  2  0  0  0
 40 52  1  0  0  0
 40 53  2  0  0  0
 40 58  1  0  0  0
 41107  1  0  0  0
 41108  1  0  0  0
 41109  1  0  0  0
 41 48  1  0  0  0
 42 43  1  0  0  0
 42 66  1  0  0  0
 42110  1  0  0  0
 42111  1  0  0  0
 43 44  1  0  0  0
 44112  1  0  0  0
 45 46  2  0  0  0
 45113  1  0  0  0
 46114  1  0  0  0
 47115  1  0  0  0
 47116  1  0  0  0
 48 56  1  0  0  0
 48 65  1  0  0  0
 48117  1  0  0  0
 49 50  1  0  0  0
 49 53  1  0  0  0
 49 64  1  0  0  0
 49118  1  0  0  0
 50 51  1  0  0  0
 50119  1  0  0  0
 50120  1  0  0  0
 51 52  1  0  0  0
 51121  1  0  0  0
 51122  1  0  0  0
 52123  1  0  0  0
 52124  1  0  0  0
 53 54  1  0  0  0
 54 55  2  0  0  0
 54125  1  0  0  0
 55 57  1  0  0  0
 55126  1  0  0  0
 56 69  2  0  0  0
 57 58  2  0  0  0
 57127  1  0  0  0
 58128  1  0  0  0
 59 60  1  0  0  0
 59 61  1  0  0  0
 59 62  1  0  0  0
 60129  1  0  0  0
 60130  1  0  0  0
 60131  1  0  0  0
 61132  1  0  0  0
 61133  1  0  0  0
 61134  1  0  0  0
 62135  1  0  0  0
 62136  1  0  0  0
 62137  1  0  0  0
 63 65  1  0  0  0
 63138  1  0  0  0
 63139  1  0  0  0
 63140  1  0  0  0
 64141  1  0  0  0
 65142  1  0  0  0
 68 78  1  0  0  0
 71 73  2  0  0  0
 71 74  1  0  0  0
 71143  1  0  0  0
 72 73  1  0  0  0
 72 79  2  0  0  0
 72144  1  0  0  0
 73 81  1  0  0  0
 74 75  2  0  0  0
 74 80  1  0  0  0
 75 79  1  0  0  0
 75 83  1  0  0  0
 76 77  1  0  0  0
 76 78  1  0  0  0
 76 82  2  0  0  0
 77 81  1  0  0  0
 77145  1  0  0  0
 77146  1  0  0  0
 78147  1  0  0  0
 78148  1  0  0  0
 80149  1  0  0  0
 81150  1  0  0  0
M  ISO  4   1 100  68 101  78 101  80 100
M  END
> <chiral flag>
0

> <version>
0

> <s_m_source_file>
/data/baiqing/PycharmProjects/Reinvent-master-3.2/result/LINK_invent/BTK/process_docking_weight1_custom_product_contain_oxygen_bond_distance_aromatic_linkinvent_7_9_3/rearranged_h_0158.sdf

> <i_m_source_file_index>
86

> <r_mmod_Potential_Energy-OPLS-2005>
60.089168548584

> <r_mmod_Stretch_Energy-OPLS-2005>
120.106750488281

> <r_mmod_Bend_Energy-OPLS-2005>
164.531463623047

> <r_mmod_Torsional_Energy-OPLS-2005>
223.169250488281

> <r_mmod_Improper_Torsional_Energy-OPLS-2005>
5.78956985473633

> <r_mmod_Van_der_Waal_Energy-OPLS-2005>
147.449310302734

> <r_mmod_Electrostatic_Energy-OPLS-2005>
-415.579132080078

> <r_mmod_Solvation_Energy-OPLS-2005>
-267.6396484375

> <b_mmod_Minimization_Converged-OPLS-2005>
0

> <r_mmod_RMS_Derivative-OPLS-2005>
2.06614708900452

$$$$
86
                    3D
 Structure written by MMmdl.
157166  0  0  1  0            999 V2000
  -30.5347  -14.9219   20.4151 C   0  0  0  0  0  0
  -30.4390  -12.5633   19.5083 C   0  0  0  0  0  0
  -29.5238  -12.5304   18.2616 C   0  0  0  0  0  0
  -28.0538  -12.3239   18.6723 C   0  0  0  0  0  0
  -27.6339  -13.2464   19.8467 C   0  0  2  0  0  0
  -28.6731  -13.2501   20.9892 C   0  0  0  0  0  0
  -25.2471  -13.8216   20.5711 C   0  0  0  0  0  0
  -24.1781  -13.0442   20.9218 C   0  0  0  0  0  0
  -24.6393  -11.6925   20.8748 C   0  0  0  0  0  0
  -23.9077  -10.4295   21.0405 C   0  0  0  0  0  0
  -24.3626   -9.4209   21.9183 C   0  0  0  0  0  0
  -23.6298   -8.2245   22.0754 C   0  0  0  0  0  0
  -22.4280   -8.0282   21.3544 C   0  0  0  0  0  0
  -21.9917   -9.0257   20.4646 C   0  0  0  0  0  0
  -22.7248  -10.2135   20.3055 C   0  0  0  0  0  0
  -21.6855   -6.0737   22.5279 C   0  0  0  0  0  0
  -21.4016   -6.5640   23.8213 C   0  0  0  0  0  0
  -21.3660   -5.6792   24.9174 C   0  0  0  0  0  0
  -21.6044   -4.3055   24.7224 C   0  0  0  0  0  0
  -21.8819   -3.8147   23.4345 C   0  0  0  0  0  0
  -21.9193   -4.6964   22.3402 C   0  0  0  0  0  0
  -22.7801  -13.5214   21.1876 C   0  0  0  0  0  0
  -22.1662   -4.2149   21.0979 F   0  0  0  0  0  0
  -21.5628   -3.4539   25.7737 F   0  0  0  0  0  0
  -29.9581  -13.6538   20.4050 N   0  0  0  0  0  0
  -26.2899  -12.9446   20.3265 N   0  0  0  0  0  0
  -25.9327  -11.6575   20.5742 N   0  0  0  0  0  0
  -22.0454  -12.8200   22.0432 N   0  0  0  0  0  0
  -25.4147  -15.1946   20.4144 N   0  0  0  0  0  0
  -31.7194  -15.0072   20.0716 O   0  0  0  0  0  0
  -21.6642   -6.8880   21.4241 O   0  0  0  0  0  0
  -22.3483  -14.5518   20.6721 O   0  0  0  0  0  0
  -24.6412  -31.8434   23.1866 C   0  0  0  0  0  0
  -25.9189  -32.4689   23.8256 C   0  0  1  0  0  0
  -27.2237  -27.1468   20.1487 C   0  0  0  0  0  0
  -25.5940  -33.8496   24.2176 N   0  0  0  0  0  0
  -23.4443  -30.4602   21.5313 C   0  0  2  0  0  0
  -24.8939  -28.8830   20.1066 C   0  0  0  0  0  0
  -22.7554  -29.4538   22.4859 C   0  0  0  0  0  0
  -18.0301  -28.1394   22.8478 C   0  0  0  0  0  0
  -24.1490  -36.7255   23.2644 C   0  0  0  0  0  0
  -25.9968  -30.7194   21.3828 C   0  0  0  0  0  0
  -26.0668  -29.3307   20.7254 C   0  0  0  0  0  0
  -27.2278  -28.4761   20.7310 C   0  0  0  0  0  0
  -26.0262  -26.7908   19.4932 C   0  0  0  0  0  0
  -24.8854  -27.6268   19.4763 C   0  0  0  0  0  0
  -23.6691  -29.7839   20.1510 C   0  0  0  0  0  0
  -25.4123  -36.3030   24.0315 C   0  0  1  0  0  0
  -20.5911  -28.3715   23.1243 C   0  0  2  0  0  0
  -20.6783  -26.9419   22.5408 C   0  0  0  0  0  0
  -19.5759  -26.6379   21.5214 C   0  0  0  0  0  0
  -18.1940  -26.7933   22.1623 C   0  0  0  0  0  0
  -19.1557  -28.8873   23.2853 C   0  0  0  0  0  0
  -18.9475  -30.1470   23.8877 C   0  0  0  0  0  0
  -17.6472  -30.6591   24.0559 C   0  0  0  0  0  0
  -25.9072  -34.9405   23.5058 C   0  0  0  0  0  0
  -16.5363  -29.9085   23.6335 C   0  0  0  0  0  0
  -16.7286  -28.6503   23.0356 C   0  0  0  0  0  0
  -26.4518  -31.6564   25.0701 C   0  0  0  0  0  0
  -25.3706  -31.3751   26.1400 C   0  0  0  0  0  0
  -27.0389  -30.2964   24.6281 C   0  0  0  0  0  0
  -27.6045  -32.4336   25.7488 C   0  0  0  0  0  0
  -27.5575  -37.1784   24.8466 C   0  0  0  0  0  0
  -21.4248  -29.3039   22.3613 N   0  0  0  0  0  0
  -26.4287  -37.3743   23.9407 N   0  0  0  0  0  0
  -24.7137  -31.0296   22.0889 N   0  0  0  0  0  0
  -23.4203  -28.8099   23.3017 O   0  0  0  0  0  0
  -28.3134  -26.2127   20.2630 O   0  0  0  0  0  0
  -26.5664  -34.8905   22.4641 O   0  0  0  0  0  0
  -23.5536  -32.1308   23.7096 O   0  0  0  0  0  0
  -30.5813  -18.0411   19.2371 C   0  0  0  0  0  0
  -29.8896  -17.4546   20.2756 C   0  0  0  0  0  0
  -29.5383  -19.8092   20.1769 C   0  0  0  0  0  0
  -28.4692  -24.7493   18.2623 C   0  0  0  0  0  0
  -30.0865  -22.4956   20.0414 C   0  0  0  0  0  0
  -27.7149  -21.9911   20.0639 C   0  0  0  0  0  0
  -29.7523  -24.0469   20.3477 C   0  0  0  0  0  0
  -27.4124  -23.5769   20.3522 C   0  0  0  0  0  0
  -29.0971  -21.3567   20.5345 C   0  0  1  0  0  0
  -28.4086  -24.7175   19.8133 C   0  0  2  0  0  0
  -30.3285  -19.4322   19.1609 N   0  0  0  0  0  0
  -28.9866  -25.8392   17.7088 N   0  0  0  0  0  0
  -29.7569  -16.0810   20.6776 N   0  0  0  0  0  0
  -28.0526  -23.8324   17.5569 O   0  0  0  0  0  0
  -29.2006  -18.6045   20.8583 O   0  0  0  0  0  0
  -31.4765  -12.7097   19.2038 H   0  0  0  0  0  0
  -30.4178  -11.6039   20.0279 H   0  0  0  0  0  0
  -29.8378  -11.7379   17.5810 H   0  0  0  0  0  0
  -29.6225  -13.4661   17.7090 H   0  0  0  0  0  0
  -27.9394  -11.2799   18.9662 H   0  0  0  0  0  0
  -27.3948  -12.4729   17.8162 H   0  0  0  0  0  0
  -27.6060  -14.2546   19.4325 H   0  0  0  0  0  0
  -28.7473  -12.2665   21.4555 H   0  0  0  0  0  0
  -28.3746  -13.9417   21.7783 H   0  0  0  0  0  0
  -25.2770   -9.5686   22.4759 H   0  0  0  0  0  0
  -24.0007   -7.4637   22.7474 H   0  0  0  0  0  0
  -21.0848   -8.8777   19.8953 H   0  0  0  0  0  0
  -22.3705  -10.9674   19.6164 H   0  0  0  0  0  0
  -21.2010   -7.6149   23.9716 H   0  0  0  0  0  0
  -21.1482   -6.0523   25.9077 H   0  0  0  0  0  0
  -22.0598   -2.7609   23.2845 H   0  0  0  0  0  0
  -22.4079  -11.9866   22.4822 H   0  0  0  0  0  0
  -21.1069  -13.1216   22.2639 H   0  0  0  0  0  0
  -24.6445  -15.8453   20.5248 H   0  0  0  0  0  0
  -26.2577  -15.6363   20.0707 H   0  0  0  0  0  0
  -26.7253  -32.5296   23.0983 H   0  0  0  0  0  0
  -25.0057  -33.9609   25.0303 H   0  0  0  0  0  0
  -22.7462  -31.2854   21.3753 H   0  0  0  0  0  0
  -23.3757  -35.9582   23.3294 H   0  0  0  0  0  0
  -24.3573  -36.8901   22.2061 H   0  0  0  0  0  0
  -23.7243  -37.6446   23.6691 H   0  0  0  0  0  0
  -26.1510  -31.4737   20.6099 H   0  0  0  0  0  0
  -26.8679  -30.7699   22.0246 H   0  0  0  0  0  0
  -28.1213  -28.8119   21.2384 H   0  0  0  0  0  0
  -25.9430  -25.8274   19.0144 H   0  0  0  0  0  0
  -23.9880  -27.2786   18.9839 H   0  0  0  0  0  0
  -23.8023  -30.5559   19.3923 H   0  0  0  0  0  0
  -22.7844  -29.2230   19.8444 H   0  0  0  0  0  0
  -25.1314  -36.1854   25.0808 H   0  0  0  0  0  0
  -21.0004  -28.3306   24.1364 H   0  0  0  0  0  0
  -20.5673  -26.2329   23.3626 H   0  0  0  0  0  0
  -21.6651  -26.7423   22.1210 H   0  0  0  0  0  0
  -19.6919  -25.6284   21.1258 H   0  0  0  0  0  0
  -19.6698  -27.3177   20.6733 H   0  0  0  0  0  0
  -17.4210  -26.6678   21.4027 H   0  0  0  0  0  0
  -18.0338  -26.0079   22.9024 H   0  0  0  0  0  0
  -19.7950  -30.7291   24.2238 H   0  0  0  0  0  0
  -17.5025  -31.6269   24.5164 H   0  0  0  0  0  0
  -15.5362  -30.2980   23.7671 H   0  0  0  0  0  0
  -15.8686  -28.0815   22.7083 H   0  0  0  0  0  0
  -24.5888  -30.7096   25.7720 H   0  0  0  0  0  0
  -24.8891  -32.2933   26.4775 H   0  0  0  0  0  0
  -25.7990  -30.8957   27.0210 H   0  0  0  0  0  0
  -26.3006  -29.6680   24.1286 H   0  0  0  0  0  0
  -27.4005  -29.7270   25.4854 H   0  0  0  0  0  0
  -27.8909  -30.4205   23.9593 H   0  0  0  0  0  0
  -27.2633  -33.3652   26.2013 H   0  0  0  0  0  0
  -28.3883  -32.6873   25.0338 H   0  0  0  0  0  0
  -28.0684  -31.8499   26.5450 H   0  0  0  0  0  0
  -28.2587  -38.0085   24.7509 H   0  0  0  0  0  0
  -28.1077  -36.2615   24.6297 H   0  0  0  0  0  0
  -27.2291  -37.1436   25.8868 H   0  0  0  0  0  0
  -20.9458  -29.8742   21.6784 H   0  0  0  0  0  0
  -26.0153  -38.2811   24.1406 H   0  0  0  0  0  0
  -31.2176  -17.5615   18.5059 H   0  0  0  0  0  0
  -31.0713  -22.2769   20.4551 H   0  0  0  0  0  0
  -30.2066  -22.3861   18.9629 H   0  0  0  0  0  0
  -27.6164  -21.8052   18.9953 H   0  0  0  0  0  0
  -26.9133  -21.4067   20.5161 H   0  0  0  0  0  0
  -30.5897  -24.6410   19.9793 H   0  0  0  0  0  0
  -29.7817  -24.1815   21.4294 H   0  0  0  0  0  0
  -27.3310  -23.7003   21.4323 H   0  0  0  0  0  0
  -26.4124  -23.7940   19.9781 H   0  0  0  0  0  0
  -29.0947  -21.3975   21.6241 H   0  0  0  0  0  0
  -29.2821  -26.5904   18.3178 H   0  0  0  0  0  0
  -29.0542  -25.9381   16.7070 H   0  0  0  0  0  0
  -28.8803  -15.8690   21.1293 H   0  0  0  0  0  0
  1 25  1  0  0  0
  1 30  2  0  0  0
  1 83  1  0  0  0
  2  3  1  0  0  0
  2 25  1  0  0  0
  2 86  1  0  0  0
  2 87  1  0  0  0
  3  4  1  0  0  0
  3 88  1  0  0  0
  3 89  1  0  0  0
  4  5  1  0  0  0
  4 90  1  0  0  0
  4 91  1  0  0  0
  5  6  1  0  0  0
  5 26  1  0  0  0
  5 92  1  0  0  0
  6 25  1  0  0  0
  6 93  1  0  0  0
  6 94  1  0  0  0
  7  8  2  0  0  0
  7 26  1  0  0  0
  7 29  1  0  0  0
  8  9  1  0  0  0
  8 22  1  0  0  0
  9 10  1  0  0  0
  9 27  2  0  0  0
 10 11  2  0  0  0
 10 15  1  0  0  0
 11 12  1  0  0  0
 11 95  1  0  0  0
 12 13  2  0  0  0
 12 96  1  0  0  0
 13 14  1  0  0  0
 13 31  1  0  0  0
 14 15  2  0  0  0
 14 97  1  0  0  0
 15 98  1  0  0  0
 16 17  2  0  0  0
 16 21  1  0  0  0
 16 31  1  0  0  0
 17 18  1  0  0  0
 17 99  1  0  0  0
 18 19  2  0  0  0
 18100  1  0  0  0
 19 20  1  0  0  0
 19 24  1  0  0  0
 20 21  2  0  0  0
 20101  1  0  0  0
 21 23  1  0  0  0
 22 28  1  0  0  0
 22 32  2  0  0  0
 26 27  1  0  0  0
 28102  1  0  0  0
 28103  1  0  0  0
 29104  1  0  0  0
 29105  1  0  0  0
 33 34  1  0  0  0
 33 66  1  0  0  0
 33 70  2  0  0  0
 34 36  1  0  0  0
 34 59  1  0  0  0
 34106  1  0  0  0
 35 44  2  0  0  0
 35 45  1  0  0  0
 35 68  1  0  0  0
 36 56  1  0  0  0
 36107  1  0  0  0
 37 39  1  0  0  0
 37 47  1  0  0  0
 37 66  1  0  0  0
 37108  1  0  0  0
 38 43  2  0  0  0
 38 46  1  0  0  0
 38 47  1  0  0  0
 39 64  1  0  0  0
 39 67  2  0  0  0
 40 52  1  0  0  0
 40 53  2  0  0  0
 40 58  1  0  0  0
 41109  1  0  0  0
 41110  1  0  0  0
 41111  1  0  0  0
 41 48  1  0  0  0
 42 43  1  0  0  0
 42 66  1  0  0  0
 42112  1  0  0  0
 42113  1  0  0  0
 43 44  1  0  0  0
 44114  1  0  0  0
 45 46  2  0  0  0
 45115  1  0  0  0
 46116  1  0  0  0
 47117  1  0  0  0
 47118  1  0  0  0
 48 56  1  0  0  0
 48 65  1  0  0  0
 48119  1  0  0  0
 49 50  1  0  0  0
 49 53  1  0  0  0
 49 64  1  0  0  0
 49120  1  0  0  0
 50 51  1  0  0  0
 50121  1  0  0  0
 50122  1  0  0  0
 51 52  1  0  0  0
 51123  1  0  0  0
 51124  1  0  0  0
 52125  1  0  0  0
 52126  1  0  0  0
 53 54  1  0  0  0
 54 55  2  0  0  0
 54127  1  0  0  0
 55 57  1  0  0  0
 55128  1  0  0  0
 56 69  2  0  0  0
 57 58  2  0  0  0
 57129  1  0  0  0
 58130  1  0  0  0
 59 60  1  0  0  0
 59 61  1  0  0  0
 59 62  1  0  0  0
 60131  1  0  0  0
 60132  1  0  0  0
 60133  1  0  0  0
 61134  1  0  0  0
 61135  1  0  0  0
 61136  1  0  0  0
 62137  1  0  0  0
 62138  1  0  0  0
 62139  1  0  0  0
 63 65  1  0  0  0
 63140  1  0  0  0
 63141  1  0  0  0
 63142  1  0  0  0
 64143  1  0  0  0
 65144  1  0  0  0
 68 80  1  0  0  0
 71 72  2  0  0  0
 71 81  1  0  0  0
 71145  1  0  0  0
 72 83  1  0  0  0
 72 85  1  0  0  0
 73 81  2  0  0  0
 73 85  1  0  0  0
 73 79  1  0  0  0
 74 82  1  0  0  0
 74 84  2  0  0  0
 74 80  1  0  0  0
 75 77  1  0  0  0
 75 79  1  0  0  0
 75146  1  0  0  0
 75147  1  0  0  0
 76 78  1  0  0  0
 76 79  1  0  0  0
 76148  1  0  0  0
 76149  1  0  0  0
 77 80  1  0  0  0
 77150  1  0  0  0
 77151  1  0  0  0
 78 80  1  0  0  0
 78152  1  0  0  0
 78153  1  0  0  0
 79154  1  0  0  0
 82155  1  0  0  0
 82156  1  0  0  0
 83157  1  0  0  0
M  ISO  4   1 100  68 101  80 101  83 100
M  END
> <chiral flag>
0

> <version>
0

> <s_m_source_file>
/data/baiqing/PycharmProjects/Reinvent-master-3.2/result/LINK_invent/BTK/process_docking_weight1_custom_product_contain_oxygen_bond_distance_aromatic_linkinvent_7_9_3/rearranged_h_0158.sdf

> <i_m_source_file_index>
87

> <r_mmod_Potential_Energy-OPLS-2005>
297.642791748047

> <r_mmod_Stretch_Energy-OPLS-2005>
223.190994262695

> <r_mmod_Bend_Energy-OPLS-2005>
271.450653076172

> <r_mmod_Torsional_Energy-OPLS-2005>
223.762283325195

> <r_mmod_Improper_Torsional_Energy-OPLS-2005>
3.47725486755371

> <r_mmod_Van_der_Waal_Energy-OPLS-2005>
115.376968383789

> <r_mmod_Electrostatic_Energy-OPLS-2005>
-471.624481201172

> <r_mmod_Solvation_Energy-OPLS-2005>
-242.887542724609

> <b_mmod_Minimization_Converged-OPLS-2005>
0

> <r_mmod_RMS_Derivative-OPLS-2005>
0.12822636961937

$$$$
87
                    3D
 Structure written by MMmdl.
165174  0  0  1  0            999 V2000
  -30.5852  -14.6937   20.4854 C   0  0  0  0  0  0
  -30.4444  -12.4271   19.4528 C   0  0  0  0  0  0
  -29.5101  -12.5172   18.2242 C   0  0  0  0  0  0
  -28.0323  -12.3565   18.6346 C   0  0  0  0  0  0
  -27.6523  -13.2223   19.8652 C   0  0  2  0  0  0
  -28.6988  -13.0807   20.9930 C   0  0  0  0  0  0
  -25.2560  -13.8178   20.5702 C   0  0  0  0  0  0
  -24.1833  -13.0431   20.9194 C   0  0  0  0  0  0
  -24.6410  -11.6904   20.8746 C   0  0  0  0  0  0
  -23.9079  -10.4285   21.0406 C   0  0  0  0  0  0
  -24.3621   -9.4200   21.9181 C   0  0  0  0  0  0
  -23.6287   -8.2243   22.0755 C   0  0  0  0  0  0
  -22.4270   -8.0286   21.3550 C   0  0  0  0  0  0
  -21.9913   -9.0259   20.4656 C   0  0  0  0  0  0
  -22.7251  -10.2130   20.3058 C   0  0  0  0  0  0
  -21.6861   -6.0733   22.5270 C   0  0  0  0  0  0
  -21.4025   -6.5634   23.8203 C   0  0  0  0  0  0
  -21.3657   -5.6787   24.9162 C   0  0  0  0  0  0
  -21.6042   -4.3050   24.7223 C   0  0  0  0  0  0
  -21.8824   -3.8144   23.4345 C   0  0  0  0  0  0
  -21.9192   -4.6959   22.3400 C   0  0  0  0  0  0
  -22.7853  -13.5231   21.1840 C   0  0  0  0  0  0
  -22.1660   -4.2146   21.0980 F   0  0  0  0  0  0
  -21.5624   -3.4533   25.7736 F   0  0  0  0  0  0
  -30.0073  -13.4490   20.4295 N   0  0  0  0  0  0
  -26.2990  -12.9366   20.3333 N   0  0  0  0  0  0
  -25.9340  -11.6511   20.5759 N   0  0  0  0  0  0
  -22.0491  -12.8222   22.0401 N   0  0  0  0  0  0
  -25.4254  -15.1909   20.4125 N   0  0  0  0  0  0
  -31.7368  -14.8764   20.0778 O   0  0  0  0  0  0
  -21.6643   -6.8878   21.4234 O   0  0  0  0  0  0
  -22.3543  -14.5536   20.6687 O   0  0  0  0  0  0
  -24.6276  -31.8577   23.1983 C   0  0  0  0  0  0
  -25.9118  -32.4767   23.8329 C   0  0  1  0  0  0
  -27.2240  -27.2986   20.1424 C   0  0  0  0  0  0
  -25.5934  -33.8567   24.2264 N   0  0  0  0  0  0
  -23.4225  -30.4777   21.5400 C   0  0  2  0  0  0
  -24.8720  -28.9206   20.1148 C   0  0  0  0  0  0
  -22.7484  -29.4612   22.4922 C   0  0  0  0  0  0
  -18.0278  -28.1393   22.8485 C   0  0  0  0  0  0
  -24.1476  -36.7271   23.2645 C   0  0  0  0  0  0
  -25.9629  -30.7858   21.3674 C   0  0  0  0  0  0
  -26.0390  -29.4068   20.7192 C   0  0  0  0  0  0
  -27.2230  -28.6104   20.7151 C   0  0  0  0  0  0
  -26.0401  -26.8591   19.5203 C   0  0  0  0  0  0
  -24.8758  -27.6549   19.5030 C   0  0  0  0  0  0
  -23.6393  -29.8034   20.1580 C   0  0  0  0  0  0
  -25.4102  -36.3065   24.0334 C   0  0  1  0  0  0
  -20.5884  -28.3699   23.1264 C   0  0  2  0  0  0
  -20.6761  -26.9420   22.5398 C   0  0  0  0  0  0
  -19.5729  -26.6398   21.5205 C   0  0  0  0  0  0
  -18.1909  -26.7933   22.1620 C   0  0  0  0  0  0
  -19.1537  -28.8858   23.2873 C   0  0  0  0  0  0
  -18.9476  -30.1457   23.8896 C   0  0  0  0  0  0
  -17.6481  -30.6597   24.0561 C   0  0  0  0  0  0
  -25.9044  -34.9444   23.5098 C   0  0  0  0  0  0
  -16.5360  -29.9105   23.6340 C   0  0  0  0  0  0
  -16.7268  -28.6523   23.0353 C   0  0  0  0  0  0
  -26.4490  -31.6583   25.0711 C   0  0  0  0  0  0
  -25.3724  -31.3751   26.1446 C   0  0  0  0  0  0
  -27.0335  -30.3007   24.6169 C   0  0  0  0  0  0
  -27.6037  -32.4332   25.7497 C   0  0  0  0  0  0
  -27.5560  -37.1784   24.8475 C   0  0  0  0  0  0
  -21.4193  -29.3062   22.3681 N   0  0  0  0  0  0
  -26.4268  -37.3768   23.9427 N   0  0  0  0  0  0
  -24.6900  -31.0576   22.0933 N   0  0  0  0  0  0
  -23.4204  -28.8152   23.3003 O   0  0  0  0  0  0
  -28.3410  -26.4474   20.1321 O   0  0  0  0  0  0
  -26.5610  -34.8928   22.4665 O   0  0  0  0  0  0
  -23.5438  -32.1367   23.7316 O   0  0  0  0  0  0
  -30.6058  -17.8763   19.7248 C   0  0  0  0  0  0
  -30.3764  -19.2552   19.4272 C   0  0  0  0  0  0
  -28.7484  -18.0107   21.1991 C   0  0  0  0  0  0
  -29.7485  -17.1821   20.6146 C   0  0  0  0  0  0
  -29.2986  -19.9957   20.0029 C   0  0  0  0  0  0
  -30.3713  -22.2212   17.5485 C   0  0  0  0  0  0
  -31.2932  -22.4868   18.7742 C   0  0  0  0  0  0
  -29.0680  -21.4276   17.8712 C   0  0  0  0  0  0
  -30.5468  -23.0292   20.0179 C   0  0  0  0  0  0
  -28.7402  -21.3747   19.3837 C   0  0  1  0  0  0
  -27.6623  -25.5120   22.3149 C   0  0  0  0  0  0
  -28.0612  -23.7220   20.4997 C   0  0  0  0  0  0
  -28.4139  -25.2289   20.9959 C   0  0  2  0  0  0
  -28.5242  -19.3353   20.9095 N   0  0  0  0  0  0
  -29.7733  -15.7292   20.8935 N   0  0  0  0  0  0
  -29.0978  -22.7876   19.8594 N   0  3  1  0  0  0
  -31.4825  -12.5714   19.1465 H   0  0  0  0  0  0
  -30.3992  -11.4325   19.8996 H   0  0  0  0  0  0
  -29.7771  -11.7535   17.4918 H   0  0  0  0  0  0
  -29.6500  -13.4793   17.7286 H   0  0  0  0  0  0
  -27.8632  -11.3027   18.8565 H   0  0  0  0  0  0
  -27.3816  -12.5972   17.7934 H   0  0  0  0  0  0
  -27.6665  -14.2590   19.5277 H   0  0  0  0  0  0
  -28.7260  -12.0561   21.3657 H   0  0  0  0  0  0
  -28.4391  -13.7006   21.8523 H   0  0  0  0  0  0
  -25.2762   -9.5674   22.4757 H   0  0  0  0  0  0
  -23.9987   -7.4645   22.7484 H   0  0  0  0  0  0
  -21.0839   -8.8792   19.8975 H   0  0  0  0  0  0
  -22.3709  -10.9670   19.6177 H   0  0  0  0  0  0
  -21.2025   -7.6146   23.9708 H   0  0  0  0  0  0
  -21.1474   -6.0516   25.9064 H   0  0  0  0  0  0
  -22.0606   -2.7609   23.2846 H   0  0  0  0  0  0
  -22.4081  -11.9885   22.4810 H   0  0  0  0  0  0
  -21.1120  -13.1263   22.2606 H   0  0  0  0  0  0
  -24.6560  -15.8411   20.5319 H   0  0  0  0  0  0
  -26.2558  -15.6270   20.0315 H   0  0  0  0  0  0
  -26.7193  -32.5428   23.1079 H   0  0  0  0  0  0
  -25.0088  -33.9709   25.0412 H   0  0  0  0  0  0
  -22.7174  -31.2988   21.3920 H   0  0  0  0  0  0
  -23.3743  -35.9597   23.3311 H   0  0  0  0  0  0
  -24.3554  -36.8883   22.2056 H   0  0  0  0  0  0
  -23.7226  -37.6473   23.6664 H   0  0  0  0  0  0
  -26.0890  -31.5434   20.5924 H   0  0  0  0  0  0
  -26.8460  -30.8409   21.9933 H   0  0  0  0  0  0
  -28.1243  -28.9885   21.1769 H   0  0  0  0  0  0
  -26.0160  -25.8842   19.0546 H   0  0  0  0  0  0
  -23.9818  -27.2762   19.0273 H   0  0  0  0  0  0
  -23.7625  -30.5761   19.3989 H   0  0  0  0  0  0
  -22.7589  -29.2334   19.8547 H   0  0  0  0  0  0
  -25.1281  -36.1888   25.0823 H   0  0  0  0  0  0
  -20.9970  -28.3273   24.1380 H   0  0  0  0  0  0
  -20.5627  -26.2324   23.3606 H   0  0  0  0  0  0
  -21.6634  -26.7406   22.1213 H   0  0  0  0  0  0
  -19.6888  -25.6318   21.1226 H   0  0  0  0  0  0
  -19.6663  -27.3207   20.6741 H   0  0  0  0  0  0
  -17.4172  -26.6676   21.4025 H   0  0  0  0  0  0
  -18.0309  -26.0070   22.9019 H   0  0  0  0  0  0
  -19.7959  -30.7270   24.2257 H   0  0  0  0  0  0
  -17.5042  -31.6269   24.5180 H   0  0  0  0  0  0
  -15.5361  -30.3009   23.7684 H   0  0  0  0  0  0
  -15.8659  -28.0849   22.7074 H   0  0  0  0  0  0
  -24.5889  -30.7097   25.7796 H   0  0  0  0  0  0
  -24.8929  -32.2935   26.4852 H   0  0  0  0  0  0
  -25.8054  -30.8951   27.0230 H   0  0  0  0  0  0
  -26.2910  -29.6762   24.1189 H   0  0  0  0  0  0
  -27.4026  -29.7260   25.4673 H   0  0  0  0  0  0
  -27.8777  -30.4300   23.9392 H   0  0  0  0  0  0
  -27.2624  -33.3635   26.2059 H   0  0  0  0  0  0
  -28.3863  -32.6894   25.0342 H   0  0  0  0  0  0
  -28.0681  -31.8465   26.5432 H   0  0  0  0  0  0
  -28.2588  -38.0070   24.7508 H   0  0  0  0  0  0
  -28.1039  -36.2602   24.6306 H   0  0  0  0  0  0
  -27.2279  -37.1443   25.8878 H   0  0  0  0  0  0
  -20.9376  -29.8817   21.6918 H   0  0  0  0  0  0
  -26.0137  -38.2831   24.1454 H   0  0  0  0  0  0
  -31.3988  -17.3546   19.2096 H   0  0  0  0  0  0
  -30.9883  -19.6864   18.6505 H   0  0  0  0  0  0
  -28.0498  -17.5785   21.9002 H   0  0  0  0  0  0
  -30.9323  -21.7121   16.7624 H   0  0  0  0  0  0
  -30.0867  -23.1836   17.1200 H   0  0  0  0  0  0
  -32.0772  -23.1888   18.4874 H   0  0  0  0  0  0
  -31.8340  -21.5844   19.0502 H   0  0  0  0  0  0
  -29.0835  -20.4295   17.4305 H   0  0  0  0  0  0
  -28.2427  -21.9275   17.3596 H   0  0  0  0  0  0
  -30.7542  -24.0960   20.0745 H   0  0  0  0  0  0
  -30.9220  -22.5768   20.9367 H   0  0  0  0  0  0
  -27.6565  -21.2871   19.4656 H   0  0  0  0  0  0
  -26.5842  -25.5821   22.1658 H   0  0  0  0  0  0
  -27.9990  -26.4419   22.7728 H   0  0  0  0  0  0
  -27.8354  -24.7226   23.0463 H   0  0  0  0  0  0
  -27.1914  -23.7678   19.8461 H   0  0  0  0  0  0
  -27.7211  -23.1619   21.3709 H   0  0  0  0  0  0
  -29.4510  -25.2193   21.3206 H   0  0  0  0  0  0
  -28.9341  -15.3857   21.3399 H   0  0  0  0  0  0
  -29.0384  -23.1996   18.9407 H   0  0  0  0  0  0
  1 25  1  0  0  0
  1 30  2  0  0  0
  1 85  1  0  0  0
  2  3  1  0  0  0
  2 25  1  0  0  0
  2 87  1  0  0  0
  2 88  1  0  0  0
  3  4  1  0  0  0
  3 89  1  0  0  0
  3 90  1  0  0  0
  4  5  1  0  0  0
  4 91  1  0  0  0
  4 92  1  0  0  0
  5  6  1  0  0  0
  5 26  1  0  0  0
  5 93  1  0  0  0
  6 25  1  0  0  0
  6 94  1  0  0  0
  6 95  1  0  0  0
  7  8  2  0  0  0
  7 26  1  0  0  0
  7 29  1  0  0  0
  8  9  1  0  0  0
  8 22  1  0  0  0
  9 10  1  0  0  0
  9 27  2  0  0  0
 10 11  2  0  0  0
 10 15  1  0  0  0
 11 12  1  0  0  0
 11 96  1  0  0  0
 12 13  2  0  0  0
 12 97  1  0  0  0
 13 14  1  0  0  0
 13 31  1  0  0  0
 14 15  2  0  0  0
 14 98  1  0  0  0
 15 99  1  0  0  0
 16 17  2  0  0  0
 16 21  1  0  0  0
 16 31  1  0  0  0
 17 18  1  0  0  0
 17100  1  0  0  0
 18 19  2  0  0  0
 18101  1  0  0  0
 19 20  1  0  0  0
 19 24  1  0  0  0
 20 21  2  0  0  0
 20102  1  0  0  0
 21 23  1  0  0  0
 22 28  1  0  0  0
 22 32  2  0  0  0
 26 27  1  0  0  0
 28103  1  0  0  0
 28104  1  0  0  0
 29105  1  0  0  0
 29106  1  0  0  0
 33 34  1  0  0  0
 33 66  1  0  0  0
 33 70  2  0  0  0
 34 36  1  0  0  0
 34 59  1  0  0  0
 34107  1  0  0  0
 35 44  2  0  0  0
 35 45  1  0  0  0
 35 68  1  0  0  0
 36 56  1  0  0  0
 36108  1  0  0  0
 37 39  1  0  0  0
 37 47  1  0  0  0
 37 66  1  0  0  0
 37109  1  0  0  0
 38 43  2  0  0  0
 38 46  1  0  0  0
 38 47  1  0  0  0
 39 64  1  0  0  0
 39 67  2  0  0  0
 40 52  1  0  0  0
 40 53  2  0  0  0
 40 58  1  0  0  0
 41110  1  0  0  0
 41111  1  0  0  0
 41112  1  0  0  0
 41 48  1  0  0  0
 42 43  1  0  0  0
 42 66  1  0  0  0
 42113  1  0  0  0
 42114  1  0  0  0
 43 44  1  0  0  0
 44115  1  0  0  0
 45 46  2  0  0  0
 45116  1  0  0  0
 46117  1  0  0  0
 47118  1  0  0  0
 47119  1  0  0  0
 48 56  1  0  0  0
 48 65  1  0  0  0
 48120  1  0  0  0
 49 50  1  0  0  0
 49 53  1  0  0  0
 49 64  1  0  0  0
 49121  1  0  0  0
 50 51  1  0  0  0
 50122  1  0  0  0
 50123  1  0  0  0
 51 52  1  0  0  0
 51124  1  0  0  0
 51125  1  0  0  0
 52126  1  0  0  0
 52127  1  0  0  0
 53 54  1  0  0  0
 54 55  2  0  0  0
 54128  1  0  0  0
 55 57  1  0  0  0
 55129  1  0  0  0
 56 69  2  0  0  0
 57 58  2  0  0  0
 57130  1  0  0  0
 58131  1  0  0  0
 59 60  1  0  0  0
 59 61  1  0  0  0
 59 62  1  0  0  0
 60132  1  0  0  0
 60133  1  0  0  0
 60134  1  0  0  0
 61135  1  0  0  0
 61136  1  0  0  0
 61137  1  0  0  0
 62138  1  0  0  0
 62139  1  0  0  0
 62140  1  0  0  0
 63 65  1  0  0  0
 63141  1  0  0  0
 63142  1  0  0  0
 63143  1  0  0  0
 64144  1  0  0  0
 65145  1  0  0  0
 68 83  1  0  0  0
 71 72  2  0  0  0
 71 74  1  0  0  0
 71146  1  0  0  0
 72 75  1  0  0  0
 72147  1  0  0  0
 73 74  2  0  0  0
 73 84  1  0  0  0
 73148  1  0  0  0
 74 85  1  0  0  0
 75 84  2  0  0  0
 75 80  1  0  0  0
 76 77  1  0  0  0
 76 78  1  0  0  0
 76149  1  0  0  0
 76150  1  0  0  0
 77 79  1  0  0  0
 77151  1  0  0  0
 77152  1  0  0  0
 78 80  1  0  0  0
 78153  1  0  0  0
 78154  1  0  0  0
 79 86  1  0  0  0
 79155  1  0  0  0
 79156  1  0  0  0
 80 86  1  0  0  0
 80157  1  0  0  0
 81158  1  0  0  0
 81159  1  0  0  0
 81160  1  0  0  0
 81 83  1  0  0  0
 82 83  1  0  0  0
 82161  1  0  0  0
 82162  1  0  0  0
 82 86  1  0  0  0
 83163  1  0  0  0
 85164  1  0  0  0
 86165  1  0  0  0
M  CHG  1  86   1
M  ISO  4   1 100  68 101  83 101  85 100
M  END
> <chiral flag>
0

> <version>
0

> <s_m_source_file>
/data/baiqing/PycharmProjects/Reinvent-master-3.2/result/LINK_invent/BTK/process_docking_weight1_custom_product_contain_oxygen_bond_distance_aromatic_linkinvent_7_9_3/rearranged_h_0158.sdf

> <i_m_source_file_index>
88

> <r_mmod_Potential_Energy-OPLS-2005>
23.7261428833008

> <r_mmod_Stretch_Energy-OPLS-2005>
109.114593505859

> <r_mmod_Bend_Energy-OPLS-2005>
244.811752319336

> <r_mmod_Torsional_Energy-OPLS-2005>
324.596984863281

> <r_mmod_Improper_Torsional_Energy-OPLS-2005>
6.70436239242554

> <r_mmod_Van_der_Waal_Energy-OPLS-2005>
154.274841308594

> <r_mmod_Electrostatic_Energy-OPLS-2005>
-452.210327148438

> <r_mmod_Solvation_Energy-OPLS-2005>
-425.086730957031

> <b_mmod_Minimization_Converged-OPLS-2005>
0

> <r_mmod_RMS_Derivative-OPLS-2005>
2.03673148155212

$$$$
88
                    3D
 Structure written by MMmdl.
152160  0  0  1  0            999 V2000
  -30.6881  -14.7486   20.5310 C   0  0  0  0  0  0
  -30.4249  -12.4652   19.5129 C   0  0  0  0  0  0
  -29.5389  -12.6108   18.2558 C   0  0  0  0  0  0
  -28.0528  -12.4256   18.6390 C   0  0  0  0  0  0
  -27.6556  -13.2688   19.8782 C   0  0  2  0  0  0
  -28.7001  -13.1904   21.0232 C   0  0  0  0  0  0
  -25.2534  -13.8230   20.5790 C   0  0  0  0  0  0
  -24.1849  -13.0472   20.9153 C   0  0  0  0  0  0
  -24.6454  -11.6945   20.8690 C   0  0  0  0  0  0
  -23.9141  -10.4322   21.0341 C   0  0  0  0  0  0
  -24.3666   -9.4232   21.9125 C   0  0  0  0  0  0
  -23.6349   -8.2250   22.0718 C   0  0  0  0  0  0
  -22.4338   -8.0259   21.3509 C   0  0  0  0  0  0
  -21.9979   -9.0267   20.4627 C   0  0  0  0  0  0
  -22.7319  -10.2147   20.3002 C   0  0  0  0  0  0
  -21.6847   -6.0738   22.5295 C   0  0  0  0  0  0
  -21.4027   -6.5611   23.8238 C   0  0  0  0  0  0
  -21.3652   -5.6758   24.9180 C   0  0  0  0  0  0
  -21.6065   -4.3040   24.7214 C   0  0  0  0  0  0
  -21.8797   -3.8136   23.4321 C   0  0  0  0  0  0
  -21.9198   -4.6964   22.3392 C   0  0  0  0  0  0
  -22.7852  -13.5195   21.1831 C   0  0  0  0  0  0
  -22.1669   -4.2103   21.0978 F   0  0  0  0  0  0
  -21.5642   -3.4507   25.7715 F   0  0  0  0  0  0
  -30.0156  -13.5348   20.4694 N   0  0  0  0  0  0
  -26.3024  -12.9558   20.3394 N   0  0  0  0  0  0
  -25.9413  -11.6623   20.5708 N   0  0  0  0  0  0
  -22.0474  -12.8227   22.0378 N   0  0  0  0  0  0
  -25.4185  -15.1993   20.4286 N   0  0  0  0  0  0
  -31.7954  -14.8051   19.9914 O   0  0  0  0  0  0
  -21.6646   -6.8899   21.4262 O   0  0  0  0  0  0
  -22.3493  -14.5453   20.6583 O   0  0  0  0  0  0
  -24.6265  -31.8580   23.1897 C   0  0  0  0  0  0
  -25.9073  -32.4787   23.8331 C   0  0  1  0  0  0
  -27.2825  -27.2668   20.2016 C   0  0  0  0  0  0
  -25.5857  -33.8570   24.2268 N   0  0  0  0  0  0
  -23.4300  -30.4678   21.5306 C   0  0  2  0  0  0
  -24.9028  -28.8987   20.1224 C   0  0  0  0  0  0
  -22.7482  -29.4622   22.4889 C   0  0  0  0  0  0
  -18.0296  -28.1370   22.8497 C   0  0  0  0  0  0
  -24.1508  -36.7308   23.2632 C   0  0  0  0  0  0
  -25.9701  -30.7802   21.3676 C   0  0  0  0  0  0
  -26.0627  -29.3910   20.7351 C   0  0  0  0  0  0
  -27.2470  -28.5846   20.7699 C   0  0  0  0  0  0
  -26.1028  -26.8441   19.5459 C   0  0  0  0  0  0
  -24.9297  -27.6325   19.5200 C   0  0  0  0  0  0
  -23.6582  -29.7685   20.1580 C   0  0  0  0  0  0
  -25.4117  -36.3080   24.0285 C   0  0  1  0  0  0
  -20.5919  -28.3713   23.1296 C   0  0  2  0  0  0
  -20.6781  -26.9448   22.5468 C   0  0  0  0  0  0
  -19.5779  -26.6406   21.5242 C   0  0  0  0  0  0
  -18.1921  -26.7935   22.1623 C   0  0  0  0  0  0
  -19.1550  -28.8868   23.2914 C   0  0  0  0  0  0
  -18.9438  -30.1464   23.8921 C   0  0  0  0  0  0
  -17.6472  -30.6606   24.0526 C   0  0  0  0  0  0
  -25.9082  -34.9431   23.5123 C   0  0  0  0  0  0
  -16.5360  -29.9118   23.6287 C   0  0  0  0  0  0
  -16.7268  -28.6476   23.0369 C   0  0  0  0  0  0
  -26.4422  -31.6557   25.0707 C   0  0  0  0  0  0
  -25.3604  -31.3707   26.1406 C   0  0  0  0  0  0
  -27.0212  -30.2943   24.6170 C   0  0  0  0  0  0
  -27.6037  -32.4208   25.7487 C   0  0  0  0  0  0
  -27.5603  -37.1801   24.8394 C   0  0  0  0  0  0
  -21.4191  -29.3066   22.3650 N   0  0  0  0  0  0
  -26.4254  -37.3823   23.9396 N   0  0  0  0  0  0
  -24.6940  -31.0536   22.0880 N   0  0  0  0  0  0
  -23.4162  -28.8205   23.3015 O   0  0  0  0  0  0
  -28.4003  -26.3985   20.3297 O   0  0  0  0  0  0
  -26.5663  -34.8853   22.4693 O   0  0  0  0  0  0
  -23.5394  -32.1412   23.7174 O   0  0  0  0  0  0
  -30.4638  -18.8518   22.6707 C   0  0  0  0  0  0
  -29.6784  -19.9294   20.6487 C   0  0  0  0  0  0
  -30.1201  -21.2984   22.6056 C   0  0  0  0  0  0
  -30.0843  -18.6986   21.3209 C   0  0  0  0  0  0
  -30.5235  -20.1237   23.2896 C   0  0  0  0  0  0
  -29.6516  -21.2541   21.2680 C   0  0  0  0  0  0
  -30.2312  -17.2833   20.6900 C   0  0  0  0  0  0
  -30.1560  -15.9921   21.2242 C   0  0  0  0  0  0
  -29.2076  -23.8554   20.8667 C   0  0  0  0  0  0
  -28.2416  -24.9106   20.1124 C   0  0  0  0  0  0
  -31.0094  -20.2218   24.6029 N   0  0  0  0  0  0
  -29.0965  -22.4854   20.6147 N   0  0  0  0  0  0
  -30.0619  -24.2960   21.6416 O   0  0  0  0  0  0
  -31.4830  -12.5241   19.2556 H   0  0  0  0  0  0
  -30.3003  -11.4725   19.9449 H   0  0  0  0  0  0
  -29.8324  -11.8983   17.4870 H   0  0  0  0  0  0
  -29.6913  -13.6087   17.8417 H   0  0  0  0  0  0
  -27.8689  -11.3714   18.8185 H   0  0  0  0  0  0
  -27.4172  -12.7058   17.8040 H   0  0  0  0  0  0
  -27.6457  -14.3003   19.5269 H   0  0  0  0  0  0
  -28.7265  -12.1889   21.4555 H   0  0  0  0  0  0
  -28.4295  -13.8638   21.8382 H   0  0  0  0  0  0
  -25.2826   -9.5666   22.4701 H   0  0  0  0  0  0
  -24.0052   -7.4604   22.7390 H   0  0  0  0  0  0
  -21.0890   -8.8731   19.8932 H   0  0  0  0  0  0
  -22.3750  -10.9630   19.6039 H   0  0  0  0  0  0
  -21.2019   -7.6140   23.9753 H   0  0  0  0  0  0
  -21.1510   -6.0477   25.9089 H   0  0  0  0  0  0
  -22.0589   -2.7603   23.2817 H   0  0  0  0  0  0
  -22.4080  -11.9958   22.4947 H   0  0  0  0  0  0
  -21.1000  -13.1144   22.2404 H   0  0  0  0  0  0
  -24.6540  -15.8521   20.5522 H   0  0  0  0  0  0
  -26.2885  -15.6499   20.1727 H   0  0  0  0  0  0
  -26.7131  -32.5495   23.1086 H   0  0  0  0  0  0
  -24.9847  -33.9710   25.0306 H   0  0  0  0  0  0
  -22.7269  -31.2872   21.3624 H   0  0  0  0  0  0
  -23.3764  -35.9665   23.3211 H   0  0  0  0  0  0
  -24.3664  -36.8985   22.2062 H   0  0  0  0  0  0
  -23.7207  -37.6431   23.6765 H   0  0  0  0  0  0
  -26.0761  -31.5263   20.5770 H   0  0  0  0  0  0
  -26.8555  -30.8596   21.9878 H   0  0  0  0  0  0
  -28.1208  -28.9605   21.2883 H   0  0  0  0  0  0
  -26.0471  -25.8752   19.0743 H   0  0  0  0  0  0
  -24.0433  -27.2318   19.0507 H   0  0  0  0  0  0
  -23.7523  -30.5183   19.3742 H   0  0  0  0  0  0
  -22.7909  -29.1741   19.8766 H   0  0  0  0  0  0
  -25.1303  -36.1885   25.0771 H   0  0  0  0  0  0
  -20.9999  -28.3265   24.1422 H   0  0  0  0  0  0
  -20.5669  -26.2336   23.3657 H   0  0  0  0  0  0
  -21.6631  -26.7484   22.1280 H   0  0  0  0  0  0
  -19.6967  -25.6307   21.1278 H   0  0  0  0  0  0
  -19.6711  -27.3165   20.6694 H   0  0  0  0  0  0
  -17.4262  -26.6733   21.3956 H   0  0  0  0  0  0
  -18.0271  -26.0061   22.8984 H   0  0  0  0  0  0
  -19.7920  -30.7248   24.2354 H   0  0  0  0  0  0
  -17.5004  -31.6259   24.5127 H   0  0  0  0  0  0
  -15.5357  -30.3009   23.7629 H   0  0  0  0  0  0
  -15.8640  -28.0791   22.7146 H   0  0  0  0  0  0
  -24.5821  -30.7042   25.7651 H   0  0  0  0  0  0
  -24.8718  -32.2878   26.4693 H   0  0  0  0  0  0
  -25.7880  -30.8950   27.0251 H   0  0  0  0  0  0
  -26.2769  -29.6746   24.1170 H   0  0  0  0  0  0
  -27.3766  -29.7137   25.4688 H   0  0  0  0  0  0
  -27.8682  -30.4115   23.9414 H   0  0  0  0  0  0
  -27.2750  -33.3550   26.2018 H   0  0  0  0  0  0
  -28.3895  -32.6679   25.0354 H   0  0  0  0  0  0
  -28.0639  -31.8296   26.5408 H   0  0  0  0  0  0
  -28.2519  -38.0229   24.7572 H   0  0  0  0  0  0
  -28.1240  -36.2719   24.6111 H   0  0  0  0  0  0
  -27.2383  -37.1122   25.8819 H   0  0  0  0  0  0
  -20.9429  -29.8691   21.6751 H   0  0  0  0  0  0
  -26.0116  -38.2893   24.1446 H   0  0  0  0  0  0
  -30.7724  -17.9751   23.2239 H   0  0  0  0  0  0
  -29.3666  -19.8452   19.6181 H   0  0  0  0  0  0
  -30.1582  -22.2449   23.1277 H   0  0  0  0  0  0
  -30.5371  -17.3303   19.6552 H   0  0  0  0  0  0
  -29.7998  -15.9006   22.2404 H   0  0  0  0  0  0
  -27.2392  -24.6140   20.4069 H   0  0  0  0  0  0
  -28.3431  -24.7296   19.0461 H   0  0  0  0  0  0
  -31.6389  -19.5110   24.9733 H   0  0  0  0  0  0
  -31.2049  -21.1400   24.9958 H   0  0  0  0  0  0
  -28.4467  -22.3033   19.8644 H   0  0  0  0  0  0
  1 25  1  0  0  0
  1 30  2  0  0  0
  1 78  1  0  0  0
  2  3  1  0  0  0
  2 25  1  0  0  0
  2 84  1  0  0  0
  2 85  1  0  0  0
  3  4  1  0  0  0
  3 86  1  0  0  0
  3 87  1  0  0  0
  4  5  1  0  0  0
  4 88  1  0  0  0
  4 89  1  0  0  0
  5  6  1  0  0  0
  5 26  1  0  0  0
  5 90  1  0  0  0
  6 25  1  0  0  0
  6 91  1  0  0  0
  6 92  1  0  0  0
  7  8  2  0  0  0
  7 26  1  0  0  0
  7 29  1  0  0  0
  8  9  1  0  0  0
  8 22  1  0  0  0
  9 10  1  0  0  0
  9 27  2  0  0  0
 10 11  2  0  0  0
 10 15  1  0  0  0
 11 12  1  0  0  0
 11 93  1  0  0  0
 12 13  2  0  0  0
 12 94  1  0  0  0
 13 14  1  0  0  0
 13 31  1  0  0  0
 14 15  2  0  0  0
 14 95  1  0  0  0
 15 96  1  0  0  0
 16 17  2  0  0  0
 16 21  1  0  0  0
 16 31  1  0  0  0
 17 18  1  0  0  0
 17 97  1  0  0  0
 18 19  2  0  0  0
 18 98  1  0  0  0
 19 20  1  0  0  0
 19 24  1  0  0  0
 20 21  2  0  0  0
 20 99  1  0  0  0
 21 23  1  0  0  0
 22 28  1  0  0  0
 22 32  2  0  0  0
 26 27  1  0  0  0
 28100  1  0  0  0
 28101  1  0  0  0
 29102  1  0  0  0
 29103  1  0  0  0
 33 34  1  0  0  0
 33 66  1  0  0  0
 33 70  2  0  0  0
 34 36  1  0  0  0
 34 59  1  0  0  0
 34104  1  0  0  0
 35 44  2  0  0  0
 35 45  1  0  0  0
 35 68  1  0  0  0
 36 56  1  0  0  0
 36105  1  0  0  0
 37 39  1  0  0  0
 37 47  1  0  0  0
 37 66  1  0  0  0
 37106  1  0  0  0
 38 43  2  0  0  0
 38 46  1  0  0  0
 38 47  1  0  0  0
 39 64  1  0  0  0
 39 67  2  0  0  0
 40 52  1  0  0  0
 40 53  2  0  0  0
 40 58  1  0  0  0
 41107  1  0  0  0
 41108  1  0  0  0
 41109  1  0  0  0
 41 48  1  0  0  0
 42 43  1  0  0  0
 42 66  1  0  0  0
 42110  1  0  0  0
 42111  1  0  0  0
 43 44  1  0  0  0
 44112  1  0  0  0
 45 46  2  0  0  0
 45113  1  0  0  0
 46114  1  0  0  0
 47115  1  0  0  0
 47116  1  0  0  0
 48 56  1  0  0  0
 48 65  1  0  0  0
 48117  1  0  0  0
 49 50  1  0  0  0
 49 53  1  0  0  0
 49 64  1  0  0  0
 49118  1  0  0  0
 50 51  1  0  0  0
 50119  1  0  0  0
 50120  1  0  0  0
 51 52  1  0  0  0
 51121  1  0  0  0
 51122  1  0  0  0
 52123  1  0  0  0
 52124  1  0  0  0
 53 54  1  0  0  0
 54 55  2  0  0  0
 54125  1  0  0  0
 55 57  1  0  0  0
 55126  1  0  0  0
 56 69  2  0  0  0
 57 58  2  0  0  0
 57127  1  0  0  0
 58128  1  0  0  0
 59 60  1  0  0  0
 59 61  1  0  0  0
 59 62  1  0  0  0
 60129  1  0  0  0
 60130  1  0  0  0
 60131  1  0  0  0
 61132  1  0  0  0
 61133  1  0  0  0
 61134  1  0  0  0
 62135  1  0  0  0
 62136  1  0  0  0
 62137  1  0  0  0
 63 65  1  0  0  0
 63138  1  0  0  0
 63139  1  0  0  0
 63140  1  0  0  0
 64141  1  0  0  0
 65142  1  0  0  0
 68 80  1  0  0  0
 71 74  2  0  0  0
 71 75  1  0  0  0
 71143  1  0  0  0
 72 74  1  0  0  0
 72 76  2  0  0  0
 72144  1  0  0  0
 73 75  2  0  0  0
 73 76  1  0  0  0
 73145  1  0  0  0
 74 77  1  0  0  0
 75 81  1  0  0  0
 76 82  1  0  0  0
 77 78  2  0  0  0
 77146  1  0  0  0
 78147  1  0  0  0
 79 80  1  0  0  0
 79 82  1  0  0  0
 79 83  2  0  0  0
 80148  1  0  0  0
 80149  1  0  0  0
 81150  1  0  0  0
 81151  1  0  0  0
 82152  1  0  0  0
M  ISO  4   1 100  68 101  78 100  80 101
M  END
> <chiral flag>
0

> <version>
0

> <s_m_source_file>
/data/baiqing/PycharmProjects/Reinvent-master-3.2/result/LINK_invent/BTK/process_docking_weight1_custom_product_contain_oxygen_bond_distance_aromatic_linkinvent_7_9_3/rearranged_h_0158.sdf

> <i_m_source_file_index>
89

> <r_mmod_Potential_Energy-OPLS-2005>
221.99153137207

> <r_mmod_Stretch_Energy-OPLS-2005>
145.841003417969

> <r_mmod_Bend_Energy-OPLS-2005>
187.305130004883

> <r_mmod_Torsional_Energy-OPLS-2005>
215.869583129883

> <r_mmod_Improper_Torsional_Energy-OPLS-2005>
7.81954622268677

> <r_mmod_Van_der_Waal_Energy-OPLS-2005>
138.217468261719

> <r_mmod_Electrostatic_Energy-OPLS-2005>
-315.973083496094

> <r_mmod_Solvation_Energy-OPLS-2005>
-246.572631835938

> <b_mmod_Minimization_Converged-OPLS-2005>
0

> <r_mmod_RMS_Derivative-OPLS-2005>
10.9106149673462

$$$$
89
                    3D
 Structure written by MMmdl.
159168  0  0  1  0            999 V2000
  -27.6231  -17.3564   21.2813 C   0  0  0  0  0  0
  -29.4232  -14.8625   19.9884 C   0  0  0  0  0  0
  -29.3578  -13.6045   18.8733 C   0  0  0  0  0  0
  -28.2620  -12.5877   19.1530 C   0  0  0  0  0  0
  -27.3336  -13.4577   19.9829 C   0  0  2  0  0  0
  -27.8550  -14.2654   21.2321 C   0  0  0  0  0  0
  -25.0370  -13.8198   20.5391 C   0  0  0  0  0  0
  -24.0391  -13.0081   20.9313 C   0  0  0  0  0  0
  -24.5575  -11.6727   20.8878 C   0  0  0  0  0  0
  -23.8644  -10.4026   21.0454 C   0  0  0  0  0  0
  -24.3367   -9.4053   21.9226 C   0  0  0  0  0  0
  -23.6150   -8.2051   22.0733 C   0  0  0  0  0  0
  -22.4152   -8.0042   21.3519 C   0  0  0  0  0  0
  -21.9688   -8.9925   20.4606 C   0  0  0  0  0  0
  -22.6883  -10.1847   20.3033 C   0  0  0  0  0  0
  -21.6770   -6.0581   22.5302 C   0  0  0  0  0  0
  -21.3960   -6.5530   23.8214 C   0  0  0  0  0  0
  -21.3667   -5.6730   24.9206 C   0  0  0  0  0  0
  -21.6049   -4.2982   24.7297 C   0  0  0  0  0  0
  -21.8814   -3.8034   23.4424 C   0  0  0  0  0  0
  -21.9153   -4.6821   22.3456 C   0  0  0  0  0  0
  -22.6579  -13.4787   21.2150 C   0  0  0  0  0  0
  -22.1629   -4.1990   21.1043 F   0  0  0  0  0  0
  -21.5663   -3.4500   25.7835 F   0  0  0  0  0  0
  -28.1024  -15.7133   20.7700 N   0  0  0  0  0  0
  -26.0826  -12.9696   20.3114 N   0  0  0  0  0  0
  -25.8463  -11.6709   20.5711 N   0  0  0  0  0  0
  -21.9494  -12.7761   22.0872 N   0  0  0  0  0  0
  -25.1488  -15.2035   20.3622 N   0  0  0  0  0  0
  -28.9834  -17.3208   21.1909 O   0  0  0  0  0  0
  -21.6520   -6.8673   21.4238 O   0  0  0  0  0  0
  -22.2333  -14.5158   20.7027 O   0  0  0  0  0  0
  -24.6555  -31.9208   23.2031 C   0  0  0  0  0  0
  -25.9353  -32.5033   23.8503 C   0  0  1  0  0  0
  -27.1658  -27.4803   20.1066 C   0  0  0  0  0  0
  -25.6205  -33.8781   24.2474 N   0  0  0  0  0  0
  -23.4581  -30.6391   21.4915 C   0  0  2  0  0  0
  -24.8464  -29.0483   20.0494 C   0  0  0  0  0  0
  -22.8508  -29.6095   22.4186 C   0  0  0  0  0  0
  -19.0981  -26.3801   22.2157 C   0  0  0  0  0  0
  -24.1496  -36.7355   23.2613 C   0  0  0  0  0  0
  -25.9697  -30.8984   21.3354 C   0  0  0  0  0  0
  -26.0025  -29.5538   20.6422 C   0  0  0  0  0  0
  -27.1765  -28.8001   20.6105 C   0  0  0  0  0  0
  -26.0086  -26.9694   19.4864 C   0  0  0  0  0  0
  -24.8448  -27.7710   19.4470 C   0  0  0  0  0  0
  -23.6572  -29.9791   20.0881 C   0  0  0  0  0  0
  -25.4111  -36.3187   24.0320 C   0  0  1  0  0  0
  -21.5670  -27.7949   22.0558 C   0  0  2  0  0  0
  -21.2104  -26.9674   20.8907 C   0  0  0  0  0  0
  -19.7646  -27.0330   20.2912 C   0  0  0  0  0  0
  -18.6305  -26.3030   20.9342 C   0  0  0  0  0  0
  -20.5595  -27.4732   22.7624 C   0  0  0  0  0  0
  -20.5389  -28.0215   24.3431 C   0  0  0  0  0  0
  -19.2945  -27.7393   25.3114 C   0  0  0  0  0  0
  -25.9082  -34.9584   23.5124 C   0  0  0  0  0  0
  -18.0836  -26.7920   24.8941 C   0  0  0  0  0  0
  -17.9800  -26.0605   23.4380 C   0  0  0  0  0  0
  -26.4558  -31.6581   25.0736 C   0  0  0  0  0  0
  -25.3732  -31.3676   26.1380 C   0  0  0  0  0  0
  -27.0340  -30.3043   24.5980 C   0  0  0  0  0  0
  -27.6111  -32.4154   25.7648 C   0  0  0  0  0  0
  -27.5591  -37.1863   24.8466 C   0  0  0  0  0  0
  -21.6574  -29.2161   22.0177 N   0  0  0  0  0  0
  -26.4294  -37.3867   23.9431 N   0  0  0  0  0  0
  -24.7144  -31.1684   22.0681 N   0  0  0  0  0  0
  -23.4938  -29.0596   23.3232 O   0  0  0  0  0  0
  -28.1939  -26.6443   20.4486 O   0  0  0  0  0  0
  -26.5539  -34.9013   22.4619 O   0  0  0  0  0  0
  -23.5704  -32.1942   23.7454 O   0  0  0  0  0  0
  -25.2641  -22.0616   22.9509 C   0  0  0  0  0  0
  -23.4777  -24.2517   23.4520 C   0  0  0  0  0  0
  -24.8284  -23.4637   23.4150 C   0  0  0  0  0  0
  -24.5921  -20.8892   22.3396 C   0  0  0  0  0  0
  -22.0418  -23.9321   23.2324 C   0  0  0  0  0  0
  -26.3275  -25.4622   23.1296 C   0  0  0  0  0  0
  -27.5574  -25.3910   22.6152 C   0  0  0  0  0  0
  -28.3311  -24.2103   23.1194 C   0  0  0  0  0  0
  -26.0312  -24.3011   24.0152 C   0  0  2  0  0  0
  -18.5811  -28.2476   23.1855 C   0  0  0  0  0  0
  -28.2495  -26.5414   21.9143 C   0  0  0  0  0  0
  -22.9314  -22.1431   22.6271 N   0  0  0  0  0  0
  -26.0647  -18.8798   21.6236 N   0  0  0  0  0  0
  -20.4562  -25.4906   23.7677 N   0  0  0  0  0  0
  -27.3516  -23.6098   24.0685 N   0  3  0  0  0  0
  -29.9031  -15.6709   19.4438 H   0  0  0  0  0  0
  -30.2078  -14.6436   20.7171 H   0  0  0  0  0  0
  -30.3283  -13.1140   18.7786 H   0  0  0  0  0  0
  -29.1386  -14.0531   17.9073 H   0  0  0  0  0  0
  -28.6167  -11.7590   19.7681 H   0  0  0  0  0  0
  -27.7910  -12.1948   18.2459 H   0  0  0  0  0  0
  -27.0835  -14.2037   19.2255 H   0  0  0  0  0  0
  -28.6296  -13.7421   21.7986 H   0  0  0  0  0  0
  -27.1015  -14.3695   22.0131 H   0  0  0  0  0  0
  -25.2467   -9.5602   22.4845 H   0  0  0  0  0  0
  -23.9824   -7.4438   22.7430 H   0  0  0  0  0  0
  -21.0636   -8.8349   19.8934 H   0  0  0  0  0  0
  -22.3270  -10.9355   19.6144 H   0  0  0  0  0  0
  -21.1921   -7.6033   23.9685 H   0  0  0  0  0  0
  -21.1529   -6.0473   25.9111 H   0  0  0  0  0  0
  -22.0604   -2.7483   23.2987 H   0  0  0  0  0  0
  -22.3202  -11.9406   22.5160 H   0  0  0  0  0  0
  -21.0172  -13.0773   22.3364 H   0  0  0  0  0  0
  -24.3164  -15.7845   20.3482 H   0  0  0  0  0  0
  -25.9186  -15.5797   19.8237 H   0  0  0  0  0  0
  -26.7488  -32.5740   23.1338 H   0  0  0  0  0  0
  -25.0587  -33.9912   25.0798 H   0  0  0  0  0  0
  -22.7502  -31.4634   21.3931 H   0  0  0  0  0  0
  -23.3772  -35.9676   23.3296 H   0  0  0  0  0  0
  -24.3643  -36.8942   22.2030 H   0  0  0  0  0  0
  -23.7218  -37.6551   23.6631 H   0  0  0  0  0  0
  -26.1050  -31.6637   20.5728 H   0  0  0  0  0  0
  -26.8594  -30.9204   21.9582 H   0  0  0  0  0  0
  -28.0545  -29.1660   21.1120 H   0  0  0  0  0  0
  -25.9748  -25.9509   19.1119 H   0  0  0  0  0  0
  -23.9541  -27.3980   18.9718 H   0  0  0  0  0  0
  -23.8760  -30.7816   19.3795 H   0  0  0  0  0  0
  -22.7606  -29.4912   19.7040 H   0  0  0  0  0  0
  -25.1286  -36.2057   25.0810 H   0  0  0  0  0  0
  -22.4178  -27.2460   22.4840 H   0  0  0  0  0  0
  -21.4423  -25.9111   21.0692 H   0  0  0  0  0  0
  -21.8993  -27.2166   20.0867 H   0  0  0  0  0  0
  -19.8309  -26.6700   19.2702 H   0  0  0  0  0  0
  -19.4900  -28.0806   20.1879 H   0  0  0  0  0  0
  -17.6505  -26.7715   20.8026 H   0  0  0  0  0  0
  -18.5930  -25.2639   20.6184 H   0  0  0  0  0  0
  -21.3292  -28.6449   24.7241 H   0  0  0  0  0  0
  -19.2831  -28.1665   26.3032 H   0  0  0  0  0  0
  -17.3000  -26.6093   25.6166 H   0  0  0  0  0  0
  -17.0967  -25.4933   23.2282 H   0  0  0  0  0  0
  -24.5788  -30.7241   25.7589 H   0  0  0  0  0  0
  -24.9099  -32.2848   26.5002 H   0  0  0  0  0  0
  -25.7955  -30.8609   27.0057 H   0  0  0  0  0  0
  -26.2898  -29.6873   24.0924 H   0  0  0  0  0  0
  -27.4101  -29.7176   25.4370 H   0  0  0  0  0  0
  -27.8755  -30.4414   23.9186 H   0  0  0  0  0  0
  -27.2728  -33.3372   26.2411 H   0  0  0  0  0  0
  -28.3961  -32.6782   25.0539 H   0  0  0  0  0  0
  -28.0745  -31.8085   26.5438 H   0  0  0  0  0  0
  -28.2591  -38.0178   24.7598 H   0  0  0  0  0  0
  -28.1116  -36.2733   24.6216 H   0  0  0  0  0  0
  -27.2368  -37.1429   25.8880 H   0  0  0  0  0  0
  -21.2236  -29.6961   21.2454 H   0  0  0  0  0  0
  -26.0178  -38.2945   24.1467 H   0  0  0  0  0  0
  -26.2981  -21.7574   23.0200 H   0  0  0  0  0  0
  -23.6320  -25.2760   23.7365 H   0  0  0  0  0  0
  -25.6511  -26.2907   23.0244 H   0  0  0  0  0  0
  -29.3183  -24.4756   23.5107 H   0  0  0  0  0  0
  -28.4795  -23.4685   22.3550 H   0  0  0  0  0  0
  -25.8459  -24.6752   25.0316 H   0  0  0  0  0  0
  -17.4869  -28.2451   23.2422 H   0  0  0  0  0  0
  -18.6327  -28.6584   22.1727 H   0  0  0  0  0  0
  -18.7673  -29.2074   23.6722 H   0  0  0  0  0  0
  -29.2518  -26.6415   22.3220 H   0  0  0  0  0  0
  -27.6686  -27.3207   22.4108 H   0  0  0  0  0  0
  -25.7427  -18.7723   20.6626 H   0  0  0  0  0  0
  -20.6700  -25.6703   24.7563 H   0  0  0  0  0  0
  -27.8026  -23.5255   24.9701 H   0  0  0  0  0  0
  -27.0683  -22.7224   23.7319 H   0  0  0  0  0  0
  1 25  1  0  0  0
  1 30  2  0  0  0
  1 83  1  0  0  0
  2  3  1  0  0  0
  2 25  1  0  0  0
  2 86  1  0  0  0
  2 87  1  0  0  0
  3  4  1  0  0  0
  3 88  1  0  0  0
  3 89  1  0  0  0
  4  5  1  0  0  0
  4 90  1  0  0  0
  4 91  1  0  0  0
  5  6  1  0  0  0
  5 26  1  0  0  0
  5 92  1  0  0  0
  6 25  1  0  0  0
  6 93  1  0  0  0
  6 94  1  0  0  0
  7  8  2  0  0  0
  7 26  1  0  0  0
  7 29  1  0  0  0
  8  9  1  0  0  0
  8 22  1  0  0  0
  9 10  1  0  0  0
  9 27  2  0  0  0
 10 11  2  0  0  0
 10 15  1  0  0  0
 11 12  1  0  0  0
 11 95  1  0  0  0
 12 13  2  0  0  0
 12 96  1  0  0  0
 13 14  1  0  0  0
 13 31  1  0  0  0
 14 15  2  0  0  0
 14 97  1  0  0  0
 15 98  1  0  0  0
 16 17  2  0  0  0
 16 21  1  0  0  0
 16 31  1  0  0  0
 17 18  1  0  0  0
 17 99  1  0  0  0
 18 19  2  0  0  0
 18100  1  0  0  0
 19 20  1  0  0  0
 19 24  1  0  0  0
 20 21  2  0  0  0
 20101  1  0  0  0
 21 23  1  0  0  0
 22 28  1  0  0  0
 22 32  2  0  0  0
 26 27  1  0  0  0
 28102  1  0  0  0
 28103  1  0  0  0
 29104  1  0  0  0
 29105  1  0  0  0
 33 34  1  0  0  0
 33 66  1  0  0  0
 33 70  2  0  0  0
 34 36  1  0  0  0
 34 59  1  0  0  0
 34106  1  0  0  0
 35 44  2  0  0  0
 35 45  1  0  0  0
 35 68  1  0  0  0
 36 56  1  0  0  0
 36107  1  0  0  0
 37 39  1  0  0  0
 37 47  1  0  0  0
 37 66  1  0  0  0
 37108  1  0  0  0
 38 43  2  0  0  0
 38 46  1  0  0  0
 38 47  1  0  0  0
 39 64  1  0  0  0
 39 67  2  0  0  0
 40 52  1  0  0  0
 40 53  2  0  0  0
 40 58  1  0  0  0
 41109  1  0  0  0
 41110  1  0  0  0
 41111  1  0  0  0
 41 48  1  0  0  0
 42 43  1  0  0  0
 42 66  1  0  0  0
 42112  1  0  0  0
 42113  1  0  0  0
 43 44  1  0  0  0
 44114  1  0  0  0
 45 46  2  0  0  0
 45115  1  0  0  0
 46116  1  0  0  0
 47117  1  0  0  0
 47118  1  0  0  0
 48 56  1  0  0  0
 48 65  1  0  0  0
 48119  1  0  0  0
 49 50  1  0  0  0
 49 53  1  0  0  0
 49 64  1  0  0  0
 49120  1  0  0  0
 50 51  1  0  0  0
 50121  1  0  0  0
 50122  1  0  0  0
 51 52  1  0  0  0
 51123  1  0  0  0
 51124  1  0  0  0
 52125  1  0  0  0
 52126  1  0  0  0
 53 54  1  0  0  0
 54 55  2  0  0  0
 54127  1  0  0  0
 55 57  1  0  0  0
 55128  1  0  0  0
 56 69  2  0  0  0
 57 58  2  0  0  0
 57129  1  0  0  0
 58130  1  0  0  0
 59 60  1  0  0  0
 59 61  1  0  0  0
 59 62  1  0  0  0
 60131  1  0  0  0
 60132  1  0  0  0
 60133  1  0  0  0
 61134  1  0  0  0
 61135  1  0  0  0
 61136  1  0  0  0
 62137  1  0  0  0
 62138  1  0  0  0
 62139  1  0  0  0
 63 65  1  0  0  0
 63140  1  0  0  0
 63141  1  0  0  0
 63142  1  0  0  0
 64143  1  0  0  0
 65144  1  0  0  0
 68 81  1  0  0  0
 71 73  2  0  0  0
 71 74  1  0  0  0
 71145  1  0  0  0
 72 73  1  0  0  0
 72 75  2  0  0  0
 72146  1  0  0  0
 73 79  1  0  0  0
 74 82  2  0  0  0
 74 83  1  0  0  0
 75 82  1  0  0  0
 75 84  1  0  0  0
 76 77  2  0  0  0
 76 79  1  0  0  0
 76147  1  0  0  0
 77 78  1  0  0  0
 77 81  1  0  0  0
 78 85  1  0  0  0
 78148  1  0  0  0
 78149  1  0  0  0
 79 85  1  0  0  0
 79150  1  0  0  0
 80 84  1  0  0  0
 80151  1  0  0  0
 80152  1  0  0  0
 80153  1  0  0  0
 81154  1  0  0  0
 81155  1  0  0  0
 83156  1  0  0  0
 84157  1  0  0  0
 85158  1  0  0  0
 85159  1  0  0  0
M  CHG  1  85   1
M  ISO  4   1 100  68 101  81 101  83 100
M  END
> <chiral flag>
0

> <version>
0

> <s_m_source_file>
/data/baiqing/PycharmProjects/Reinvent-master-3.2/result/LINK_invent/BTK/process_docking_weight1_custom_product_contain_oxygen_bond_distance_aromatic_linkinvent_7_9_3/rearranged_h_0158.sdf

> <i_m_source_file_index>
90

> <r_mmod_Potential_Energy-OPLS-2005>
31665.03125

> <r_mmod_Stretch_Energy-OPLS-2005>
15560.6630859375

> <r_mmod_Bend_Energy-OPLS-2005>
2243.544921875

> <r_mmod_Torsional_Energy-OPLS-2005>
445.960723876953

> <r_mmod_Improper_Torsional_Energy-OPLS-2005>
33.1965217590332

> <r_mmod_Van_der_Waal_Energy-OPLS-2005>
2490.62768554688

> <r_mmod_Electrostatic_Energy-OPLS-2005>
-568.837280273438

> <r_mmod_Solvation_Energy-OPLS-2005>
-510.264251708984

> <b_mmod_Minimization_Converged-OPLS-2005>
0

> <r_mmod_RMS_Derivative-OPLS-2005>
41.6877555847168

$$$$
90
                    3D
 Structure written by MMmdl.
161170  0  0  1  0            999 V2000
  -30.6233  -14.6611   20.4859 C   0  0  0  0  0  0
  -30.4356  -12.4027   19.4659 C   0  0  0  0  0  0
  -29.5112  -12.5108   18.2324 C   0  0  0  0  0  0
  -28.0335  -12.3494   18.6412 C   0  0  0  0  0  0
  -27.6525  -13.2226   19.8654 C   0  0  2  0  0  0
  -28.6952  -13.0962   21.0001 C   0  0  0  0  0  0
  -25.2542  -13.8181   20.5680 C   0  0  0  0  0  0
  -24.1810  -13.0444   20.9171 C   0  0  0  0  0  0
  -24.6384  -11.6917   20.8719 C   0  0  0  0  0  0
  -23.9067  -10.4297   21.0396 C   0  0  0  0  0  0
  -24.3616   -9.4213   21.9185 C   0  0  0  0  0  0
  -23.6281   -8.2242   22.0754 C   0  0  0  0  0  0
  -22.4256   -8.0284   21.3543 C   0  0  0  0  0  0
  -21.9895   -9.0268   20.4652 C   0  0  0  0  0  0
  -22.7231  -10.2141   20.3058 C   0  0  0  0  0  0
  -21.6859   -6.0731   22.5274 C   0  0  0  0  0  0
  -21.4022   -6.5633   23.8204 C   0  0  0  0  0  0
  -21.3657   -5.6784   24.9164 C   0  0  0  0  0  0
  -21.6042   -4.3049   24.7215 C   0  0  0  0  0  0
  -21.8824   -3.8145   23.4336 C   0  0  0  0  0  0
  -21.9191   -4.6965   22.3392 C   0  0  0  0  0  0
  -22.7830  -13.5238   21.1824 C   0  0  0  0  0  0
  -22.1658   -4.2154   21.0968 F   0  0  0  0  0  0
  -21.5635   -3.4527   25.7723 F   0  0  0  0  0  0
  -30.0121  -13.4326   20.4394 N   0  0  0  0  0  0
  -26.2977  -12.9373   20.3321 N   0  0  0  0  0  0
  -25.9323  -11.6526   20.5740 N   0  0  0  0  0  0
  -22.0470  -12.8243   22.0392 N   0  0  0  0  0  0
  -25.4309  -15.1893   20.4088 N   0  0  0  0  0  0
  -31.7719  -14.8145   20.0589 O   0  0  0  0  0  0
  -21.6631   -6.8875   21.4231 O   0  0  0  0  0  0
  -22.3530  -14.5560   20.6695 O   0  0  0  0  0  0
  -24.6260  -31.8591   23.2017 C   0  0  0  0  0  0
  -25.9106  -32.4776   23.8352 C   0  0  1  0  0  0
  -27.2194  -27.3121   20.1229 C   0  0  0  0  0  0
  -25.5924  -33.8577   24.2284 N   0  0  0  0  0  0
  -23.4200  -30.4823   21.5447 C   0  0  2  0  0  0
  -24.8678  -28.9405   20.1060 C   0  0  0  0  0  0
  -22.7478  -29.4616   22.4931 C   0  0  0  0  0  0
  -18.0286  -28.1382   22.8487 C   0  0  0  0  0  0
  -24.1492  -36.7291   23.2635 C   0  0  0  0  0  0
  -25.9615  -30.7897   21.3738 C   0  0  0  0  0  0
  -26.0360  -29.4170   20.7141 C   0  0  0  0  0  0
  -27.2157  -28.6147   20.7109 C   0  0  0  0  0  0
  -26.0389  -26.9031   19.4625 C   0  0  0  0  0  0
  -24.8719  -27.6911   19.4673 C   0  0  0  0  0  0
  -23.6345  -29.8188   20.1587 C   0  0  0  0  0  0
  -25.4113  -36.3085   24.0331 C   0  0  1  0  0  0
  -20.5888  -28.3687   23.1288 C   0  0  2  0  0  0
  -20.6776  -26.9406   22.5417 C   0  0  0  0  0  0
  -19.5750  -26.6380   21.5216 C   0  0  0  0  0  0
  -18.1930  -26.7928   22.1623 C   0  0  0  0  0  0
  -19.1539  -28.8852   23.2882 C   0  0  0  0  0  0
  -18.9458  -30.1456   23.8900 C   0  0  0  0  0  0
  -17.6455  -30.6584   24.0558 C   0  0  0  0  0  0
  -25.9047  -34.9447   23.5107 C   0  0  0  0  0  0
  -16.5351  -29.9078   23.6325 C   0  0  0  0  0  0
  -16.7269  -28.6497   23.0349 C   0  0  0  0  0  0
  -26.4497  -31.6577   25.0714 C   0  0  0  0  0  0
  -25.3739  -31.3710   26.1447 C   0  0  0  0  0  0
  -27.0321  -30.2994   24.6157 C   0  0  0  0  0  0
  -27.6070  -32.4304   25.7477 C   0  0  0  0  0  0
  -27.5589  -37.1794   24.8459 C   0  0  0  0  0  0
  -21.4186  -29.3035   22.3676 N   0  0  0  0  0  0
  -26.4294  -37.3779   23.9412 N   0  0  0  0  0  0
  -24.6878  -31.0606   22.0968 N   0  0  0  0  0  0
  -23.4201  -28.8138   23.2997 O   0  0  0  0  0  0
  -28.3237  -26.4419   20.2038 O   0  0  0  0  0  0
  -26.5610  -34.8917   22.4671 O   0  0  0  0  0  0
  -23.5419  -32.1391   23.7342 O   0  0  0  0  0  0
  -29.8982  -18.3232   20.8730 C   0  0  0  0  0  0
  -29.3237  -19.5084   18.8217 C   0  0  0  0  0  0
  -29.3209  -17.0548   18.8793 C   0  0  0  0  0  0
  -29.7091  -19.5821   20.1764 C   0  0  0  0  0  0
  -29.7409  -17.0393   20.2278 C   0  0  0  0  0  0
  -29.1115  -18.2670   18.1912 C   0  0  0  0  0  0
  -30.1026  -20.9275   20.7541 C   0  0  0  0  0  0
  -29.3053  -24.6168   21.5778 C   0  0  0  0  0  0
  -28.1132  -24.0286   19.4313 C   0  0  0  0  0  0
  -30.2253  -23.4572   21.0499 C   0  0  0  0  0  0
  -28.2273  -22.5249   19.9194 C   0  0  0  0  0  0
  -28.1355  -25.0441   20.6257 C   0  0  0  0  0  0
  -29.5276  -22.1959   20.5946 N   0  0  0  0  0  0
  -29.8743  -15.7370   20.8950 N   0  0  0  0  0  0
  -31.2155  -20.8711   21.4820 N   0  3  0  0  0  0
  -26.9453  -24.8886   21.3784 O   0  0  0  0  0  0
  -28.7165  -18.2389   16.8962 F   0  0  0  0  0  0
  -31.4785  -12.5221   19.1640 H   0  0  0  0  0  0
  -30.3719  -11.4103   19.9148 H   0  0  0  0  0  0
  -29.7773  -11.7552   17.4917 H   0  0  0  0  0  0
  -29.6561  -13.4780   17.7475 H   0  0  0  0  0  0
  -27.8685  -11.2963   18.8732 H   0  0  0  0  0  0
  -27.3854  -12.5808   17.7957 H   0  0  0  0  0  0
  -27.6667  -14.2549   19.5161 H   0  0  0  0  0  0
  -28.7061  -12.0809   21.3997 H   0  0  0  0  0  0
  -28.4391  -13.7448   21.8389 H   0  0  0  0  0  0
  -25.2771   -9.5684   22.4746 H   0  0  0  0  0  0
  -24.0008   -7.4629   22.7460 H   0  0  0  0  0  0
  -21.0841   -8.8793   19.8943 H   0  0  0  0  0  0
  -22.3711  -10.9679   19.6159 H   0  0  0  0  0  0
  -21.2019   -7.6138   23.9713 H   0  0  0  0  0  0
  -21.1473   -6.0503   25.9063 H   0  0  0  0  0  0
  -22.0603   -2.7608   23.2828 H   0  0  0  0  0  0
  -22.4069  -11.9903   22.4786 H   0  0  0  0  0  0
  -21.1097  -13.1293   22.2595 H   0  0  0  0  0  0
  -24.6745  -15.8544   20.5296 H   0  0  0  0  0  0
  -26.2904  -15.6215   20.0973 H   0  0  0  0  0  0
  -26.7169  -32.5456   23.1094 H   0  0  0  0  0  0
  -25.0069  -33.9716   25.0431 H   0  0  0  0  0  0
  -22.7133  -31.3021   21.4027 H   0  0  0  0  0  0
  -23.3766  -35.9609   23.3272 H   0  0  0  0  0  0
  -24.3597  -36.8935   22.2056 H   0  0  0  0  0  0
  -23.7226  -37.6479   23.6670 H   0  0  0  0  0  0
  -26.0933  -31.5544   20.6072 H   0  0  0  0  0  0
  -26.8419  -30.8394   22.0034 H   0  0  0  0  0  0
  -28.1102  -28.9716   21.2021 H   0  0  0  0  0  0
  -25.9949  -25.9550   18.9510 H   0  0  0  0  0  0
  -23.9803  -27.3300   18.9742 H   0  0  0  0  0  0
  -23.7491  -30.5968   19.4025 H   0  0  0  0  0  0
  -22.7560  -29.2456   19.8582 H   0  0  0  0  0  0
  -25.1285  -36.1937   25.0821 H   0  0  0  0  0  0
  -20.9974  -28.3264   24.1410 H   0  0  0  0  0  0
  -20.5683  -26.2288   23.3610 H   0  0  0  0  0  0
  -21.6643  -26.7442   22.1207 H   0  0  0  0  0  0
  -19.6908  -25.6289   21.1244 H   0  0  0  0  0  0
  -19.6684  -27.3192   20.6745 H   0  0  0  0  0  0
  -17.4192  -26.6680   21.4022 H   0  0  0  0  0  0
  -18.0325  -26.0077   22.9030 H   0  0  0  0  0  0
  -19.7929  -30.7277   24.2273 H   0  0  0  0  0  0
  -17.5003  -31.6265   24.5152 H   0  0  0  0  0  0
  -15.5347  -30.2972   23.7648 H   0  0  0  0  0  0
  -15.8678  -28.0812   22.7065 H   0  0  0  0  0  0
  -24.5891  -30.7087   25.7770 H   0  0  0  0  0  0
  -24.8957  -32.2875   26.4907 H   0  0  0  0  0  0
  -25.8064  -30.8847   27.0197 H   0  0  0  0  0  0
  -26.2872  -29.6755   24.1200 H   0  0  0  0  0  0
  -27.4035  -29.7237   25.4647 H   0  0  0  0  0  0
  -27.8743  -30.4266   23.9353 H   0  0  0  0  0  0
  -27.2692  -33.3608   26.2050 H   0  0  0  0  0  0
  -28.3869  -32.6854   25.0293 H   0  0  0  0  0  0
  -28.0743  -31.8430   26.5390 H   0  0  0  0  0  0
  -28.2578  -38.0121   24.7548 H   0  0  0  0  0  0
  -28.1114  -36.2653   24.6222 H   0  0  0  0  0  0
  -27.2317  -37.1368   25.8865 H   0  0  0  0  0  0
  -20.9361  -29.8764   21.6900 H   0  0  0  0  0  0
  -26.0175  -38.2850   24.1435 H   0  0  0  0  0  0
  -30.2063  -18.3417   21.9087 H   0  0  0  0  0  0
  -29.2312  -20.4011   18.2232 H   0  0  0  0  0  0
  -29.1415  -16.1299   18.3520 H   0  0  0  0  0  0
  -29.9206  -25.4960   21.7720 H   0  0  0  0  0  0
  -28.9063  -24.3285   22.5521 H   0  0  0  0  0  0
  -27.2031  -24.1584   18.8500 H   0  0  0  0  0  0
  -28.9371  -24.2649   18.7568 H   0  0  0  0  0  0
  -30.9339  -23.2534   21.8515 H   0  0  0  0  0  0
  -30.8311  -23.8285   20.2223 H   0  0  0  0  0  0
  -28.0563  -21.8815   19.0607 H   0  0  0  0  0  0
  -27.4132  -22.3086   20.6133 H   0  0  0  0  0  0
  -29.0616  -15.4693   21.4298 H   0  0  0  0  0  0
  -31.7116  -19.9960   21.5518 H   0  0  0  0  0  0
  -31.5844  -21.6691   21.9701 H   0  0  0  0  0  0
  -26.2334  -25.2608   20.8705 H   0  0  0  0  0  0
  1 25  1  0  0  0
  1 30  2  0  0  0
  1 84  1  0  0  0
  2  3  1  0  0  0
  2 25  1  0  0  0
  2 88  1  0  0  0
  2 89  1  0  0  0
  3  4  1  0  0  0
  3 90  1  0  0  0
  3 91  1  0  0  0
  4  5  1  0  0  0
  4 92  1  0  0  0
  4 93  1  0  0  0
  5  6  1  0  0  0
  5 26  1  0  0  0
  5 94  1  0  0  0
  6 25  1  0  0  0
  6 95  1  0  0  0
  6 96  1  0  0  0
  7  8  2  0  0  0
  7 26  1  0  0  0
  7 29  1  0  0  0
  8  9  1  0  0  0
  8 22  1  0  0  0
  9 10  1  0  0  0
  9 27  2  0  0  0
 10 11  2  0  0  0
 10 15  1  0  0  0
 11 12  1  0  0  0
 11 97  1  0  0  0
 12 13  2  0  0  0
 12 98  1  0  0  0
 13 14  1  0  0  0
 13 31  1  0  0  0
 14 15  2  0  0  0
 14 99  1  0  0  0
 15100  1  0  0  0
 16 17  2  0  0  0
 16 21  1  0  0  0
 16 31  1  0  0  0
 17 18  1  0  0  0
 17101  1  0  0  0
 18 19  2  0  0  0
 18102  1  0  0  0
 19 20  1  0  0  0
 19 24  1  0  0  0
 20 21  2  0  0  0
 20103  1  0  0  0
 21 23  1  0  0  0
 22 28  1  0  0  0
 22 32  2  0  0  0
 26 27  1  0  0  0
 28104  1  0  0  0
 28105  1  0  0  0
 29106  1  0  0  0
 29107  1  0  0  0
 33 34  1  0  0  0
 33 66  1  0  0  0
 33 70  2  0  0  0
 34 36  1  0  0  0
 34 59  1  0  0  0
 34108  1  0  0  0
 35 44  2  0  0  0
 35 45  1  0  0  0
 35 68  1  0  0  0
 36 56  1  0  0  0
 36109  1  0  0  0
 37 39  1  0  0  0
 37 47  1  0  0  0
 37 66  1  0  0  0
 37110  1  0  0  0
 38 43  2  0  0  0
 38 46  1  0  0  0
 38 47  1  0  0  0
 39 64  1  0  0  0
 39 67  2  0  0  0
 40 52  1  0  0  0
 40 53  2  0  0  0
 40 58  1  0  0  0
 41111  1  0  0  0
 41112  1  0  0  0
 41113  1  0  0  0
 41 48  1  0  0  0
 42 43  1  0  0  0
 42 66  1  0  0  0
 42114  1  0  0  0
 42115  1  0  0  0
 43 44  1  0  0  0
 44116  1  0  0  0
 45 46  2  0  0  0
 45117  1  0  0  0
 46118  1  0  0  0
 47119  1  0  0  0
 47120  1  0  0  0
 48 56  1  0  0  0
 48 65  1  0  0  0
 48121  1  0  0  0
 49 50  1  0  0  0
 49 53  1  0  0  0
 49 64  1  0  0  0
 49122  1  0  0  0
 50 51  1  0  0  0
 50123  1  0  0  0
 50124  1  0  0  0
 51 52  1  0  0  0
 51125  1  0  0  0
 51126  1  0  0  0
 52127  1  0  0  0
 52128  1  0  0  0
 53 54  1  0  0  0
 54 55  2  0  0  0
 54129  1  0  0  0
 55 57  1  0  0  0
 55130  1  0  0  0
 56 69  2  0  0  0
 57 58  2  0  0  0
 57131  1  0  0  0
 58132  1  0  0  0
 59 60  1  0  0  0
 59 61  1  0  0  0
 59 62  1  0  0  0
 60133  1  0  0  0
 60134  1  0  0  0
 60135  1  0  0  0
 61136  1  0  0  0
 61137  1  0  0  0
 61138  1  0  0  0
 62139  1  0  0  0
 62140  1  0  0  0
 62141  1  0  0  0
 63 65  1  0  0  0
 63142  1  0  0  0
 63143  1  0  0  0
 63144  1  0  0  0
 64145  1  0  0  0
 65146  1  0  0  0
 68 82  1  0  0  0
 71 74  2  0  0  0
 71 75  1  0  0  0
 71147  1  0  0  0
 72 74  1  0  0  0
 72 76  2  0  0  0
 72148  1  0  0  0
 73 75  2  0  0  0
 73 76  1  0  0  0
 73149  1  0  0  0
 74 77  1  0  0  0
 75 84  1  0  0  0
 76 87  1  0  0  0
 77 83  1  0  0  0
 77 85  2  0  0  0
 78 80  1  0  0  0
 78 82  1  0  0  0
 78150  1  0  0  0
 78151  1  0  0  0
 79 81  1  0  0  0
 79 82  1  0  0  0
 79152  1  0  0  0
 79153  1  0  0  0
 80 83  1  0  0  0
 80154  1  0  0  0
 80155  1  0  0  0
 81 83  1  0  0  0
 81156  1  0  0  0
 81157  1  0  0  0
 82 86  1  0  0  0
 84158  1  0  0  0
 85159  1  0  0  0
 85160  1  0  0  0
 86161  1  0  0  0
M  CHG  1  85   1
M  ISO  4   1 100  68 101  82 101  84 100
M  END
> <chiral flag>
0

> <version>
0

> <s_m_source_file>
/data/baiqing/PycharmProjects/Reinvent-master-3.2/result/LINK_invent/BTK/process_docking_weight1_custom_product_contain_oxygen_bond_distance_aromatic_linkinvent_7_9_3/rearranged_h_0158.sdf

> <i_m_source_file_index>
91

> <r_mmod_Potential_Energy-OPLS-2005>
-57.4803619384766

> <r_mmod_Stretch_Energy-OPLS-2005>
97.9221649169922

> <r_mmod_Bend_Energy-OPLS-2005>
149.574249267578

> <r_mmod_Torsional_Energy-OPLS-2005>
313.692047119141

> <r_mmod_Improper_Torsional_Energy-OPLS-2005>
6.78828001022339

> <r_mmod_Van_der_Waal_Energy-OPLS-2005>
165.317153930664

> <r_mmod_Electrostatic_Energy-OPLS-2005>
-424.175109863281

> <r_mmod_Solvation_Energy-OPLS-2005>
-422.696807861328

> <b_mmod_Minimization_Converged-OPLS-2005>
0

> <r_mmod_RMS_Derivative-OPLS-2005>
2.258633852005

$$$$
91
                    3D
 Structure written by MMmdl.
151159  0  0  1  0            999 V2000
  -30.6142  -14.7775   20.4477 C   0  0  0  0  0  0
  -30.4241  -12.4764   19.4718 C   0  0  0  0  0  0
  -29.5036  -12.5099   18.2339 C   0  0  0  0  0  0
  -28.0313  -12.3284   18.6499 C   0  0  0  0  0  0
  -27.6324  -13.2385   19.8424 C   0  0  2  0  0  0
  -28.6781  -13.2040   20.9764 C   0  0  0  0  0  0
  -25.2485  -13.8225   20.5732 C   0  0  0  0  0  0
  -24.1772  -13.0442   20.9213 C   0  0  0  0  0  0
  -24.6390  -11.6934   20.8741 C   0  0  0  0  0  0
  -23.9073  -10.4292   21.0390 C   0  0  0  0  0  0
  -24.3622   -9.4216   21.9180 C   0  0  0  0  0  0
  -23.6304   -8.2244   22.0749 C   0  0  0  0  0  0
  -22.4286   -8.0278   21.3540 C   0  0  0  0  0  0
  -21.9917   -9.0247   20.4640 C   0  0  0  0  0  0
  -22.7238  -10.2135   20.3047 C   0  0  0  0  0  0
  -21.6848   -6.0740   22.5287 C   0  0  0  0  0  0
  -21.4006   -6.5645   23.8220 C   0  0  0  0  0  0
  -21.3660   -5.6797   24.9182 C   0  0  0  0  0  0
  -21.6048   -4.3059   24.7225 C   0  0  0  0  0  0
  -21.8815   -3.8154   23.4350 C   0  0  0  0  0  0
  -21.9190   -4.6971   22.3409 C   0  0  0  0  0  0
  -22.7789  -13.5205   21.1902 C   0  0  0  0  0  0
  -22.1660   -4.2161   21.0982 F   0  0  0  0  0  0
  -21.5630   -3.4549   25.7737 F   0  0  0  0  0  0
  -29.9711  -13.5584   20.3799 N   0  0  0  0  0  0
  -26.2891  -12.9441   20.3256 N   0  0  0  0  0  0
  -25.9320  -11.6579   20.5743 N   0  0  0  0  0  0
  -22.0452  -12.8167   22.0452 N   0  0  0  0  0  0
  -25.4169  -15.1950   20.4212 N   0  0  0  0  0  0
  -31.8172  -14.8319   20.1804 O   0  0  0  0  0  0
  -21.6644   -6.8884   21.4246 O   0  0  0  0  0  0
  -22.3469  -14.5513   20.6766 O   0  0  0  0  0  0
  -24.6337  -31.8545   23.1950 C   0  0  0  0  0  0
  -25.9160  -32.4755   23.8308 C   0  0  1  0  0  0
  -27.2179  -27.2459   20.1450 C   0  0  0  0  0  0
  -25.5949  -33.8557   24.2234 N   0  0  0  0  0  0
  -23.4290  -30.4746   21.5407 C   0  0  2  0  0  0
  -24.8782  -28.9197   20.1120 C   0  0  0  0  0  0
  -22.7508  -29.4581   22.4918 C   0  0  0  0  0  0
  -18.0287  -28.1395   22.8479 C   0  0  0  0  0  0
  -24.1483  -36.7253   23.2641 C   0  0  0  0  0  0
  -25.9759  -30.7679   21.3732 C   0  0  0  0  0  0
  -26.0523  -29.3862   20.7206 C   0  0  0  0  0  0
  -27.2283  -28.5648   20.7179 C   0  0  0  0  0  0
  -26.0240  -26.8520   19.5063 C   0  0  0  0  0  0
  -24.8710  -27.6616   19.4913 C   0  0  0  0  0  0
  -23.6474  -29.8062   20.1584 C   0  0  0  0  0  0
  -25.4111  -36.3050   24.0328 C   0  0  1  0  0  0
  -20.5897  -28.3698   23.1281 C   0  0  2  0  0  0
  -20.6775  -26.9411   22.5426 C   0  0  0  0  0  0
  -19.5748  -26.6378   21.5228 C   0  0  0  0  0  0
  -18.1921  -26.7934   22.1619 C   0  0  0  0  0  0
  -19.1540  -28.8858   23.2883 C   0  0  0  0  0  0
  -18.9468  -30.1473   23.8887 C   0  0  0  0  0  0
  -17.6476  -30.6604   24.0566 C   0  0  0  0  0  0
  -25.9049  -34.9438   23.5068 C   0  0  0  0  0  0
  -16.5368  -29.9101   23.6351 C   0  0  0  0  0  0
  -16.7279  -28.6522   23.0352 C   0  0  0  0  0  0
  -26.4504  -31.6588   25.0709 C   0  0  0  0  0  0
  -25.3690  -31.3819   26.1424 C   0  0  0  0  0  0
  -27.0325  -30.2980   24.6220 C   0  0  0  0  0  0
  -27.6079  -32.4307   25.7469 C   0  0  0  0  0  0
  -27.5562  -37.1782   24.8460 C   0  0  0  0  0  0
  -21.4205  -29.3049   22.3667 N   0  0  0  0  0  0
  -26.4265  -37.3758   23.9421 N   0  0  0  0  0  0
  -24.6988  -31.0513   22.0924 N   0  0  0  0  0  0
  -23.4204  -28.8108   23.3011 O   0  0  0  0  0  0
  -28.2938  -26.3248   20.1737 O   0  0  0  0  0  0
  -26.5629  -34.8915   22.4646 O   0  0  0  0  0  0
  -23.5475  -32.1362   23.7233 O   0  0  0  0  0  0
  -29.9890  -20.7042   19.2796 C   0  0  0  0  0  0
  -28.9952  -19.7490   21.0449 C   0  0  0  0  0  0
  -29.1674  -21.0233   20.3274 C   0  0  0  0  0  0
  -29.8053  -18.7694   20.4379 C   0  0  0  0  0  0
  -28.7956  -23.6519   20.0980 C   0  0  0  0  0  0
  -30.4547  -17.3633   20.8344 C   0  0  0  0  0  0
  -28.0156  -24.9301   20.7010 C   0  0  0  0  0  0
  -28.1591  -19.5267   22.2894 C   0  0  0  0  0  0
  -28.6094  -22.3799   20.6471 N   0  0  0  0  0  0
  -29.8832  -15.9532   20.6233 N   0  0  0  0  0  0
  -29.5561  -23.8259   19.1397 O   0  0  0  0  0  0
  -30.3726  -19.3776   19.3388 O   0  0  0  0  0  0
  -27.0302  -20.2331   22.2053 F   0  0  0  0  0  0
  -27.8485  -18.2362   22.4226 F   0  0  0  0  0  0
  -28.8373  -19.9248   23.3659 F   0  0  0  0  0  0
  -31.4659  -12.5955   19.1700 H   0  0  0  0  0  0
  -30.3701  -11.5084   19.9734 H   0  0  0  0  0  0
  -29.7932  -11.7336   17.5261 H   0  0  0  0  0  0
  -29.6208  -13.4615   17.7134 H   0  0  0  0  0  0
  -27.8957  -11.2812   18.9240 H   0  0  0  0  0  0
  -27.3717  -12.5077   17.7993 H   0  0  0  0  0  0
  -27.6158  -14.2539   19.4460 H   0  0  0  0  0  0
  -28.7210  -12.2183   21.4418 H   0  0  0  0  0  0
  -28.4106  -13.9043   21.7697 H   0  0  0  0  0  0
  -25.2774   -9.5688   22.4748 H   0  0  0  0  0  0
  -24.0017   -7.4635   22.7465 H   0  0  0  0  0  0
  -21.0848   -8.8763   19.8935 H   0  0  0  0  0  0
  -22.3708  -10.9664   19.6143 H   0  0  0  0  0  0
  -21.1994   -7.6148   23.9730 H   0  0  0  0  0  0
  -21.1485   -6.0527   25.9088 H   0  0  0  0  0  0
  -22.0589   -2.7620   23.2856 H   0  0  0  0  0  0
  -22.4099  -11.9810   22.4764 H   0  0  0  0  0  0
  -21.1079  -13.1172   22.2706 H   0  0  0  0  0  0
  -24.6507  -15.8472   20.5500 H   0  0  0  0  0  0
  -26.2745  -15.6450   20.1288 H   0  0  0  0  0  0
  -26.7227  -32.5403   23.1048 H   0  0  0  0  0  0
  -25.0146  -33.9714   25.0409 H   0  0  0  0  0  0
  -22.7253  -31.2968   21.3932 H   0  0  0  0  0  0
  -23.3761  -35.9559   23.3277 H   0  0  0  0  0  0
  -24.3561  -36.8891   22.2046 H   0  0  0  0  0  0
  -23.7208  -37.6437   23.6692 H   0  0  0  0  0  0
  -26.1098  -31.5252   20.5985 H   0  0  0  0  0  0
  -26.8564  -30.8237   22.0026 H   0  0  0  0  0  0
  -28.1304  -28.9210   21.1929 H   0  0  0  0  0  0
  -25.9693  -25.8857   19.0263 H   0  0  0  0  0  0
  -23.9747  -27.2976   19.0082 H   0  0  0  0  0  0
  -23.7646  -30.5826   19.4016 H   0  0  0  0  0  0
  -22.7658  -29.2379   19.8548 H   0  0  0  0  0  0
  -25.1284  -36.1878   25.0814 H   0  0  0  0  0  0
  -21.0006  -28.3285   24.1396 H   0  0  0  0  0  0
  -20.5675  -26.2300   23.3629 H   0  0  0  0  0  0
  -21.6638  -26.7430   22.1217 H   0  0  0  0  0  0
  -19.6915  -25.6287   21.1250 H   0  0  0  0  0  0
  -19.6715  -27.3196   20.6764 H   0  0  0  0  0  0
  -17.4211  -26.6729   21.4002 H   0  0  0  0  0  0
  -18.0297  -26.0077   22.8995 H   0  0  0  0  0  0
  -19.7950  -30.7297   24.2238 H   0  0  0  0  0  0
  -17.5026  -31.6276   24.5170 H   0  0  0  0  0  0
  -15.5367  -30.2992   23.7693 H   0  0  0  0  0  0
  -15.8665  -28.0846   22.7079 H   0  0  0  0  0  0
  -24.5925  -30.7083   25.7791 H   0  0  0  0  0  0
  -24.8824  -32.3019   26.4671 H   0  0  0  0  0  0
  -25.7967  -30.9152   27.0303 H   0  0  0  0  0  0
  -26.2913  -29.6737   24.1229 H   0  0  0  0  0  0
  -27.3966  -29.7254   25.4760 H   0  0  0  0  0  0
  -27.8785  -30.4220   23.9463 H   0  0  0  0  0  0
  -27.2808  -33.3760   26.1809 H   0  0  0  0  0  0
  -28.4019  -32.6588   25.0345 H   0  0  0  0  0  0
  -28.0562  -31.8535   26.5566 H   0  0  0  0  0  0
  -28.2582  -38.0081   24.7521 H   0  0  0  0  0  0
  -28.1067  -36.2620   24.6268 H   0  0  0  0  0  0
  -27.2302  -37.1387   25.8871 H   0  0  0  0  0  0
  -20.9391  -29.8771   21.6871 H   0  0  0  0  0  0
  -26.0136  -38.2812   24.1477 H   0  0  0  0  0  0
  -30.4090  -21.2716   18.4594 H   0  0  0  0  0  0
  -30.6745  -17.4132   21.9015 H   0  0  0  0  0  0
  -31.4430  -17.3553   20.3738 H   0  0  0  0  0  0
  -28.2580  -24.9609   21.7629 H   0  0  0  0  0  0
  -26.9514  -24.6989   20.6635 H   0  0  0  0  0  0
  -27.9754  -22.3970   21.4367 H   0  0  0  0  0  0
  -28.8885  -15.8482   20.7453 H   0  0  0  0  0  0
  1 25  1  0  0  0
  1 30  2  0  0  0
  1 80  1  0  0  0
  2  3  1  0  0  0
  2 25  1  0  0  0
  2 86  1  0  0  0
  2 87  1  0  0  0
  3  4  1  0  0  0
  3 88  1  0  0  0
  3 89  1  0  0  0
  4  5  1  0  0  0
  4 90  1  0  0  0
  4 91  1  0  0  0
  5  6  1  0  0  0
  5 26  1  0  0  0
  5 92  1  0  0  0
  6 25  1  0  0  0
  6 93  1  0  0  0
  6 94  1  0  0  0
  7  8  2  0  0  0
  7 26  1  0  0  0
  7 29  1  0  0  0
  8  9  1  0  0  0
  8 22  1  0  0  0
  9 10  1  0  0  0
  9 27  2  0  0  0
 10 11  2  0  0  0
 10 15  1  0  0  0
 11 12  1  0  0  0
 11 95  1  0  0  0
 12 13  2  0  0  0
 12 96  1  0  0  0
 13 14  1  0  0  0
 13 31  1  0  0  0
 14 15  2  0  0  0
 14 97  1  0  0  0
 15 98  1  0  0  0
 16 17  2  0  0  0
 16 21  1  0  0  0
 16 31  1  0  0  0
 17 18  1  0  0  0
 17 99  1  0  0  0
 18 19  2  0  0  0
 18100  1  0  0  0
 19 20  1  0  0  0
 19 24  1  0  0  0
 20 21  2  0  0  0
 20101  1  0  0  0
 21 23  1  0  0  0
 22 28  1  0  0  0
 22 32  2  0  0  0
 26 27  1  0  0  0
 28102  1  0  0  0
 28103  1  0  0  0
 29104  1  0  0  0
 29105  1  0  0  0
 33 34  1  0  0  0
 33 66  1  0  0  0
 33 70  2  0  0  0
 34 36  1  0  0  0
 34 59  1  0  0  0
 34106  1  0  0  0
 35 44  2  0  0  0
 35 45  1  0  0  0
 35 68  1  0  0  0
 36 56  1  0  0  0
 36107  1  0  0  0
 37 39  1  0  0  0
 37 47  1  0  0  0
 37 66  1  0  0  0
 37108  1  0  0  0
 38 43  2  0  0  0
 38 46  1  0  0  0
 38 47  1  0  0  0
 39 64  1  0  0  0
 39 67  2  0  0  0
 40 52  1  0  0  0
 40 53  2  0  0  0
 40 58  1  0  0  0
 41109  1  0  0  0
 41110  1  0  0  0
 41111  1  0  0  0
 41 48  1  0  0  0
 42 43  1  0  0  0
 42 66  1  0  0  0
 42112  1  0  0  0
 42113  1  0  0  0
 43 44  1  0  0  0
 44114  1  0  0  0
 45 46  2  0  0  0
 45115  1  0  0  0
 46116  1  0  0  0
 47117  1  0  0  0
 47118  1  0  0  0
 48 56  1  0  0  0
 48 65  1  0  0  0
 48119  1  0  0  0
 49 50  1  0  0  0
 49 53  1  0  0  0
 49 64  1  0  0  0
 49120  1  0  0  0
 50 51  1  0  0  0
 50121  1  0  0  0
 50122  1  0  0  0
 51 52  1  0  0  0
 51123  1  0  0  0
 51124  1  0  0  0
 52125  1  0  0  0
 52126  1  0  0  0
 53 54  1  0  0  0
 54 55  2  0  0  0
 54127  1  0  0  0
 55 57  1  0  0  0
 55128  1  0  0  0
 56 69  2  0  0  0
 57 58  2  0  0  0
 57129  1  0  0  0
 58130  1  0  0  0
 59 60  1  0  0  0
 59 61  1  0  0  0
 59 62  1  0  0  0
 60131  1  0  0  0
 60132  1  0  0  0
 60133  1  0  0  0
 61134  1  0  0  0
 61135  1  0  0  0
 61136  1  0  0  0
 62137  1  0  0  0
 62138  1  0  0  0
 62139  1  0  0  0
 63 65  1  0  0  0
 63140  1  0  0  0
 63141  1  0  0  0
 63142  1  0  0  0
 64143  1  0  0  0
 65144  1  0  0  0
 68 77  1  0  0  0
 71 73  2  0  0  0
 71 82  1  0  0  0
 71145  1  0  0  0
 72 73  1  0  0  0
 72 74  2  0  0  0
 72 78  1  0  0  0
 73 79  1  0  0  0
 74 76  1  0  0  0
 74 82  1  0  0  0
 75 77  1  0  0  0
 75 79  1  0  0  0
 75 81  2  0  0  0
 76 80  1  0  0  0
 76146  1  0  0  0
 76147  1  0  0  0
 77148  1  0  0  0
 77149  1  0  0  0
 78 83  1  0  0  0
 78 84  1  0  0  0
 78 85  1  0  0  0
 79150  1  0  0  0
 80151  1  0  0  0
M  ISO  4   1 100  68 101  77 101  80 100
M  END
> <chiral flag>
0

> <version>
0

> <s_m_source_file>
/data/baiqing/PycharmProjects/Reinvent-master-3.2/result/LINK_invent/BTK/process_docking_weight1_custom_product_contain_oxygen_bond_distance_aromatic_linkinvent_7_9_3/rearranged_h_0158.sdf

> <i_m_source_file_index>
92

> <r_mmod_Potential_Energy-OPLS-2005>
171.364959716797

> <r_mmod_Stretch_Energy-OPLS-2005>
136.464294433594

> <r_mmod_Bend_Energy-OPLS-2005>
192.436309814453

> <r_mmod_Torsional_Energy-OPLS-2005>
237.269912719727

> <r_mmod_Improper_Torsional_Energy-OPLS-2005>
5.66245603561401

> <r_mmod_Van_der_Waal_Energy-OPLS-2005>
114.764183044434

> <r_mmod_Electrostatic_Energy-OPLS-2005>
-378.943481445312

> <r_mmod_Solvation_Energy-OPLS-2005>
-236.729751586914

> <b_mmod_Minimization_Converged-OPLS-2005>
0

> <r_mmod_RMS_Derivative-OPLS-2005>
3.0344705581665

$$$$
92
                    3D
 Structure written by MMmdl.
149157  0  0  1  0            999 V2000
  -30.5544  -14.8375   20.4534 C   0  0  0  0  0  0
  -30.4497  -12.5161   19.4812 C   0  0  0  0  0  0
  -29.5188  -12.5095   18.2467 C   0  0  0  0  0  0
  -28.0517  -12.3032   18.6696 C   0  0  0  0  0  0
  -27.6393  -13.2260   19.8461 C   0  0  2  0  0  0
  -28.6825  -13.1954   20.9837 C   0  0  0  0  0  0
  -25.2508  -13.8170   20.5687 C   0  0  0  0  0  0
  -24.1798  -13.0434   20.9220 C   0  0  0  0  0  0
  -24.6377  -11.6906   20.8759 C   0  0  0  0  0  0
  -23.9056  -10.4292   21.0423 C   0  0  0  0  0  0
  -24.3606   -9.4206   21.9200 C   0  0  0  0  0  0
  -23.6286   -8.2241   22.0763 C   0  0  0  0  0  0
  -22.4272   -8.0282   21.3549 C   0  0  0  0  0  0
  -21.9903   -9.0254   20.4652 C   0  0  0  0  0  0
  -22.7229  -10.2135   20.3070 C   0  0  0  0  0  0
  -21.6851   -6.0728   22.5278 C   0  0  0  0  0  0
  -21.4015   -6.5639   23.8206 C   0  0  0  0  0  0
  -21.3658   -5.6796   24.9172 C   0  0  0  0  0  0
  -21.6036   -4.3056   24.7231 C   0  0  0  0  0  0
  -21.8819   -3.8144   23.4354 C   0  0  0  0  0  0
  -21.9194   -4.6956   22.3407 C   0  0  0  0  0  0
  -22.7818  -13.5230   21.1877 C   0  0  0  0  0  0
  -22.1661   -4.2145   21.0983 F   0  0  0  0  0  0
  -21.5628   -3.4539   25.7741 F   0  0  0  0  0  0
  -29.9733  -13.5821   20.3974 N   0  0  0  0  0  0
  -26.2918  -12.9361   20.3245 N   0  0  0  0  0  0
  -25.9303  -11.6514   20.5742 N   0  0  0  0  0  0
  -22.0454  -12.8230   22.0424 N   0  0  0  0  0  0
  -25.4210  -15.1895   20.4077 N   0  0  0  0  0  0
  -31.7555  -14.9503   20.1810 O   0  0  0  0  0  0
  -21.6640   -6.8876   21.4241 O   0  0  0  0  0  0
  -22.3514  -14.5544   20.6721 O   0  0  0  0  0  0
  -24.6346  -31.8510   23.1919 C   0  0  0  0  0  0
  -25.9145  -32.4734   23.8286 C   0  0  1  0  0  0
  -27.2241  -27.2102   20.1527 C   0  0  0  0  0  0
  -25.5926  -33.8536   24.2213 N   0  0  0  0  0  0
  -23.4344  -30.4685   21.5368 C   0  0  2  0  0  0
  -24.8850  -28.8982   20.1176 C   0  0  0  0  0  0
  -22.7521  -29.4573   22.4898 C   0  0  0  0  0  0
  -18.0304  -28.1378   22.8478 C   0  0  0  0  0  0
  -24.1493  -36.7269   23.2640 C   0  0  0  0  0  0
  -25.9822  -30.7461   21.3801 C   0  0  0  0  0  0
  -26.0562  -29.3581   20.7350 C   0  0  0  0  0  0
  -27.2276  -28.5255   20.7437 C   0  0  0  0  0  0
  -26.0323  -26.8256   19.5057 C   0  0  0  0  0  0
  -24.8791  -27.6396   19.4934 C   0  0  0  0  0  0
  -23.6575  -29.7929   20.1572 C   0  0  0  0  0  0
  -25.4121  -36.3051   24.0321 C   0  0  1  0  0  0
  -20.5907  -28.3693   23.1260 C   0  0  2  0  0  0
  -20.6794  -26.9408   22.5406 C   0  0  0  0  0  0
  -19.5773  -26.6375   21.5207 C   0  0  0  0  0  0
  -18.1946  -26.7921   22.1613 C   0  0  0  0  0  0
  -19.1557  -28.8854   23.2857 C   0  0  0  0  0  0
  -18.9482  -30.1452   23.8876 C   0  0  0  0  0  0
  -17.6483  -30.6583   24.0555 C   0  0  0  0  0  0
  -25.9065  -34.9427   23.5074 C   0  0  0  0  0  0
  -16.5370  -29.9079   23.6329 C   0  0  0  0  0  0
  -16.7291  -28.6494   23.0350 C   0  0  0  0  0  0
  -26.4505  -31.6569   25.0691 C   0  0  0  0  0  0
  -25.3711  -31.3745   26.1405 C   0  0  0  0  0  0
  -27.0368  -30.2984   24.6194 C   0  0  0  0  0  0
  -27.6053  -32.4319   25.7470 C   0  0  0  0  0  0
  -27.5576  -37.1788   24.8466 C   0  0  0  0  0  0
  -21.4224  -29.3030   22.3641 N   0  0  0  0  0  0
  -26.4291  -37.3753   23.9410 N   0  0  0  0  0  0
  -24.7027  -31.0426   22.0923 N   0  0  0  0  0  0
  -23.4194  -28.8138   23.3036 O   0  0  0  0  0  0
  -28.3166  -26.2999   20.1157 O   0  0  0  0  0  0
  -26.5646  -34.8914   22.4648 O   0  0  0  0  0  0
  -23.5486  -32.1367   23.7184 O   0  0  0  0  0  0
  -28.9090  -18.3416   20.2852 C   0  0  0  0  0  0
  -29.5274  -19.6528   20.5012 C   0  0  0  0  0  0
  -29.8628  -17.3495   20.5721 C   0  0  0  0  0  0
  -29.2519  -22.3010   20.6642 C   0  0  0  0  0  0
  -28.6258  -25.0509   22.1252 C   0  0  0  0  0  0
  -28.6889  -23.6901   19.9880 C   0  0  0  0  0  0
  -30.7797  -19.4208   20.9119 N   0  0  0  0  0  0
  -28.9238  -21.0084   20.2313 N   0  0  0  0  0  0
  -29.6977  -15.9410   20.5692 N   0  0  0  0  0  0
  -28.0835  -24.9127   20.7801 N   0  0  0  0  0  0
  -30.0477  -22.4308   21.5983 O   0  0  0  0  0  0
  -30.9975  -18.0126   20.9521 O   0  0  0  0  0  0
  -31.4810  -12.6779   19.1634 H   0  0  0  0  0  0
  -30.4392  -11.5482   19.9845 H   0  0  0  0  0  0
  -29.8228  -11.7270   17.5511 H   0  0  0  0  0  0
  -29.6127  -13.4533   17.7071 H   0  0  0  0  0  0
  -27.9439  -11.2603   18.9709 H   0  0  0  0  0  0
  -27.3839  -12.4463   17.8204 H   0  0  0  0  0  0
  -27.6212  -14.2366   19.4380 H   0  0  0  0  0  0
  -28.7410  -12.2034   21.4347 H   0  0  0  0  0  0
  -28.3954  -13.8788   21.7840 H   0  0  0  0  0  0
  -25.2751   -9.5685   22.4770 H   0  0  0  0  0  0
  -23.9991   -7.4635   22.7484 H   0  0  0  0  0  0
  -21.0832   -8.8771   19.8959 H   0  0  0  0  0  0
  -22.3686  -10.9672   19.6176 H   0  0  0  0  0  0
  -21.2009   -7.6147   23.9713 H   0  0  0  0  0  0
  -21.1475   -6.0524   25.9073 H   0  0  0  0  0  0
  -22.0600   -2.7607   23.2857 H   0  0  0  0  0  0
  -22.4057  -11.9877   22.4799 H   0  0  0  0  0  0
  -21.1076  -13.1257   22.2645 H   0  0  0  0  0  0
  -24.6509  -15.8395   20.5226 H   0  0  0  0  0  0
  -26.2471  -15.6244   20.0195 H   0  0  0  0  0  0
  -26.7207  -32.5378   23.1020 H   0  0  0  0  0  0
  -25.0066  -33.9657   25.0354 H   0  0  0  0  0  0
  -22.7322  -31.2908   21.3840 H   0  0  0  0  0  0
  -23.3755  -35.9600   23.3301 H   0  0  0  0  0  0
  -24.3582  -36.8897   22.2054 H   0  0  0  0  0  0
  -23.7252  -37.6470   23.6675 H   0  0  0  0  0  0
  -26.1212  -31.4962   20.6007 H   0  0  0  0  0  0
  -26.8595  -30.8059   22.0120 H   0  0  0  0  0  0
  -28.1285  -28.8747   21.2277 H   0  0  0  0  0  0
  -25.9892  -25.8591   19.0242 H   0  0  0  0  0  0
  -23.9844  -27.2804   19.0039 H   0  0  0  0  0  0
  -23.7852  -30.5645   19.3968 H   0  0  0  0  0  0
  -22.7748  -29.2263   19.8551 H   0  0  0  0  0  0
  -25.1306  -36.1887   25.0814 H   0  0  0  0  0  0
  -20.9994  -28.3276   24.1382 H   0  0  0  0  0  0
  -20.5698  -26.2300   23.3610 H   0  0  0  0  0  0
  -21.6662  -26.7434   22.1195 H   0  0  0  0  0  0
  -19.6941  -25.6285   21.1240 H   0  0  0  0  0  0
  -19.6715  -27.3179   20.6732 H   0  0  0  0  0  0
  -17.4217  -26.6659   21.4012 H   0  0  0  0  0  0
  -18.0350  -26.0058   22.9009 H   0  0  0  0  0  0
  -19.7961  -30.7266   24.2230 H   0  0  0  0  0  0
  -17.5044  -31.6265   24.5156 H   0  0  0  0  0  0
  -15.5371  -30.2980   23.7669 H   0  0  0  0  0  0
  -15.8685  -28.0817   22.7077 H   0  0  0  0  0  0
  -24.5887  -30.7094   25.7733 H   0  0  0  0  0  0
  -24.8904  -32.2929   26.4783 H   0  0  0  0  0  0
  -25.8007  -30.8953   27.0210 H   0  0  0  0  0  0
  -26.2965  -29.6711   24.1217 H   0  0  0  0  0  0
  -27.4059  -29.7267   25.4715 H   0  0  0  0  0  0
  -27.8829  -30.4266   23.9442 H   0  0  0  0  0  0
  -27.2655  -33.3633   26.2012 H   0  0  0  0  0  0
  -28.3877  -32.6854   25.0306 H   0  0  0  0  0  0
  -28.0698  -31.8464   26.5412 H   0  0  0  0  0  0
  -28.2592  -38.0086   24.7505 H   0  0  0  0  0  0
  -28.1075  -36.2613   24.6303 H   0  0  0  0  0  0
  -27.2291  -37.1447   25.8869 H   0  0  0  0  0  0
  -20.9416  -29.8714   21.6811 H   0  0  0  0  0  0
  -26.0161  -38.2825   24.1416 H   0  0  0  0  0  0
  -27.8965  -18.1633   19.9544 H   0  0  0  0  0  0
  -28.4116  -24.1686   22.7289 H   0  0  0  0  0  0
  -28.1769  -25.9023   22.6378 H   0  0  0  0  0  0
  -29.7058  -25.2015   22.0993 H   0  0  0  0  0  0
  -29.5506  -24.0750   19.4414 H   0  0  0  0  0  0
  -27.9790  -23.4149   19.2084 H   0  0  0  0  0  0
  -28.1603  -20.9881   19.5717 H   0  0  0  0  0  0
  -28.7370  -15.6544   20.6424 H   0  0  0  0  0  0
  1 25  1  0  0  0
  1 30  2  0  0  0
  1 79  1  0  0  0
  2  3  1  0  0  0
  2 25  1  0  0  0
  2 83  1  0  0  0
  2 84  1  0  0  0
  3  4  1  0  0  0
  3 85  1  0  0  0
  3 86  1  0  0  0
  4  5  1  0  0  0
  4 87  1  0  0  0
  4 88  1  0  0  0
  5  6  1  0  0  0
  5 26  1  0  0  0
  5 89  1  0  0  0
  6 25  1  0  0  0
  6 90  1  0  0  0
  6 91  1  0  0  0
  7  8  2  0  0  0
  7 26  1  0  0  0
  7 29  1  0  0  0
  8  9  1  0  0  0
  8 22  1  0  0  0
  9 10  1  0  0  0
  9 27  2  0  0  0
 10 11  2  0  0  0
 10 15  1  0  0  0
 11 12  1  0  0  0
 11 92  1  0  0  0
 12 13  2  0  0  0
 12 93  1  0  0  0
 13 14  1  0  0  0
 13 31  1  0  0  0
 14 15  2  0  0  0
 14 94  1  0  0  0
 15 95  1  0  0  0
 16 17  2  0  0  0
 16 21  1  0  0  0
 16 31  1  0  0  0
 17 18  1  0  0  0
 17 96  1  0  0  0
 18 19  2  0  0  0
 18 97  1  0  0  0
 19 20  1  0  0  0
 19 24  1  0  0  0
 20 21  2  0  0  0
 20 98  1  0  0  0
 21 23  1  0  0  0
 22 28  1  0  0  0
 22 32  2  0  0  0
 26 27  1  0  0  0
 28 99  1  0  0  0
 28100  1  0  0  0
 29101  1  0  0  0
 29102  1  0  0  0
 33 34  1  0  0  0
 33 66  1  0  0  0
 33 70  2  0  0  0
 34 36  1  0  0  0
 34 59  1  0  0  0
 34103  1  0  0  0
 35 44  2  0  0  0
 35 45  1  0  0  0
 35 68  1  0  0  0
 36 56  1  0  0  0
 36104  1  0  0  0
 37 39  1  0  0  0
 37 47  1  0  0  0
 37 66  1  0  0  0
 37105  1  0  0  0
 38 43  2  0  0  0
 38 46  1  0  0  0
 38 47  1  0  0  0
 39 64  1  0  0  0
 39 67  2  0  0  0
 40 52  1  0  0  0
 40 53  2  0  0  0
 40 58  1  0  0  0
 41106  1  0  0  0
 41107  1  0  0  0
 41108  1  0  0  0
 41 48  1  0  0  0
 42 43  1  0  0  0
 42 66  1  0  0  0
 42109  1  0  0  0
 42110  1  0  0  0
 43 44  1  0  0  0
 44111  1  0  0  0
 45 46  2  0  0  0
 45112  1  0  0  0
 46113  1  0  0  0
 47114  1  0  0  0
 47115  1  0  0  0
 48 56  1  0  0  0
 48 65  1  0  0  0
 48116  1  0  0  0
 49 50  1  0  0  0
 49 53  1  0  0  0
 49 64  1  0  0  0
 49117  1  0  0  0
 50 51  1  0  0  0
 50118  1  0  0  0
 50119  1  0  0  0
 51 52  1  0  0  0
 51120  1  0  0  0
 51121  1  0  0  0
 52122  1  0  0  0
 52123  1  0  0  0
 53 54  1  0  0  0
 54 55  2  0  0  0
 54124  1  0  0  0
 55 57  1  0  0  0
 55125  1  0  0  0
 56 69  2  0  0  0
 57 58  2  0  0  0
 57126  1  0  0  0
 58127  1  0  0  0
 59 60  1  0  0  0
 59 61  1  0  0  0
 59 62  1  0  0  0
 60128  1  0  0  0
 60129  1  0  0  0
 60130  1  0  0  0
 61131  1  0  0  0
 61132  1  0  0  0
 61133  1  0  0  0
 62134  1  0  0  0
 62135  1  0  0  0
 62136  1  0  0  0
 63 65  1  0  0  0
 63137  1  0  0  0
 63138  1  0  0  0
 63139  1  0  0  0
 64140  1  0  0  0
 65141  1  0  0  0
 68 80  1  0  0  0
 71 72  1  0  0  0
 71 73  2  0  0  0
 71142  1  0  0  0
 72 77  2  0  0  0
 72 78  1  0  0  0
 73 79  1  0  0  0
 73 82  1  0  0  0
 74 76  1  0  0  0
 74 78  1  0  0  0
 74 81  2  0  0  0
 75 80  1  0  0  0
 75143  1  0  0  0
 75144  1  0  0  0
 75145  1  0  0  0
 76 80  1  0  0  0
 76146  1  0  0  0
 76147  1  0  0  0
 77 82  1  0  0  0
 78148  1  0  0  0
 79149  1  0  0  0
M  ISO  4   1 100  68 101  79 100  80 101
M  END
> <chiral flag>
0

> <version>
0

> <s_m_source_file>
/data/baiqing/PycharmProjects/Reinvent-master-3.2/result/LINK_invent/BTK/process_docking_weight1_custom_product_contain_oxygen_bond_distance_aromatic_linkinvent_7_9_3/rearranged_h_0158.sdf

> <i_m_source_file_index>
93

> <r_mmod_Potential_Energy-OPLS-2005>
115.473983764648

> <r_mmod_Stretch_Energy-OPLS-2005>
159.858291625977

> <r_mmod_Bend_Energy-OPLS-2005>
208.818313598633

> <r_mmod_Torsional_Energy-OPLS-2005>
209.338287353516

> <r_mmod_Improper_Torsional_Energy-OPLS-2005>
6.393874168396

> <r_mmod_Van_der_Waal_Energy-OPLS-2005>
109.930526733398

> <r_mmod_Electrostatic_Energy-OPLS-2005>
-424.335021972656

> <r_mmod_Solvation_Energy-OPLS-2005>
-277.986419677734

> <b_mmod_Minimization_Converged-OPLS-2005>
0

> <r_mmod_RMS_Derivative-OPLS-2005>
1.52534699440002

$$$$
93
                    3D
 Structure written by MMmdl.
150158  0  0  1  0            999 V2000
  -30.5037  -15.0234   20.3958 C   0  0  0  0  0  0
  -30.4446  -12.6368   19.4954 C   0  0  0  0  0  0
  -29.5198  -12.5190   18.2595 C   0  0  0  0  0  0
  -28.0601  -12.2814   18.6916 C   0  0  0  0  0  0
  -27.6218  -13.2433   19.8268 C   0  0  2  0  0  0
  -28.6659  -13.3102   20.9620 C   0  0  0  0  0  0
  -25.2442  -13.8199   20.5704 C   0  0  0  0  0  0
  -24.1772  -13.0439   20.9231 C   0  0  0  0  0  0
  -24.6367  -11.6915   20.8784 C   0  0  0  0  0  0
  -23.9064  -10.4289   21.0420 C   0  0  0  0  0  0
  -24.3614   -9.4201   21.9187 C   0  0  0  0  0  0
  -23.6292   -8.2234   22.0748 C   0  0  0  0  0  0
  -22.4280   -8.0270   21.3530 C   0  0  0  0  0  0
  -21.9911   -9.0249   20.4640 C   0  0  0  0  0  0
  -22.7238  -10.2126   20.3060 C   0  0  0  0  0  0
  -21.6856   -6.0736   22.5276 C   0  0  0  0  0  0
  -21.4008   -6.5640   23.8209 C   0  0  0  0  0  0
  -21.3658   -5.6792   24.9175 C   0  0  0  0  0  0
  -21.6049   -4.3057   24.7226 C   0  0  0  0  0  0
  -21.8817   -3.8146   23.4350 C   0  0  0  0  0  0
  -21.9188   -4.6962   22.3407 C   0  0  0  0  0  0
  -22.7788  -13.5203   21.1903 C   0  0  0  0  0  0
  -22.1660   -4.2155   21.0984 F   0  0  0  0  0  0
  -21.5631   -3.4535   25.7736 F   0  0  0  0  0  0
  -29.9279  -13.7465   20.3493 N   0  0  0  0  0  0
  -26.2861  -12.9416   20.3226 N   0  0  0  0  0  0
  -25.9291  -11.6550   20.5731 N   0  0  0  0  0  0
  -22.0442  -12.8185   22.0448 N   0  0  0  0  0  0
  -25.4124  -15.1924   20.4087 N   0  0  0  0  0  0
  -31.7237  -15.0776   20.2001 O   0  0  0  0  0  0
  -21.6634   -6.8877   21.4241 O   0  0  0  0  0  0
  -22.3473  -14.5514   20.6746 O   0  0  0  0  0  0
  -24.6507  -31.8432   23.1855 C   0  0  0  0  0  0
  -25.9264  -32.4694   23.8242 C   0  0  1  0  0  0
  -27.2003  -27.0815   20.1336 C   0  0  0  0  0  0
  -25.5988  -33.8494   24.2180 N   0  0  0  0  0  0
  -23.4539  -30.4646   21.5347 C   0  0  2  0  0  0
  -24.8949  -28.8887   20.1106 C   0  0  0  0  0  0
  -22.7584  -29.4561   22.4852 C   0  0  0  0  0  0
  -18.0323  -28.1411   22.8469 C   0  0  0  0  0  0
  -24.1509  -36.7232   23.2646 C   0  0  0  0  0  0
  -26.0171  -30.7014   21.3882 C   0  0  0  0  0  0
  -26.0835  -29.3110   20.7198 C   0  0  0  0  0  0
  -27.2389  -28.4279   20.7056 C   0  0  0  0  0  0
  -25.9666  -26.7691   19.5160 C   0  0  0  0  0  0
  -24.8520  -27.6336   19.4916 C   0  0  0  0  0  0
  -23.6797  -29.8000   20.1539 C   0  0  0  0  0  0
  -25.4142  -36.3024   24.0326 C   0  0  1  0  0  0
  -20.5945  -28.3731   23.1224 C   0  0  2  0  0  0
  -20.6806  -26.9439   22.5374 C   0  0  0  0  0  0
  -19.5772  -26.6414   21.5193 C   0  0  0  0  0  0
  -18.1962  -26.7959   22.1618 C   0  0  0  0  0  0
  -19.1578  -28.8890   23.2856 C   0  0  0  0  0  0
  -18.9494  -30.1493   23.8878 C   0  0  0  0  0  0
  -17.6485  -30.6598   24.0586 C   0  0  0  0  0  0
  -25.9096  -34.9405   23.5069 C   0  0  0  0  0  0
  -16.5383  -29.9091   23.6351 C   0  0  0  0  0  0
  -16.7312  -28.6514   23.0358 C   0  0  0  0  0  0
  -26.4549  -31.6563   25.0704 C   0  0  0  0  0  0
  -25.3717  -31.3748   26.1392 C   0  0  0  0  0  0
  -27.0405  -30.2953   24.6305 C   0  0  0  0  0  0
  -27.6123  -32.4286   25.7446 C   0  0  0  0  0  0
  -27.5586  -37.1767   24.8472 C   0  0  0  0  0  0
  -21.4268  -29.3072   22.3589 N   0  0  0  0  0  0
  -26.4302  -37.3731   23.9423 N   0  0  0  0  0  0
  -24.7283  -31.0237   22.0922 N   0  0  0  0  0  0
  -23.4228  -28.8110   23.3013 O   0  0  0  0  0  0
  -28.2449  -26.0647   20.1930 O   0  0  0  0  0  0
  -26.5648  -34.8911   22.4637 O   0  0  0  0  0  0
  -23.5608  -32.1336   23.7048 O   0  0  0  0  0  0
  -29.4088  -20.2130   20.3949 C   0  0  0  0  0  0
  -30.7288  -20.1568   20.8370 C   0  0  0  0  0  0
  -29.9052  -17.7305   20.4601 C   0  0  0  0  0  0
  -28.5489  -21.5482   20.1302 C   0  0  0  0  0  0
  -27.9970  -24.4492   18.3188 C   0  0  0  0  0  0
  -28.9563  -23.1647   20.3710 C   0  0  0  0  0  0
  -28.0366  -24.5248   19.8610 C   0  0  1  0  0  0
  -28.9942  -18.7825   20.2241 N   0  0  0  0  0  0
  -31.5800  -21.1945   21.2168 N   0  0  0  0  0  0
  -29.6776  -16.1993   20.4135 N   0  0  0  0  0  0
  -27.3988  -21.4085   19.6965 O   0  0  0  0  0  0
  -31.4129  -18.5057   20.9420 S   0  0  0  0  0  0
  -31.4716  -12.8193   19.1738 H   0  0  0  0  0  0
  -30.4675  -11.7002   20.0535 H   0  0  0  0  0  0
  -29.8522  -11.7098   17.6066 H   0  0  0  0  0  0
  -29.5804  -13.4339   17.6694 H   0  0  0  0  0  0
  -27.9836  -11.2506   19.0404 H   0  0  0  0  0  0
  -27.3868  -12.3580   17.8369 H   0  0  0  0  0  0
  -27.5692  -14.2305   19.3649 H   0  0  0  0  0  0
  -28.7763  -12.3421   21.4538 H   0  0  0  0  0  0
  -28.3510  -14.0131   21.7361 H   0  0  0  0  0  0
  -25.2746   -9.5685   22.4766 H   0  0  0  0  0  0
  -24.0007   -7.4620   22.7453 H   0  0  0  0  0  0
  -21.0847   -8.8761   19.8935 H   0  0  0  0  0  0
  -22.3690  -10.9665   19.6178 H   0  0  0  0  0  0
  -21.1996   -7.6146   23.9720 H   0  0  0  0  0  0
  -21.1486   -6.0518   25.9078 H   0  0  0  0  0  0
  -22.0597   -2.7613   23.2844 H   0  0  0  0  0  0
  -22.4048  -11.9848   22.4845 H   0  0  0  0  0  0
  -21.1053  -13.1197   22.2646 H   0  0  0  0  0  0
  -24.6402  -15.8407   20.5148 H   0  0  0  0  0  0
  -26.2372  -15.6282   20.0173 H   0  0  0  0  0  0
  -26.7346  -32.5263   23.0963 H   0  0  0  0  0  0
  -25.0144  -33.9609   25.0330 H   0  0  0  0  0  0
  -22.7632  -31.2973   21.3828 H   0  0  0  0  0  0
  -23.3785  -35.9542   23.3268 H   0  0  0  0  0  0
  -24.3589  -36.8892   22.2064 H   0  0  0  0  0  0
  -23.7231  -37.6422   23.6674 H   0  0  0  0  0  0
  -26.1842  -31.4608   20.6240 H   0  0  0  0  0  0
  -26.8844  -30.7423   22.0355 H   0  0  0  0  0  0
  -28.1469  -28.7498   21.1964 H   0  0  0  0  0  0
  -25.7919  -25.7990   19.0761 H   0  0  0  0  0  0
  -23.9383  -27.3001   19.0144 H   0  0  0  0  0  0
  -23.8222  -30.5821   19.4037 H   0  0  0  0  0  0
  -22.7889  -29.2574   19.8336 H   0  0  0  0  0  0
  -25.1312  -36.1854   25.0804 H   0  0  0  0  0  0
  -21.0066  -28.3332   24.1351 H   0  0  0  0  0  0
  -20.5713  -26.2354   23.3594 H   0  0  0  0  0  0
  -21.6661  -26.7464   22.1167 H   0  0  0  0  0  0
  -19.6933  -25.6331   21.1219 H   0  0  0  0  0  0
  -19.6707  -27.3231   20.6727 H   0  0  0  0  0  0
  -17.4228  -26.6737   21.4026 H   0  0  0  0  0  0
  -18.0367  -26.0101   22.9011 H   0  0  0  0  0  0
  -19.7956  -30.7317   24.2252 H   0  0  0  0  0  0
  -17.5032  -31.6276   24.5184 H   0  0  0  0  0  0
  -15.5374  -30.2987   23.7680 H   0  0  0  0  0  0
  -15.8718  -28.0831   22.7076 H   0  0  0  0  0  0
  -24.5945  -30.7044   25.7685 H   0  0  0  0  0  0
  -24.8840  -32.2927   26.4698 H   0  0  0  0  0  0
  -25.8006  -30.9001   27.0232 H   0  0  0  0  0  0
  -26.3012  -29.6662   24.1339 H   0  0  0  0  0  0
  -27.4045  -29.7266   25.4868 H   0  0  0  0  0  0
  -27.8911  -30.4166   23.9592 H   0  0  0  0  0  0
  -27.2809  -33.3653   26.1913 H   0  0  0  0  0  0
  -28.3967  -32.6725   25.0268 H   0  0  0  0  0  0
  -28.0746  -31.8463   26.5430 H   0  0  0  0  0  0
  -28.2590  -38.0070   24.7545 H   0  0  0  0  0  0
  -28.1105  -36.2619   24.6271 H   0  0  0  0  0  0
  -27.2315  -37.1369   25.8874 H   0  0  0  0  0  0
  -20.9500  -29.8794   21.6752 H   0  0  0  0  0  0
  -26.0180  -38.2802   24.1426 H   0  0  0  0  0  0
  -27.6029  -23.4908   17.9864 H   0  0  0  0  0  0
  -28.9924  -24.5585   17.8908 H   0  0  0  0  0  0
  -27.3690  -25.2055   17.8511 H   0  0  0  0  0  0
  -29.0846  -23.2640   21.4498 H   0  0  0  0  0  0
  -29.9583  -23.2788   19.9534 H   0  0  0  0  0  0
  -27.0329  -24.2988   20.2226 H   0  0  0  0  0  0
  -31.2215  -22.0522   21.6253 H   0  0  0  0  0  0
  -32.4899  -20.9637   21.6053 H   0  0  0  0  0  0
  -28.7011  -15.9607   20.4127 H   0  0  0  0  0  0
  1 25  1  0  0  0
  1 30  2  0  0  0
  1 80  1  0  0  0
  2  3  1  0  0  0
  2 25  1  0  0  0
  2 83  1  0  0  0
  2 84  1  0  0  0
  3  4  1  0  0  0
  3 85  1  0  0  0
  3 86  1  0  0  0
  4  5  1  0  0  0
  4 87  1  0  0  0
  4 88  1  0  0  0
  5  6  1  0  0  0
  5 26  1  0  0  0
  5 89  1  0  0  0
  6 25  1  0  0  0
  6 90  1  0  0  0
  6 91  1  0  0  0
  7  8  2  0  0  0
  7 26  1  0  0  0
  7 29  1  0  0  0
  8  9  1  0  0  0
  8 22  1  0  0  0
  9 10  1  0  0  0
  9 27  2  0  0  0
 10 11  2  0  0  0
 10 15  1  0  0  0
 11 12  1  0  0  0
 11 92  1  0  0  0
 12 13  2  0  0  0
 12 93  1  0  0  0
 13 14  1  0  0  0
 13 31  1  0  0  0
 14 15  2  0  0  0
 14 94  1  0  0  0
 15 95  1  0  0  0
 16 17  2  0  0  0
 16 21  1  0  0  0
 16 31  1  0  0  0
 17 18  1  0  0  0
 17 96  1  0  0  0
 18 19  2  0  0  0
 18 97  1  0  0  0
 19 20  1  0  0  0
 19 24  1  0  0  0
 20 21  2  0  0  0
 20 98  1  0  0  0
 21 23  1  0  0  0
 22 28  1  0  0  0
 22 32  2  0  0  0
 26 27  1  0  0  0
 28 99  1  0  0  0
 28100  1  0  0  0
 29101  1  0  0  0
 29102  1  0  0  0
 33 34  1  0  0  0
 33 66  1  0  0  0
 33 70  2  0  0  0
 34 36  1  0  0  0
 34 59  1  0  0  0
 34103  1  0  0  0
 35 44  2  0  0  0
 35 45  1  0  0  0
 35 68  1  0  0  0
 36 56  1  0  0  0
 36104  1  0  0  0
 37 39  1  0  0  0
 37 47  1  0  0  0
 37 66  1  0  0  0
 37105  1  0  0  0
 38 43  2  0  0  0
 38 46  1  0  0  0
 38 47  1  0  0  0
 39 64  1  0  0  0
 39 67  2  0  0  0
 40 52  1  0  0  0
 40 53  2  0  0  0
 40 58  1  0  0  0
 41106  1  0  0  0
 41107  1  0  0  0
 41108  1  0  0  0
 41 48  1  0  0  0
 42 43  1  0  0  0
 42 66  1  0  0  0
 42109  1  0  0  0
 42110  1  0  0  0
 43 44  1  0  0  0
 44111  1  0  0  0
 45 46  2  0  0  0
 45112  1  0  0  0
 46113  1  0  0  0
 47114  1  0  0  0
 47115  1  0  0  0
 48 56  1  0  0  0
 48 65  1  0  0  0
 48116  1  0  0  0
 49 50  1  0  0  0
 49 53  1  0  0  0
 49 64  1  0  0  0
 49117  1  0  0  0
 50 51  1  0  0  0
 50118  1  0  0  0
 50119  1  0  0  0
 51 52  1  0  0  0
 51120  1  0  0  0
 51121  1  0  0  0
 52122  1  0  0  0
 52123  1  0  0  0
 53 54  1  0  0  0
 54 55  2  0  0  0
 54124  1  0  0  0
 55 57  1  0  0  0
 55125  1  0  0  0
 56 69  2  0  0  0
 57 58  2  0  0  0
 57126  1  0  0  0
 58127  1  0  0  0
 59 60  1  0  0  0
 59 61  1  0  0  0
 59 62  1  0  0  0
 60128  1  0  0  0
 60129  1  0  0  0
 60130  1  0  0  0
 61131  1  0  0  0
 61132  1  0  0  0
 61133  1  0  0  0
 62134  1  0  0  0
 62135  1  0  0  0
 62136  1  0  0  0
 63 65  1  0  0  0
 63137  1  0  0  0
 63138  1  0  0  0
 63139  1  0  0  0
 64140  1  0  0  0
 65141  1  0  0  0
 68 77  1  0  0  0
 71 72  2  0  0  0
 71 74  1  0  0  0
 71 78  1  0  0  0
 72 79  1  0  0  0
 72 82  1  0  0  0
 73 78  2  0  0  0
 73 80  1  0  0  0
 73 82  1  0  0  0
 74 76  1  0  0  0
 74 81  2  0  0  0
 75142  1  0  0  0
 75143  1  0  0  0
 75144  1  0  0  0
 75 77  1  0  0  0
 76 77  1  0  0  0
 76145  1  0  0  0
 76146  1  0  0  0
 77147  1  0  0  0
 79148  1  0  0  0
 79149  1  0  0  0
 80150  1  0  0  0
M  ISO  4   1 100  68 101  77 101  80 100
M  END
> <chiral flag>
0

> <version>
0

> <s_m_source_file>
/data/baiqing/PycharmProjects/Reinvent-master-3.2/result/LINK_invent/BTK/process_docking_weight1_custom_product_contain_oxygen_bond_distance_aromatic_linkinvent_7_9_3/rearranged_h_0158.sdf

> <i_m_source_file_index>
94

> <r_mmod_Potential_Energy-OPLS-2005>
678.831726074219

> <r_mmod_Stretch_Energy-OPLS-2005>
319.622924804688

> <r_mmod_Bend_Energy-OPLS-2005>
279.385406494141

> <r_mmod_Torsional_Energy-OPLS-2005>
216.56510925293

> <r_mmod_Improper_Torsional_Energy-OPLS-2005>
8.70201206207275

> <r_mmod_Van_der_Waal_Energy-OPLS-2005>
111.927436828613

> <r_mmod_Electrostatic_Energy-OPLS-2005>
-270.080688476562

> <r_mmod_Solvation_Energy-OPLS-2005>
-235.061767578125

> <b_mmod_Minimization_Converged-OPLS-2005>
0

> <r_mmod_RMS_Derivative-OPLS-2005>
4.63263177871704

$$$$
94
                    3D
 Structure written by MMmdl.
157166  0  0  1  0            999 V2000
  -30.8005  -14.5146   20.4891 C   0  0  0  0  0  0
  -30.3908  -12.3261   19.4375 C   0  0  0  0  0  0
  -29.4734  -12.4674   18.2091 C   0  0  0  0  0  0
  -28.0081  -12.3136   18.6451 C   0  0  0  0  0  0
  -27.6471  -13.2177   19.8503 C   0  0  2  0  0  0
  -28.7028  -13.1233   20.9776 C   0  0  0  0  0  0
  -25.2561  -13.8229   20.5701 C   0  0  0  0  0  0
  -24.1835  -13.0473   20.9219 C   0  0  0  0  0  0
  -24.6403  -11.6952   20.8759 C   0  0  0  0  0  0
  -23.9079  -10.4322   21.0415 C   0  0  0  0  0  0
  -24.3641   -9.4219   21.9183 C   0  0  0  0  0  0
  -23.6306   -8.2256   22.0754 C   0  0  0  0  0  0
  -22.4286   -8.0311   21.3545 C   0  0  0  0  0  0
  -21.9919   -9.0285   20.4647 C   0  0  0  0  0  0
  -22.7254  -10.2156   20.3049 C   0  0  0  0  0  0
  -21.6871   -6.0756   22.5277 C   0  0  0  0  0  0
  -21.4028   -6.5652   23.8215 C   0  0  0  0  0  0
  -21.3632   -5.6784   24.9167 C   0  0  0  0  0  0
  -21.6037   -4.3048   24.7202 C   0  0  0  0  0  0
  -21.8832   -3.8157   23.4320 C   0  0  0  0  0  0
  -21.9207   -4.6985   22.3390 C   0  0  0  0  0  0
  -22.7842  -13.5241   21.1847 C   0  0  0  0  0  0
  -22.1679   -4.2188   21.0959 F   0  0  0  0  0  0
  -21.5599   -3.4521   25.7700 F   0  0  0  0  0  0
  -30.0237  -13.3924   20.3916 N   0  0  0  0  0  0
  -26.2980  -12.9402   20.3358 N   0  0  0  0  0  0
  -25.9338  -11.6549   20.5802 N   0  0  0  0  0  0
  -22.0481  -12.8231   22.0402 N   0  0  0  0  0  0
  -25.4220  -15.1951   20.4046 N   0  0  0  0  0  0
  -31.9469  -14.5380   20.0467 O   0  0  0  0  0  0
  -21.6643   -6.8915   21.4245 O   0  0  0  0  0  0
  -22.3507  -14.5523   20.6676 O   0  0  0  0  0  0
  -24.6204  -31.8636   23.2049 C   0  0  0  0  0  0
  -25.9088  -32.4752   23.8322 C   0  0  1  0  0  0
  -27.2009  -27.3879   20.1017 C   0  0  0  0  0  0
  -25.5919  -33.8550   24.2233 N   0  0  0  0  0  0
  -23.4044  -30.4911   21.5476 C   0  0  2  0  0  0
  -24.8401  -28.9534   20.1070 C   0  0  0  0  0  0
  -22.7416  -29.4679   22.4995 C   0  0  0  0  0  0
  -18.0305  -28.1376   22.8445 C   0  0  0  0  0  0
  -24.1490  -36.7319   23.2633 C   0  0  0  0  0  0
  -25.9388  -30.8144   21.3622 C   0  0  0  0  0  0
  -26.0076  -29.4511   20.6994 C   0  0  0  0  0  0
  -27.1990  -28.6791   20.6846 C   0  0  0  0  0  0
  -26.0126  -26.9105   19.5048 C   0  0  0  0  0  0
  -24.8385  -27.6829   19.5063 C   0  0  0  0  0  0
  -23.6064  -29.8256   20.1615 C   0  0  0  0  0  0
  -25.4118  -36.3060   24.0303 C   0  0  1  0  0  0
  -20.5876  -28.3669   23.1333 C   0  0  2  0  0  0
  -20.6799  -26.9402   22.5456 C   0  0  0  0  0  0
  -19.5808  -26.6403   21.5227 C   0  0  0  0  0  0
  -18.1968  -26.7919   22.1624 C   0  0  0  0  0  0
  -19.1530  -28.8832   23.2894 C   0  0  0  0  0  0
  -18.9481  -30.1433   23.8878 C   0  0  0  0  0  0
  -17.6477  -30.6550   24.0571 C   0  0  0  0  0  0
  -25.9066  -34.9434   23.5075 C   0  0  0  0  0  0
  -16.5384  -29.9067   23.6301 C   0  0  0  0  0  0
  -16.7286  -28.6487   23.0315 C   0  0  0  0  0  0
  -26.4492  -31.6557   25.0693 C   0  0  0  0  0  0
  -25.3768  -31.3715   26.1460 C   0  0  0  0  0  0
  -27.0318  -30.2970   24.6129 C   0  0  0  0  0  0
  -27.5999  -32.4334   25.7490 C   0  0  0  0  0  0
  -27.5576  -37.1813   24.8461 C   0  0  0  0  0  0
  -21.4137  -29.3068   22.3756 N   0  0  0  0  0  0
  -26.4295  -37.3763   23.9396 N   0  0  0  0  0  0
  -24.6725  -31.0734   22.0946 N   0  0  0  0  0  0
  -23.4214  -28.8227   23.3039 O   0  0  0  0  0  0
  -28.3233  -26.5795   20.1302 O   0  0  0  0  0  0
  -26.5646  -34.8913   22.4648 O   0  0  0  0  0  0
  -23.5391  -32.1397   23.7456 O   0  0  0  0  0  0
  -29.2345  -19.0608   20.4365 C   0  0  0  0  0  0
  -28.7940  -20.2707   22.5674 C   0  0  0  0  0  0
  -29.0930  -17.8755   21.1982 C   0  0  0  0  0  0
  -28.7559  -17.8996   22.5810 C   0  0  0  0  0  0
  -29.0287  -20.2991   21.1465 C   0  0  0  0  0  0
  -28.6379  -19.0745   23.3162 C   0  0  0  0  0  0
  -28.3580  -22.6963   20.7549 C   0  0  0  0  0  0
  -28.6620  -16.3985   22.6973 C   0  0  0  0  0  0
  -29.0745  -16.3404   21.1485 C   0  0  1  0  0  0
  -28.6182  -24.0326   19.9999 C   0  0  0  0  0  0
  -28.1307  -25.2973   20.7829 C   0  0  0  0  0  0
  -28.3929  -19.0742   24.6857 N   0  0  0  0  0  0
  -29.0810  -21.5791   20.4605 N   0  0  0  0  0  0
  -30.3700  -15.6722   21.0301 N   0  0  0  0  0  0
  -27.4523  -22.6816   21.5925 O   0  0  0  0  0  0
  -31.4379  -12.3534   19.1296 H   0  0  0  0  0  0
  -30.2530  -11.3487   19.9063 H   0  0  0  0  0  0
  -29.7176  -11.7084   17.4677 H   0  0  0  0  0  0
  -29.6247  -13.4330   17.7204 H   0  0  0  0  0  0
  -27.8593  -11.2670   18.9107 H   0  0  0  0  0  0
  -27.3409  -12.5072   17.8071 H   0  0  0  0  0  0
  -27.6475  -14.2305   19.4558 H   0  0  0  0  0  0
  -28.6898  -12.1280   21.4282 H   0  0  0  0  0  0
  -28.4691  -13.8146   21.7875 H   0  0  0  0  0  0
  -25.2803   -9.5687   22.4722 H   0  0  0  0  0  0
  -24.0039   -7.4640   22.7442 H   0  0  0  0  0  0
  -21.0877   -8.8804   19.8929 H   0  0  0  0  0  0
  -22.3753  -10.9696   19.6130 H   0  0  0  0  0  0
  -21.2039   -7.6158   23.9743 H   0  0  0  0  0  0
  -21.1425   -6.0496   25.9075 H   0  0  0  0  0  0
  -22.0638   -2.7624   23.2798 H   0  0  0  0  0  0
  -22.4093  -11.9896   22.4806 H   0  0  0  0  0  0
  -21.1071  -13.1211   22.2547 H   0  0  0  0  0  0
  -24.6435  -15.8409   20.4873 H   0  0  0  0  0  0
  -26.2641  -15.6395   20.0607 H   0  0  0  0  0  0
  -26.7139  -32.5422   23.1049 H   0  0  0  0  0  0
  -24.9973  -33.9655   25.0313 H   0  0  0  0  0  0
  -22.6917  -31.3071   21.4110 H   0  0  0  0  0  0
  -23.3719  -35.9690   23.3313 H   0  0  0  0  0  0
  -24.3574  -36.8953   22.2050 H   0  0  0  0  0  0
  -23.7308  -37.6541   23.6677 H   0  0  0  0  0  0
  -26.0669  -31.5759   20.5921 H   0  0  0  0  0  0
  -26.8216  -30.8499   21.9882 H   0  0  0  0  0  0
  -28.1019  -29.0518   21.1453 H   0  0  0  0  0  0
  -25.9829  -25.9262   19.0600 H   0  0  0  0  0  0
  -23.9345  -27.2878   19.0633 H   0  0  0  0  0  0
  -23.7034  -30.5995   19.3984 H   0  0  0  0  0  0
  -22.7254  -29.2462   19.8802 H   0  0  0  0  0  0
  -25.1297  -36.1886   25.0795 H   0  0  0  0  0  0
  -20.9952  -28.3286   24.1446 H   0  0  0  0  0  0
  -20.5653  -26.2238   23.3608 H   0  0  0  0  0  0
  -21.6691  -26.7478   22.1279 H   0  0  0  0  0  0
  -19.6982  -25.6333   21.1191 H   0  0  0  0  0  0
  -19.6770  -27.3278   20.6812 H   0  0  0  0  0  0
  -17.4276  -26.6629   21.4009 H   0  0  0  0  0  0
  -18.0341  -26.0105   22.9063 H   0  0  0  0  0  0
  -19.7961  -30.7233   24.2262 H   0  0  0  0  0  0
  -17.5061  -31.6205   24.5229 H   0  0  0  0  0  0
  -15.5386  -30.2972   23.7580 H   0  0  0  0  0  0
  -15.8681  -28.0818   22.7008 H   0  0  0  0  0  0
  -24.5913  -30.7065   25.7856 H   0  0  0  0  0  0
  -24.9020  -32.2908   26.4894 H   0  0  0  0  0  0
  -25.8149  -30.8918   27.0220 H   0  0  0  0  0  0
  -26.2870  -29.6754   24.1144 H   0  0  0  0  0  0
  -27.3997  -29.7178   25.4610 H   0  0  0  0  0  0
  -27.8745  -30.4236   23.9330 H   0  0  0  0  0  0
  -27.2494  -33.3599   26.2049 H   0  0  0  0  0  0
  -28.3817  -32.6972   25.0356 H   0  0  0  0  0  0
  -28.0650  -31.8510   26.5454 H   0  0  0  0  0  0
  -28.2577  -38.0112   24.7461 H   0  0  0  0  0  0
  -28.1067  -36.2640   24.6314 H   0  0  0  0  0  0
  -27.2288  -37.1496   25.8858 H   0  0  0  0  0  0
  -20.9275  -29.8883   21.7090 H   0  0  0  0  0  0
  -26.0154  -38.2824   24.1406 H   0  0  0  0  0  0
  -29.4365  -19.0202   19.3750 H   0  0  0  0  0  0
  -28.7108  -21.2080   23.0928 H   0  0  0  0  0  0
  -29.3973  -15.9802   23.3858 H   0  0  0  0  0  0
  -27.6480  -16.0465   22.8944 H   0  0  0  0  0  0
  -28.2928  -15.9952   20.4792 H   0  0  0  0  0  0
  -28.0940  -23.9805   19.0465 H   0  0  0  0  0  0
  -29.6794  -24.1264   19.7684 H   0  0  0  0  0  0
  -28.6696  -25.3394   21.7288 H   0  0  0  0  0  0
  -27.0853  -25.1579   21.0699 H   0  0  0  0  0  0
  -28.5908  -19.9250   25.2048 H   0  0  0  0  0  0
  -28.6301  -18.2362   25.2074 H   0  0  0  0  0  0
  -29.7116  -21.6533   19.6712 H   0  0  0  0  0  0
  -31.1316  -16.3312   21.0982 H   0  0  0  0  0  0
  1 25  1  0  0  0
  1 30  2  0  0  0
  1 84  1  0  0  0
  2  3  1  0  0  0
  2 25  1  0  0  0
  2 86  1  0  0  0
  2 87  1  0  0  0
  3  4  1  0  0  0
  3 88  1  0  0  0
  3 89  1  0  0  0
  4  5  1  0  0  0
  4 90  1  0  0  0
  4 91  1  0  0  0
  5  6  1  0  0  0
  5 26  1  0  0  0
  5 92  1  0  0  0
  6 25  1  0  0  0
  6 93  1  0  0  0
  6 94  1  0  0  0
  7  8  2  0  0  0
  7 26  1  0  0  0
  7 29  1  0  0  0
  8  9  1  0  0  0
  8 22  1  0  0  0
  9 10  1  0  0  0
  9 27  2  0  0  0
 10 11  2  0  0  0
 10 15  1  0  0  0
 11 12  1  0  0  0
 11 95  1  0  0  0
 12 13  2  0  0  0
 12 96  1  0  0  0
 13 14  1  0  0  0
 13 31  1  0  0  0
 14 15  2  0  0  0
 14 97  1  0  0  0
 15 98  1  0  0  0
 16 17  2  0  0  0
 16 21  1  0  0  0
 16 31  1  0  0  0
 17 18  1  0  0  0
 17 99  1  0  0  0
 18 19  2  0  0  0
 18100  1  0  0  0
 19 20  1  0  0  0
 19 24  1  0  0  0
 20 21  2  0  0  0
 20101  1  0  0  0
 21 23  1  0  0  0
 22 28  1  0  0  0
 22 32  2  0  0  0
 26 27  1  0  0  0
 28102  1  0  0  0
 28103  1  0  0  0
 29104  1  0  0  0
 29105  1  0  0  0
 33 34  1  0  0  0
 33 66  1  0  0  0
 33 70  2  0  0  0
 34 36  1  0  0  0
 34 59  1  0  0  0
 34106  1  0  0  0
 35 44  2  0  0  0
 35 45  1  0  0  0
 35 68  1  0  0  0
 36 56  1  0  0  0
 36107  1  0  0  0
 37 39  1  0  0  0
 37 47  1  0  0  0
 37 66  1  0  0  0
 37108  1  0  0  0
 38 43  2  0  0  0
 38 46  1  0  0  0
 38 47  1  0  0  0
 39 64  1  0  0  0
 39 67  2  0  0  0
 40 52  1  0  0  0
 40 53  2  0  0  0
 40 58  1  0  0  0
 41109  1  0  0  0
 41110  1  0  0  0
 41111  1  0  0  0
 41 48  1  0  0  0
 42 43  1  0  0  0
 42 66  1  0  0  0
 42112  1  0  0  0
 42113  1  0  0  0
 43 44  1  0  0  0
 44114  1  0  0  0
 45 46  2  0  0  0
 45115  1  0  0  0
 46116  1  0  0  0
 47117  1  0  0  0
 47118  1  0  0  0
 48 56  1  0  0  0
 48 65  1  0  0  0
 48119  1  0  0  0
 49 50  1  0  0  0
 49 53  1  0  0  0
 49 64  1  0  0  0
 49120  1  0  0  0
 50 51  1  0  0  0
 50121  1  0  0  0
 50122  1  0  0  0
 51 52  1  0  0  0
 51123  1  0  0  0
 51124  1  0  0  0
 52125  1  0  0  0
 52126  1  0  0  0
 53 54  1  0  0  0
 54 55  2  0  0  0
 54127  1  0  0  0
 55 57  1  0  0  0
 55128  1  0  0  0
 56 69  2  0  0  0
 57 58  2  0  0  0
 57129  1  0  0  0
 58130  1  0  0  0
 59 60  1  0  0  0
 59 61  1  0  0  0
 59 62  1  0  0  0
 60131  1  0  0  0
 60132  1  0  0  0
 60133  1  0  0  0
 61134  1  0  0  0
 61135  1  0  0  0
 61136  1  0  0  0
 62137  1  0  0  0
 62138  1  0  0  0
 62139  1  0  0  0
 63 65  1  0  0  0
 63140  1  0  0  0
 63141  1  0  0  0
 63142  1  0  0  0
 64143  1  0  0  0
 65144  1  0  0  0
 68 81  1  0  0  0
 71 73  2  0  0  0
 71 75  1  0  0  0
 71145  1  0  0  0
 72 75  2  0  0  0
 72 76  1  0  0  0
 72146  1  0  0  0
 73 74  1  0  0  0
 73 79  1  0  0  0
 74 76  2  0  0  0
 74 78  1  0  0  0
 75 83  1  0  0  0
 76 82  1  0  0  0
 77 80  1  0  0  0
 77 83  1  0  0  0
 77 85  2  0  0  0
 78 79  1  0  0  0
 78147  1  0  0  0
 78148  1  0  0  0
 79 84  1  0  0  0
 79149  1  0  0  0
 80 81  1  0  0  0
 80150  1  0  0  0
 80151  1  0  0  0
 81152  1  0  0  0
 81153  1  0  0  0
 82154  1  0  0  0
 82155  1  0  0  0
 83156  1  0  0  0
 84157  1  0  0  0
M  ISO  4   1 100  68 101  81 101  84 100
M  END
> <chiral flag>
0

> <version>
0

> <s_m_source_file>
/data/baiqing/PycharmProjects/Reinvent-master-3.2/result/LINK_invent/BTK/process_docking_weight1_custom_product_contain_oxygen_bond_distance_aromatic_linkinvent_7_9_3/rearranged_h_0158.sdf

> <i_m_source_file_index>
95

> <r_mmod_Potential_Energy-OPLS-2005>
336.425750732422

> <r_mmod_Stretch_Energy-OPLS-2005>
66.7394104003906

> <r_mmod_Bend_Energy-OPLS-2005>
507.966522216797

> <r_mmod_Torsional_Energy-OPLS-2005>
296.520416259766

> <r_mmod_Improper_Torsional_Energy-OPLS-2005>
6.92362689971924

> <r_mmod_Van_der_Waal_Energy-OPLS-2005>
148.294937133789

> <r_mmod_Electrostatic_Energy-OPLS-2005>
-481.535003662109

> <r_mmod_Solvation_Energy-OPLS-2005>
-242.694030761719

> <b_mmod_Minimization_Converged-OPLS-2005>
0

> <r_mmod_RMS_Derivative-OPLS-2005>
5.35960960388184

$$$$
95
                    3D
 Structure written by MMmdl.
160169  0  0  1  0            999 V2000
  -30.6779  -14.5733   20.4778 C   0  0  0  0  0  0
  -30.4145  -12.3456   19.4568 C   0  0  0  0  0  0
  -29.5000  -12.4914   18.2221 C   0  0  0  0  0  0
  -28.0206  -12.3468   18.6300 C   0  0  0  0  0  0
  -27.6470  -13.2219   19.8575 C   0  0  2  0  0  0
  -28.6892  -13.0920   20.9911 C   0  0  0  0  0  0
  -25.2525  -13.8187   20.5698 C   0  0  0  0  0  0
  -24.1804  -13.0437   20.9200 C   0  0  0  0  0  0
  -24.6381  -11.6912   20.8740 C   0  0  0  0  0  0
  -23.9059  -10.4292   21.0397 C   0  0  0  0  0  0
  -24.3619   -9.4212   21.9173 C   0  0  0  0  0  0
  -23.6297   -8.2245   22.0750 C   0  0  0  0  0  0
  -22.4278   -8.0273   21.3544 C   0  0  0  0  0  0
  -21.9909   -9.0241   20.4648 C   0  0  0  0  0  0
  -22.7231  -10.2125   20.3052 C   0  0  0  0  0  0
  -21.6857   -6.0740   22.5281 C   0  0  0  0  0  0
  -21.4018   -6.5642   23.8214 C   0  0  0  0  0  0
  -21.3662   -5.6791   24.9173 C   0  0  0  0  0  0
  -21.6038   -4.3051   24.7225 C   0  0  0  0  0  0
  -21.8816   -3.8147   23.4346 C   0  0  0  0  0  0
  -21.9198   -4.6968   22.3407 C   0  0  0  0  0  0
  -22.7823  -13.5222   21.1856 C   0  0  0  0  0  0
  -22.1656   -4.2151   21.0981 F   0  0  0  0  0  0
  -21.5634   -3.4535   25.7740 F   0  0  0  0  0  0
  -30.0091  -13.3852   20.4215 N   0  0  0  0  0  0
  -26.2951  -12.9379   20.3307 N   0  0  0  0  0  0
  -25.9312  -11.6527   20.5760 N   0  0  0  0  0  0
  -22.0469  -12.8213   22.0414 N   0  0  0  0  0  0
  -25.4216  -15.1920   20.4144 N   0  0  0  0  0  0
  -31.8747  -14.6375   20.1868 O   0  0  0  0  0  0
  -21.6641   -6.8875   21.4241 O   0  0  0  0  0  0
  -22.3505  -14.5529   20.6705 O   0  0  0  0  0  0
  -24.6220  -31.8645   23.2073 C   0  0  0  0  0  0
  -25.9089  -32.4803   23.8384 C   0  0  1  0  0  0
  -27.2248  -27.3739   20.0952 C   0  0  0  0  0  0
  -25.5914  -33.8602   24.2306 N   0  0  0  0  0  0
  -23.4126  -30.4911   21.5494 C   0  0  2  0  0  0
  -24.8571  -28.9548   20.1125 C   0  0  0  0  0  0
  -22.7444  -29.4657   22.4951 C   0  0  0  0  0  0
  -18.0278  -28.1400   22.8493 C   0  0  0  0  0  0
  -24.1487  -36.7305   23.2636 C   0  0  0  0  0  0
  -25.9501  -30.8116   21.3702 C   0  0  0  0  0  0
  -26.0249  -29.4437   20.7117 C   0  0  0  0  0  0
  -27.2122  -28.6614   20.7004 C   0  0  0  0  0  0
  -26.0257  -26.9142   19.5015 C   0  0  0  0  0  0
  -24.8551  -27.6916   19.5039 C   0  0  0  0  0  0
  -23.6247  -29.8305   20.1625 C   0  0  0  0  0  0
  -25.4109  -36.3098   24.0331 C   0  0  1  0  0  0
  -20.5879  -28.3698   23.1297 C   0  0  2  0  0  0
  -20.6775  -26.9424   22.5424 C   0  0  0  0  0  0
  -19.5752  -26.6402   21.5223 C   0  0  0  0  0  0
  -18.1925  -26.7953   22.1622 C   0  0  0  0  0  0
  -19.1530  -28.8863   23.2900 C   0  0  0  0  0  0
  -18.9456  -30.1464   23.8925 C   0  0  0  0  0  0
  -17.6456  -30.6600   24.0578 C   0  0  0  0  0  0
  -25.9043  -34.9464   23.5117 C   0  0  0  0  0  0
  -16.5349  -29.9104   23.6331 C   0  0  0  0  0  0
  -16.7268  -28.6520   23.0356 C   0  0  0  0  0  0
  -26.4493  -31.6594   25.0732 C   0  0  0  0  0  0
  -25.3741  -31.3720   26.1467 C   0  0  0  0  0  0
  -27.0319  -30.3021   24.6156 C   0  0  0  0  0  0
  -27.6067  -32.4314   25.7493 C   0  0  0  0  0  0
  -27.5584  -37.1803   24.8454 C   0  0  0  0  0  0
  -21.4164  -29.3055   22.3688 N   0  0  0  0  0  0
  -26.4286  -37.3789   23.9413 N   0  0  0  0  0  0
  -24.6804  -31.0701   22.1001 N   0  0  0  0  0  0
  -23.4182  -28.8186   23.3011 O   0  0  0  0  0  0
  -28.3458  -26.5455   20.1385 O   0  0  0  0  0  0
  -26.5611  -34.8921   22.4681 O   0  0  0  0  0  0
  -23.5395  -32.1411   23.7438 O   0  0  0  0  0  0
  -30.9882  -19.6223   19.1347 C   0  0  0  0  0  0
  -29.6748  -18.2512   20.6733 C   0  0  0  0  0  0
  -31.1346  -17.1949   19.0350 C   0  0  0  0  0  0
  -30.0278  -19.5506   20.1637 C   0  0  0  0  0  0
  -31.5106  -18.4611   18.5482 C   0  0  0  0  0  0
  -30.2534  -17.0476   20.1391 C   0  0  0  0  0  0
  -28.6999  -24.2307   19.2799 C   0  0  0  0  0  0
  -28.4775  -25.5730   19.1577 C   0  0  0  0  0  0
  -29.5443  -20.8506   20.7316 C   0  0  0  0  0  0
  -28.7461  -23.3433   18.0582 C   0  0  0  0  0  0
  -28.9008  -23.3426   20.5175 C   0  0  0  0  0  0
  -28.8470  -21.8956   18.5492 C   0  0  0  0  0  0
  -29.1451  -21.9475   19.9979 N   0  0  0  0  0  0
  -32.4091  -18.5715   17.4861 N   0  0  0  0  0  0
  -29.9377  -15.7117   20.6478 N   0  0  0  0  0  0
  -29.5552  -20.9765   22.0546 N   0  3  0  0  0  0
  -31.4622  -12.4293   19.1610 H   0  0  0  0  0  0
  -30.3079  -11.3555   19.9028 H   0  0  0  0  0  0
  -29.7570  -11.7418   17.4724 H   0  0  0  0  0  0
  -29.6606  -13.4638   17.7534 H   0  0  0  0  0  0
  -27.8459  -11.2946   18.8576 H   0  0  0  0  0  0
  -27.3716  -12.5846   17.7859 H   0  0  0  0  0  0
  -27.6621  -14.2555   19.5112 H   0  0  0  0  0  0
  -28.6796  -12.0842   21.4097 H   0  0  0  0  0  0
  -28.4539  -13.7668   21.8153 H   0  0  0  0  0  0
  -25.2762   -9.5695   22.4747 H   0  0  0  0  0  0
  -24.0013   -7.4642   22.7469 H   0  0  0  0  0  0
  -21.0845   -8.8749   19.8955 H   0  0  0  0  0  0
  -22.3676  -10.9659   19.6160 H   0  0  0  0  0  0
  -21.1998   -7.6147   23.9723 H   0  0  0  0  0  0
  -21.1487   -6.0518   25.9079 H   0  0  0  0  0  0
  -22.0596   -2.7612   23.2852 H   0  0  0  0  0  0
  -22.4084  -11.9880   22.4813 H   0  0  0  0  0  0
  -21.1086  -13.1231   22.2613 H   0  0  0  0  0  0
  -24.6511  -15.8423   20.5256 H   0  0  0  0  0  0
  -26.2690  -15.6375   20.0864 H   0  0  0  0  0  0
  -26.7158  -32.5490   23.1140 H   0  0  0  0  0  0
  -25.0048  -33.9757   25.0441 H   0  0  0  0  0  0
  -22.7047  -31.3109   21.4088 H   0  0  0  0  0  0
  -23.3753  -35.9632   23.3283 H   0  0  0  0  0  0
  -24.3588  -36.8944   22.2055 H   0  0  0  0  0  0
  -23.7230  -37.6496   23.6673 H   0  0  0  0  0  0
  -26.0717  -31.5781   20.6034 H   0  0  0  0  0  0
  -26.8340  -30.8613   21.9947 H   0  0  0  0  0  0
  -28.1103  -29.0308   21.1752 H   0  0  0  0  0  0
  -25.9676  -25.9354   19.0479 H   0  0  0  0  0  0
  -23.9555  -27.3040   19.0467 H   0  0  0  0  0  0
  -23.7441  -30.6088   19.4074 H   0  0  0  0  0  0
  -22.7454  -29.2601   19.8584 H   0  0  0  0  0  0
  -25.1292  -36.1953   25.0818 H   0  0  0  0  0  0
  -20.9976  -28.3284   24.1418 H   0  0  0  0  0  0
  -20.5686  -26.2310   23.3624 H   0  0  0  0  0  0
  -21.6641  -26.7476   22.1209 H   0  0  0  0  0  0
  -19.6915  -25.6312   21.1253 H   0  0  0  0  0  0
  -19.6698  -27.3217   20.6756 H   0  0  0  0  0  0
  -17.4204  -26.6723   21.4011 H   0  0  0  0  0  0
  -18.0307  -26.0090   22.9006 H   0  0  0  0  0  0
  -19.7926  -30.7282   24.2308 H   0  0  0  0  0  0
  -17.5006  -31.6285   24.5173 H   0  0  0  0  0  0
  -15.5353  -30.3020   23.7639 H   0  0  0  0  0  0
  -15.8664  -28.0851   22.7066 H   0  0  0  0  0  0
  -24.5919  -30.7067   25.7796 H   0  0  0  0  0  0
  -24.8932  -32.2883   26.4904 H   0  0  0  0  0  0
  -25.8075  -30.8890   27.0234 H   0  0  0  0  0  0
  -26.2877  -29.6783   24.1194 H   0  0  0  0  0  0
  -27.4033  -29.7266   25.4645 H   0  0  0  0  0  0
  -27.8739  -30.4307   23.9352 H   0  0  0  0  0  0
  -27.2693  -33.3602   26.2109 H   0  0  0  0  0  0
  -28.3861  -32.6898   25.0309 H   0  0  0  0  0  0
  -28.0763  -31.8419   26.5381 H   0  0  0  0  0  0
  -28.2587  -38.0118   24.7524 H   0  0  0  0  0  0
  -28.1100  -36.2651   24.6246 H   0  0  0  0  0  0
  -27.2313  -37.1401   25.8859 H   0  0  0  0  0  0
  -20.9328  -29.8779   21.6909 H   0  0  0  0  0  0
  -26.0172  -38.2858   24.1446 H   0  0  0  0  0  0
  -31.3359  -20.5872   18.7947 H   0  0  0  0  0  0
  -28.9745  -18.1848   21.4950 H   0  0  0  0  0  0
  -31.5512  -16.3321   18.5395 H   0  0  0  0  0  0
  -28.3520  -26.0146   18.1778 H   0  0  0  0  0  0
  -29.6097  -23.6035   17.4454 H   0  0  0  0  0  0
  -27.8519  -23.4876   17.4503 H   0  0  0  0  0  0
  -28.0118  -23.3748   21.1489 H   0  0  0  0  0  0
  -29.7519  -23.7061   21.0957 H   0  0  0  0  0  0
  -29.5777  -21.3608   17.9476 H   0  0  0  0  0  0
  -27.8918  -21.3864   18.4080 H   0  0  0  0  0  0
  -32.4363  -19.4406   16.9620 H   0  0  0  0  0  0
  -32.5598  -17.7583   16.8968 H   0  0  0  0  0  0
  -29.0140  -15.5800   21.0314 H   0  0  0  0  0  0
  -29.9083  -20.2183   22.6186 H   0  0  0  0  0  0
  -29.2116  -21.8002   22.5175 H   0  0  0  0  0  0
  1 25  1  0  0  0
  1 30  2  0  0  0
  1 85  1  0  0  0
  2  3  1  0  0  0
  2 25  1  0  0  0
  2 87  1  0  0  0
  2 88  1  0  0  0
  3  4  1  0  0  0
  3 89  1  0  0  0
  3 90  1  0  0  0
  4  5  1  0  0  0
  4 91  1  0  0  0
  4 92  1  0  0  0
  5  6  1  0  0  0
  5 26  1  0  0  0
  5 93  1  0  0  0
  6 25  1  0  0  0
  6 94  1  0  0  0
  6 95  1  0  0  0
  7  8  2  0  0  0
  7 26  1  0  0  0
  7 29  1  0  0  0
  8  9  1  0  0  0
  8 22  1  0  0  0
  9 10  1  0  0  0
  9 27  2  0  0  0
 10 11  2  0  0  0
 10 15  1  0  0  0
 11 12  1  0  0  0
 11 96  1  0  0  0
 12 13  2  0  0  0
 12 97  1  0  0  0
 13 14  1  0  0  0
 13 31  1  0  0  0
 14 15  2  0  0  0
 14 98  1  0  0  0
 15 99  1  0  0  0
 16 17  2  0  0  0
 16 21  1  0  0  0
 16 31  1  0  0  0
 17 18  1  0  0  0
 17100  1  0  0  0
 18 19  2  0  0  0
 18101  1  0  0  0
 19 20  1  0  0  0
 19 24  1  0  0  0
 20 21  2  0  0  0
 20102  1  0  0  0
 21 23  1  0  0  0
 22 28  1  0  0  0
 22 32  2  0  0  0
 26 27  1  0  0  0
 28103  1  0  0  0
 28104  1  0  0  0
 29105  1  0  0  0
 29106  1  0  0  0
 33 34  1  0  0  0
 33 66  1  0  0  0
 33 70  2  0  0  0
 34 36  1  0  0  0
 34 59  1  0  0  0
 34107  1  0  0  0
 35 44  2  0  0  0
 35 45  1  0  0  0
 35 68  1  0  0  0
 36 56  1  0  0  0
 36108  1  0  0  0
 37 39  1  0  0  0
 37 47  1  0  0  0
 37 66  1  0  0  0
 37109  1  0  0  0
 38 43  2  0  0  0
 38 46  1  0  0  0
 38 47  1  0  0  0
 39 64  1  0  0  0
 39 67  2  0  0  0
 40 52  1  0  0  0
 40 53  2  0  0  0
 40 58  1  0  0  0
 41110  1  0  0  0
 41111  1  0  0  0
 41112  1  0  0  0
 41 48  1  0  0  0
 42 43  1  0  0  0
 42 66  1  0  0  0
 42113  1  0  0  0
 42114  1  0  0  0
 43 44  1  0  0  0
 44115  1  0  0  0
 45 46  2  0  0  0
 45116  1  0  0  0
 46117  1  0  0  0
 47118  1  0  0  0
 47119  1  0  0  0
 48 56  1  0  0  0
 48 65  1  0  0  0
 48120  1  0  0  0
 49 50  1  0  0  0
 49 53  1  0  0  0
 49 64  1  0  0  0
 49121  1  0  0  0
 50 51  1  0  0  0
 50122  1  0  0  0
 50123  1  0  0  0
 51 52  1  0  0  0
 51124  1  0  0  0
 51125  1  0  0  0
 52126  1  0  0  0
 52127  1  0  0  0
 53 54  1  0  0  0
 54 55  2  0  0  0
 54128  1  0  0  0
 55 57  1  0  0  0
 55129  1  0  0  0
 56 69  2  0  0  0
 57 58  2  0  0  0
 57130  1  0  0  0
 58131  1  0  0  0
 59 60  1  0  0  0
 59 61  1  0  0  0
 59 62  1  0  0  0
 60132  1  0  0  0
 60133  1  0  0  0
 60134  1  0  0  0
 61135  1  0  0  0
 61136  1  0  0  0
 61137  1  0  0  0
 62138  1  0  0  0
 62139  1  0  0  0
 62140  1  0  0  0
 63 65  1  0  0  0
 63141  1  0  0  0
 63142  1  0  0  0
 63143  1  0  0  0
 64144  1  0  0  0
 65145  1  0  0  0
 68 78  1  0  0  0
 71 74  2  0  0  0
 71 75  1  0  0  0
 71146  1  0  0  0
 72 74  1  0  0  0
 72 76  2  0  0  0
 72147  1  0  0  0
 73 75  2  0  0  0
 73 76  1  0  0  0
 73148  1  0  0  0
 74 79  1  0  0  0
 75 84  1  0  0  0
 76 85  1  0  0  0
 77 78  2  0  0  0
 77 80  1  0  0  0
 77 81  1  0  0  0
 78149  1  0  0  0
 79 83  1  0  0  0
 79 86  2  0  0  0
 80 82  1  0  0  0
 80150  1  0  0  0
 80151  1  0  0  0
 81 83  1  0  0  0
 81152  1  0  0  0
 81153  1  0  0  0
 82 83  1  0  0  0
 82154  1  0  0  0
 82155  1  0  0  0
 84156  1  0  0  0
 84157  1  0  0  0
 85158  1  0  0  0
 86159  1  0  0  0
 86160  1  0  0  0
M  CHG  1  86   1
M  ISO  4   1 100  68 101  78 101  85 100
M  END
> <chiral flag>
0

> <version>
0

> <s_m_source_file>
/data/baiqing/PycharmProjects/Reinvent-master-3.2/result/LINK_invent/BTK/process_docking_weight1_custom_product_contain_oxygen_bond_distance_aromatic_linkinvent_7_9_3/rearranged_h_0158.sdf

> <i_m_source_file_index>
96

> <r_mmod_Potential_Energy-OPLS-2005>
-143.128570556641

> <r_mmod_Stretch_Energy-OPLS-2005>
61.5303611755371

> <r_mmod_Bend_Energy-OPLS-2005>
140.988159179688

> <r_mmod_Torsional_Energy-OPLS-2005>
262.379425048828

> <r_mmod_Improper_Torsional_Energy-OPLS-2005>
9.15755844116211

> <r_mmod_Van_der_Waal_Energy-OPLS-2005>
159.705535888672

> <r_mmod_Electrostatic_Energy-OPLS-2005>
-400.101501464844

> <r_mmod_Solvation_Energy-OPLS-2005>
-412.138916015625

> <b_mmod_Minimization_Converged-OPLS-2005>
0

> <r_mmod_RMS_Derivative-OPLS-2005>
1.304931640625

$$$$
96
                    3D
 Structure written by MMmdl.
156164  0  0  1  0            999 V2000
  -30.6818  -14.6119   20.4964 C   0  0  0  0  0  0
  -30.4157  -12.3743   19.4623 C   0  0  0  0  0  0
  -29.5002  -12.4964   18.2265 C   0  0  0  0  0  0
  -28.0234  -12.3447   18.6374 C   0  0  0  0  0  0
  -27.6473  -13.2260   19.8590 C   0  0  2  0  0  0
  -28.6913  -13.1154   20.9935 C   0  0  0  0  0  0
  -25.2527  -13.8194   20.5697 C   0  0  0  0  0  0
  -24.1809  -13.0446   20.9209 C   0  0  0  0  0  0
  -24.6387  -11.6921   20.8745 C   0  0  0  0  0  0
  -23.9060  -10.4300   21.0401 C   0  0  0  0  0  0
  -24.3615   -9.4216   21.9178 C   0  0  0  0  0  0
  -23.6298   -8.2247   22.0747 C   0  0  0  0  0  0
  -22.4277   -8.0280   21.3539 C   0  0  0  0  0  0
  -21.9909   -9.0251   20.4640 C   0  0  0  0  0  0
  -22.7235  -10.2136   20.3050 C   0  0  0  0  0  0
  -21.6859   -6.0736   22.5279 C   0  0  0  0  0  0
  -21.4015   -6.5640   23.8213 C   0  0  0  0  0  0
  -21.3659   -5.6791   24.9174 C   0  0  0  0  0  0
  -21.6045   -4.3054   24.7222 C   0  0  0  0  0  0
  -21.8821   -3.8146   23.4344 C   0  0  0  0  0  0
  -21.9195   -4.6963   22.3401 C   0  0  0  0  0  0
  -22.7831  -13.5229   21.1873 C   0  0  0  0  0  0
  -22.1665   -4.2151   21.0978 F   0  0  0  0  0  0
  -21.5626   -3.4535   25.7735 F   0  0  0  0  0  0
  -30.0072  -13.4230   20.4198 N   0  0  0  0  0  0
  -26.2957  -12.9394   20.3318 N   0  0  0  0  0  0
  -25.9317  -11.6541   20.5767 N   0  0  0  0  0  0
  -22.0479  -12.8207   22.0421 N   0  0  0  0  0  0
  -25.4232  -15.1915   20.4098 N   0  0  0  0  0  0
  -31.8501  -14.6780   20.1114 O   0  0  0  0  0  0
  -21.6644   -6.8876   21.4239 O   0  0  0  0  0  0
  -22.3519  -14.5543   20.6735 O   0  0  0  0  0  0
  -24.6232  -31.8607   23.2034 C   0  0  0  0  0  0
  -25.9092  -32.4784   23.8354 C   0  0  1  0  0  0
  -27.2272  -27.3560   20.1048 C   0  0  0  0  0  0
  -25.5922  -33.8583   24.2295 N   0  0  0  0  0  0
  -23.4154  -30.4833   21.5449 C   0  0  2  0  0  0
  -24.8632  -28.9448   20.1027 C   0  0  0  0  0  0
  -22.7466  -29.4616   22.4945 C   0  0  0  0  0  0
  -18.0286  -28.1384   22.8492 C   0  0  0  0  0  0
  -24.1492  -36.7295   23.2639 C   0  0  0  0  0  0
  -25.9521  -30.8033   21.3675 C   0  0  0  0  0  0
  -26.0276  -29.4338   20.7086 C   0  0  0  0  0  0
  -27.2116  -28.6458   20.7088 C   0  0  0  0  0  0
  -26.0431  -26.9038   19.4836 C   0  0  0  0  0  0
  -24.8710  -27.6843   19.4815 C   0  0  0  0  0  0
  -23.6272  -29.8184   20.1580 C   0  0  0  0  0  0
  -25.4112  -36.3087   24.0339 C   0  0  1  0  0  0
  -20.5887  -28.3673   23.1307 C   0  0  2  0  0  0
  -20.6773  -26.9402   22.5419 C   0  0  0  0  0  0
  -19.5749  -26.6386   21.5224 C   0  0  0  0  0  0
  -18.1929  -26.7933   22.1628 C   0  0  0  0  0  0
  -19.1538  -28.8849   23.2892 C   0  0  0  0  0  0
  -18.9456  -30.1455   23.8898 C   0  0  0  0  0  0
  -17.6454  -30.6585   24.0563 C   0  0  0  0  0  0
  -25.9045  -34.9455   23.5118 C   0  0  0  0  0  0
  -16.5347  -29.9079   23.6330 C   0  0  0  0  0  0
  -16.7273  -28.6500   23.0349 C   0  0  0  0  0  0
  -26.4491  -31.6579   25.0706 C   0  0  0  0  0  0
  -25.3746  -31.3673   26.1444 C   0  0  0  0  0  0
  -27.0325  -30.3019   24.6111 C   0  0  0  0  0  0
  -27.6072  -32.4293   25.7464 C   0  0  0  0  0  0
  -27.5586  -37.1793   24.8460 C   0  0  0  0  0  0
  -21.4184  -29.3023   22.3694 N   0  0  0  0  0  0
  -26.4289  -37.3784   23.9420 N   0  0  0  0  0  0
  -24.6820  -31.0652   22.0961 N   0  0  0  0  0  0
  -23.4205  -28.8160   23.3018 O   0  0  0  0  0  0
  -28.3219  -26.5025   20.2179 O   0  0  0  0  0  0
  -26.5609  -34.8924   22.4682 O   0  0  0  0  0  0
  -23.5405  -32.1384   23.7391 O   0  0  0  0  0  0
  -31.2380  -19.9032   20.7069 C   0  0  0  0  0  0
  -29.4425  -18.2444   20.7706 C   0  0  0  0  0  0
  -31.7631  -17.5171   20.7784 C   0  0  0  0  0  0
  -29.8578  -19.6255   20.7431 C   0  0  0  0  0  0
  -32.1820  -18.8642   20.7362 C   0  0  0  0  0  0
  -30.3883  -17.1547   20.7741 C   0  0  0  0  0  0
  -28.6304  -25.6073   19.2021 C   0  0  0  0  0  0
  -28.9466  -20.8126   20.8748 C   0  0  0  0  0  0
  -28.8058  -24.2435   19.2298 C   0  0  0  0  0  0
  -28.5882  -23.3262   20.3740 C   0  0  0  0  0  0
  -33.5416  -19.1827   20.7448 N   0  0  0  0  0  0
  -29.9687  -15.7439   20.8113 N   0  0  0  0  0  0
  -29.1352  -21.9758   20.1688 N   0  0  0  0  0  0
  -27.9684  -20.7172   21.7800 N   0  3  0  0  0  0
  -27.9795  -23.6005   21.4133 O   0  0  0  0  0  0
  -29.2040  -23.6591   18.0872 O   0  0  0  0  0  0
  -31.4626  -12.4557   19.1647 H   0  0  0  0  0  0
  -30.3159  -11.3885   19.9193 H   0  0  0  0  0  0
  -29.7623  -11.7393   17.4861 H   0  0  0  0  0  0
  -29.6525  -13.4635   17.7442 H   0  0  0  0  0  0
  -27.8559  -11.2934   18.8741 H   0  0  0  0  0  0
  -27.3714  -12.5724   17.7933 H   0  0  0  0  0  0
  -27.6581  -14.2568   19.5041 H   0  0  0  0  0  0
  -28.6931  -12.1115   21.4212 H   0  0  0  0  0  0
  -28.4463  -13.7921   21.8134 H   0  0  0  0  0  0
  -25.2758   -9.5703   22.4752 H   0  0  0  0  0  0
  -24.0018   -7.4636   22.7460 H   0  0  0  0  0  0
  -21.0844   -8.8760   19.8941 H   0  0  0  0  0  0
  -22.3684  -10.9668   19.6158 H   0  0  0  0  0  0
  -21.2007   -7.6148   23.9719 H   0  0  0  0  0  0
  -21.1479   -6.0518   25.9079 H   0  0  0  0  0  0
  -22.0598   -2.7608   23.2841 H   0  0  0  0  0  0
  -22.4102  -11.9861   22.4787 H   0  0  0  0  0  0
  -21.1091  -13.1218   22.2636 H   0  0  0  0  0  0
  -24.6509  -15.8422   20.5059 H   0  0  0  0  0  0
  -26.2636  -15.6255   20.0506 H   0  0  0  0  0  0
  -26.7165  -32.5458   23.1109 H   0  0  0  0  0  0
  -25.0086  -33.9725   25.0451 H   0  0  0  0  0  0
  -22.7076  -31.3028   21.4043 H   0  0  0  0  0  0
  -23.3764  -35.9613   23.3273 H   0  0  0  0  0  0
  -24.3605  -36.8935   22.2062 H   0  0  0  0  0  0
  -23.7221  -37.6483   23.6670 H   0  0  0  0  0  0
  -26.0793  -31.5677   20.5995 H   0  0  0  0  0  0
  -26.8350  -30.8526   21.9927 H   0  0  0  0  0  0
  -28.1019  -29.0067   21.2048 H   0  0  0  0  0  0
  -26.0065  -25.9224   19.0326 H   0  0  0  0  0  0
  -23.9761  -27.3001   19.0115 H   0  0  0  0  0  0
  -23.7372  -30.5950   19.4005 H   0  0  0  0  0  0
  -22.7495  -29.2428   19.8590 H   0  0  0  0  0  0
  -25.1286  -36.1941   25.0832 H   0  0  0  0  0  0
  -20.9983  -28.3239   24.1430 H   0  0  0  0  0  0
  -20.5698  -26.2273   23.3605 H   0  0  0  0  0  0
  -21.6635  -26.7449   22.1194 H   0  0  0  0  0  0
  -19.6896  -25.6303   21.1238 H   0  0  0  0  0  0
  -19.6691  -27.3212   20.6771 H   0  0  0  0  0  0
  -17.4203  -26.6702   21.4021 H   0  0  0  0  0  0
  -18.0311  -26.0074   22.9019 H   0  0  0  0  0  0
  -19.7928  -30.7278   24.2265 H   0  0  0  0  0  0
  -17.5003  -31.6270   24.5158 H   0  0  0  0  0  0
  -15.5347  -30.2975   23.7655 H   0  0  0  0  0  0
  -15.8676  -28.0821   22.7057 H   0  0  0  0  0  0
  -24.5949  -30.6992   25.7765 H   0  0  0  0  0  0
  -24.8904  -32.2813   26.4892 H   0  0  0  0  0  0
  -25.8106  -30.8839   27.0198 H   0  0  0  0  0  0
  -26.2867  -29.6769   24.1188 H   0  0  0  0  0  0
  -27.4107  -29.7272   25.4572 H   0  0  0  0  0  0
  -27.8702  -30.4329   23.9260 H   0  0  0  0  0  0
  -27.2721  -33.3609   26.2032 H   0  0  0  0  0  0
  -28.3886  -32.6814   25.0283 H   0  0  0  0  0  0
  -28.0732  -31.8408   26.5376 H   0  0  0  0  0  0
  -28.2570  -38.0124   24.7568 H   0  0  0  0  0  0
  -28.1118  -36.2661   24.6210 H   0  0  0  0  0  0
  -27.2315  -37.1345   25.8862 H   0  0  0  0  0  0
  -20.9356  -29.8737   21.6899 H   0  0  0  0  0  0
  -26.0169  -38.2852   24.1447 H   0  0  0  0  0  0
  -31.5793  -20.9297   20.7108 H   0  0  0  0  0  0
  -28.3844  -18.0237   20.8023 H   0  0  0  0  0  0
  -32.5378  -16.7712   20.8320 H   0  0  0  0  0  0
  -28.7756  -26.1592   18.2838 H   0  0  0  0  0  0
  -33.8136  -20.1131   21.0493 H   0  0  0  0  0  0
  -34.1979  -18.4698   21.0485 H   0  0  0  0  0  0
  -28.9972  -15.5780   21.0221 H   0  0  0  0  0  0
  -29.6920  -21.8222   19.3418 H   0  0  0  0  0  0
  -27.8792  -19.8859   22.3424 H   0  0  0  0  0  0
  -27.4135  -21.5306   22.0058 H   0  0  0  0  0  0
  -29.2988  -24.3410   17.4346 H   0  0  0  0  0  0
  1 25  1  0  0  0
  1 30  2  0  0  0
  1 82  1  0  0  0
  2  3  1  0  0  0
  2 25  1  0  0  0
  2 87  1  0  0  0
  2 88  1  0  0  0
  3  4  1  0  0  0
  3 89  1  0  0  0
  3 90  1  0  0  0
  4  5  1  0  0  0
  4 91  1  0  0  0
  4 92  1  0  0  0
  5  6  1  0  0  0
  5 26  1  0  0  0
  5 93  1  0  0  0
  6 25  1  0  0  0
  6 94  1  0  0  0
  6 95  1  0  0  0
  7  8  2  0  0  0
  7 26  1  0  0  0
  7 29  1  0  0  0
  8  9  1  0  0  0
  8 22  1  0  0  0
  9 10  1  0  0  0
  9 27  2  0  0  0
 10 11  2  0  0  0
 10 15  1  0  0  0
 11 12  1  0  0  0
 11 96  1  0  0  0
 12 13  2  0  0  0
 12 97  1  0  0  0
 13 14  1  0  0  0
 13 31  1  0  0  0
 14 15  2  0  0  0
 14 98  1  0  0  0
 15 99  1  0  0  0
 16 17  2  0  0  0
 16 21  1  0  0  0
 16 31  1  0  0  0
 17 18  1  0  0  0
 17100  1  0  0  0
 18 19  2  0  0  0
 18101  1  0  0  0
 19 20  1  0  0  0
 19 24  1  0  0  0
 20 21  2  0  0  0
 20102  1  0  0  0
 21 23  1  0  0  0
 22 28  1  0  0  0
 22 32  2  0  0  0
 26 27  1  0  0  0
 28103  1  0  0  0
 28104  1  0  0  0
 29105  1  0  0  0
 29106  1  0  0  0
 33 34  1  0  0  0
 33 66  1  0  0  0
 33 70  2  0  0  0
 34 36  1  0  0  0
 34 59  1  0  0  0
 34107  1  0  0  0
 35 44  2  0  0  0
 35 45  1  0  0  0
 35 68  1  0  0  0
 36 56  1  0  0  0
 36108  1  0  0  0
 37 39  1  0  0  0
 37 47  1  0  0  0
 37 66  1  0  0  0
 37109  1  0  0  0
 38 43  2  0  0  0
 38 46  1  0  0  0
 38 47  1  0  0  0
 39 64  1  0  0  0
 39 67  2  0  0  0
 40 52  1  0  0  0
 40 53  2  0  0  0
 40 58  1  0  0  0
 41110  1  0  0  0
 41111  1  0  0  0
 41112  1  0  0  0
 41 48  1  0  0  0
 42 43  1  0  0  0
 42 66  1  0  0  0
 42113  1  0  0  0
 42114  1  0  0  0
 43 44  1  0  0  0
 44115  1  0  0  0
 45 46  2  0  0  0
 45116  1  0  0  0
 46117  1  0  0  0
 47118  1  0  0  0
 47119  1  0  0  0
 48 56  1  0  0  0
 48 65  1  0  0  0
 48120  1  0  0  0
 49 50  1  0  0  0
 49 53  1  0  0  0
 49 64  1  0  0  0
 49121  1  0  0  0
 50 51  1  0  0  0
 50122  1  0  0  0
 50123  1  0  0  0
 51 52  1  0  0  0
 51124  1  0  0  0
 51125  1  0  0  0
 52126  1  0  0  0
 52127  1  0  0  0
 53 54  1  0  0  0
 54 55  2  0  0  0
 54128  1  0  0  0
 55 57  1  0  0  0
 55129  1  0  0  0
 56 69  2  0  0  0
 57 58  2  0  0  0
 57130  1  0  0  0
 58131  1  0  0  0
 59 60  1  0  0  0
 59 61  1  0  0  0
 59 62  1  0  0  0
 60132  1  0  0  0
 60133  1  0  0  0
 60134  1  0  0  0
 61135  1  0  0  0
 61136  1  0  0  0
 61137  1  0  0  0
 62138  1  0  0  0
 62139  1  0  0  0
 62140  1  0  0  0
 63 65  1  0  0  0
 63141  1  0  0  0
 63142  1  0  0  0
 63143  1  0  0  0
 64144  1  0  0  0
 65145  1  0  0  0
 68 77  1  0  0  0
 71 74  2  0  0  0
 71 75  1  0  0  0
 71146  1  0  0  0
 72 74  1  0  0  0
 72 76  2  0  0  0
 72147  1  0  0  0
 73 75  2  0  0  0
 73 76  1  0  0  0
 73148  1  0  0  0
 74 78  1  0  0  0
 75 81  1  0  0  0
 76 82  1  0  0  0
 77 79  2  0  0  0
 77149  1  0  0  0
 78 83  1  0  0  0
 78 84  2  0  0  0
 79 80  1  0  0  0
 79 86  1  0  0  0
 80 83  1  0  0  0
 80 85  2  0  0  0
 81150  1  0  0  0
 81151  1  0  0  0
 82152  1  0  0  0
 83153  1  0  0  0
 84154  1  0  0  0
 84155  1  0  0  0
 86156  1  0  0  0
M  CHG  1  84   1
M  ISO  4   1 100  68 101  77 101  82 100
M  END
> <chiral flag>
0

> <version>
0

> <s_m_source_file>
/data/baiqing/PycharmProjects/Reinvent-master-3.2/result/LINK_invent/BTK/process_docking_weight1_custom_product_contain_oxygen_bond_distance_aromatic_linkinvent_7_9_3/rearranged_h_0158.sdf

> <i_m_source_file_index>
97

> <r_mmod_Potential_Energy-OPLS-2005>
-289.180267333984

> <r_mmod_Stretch_Energy-OPLS-2005>
69.5574340820312

> <r_mmod_Bend_Energy-OPLS-2005>
146.417526245117

> <r_mmod_Torsional_Energy-OPLS-2005>
221.716690063477

> <r_mmod_Improper_Torsional_Energy-OPLS-2005>
9.73093128204346

> <r_mmod_Van_der_Waal_Energy-OPLS-2005>
160.286270141602

> <r_mmod_Electrostatic_Energy-OPLS-2005>
-488.578979492188

> <r_mmod_Solvation_Energy-OPLS-2005>
-451.805084228516

> <b_mmod_Minimization_Converged-OPLS-2005>
0

> <r_mmod_RMS_Derivative-OPLS-2005>
1.07548654079437

$$$$
