0
                    3D
 Structure written by MMmdl.
182192  0  0  1  0            999 V2000
  -30.6226  -14.7336   20.4482 C   0  0  0  0  0  0
  -30.4232  -12.4428   19.4776 C   0  0  0  0  0  0
  -29.5041  -12.5028   18.2386 C   0  0  0  0  0  0
  -28.0300  -12.3346   18.6508 C   0  0  0  0  0  0
  -27.6386  -13.2348   19.8524 C   0  0  2  0  0  0
  -28.6828  -13.1720   20.9879 C   0  0  0  0  0  0
  -25.2480  -13.8211   20.5707 C   0  0  0  0  0  0
  -24.1783  -13.0451   20.9237 C   0  0  0  0  0  0
  -24.6389  -11.6932   20.8773 C   0  0  0  0  0  0
  -23.9072  -10.4297   21.0427 C   0  0  0  0  0  0
  -24.3622   -9.4202   21.9197 C   0  0  0  0  0  0
  -23.6291   -8.2239   22.0758 C   0  0  0  0  0  0
  -22.4269   -8.0285   21.3551 C   0  0  0  0  0  0
  -21.9917   -9.0262   20.4660 C   0  0  0  0  0  0
  -22.7246  -10.2141   20.3076 C   0  0  0  0  0  0
  -21.6853   -6.0742   22.5272 C   0  0  0  0  0  0
  -21.4013   -6.5645   23.8202 C   0  0  0  0  0  0
  -21.3654   -5.6797   24.9172 C   0  0  0  0  0  0
  -21.6044   -4.3061   24.7222 C   0  0  0  0  0  0
  -21.8819   -3.8149   23.4341 C   0  0  0  0  0  0
  -21.9191   -4.6967   22.3397 C   0  0  0  0  0  0
  -22.7807  -13.5227   21.1889 C   0  0  0  0  0  0
  -22.1660   -4.2153   21.0976 F   0  0  0  0  0  0
  -21.5630   -3.4544   25.7735 F   0  0  0  0  0  0
  -29.9854  -13.5137   20.4052 N   0  0  0  0  0  0
  -26.2916  -12.9430   20.3300 N   0  0  0  0  0  0
  -25.9312  -11.6567   20.5780 N   0  0  0  0  0  0
  -22.0456  -12.8208   22.0448 N   0  0  0  0  0  0
  -25.4153  -15.1930   20.4052 N   0  0  0  0  0  0
  -31.8190  -14.7819   20.1535 O   0  0  0  0  0  0
  -21.6639   -6.8877   21.4234 O   0  0  0  0  0  0
  -22.3485  -14.5531   20.6732 O   0  0  0  0  0  0
  -24.6276  -31.8576   23.1994 C   0  0  0  0  0  0
  -25.9118  -32.4760   23.8314 C   0  0  1  0  0  0
  -27.2079  -27.2670   20.1392 C   0  0  0  0  0  0
  -25.5920  -33.8554   24.2251 N   0  0  0  0  0  0
  -23.4220  -30.4786   21.5431 C   0  0  2  0  0  0
  -24.8678  -28.9211   20.1200 C   0  0  0  0  0  0
  -22.7477  -29.4594   22.4921 C   0  0  0  0  0  0
  -18.0285  -28.1352   22.8478 C   0  0  0  0  0  0
  -24.1497  -36.7272   23.2631 C   0  0  0  0  0  0
  -25.9653  -30.7683   21.3799 C   0  0  0  0  0  0
  -26.0369  -29.3868   20.7357 C   0  0  0  0  0  0
  -27.2116  -28.5698   20.7410 C   0  0  0  0  0  0
  -26.0298  -26.8794   19.4755 C   0  0  0  0  0  0
  -24.8668  -27.6714   19.4836 C   0  0  0  0  0  0
  -23.6412  -29.8120   20.1605 C   0  0  0  0  0  0
  -25.4118  -36.3058   24.0331 C   0  0  1  0  0  0
  -20.5890  -28.3655   23.1283 C   0  0  2  0  0  0
  -20.6772  -26.9377   22.5416 C   0  0  0  0  0  0
  -19.5758  -26.6362   21.5202 C   0  0  0  0  0  0
  -18.1936  -26.7896   22.1615 C   0  0  0  0  0  0
  -19.1542  -28.8815   23.2871 C   0  0  0  0  0  0
  -18.9476  -30.1412   23.8888 C   0  0  0  0  0  0
  -17.6486  -30.6562   24.0547 C   0  0  0  0  0  0
  -25.9066  -34.9433   23.5094 C   0  0  0  0  0  0
  -16.5369  -29.9063   23.6329 C   0  0  0  0  0  0
  -16.7279  -28.6478   23.0354 C   0  0  0  0  0  0
  -26.4477  -31.6555   25.0691 C   0  0  0  0  0  0
  -25.3705  -31.3728   26.1417 C   0  0  0  0  0  0
  -27.0312  -30.2984   24.6122 C   0  0  0  0  0  0
  -27.6025  -32.4276   25.7478 C   0  0  0  0  0  0
  -27.5577  -37.1776   24.8464 C   0  0  0  0  0  0
  -21.4192  -29.3019   22.3678 N   0  0  0  0  0  0
  -26.4277  -37.3768   23.9426 N   0  0  0  0  0  0
  -24.6906  -31.0534   22.0980 N   0  0  0  0  0  0
  -23.4202  -28.8153   23.3017 O   0  0  0  0  0  0
  -28.3087  -26.3943   20.0630 O   0  0  0  0  0  0
  -26.5636  -34.8908   22.4664 O   0  0  0  0  0  0
  -23.5436  -32.1425   23.7289 O   0  0  0  0  0  0
  -31.7016  -19.0720   19.5672 C   0  0  0  0  0  0
  -30.8181  -20.1134   19.8957 C   0  0  0  0  0  0
  -31.3752  -17.7246   19.8052 C   0  0  0  0  0  0
  -29.5530  -19.8538   20.4625 C   0  0  0  0  0  0
  -29.2394  -18.4420   20.7265 C   0  0  0  0  0  0
  -30.1487  -17.3382   20.3979 C   0  0  0  0  0  0
  -27.6194  -17.1099   25.7145 C   0  0  0  0  0  0
  -26.6506  -18.1469   25.1248 C   0  0  0  0  0  0
  -29.0177  -17.2473   25.0972 C   0  0  0  0  0  0
  -26.4965  -23.1913   18.6869 C   0  0  0  0  0  0
  -27.8811  -23.4194   18.0644 C   0  0  0  0  0  0
  -26.5976  -18.0626   23.5897 C   0  0  0  0  0  0
  -28.9554  -17.1414   23.5665 C   0  0  0  0  0  0
  -26.5014  -23.5069   20.1948 C   0  0  0  0  0  0
  -28.9531  -22.5489   18.7587 C   0  0  0  0  0  0
  -27.9980  -18.1896   22.9544 C   0  0  0  0  0  0
  -27.9285  -23.6614   20.7751 C   0  0  2  0  0  0
  -27.9195  -18.0976   21.4144 C   0  0  0  0  0  0
  -28.6149  -21.1121   20.8127 C   0  0  0  0  0  0
  -28.4465  -25.2062   20.9647 C   0  0  0  0  0  0
  -29.8595  -15.8875   20.6350 N   0  0  0  0  0  0
  -28.8649  -22.5409   20.2533 N   0  3  1  0  0  0
  -31.4662  -12.5523   19.1752 H   0  0  0  0  0  0
  -30.3552  -11.4675   19.9625 H   0  0  0  0  0  0
  -29.7810  -11.7269   17.5232 H   0  0  0  0  0  0
  -29.6361  -13.4562   17.7253 H   0  0  0  0  0  0
  -27.8813  -11.2869   18.9123 H   0  0  0  0  0  0
  -27.3729  -12.5312   17.8027 H   0  0  0  0  0  0
  -27.6331  -14.2571   19.4722 H   0  0  0  0  0  0
  -28.7106  -12.1762   21.4324 H   0  0  0  0  0  0
  -28.4212  -13.8579   21.7951 H   0  0  0  0  0  0
  -25.2768   -9.5679   22.4776 H   0  0  0  0  0  0
  -23.9999   -7.4635   22.7479 H   0  0  0  0  0  0
  -21.0842   -8.8792   19.8971 H   0  0  0  0  0  0
  -22.3699  -10.9693   19.6195 H   0  0  0  0  0  0
  -21.2002   -7.6150   23.9708 H   0  0  0  0  0  0
  -21.1477   -6.0530   25.9074 H   0  0  0  0  0  0
  -22.0600   -2.7612   23.2841 H   0  0  0  0  0  0
  -22.4063  -11.9850   22.4805 H   0  0  0  0  0  0
  -21.1091  -13.1249   22.2692 H   0  0  0  0  0  0
  -24.6369  -15.8368   20.4946 H   0  0  0  0  0  0
  -26.2364  -15.6193   19.9987 H   0  0  0  0  0  0
  -26.7168  -32.5418   23.1026 H   0  0  0  0  0  0
  -25.0069  -33.9705   25.0389 H   0  0  0  0  0  0
  -22.7163  -31.2982   21.3944 H   0  0  0  0  0  0
  -23.3773  -35.9578   23.3280 H   0  0  0  0  0  0
  -24.3605  -36.8929   22.2052 H   0  0  0  0  0  0
  -23.7239  -37.6458   23.6681 H   0  0  0  0  0  0
  -26.0986  -31.5205   20.6011 H   0  0  0  0  0  0
  -26.8460  -30.8253   22.0078 H   0  0  0  0  0  0
  -28.1134  -28.9246   21.2182 H   0  0  0  0  0  0
  -26.0063  -25.9511   18.9301 H   0  0  0  0  0  0
  -23.9758  -27.3171   18.9835 H   0  0  0  0  0  0
  -23.7669  -30.5868   19.4039 H   0  0  0  0  0  0
  -22.7591  -29.2464   19.8549 H   0  0  0  0  0  0
  -25.1287  -36.1888   25.0820 H   0  0  0  0  0  0
  -20.9952  -28.3209   24.1414 H   0  0  0  0  0  0
  -20.5658  -26.2247   23.3606 H   0  0  0  0  0  0
  -21.6641  -26.7393   22.1209 H   0  0  0  0  0  0
  -19.6940  -25.6278   21.1220 H   0  0  0  0  0  0
  -19.6716  -27.3158   20.6728 H   0  0  0  0  0  0
  -17.4205  -26.6634   21.4028 H   0  0  0  0  0  0
  -18.0346  -26.0021   22.9001 H   0  0  0  0  0  0
  -19.7965  -30.7210   24.2261 H   0  0  0  0  0  0
  -17.5056  -31.6258   24.5115 H   0  0  0  0  0  0
  -15.5370  -30.2965   23.7658 H   0  0  0  0  0  0
  -15.8680  -28.0792   22.7078 H   0  0  0  0  0  0
  -24.5863  -30.7091   25.7758 H   0  0  0  0  0  0
  -24.8895  -32.2915   26.4790 H   0  0  0  0  0  0
  -25.7996  -30.8945   27.0234 H   0  0  0  0  0  0
  -26.2873  -29.6756   24.1138 H   0  0  0  0  0  0
  -27.4051  -29.7201   25.4582 H   0  0  0  0  0  0
  -27.8735  -30.4307   23.9328 H   0  0  0  0  0  0
  -27.2626  -33.3583   26.2027 H   0  0  0  0  0  0
  -28.3845  -32.6825   25.0318 H   0  0  0  0  0  0
  -28.0667  -31.8422   26.5424 H   0  0  0  0  0  0
  -28.2539  -38.0121   24.7526 H   0  0  0  0  0  0
  -28.1128  -36.2646   24.6243 H   0  0  0  0  0  0
  -27.2309  -37.1357   25.8870 H   0  0  0  0  0  0
  -20.9334  -29.8769   21.6935 H   0  0  0  0  0  0
  -26.0169  -38.2838   24.1448 H   0  0  0  0  0  0
  -32.6584  -19.3101   19.1229 H   0  0  0  0  0  0
  -31.1435  -21.1245   19.7003 H   0  0  0  0  0  0
  -32.1180  -17.0013   19.5122 H   0  0  0  0  0  0
  -27.2371  -16.1046   25.5339 H   0  0  0  0  0  0
  -27.6779  -17.2262   26.7977 H   0  0  0  0  0  0
  -26.9582  -19.1493   25.4271 H   0  0  0  0  0  0
  -25.6529  -17.9957   25.5374 H   0  0  0  0  0  0
  -29.6791  -16.4775   25.4965 H   0  0  0  0  0  0
  -29.4564  -18.2053   25.3804 H   0  0  0  0  0  0
  -26.2189  -22.1454   18.5443 H   0  0  0  0  0  0
  -25.7333  -23.7737   18.1699 H   0  0  0  0  0  0
  -28.1544  -24.4727   18.1348 H   0  0  0  0  0  0
  -27.8572  -23.1988   16.9957 H   0  0  0  0  0  0
  -25.9440  -18.8485   23.2090 H   0  0  0  0  0  0
  -26.1409  -17.1165   23.2929 H   0  0  0  0  0  0
  -28.6338  -16.1367   23.2870 H   0  0  0  0  0  0
  -29.9616  -17.2671   23.1673 H   0  0  0  0  0  0
  -25.9832  -22.6922   20.7057 H   0  0  0  0  0  0
  -25.9035  -24.3850   20.4290 H   0  0  0  0  0  0
  -29.9413  -22.8995   18.4627 H   0  0  0  0  0  0
  -28.8754  -21.5331   18.3670 H   0  0  0  0  0  0
  -28.3807  -19.1785   23.2100 H   0  0  0  0  0  0
  -27.8155  -23.3748   21.8219 H   0  0  0  0  0  0
  -27.5888  -17.1025   21.1202 H   0  0  0  0  0  0
  -27.1374  -18.7579   21.0428 H   0  0  0  0  0  0
  -28.6059  -21.1896   21.9005 H   0  0  0  0  0  0
  -27.5965  -20.8499   20.5326 H   0  0  0  0  0  0
  -29.5139  -25.1475   21.1787 H   0  0  0  0  0  0
  -28.0240  -25.5480   21.9099 H   0  0  0  0  0  0
  -28.9127  -15.6906   20.9183 H   0  0  0  0  0  0
  -29.7886  -22.7737   20.5903 H   0  0  0  0  0  0
  1 25  1  0  0  0
  1 30  2  0  0  0
  1 91  1  0  0  0
  2  3  1  0  0  0
  2 25  1  0  0  0
  2 93  1  0  0  0
  2 94  1  0  0  0
  3  4  1  0  0  0
  3 95  1  0  0  0
  3 96  1  0  0  0
  4  5  1  0  0  0
  4 97  1  0  0  0
  4 98  1  0  0  0
  5  6  1  0  0  0
  5 26  1  0  0  0
  5 99  1  0  0  0
  6 25  1  0  0  0
  6100  1  0  0  0
  6101  1  0  0  0
  7  8  2  0  0  0
  7 26  1  0  0  0
  7 29  1  0  0  0
  8  9  1  0  0  0
  8 22  1  0  0  0
  9 10  1  0  0  0
  9 27  2  0  0  0
 10 11  2  0  0  0
 10 15  1  0  0  0
 11 12  1  0  0  0
 11102  1  0  0  0
 12 13  2  0  0  0
 12103  1  0  0  0
 13 14  1  0  0  0
 13 31  1  0  0  0
 14 15  2  0  0  0
 14104  1  0  0  0
 15105  1  0  0  0
 16 17  2  0  0  0
 16 21  1  0  0  0
 16 31  1  0  0  0
 17 18  1  0  0  0
 17106  1  0  0  0
 18 19  2  0  0  0
 18107  1  0  0  0
 19 20  1  0  0  0
 19 24  1  0  0  0
 20 21  2  0  0  0
 20108  1  0  0  0
 21 23  1  0  0  0
 22 28  1  0  0  0
 22 32  2  0  0  0
 26 27  1  0  0  0
 28109  1  0  0  0
 28110  1  0  0  0
 29111  1  0  0  0
 29112  1  0  0  0
 33 34  1  0  0  0
 33 66  1  0  0  0
 33 70  2  0  0  0
 34 36  1  0  0  0
 34 59  1  0  0  0
 34113  1  0  0  0
 35 44  2  0  0  0
 35 45  1  0  0  0
 35 68  1  0  0  0
 36 56  1  0  0  0
 36114  1  0  0  0
 37 39  1  0  0  0
 37 47  1  0  0  0
 37 66  1  0  0  0
 37115  1  0  0  0
 38 43  2  0  0  0
 38 46  1  0  0  0
 38 47  1  0  0  0
 39 64  1  0  0  0
 39 67  2  0  0  0
 40 52  1  0  0  0
 40 53  2  0  0  0
 40 58  1  0  0  0
 41116  1  0  0  0
 41117  1  0  0  0
 41118  1  0  0  0
 41 48  1  0  0  0
 42 43  1  0  0  0
 42 66  1  0  0  0
 42119  1  0  0  0
 42120  1  0  0  0
 43 44  1  0  0  0
 44121  1  0  0  0
 45 46  2  0  0  0
 45122  1  0  0  0
 46123  1  0  0  0
 47124  1  0  0  0
 47125  1  0  0  0
 48 56  1  0  0  0
 48 65  1  0  0  0
 48126  1  0  0  0
 49 50  1  0  0  0
 49 53  1  0  0  0
 49 64  1  0  0  0
 49127  1  0  0  0
 50 51  1  0  0  0
 50128  1  0  0  0
 50129  1  0  0  0
 51 52  1  0  0  0
 51130  1  0  0  0
 51131  1  0  0  0
 52132  1  0  0  0
 52133  1  0  0  0
 53 54  1  0  0  0
 54 55  2  0  0  0
 54134  1  0  0  0
 55 57  1  0  0  0
 55135  1  0  0  0
 56 69  2  0  0  0
 57 58  2  0  0  0
 57136  1  0  0  0
 58137  1  0  0  0
 59 60  1  0  0  0
 59 61  1  0  0  0
 59 62  1  0  0  0
 60138  1  0  0  0
 60139  1  0  0  0
 60140  1  0  0  0
 61141  1  0  0  0
 61142  1  0  0  0
 61143  1  0  0  0
 62144  1  0  0  0
 62145  1  0  0  0
 62146  1  0  0  0
 63 65  1  0  0  0
 63147  1  0  0  0
 63148  1  0  0  0
 63149  1  0  0  0
 64150  1  0  0  0
 65151  1  0  0  0
 68 90  1  0  0  0
 71 72  2  0  0  0
 71 73  1  0  0  0
 71152  1  0  0  0
 72 74  1  0  0  0
 72153  1  0  0  0
 73 76  2  0  0  0
 73154  1  0  0  0
 74 75  2  0  0  0
 74 89  1  0  0  0
 75 76  1  0  0  0
 75 88  1  0  0  0
 76 91  1  0  0  0
 77 78  1  0  0  0
 77 79  1  0  0  0
 77155  1  0  0  0
 77156  1  0  0  0
 78 82  1  0  0  0
 78157  1  0  0  0
 78158  1  0  0  0
 79 83  1  0  0  0
 79159  1  0  0  0
 79160  1  0  0  0
 80 81  1  0  0  0
 80 84  1  0  0  0
 80161  1  0  0  0
 80162  1  0  0  0
 81 85  1  0  0  0
 81163  1  0  0  0
 81164  1  0  0  0
 82 86  1  0  0  0
 82165  1  0  0  0
 82166  1  0  0  0
 83 86  1  0  0  0
 83167  1  0  0  0
 83168  1  0  0  0
 84 87  1  0  0  0
 84169  1  0  0  0
 84170  1  0  0  0
 85 92  1  0  0  0
 85171  1  0  0  0
 85172  1  0  0  0
 86 88  1  0  0  0
 86173  1  0  0  0
 87 90  1  0  0  0
 87 92  1  0  0  0
 87174  1  0  0  0
 88175  1  0  0  0
 88176  1  0  0  0
 89177  1  0  0  0
 89178  1  0  0  0
 89 92  1  0  0  0
 90179  1  0  0  0
 90180  1  0  0  0
 91181  1  0  0  0
 92182  1  0  0  0
M  CHG  1  92   1
M  ISO  4   1 100  68 101  90 101  91 100
M  END
> <chiral flag>
0

> <version>
0

> <s_m_source_file>
/data/baiqing/PycharmProjects/Reinvent-master-3.2/result/LINK_invent/BTK/process_docking_weight1_custom_product_contain_oxygen_bond_distance_aromatic_linkinvent_7_9_3/rearranged_h_0033.sdf

> <i_m_source_file_index>
1

> <r_mmod_Potential_Energy-OPLS-2005>
263.455627441406

> <r_mmod_Stretch_Energy-OPLS-2005>
141.268646240234

> <r_mmod_Bend_Energy-OPLS-2005>
211.888717651367

> <r_mmod_Torsional_Energy-OPLS-2005>
336.619079589844

> <r_mmod_Improper_Torsional_Energy-OPLS-2005>
4.87455987930298

> <r_mmod_Van_der_Waal_Energy-OPLS-2005>
141.22135925293

> <r_mmod_Electrostatic_Energy-OPLS-2005>
-236.982238769531

> <r_mmod_Solvation_Energy-OPLS-2005>
-412.987915039062

> <b_mmod_Minimization_Converged-OPLS-2005>
0

> <r_mmod_RMS_Derivative-OPLS-2005>
2.64421272277832

$$$$
1
                    3D
 Structure written by MMmdl.
158167  0  0  1  0            999 V2000
  -30.6349  -14.7279   20.4328 C   0  0  0  0  0  0
  -30.4270  -12.4391   19.4702 C   0  0  0  0  0  0
  -29.5030  -12.4926   18.2342 C   0  0  0  0  0  0
  -28.0316  -12.3207   18.6543 C   0  0  0  0  0  0
  -27.6411  -13.2301   19.8490 C   0  0  2  0  0  0
  -28.6884  -13.1750   20.9830 C   0  0  0  0  0  0
  -25.2517  -13.8200   20.5698 C   0  0  0  0  0  0
  -24.1802  -13.0447   20.9218 C   0  0  0  0  0  0
  -24.6387  -11.6924   20.8761 C   0  0  0  0  0  0
  -23.9070  -10.4298   21.0412 C   0  0  0  0  0  0
  -24.3615   -9.4214   21.9195 C   0  0  0  0  0  0
  -23.6290   -8.2243   22.0758 C   0  0  0  0  0  0
  -22.4278   -8.0272   21.3543 C   0  0  0  0  0  0
  -21.9915   -9.0251   20.4646 C   0  0  0  0  0  0
  -22.7240  -10.2134   20.3061 C   0  0  0  0  0  0
  -21.6852   -6.0725   22.5278 C   0  0  0  0  0  0
  -21.4012   -6.5634   23.8210 C   0  0  0  0  0  0
  -21.3663   -5.6794   24.9176 C   0  0  0  0  0  0
  -21.6043   -4.3056   24.7233 C   0  0  0  0  0  0
  -21.8819   -3.8143   23.4355 C   0  0  0  0  0  0
  -21.9193   -4.6951   22.3404 C   0  0  0  0  0  0
  -22.7827  -13.5231   21.1876 C   0  0  0  0  0  0
  -22.1663   -4.2138   21.0981 F   0  0  0  0  0  0
  -21.5633   -3.4540   25.7749 F   0  0  0  0  0  0
  -29.9915  -13.5107   20.3944 N   0  0  0  0  0  0
  -26.2937  -12.9403   20.3293 N   0  0  0  0  0  0
  -25.9324  -11.6553   20.5780 N   0  0  0  0  0  0
  -22.0473  -12.8191   22.0411 N   0  0  0  0  0  0
  -25.4225  -15.1913   20.4078 N   0  0  0  0  0  0
  -31.8347  -14.7753   20.1518 O   0  0  0  0  0  0
  -21.6638   -6.8867   21.4239 O   0  0  0  0  0  0
  -22.3518  -14.5543   20.6740 O   0  0  0  0  0  0
  -24.6320  -31.8544   23.2019 C   0  0  0  0  0  0
  -25.9146  -32.4758   23.8351 C   0  0  1  0  0  0
  -27.2167  -27.2706   20.1227 C   0  0  0  0  0  0
  -25.5948  -33.8559   24.2258 N   0  0  0  0  0  0
  -23.4266  -30.4786   21.5461 C   0  0  2  0  0  0
  -24.8740  -28.9343   20.1052 C   0  0  0  0  0  0
  -22.7504  -29.4581   22.4928 C   0  0  0  0  0  0
  -18.0281  -28.1378   22.8460 C   0  0  0  0  0  0
  -24.1489  -36.7273   23.2639 C   0  0  0  0  0  0
  -25.9733  -30.7718   21.3795 C   0  0  0  0  0  0
  -26.0457  -29.3974   20.7176 C   0  0  0  0  0  0
  -27.2200  -28.5782   20.7139 C   0  0  0  0  0  0
  -26.0274  -26.8852   19.4633 C   0  0  0  0  0  0
  -24.8711  -27.6867   19.4648 C   0  0  0  0  0  0
  -23.6438  -29.8188   20.1594 C   0  0  0  0  0  0
  -25.4117  -36.3061   24.0325 C   0  0  1  0  0  0
  -20.5883  -28.3677   23.1267 C   0  0  2  0  0  0
  -20.6774  -26.9396   22.5393 C   0  0  0  0  0  0
  -19.5754  -26.6372   21.5190 C   0  0  0  0  0  0
  -18.1926  -26.7911   22.1597 C   0  0  0  0  0  0
  -19.1538  -28.8839   23.2851 C   0  0  0  0  0  0
  -18.9462  -30.1433   23.8885 C   0  0  0  0  0  0
  -17.6464  -30.6572   24.0548 C   0  0  0  0  0  0
  -25.9063  -34.9440   23.5088 C   0  0  0  0  0  0
  -16.5351  -29.9067   23.6334 C   0  0  0  0  0  0
  -16.7274  -28.6491   23.0342 C   0  0  0  0  0  0
  -26.4517  -31.6588   25.0742 C   0  0  0  0  0  0
  -25.3739  -31.3698   26.1457 C   0  0  0  0  0  0
  -27.0382  -30.3032   24.6188 C   0  0  0  0  0  0
  -27.6062  -32.4347   25.7513 C   0  0  0  0  0  0
  -27.5572  -37.1795   24.8460 C   0  0  0  0  0  0
  -21.4209  -29.3036   22.3684 N   0  0  0  0  0  0
  -26.4274  -37.3777   23.9419 N   0  0  0  0  0  0
  -24.6968  -31.0519   22.0996 N   0  0  0  0  0  0
  -23.4202  -28.8101   23.3006 O   0  0  0  0  0  0
  -28.3071  -26.3714   20.2049 O   0  0  0  0  0  0
  -26.5626  -34.8910   22.4652 O   0  0  0  0  0  0
  -23.5477  -32.1366   23.7341 O   0  0  0  0  0  0
  -31.6141  -18.9935   19.1820 C   0  0  0  0  0  0
  -30.8034  -20.0636   19.6066 C   0  0  0  0  0  0
  -31.3017  -17.6578   19.5022 C   0  0  0  0  0  0
  -29.6415  -19.8381   20.3695 C   0  0  0  0  0  0
  -29.3534  -18.4443   20.7240 C   0  0  0  0  0  0
  -30.1778  -17.3176   20.2946 C   0  0  0  0  0  0
  -28.5472  -22.7935   18.9133 C   0  0  0  0  0  0
  -28.3103  -24.3004   18.6816 C   0  0  0  0  0  0
  -28.8564  -23.8049   20.9437 C   0  0  0  0  0  0
  -28.0720  -24.8867   20.0839 C   0  0  1  0  0  0
  -28.1437  -18.1324   21.5936 C   0  0  0  0  0  0
  -28.7907  -21.1085   20.8311 C   0  0  0  0  0  0
  -28.8679  -22.4994   20.1883 N   0  0  0  0  0  0
  -29.8790  -15.8842   20.5985 N   0  0  0  0  0  0
  -28.3962  -21.9684   18.0084 O   0  0  0  0  0  0
  -31.4677  -12.5482   19.1606 H   0  0  0  0  0  0
  -30.3643  -11.4660   19.9599 H   0  0  0  0  0  0
  -29.7790  -11.7155   17.5213 H   0  0  0  0  0  0
  -29.6270  -13.4451   17.7153 H   0  0  0  0  0  0
  -27.8929  -11.2735   18.9277 H   0  0  0  0  0  0
  -27.3690  -12.5025   17.8073 H   0  0  0  0  0  0
  -27.6342  -14.2483   19.4602 H   0  0  0  0  0  0
  -28.7196  -12.1835   21.4364 H   0  0  0  0  0  0
  -28.4307  -13.8707   21.7833 H   0  0  0  0  0  0
  -25.2755   -9.5682   22.4779 H   0  0  0  0  0  0
  -23.9999   -7.4629   22.7475 H   0  0  0  0  0  0
  -21.0852   -8.8765   19.8942 H   0  0  0  0  0  0
  -22.3702  -10.9672   19.6166 H   0  0  0  0  0  0
  -21.2000   -7.6139   23.9710 H   0  0  0  0  0  0
  -21.1488   -6.0524   25.9079 H   0  0  0  0  0  0
  -22.0594   -2.7603   23.2863 H   0  0  0  0  0  0
  -22.4100  -11.9828   22.4748 H   0  0  0  0  0  0
  -21.1094  -13.1199   22.2649 H   0  0  0  0  0  0
  -24.6509  -15.8421   20.5049 H   0  0  0  0  0  0
  -26.2560  -15.6213   20.0309 H   0  0  0  0  0  0
  -26.7204  -32.5425   23.1087 H   0  0  0  0  0  0
  -25.0132  -33.9702   25.0429 H   0  0  0  0  0  0
  -22.7230  -31.3016   21.4040 H   0  0  0  0  0  0
  -23.3759  -35.9590   23.3280 H   0  0  0  0  0  0
  -24.3582  -36.8932   22.2054 H   0  0  0  0  0  0
  -23.7221  -37.6460   23.6692 H   0  0  0  0  0  0
  -26.1090  -31.5331   20.6103 H   0  0  0  0  0  0
  -26.8518  -30.8198   22.0110 H   0  0  0  0  0  0
  -28.1141  -28.9262   21.2098 H   0  0  0  0  0  0
  -25.9593  -25.9411   18.9465 H   0  0  0  0  0  0
  -23.9804  -27.3303   18.9643 H   0  0  0  0  0  0
  -23.7660  -30.6004   19.4089 H   0  0  0  0  0  0
  -22.7633  -29.2520   19.8521 H   0  0  0  0  0  0
  -25.1293  -36.1897   25.0813 H   0  0  0  0  0  0
  -20.9957  -28.3253   24.1393 H   0  0  0  0  0  0
  -20.5681  -26.2282   23.3595 H   0  0  0  0  0  0
  -21.6638  -26.7445   22.1169 H   0  0  0  0  0  0
  -19.6928  -25.6288   21.1217 H   0  0  0  0  0  0
  -19.6689  -27.3177   20.6711 H   0  0  0  0  0  0
  -17.4194  -26.6644   21.3994 H   0  0  0  0  0  0
  -18.0322  -26.0055   22.8995 H   0  0  0  0  0  0
  -19.7947  -30.7230   24.2266 H   0  0  0  0  0  0
  -17.5029  -31.6264   24.5125 H   0  0  0  0  0  0
  -15.5355  -30.2958   23.7684 H   0  0  0  0  0  0
  -15.8667  -28.0821   22.7061 H   0  0  0  0  0  0
  -24.5938  -30.7027   25.7776 H   0  0  0  0  0  0
  -24.8892  -32.2838   26.4906 H   0  0  0  0  0  0
  -25.8052  -30.8869   27.0233 H   0  0  0  0  0  0
  -26.2959  -29.6775   24.1220 H   0  0  0  0  0  0
  -27.4113  -29.7302   25.4685 H   0  0  0  0  0  0
  -27.8811  -30.4359   23.9397 H   0  0  0  0  0  0
  -27.2682  -33.3688   26.2015 H   0  0  0  0  0  0
  -28.3905  -32.6842   25.0353 H   0  0  0  0  0  0
  -28.0683  -31.8515   26.5494 H   0  0  0  0  0  0
  -28.2550  -38.0132   24.7569 H   0  0  0  0  0  0
  -28.1102  -36.2666   24.6210 H   0  0  0  0  0  0
  -27.2299  -37.1355   25.8863 H   0  0  0  0  0  0
  -20.9403  -29.8831   21.6952 H   0  0  0  0  0  0
  -26.0144  -38.2837   24.1462 H   0  0  0  0  0  0
  -32.4980  -19.1992   18.5938 H   0  0  0  0  0  0
  -31.0897  -21.0713   19.3413 H   0  0  0  0  0  0
  -31.9633  -16.9023   19.1076 H   0  0  0  0  0  0
  -27.4686  -24.4653   18.0090 H   0  0  0  0  0  0
  -29.2008  -24.7316   18.2239 H   0  0  0  0  0  0
  -28.4058  -23.6868   21.9305 H   0  0  0  0  0  0
  -29.8896  -24.1235   21.0914 H   0  0  0  0  0  0
  -27.0318  -24.6951   20.3519 H   0  0  0  0  0  0
  -27.7891  -19.0015   22.1453 H   0  0  0  0  0  0
  -28.3913  -17.3749   22.3375 H   0  0  0  0  0  0
  -27.3221  -17.7556   20.9833 H   0  0  0  0  0  0
  -28.9948  -21.2412   21.8938 H   0  0  0  0  0  0
  -27.7405  -20.8232   20.7717 H   0  0  0  0  0  0
  -28.9292  -15.7030   20.8838 H   0  0  0  0  0  0
  1 25  1  0  0  0
  1 30  2  0  0  0
  1 84  1  0  0  0
  2  3  1  0  0  0
  2 25  1  0  0  0
  2 86  1  0  0  0
  2 87  1  0  0  0
  3  4  1  0  0  0
  3 88  1  0  0  0
  3 89  1  0  0  0
  4  5  1  0  0  0
  4 90  1  0  0  0
  4 91  1  0  0  0
  5  6  1  0  0  0
  5 26  1  0  0  0
  5 92  1  0  0  0
  6 25  1  0  0  0
  6 93  1  0  0  0
  6 94  1  0  0  0
  7  8  2  0  0  0
  7 26  1  0  0  0
  7 29  1  0  0  0
  8  9  1  0  0  0
  8 22  1  0  0  0
  9 10  1  0  0  0
  9 27  2  0  0  0
 10 11  2  0  0  0
 10 15  1  0  0  0
 11 12  1  0  0  0
 11 95  1  0  0  0
 12 13  2  0  0  0
 12 96  1  0  0  0
 13 14  1  0  0  0
 13 31  1  0  0  0
 14 15  2  0  0  0
 14 97  1  0  0  0
 15 98  1  0  0  0
 16 17  2  0  0  0
 16 21  1  0  0  0
 16 31  1  0  0  0
 17 18  1  0  0  0
 17 99  1  0  0  0
 18 19  2  0  0  0
 18100  1  0  0  0
 19 20  1  0  0  0
 19 24  1  0  0  0
 20 21  2  0  0  0
 20101  1  0  0  0
 21 23  1  0  0  0
 22 28  1  0  0  0
 22 32  2  0  0  0
 26 27  1  0  0  0
 28102  1  0  0  0
 28103  1  0  0  0
 29104  1  0  0  0
 29105  1  0  0  0
 33 34  1  0  0  0
 33 66  1  0  0  0
 33 70  2  0  0  0
 34 36  1  0  0  0
 34 59  1  0  0  0
 34106  1  0  0  0
 35 44  2  0  0  0
 35 45  1  0  0  0
 35 68  1  0  0  0
 36 56  1  0  0  0
 36107  1  0  0  0
 37 39  1  0  0  0
 37 47  1  0  0  0
 37 66  1  0  0  0
 37108  1  0  0  0
 38 43  2  0  0  0
 38 46  1  0  0  0
 38 47  1  0  0  0
 39 64  1  0  0  0
 39 67  2  0  0  0
 40 52  1  0  0  0
 40 53  2  0  0  0
 40 58  1  0  0  0
 41109  1  0  0  0
 41110  1  0  0  0
 41111  1  0  0  0
 41 48  1  0  0  0
 42 43  1  0  0  0
 42 66  1  0  0  0
 42112  1  0  0  0
 42113  1  0  0  0
 43 44  1  0  0  0
 44114  1  0  0  0
 45 46  2  0  0  0
 45115  1  0  0  0
 46116  1  0  0  0
 47117  1  0  0  0
 47118  1  0  0  0
 48 56  1  0  0  0
 48 65  1  0  0  0
 48119  1  0  0  0
 49 50  1  0  0  0
 49 53  1  0  0  0
 49 64  1  0  0  0
 49120  1  0  0  0
 50 51  1  0  0  0
 50121  1  0  0  0
 50122  1  0  0  0
 51 52  1  0  0  0
 51123  1  0  0  0
 51124  1  0  0  0
 52125  1  0  0  0
 52126  1  0  0  0
 53 54  1  0  0  0
 54 55  2  0  0  0
 54127  1  0  0  0
 55 57  1  0  0  0
 55128  1  0  0  0
 56 69  2  0  0  0
 57 58  2  0  0  0
 57129  1  0  0  0
 58130  1  0  0  0
 59 60  1  0  0  0
 59 61  1  0  0  0
 59 62  1  0  0  0
 60131  1  0  0  0
 60132  1  0  0  0
 60133  1  0  0  0
 61134  1  0  0  0
 61135  1  0  0  0
 61136  1  0  0  0
 62137  1  0  0  0
 62138  1  0  0  0
 62139  1  0  0  0
 63 65  1  0  0  0
 63140  1  0  0  0
 63141  1  0  0  0
 63142  1  0  0  0
 64143  1  0  0  0
 65144  1  0  0  0
 68 80  1  0  0  0
 71 72  2  0  0  0
 71 73  1  0  0  0
 71145  1  0  0  0
 72 74  1  0  0  0
 72146  1  0  0  0
 73 76  2  0  0  0
 73147  1  0  0  0
 74 75  2  0  0  0
 74 82  1  0  0  0
 75 76  1  0  0  0
 75 81  1  0  0  0
 76 84  1  0  0  0
 77 78  1  0  0  0
 77 83  1  0  0  0
 77 85  2  0  0  0
 78 80  1  0  0  0
 78148  1  0  0  0
 78149  1  0  0  0
 79 80  1  0  0  0
 79 83  1  0  0  0
 79150  1  0  0  0
 79151  1  0  0  0
 80152  1  0  0  0
 81153  1  0  0  0
 81154  1  0  0  0
 81155  1  0  0  0
 82 83  1  0  0  0
 82156  1  0  0  0
 82157  1  0  0  0
 84158  1  0  0  0
M  ISO  4   1 100  68 101  80 101  84 100
M  END
> <chiral flag>
0

> <version>
0

> <s_m_source_file>
/data/baiqing/PycharmProjects/Reinvent-master-3.2/result/LINK_invent/BTK/process_docking_weight1_custom_product_contain_oxygen_bond_distance_aromatic_linkinvent_7_9_3/rearranged_h_0033.sdf

> <i_m_source_file_index>
2

> <r_mmod_Potential_Energy-OPLS-2005>
133.281021118164

> <r_mmod_Stretch_Energy-OPLS-2005>
121.759918212891

> <r_mmod_Bend_Energy-OPLS-2005>
193.184173583984

> <r_mmod_Torsional_Energy-OPLS-2005>
235.649948120117

> <r_mmod_Improper_Torsional_Energy-OPLS-2005>
5.56194591522217

> <r_mmod_Van_der_Waal_Energy-OPLS-2005>
139.952941894531

> <r_mmod_Electrostatic_Energy-OPLS-2005>
-408.910308837891

> <r_mmod_Solvation_Energy-OPLS-2005>
-235.988159179688

> <b_mmod_Minimization_Converged-OPLS-2005>
0

> <r_mmod_RMS_Derivative-OPLS-2005>
2.21932482719421

$$$$
2
                    3D
 Structure written by MMmdl.
162171  0  0  1  0            999 V2000
  -30.5923  -14.8863   20.4333 C   0  0  0  0  0  0
  -30.4216  -12.5464   19.5098 C   0  0  0  0  0  0
  -29.5157  -12.5179   18.2589 C   0  0  0  0  0  0
  -28.0484  -12.3065   18.6735 C   0  0  0  0  0  0
  -27.6244  -13.2442   19.8338 C   0  0  2  0  0  0
  -28.6598  -13.2856   20.9745 C   0  0  0  0  0  0
  -25.2462  -13.8216   20.5708 C   0  0  0  0  0  0
  -24.1766  -13.0443   20.9202 C   0  0  0  0  0  0
  -24.6376  -11.6924   20.8742 C   0  0  0  0  0  0
  -23.9062  -10.4292   21.0406 C   0  0  0  0  0  0
  -24.3617   -9.4210   21.9187 C   0  0  0  0  0  0
  -23.6294   -8.2243   22.0761 C   0  0  0  0  0  0
  -22.4278   -8.0275   21.3541 C   0  0  0  0  0  0
  -21.9912   -9.0250   20.4646 C   0  0  0  0  0  0
  -22.7236  -10.2129   20.3057 C   0  0  0  0  0  0
  -21.6858   -6.0732   22.5281 C   0  0  0  0  0  0
  -21.4012   -6.5637   23.8212 C   0  0  0  0  0  0
  -21.3658   -5.6794   24.9172 C   0  0  0  0  0  0
  -21.6045   -4.3057   24.7226 C   0  0  0  0  0  0
  -21.8819   -3.8142   23.4347 C   0  0  0  0  0  0
  -21.9190   -4.6956   22.3399 C   0  0  0  0  0  0
  -22.7789  -13.5218   21.1861 C   0  0  0  0  0  0
  -22.1662   -4.2145   21.0976 F   0  0  0  0  0  0
  -21.5630   -3.4542   25.7736 F   0  0  0  0  0  0
  -29.9478  -13.6564   20.3854 N   0  0  0  0  0  0
  -26.2858  -12.9432   20.3223 N   0  0  0  0  0  0
  -25.9306  -11.6566   20.5733 N   0  0  0  0  0  0
  -22.0444  -12.8200   22.0413 N   0  0  0  0  0  0
  -25.4187  -15.1943   20.4189 N   0  0  0  0  0  0
  -31.7979  -14.8783   20.1614 O   0  0  0  0  0  0
  -21.6642   -6.8873   21.4240 O   0  0  0  0  0  0
  -22.3468  -14.5527   20.6716 O   0  0  0  0  0  0
  -24.6372  -31.8462   23.1868 C   0  0  0  0  0  0
  -25.9171  -32.4695   23.8243 C   0  0  1  0  0  0
  -27.2162  -27.1715   20.1629 C   0  0  0  0  0  0
  -25.5958  -33.8499   24.2186 N   0  0  0  0  0  0
  -23.4369  -30.4633   21.5307 C   0  0  2  0  0  0
  -24.8830  -28.8860   20.1085 C   0  0  0  0  0  0
  -22.7529  -29.4542   22.4855 C   0  0  0  0  0  0
  -18.0302  -28.1384   22.8481 C   0  0  0  0  0  0
  -24.1496  -36.7245   23.2640 C   0  0  0  0  0  0
  -25.9848  -30.7358   21.3710 C   0  0  0  0  0  0
  -26.0531  -29.3464   20.7196 C   0  0  0  0  0  0
  -27.2171  -28.5054   20.7249 C   0  0  0  0  0  0
  -26.0210  -26.7884   19.5197 C   0  0  0  0  0  0
  -24.8767  -27.6200   19.4931 C   0  0  0  0  0  0
  -23.6564  -29.7838   20.1505 C   0  0  0  0  0  0
  -25.4127  -36.3031   24.0327 C   0  0  1  0  0  0
  -20.5906  -28.3693   23.1257 C   0  0  2  0  0  0
  -20.6782  -26.9405   22.5416 C   0  0  0  0  0  0
  -19.5762  -26.6385   21.5208 C   0  0  0  0  0  0
  -18.1939  -26.7932   22.1613 C   0  0  0  0  0  0
  -19.1557  -28.8856   23.2862 C   0  0  0  0  0  0
  -18.9477  -30.1455   23.8879 C   0  0  0  0  0  0
  -17.6477  -30.6585   24.0547 C   0  0  0  0  0  0
  -25.9082  -34.9414   23.5064 C   0  0  0  0  0  0
  -16.5366  -29.9084   23.6323 C   0  0  0  0  0  0
  -16.7290  -28.6500   23.0350 C   0  0  0  0  0  0
  -26.4520  -31.6543   25.0654 C   0  0  0  0  0  0
  -25.3740  -31.3695   26.1362 C   0  0  0  0  0  0
  -27.0341  -30.2952   24.6143 C   0  0  0  0  0  0
  -27.6070  -32.4280   25.7446 C   0  0  0  0  0  0
  -27.5575  -37.1771   24.8472 C   0  0  0  0  0  0
  -21.4227  -29.3031   22.3625 N   0  0  0  0  0  0
  -26.4276  -37.3753   23.9423 N   0  0  0  0  0  0
  -24.7059  -31.0367   22.0857 N   0  0  0  0  0  0
  -23.4208  -28.8093   23.2979 O   0  0  0  0  0  0
  -28.3434  -26.2987   20.2578 O   0  0  0  0  0  0
  -26.5651  -34.8919   22.4629 O   0  0  0  0  0  0
  -23.5516  -32.1294   23.7150 O   0  0  0  0  0  0
  -28.9601  -16.9039   19.7171 C   0  0  0  0  0  0
  -29.9914  -18.7383   21.5038 C   0  0  0  0  0  0
  -29.9348  -16.3410   20.6075 C   0  0  0  0  0  0
  -28.5107  -18.2882   19.7171 C   0  0  0  0  0  0
  -30.4405  -17.3547   21.5040 C   0  0  0  0  0  0
  -29.0120  -19.3023   20.6199 C   0  0  0  0  0  0
  -28.5968  -22.5608   18.8484 C   0  0  0  0  0  0
  -28.8499  -21.7068   17.8439 C   0  0  0  0  0  0
  -28.1910  -24.0578   18.7088 C   0  0  0  0  0  0
  -28.3500  -23.5050   21.0096 C   0  0  0  0  0  0
  -28.5194  -24.7737   20.0299 C   0  0  2  0  0  0
  -27.4458  -18.6288   18.6858 C   0  0  0  0  0  0
  -31.5010  -16.9750   22.5271 C   0  0  0  0  0  0
  -28.3677  -20.8112   20.8487 C   0  0  0  0  0  0
  -28.8308  -22.2147   20.2983 N   0  3  1  0  0  0
  -31.4628  -12.6647   19.2086 H   0  0  0  0  0  0
  -30.3766  -11.5950   20.0427 H   0  0  0  0  0  0
  -29.8308  -11.7256   17.5785 H   0  0  0  0  0  0
  -29.6139  -13.4549   17.7090 H   0  0  0  0  0  0
  -27.9468  -11.2668   18.9892 H   0  0  0  0  0  0
  -27.3841  -12.4302   17.8169 H   0  0  0  0  0  0
  -27.5857  -14.2406   19.3988 H   0  0  0  0  0  0
  -28.7277  -12.3226   21.4829 H   0  0  0  0  0  0
  -28.3676  -14.0180   21.7284 H   0  0  0  0  0  0
  -25.2760   -9.5690   22.4767 H   0  0  0  0  0  0
  -24.0000   -7.4639   22.7495 H   0  0  0  0  0  0
  -21.0842   -8.8759   19.8963 H   0  0  0  0  0  0
  -22.3687  -10.9661   19.6165 H   0  0  0  0  0  0
  -21.2009   -7.6149   23.9706 H   0  0  0  0  0  0
  -21.1482   -6.0529   25.9076 H   0  0  0  0  0  0
  -22.0600   -2.7607   23.2846 H   0  0  0  0  0  0
  -22.4071  -11.9842   22.4753 H   0  0  0  0  0  0
  -21.1072  -13.1226   22.2662 H   0  0  0  0  0  0
  -24.6617  -15.8549   20.5560 H   0  0  0  0  0  0
  -26.2930  -15.6367   20.1654 H   0  0  0  0  0  0
  -26.7219  -32.5298   23.0959 H   0  0  0  0  0  0
  -25.0162  -33.9617   25.0369 H   0  0  0  0  0  0
  -22.7357  -31.2858   21.3761 H   0  0  0  0  0  0
  -23.3774  -35.9552   23.3285 H   0  0  0  0  0  0
  -24.3605  -36.8879   22.2057 H   0  0  0  0  0  0
  -23.7228  -37.6436   23.6672 H   0  0  0  0  0  0
  -26.1283  -31.4884   20.5940 H   0  0  0  0  0  0
  -26.8634  -30.7909   22.0028 H   0  0  0  0  0  0
  -28.1144  -28.8573   21.2126 H   0  0  0  0  0  0
  -25.9428  -25.8188   19.0556 H   0  0  0  0  0  0
  -23.9779  -27.2624   19.0097 H   0  0  0  0  0  0
  -23.7858  -30.5537   19.3892 H   0  0  0  0  0  0
  -22.7728  -29.2191   19.8461 H   0  0  0  0  0  0
  -25.1312  -36.1852   25.0815 H   0  0  0  0  0  0
  -21.0003  -28.3279   24.1376 H   0  0  0  0  0  0
  -20.5669  -26.2303   23.3624 H   0  0  0  0  0  0
  -21.6648  -26.7422   22.1211 H   0  0  0  0  0  0
  -19.6931  -25.6302   21.1224 H   0  0  0  0  0  0
  -19.6700  -27.3197   20.6738 H   0  0  0  0  0  0
  -17.4218  -26.6682   21.4012 H   0  0  0  0  0  0
  -18.0333  -26.0064   22.8999 H   0  0  0  0  0  0
  -19.7958  -30.7261   24.2243 H   0  0  0  0  0  0
  -17.5039  -31.6259   24.5157 H   0  0  0  0  0  0
  -15.5364  -30.2970   23.7669 H   0  0  0  0  0  0
  -15.8692  -28.0805   22.7077 H   0  0  0  0  0  0
  -24.5984  -30.6968   25.7693 H   0  0  0  0  0  0
  -24.8852  -32.2839   26.4717 H   0  0  0  0  0  0
  -25.8069  -30.8955   27.0177 H   0  0  0  0  0  0
  -26.2907  -29.6718   24.1153 H   0  0  0  0  0  0
  -27.3995  -29.7199   25.4655 H   0  0  0  0  0  0
  -27.8806  -30.4211   23.9393 H   0  0  0  0  0  0
  -27.2713  -33.3632   26.1933 H   0  0  0  0  0  0
  -28.3937  -32.6730   25.0303 H   0  0  0  0  0  0
  -28.0652  -31.8444   26.5434 H   0  0  0  0  0  0
  -28.2584  -38.0079   24.7529 H   0  0  0  0  0  0
  -28.1088  -36.2609   24.6284 H   0  0  0  0  0  0
  -27.2302  -37.1395   25.8879 H   0  0  0  0  0  0
  -20.9419  -29.8727   21.6793 H   0  0  0  0  0  0
  -26.0148  -38.2821   24.1428 H   0  0  0  0  0  0
  -28.5526  -16.2506   18.9579 H   0  0  0  0  0  0
  -30.4099  -19.3963   22.2543 H   0  0  0  0  0  0
  -28.7276  -22.0092   16.8140 H   0  0  0  0  0  0
  -29.1995  -20.7014   18.0267 H   0  0  0  0  0  0
  -27.1276  -24.1025   18.4852 H   0  0  0  0  0  0
  -28.7284  -24.5222   17.8825 H   0  0  0  0  0  0
  -27.2941  -23.3980   21.2645 H   0  0  0  0  0  0
  -28.8914  -23.6419   21.9457 H   0  0  0  0  0  0
  -29.6079  -24.8227   19.9889 H   0  0  0  0  0  0
  -26.6223  -17.9167   18.7391 H   0  0  0  0  0  0
  -27.8729  -18.5618   17.6851 H   0  0  0  0  0  0
  -27.0216  -19.6244   18.7934 H   0  0  0  0  0  0
  -31.6632  -17.7650   23.2619 H   0  0  0  0  0  0
  -32.4557  -16.7771   22.0381 H   0  0  0  0  0  0
  -31.2040  -16.0825   23.0783 H   0  0  0  0  0  0
  -28.4097  -20.9367   21.9304 H   0  0  0  0  0  0
  -27.2983  -20.7485   20.6561 H   0  0  0  0  0  0
  -29.8299  -22.2025   20.4414 H   0  0  0  0  0  0
  1 25  1  0  0  0
  1 30  2  0  0  0
  1 73  1  0  0  0
  2  3  1  0  0  0
  2 25  1  0  0  0
  2 86  1  0  0  0
  2 87  1  0  0  0
  3  4  1  0  0  0
  3 88  1  0  0  0
  3 89  1  0  0  0
  4  5  1  0  0  0
  4 90  1  0  0  0
  4 91  1  0  0  0
  5  6  1  0  0  0
  5 26  1  0  0  0
  5 92  1  0  0  0
  6 25  1  0  0  0
  6 93  1  0  0  0
  6 94  1  0  0  0
  7  8  2  0  0  0
  7 26  1  0  0  0
  7 29  1  0  0  0
  8  9  1  0  0  0
  8 22  1  0  0  0
  9 10  1  0  0  0
  9 27  2  0  0  0
 10 11  2  0  0  0
 10 15  1  0  0  0
 11 12  1  0  0  0
 11 95  1  0  0  0
 12 13  2  0  0  0
 12 96  1  0  0  0
 13 14  1  0  0  0
 13 31  1  0  0  0
 14 15  2  0  0  0
 14 97  1  0  0  0
 15 98  1  0  0  0
 16 17  2  0  0  0
 16 21  1  0  0  0
 16 31  1  0  0  0
 17 18  1  0  0  0
 17 99  1  0  0  0
 18 19  2  0  0  0
 18100  1  0  0  0
 19 20  1  0  0  0
 19 24  1  0  0  0
 20 21  2  0  0  0
 20101  1  0  0  0
 21 23  1  0  0  0
 22 28  1  0  0  0
 22 32  2  0  0  0
 26 27  1  0  0  0
 28102  1  0  0  0
 28103  1  0  0  0
 29104  1  0  0  0
 29105  1  0  0  0
 33 34  1  0  0  0
 33 66  1  0  0  0
 33 70  2  0  0  0
 34 36  1  0  0  0
 34 59  1  0  0  0
 34106  1  0  0  0
 35 44  2  0  0  0
 35 45  1  0  0  0
 35 68  1  0  0  0
 36 56  1  0  0  0
 36107  1  0  0  0
 37 39  1  0  0  0
 37 47  1  0  0  0
 37 66  1  0  0  0
 37108  1  0  0  0
 38 43  2  0  0  0
 38 46  1  0  0  0
 38 47  1  0  0  0
 39 64  1  0  0  0
 39 67  2  0  0  0
 40 52  1  0  0  0
 40 53  2  0  0  0
 40 58  1  0  0  0
 41109  1  0  0  0
 41110  1  0  0  0
 41111  1  0  0  0
 41 48  1  0  0  0
 42 43  1  0  0  0
 42 66  1  0  0  0
 42112  1  0  0  0
 42113  1  0  0  0
 43 44  1  0  0  0
 44114  1  0  0  0
 45 46  2  0  0  0
 45115  1  0  0  0
 46116  1  0  0  0
 47117  1  0  0  0
 47118  1  0  0  0
 48 56  1  0  0  0
 48 65  1  0  0  0
 48119  1  0  0  0
 49 50  1  0  0  0
 49 53  1  0  0  0
 49 64  1  0  0  0
 49120  1  0  0  0
 50 51  1  0  0  0
 50121  1  0  0  0
 50122  1  0  0  0
 51 52  1  0  0  0
 51123  1  0  0  0
 51124  1  0  0  0
 52125  1  0  0  0
 52126  1  0  0  0
 53 54  1  0  0  0
 54 55  2  0  0  0
 54127  1  0  0  0
 55 57  1  0  0  0
 55128  1  0  0  0
 56 69  2  0  0  0
 57 58  2  0  0  0
 57129  1  0  0  0
 58130  1  0  0  0
 59 60  1  0  0  0
 59 61  1  0  0  0
 59 62  1  0  0  0
 60131  1  0  0  0
 60132  1  0  0  0
 60133  1  0  0  0
 61134  1  0  0  0
 61135  1  0  0  0
 61136  1  0  0  0
 62137  1  0  0  0
 62138  1  0  0  0
 62139  1  0  0  0
 63 65  1  0  0  0
 63140  1  0  0  0
 63141  1  0  0  0
 63142  1  0  0  0
 64143  1  0  0  0
 65144  1  0  0  0
 68 81  1  0  0  0
 71 73  2  0  0  0
 71 74  1  0  0  0
 71145  1  0  0  0
 72 75  2  0  0  0
 72 76  1  0  0  0
 72146  1  0  0  0
 73 75  1  0  0  0
 74 76  2  0  0  0
 74 82  1  0  0  0
 75 83  1  0  0  0
 76 84  1  0  0  0
 77 78  2  0  0  0
 77 79  1  0  0  0
 77 85  1  0  0  0
 78147  1  0  0  0
 78148  1  0  0  0
 79 81  1  0  0  0
 79149  1  0  0  0
 79150  1  0  0  0
 80 81  1  0  0  0
 80 85  1  0  0  0
 80151  1  0  0  0
 80152  1  0  0  0
 81153  1  0  0  0
 82154  1  0  0  0
 82155  1  0  0  0
 82156  1  0  0  0
 83157  1  0  0  0
 83158  1  0  0  0
 83159  1  0  0  0
 84160  1  0  0  0
 84161  1  0  0  0
 84 85  1  0  0  0
 85162  1  0  0  0
M  CHG  1  85   1
M  ISO  4   1 100  68 101  73 100  81 101
M  END
> <chiral flag>
0

> <version>
0

> <s_m_source_file>
/data/baiqing/PycharmProjects/Reinvent-master-3.2/result/LINK_invent/BTK/process_docking_weight1_custom_product_contain_oxygen_bond_distance_aromatic_linkinvent_7_9_3/rearranged_h_0033.sdf

> <i_m_source_file_index>
3

> <r_mmod_Potential_Energy-OPLS-2005>
440.065185546875

> <r_mmod_Stretch_Energy-OPLS-2005>
195.358993530273

> <r_mmod_Bend_Energy-OPLS-2005>
348.452575683594

> <r_mmod_Torsional_Energy-OPLS-2005>
211.304656982422

> <r_mmod_Improper_Torsional_Energy-OPLS-2005>
6.65235090255737

> <r_mmod_Van_der_Waal_Energy-OPLS-2005>
121.257186889648

> <r_mmod_Electrostatic_Energy-OPLS-2005>
-179.885101318359

> <r_mmod_Solvation_Energy-OPLS-2005>
-412.67919921875

> <b_mmod_Minimization_Converged-OPLS-2005>
0

> <r_mmod_RMS_Derivative-OPLS-2005>
2.20848226547241

$$$$
3
                    3D
 Structure written by MMmdl.
167176  0  0  1  0            999 V2000
  -30.6795  -14.5598   20.4683 C   0  0  0  0  0  0
  -30.4227  -12.3321   19.4609 C   0  0  0  0  0  0
  -29.5073  -12.4845   18.2266 C   0  0  0  0  0  0
  -28.0280  -12.3508   18.6340 C   0  0  0  0  0  0
  -27.6579  -13.2192   19.8677 C   0  0  2  0  0  0
  -28.7004  -13.0715   21.0027 C   0  0  0  0  0  0
  -25.2579  -13.8156   20.5645 C   0  0  0  0  0  0
  -24.1845  -13.0445   20.9160 C   0  0  0  0  0  0
  -24.6423  -11.6919   20.8732 C   0  0  0  0  0  0
  -23.9092  -10.4305   21.0393 C   0  0  0  0  0  0
  -24.3634   -9.4225   21.9164 C   0  0  0  0  0  0
  -23.6316   -8.2252   22.0725 C   0  0  0  0  0  0
  -22.4285   -8.0287   21.3531 C   0  0  0  0  0  0
  -21.9935   -9.0256   20.4630 C   0  0  0  0  0  0
  -22.7266  -10.2136   20.3049 C   0  0  0  0  0  0
  -21.6864   -6.0751   22.5275 C   0  0  0  0  0  0
  -21.4010   -6.5644   23.8208 C   0  0  0  0  0  0
  -21.3661   -5.6792   24.9163 C   0  0  0  0  0  0
  -21.6039   -4.3057   24.7214 C   0  0  0  0  0  0
  -21.8822   -3.8158   23.4335 C   0  0  0  0  0  0
  -21.9190   -4.6981   22.3393 C   0  0  0  0  0  0
  -22.7865  -13.5253   21.1866 C   0  0  0  0  0  0
  -22.1661   -4.2171   21.0974 F   0  0  0  0  0  0
  -21.5651   -3.4535   25.7732 F   0  0  0  0  0  0
  -30.0267  -13.3627   20.4402 N   0  0  0  0  0  0
  -26.3023  -12.9357   20.3328 N   0  0  0  0  0  0
  -25.9357  -11.6512   20.5767 N   0  0  0  0  0  0
  -22.0503  -12.8201   22.0397 N   0  0  0  0  0  0
  -25.4338  -15.1861   20.3998 N   0  0  0  0  0  0
  -31.8292  -14.6662   20.0490 O   0  0  0  0  0  0
  -21.6645   -6.8888   21.4230 O   0  0  0  0  0  0
  -22.3566  -14.5586   20.6799 O   0  0  0  0  0  0
  -24.6193  -31.8676   23.2086 C   0  0  0  0  0  0
  -25.9077  -32.4815   23.8380 C   0  0  1  0  0  0
  -27.2181  -27.3919   20.1172 C   0  0  0  0  0  0
  -25.5935  -33.8610   24.2337 N   0  0  0  0  0  0
  -23.4077  -30.4947   21.5505 C   0  0  2  0  0  0
  -24.8495  -28.9633   20.1114 C   0  0  0  0  0  0
  -22.7435  -29.4685   22.4979 C   0  0  0  0  0  0
  -18.0297  -28.1388   22.8506 C   0  0  0  0  0  0
  -24.1497  -36.7308   23.2632 C   0  0  0  0  0  0
  -25.9384  -30.8288   21.3582 C   0  0  0  0  0  0
  -26.0148  -29.4594   20.7080 C   0  0  0  0  0  0
  -27.2020  -28.6850   20.7036 C   0  0  0  0  0  0
  -26.0315  -26.9345   19.4959 C   0  0  0  0  0  0
  -24.8563  -27.7024   19.4980 C   0  0  0  0  0  0
  -23.6140  -29.8340   20.1629 C   0  0  0  0  0  0
  -25.4111  -36.3100   24.0338 C   0  0  1  0  0  0
  -20.5889  -28.3684   23.1316 C   0  0  2  0  0  0
  -20.6797  -26.9425   22.5419 C   0  0  0  0  0  0
  -19.5770  -26.6408   21.5223 C   0  0  0  0  0  0
  -18.1942  -26.7948   22.1628 C   0  0  0  0  0  0
  -19.1540  -28.8857   23.2917 C   0  0  0  0  0  0
  -18.9450  -30.1461   23.8925 C   0  0  0  0  0  0
  -17.6443  -30.6585   24.0579 C   0  0  0  0  0  0
  -25.9033  -34.9468   23.5131 C   0  0  0  0  0  0
  -16.5347  -29.9079   23.6329 C   0  0  0  0  0  0
  -16.7285  -28.6508   23.0346 C   0  0  0  0  0  0
  -26.4499  -31.6565   25.0687 C   0  0  0  0  0  0
  -25.3788  -31.3646   26.1455 C   0  0  0  0  0  0
  -27.0293  -30.3015   24.5999 C   0  0  0  0  0  0
  -27.6094  -32.4259   25.7456 C   0  0  0  0  0  0
  -27.5588  -37.1807   24.8472 C   0  0  0  0  0  0
  -21.4165  -29.3051   22.3708 N   0  0  0  0  0  0
  -26.4301  -37.3779   23.9415 N   0  0  0  0  0  0
  -24.6754  -31.0773   22.0979 N   0  0  0  0  0  0
  -23.4194  -28.8220   23.3025 O   0  0  0  0  0  0
  -28.3617  -26.6060   20.1762 O   0  0  0  0  0  0
  -26.5575  -34.8925   22.4675 O   0  0  0  0  0  0
  -23.5388  -32.1431   23.7462 O   0  0  0  0  0  0
  -32.3670  -19.7244   21.0738 C   0  0  0  0  0  0
  -29.6271  -19.3596   20.7052 C   0  0  0  0  0  0
  -31.8955  -18.4815   20.6102 C   0  0  0  0  0  0
  -31.4960  -20.8009   21.3204 C   0  0  0  0  0  0
  -30.5016  -18.2535   20.4679 C   0  0  0  0  0  0
  -30.1049  -20.6527   21.0904 C   0  0  0  0  0  0
  -28.7463  -23.0766   19.0666 C   0  0  0  0  0  0
  -28.5786  -22.0191   18.2551 C   0  0  0  0  0  0
  -28.2396  -24.4916   18.8530 C   0  0  0  0  0  0
  -29.2952  -24.3980   21.0038 C   0  0  0  0  0  0
  -28.1913  -25.1576   20.2315 C   0  0  1  0  0  0
  -32.9340  -17.4470   20.2190 C   0  0  0  0  0  0
  -32.1157  -22.1017   21.8055 C   0  0  0  0  0  0
  -29.9463  -16.9173   19.8937 C   0  0  0  0  0  0
  -29.1403  -21.8588   21.2739 C   0  0  0  0  0  0
  -29.9229  -15.6638   20.7065 N   0  0  0  0  0  0
  -29.4395  -23.0382   20.3873 N   0  3  2  0  0  0
  -31.4708  -12.4103   19.1633 H   0  0  0  0  0  0
  -30.3174  -11.3401   19.9003 H   0  0  0  0  0  0
  -29.7552  -11.7292   17.4807 H   0  0  0  0  0  0
  -29.6771  -13.4485   17.7465 H   0  0  0  0  0  0
  -27.8423  -11.2968   18.8506 H   0  0  0  0  0  0
  -27.3819  -12.6075   17.7946 H   0  0  0  0  0  0
  -27.6825  -14.2547   19.5309 H   0  0  0  0  0  0
  -28.6836  -12.0634   21.4179 H   0  0  0  0  0  0
  -28.4638  -13.7368   21.8336 H   0  0  0  0  0  0
  -25.2773   -9.5737   22.4747 H   0  0  0  0  0  0
  -24.0048   -7.4645   22.7433 H   0  0  0  0  0  0
  -21.0873   -8.8794   19.8915 H   0  0  0  0  0  0
  -22.3724  -10.9682   19.6180 H   0  0  0  0  0  0
  -21.1984   -7.6147   23.9727 H   0  0  0  0  0  0
  -21.1489   -6.0505   25.9068 H   0  0  0  0  0  0
  -22.0606   -2.7624   23.2821 H   0  0  0  0  0  0
  -22.4131  -11.9852   22.4755 H   0  0  0  0  0  0
  -21.1131  -13.1226   22.2637 H   0  0  0  0  0  0
  -24.6803  -15.8539   20.5186 H   0  0  0  0  0  0
  -26.2890  -15.6107   20.0653 H   0  0  0  0  0  0
  -26.7159  -32.5533   23.1151 H   0  0  0  0  0  0
  -25.0144  -33.9785   25.0531 H   0  0  0  0  0  0
  -22.6981  -31.3127   21.4130 H   0  0  0  0  0  0
  -23.3762  -35.9638   23.3280 H   0  0  0  0  0  0
  -24.3613  -36.8935   22.2057 H   0  0  0  0  0  0
  -23.7249  -37.6510   23.6654 H   0  0  0  0  0  0
  -26.0441  -31.5912   20.5841 H   0  0  0  0  0  0
  -26.8298  -30.8875   21.9722 H   0  0  0  0  0  0
  -28.0974  -29.0617   21.1806 H   0  0  0  0  0  0
  -25.9747  -25.9781   19.0077 H   0  0  0  0  0  0
  -23.9617  -27.3160   19.0281 H   0  0  0  0  0  0
  -23.7247  -30.6094   19.4044 H   0  0  0  0  0  0
  -22.7351  -29.2564   19.8676 H   0  0  0  0  0  0
  -25.1274  -36.1962   25.0833 H   0  0  0  0  0  0
  -21.0006  -28.3261   24.1429 H   0  0  0  0  0  0
  -20.5743  -26.2284   23.3599 H   0  0  0  0  0  0
  -21.6661  -26.7497   22.1180 H   0  0  0  0  0  0
  -19.6926  -25.6327   21.1236 H   0  0  0  0  0  0
  -19.6699  -27.3240   20.6768 H   0  0  0  0  0  0
  -17.4221  -26.6741   21.4015 H   0  0  0  0  0  0
  -18.0313  -26.0076   22.9007 H   0  0  0  0  0  0
  -19.7919  -30.7292   24.2304 H   0  0  0  0  0  0
  -17.4988  -31.6266   24.5171 H   0  0  0  0  0  0
  -15.5344  -30.2967   23.7640 H   0  0  0  0  0  0
  -15.8704  -28.0829   22.7017 H   0  0  0  0  0  0
  -24.5983  -30.6956   25.7809 H   0  0  0  0  0  0
  -24.8946  -32.2772   26.4931 H   0  0  0  0  0  0
  -25.8180  -30.8819   27.0194 H   0  0  0  0  0  0
  -26.2770  -29.6791   24.1133 H   0  0  0  0  0  0
  -27.4178  -29.7236   25.4393 H   0  0  0  0  0  0
  -27.8567  -30.4353   23.9031 H   0  0  0  0  0  0
  -27.2755  -33.3596   26.2005 H   0  0  0  0  0  0
  -28.3922  -32.6748   25.0274 H   0  0  0  0  0  0
  -28.0722  -31.8369   26.5395 H   0  0  0  0  0  0
  -28.2597  -38.0113   24.7509 H   0  0  0  0  0  0
  -28.1091  -36.2637   24.6285 H   0  0  0  0  0  0
  -27.2317  -37.1450   25.8882 H   0  0  0  0  0  0
  -20.9313  -29.8749   21.6916 H   0  0  0  0  0  0
  -26.0185  -38.2863   24.1394 H   0  0  0  0  0  0
  -33.4300  -19.8692   21.2122 H   0  0  0  0  0  0
  -28.5664  -19.2208   20.5472 H   0  0  0  0  0  0
  -28.0488  -22.1174   17.3201 H   0  0  0  0  0  0
  -28.9615  -21.0389   18.5028 H   0  0  0  0  0  0
  -27.2681  -24.4657   18.3639 H   0  0  0  0  0  0
  -28.9278  -25.0243   18.1951 H   0  0  0  0  0  0
  -29.1041  -24.3803   22.0762 H   0  0  0  0  0  0
  -30.2430  -24.9199   20.8646 H   0  0  0  0  0  0
  -27.2461  -24.9003   20.7155 H   0  0  0  0  0  0
  -33.9123  -17.8989   20.0612 H   0  0  0  0  0  0
  -32.6722  -16.9566   19.2824 H   0  0  0  0  0  0
  -33.0438  -16.7004   21.0027 H   0  0  0  0  0  0
  -33.0800  -21.9154   22.2835 H   0  0  0  0  0  0
  -31.4888  -22.6042   22.5444 H   0  0  0  0  0  0
  -32.2944  -22.7790   20.9698 H   0  0  0  0  0  0
  -30.4503  -16.7246   18.9443 H   0  0  0  0  0  0
  -28.9135  -17.1056   19.5942 H   0  0  0  0  0  0
  -29.1891  -22.1532   22.3235 H   0  0  0  0  0  0
  -28.1085  -21.5409   21.1212 H   0  0  0  0  0  0
  -29.0301  -15.4670   21.1311 H   0  0  0  0  0  0
  -30.4288  -22.9395   20.2125 H   0  0  0  0  0  0
  1 25  1  0  0  0
  1 30  2  0  0  0
  1 86  1  0  0  0
  2  3  1  0  0  0
  2 25  1  0  0  0
  2 88  1  0  0  0
  2 89  1  0  0  0
  3  4  1  0  0  0
  3 90  1  0  0  0
  3 91  1  0  0  0
  4  5  1  0  0  0
  4 92  1  0  0  0
  4 93  1  0  0  0
  5  6  1  0  0  0
  5 26  1  0  0  0
  5 94  1  0  0  0
  6 25  1  0  0  0
  6 95  1  0  0  0
  6 96  1  0  0  0
  7  8  2  0  0  0
  7 26  1  0  0  0
  7 29  1  0  0  0
  8  9  1  0  0  0
  8 22  1  0  0  0
  9 10  1  0  0  0
  9 27  2  0  0  0
 10 11  2  0  0  0
 10 15  1  0  0  0
 11 12  1  0  0  0
 11 97  1  0  0  0
 12 13  2  0  0  0
 12 98  1  0  0  0
 13 14  1  0  0  0
 13 31  1  0  0  0
 14 15  2  0  0  0
 14 99  1  0  0  0
 15100  1  0  0  0
 16 17  2  0  0  0
 16 21  1  0  0  0
 16 31  1  0  0  0
 17 18  1  0  0  0
 17101  1  0  0  0
 18 19  2  0  0  0
 18102  1  0  0  0
 19 20  1  0  0  0
 19 24  1  0  0  0
 20 21  2  0  0  0
 20103  1  0  0  0
 21 23  1  0  0  0
 22 28  1  0  0  0
 22 32  2  0  0  0
 26 27  1  0  0  0
 28104  1  0  0  0
 28105  1  0  0  0
 29106  1  0  0  0
 29107  1  0  0  0
 33 34  1  0  0  0
 33 66  1  0  0  0
 33 70  2  0  0  0
 34 36  1  0  0  0
 34 59  1  0  0  0
 34108  1  0  0  0
 35 44  2  0  0  0
 35 45  1  0  0  0
 35 68  1  0  0  0
 36 56  1  0  0  0
 36109  1  0  0  0
 37 39  1  0  0  0
 37 47  1  0  0  0
 37 66  1  0  0  0
 37110  1  0  0  0
 38 43  2  0  0  0
 38 46  1  0  0  0
 38 47  1  0  0  0
 39 64  1  0  0  0
 39 67  2  0  0  0
 40 52  1  0  0  0
 40 53  2  0  0  0
 40 58  1  0  0  0
 41111  1  0  0  0
 41112  1  0  0  0
 41113  1  0  0  0
 41 48  1  0  0  0
 42 43  1  0  0  0
 42 66  1  0  0  0
 42114  1  0  0  0
 42115  1  0  0  0
 43 44  1  0  0  0
 44116  1  0  0  0
 45 46  2  0  0  0
 45117  1  0  0  0
 46118  1  0  0  0
 47119  1  0  0  0
 47120  1  0  0  0
 48 56  1  0  0  0
 48 65  1  0  0  0
 48121  1  0  0  0
 49 50  1  0  0  0
 49 53  1  0  0  0
 49 64  1  0  0  0
 49122  1  0  0  0
 50 51  1  0  0  0
 50123  1  0  0  0
 50124  1  0  0  0
 51 52  1  0  0  0
 51125  1  0  0  0
 51126  1  0  0  0
 52127  1  0  0  0
 52128  1  0  0  0
 53 54  1  0  0  0
 54 55  2  0  0  0
 54129  1  0  0  0
 55 57  1  0  0  0
 55130  1  0  0  0
 56 69  2  0  0  0
 57 58  2  0  0  0
 57131  1  0  0  0
 58132  1  0  0  0
 59 60  1  0  0  0
 59 61  1  0  0  0
 59 62  1  0  0  0
 60133  1  0  0  0
 60134  1  0  0  0
 60135  1  0  0  0
 61136  1  0  0  0
 61137  1  0  0  0
 61138  1  0  0  0
 62139  1  0  0  0
 62140  1  0  0  0
 62141  1  0  0  0
 63 65  1  0  0  0
 63142  1  0  0  0
 63143  1  0  0  0
 63144  1  0  0  0
 64145  1  0  0  0
 65146  1  0  0  0
 68 81  1  0  0  0
 71 73  2  0  0  0
 71 74  1  0  0  0
 71147  1  0  0  0
 72 75  2  0  0  0
 72 76  1  0  0  0
 72148  1  0  0  0
 73 75  1  0  0  0
 73 82  1  0  0  0
 74 76  2  0  0  0
 74 83  1  0  0  0
 75 84  1  0  0  0
 76 85  1  0  0  0
 77 78  2  0  0  0
 77 79  1  0  0  0
 77 87  1  0  0  0
 78149  1  0  0  0
 78150  1  0  0  0
 79 81  1  0  0  0
 79151  1  0  0  0
 79152  1  0  0  0
 80 81  1  0  0  0
 80 87  1  0  0  0
 80153  1  0  0  0
 80154  1  0  0  0
 81155  1  0  0  0
 82156  1  0  0  0
 82157  1  0  0  0
 82158  1  0  0  0
 83159  1  0  0  0
 83160  1  0  0  0
 83161  1  0  0  0
 84 86  1  0  0  0
 84162  1  0  0  0
 84163  1  0  0  0
 85164  1  0  0  0
 85165  1  0  0  0
 85 87  1  0  0  0
 86166  1  0  0  0
 87167  1  0  0  0
M  CHG  1  87   1
M  ISO  4   1 100  68 101  81 101  86 100
M  END
> <chiral flag>
0

> <version>
0

> <s_m_source_file>
/data/baiqing/PycharmProjects/Reinvent-master-3.2/result/LINK_invent/BTK/process_docking_weight1_custom_product_contain_oxygen_bond_distance_aromatic_linkinvent_7_9_3/rearranged_h_0033.sdf

> <i_m_source_file_index>
4

> <r_mmod_Potential_Energy-OPLS-2005>
-106.550079345703

> <r_mmod_Stretch_Energy-OPLS-2005>
54.1151809692383

> <r_mmod_Bend_Energy-OPLS-2005>
139.432632446289

> <r_mmod_Torsional_Energy-OPLS-2005>
256.972320556641

> <r_mmod_Improper_Torsional_Energy-OPLS-2005>
9.91452217102051

> <r_mmod_Van_der_Waal_Energy-OPLS-2005>
147.741928100586

> <r_mmod_Electrostatic_Energy-OPLS-2005>
-321.792572021484

> <r_mmod_Solvation_Energy-OPLS-2005>
-421.075653076172

> <b_mmod_Minimization_Converged-OPLS-2005>
0

> <r_mmod_RMS_Derivative-OPLS-2005>
3.99835300445557

$$$$
4
                    3D
 Structure written by MMmdl.
160169  0  0  1  0            999 V2000
  -30.6263  -14.6619   20.4992 C   0  0  0  0  0  0
  -30.4381  -12.4109   19.4569 C   0  0  0  0  0  0
  -29.5102  -12.5070   18.2250 C   0  0  0  0  0  0
  -28.0357  -12.3314   18.6400 C   0  0  0  0  0  0
  -27.6439  -13.2191   19.8508 C   0  0  2  0  0  0
  -28.6893  -13.1154   20.9832 C   0  0  0  0  0  0
  -25.2507  -13.8148   20.5661 C   0  0  0  0  0  0
  -24.1785  -13.0403   20.9172 C   0  0  0  0  0  0
  -24.6357  -11.6881   20.8705 C   0  0  0  0  0  0
  -23.9026  -10.4268   21.0385 C   0  0  0  0  0  0
  -24.3571   -9.4199   21.9171 C   0  0  0  0  0  0
  -23.6261   -8.2233   22.0763 C   0  0  0  0  0  0
  -22.4248   -8.0257   21.3555 C   0  0  0  0  0  0
  -21.9858   -9.0223   20.4654 C   0  0  0  0  0  0
  -22.7193  -10.2101   20.3053 C   0  0  0  0  0  0
  -21.6848   -6.0697   22.5282 C   0  0  0  0  0  0
  -21.4029   -6.5604   23.8213 C   0  0  0  0  0  0
  -21.3660   -5.6774   24.9175 C   0  0  0  0  0  0
  -21.6037   -4.3032   24.7233 C   0  0  0  0  0  0
  -21.8824   -3.8110   23.4350 C   0  0  0  0  0  0
  -21.9193   -4.6921   22.3410 C   0  0  0  0  0  0
  -22.7816  -13.5208   21.1847 C   0  0  0  0  0  0
  -22.1663   -4.2102   21.0984 F   0  0  0  0  0  0
  -21.5614   -3.4529   25.7743 F   0  0  0  0  0  0
  -29.9981  -13.4482   20.4066 N   0  0  0  0  0  0
  -26.2925  -12.9332   20.3239 N   0  0  0  0  0  0
  -25.9285  -11.6487   20.5694 N   0  0  0  0  0  0
  -22.0448  -12.8243   22.0411 N   0  0  0  0  0  0
  -25.4166  -15.1871   20.4076 N   0  0  0  0  0  0
  -31.8212  -14.7849   20.2148 O   0  0  0  0  0  0
  -21.6631   -6.8835   21.4246 O   0  0  0  0  0  0
  -22.3504  -14.5505   20.6666 O   0  0  0  0  0  0
  -24.6239  -31.8581   23.2005 C   0  0  0  0  0  0
  -25.9086  -32.4775   23.8330 C   0  0  1  0  0  0
  -27.2307  -27.3274   20.1252 C   0  0  0  0  0  0
  -25.5885  -33.8566   24.2247 N   0  0  0  0  0  0
  -23.4165  -30.4782   21.5456 C   0  0  2  0  0  0
  -24.8627  -28.9253   20.1173 C   0  0  0  0  0  0
  -22.7461  -29.4607   22.4987 C   0  0  0  0  0  0
  -18.0281  -28.1397   22.8506 C   0  0  0  0  0  0
  -24.1475  -36.7292   23.2641 C   0  0  0  0  0  0
  -25.9527  -30.7974   21.3621 C   0  0  0  0  0  0
  -26.0298  -29.4213   20.7107 C   0  0  0  0  0  0
  -27.2163  -28.6355   20.6977 C   0  0  0  0  0  0
  -26.0393  -26.8674   19.5232 C   0  0  0  0  0  0
  -24.8683  -27.6541   19.5149 C   0  0  0  0  0  0
  -23.6283  -29.8032   20.1641 C   0  0  0  0  0  0
  -25.4096  -36.3075   24.0330 C   0  0  1  0  0  0
  -20.5872  -28.3681   23.1320 C   0  0  2  0  0  0
  -20.6773  -26.9411   22.5438 C   0  0  0  0  0  0
  -19.5742  -26.6387   21.5244 C   0  0  0  0  0  0
  -18.1917  -26.7933   22.1647 C   0  0  0  0  0  0
  -19.1528  -28.8860   23.2903 C   0  0  0  0  0  0
  -18.9458  -30.1468   23.8907 C   0  0  0  0  0  0
  -17.6456  -30.6596   24.0566 C   0  0  0  0  0  0
  -25.9039  -34.9452   23.5099 C   0  0  0  0  0  0
  -16.5348  -29.9093   23.6331 C   0  0  0  0  0  0
  -16.7269  -28.6513   23.0350 C   0  0  0  0  0  0
  -26.4479  -31.6589   25.0697 C   0  0  0  0  0  0
  -25.3713  -31.3735   26.1430 C   0  0  0  0  0  0
  -27.0297  -30.3009   24.6126 C   0  0  0  0  0  0
  -27.6026  -32.4336   25.7478 C   0  0  0  0  0  0
  -27.5567  -37.1798   24.8462 C   0  0  0  0  0  0
  -21.4183  -29.3017   22.3722 N   0  0  0  0  0  0
  -26.4269  -37.3779   23.9424 N   0  0  0  0  0  0
  -24.6845  -31.0602   22.0947 N   0  0  0  0  0  0
  -23.4187  -28.8166   23.3085 O   0  0  0  0  0  0
  -28.3877  -26.5418   20.1470 O   0  0  0  0  0  0
  -26.5638  -34.8927   22.4685 O   0  0  0  0  0  0
  -23.5416  -32.1376   23.7351 O   0  0  0  0  0  0
  -31.1723  -18.6879   22.5468 C   0  0  0  0  0  0
  -30.5768  -19.7984   21.9209 C   0  0  0  0  0  0
  -30.9424  -17.3827   22.0741 C   0  0  0  0  0  0
  -29.7393  -19.6483   20.7930 C   0  0  0  0  0  0
  -29.4935  -18.2969   20.3235 C   0  0  0  0  0  0
  -30.1027  -17.1459   20.9631 C   0  0  0  0  0  0
  -31.9081  -23.4846   20.1279 C   0  0  0  0  0  0
  -32.4479  -22.4315   19.5208 C   0  0  0  0  0  0
  -30.4780  -23.3440   20.1518 C   0  0  0  0  0  0
  -31.3926  -21.5113   19.1679 C   0  0  0  0  0  0
  -29.7578  -24.4940   20.4004 C   0  0  0  0  0  0
  -28.6024  -18.0886   19.1055 C   0  0  0  0  0  0
  -29.2000  -20.9902   20.1331 C   0  0  0  0  0  0
  -28.3342  -25.0624   20.1825 C   0  0  0  0  0  0
  -30.2519  -21.9840   19.7316 N   0  0  0  0  0  0
  -29.8045  -15.7560   20.6180 N   0  0  0  0  0  0
  -31.5232  -20.4633   18.5259 O   0  0  0  0  0  0
  -31.4808  -12.5414   19.1591 H   0  0  0  0  0  0
  -30.3746  -11.4242   19.9211 H   0  0  0  0  0  0
  -29.7856  -11.7565   17.4833 H   0  0  0  0  0  0
  -29.6405  -13.4767   17.7387 H   0  0  0  0  0  0
  -27.8917  -11.2802   18.8948 H   0  0  0  0  0  0
  -27.3773  -12.5324   17.7936 H   0  0  0  0  0  0
  -27.6469  -14.2455   19.4819 H   0  0  0  0  0  0
  -28.7047  -12.1114   21.4074 H   0  0  0  0  0  0
  -28.4360  -13.7858   21.8067 H   0  0  0  0  0  0
  -25.2728   -9.5649   22.4755 H   0  0  0  0  0  0
  -23.9953   -7.4600   22.7478 H   0  0  0  0  0  0
  -21.0790   -8.8732   19.8958 H   0  0  0  0  0  0
  -22.3655  -10.9622   19.6142 H   0  0  0  0  0  0
  -21.2063   -7.6123   23.9704 H   0  0  0  0  0  0
  -21.1473   -6.0500   25.9073 H   0  0  0  0  0  0
  -22.0605   -2.7566   23.2868 H   0  0  0  0  0  0
  -22.4037  -11.9914   22.4862 H   0  0  0  0  0  0
  -21.1067  -13.1294   22.2592 H   0  0  0  0  0  0
  -24.6386  -15.8297   20.5151 H   0  0  0  0  0  0
  -26.2592  -15.6398   20.0828 H   0  0  0  0  0  0
  -26.7152  -32.5452   23.1086 H   0  0  0  0  0  0
  -24.9976  -33.9700   25.0357 H   0  0  0  0  0  0
  -22.7090  -31.2972   21.4007 H   0  0  0  0  0  0
  -23.3732  -35.9630   23.3302 H   0  0  0  0  0  0
  -24.3575  -36.8920   22.2056 H   0  0  0  0  0  0
  -23.7236  -37.6495   23.6673 H   0  0  0  0  0  0
  -26.0658  -31.5584   20.5886 H   0  0  0  0  0  0
  -26.8397  -30.8572   21.9822 H   0  0  0  0  0  0
  -28.1185  -29.0166   21.1550 H   0  0  0  0  0  0
  -26.0005  -25.8918   19.0589 H   0  0  0  0  0  0
  -23.9690  -27.2648   19.0571 H   0  0  0  0  0  0
  -23.7428  -30.5735   19.4004 H   0  0  0  0  0  0
  -22.7490  -29.2273   19.8695 H   0  0  0  0  0  0
  -25.1278  -36.1921   25.0824 H   0  0  0  0  0  0
  -20.9948  -28.3254   24.1445 H   0  0  0  0  0  0
  -20.5699  -26.2285   23.3633 H   0  0  0  0  0  0
  -21.6641  -26.7469   22.1212 H   0  0  0  0  0  0
  -19.6895  -25.6302   21.1262 H   0  0  0  0  0  0
  -19.6663  -27.3210   20.6782 H   0  0  0  0  0  0
  -17.4191  -26.6704   21.4042 H   0  0  0  0  0  0
  -18.0296  -26.0081   22.9043 H   0  0  0  0  0  0
  -19.7931  -30.7301   24.2262 H   0  0  0  0  0  0
  -17.5005  -31.6275   24.5174 H   0  0  0  0  0  0
  -15.5350  -30.2999   23.7651 H   0  0  0  0  0  0
  -15.8666  -28.0839   22.7048 H   0  0  0  0  0  0
  -24.5874  -30.7096   25.7776 H   0  0  0  0  0  0
  -24.8917  -32.2899   26.4871 H   0  0  0  0  0  0
  -25.8035  -30.8906   27.0199 H   0  0  0  0  0  0
  -26.2846  -29.6797   24.1128 H   0  0  0  0  0  0
  -27.3973  -29.7241   25.4627 H   0  0  0  0  0  0
  -27.8733  -30.4305   23.9337 H   0  0  0  0  0  0
  -27.2606  -33.3631   26.2052 H   0  0  0  0  0  0
  -28.3833  -32.6907   25.0305 H   0  0  0  0  0  0
  -28.0686  -31.8459   26.5405 H   0  0  0  0  0  0
  -28.2581  -38.0099   24.7518 H   0  0  0  0  0  0
  -28.1061  -36.2631   24.6260 H   0  0  0  0  0  0
  -27.2297  -37.1427   25.8870 H   0  0  0  0  0  0
  -20.9381  -29.8701   21.6889 H   0  0  0  0  0  0
  -26.0139  -38.2848   24.1446 H   0  0  0  0  0  0
  -31.8071  -18.8387   23.4094 H   0  0  0  0  0  0
  -30.7826  -20.7862   22.3116 H   0  0  0  0  0  0
  -31.3968  -16.5574   22.6049 H   0  0  0  0  0  0
  -32.4705  -24.3222   20.5189 H   0  0  0  0  0  0
  -33.5010  -22.2685   19.3474 H   0  0  0  0  0  0
  -30.3831  -25.3243   20.6984 H   0  0  0  0  0  0
  -29.0631  -18.5332   18.2206 H   0  0  0  0  0  0
  -27.6275  -18.5513   19.2626 H   0  0  0  0  0  0
  -28.4255  -17.0385   18.8784 H   0  0  0  0  0  0
  -28.5285  -21.4747   20.8419 H   0  0  0  0  0  0
  -28.6024  -20.7711   19.2492 H   0  0  0  0  0  0
  -27.6878  -24.7273   20.9946 H   0  0  0  0  0  0
  -27.9395  -24.6694   19.2451 H   0  0  0  0  0  0
  -28.8261  -15.5426   20.5252 H   0  0  0  0  0  0
  1 25  1  0  0  0
  1 30  2  0  0  0
  1 86  1  0  0  0
  2  3  1  0  0  0
  2 25  1  0  0  0
  2 88  1  0  0  0
  2 89  1  0  0  0
  3  4  1  0  0  0
  3 90  1  0  0  0
  3 91  1  0  0  0
  4  5  1  0  0  0
  4 92  1  0  0  0
  4 93  1  0  0  0
  5  6  1  0  0  0
  5 26  1  0  0  0
  5 94  1  0  0  0
  6 25  1  0  0  0
  6 95  1  0  0  0
  6 96  1  0  0  0
  7  8  2  0  0  0
  7 26  1  0  0  0
  7 29  1  0  0  0
  8  9  1  0  0  0
  8 22  1  0  0  0
  9 10  1  0  0  0
  9 27  2  0  0  0
 10 11  2  0  0  0
 10 15  1  0  0  0
 11 12  1  0  0  0
 11 97  1  0  0  0
 12 13  2  0  0  0
 12 98  1  0  0  0
 13 14  1  0  0  0
 13 31  1  0  0  0
 14 15  2  0  0  0
 14 99  1  0  0  0
 15100  1  0  0  0
 16 17  2  0  0  0
 16 21  1  0  0  0
 16 31  1  0  0  0
 17 18  1  0  0  0
 17101  1  0  0  0
 18 19  2  0  0  0
 18102  1  0  0  0
 19 20  1  0  0  0
 19 24  1  0  0  0
 20 21  2  0  0  0
 20103  1  0  0  0
 21 23  1  0  0  0
 22 28  1  0  0  0
 22 32  2  0  0  0
 26 27  1  0  0  0
 28104  1  0  0  0
 28105  1  0  0  0
 29106  1  0  0  0
 29107  1  0  0  0
 33 34  1  0  0  0
 33 66  1  0  0  0
 33 70  2  0  0  0
 34 36  1  0  0  0
 34 59  1  0  0  0
 34108  1  0  0  0
 35 44  2  0  0  0
 35 45  1  0  0  0
 35 68  1  0  0  0
 36 56  1  0  0  0
 36109  1  0  0  0
 37 39  1  0  0  0
 37 47  1  0  0  0
 37 66  1  0  0  0
 37110  1  0  0  0
 38 43  2  0  0  0
 38 46  1  0  0  0
 38 47  1  0  0  0
 39 64  1  0  0  0
 39 67  2  0  0  0
 40 52  1  0  0  0
 40 53  2  0  0  0
 40 58  1  0  0  0
 41111  1  0  0  0
 41112  1  0  0  0
 41113  1  0  0  0
 41 48  1  0  0  0
 42 43  1  0  0  0
 42 66  1  0  0  0
 42114  1  0  0  0
 42115  1  0  0  0
 43 44  1  0  0  0
 44116  1  0  0  0
 45 46  2  0  0  0
 45117  1  0  0  0
 46118  1  0  0  0
 47119  1  0  0  0
 47120  1  0  0  0
 48 56  1  0  0  0
 48 65  1  0  0  0
 48121  1  0  0  0
 49 50  1  0  0  0
 49 53  1  0  0  0
 49 64  1  0  0  0
 49122  1  0  0  0
 50 51  1  0  0  0
 50123  1  0  0  0
 50124  1  0  0  0
 51 52  1  0  0  0
 51125  1  0  0  0
 51126  1  0  0  0
 52127  1  0  0  0
 52128  1  0  0  0
 53 54  1  0  0  0
 54 55  2  0  0  0
 54129  1  0  0  0
 55 57  1  0  0  0
 55130  1  0  0  0
 56 69  2  0  0  0
 57 58  2  0  0  0
 57131  1  0  0  0
 58132  1  0  0  0
 59 60  1  0  0  0
 59 61  1  0  0  0
 59 62  1  0  0  0
 60133  1  0  0  0
 60134  1  0  0  0
 60135  1  0  0  0
 61136  1  0  0  0
 61137  1  0  0  0
 61138  1  0  0  0
 62139  1  0  0  0
 62140  1  0  0  0
 62141  1  0  0  0
 63 65  1  0  0  0
 63142  1  0  0  0
 63143  1  0  0  0
 63144  1  0  0  0
 64145  1  0  0  0
 65146  1  0  0  0
 68 84  1  0  0  0
 71 72  2  0  0  0
 71 73  1  0  0  0
 71147  1  0  0  0
 72 74  1  0  0  0
 72148  1  0  0  0
 73 76  2  0  0  0
 73149  1  0  0  0
 74 75  2  0  0  0
 74 83  1  0  0  0
 75 76  1  0  0  0
 75 82  1  0  0  0
 76 86  1  0  0  0
 77 78  2  0  0  0
 77 79  1  0  0  0
 77150  1  0  0  0
 78 80  1  0  0  0
 78151  1  0  0  0
 79 81  2  0  0  0
 79 85  1  0  0  0
 80 85  1  0  0  0
 80 87  2  0  0  0
 81 84  1  0  0  0
 81152  1  0  0  0
 82153  1  0  0  0
 82154  1  0  0  0
 82155  1  0  0  0
 83 85  1  0  0  0
 83156  1  0  0  0
 83157  1  0  0  0
 84158  1  0  0  0
 84159  1  0  0  0
 86160  1  0  0  0
M  ISO  4   1 100  68 101  84 101  86 100
M  END
> <chiral flag>
0

> <version>
0

> <s_m_source_file>
/data/baiqing/PycharmProjects/Reinvent-master-3.2/result/LINK_invent/BTK/process_docking_weight1_custom_product_contain_oxygen_bond_distance_aromatic_linkinvent_7_9_3/rearranged_h_0033.sdf

> <i_m_source_file_index>
5

> <r_mmod_Potential_Energy-OPLS-2005>
239.856506347656

> <r_mmod_Stretch_Energy-OPLS-2005>
86.5859069824219

> <r_mmod_Bend_Energy-OPLS-2005>
263.877838134766

> <r_mmod_Torsional_Energy-OPLS-2005>
274.255004882812

> <r_mmod_Improper_Torsional_Energy-OPLS-2005>
9.09917736053467

> <r_mmod_Van_der_Waal_Energy-OPLS-2005>
137.402725219727

> <r_mmod_Electrostatic_Energy-OPLS-2005>
-355.424682617188

> <r_mmod_Solvation_Energy-OPLS-2005>
-226.987091064453

> <b_mmod_Minimization_Converged-OPLS-2005>
0

> <r_mmod_RMS_Derivative-OPLS-2005>
3.04715085029602

$$$$
5
                    3D
 Structure written by MMmdl.
164173  0  0  1  0            999 V2000
  -30.5595  -14.6637   20.5090 C   0  0  0  0  0  0
  -30.4498  -12.4071   19.4591 C   0  0  0  0  0  0
  -29.5219  -12.5267   18.2280 C   0  0  0  0  0  0
  -28.0420  -12.3503   18.6294 C   0  0  0  0  0  0
  -27.6571  -13.2053   19.8666 C   0  0  2  0  0  0
  -28.6949  -13.0368   20.9993 C   0  0  0  0  0  0
  -25.2594  -13.8147   20.5678 C   0  0  0  0  0  0
  -24.1848  -13.0442   20.9223 C   0  0  0  0  0  0
  -24.6378  -11.6909   20.8719 C   0  0  0  0  0  0
  -23.9017  -10.4311   21.0409 C   0  0  0  0  0  0
  -24.3589   -9.4251   21.9200 C   0  0  0  0  0  0
  -23.6291   -8.2262   22.0746 C   0  0  0  0  0  0
  -22.4270   -8.0291   21.3539 C   0  0  0  0  0  0
  -21.9889   -9.0259   20.4634 C   0  0  0  0  0  0
  -22.7185  -10.2159   20.3057 C   0  0  0  0  0  0
  -21.6869   -6.0749   22.5280 C   0  0  0  0  0  0
  -21.4016   -6.5637   23.8226 C   0  0  0  0  0  0
  -21.3664   -5.6790   24.9184 C   0  0  0  0  0  0
  -21.6050   -4.3050   24.7229 C   0  0  0  0  0  0
  -21.8822   -3.8149   23.4349 C   0  0  0  0  0  0
  -21.9197   -4.6976   22.3402 C   0  0  0  0  0  0
  -22.7876  -13.5276   21.1896 C   0  0  0  0  0  0
  -22.1674   -4.2166   21.0979 F   0  0  0  0  0  0
  -21.5638   -3.4531   25.7734 F   0  0  0  0  0  0
  -30.0098  -13.4074   20.4502 N   0  0  0  0  0  0
  -26.2995  -12.9291   20.3275 N   0  0  0  0  0  0
  -25.9298  -11.6464   20.5700 N   0  0  0  0  0  0
  -22.0449  -12.8286   22.0409 N   0  0  0  0  0  0
  -25.4356  -15.1847   20.4083 N   0  0  0  0  0  0
  -31.7034  -14.8877   20.0977 O   0  0  0  0  0  0
  -21.6640   -6.8890   21.4234 O   0  0  0  0  0  0
  -22.3595  -14.5617   20.6776 O   0  0  0  0  0  0
  -24.6221  -31.8622   23.1988 C   0  0  0  0  0  0
  -25.9107  -32.4778   23.8310 C   0  0  1  0  0  0
  -27.2291  -27.3347   20.1112 C   0  0  0  0  0  0
  -25.5933  -33.8572   24.2258 N   0  0  0  0  0  0
  -23.4120  -30.4835   21.5431 C   0  0  2  0  0  0
  -24.8558  -28.9191   20.1270 C   0  0  0  0  0  0
  -22.7432  -29.4651   22.4949 C   0  0  0  0  0  0
  -18.0301  -28.1375   22.8504 C   0  0  0  0  0  0
  -24.1473  -36.7279   23.2637 C   0  0  0  0  0  0
  -25.9486  -30.7947   21.3627 C   0  0  0  0  0  0
  -26.0255  -29.4146   20.7175 C   0  0  0  0  0  0
  -27.2170  -28.6358   20.6955 C   0  0  0  0  0  0
  -26.0372  -26.8678   19.5226 C   0  0  0  0  0  0
  -24.8600  -27.6465   19.5272 C   0  0  0  0  0  0
  -23.6254  -29.8039   20.1638 C   0  0  0  0  0  0
  -25.4100  -36.3064   24.0320 C   0  0  1  0  0  0
  -20.5880  -28.3673   23.1304 C   0  0  2  0  0  0
  -20.6748  -26.9400   22.5405 C   0  0  0  0  0  0
  -19.5721  -26.6393   21.5202 C   0  0  0  0  0  0
  -18.1930  -26.7934   22.1635 C   0  0  0  0  0  0
  -19.1547  -28.8851   23.2898 C   0  0  0  0  0  0
  -18.9472  -30.1456   23.8904 C   0  0  0  0  0  0
  -17.6471  -30.6582   24.0585 C   0  0  0  0  0  0
  -25.9041  -34.9447   23.5083 C   0  0  0  0  0  0
  -16.5365  -29.9078   23.6332 C   0  0  0  0  0  0
  -16.7290  -28.6483   23.0361 C   0  0  0  0  0  0
  -26.4518  -31.6577   25.0677 C   0  0  0  0  0  0
  -25.3784  -31.3716   26.1432 C   0  0  0  0  0  0
  -27.0352  -30.2995   24.6108 C   0  0  0  0  0  0
  -27.6066  -32.4299   25.7487 C   0  0  0  0  0  0
  -27.5558  -37.1785   24.8473 C   0  0  0  0  0  0
  -21.4156  -29.3028   22.3697 N   0  0  0  0  0  0
  -26.4268  -37.3760   23.9424 N   0  0  0  0  0  0
  -24.6802  -31.0639   22.0934 N   0  0  0  0  0  0
  -23.4182  -28.8228   23.3036 O   0  0  0  0  0  0
  -28.3962  -26.5824   19.9896 O   0  0  0  0  0  0
  -26.5592  -34.8925   22.4637 O   0  0  0  0  0  0
  -23.5398  -32.1442   23.7334 O   0  0  0  0  0  0
  -29.9623  -19.3821   19.9169 C   0  0  0  0  0  0
  -30.3597  -18.0143   20.1287 C   0  0  0  0  0  0
  -28.1942  -17.5668   21.0540 C   0  0  0  0  0  0
  -28.6605  -19.8766   20.2431 C   0  0  0  0  0  0
  -29.4685  -17.0587   20.6941 C   0  0  0  0  0  0
  -27.7843  -18.9061   20.8192 C   0  0  0  0  0  0
  -29.3591  -22.7859   21.5874 C   0  0  0  0  0  0
  -28.8553  -22.4103   22.7796 C   0  0  0  0  0  0
  -30.5168  -23.7637   21.4281 C   0  0  0  0  0  0
  -30.0832  -25.0638   20.6948 C   0  0  0  0  0  0
  -27.9898  -23.9239   19.8611 C   0  0  0  0  0  0
  -28.5483  -25.2391   20.5749 C   0  0  2  0  0  0
  -27.5377  -21.7238   23.0660 C   0  0  0  0  0  0
  -28.1177  -21.3098   19.8083 C   0  0  0  0  0  0
  -29.6960  -15.6327   20.9526 N   0  0  0  0  0  0
  -28.7277  -22.6394   20.2475 N   0  3  1  0  0  0
  -26.1354  -19.2772   21.1956 Cl  0  0  0  0  0  0
  -31.4925  -12.5557   19.1718 H   0  0  0  0  0  0
  -30.3943  -11.4032   19.8846 H   0  0  0  0  0  0
  -29.7980  -11.7880   17.4733 H   0  0  0  0  0  0
  -29.6609  -13.5044   17.7651 H   0  0  0  0  0  0
  -27.8837  -11.2937   18.8476 H   0  0  0  0  0  0
  -27.3947  -12.5935   17.7879 H   0  0  0  0  0  0
  -27.6791  -14.2448   19.5401 H   0  0  0  0  0  0
  -28.7128  -12.0058   21.3528 H   0  0  0  0  0  0
  -28.4240  -13.6329   21.8726 H   0  0  0  0  0  0
  -25.2740   -9.5775   22.4770 H   0  0  0  0  0  0
  -24.0044   -7.4656   22.7453 H   0  0  0  0  0  0
  -21.0833   -8.8769   19.8913 H   0  0  0  0  0  0
  -22.3644  -10.9716   19.6169 H   0  0  0  0  0  0
  -21.1977   -7.6143   23.9741 H   0  0  0  0  0  0
  -21.1492   -6.0504   25.9099 H   0  0  0  0  0  0
  -22.0576   -2.7609   23.2832 H   0  0  0  0  0  0
  -22.4013  -11.9946   22.4834 H   0  0  0  0  0  0
  -21.1046  -13.1352   22.2519 H   0  0  0  0  0  0
  -24.6614  -15.8348   20.4945 H   0  0  0  0  0  0
  -26.2649  -15.6072   20.0105 H   0  0  0  0  0  0
  -26.7193  -32.5466   23.1079 H   0  0  0  0  0  0
  -25.0140  -33.9728   25.0447 H   0  0  0  0  0  0
  -22.7013  -31.2998   21.3953 H   0  0  0  0  0  0
  -23.3725  -35.9615   23.3311 H   0  0  0  0  0  0
  -24.3549  -36.8889   22.2041 H   0  0  0  0  0  0
  -23.7251  -37.6492   23.6661 H   0  0  0  0  0  0
  -26.0643  -31.5505   20.5842 H   0  0  0  0  0  0
  -26.8343  -30.8582   21.9828 H   0  0  0  0  0  0
  -28.1258  -29.0305   21.1291 H   0  0  0  0  0  0
  -26.0174  -25.9059   19.0316 H   0  0  0  0  0  0
  -23.9633  -27.2599   19.0624 H   0  0  0  0  0  0
  -23.7454  -30.5729   19.3993 H   0  0  0  0  0  0
  -22.7447  -29.2315   19.8656 H   0  0  0  0  0  0
  -25.1281  -36.1890   25.0806 H   0  0  0  0  0  0
  -21.0006  -28.3254   24.1407 H   0  0  0  0  0  0
  -20.5623  -26.2306   23.3605 H   0  0  0  0  0  0
  -21.6635  -26.7402   22.1231 H   0  0  0  0  0  0
  -19.6875  -25.6308   21.1216 H   0  0  0  0  0  0
  -19.6660  -27.3220   20.6740 H   0  0  0  0  0  0
  -17.4187  -26.6727   21.4035 H   0  0  0  0  0  0
  -18.0324  -26.0053   22.9000 H   0  0  0  0  0  0
  -19.7951  -30.7278   24.2265 H   0  0  0  0  0  0
  -17.5024  -31.6270   24.5177 H   0  0  0  0  0  0
  -15.5358  -30.2987   23.7619 H   0  0  0  0  0  0
  -15.8700  -28.0802   22.7059 H   0  0  0  0  0  0
  -24.5972  -30.7028   25.7824 H   0  0  0  0  0  0
  -24.8965  -32.2868   26.4852 H   0  0  0  0  0  0
  -25.8153  -30.8947   27.0213 H   0  0  0  0  0  0
  -26.2906  -29.6750   24.1159 H   0  0  0  0  0  0
  -27.4104  -29.7254   25.4592 H   0  0  0  0  0  0
  -27.8750  -30.4298   23.9279 H   0  0  0  0  0  0
  -27.2672  -33.3600   26.2064 H   0  0  0  0  0  0
  -28.3913  -32.6849   25.0354 H   0  0  0  0  0  0
  -28.0697  -31.8415   26.5424 H   0  0  0  0  0  0
  -28.2587  -38.0071   24.7478 H   0  0  0  0  0  0
  -28.1034  -36.2590   24.6337 H   0  0  0  0  0  0
  -27.2267  -37.1485   25.8877 H   0  0  0  0  0  0
  -20.9324  -29.8770   21.6944 H   0  0  0  0  0  0
  -26.0134  -38.2821   24.1448 H   0  0  0  0  0  0
  -30.6723  -20.0472   19.4446 H   0  0  0  0  0  0
  -31.3556  -17.7077   19.8382 H   0  0  0  0  0  0
  -27.4674  -16.9002   21.4942 H   0  0  0  0  0  0
  -29.4183  -22.6729   23.6642 H   0  0  0  0  0  0
  -31.3457  -23.2901   20.8992 H   0  0  0  0  0  0
  -30.8993  -24.0228   22.4156 H   0  0  0  0  0  0
  -30.5090  -25.0661   19.6893 H   0  0  0  0  0  0
  -30.5185  -25.9232   21.2025 H   0  0  0  0  0  0
  -26.9301  -23.8190   20.0934 H   0  0  0  0  0  0
  -28.0555  -24.0411   18.7792 H   0  0  0  0  0  0
  -28.1315  -25.2829   21.5835 H   0  0  0  0  0  0
  -27.0273  -22.2401   23.8788 H   0  0  0  0  0  0
  -27.7053  -20.6943   23.3804 H   0  0  0  0  0  0
  -26.8631  -21.7427   22.2139 H   0  0  0  0  0  0
  -27.0588  -21.3756   20.0369 H   0  0  0  0  0  0
  -28.1345  -21.3174   18.7172 H   0  0  0  0  0  0
  -28.8890  -15.1866   21.3591 H   0  0  0  0  0  0
  -29.5184  -22.6610   19.6217 H   0  0  0  0  0  0
  1 25  1  0  0  0
  1 30  2  0  0  0
  1 85  1  0  0  0
  2  3  1  0  0  0
  2 25  1  0  0  0
  2 88  1  0  0  0
  2 89  1  0  0  0
  3  4  1  0  0  0
  3 90  1  0  0  0
  3 91  1  0  0  0
  4  5  1  0  0  0
  4 92  1  0  0  0
  4 93  1  0  0  0
  5  6  1  0  0  0
  5 26  1  0  0  0
  5 94  1  0  0  0
  6 25  1  0  0  0
  6 95  1  0  0  0
  6 96  1  0  0  0
  7  8  2  0  0  0
  7 26  1  0  0  0
  7 29  1  0  0  0
  8  9  1  0  0  0
  8 22  1  0  0  0
  9 10  1  0  0  0
  9 27  2  0  0  0
 10 11  2  0  0  0
 10 15  1  0  0  0
 11 12  1  0  0  0
 11 97  1  0  0  0
 12 13  2  0  0  0
 12 98  1  0  0  0
 13 14  1  0  0  0
 13 31  1  0  0  0
 14 15  2  0  0  0
 14 99  1  0  0  0
 15100  1  0  0  0
 16 17  2  0  0  0
 16 21  1  0  0  0
 16 31  1  0  0  0
 17 18  1  0  0  0
 17101  1  0  0  0
 18 19  2  0  0  0
 18102  1  0  0  0
 19 20  1  0  0  0
 19 24  1  0  0  0
 20 21  2  0  0  0
 20103  1  0  0  0
 21 23  1  0  0  0
 22 28  1  0  0  0
 22 32  2  0  0  0
 26 27  1  0  0  0
 28104  1  0  0  0
 28105  1  0  0  0
 29106  1  0  0  0
 29107  1  0  0  0
 33 34  1  0  0  0
 33 66  1  0  0  0
 33 70  2  0  0  0
 34 36  1  0  0  0
 34 59  1  0  0  0
 34108  1  0  0  0
 35 44  2  0  0  0
 35 45  1  0  0  0
 35 68  1  0  0  0
 36 56  1  0  0  0
 36109  1  0  0  0
 37 39  1  0  0  0
 37 47  1  0  0  0
 37 66  1  0  0  0
 37110  1  0  0  0
 38 43  2  0  0  0
 38 46  1  0  0  0
 38 47  1  0  0  0
 39 64  1  0  0  0
 39 67  2  0  0  0
 40 52  1  0  0  0
 40 53  2  0  0  0
 40 58  1  0  0  0
 41111  1  0  0  0
 41112  1  0  0  0
 41113  1  0  0  0
 41 48  1  0  0  0
 42 43  1  0  0  0
 42 66  1  0  0  0
 42114  1  0  0  0
 42115  1  0  0  0
 43 44  1  0  0  0
 44116  1  0  0  0
 45 46  2  0  0  0
 45117  1  0  0  0
 46118  1  0  0  0
 47119  1  0  0  0
 47120  1  0  0  0
 48 56  1  0  0  0
 48 65  1  0  0  0
 48121  1  0  0  0
 49 50  1  0  0  0
 49 53  1  0  0  0
 49 64  1  0  0  0
 49122  1  0  0  0
 50 51  1  0  0  0
 50123  1  0  0  0
 50124  1  0  0  0
 51 52  1  0  0  0
 51125  1  0  0  0
 51126  1  0  0  0
 52127  1  0  0  0
 52128  1  0  0  0
 53 54  1  0  0  0
 54 55  2  0  0  0
 54129  1  0  0  0
 55 57  1  0  0  0
 55130  1  0  0  0
 56 69  2  0  0  0
 57 58  2  0  0  0
 57131  1  0  0  0
 58132  1  0  0  0
 59 60  1  0  0  0
 59 61  1  0  0  0
 59 62  1  0  0  0
 60133  1  0  0  0
 60134  1  0  0  0
 60135  1  0  0  0
 61136  1  0  0  0
 61137  1  0  0  0
 61138  1  0  0  0
 62139  1  0  0  0
 62140  1  0  0  0
 62141  1  0  0  0
 63 65  1  0  0  0
 63142  1  0  0  0
 63143  1  0  0  0
 63144  1  0  0  0
 64145  1  0  0  0
 65146  1  0  0  0
 68 82  1  0  0  0
 71 72  2  0  0  0
 71 74  1  0  0  0
 71147  1  0  0  0
 72 75  1  0  0  0
 72148  1  0  0  0
 73 75  2  0  0  0
 73 76  1  0  0  0
 73149  1  0  0  0
 74 76  2  0  0  0
 74 84  1  0  0  0
 75 85  1  0  0  0
 76 87  1  0  0  0
 77 78  2  0  0  0
 77 79  1  0  0  0
 77 86  1  0  0  0
 78 83  1  0  0  0
 78150  1  0  0  0
 79 80  1  0  0  0
 79151  1  0  0  0
 79152  1  0  0  0
 80 82  1  0  0  0
 80153  1  0  0  0
 80154  1  0  0  0
 81 82  1  0  0  0
 81 86  1  0  0  0
 81155  1  0  0  0
 81156  1  0  0  0
 82157  1  0  0  0
 83158  1  0  0  0
 83159  1  0  0  0
 83160  1  0  0  0
 84161  1  0  0  0
 84162  1  0  0  0
 84 86  1  0  0  0
 85163  1  0  0  0
 86164  1  0  0  0
M  CHG  1  86   1
M  ISO  4   1 100  68 101  82 101  85 100
M  END
> <chiral flag>
0

> <version>
0

> <s_m_source_file>
/data/baiqing/PycharmProjects/Reinvent-master-3.2/result/LINK_invent/BTK/process_docking_weight1_custom_product_contain_oxygen_bond_distance_aromatic_linkinvent_7_9_3/rearranged_h_0033.sdf

> <i_m_source_file_index>
6

> <r_mmod_Potential_Energy-OPLS-2005>
52.9846115112305

> <r_mmod_Stretch_Energy-OPLS-2005>
85.9476699829102

> <r_mmod_Bend_Energy-OPLS-2005>
204.706726074219

> <r_mmod_Torsional_Energy-OPLS-2005>
273.725799560547

> <r_mmod_Improper_Torsional_Energy-OPLS-2005>
6.50752115249634

> <r_mmod_Van_der_Waal_Energy-OPLS-2005>
138.133209228516

> <r_mmod_Electrostatic_Energy-OPLS-2005>
-278.005798339844

> <r_mmod_Solvation_Energy-OPLS-2005>
-424.968566894531

> <b_mmod_Minimization_Converged-OPLS-2005>
0

> <r_mmod_RMS_Derivative-OPLS-2005>
3.97369360923767

$$$$
6
                    3D
 Structure written by MMmdl.
169178  0  0  1  0            999 V2000
  -30.6499  -14.7546   20.5246 C   0  0  0  0  0  0
  -30.4329  -12.4819   19.4800 C   0  0  0  0  0  0
  -29.5209  -12.5298   18.2373 C   0  0  0  0  0  0
  -28.0507  -12.3255   18.6496 C   0  0  0  0  0  0
  -27.6380  -13.2386   19.8377 C   0  0  2  0  0  0
  -28.6756  -13.1911   20.9781 C   0  0  0  0  0  0
  -25.2478  -13.8178   20.5664 C   0  0  0  0  0  0
  -24.1779  -13.0452   20.9205 C   0  0  0  0  0  0
  -24.6374  -11.6907   20.8682 C   0  0  0  0  0  0
  -23.9043  -10.4276   21.0319 C   0  0  0  0  0  0
  -24.3610   -9.4224   21.9100 C   0  0  0  0  0  0
  -23.6292   -8.2250   22.0718 C   0  0  0  0  0  0
  -22.4250   -8.0239   21.3562 C   0  0  0  0  0  0
  -21.9853   -9.0204   20.4636 C   0  0  0  0  0  0
  -22.7172  -10.2079   20.2992 C   0  0  0  0  0  0
  -21.6875   -6.0676   22.5289 C   0  0  0  0  0  0
  -21.4029   -6.5604   23.8202 C   0  0  0  0  0  0
  -21.3673   -5.6761   24.9180 C   0  0  0  0  0  0
  -21.6058   -4.3033   24.7233 C   0  0  0  0  0  0
  -21.8837   -3.8110   23.4354 C   0  0  0  0  0  0
  -21.9218   -4.6914   22.3412 C   0  0  0  0  0  0
  -22.7802  -13.5208   21.1902 C   0  0  0  0  0  0
  -22.1660   -4.2098   21.0985 F   0  0  0  0  0  0
  -21.5647   -3.4522   25.7752 F   0  0  0  0  0  0
  -29.9829  -13.5477   20.4087 N   0  0  0  0  0  0
  -26.2914  -12.9422   20.3163 N   0  0  0  0  0  0
  -25.9316  -11.6565   20.5680 N   0  0  0  0  0  0
  -22.0441  -12.8203   22.0441 N   0  0  0  0  0  0
  -25.4221  -15.1913   20.4006 N   0  0  0  0  0  0
  -31.8287  -14.8187   20.1665 O   0  0  0  0  0  0
  -21.6673   -6.8800   21.4211 O   0  0  0  0  0  0
  -22.3477  -14.5495   20.6686 O   0  0  0  0  0  0
  -24.6351  -31.8443   23.1890 C   0  0  0  0  0  0
  -25.9162  -32.4707   23.8263 C   0  0  1  0  0  0
  -27.2816  -27.2439   20.1230 C   0  0  0  0  0  0
  -25.5919  -33.8510   24.2182 N   0  0  0  0  0  0
  -23.4371  -30.4581   21.5286 C   0  0  2  0  0  0
  -24.8980  -28.8847   20.1043 C   0  0  0  0  0  0
  -22.7528  -29.4536   22.4885 C   0  0  0  0  0  0
  -18.0297  -28.1402   22.8473 C   0  0  0  0  0  0
  -24.1477  -36.7269   23.2653 C   0  0  0  0  0  0
  -25.9811  -30.7484   21.3739 C   0  0  0  0  0  0
  -26.0592  -29.3646   20.7216 C   0  0  0  0  0  0
  -27.2382  -28.5500   20.7262 C   0  0  0  0  0  0
  -26.0980  -26.8300   19.4706 C   0  0  0  0  0  0
  -24.9248  -27.6266   19.4689 C   0  0  0  0  0  0
  -23.6614  -29.7706   20.1495 C   0  0  0  0  0  0
  -25.4110  -36.3040   24.0325 C   0  0  1  0  0  0
  -20.5899  -28.3715   23.1264 C   0  0  2  0  0  0
  -20.6772  -26.9421   22.5420 C   0  0  0  0  0  0
  -19.5771  -26.6383   21.5218 C   0  0  0  0  0  0
  -18.1944  -26.7943   22.1612 C   0  0  0  0  0  0
  -19.1552  -28.8880   23.2861 C   0  0  0  0  0  0
  -18.9472  -30.1470   23.8898 C   0  0  0  0  0  0
  -17.6468  -30.6590   24.0574 C   0  0  0  0  0  0
  -25.9057  -34.9421   23.5071 C   0  0  0  0  0  0
  -16.5361  -29.9089   23.6335 C   0  0  0  0  0  0
  -16.7278  -28.6510   23.0352 C   0  0  0  0  0  0
  -26.4531  -31.6563   25.0686 C   0  0  0  0  0  0
  -25.3729  -31.3749   26.1390 C   0  0  0  0  0  0
  -27.0397  -30.2970   24.6235 C   0  0  0  0  0  0
  -27.6079  -32.4321   25.7453 C   0  0  0  0  0  0
  -27.5571  -37.1790   24.8477 C   0  0  0  0  0  0
  -21.4222  -29.3033   22.3634 N   0  0  0  0  0  0
  -26.4288  -37.3748   23.9401 N   0  0  0  0  0  0
  -24.7030  -31.0372   22.0880 N   0  0  0  0  0  0
  -23.4189  -28.8084   23.3028 O   0  0  0  0  0  0
  -28.4292  -26.4110   20.2594 O   0  0  0  0  0  0
  -26.5650  -34.8914   22.4654 O   0  0  0  0  0  0
  -23.5488  -32.1284   23.7173 O   0  0  0  0  0  0
  -32.0736  -18.8060   22.0395 C   0  0  0  0  0  0
  -31.6363  -17.5141   21.6832 C   0  0  0  0  0  0
  -29.5825  -18.5159   20.8577 C   0  0  0  0  0  0
  -31.2843  -19.9649   21.8320 C   0  0  0  0  0  0
  -30.0040  -19.8705   21.2163 C   0  0  0  0  0  0
  -30.3746  -17.3076   21.0818 C   0  0  0  0  0  0
  -31.3131  -24.1495   19.2095 C   0  0  0  0  0  0
  -30.3151  -25.3307   19.2529 C   0  0  0  0  0  0
  -30.8774  -23.0203   18.2565 C   0  0  0  0  0  0
  -28.4128  -23.5948   20.1421 C   0  0  0  0  0  0
  -28.7975  -25.1019   19.5783 C   0  0  1  0  0  0
  -29.9907  -21.9426   18.9194 C   0  0  2  0  0  0
  -31.8597  -21.2853   22.3358 C   0  0  0  0  0  0
  -28.9269  -21.2661   18.0082 C   0  0  0  0  0  0
  -29.0622  -21.1763   21.0940 C   0  0  0  0  0  0
  -29.9249  -15.9092   20.8144 N   0  0  0  0  0  0
  -29.4294  -22.4005   20.2248 N   0  3  2  0  0  0
  -31.4785  -12.5830   19.1872 H   0  0  0  0  0  0
  -30.3563  -11.5059   19.9612 H   0  0  0  0  0  0
  -29.8223  -11.7659   17.5192 H   0  0  0  0  0  0
  -29.6346  -13.4939   17.7354 H   0  0  0  0  0  0
  -27.9413  -11.2779   18.9386 H   0  0  0  0  0  0
  -27.3910  -12.4780   17.7958 H   0  0  0  0  0  0
  -27.6255  -14.2546   19.4461 H   0  0  0  0  0  0
  -28.7176  -12.1893   21.4122 H   0  0  0  0  0  0
  -28.3943  -13.8712   21.7848 H   0  0  0  0  0  0
  -25.2727   -9.5761   22.4676 H   0  0  0  0  0  0
  -24.0067   -7.4665   22.7417 H   0  0  0  0  0  0
  -21.0811   -8.8627   19.8933 H   0  0  0  0  0  0
  -22.3558  -10.9586   19.6098 H   0  0  0  0  0  0
  -21.1949   -7.6104   23.9688 H   0  0  0  0  0  0
  -21.1508   -6.0495   25.9090 H   0  0  0  0  0  0
  -22.0594   -2.7567   23.2892 H   0  0  0  0  0  0
  -22.4086  -11.9938   22.4960 H   0  0  0  0  0  0
  -21.1010  -13.1108   22.2539 H   0  0  0  0  0  0
  -24.6527  -15.8463   20.4801 H   0  0  0  0  0  0
  -26.2629  -15.6084   20.0245 H   0  0  0  0  0  0
  -26.7226  -32.5338   23.1002 H   0  0  0  0  0  0
  -25.0044  -33.9614   25.0323 H   0  0  0  0  0  0
  -22.7395  -31.2834   21.3702 H   0  0  0  0  0  0
  -23.3721  -35.9622   23.3345 H   0  0  0  0  0  0
  -24.3569  -36.8855   22.2059 H   0  0  0  0  0  0
  -23.7255  -37.6494   23.6664 H   0  0  0  0  0  0
  -26.1207  -31.5015   20.5977 H   0  0  0  0  0  0
  -26.8590  -30.8051   22.0062 H   0  0  0  0  0  0
  -28.1231  -28.9063   21.2365 H   0  0  0  0  0  0
  -26.0567  -25.8622   18.9935 H   0  0  0  0  0  0
  -24.0372  -27.2576   18.9712 H   0  0  0  0  0  0
  -23.7810  -30.5407   19.3870 H   0  0  0  0  0  0
  -22.7815  -29.1975   19.8501 H   0  0  0  0  0  0
  -25.1305  -36.1868   25.0822 H   0  0  0  0  0  0
  -21.0019  -28.3297   24.1389 H   0  0  0  0  0  0
  -20.5658  -26.2337   23.3642 H   0  0  0  0  0  0
  -21.6641  -26.7430   22.1234 H   0  0  0  0  0  0
  -19.6938  -25.6291   21.1267 H   0  0  0  0  0  0
  -19.6721  -27.3185   20.6740 H   0  0  0  0  0  0
  -17.4225  -26.6717   21.3988 H   0  0  0  0  0  0
  -18.0318  -26.0058   22.8985 H   0  0  0  0  0  0
  -19.7948  -30.7278   24.2265 H   0  0  0  0  0  0
  -17.5028  -31.6290   24.5165 H   0  0  0  0  0  0
  -15.5360  -30.3005   23.7663 H   0  0  0  0  0  0
  -15.8677  -28.0836   22.7074 H   0  0  0  0  0  0
  -24.5919  -30.7084   25.7721 H   0  0  0  0  0  0
  -24.8914  -32.2923   26.4770 H   0  0  0  0  0  0
  -25.8017  -30.8956   27.0194 H   0  0  0  0  0  0
  -26.2994  -29.6656   24.1305 H   0  0  0  0  0  0
  -27.4099  -29.7307   25.4794 H   0  0  0  0  0  0
  -27.8857  -30.4228   23.9476 H   0  0  0  0  0  0
  -27.2714  -33.3657   26.1963 H   0  0  0  0  0  0
  -28.3925  -32.6791   25.0297 H   0  0  0  0  0  0
  -28.0701  -31.8470   26.5412 H   0  0  0  0  0  0
  -28.2614  -38.0060   24.7468 H   0  0  0  0  0  0
  -28.1019  -36.2585   24.6342 H   0  0  0  0  0  0
  -27.2295  -37.1496   25.8887 H   0  0  0  0  0  0
  -20.9443  -29.8720   21.6800 H   0  0  0  0  0  0
  -26.0146  -38.2822   24.1376 H   0  0  0  0  0  0
  -33.0408  -18.8931   22.5190 H   0  0  0  0  0  0
  -32.2869  -16.6828   21.9200 H   0  0  0  0  0  0
  -28.6050  -18.4064   20.4124 H   0  0  0  0  0  0
  -31.5460  -23.7760   20.2075 H   0  0  0  0  0  0
  -32.2772  -24.5312   18.8635 H   0  0  0  0  0  0
  -30.3634  -25.8322   18.2827 H   0  0  0  0  0  0
  -30.7329  -26.0576   19.9540 H   0  0  0  0  0  0
  -31.7815  -22.5205   17.8966 H   0  0  0  0  0  0
  -30.4222  -23.4468   17.3616 H   0  0  0  0  0  0
  -27.6372  -23.2485   19.4602 H   0  0  0  0  0  0
  -27.8731  -23.6821   21.0820 H   0  0  0  0  0  0
  -28.2964  -25.1550   18.6114 H   0  0  0  0  0  0
  -30.7246  -21.1605   19.1377 H   0  0  0  0  0  0
  -32.8273  -21.1389   22.8297 H   0  0  0  0  0  0
  -31.2000  -21.7523   23.0668 H   0  0  0  0  0  0
  -32.0302  -21.9809   21.5173 H   0  0  0  0  0  0
  -27.9305  -21.6885   18.1121 H   0  0  0  0  0  0
  -28.8108  -20.2031   18.2417 H   0  0  0  0  0  0
  -29.1823  -21.3196   16.9506 H   0  0  0  0  0  0
  -28.9331  -21.5597   22.1052 H   0  0  0  0  0  0
  -28.0657  -20.8462   20.8095 H   0  0  0  0  0  0
  -28.9305  -15.7608   20.8797 H   0  0  0  0  0  0
  -30.2244  -22.8046   20.7003 H   0  0  0  0  0  0
  1 25  1  0  0  0
  1 30  2  0  0  0
  1 86  1  0  0  0
  2  3  1  0  0  0
  2 25  1  0  0  0
  2 88  1  0  0  0
  2 89  1  0  0  0
  3  4  1  0  0  0
  3 90  1  0  0  0
  3 91  1  0  0  0
  4  5  1  0  0  0
  4 92  1  0  0  0
  4 93  1  0  0  0
  5  6  1  0  0  0
  5 26  1  0  0  0
  5 94  1  0  0  0
  6 25  1  0  0  0
  6 95  1  0  0  0
  6 96  1  0  0  0
  7  8  2  0  0  0
  7 26  1  0  0  0
  7 29  1  0  0  0
  8  9  1  0  0  0
  8 22  1  0  0  0
  9 10  1  0  0  0
  9 27  2  0  0  0
 10 11  2  0  0  0
 10 15  1  0  0  0
 11 12  1  0  0  0
 11 97  1  0  0  0
 12 13  2  0  0  0
 12 98  1  0  0  0
 13 14  1  0  0  0
 13 31  1  0  0  0
 14 15  2  0  0  0
 14 99  1  0  0  0
 15100  1  0  0  0
 16 17  2  0  0  0
 16 21  1  0  0  0
 16 31  1  0  0  0
 17 18  1  0  0  0
 17101  1  0  0  0
 18 19  2  0  0  0
 18102  1  0  0  0
 19 20  1  0  0  0
 19 24  1  0  0  0
 20 21  2  0  0  0
 20103  1  0  0  0
 21 23  1  0  0  0
 22 28  1  0  0  0
 22 32  2  0  0  0
 26 27  1  0  0  0
 28104  1  0  0  0
 28105  1  0  0  0
 29106  1  0  0  0
 29107  1  0  0  0
 33 34  1  0  0  0
 33 66  1  0  0  0
 33 70  2  0  0  0
 34 36  1  0  0  0
 34 59  1  0  0  0
 34108  1  0  0  0
 35 44  2  0  0  0
 35 45  1  0  0  0
 35 68  1  0  0  0
 36 56  1  0  0  0
 36109  1  0  0  0
 37 39  1  0  0  0
 37 47  1  0  0  0
 37 66  1  0  0  0
 37110  1  0  0  0
 38 43  2  0  0  0
 38 46  1  0  0  0
 38 47  1  0  0  0
 39 64  1  0  0  0
 39 67  2  0  0  0
 40 52  1  0  0  0
 40 53  2  0  0  0
 40 58  1  0  0  0
 41111  1  0  0  0
 41112  1  0  0  0
 41113  1  0  0  0
 41 48  1  0  0  0
 42 43  1  0  0  0
 42 66  1  0  0  0
 42114  1  0  0  0
 42115  1  0  0  0
 43 44  1  0  0  0
 44116  1  0  0  0
 45 46  2  0  0  0
 45117  1  0  0  0
 46118  1  0  0  0
 47119  1  0  0  0
 47120  1  0  0  0
 48 56  1  0  0  0
 48 65  1  0  0  0
 48121  1  0  0  0
 49 50  1  0  0  0
 49 53  1  0  0  0
 49 64  1  0  0  0
 49122  1  0  0  0
 50 51  1  0  0  0
 50123  1  0  0  0
 50124  1  0  0  0
 51 52  1  0  0  0
 51125  1  0  0  0
 51126  1  0  0  0
 52127  1  0  0  0
 52128  1  0  0  0
 53 54  1  0  0  0
 54 55  2  0  0  0
 54129  1  0  0  0
 55 57  1  0  0  0
 55130  1  0  0  0
 56 69  2  0  0  0
 57 58  2  0  0  0
 57131  1  0  0  0
 58132  1  0  0  0
 59 60  1  0  0  0
 59 61  1  0  0  0
 59 62  1  0  0  0
 60133  1  0  0  0
 60134  1  0  0  0
 60135  1  0  0  0
 61136  1  0  0  0
 61137  1  0  0  0
 61138  1  0  0  0
 62139  1  0  0  0
 62140  1  0  0  0
 62141  1  0  0  0
 63 65  1  0  0  0
 63142  1  0  0  0
 63143  1  0  0  0
 63144  1  0  0  0
 64145  1  0  0  0
 65146  1  0  0  0
 68 81  1  0  0  0
 71 72  2  0  0  0
 71 74  1  0  0  0
 71147  1  0  0  0
 72 76  1  0  0  0
 72148  1  0  0  0
 73 75  1  0  0  0
 73 76  2  0  0  0
 73149  1  0  0  0
 74 75  2  0  0  0
 74 83  1  0  0  0
 75 85  1  0  0  0
 76 86  1  0  0  0
 77 78  1  0  0  0
 77 79  1  0  0  0
 77150  1  0  0  0
 77151  1  0  0  0
 78 81  1  0  0  0
 78152  1  0  0  0
 78153  1  0  0  0
 79 82  1  0  0  0
 79154  1  0  0  0
 79155  1  0  0  0
 80 81  1  0  0  0
 80 87  1  0  0  0
 80156  1  0  0  0
 80157  1  0  0  0
 81158  1  0  0  0
 82 84  1  0  0  0
 82 87  1  0  0  0
 82159  1  0  0  0
 83160  1  0  0  0
 83161  1  0  0  0
 83162  1  0  0  0
 84163  1  0  0  0
 84164  1  0  0  0
 84165  1  0  0  0
 85166  1  0  0  0
 85167  1  0  0  0
 85 87  1  0  0  0
 86168  1  0  0  0
 87169  1  0  0  0
M  CHG  1  87   1
M  ISO  4   1 100  68 101  81 101  86 100
M  END
> <chiral flag>
0

> <version>
0

> <s_m_source_file>
/data/baiqing/PycharmProjects/Reinvent-master-3.2/result/LINK_invent/BTK/process_docking_weight1_custom_product_contain_oxygen_bond_distance_aromatic_linkinvent_7_9_3/rearranged_h_0033.sdf

> <i_m_source_file_index>
7

> <r_mmod_Potential_Energy-OPLS-2005>
266.933715820312

> <r_mmod_Stretch_Energy-OPLS-2005>
163.326950073242

> <r_mmod_Bend_Energy-OPLS-2005>
243.589279174805

> <r_mmod_Torsional_Energy-OPLS-2005>
290.486145019531

> <r_mmod_Improper_Torsional_Energy-OPLS-2005>
6.10104322433472

> <r_mmod_Van_der_Waal_Energy-OPLS-2005>
141.046112060547

> <r_mmod_Electrostatic_Energy-OPLS-2005>
-255.371444702148

> <r_mmod_Solvation_Energy-OPLS-2005>
-415.605316162109

> <b_mmod_Minimization_Converged-OPLS-2005>
0

> <r_mmod_RMS_Derivative-OPLS-2005>
7.96615743637085

$$$$
7
                    3D
 Structure written by MMmdl.
173182  0  0  1  0            999 V2000
  -30.6767  -14.4531   20.6077 C   0  0  0  0  0  0
  -30.4415  -12.3043   19.4128 C   0  0  0  0  0  0
  -29.5044  -12.5095   18.2034 C   0  0  0  0  0  0
  -28.0219  -12.3734   18.6098 C   0  0  0  0  0  0
  -27.6698  -13.1919   19.8807 C   0  0  2  0  0  0
  -28.7085  -12.9277   20.9940 C   0  0  0  0  0  0
  -25.2638  -13.8118   20.5665 C   0  0  0  0  0  0
  -24.1857  -13.0423   20.9139 C   0  0  0  0  0  0
  -24.6390  -11.6887   20.8710 C   0  0  0  0  0  0
  -23.9045  -10.4286   21.0402 C   0  0  0  0  0  0
  -24.3598   -9.4203   21.9188 C   0  0  0  0  0  0
  -23.6277   -8.2243   22.0769 C   0  0  0  0  0  0
  -22.4258   -8.0278   21.3556 C   0  0  0  0  0  0
  -21.9895   -9.0247   20.4659 C   0  0  0  0  0  0
  -22.7224  -10.2125   20.3055 C   0  0  0  0  0  0
  -21.6854   -6.0731   22.5281 C   0  0  0  0  0  0
  -21.4004   -6.5628   23.8215 C   0  0  0  0  0  0
  -21.3656   -5.6789   24.9179 C   0  0  0  0  0  0
  -21.6048   -4.3051   24.7227 C   0  0  0  0  0  0
  -21.8818   -3.8146   23.4350 C   0  0  0  0  0  0
  -21.9192   -4.6962   22.3407 C   0  0  0  0  0  0
  -22.7884  -13.5252   21.1807 C   0  0  0  0  0  0
  -22.1668   -4.2150   21.0982 F   0  0  0  0  0  0
  -21.5634   -3.4533   25.7738 F   0  0  0  0  0  0
  -30.0463  -13.2560   20.4616 N   0  0  0  0  0  0
  -26.3065  -12.9253   20.3370 N   0  0  0  0  0  0
  -25.9311  -11.6432   20.5735 N   0  0  0  0  0  0
  -22.0488  -12.8275   22.0356 N   0  0  0  0  0  0
  -25.4421  -15.1832   20.4116 N   0  0  0  0  0  0
  -31.7717  -14.7147   20.0984 O   0  0  0  0  0  0
  -21.6633   -6.8871   21.4241 O   0  0  0  0  0  0
  -22.3590  -14.5570   20.6661 O   0  0  0  0  0  0
  -24.6145  -31.8685   23.2117 C   0  0  0  0  0  0
  -25.9048  -32.4817   23.8406 C   0  0  1  0  0  0
  -27.2320  -27.4247   20.0815 C   0  0  0  0  0  0
  -25.5910  -33.8616   24.2339 N   0  0  0  0  0  0
  -23.4004  -30.4949   21.5532 C   0  0  2  0  0  0
  -24.8412  -28.9609   20.1147 C   0  0  0  0  0  0
  -22.7400  -29.4670   22.4993 C   0  0  0  0  0  0
  -18.0268  -28.1374   22.8494 C   0  0  0  0  0  0
  -24.1477  -36.7295   23.2639 C   0  0  0  0  0  0
  -25.9310  -30.8291   21.3661 C   0  0  0  0  0  0
  -26.0029  -29.4643   20.7098 C   0  0  0  0  0  0
  -27.1943  -28.7021   20.6922 C   0  0  0  0  0  0
  -26.0382  -26.9320   19.4979 C   0  0  0  0  0  0
  -24.8548  -27.6935   19.5105 C   0  0  0  0  0  0
  -23.6056  -29.8314   20.1661 C   0  0  0  0  0  0
  -25.4101  -36.3103   24.0339 C   0  0  1  0  0  0
  -20.5857  -28.3666   23.1309 C   0  0  2  0  0  0
  -20.6754  -26.9402   22.5408 C   0  0  0  0  0  0
  -19.5733  -26.6387   21.5200 C   0  0  0  0  0  0
  -18.1912  -26.7925   22.1617 C   0  0  0  0  0  0
  -19.1524  -28.8837   23.2898 C   0  0  0  0  0  0
  -18.9447  -30.1446   23.8904 C   0  0  0  0  0  0
  -17.6453  -30.6587   24.0561 C   0  0  0  0  0  0
  -25.9039  -34.9470   23.5133 C   0  0  0  0  0  0
  -16.5342  -29.9084   23.6321 C   0  0  0  0  0  0
  -16.7265  -28.6497   23.0346 C   0  0  0  0  0  0
  -26.4478  -31.6598   25.0735 C   0  0  0  0  0  0
  -25.3754  -31.3707   26.1498 C   0  0  0  0  0  0
  -27.0306  -30.3036   24.6116 C   0  0  0  0  0  0
  -27.6054  -32.4327   25.7495 C   0  0  0  0  0  0
  -27.5572  -37.1805   24.8463 C   0  0  0  0  0  0
  -21.4135  -29.3040   22.3727 N   0  0  0  0  0  0
  -26.4285  -37.3793   23.9413 N   0  0  0  0  0  0
  -24.6670  -31.0789   22.1016 N   0  0  0  0  0  0
  -23.4181  -28.8200   23.3022 O   0  0  0  0  0  0
  -28.4321  -26.7320   20.1117 O   0  0  0  0  0  0
  -26.5588  -34.8922   22.4689 O   0  0  0  0  0  0
  -23.5341  -32.1440   23.7514 O   0  0  0  0  0  0
  -30.0978  -17.5558   22.2662 C   0  0  0  0  0  0
  -29.8318  -18.9407   22.2884 C   0  0  0  0  0  0
  -29.0652  -18.8040   19.9685 C   0  0  0  0  0  0
  -29.3195  -19.5939   21.1320 C   0  0  0  0  0  0
  -29.3636  -17.4082   19.9505 C   0  0  0  0  0  0
  -29.8734  -16.7761   21.1186 C   0  0  0  0  0  0
  -29.3607  -23.0230   19.5072 C   0  0  0  0  0  0
  -29.2116  -22.8296   18.1822 C   0  0  0  0  0  0
  -30.9147  -23.5764   21.9482 C   0  0  0  0  0  0
  -30.3748  -24.7300   21.0889 C   0  0  0  0  0  0
  -31.1676  -22.3267   21.0887 C   0  0  0  0  0  0
  -29.1120  -24.3315   20.2927 C   0  0  1  0  0  0
  -30.0328  -19.6642   23.6125 C   0  0  0  0  0  0
  -28.4102  -19.4130   18.7268 C   0  0  0  0  0  0
  -29.0493  -16.6076   18.6876 C   0  0  0  0  0  0
  -28.9909  -21.1080   21.1566 C   0  0  0  0  0  0
  -28.6408  -25.5076   19.3848 C   0  0  0  0  0  0
  -29.9535  -15.3620   21.2853 N   0  0  0  0  0  0
  -29.9492  -21.9185   20.3497 N   0  3  1  0  0  0
  -31.4831  -12.4272   19.1109 H   0  0  0  0  0  0
  -30.3602  -11.2853   19.7908 H   0  0  0  0  0  0
  -29.7439  -11.7907   17.4185 H   0  0  0  0  0  0
  -29.6773  -13.4948   17.7701 H   0  0  0  0  0  0
  -27.8227  -11.3154   18.7848 H   0  0  0  0  0  0
  -27.3786  -12.6700   17.7807 H   0  0  0  0  0  0
  -27.7248  -14.2440   19.6098 H   0  0  0  0  0  0
  -28.6851  -11.8770   21.2847 H   0  0  0  0  0  0
  -28.4540  -13.4747   21.9018 H   0  0  0  0  0  0
  -25.2743   -9.5686   22.4754 H   0  0  0  0  0  0
  -23.9992   -7.4634   22.7489 H   0  0  0  0  0  0
  -21.0831   -8.8757   19.8960 H   0  0  0  0  0  0
  -22.3685  -10.9652   19.6154 H   0  0  0  0  0  0
  -21.1982   -7.6137   23.9710 H   0  0  0  0  0  0
  -21.1485   -6.0524   25.9084 H   0  0  0  0  0  0
  -22.0598   -2.7607   23.2854 H   0  0  0  0  0  0
  -22.4042  -11.9934   22.4779 H   0  0  0  0  0  0
  -21.1113  -13.1366   22.2512 H   0  0  0  0  0  0
  -24.6868  -15.8482   20.5369 H   0  0  0  0  0  0
  -26.3166  -15.6217   20.1542 H   0  0  0  0  0  0
  -26.7113  -32.5508   23.1159 H   0  0  0  0  0  0
  -25.0095  -33.9780   25.0508 H   0  0  0  0  0  0
  -22.6893  -31.3127   21.4206 H   0  0  0  0  0  0
  -23.3739  -35.9629   23.3329 H   0  0  0  0  0  0
  -24.3575  -36.8874   22.2050 H   0  0  0  0  0  0
  -23.7231  -37.6512   23.6632 H   0  0  0  0  0  0
  -26.0518  -31.5979   20.6021 H   0  0  0  0  0  0
  -26.8155  -30.8737   21.9893 H   0  0  0  0  0  0
  -28.0930  -29.0923   21.1495 H   0  0  0  0  0  0
  -25.9662  -25.9605   19.0378 H   0  0  0  0  0  0
  -23.9553  -27.2958   19.0599 H   0  0  0  0  0  0
  -23.7153  -30.6093   19.4099 H   0  0  0  0  0  0
  -22.7251  -29.2574   19.8699 H   0  0  0  0  0  0
  -25.1270  -36.1975   25.0832 H   0  0  0  0  0  0
  -20.9960  -28.3240   24.1427 H   0  0  0  0  0  0
  -20.5650  -26.2278   23.3598 H   0  0  0  0  0  0
  -21.6630  -26.7445   22.1207 H   0  0  0  0  0  0
  -19.6894  -25.6301   21.1219 H   0  0  0  0  0  0
  -19.6660  -27.3200   20.6727 H   0  0  0  0  0  0
  -17.4179  -26.6683   21.4017 H   0  0  0  0  0  0
  -18.0319  -26.0065   22.9012 H   0  0  0  0  0  0
  -19.7926  -30.7257   24.2276 H   0  0  0  0  0  0
  -17.5007  -31.6264   24.5168 H   0  0  0  0  0  0
  -15.5342  -30.2984   23.7640 H   0  0  0  0  0  0
  -15.8665  -28.0814   22.7059 H   0  0  0  0  0  0
  -24.5893  -30.7090   25.7843 H   0  0  0  0  0  0
  -24.8985  -32.2863   26.5001 H   0  0  0  0  0  0
  -25.8112  -30.8833   27.0226 H   0  0  0  0  0  0
  -26.2842  -29.6810   24.1161 H   0  0  0  0  0  0
  -27.4069  -29.7264   25.4574 H   0  0  0  0  0  0
  -27.8692  -30.4363   23.9273 H   0  0  0  0  0  0
  -27.2678  -33.3638   26.2064 H   0  0  0  0  0  0
  -28.3861  -32.6866   25.0311 H   0  0  0  0  0  0
  -28.0723  -31.8455   26.5415 H   0  0  0  0  0  0
  -28.2590  -38.0099   24.7510 H   0  0  0  0  0  0
  -28.1060  -36.2627   24.6283 H   0  0  0  0  0  0
  -27.2298  -37.1467   25.8868 H   0  0  0  0  0  0
  -20.9292  -29.8773   21.6960 H   0  0  0  0  0  0
  -26.0167  -38.2872   24.1401 H   0  0  0  0  0  0
  -30.4393  -17.0661   23.1682 H   0  0  0  0  0  0
  -28.8458  -23.6026   17.5245 H   0  0  0  0  0  0
  -29.4703  -21.8929   17.7111 H   0  0  0  0  0  0
  -30.2149  -23.3529   22.7539 H   0  0  0  0  0  0
  -31.8451  -23.8796   22.4313 H   0  0  0  0  0  0
  -31.1529  -25.0534   20.3963 H   0  0  0  0  0  0
  -30.1609  -25.5882   21.7263 H   0  0  0  0  0  0
  -31.5468  -21.5022   21.6917 H   0  0  0  0  0  0
  -31.9500  -22.5421   20.3603 H   0  0  0  0  0  0
  -28.3094  -24.1282   21.0028 H   0  0  0  0  0  0
  -30.4689  -19.0027   24.3624 H   0  0  0  0  0  0
  -29.0737  -20.0043   24.0058 H   0  0  0  0  0  0
  -30.6989  -20.5195   23.5180 H   0  0  0  0  0  0
  -27.9729  -20.3958   18.8685 H   0  0  0  0  0  0
  -27.5830  -18.7903   18.3855 H   0  0  0  0  0  0
  -29.1333  -19.4857   17.9149 H   0  0  0  0  0  0
  -29.3123  -17.1637   17.7886 H   0  0  0  0  0  0
  -27.9862  -16.3734   18.6446 H   0  0  0  0  0  0
  -29.6017  -15.6809   18.6030 H   0  0  0  0  0  0
  -28.9452  -21.4988   22.1714 H   0  0  0  0  0  0
  -27.9729  -21.2539   20.7986 H   0  0  0  0  0  0
  -27.7922  -25.1829   18.7915 H   0  0  0  0  0  0
  -29.4222  -25.7195   18.6549 H   0  0  0  0  0  0
  -29.1905  -14.9574   21.8056 H   0  0  0  0  0  0
  -30.3016  -21.2291   19.7037 H   0  0  0  0  0  0
  1 25  1  0  0  0
  1 30  2  0  0  0
  1 88  1  0  0  0
  2  3  1  0  0  0
  2 25  1  0  0  0
  2 90  1  0  0  0
  2 91  1  0  0  0
  3  4  1  0  0  0
  3 92  1  0  0  0
  3 93  1  0  0  0
  4  5  1  0  0  0
  4 94  1  0  0  0
  4 95  1  0  0  0
  5  6  1  0  0  0
  5 26  1  0  0  0
  5 96  1  0  0  0
  6 25  1  0  0  0
  6 97  1  0  0  0
  6 98  1  0  0  0
  7  8  2  0  0  0
  7 26  1  0  0  0
  7 29  1  0  0  0
  8  9  1  0  0  0
  8 22  1  0  0  0
  9 10  1  0  0  0
  9 27  2  0  0  0
 10 11  2  0  0  0
 10 15  1  0  0  0
 11 12  1  0  0  0
 11 99  1  0  0  0
 12 13  2  0  0  0
 12100  1  0  0  0
 13 14  1  0  0  0
 13 31  1  0  0  0
 14 15  2  0  0  0
 14101  1  0  0  0
 15102  1  0  0  0
 16 17  2  0  0  0
 16 21  1  0  0  0
 16 31  1  0  0  0
 17 18  1  0  0  0
 17103  1  0  0  0
 18 19  2  0  0  0
 18104  1  0  0  0
 19 20  1  0  0  0
 19 24  1  0  0  0
 20 21  2  0  0  0
 20105  1  0  0  0
 21 23  1  0  0  0
 22 28  1  0  0  0
 22 32  2  0  0  0
 26 27  1  0  0  0
 28106  1  0  0  0
 28107  1  0  0  0
 29108  1  0  0  0
 29109  1  0  0  0
 33 34  1  0  0  0
 33 66  1  0  0  0
 33 70  2  0  0  0
 34 36  1  0  0  0
 34 59  1  0  0  0
 34110  1  0  0  0
 35 44  2  0  0  0
 35 45  1  0  0  0
 35 68  1  0  0  0
 36 56  1  0  0  0
 36111  1  0  0  0
 37 39  1  0  0  0
 37 47  1  0  0  0
 37 66  1  0  0  0
 37112  1  0  0  0
 38 43  2  0  0  0
 38 46  1  0  0  0
 38 47  1  0  0  0
 39 64  1  0  0  0
 39 67  2  0  0  0
 40 52  1  0  0  0
 40 53  2  0  0  0
 40 58  1  0  0  0
 41113  1  0  0  0
 41114  1  0  0  0
 41115  1  0  0  0
 41 48  1  0  0  0
 42 43  1  0  0  0
 42 66  1  0  0  0
 42116  1  0  0  0
 42117  1  0  0  0
 43 44  1  0  0  0
 44118  1  0  0  0
 45 46  2  0  0  0
 45119  1  0  0  0
 46120  1  0  0  0
 47121  1  0  0  0
 47122  1  0  0  0
 48 56  1  0  0  0
 48 65  1  0  0  0
 48123  1  0  0  0
 49 50  1  0  0  0
 49 53  1  0  0  0
 49 64  1  0  0  0
 49124  1  0  0  0
 50 51  1  0  0  0
 50125  1  0  0  0
 50126  1  0  0  0
 51 52  1  0  0  0
 51127  1  0  0  0
 51128  1  0  0  0
 52129  1  0  0  0
 52130  1  0  0  0
 53 54  1  0  0  0
 54 55  2  0  0  0
 54131  1  0  0  0
 55 57  1  0  0  0
 55132  1  0  0  0
 56 69  2  0  0  0
 57 58  2  0  0  0
 57133  1  0  0  0
 58134  1  0  0  0
 59 60  1  0  0  0
 59 61  1  0  0  0
 59 62  1  0  0  0
 60135  1  0  0  0
 60136  1  0  0  0
 60137  1  0  0  0
 61138  1  0  0  0
 61139  1  0  0  0
 61140  1  0  0  0
 62141  1  0  0  0
 62142  1  0  0  0
 62143  1  0  0  0
 63 65  1  0  0  0
 63144  1  0  0  0
 63145  1  0  0  0
 63146  1  0  0  0
 64147  1  0  0  0
 65148  1  0  0  0
 68 87  1  0  0  0
 71 72  2  0  0  0
 71 76  1  0  0  0
 71149  1  0  0  0
 72 74  1  0  0  0
 72 83  1  0  0  0
 73 74  2  0  0  0
 73 75  1  0  0  0
 73 84  1  0  0  0
 74 86  1  0  0  0
 75 76  2  0  0  0
 75 85  1  0  0  0
 76 88  1  0  0  0
 77 78  2  0  0  0
 77 82  1  0  0  0
 77 89  1  0  0  0
 78150  1  0  0  0
 78151  1  0  0  0
 79 80  1  0  0  0
 79 81  1  0  0  0
 79152  1  0  0  0
 79153  1  0  0  0
 80 82  1  0  0  0
 80154  1  0  0  0
 80155  1  0  0  0
 81 89  1  0  0  0
 81156  1  0  0  0
 81157  1  0  0  0
 82 87  1  0  0  0
 82158  1  0  0  0
 83159  1  0  0  0
 83160  1  0  0  0
 83161  1  0  0  0
 84162  1  0  0  0
 84163  1  0  0  0
 84164  1  0  0  0
 85165  1  0  0  0
 85166  1  0  0  0
 85167  1  0  0  0
 86168  1  0  0  0
 86169  1  0  0  0
 86 89  1  0  0  0
 87170  1  0  0  0
 87171  1  0  0  0
 88172  1  0  0  0
 89173  1  0  0  0
M  CHG  1  89   1
M  ISO  4   1 100  68 101  87 101  88 100
M  END
> <chiral flag>
0

> <version>
0

> <s_m_source_file>
/data/baiqing/PycharmProjects/Reinvent-master-3.2/result/LINK_invent/BTK/process_docking_weight1_custom_product_contain_oxygen_bond_distance_aromatic_linkinvent_7_9_3/rearranged_h_0033.sdf

> <i_m_source_file_index>
8

> <r_mmod_Potential_Energy-OPLS-2005>
-96.7652816772461

> <r_mmod_Stretch_Energy-OPLS-2005>
47.4186820983887

> <r_mmod_Bend_Energy-OPLS-2005>
128.630935668945

> <r_mmod_Torsional_Energy-OPLS-2005>
250.770767211914

> <r_mmod_Improper_Torsional_Energy-OPLS-2005>
5.07983207702637

> <r_mmod_Van_der_Waal_Energy-OPLS-2005>
167.428405761719

> <r_mmod_Electrostatic_Energy-OPLS-2005>
-283.732360839844

> <r_mmod_Solvation_Energy-OPLS-2005>
-424.67333984375

> <b_mmod_Minimization_Converged-OPLS-2005>
0

> <r_mmod_RMS_Derivative-OPLS-2005>
2.04505300521851

$$$$
8
                    3D
 Structure written by MMmdl.
163172  0  0  1  0            999 V2000
  -30.6230  -14.6906   20.4867 C   0  0  0  0  0  0
  -30.4311  -12.4174   19.4801 C   0  0  0  0  0  0
  -29.5150  -12.5227   18.2389 C   0  0  0  0  0  0
  -28.0361  -12.3612   18.6393 C   0  0  0  0  0  0
  -27.6528  -13.2290   19.8690 C   0  0  2  0  0  0
  -28.6950  -13.1161   21.0049 C   0  0  0  0  0  0
  -25.2578  -13.8188   20.5767 C   0  0  0  0  0  0
  -24.1836  -13.0447   20.9207 C   0  0  0  0  0  0
  -24.6421  -11.6914   20.8729 C   0  0  0  0  0  0
  -23.9086  -10.4300   21.0401 C   0  0  0  0  0  0
  -24.3636   -9.4220   21.9177 C   0  0  0  0  0  0
  -23.6308   -8.2247   22.0745 C   0  0  0  0  0  0
  -22.4286   -8.0296   21.3552 C   0  0  0  0  0  0
  -21.9914   -9.0272   20.4652 C   0  0  0  0  0  0
  -22.7250  -10.2138   20.3050 C   0  0  0  0  0  0
  -21.6848   -6.0758   22.5295 C   0  0  0  0  0  0
  -21.4032   -6.5659   23.8241 C   0  0  0  0  0  0
  -21.3657   -5.6801   24.9191 C   0  0  0  0  0  0
  -21.6035   -4.3062   24.7211 C   0  0  0  0  0  0
  -21.8829   -3.8150   23.4335 C   0  0  0  0  0  0
  -21.9209   -4.6987   22.3409 C   0  0  0  0  0  0
  -22.7874  -13.5245   21.1890 C   0  0  0  0  0  0
  -22.1665   -4.2183   21.0972 F   0  0  0  0  0  0
  -21.5609   -3.4534   25.7714 F   0  0  0  0  0  0
  -30.0094  -13.4596   20.4456 N   0  0  0  0  0  0
  -26.3010  -12.9395   20.3352 N   0  0  0  0  0  0
  -25.9357  -11.6533   20.5738 N   0  0  0  0  0  0
  -22.0514  -12.8212   22.0434 N   0  0  0  0  0  0
  -25.4309  -15.1916   20.4319 N   0  0  0  0  0  0
  -31.7672  -14.8330   20.0457 O   0  0  0  0  0  0
  -21.6643   -6.8888   21.4256 O   0  0  0  0  0  0
  -22.3566  -14.5589   20.6803 O   0  0  0  0  0  0
  -24.6315  -31.8529   23.1975 C   0  0  0  0  0  0
  -25.9144  -32.4762   23.8312 C   0  0  1  0  0  0
  -27.2077  -27.2396   20.1119 C   0  0  0  0  0  0
  -25.5961  -33.8558   24.2214 N   0  0  0  0  0  0
  -23.4291  -30.4811   21.5385 C   0  0  2  0  0  0
  -24.8702  -28.9274   20.1047 C   0  0  0  0  0  0
  -22.7512  -29.4593   22.4838 C   0  0  0  0  0  0
  -18.0300  -28.1412   22.8484 C   0  0  0  0  0  0
  -24.1475  -36.7263   23.2630 C   0  0  0  0  0  0
  -25.9776  -30.7559   21.3823 C   0  0  0  0  0  0
  -26.0419  -29.3776   20.7226 C   0  0  0  0  0  0
  -27.2073  -28.5442   20.7215 C   0  0  0  0  0  0
  -26.0068  -26.8647   19.4632 C   0  0  0  0  0  0
  -24.8588  -27.6792   19.4670 C   0  0  0  0  0  0
  -23.6500  -29.8255   20.1504 C   0  0  0  0  0  0
  -25.4094  -36.3054   24.0326 C   0  0  1  0  0  0
  -20.5912  -28.3718   23.1244 C   0  0  2  0  0  0
  -20.6787  -26.9431   22.5396 C   0  0  0  0  0  0
  -19.5759  -26.6377   21.5213 C   0  0  0  0  0  0
  -18.1940  -26.7954   22.1616 C   0  0  0  0  0  0
  -19.1563  -28.8871   23.2877 C   0  0  0  0  0  0
  -18.9492  -30.1473   23.8897 C   0  0  0  0  0  0
  -17.6501  -30.6620   24.0572 C   0  0  0  0  0  0
  -25.9066  -34.9447   23.5059 C   0  0  0  0  0  0
  -16.5379  -29.9128   23.6338 C   0  0  0  0  0  0
  -16.7292  -28.6543   23.0357 C   0  0  0  0  0  0
  -26.4493  -31.6626   25.0731 C   0  0  0  0  0  0
  -25.3724  -31.3846   26.1479 C   0  0  0  0  0  0
  -27.0321  -30.3033   24.6244 C   0  0  0  0  0  0
  -27.6021  -32.4393   25.7526 C   0  0  0  0  0  0
  -27.5603  -37.1739   24.8424 C   0  0  0  0  0  0
  -21.4214  -29.3066   22.3626 N   0  0  0  0  0  0
  -26.4225  -37.3802   23.9511 N   0  0  0  0  0  0
  -24.6986  -31.0481   22.0960 N   0  0  0  0  0  0
  -23.4218  -28.8091   23.2905 O   0  0  0  0  0  0
  -28.3185  -26.3589   20.2010 O   0  0  0  0  0  0
  -26.5623  -34.8938   22.4621 O   0  0  0  0  0  0
  -23.5458  -32.1336   23.7267 O   0  0  0  0  0  0
  -28.4317  -17.9908   18.2987 C   0  0  0  0  0  0
  -29.0221  -16.8934   18.9423 C   0  0  0  0  0  0
  -28.4108  -19.2791   18.8766 C   0  0  0  0  0  0
  -29.1183  -19.5555   20.0843 C   0  0  0  0  0  0
  -29.6030  -17.0316   20.2149 C   0  0  0  0  0  0
  -29.6719  -18.3809   20.7602 C   0  0  0  0  0  0
  -29.6383  -23.6404   17.8492 C   0  0  0  0  0  0
  -29.4161  -25.0044   18.5358 C   0  0  0  0  0  0
  -30.0219  -22.5186   18.8417 C   0  0  0  0  0  0
  -28.6980  -23.6657   20.5884 C   0  0  0  0  0  0
  -28.3591  -24.9486   19.6503 C   0  0  1  0  0  0
  -27.5221  -20.2954   18.1819 C   0  0  0  0  0  0
  -29.1793  -21.0378   20.7141 C   0  0  0  0  0  0
  -29.8995  -15.7770   20.9317 N   0  0  0  0  0  0
  -28.9658  -22.3203   19.8692 N   0  3  2  0  0  0
  -30.2331  -18.5425   21.9817 F   0  0  0  0  0  0
  -31.4773  -12.5248   19.1894 H   0  0  0  0  0  0
  -30.3530  -11.4257   19.9288 H   0  0  0  0  0  0
  -29.7867  -11.7665   17.5003 H   0  0  0  0  0  0
  -29.6618  -13.4884   17.7510 H   0  0  0  0  0  0
  -27.8701  -11.3073   18.8623 H   0  0  0  0  0  0
  -27.3875  -12.5998   17.7955 H   0  0  0  0  0  0
  -27.6563  -14.2609   19.5220 H   0  0  0  0  0  0
  -28.7139  -12.1047   21.4130 H   0  0  0  0  0  0
  -28.4347  -13.7714   21.8379 H   0  0  0  0  0  0
  -25.2777   -9.5701   22.4768 H   0  0  0  0  0  0
  -24.0050   -7.4627   22.7443 H   0  0  0  0  0  0
  -21.0845   -8.8771   19.8946 H   0  0  0  0  0  0
  -22.3706  -10.9685   19.6156 H   0  0  0  0  0  0
  -21.2030   -7.6178   23.9759 H   0  0  0  0  0  0
  -21.1469   -6.0513   25.9101 H   0  0  0  0  0  0
  -22.0612   -2.7615   23.2808 H   0  0  0  0  0  0
  -22.4132  -11.9794   22.4676 H   0  0  0  0  0  0
  -21.1181  -13.1269   22.2765 H   0  0  0  0  0  0
  -24.6700  -15.8478   20.5753 H   0  0  0  0  0  0
  -26.2981  -15.6383   20.1641 H   0  0  0  0  0  0
  -26.7214  -32.5378   23.1043 H   0  0  0  0  0  0
  -25.0245  -33.9697   25.0463 H   0  0  0  0  0  0
  -22.7276  -31.3053   21.3943 H   0  0  0  0  0  0
  -23.3807  -35.9518   23.3131 H   0  0  0  0  0  0
  -24.3614  -36.9035   22.2079 H   0  0  0  0  0  0
  -23.7098  -37.6363   23.6747 H   0  0  0  0  0  0
  -26.1216  -31.5132   20.6111 H   0  0  0  0  0  0
  -26.8536  -30.7982   22.0162 H   0  0  0  0  0  0
  -28.0999  -28.8783   21.2311 H   0  0  0  0  0  0
  -25.8860  -25.9241   18.9532 H   0  0  0  0  0  0
  -23.9614  -27.3305   18.9726 H   0  0  0  0  0  0
  -23.7993  -30.6095   19.4068 H   0  0  0  0  0  0
  -22.7617  -29.2799   19.8272 H   0  0  0  0  0  0
  -25.1243  -36.1841   25.0805 H   0  0  0  0  0  0
  -21.0022  -28.3292   24.1353 H   0  0  0  0  0  0
  -20.5668  -26.2342   23.3614 H   0  0  0  0  0  0
  -21.6655  -26.7445   22.1182 H   0  0  0  0  0  0
  -19.6931  -25.6267   21.1282 H   0  0  0  0  0  0
  -19.6719  -27.3157   20.6718 H   0  0  0  0  0  0
  -17.4212  -26.6702   21.4023 H   0  0  0  0  0  0
  -18.0353  -26.0105   22.9015 H   0  0  0  0  0  0
  -19.7982  -30.7286   24.2251 H   0  0  0  0  0  0
  -17.5076  -31.6306   24.5168 H   0  0  0  0  0  0
  -15.5390  -30.3055   23.7667 H   0  0  0  0  0  0
  -15.8682  -28.0876   22.7079 H   0  0  0  0  0  0
  -24.5869  -30.7206   25.7859 H   0  0  0  0  0  0
  -24.8985  -32.3066   26.4870 H   0  0  0  0  0  0
  -25.8049  -30.9069   27.0284 H   0  0  0  0  0  0
  -26.2903  -29.6822   24.1216 H   0  0  0  0  0  0
  -27.3931  -29.7259   25.4762 H   0  0  0  0  0  0
  -27.8814  -30.4301   23.9525 H   0  0  0  0  0  0
  -27.2612  -33.3744   26.1991 H   0  0  0  0  0  0
  -28.3919  -32.6872   25.0424 H   0  0  0  0  0  0
  -28.0594  -31.8605   26.5562 H   0  0  0  0  0  0
  -28.2391  -38.0259   24.7800 H   0  0  0  0  0  0
  -28.1312  -36.2823   24.5788 H   0  0  0  0  0  0
  -27.2411  -37.0805   25.8822 H   0  0  0  0  0  0
  -20.9360  -29.8904   21.6954 H   0  0  0  0  0  0
  -26.0062  -38.2799   24.1780 H   0  0  0  0  0  0
  -27.9221  -17.8105   17.3616 H   0  0  0  0  0  0
  -28.9424  -15.9239   18.4734 H   0  0  0  0  0  0
  -30.4240  -23.7432   17.1007 H   0  0  0  0  0  0
  -28.7422  -23.3613   17.2939 H   0  0  0  0  0  0
  -29.1143  -25.7428   17.7922 H   0  0  0  0  0  0
  -30.3578  -25.3589   18.9548 H   0  0  0  0  0  0
  -30.9683  -22.7590   19.3294 H   0  0  0  0  0  0
  -30.2002  -21.5942   18.2907 H   0  0  0  0  0  0
  -27.8793  -23.5217   21.2932 H   0  0  0  0  0  0
  -29.5753  -23.9005   21.1909 H   0  0  0  0  0  0
  -27.4261  -24.6841   19.1645 H   0  0  0  0  0  0
  -26.7796  -19.7887   17.5631 H   0  0  0  0  0  0
  -28.0951  -20.9434   17.5225 H   0  0  0  0  0  0
  -26.9558  -20.8836   18.9028 H   0  0  0  0  0  0
  -30.1452  -21.1376   21.2120 H   0  0  0  0  0  0
  -28.4421  -21.0533   21.5169 H   0  0  0  0  0  0
  -29.1379  -15.4913   21.5294 H   0  0  0  0  0  0
  -28.1169  -22.1135   19.3639 H   0  0  0  0  0  0
  1 25  1  0  0  0
  1 30  2  0  0  0
  1 84  1  0  0  0
  2  3  1  0  0  0
  2 25  1  0  0  0
  2 87  1  0  0  0
  2 88  1  0  0  0
  3  4  1  0  0  0
  3 89  1  0  0  0
  3 90  1  0  0  0
  4  5  1  0  0  0
  4 91  1  0  0  0
  4 92  1  0  0  0
  5  6  1  0  0  0
  5 26  1  0  0  0
  5 93  1  0  0  0
  6 25  1  0  0  0
  6 94  1  0  0  0
  6 95  1  0  0  0
  7  8  2  0  0  0
  7 26  1  0  0  0
  7 29  1  0  0  0
  8  9  1  0  0  0
  8 22  1  0  0  0
  9 10  1  0  0  0
  9 27  2  0  0  0
 10 11  2  0  0  0
 10 15  1  0  0  0
 11 12  1  0  0  0
 11 96  1  0  0  0
 12 13  2  0  0  0
 12 97  1  0  0  0
 13 14  1  0  0  0
 13 31  1  0  0  0
 14 15  2  0  0  0
 14 98  1  0  0  0
 15 99  1  0  0  0
 16 17  2  0  0  0
 16 21  1  0  0  0
 16 31  1  0  0  0
 17 18  1  0  0  0
 17100  1  0  0  0
 18 19  2  0  0  0
 18101  1  0  0  0
 19 20  1  0  0  0
 19 24  1  0  0  0
 20 21  2  0  0  0
 20102  1  0  0  0
 21 23  1  0  0  0
 22 28  1  0  0  0
 22 32  2  0  0  0
 26 27  1  0  0  0
 28103  1  0  0  0
 28104  1  0  0  0
 29105  1  0  0  0
 29106  1  0  0  0
 33 34  1  0  0  0
 33 66  1  0  0  0
 33 70  2  0  0  0
 34 36  1  0  0  0
 34 59  1  0  0  0
 34107  1  0  0  0
 35 44  2  0  0  0
 35 45  1  0  0  0
 35 68  1  0  0  0
 36 56  1  0  0  0
 36108  1  0  0  0
 37 39  1  0  0  0
 37 47  1  0  0  0
 37 66  1  0  0  0
 37109  1  0  0  0
 38 43  2  0  0  0
 38 46  1  0  0  0
 38 47  1  0  0  0
 39 64  1  0  0  0
 39 67  2  0  0  0
 40 52  1  0  0  0
 40 53  2  0  0  0
 40 58  1  0  0  0
 41110  1  0  0  0
 41111  1  0  0  0
 41112  1  0  0  0
 41 48  1  0  0  0
 42 43  1  0  0  0
 42 66  1  0  0  0
 42113  1  0  0  0
 42114  1  0  0  0
 43 44  1  0  0  0
 44115  1  0  0  0
 45 46  2  0  0  0
 45116  1  0  0  0
 46117  1  0  0  0
 47118  1  0  0  0
 47119  1  0  0  0
 48 56  1  0  0  0
 48 65  1  0  0  0
 48120  1  0  0  0
 49 50  1  0  0  0
 49 53  1  0  0  0
 49 64  1  0  0  0
 49121  1  0  0  0
 50 51  1  0  0  0
 50122  1  0  0  0
 50123  1  0  0  0
 51 52  1  0  0  0
 51124  1  0  0  0
 51125  1  0  0  0
 52126  1  0  0  0
 52127  1  0  0  0
 53 54  1  0  0  0
 54 55  2  0  0  0
 54128  1  0  0  0
 55 57  1  0  0  0
 55129  1  0  0  0
 56 69  2  0  0  0
 57 58  2  0  0  0
 57130  1  0  0  0
 58131  1  0  0  0
 59 60  1  0  0  0
 59 61  1  0  0  0
 59 62  1  0  0  0
 60132  1  0  0  0
 60133  1  0  0  0
 60134  1  0  0  0
 61135  1  0  0  0
 61136  1  0  0  0
 61137  1  0  0  0
 62138  1  0  0  0
 62139  1  0  0  0
 62140  1  0  0  0
 63 65  1  0  0  0
 63141  1  0  0  0
 63142  1  0  0  0
 63143  1  0  0  0
 64144  1  0  0  0
 65145  1  0  0  0
 68 81  1  0  0  0
 71 72  2  0  0  0
 71 73  1  0  0  0
 71146  1  0  0  0
 72 75  1  0  0  0
 72147  1  0  0  0
 73 74  2  0  0  0
 73 82  1  0  0  0
 74 76  1  0  0  0
 74 83  1  0  0  0
 75 76  2  0  0  0
 75 84  1  0  0  0
 76 86  1  0  0  0
 77 78  1  0  0  0
 77 79  1  0  0  0
 77148  1  0  0  0
 77149  1  0  0  0
 78 81  1  0  0  0
 78150  1  0  0  0
 78151  1  0  0  0
 79 85  1  0  0  0
 79152  1  0  0  0
 79153  1  0  0  0
 80 81  1  0  0  0
 80 85  1  0  0  0
 80154  1  0  0  0
 80155  1  0  0  0
 81156  1  0  0  0
 82157  1  0  0  0
 82158  1  0  0  0
 82159  1  0  0  0
 83160  1  0  0  0
 83161  1  0  0  0
 83 85  1  0  0  0
 84162  1  0  0  0
 85163  1  0  0  0
M  CHG  1  85   1
M  ISO  4   1 100  68 101  81 101  84 100
M  END
> <chiral flag>
0

> <version>
0

> <s_m_source_file>
/data/baiqing/PycharmProjects/Reinvent-master-3.2/result/LINK_invent/BTK/process_docking_weight1_custom_product_contain_oxygen_bond_distance_aromatic_linkinvent_7_9_3/rearranged_h_0033.sdf

> <i_m_source_file_index>
9

> <r_mmod_Potential_Energy-OPLS-2005>
108.002021789551

> <r_mmod_Stretch_Energy-OPLS-2005>
131.375885009766

> <r_mmod_Bend_Energy-OPLS-2005>
178.190017700195

> <r_mmod_Torsional_Energy-OPLS-2005>
280.843902587891

> <r_mmod_Improper_Torsional_Energy-OPLS-2005>
6.86735677719116

> <r_mmod_Van_der_Waal_Energy-OPLS-2005>
138.662002563477

> <r_mmod_Electrostatic_Energy-OPLS-2005>
-270.724487304688

> <r_mmod_Solvation_Energy-OPLS-2005>
-434.31494140625

> <b_mmod_Minimization_Converged-OPLS-2005>
0

> <r_mmod_RMS_Derivative-OPLS-2005>
3.2067506313324

$$$$
9
                    3D
 Structure written by MMmdl.
167176  0  0  1  0            999 V2000
  -30.7111  -14.5074   20.6413 C   0  0  0  0  0  0
  -30.4353  -12.3468   19.4641 C   0  0  0  0  0  0
  -29.5023  -12.5227   18.2457 C   0  0  0  0  0  0
  -28.0282  -12.3623   18.6598 C   0  0  0  0  0  0
  -27.6686  -13.2174   19.9051 C   0  0  2  0  0  0
  -28.7072  -13.0155   21.0350 C   0  0  0  0  0  0
  -25.2558  -13.8177   20.5748 C   0  0  0  0  0  0
  -24.1839  -13.0449   20.9220 C   0  0  0  0  0  0
  -24.6409  -11.6906   20.8777 C   0  0  0  0  0  0
  -23.9091  -10.4300   21.0398 C   0  0  0  0  0  0
  -24.3631   -9.4223   21.9191 C   0  0  0  0  0  0
  -23.6296   -8.2270   22.0749 C   0  0  0  0  0  0
  -22.4265   -8.0317   21.3570 C   0  0  0  0  0  0
  -21.9924   -9.0289   20.4649 C   0  0  0  0  0  0
  -22.7249  -10.2158   20.3056 C   0  0  0  0  0  0
  -21.6843   -6.0751   22.5278 C   0  0  0  0  0  0
  -21.4032   -6.5645   23.8218 C   0  0  0  0  0  0
  -21.3643   -5.6786   24.9179 C   0  0  0  0  0  0
  -21.6032   -4.3049   24.7211 C   0  0  0  0  0  0
  -21.8834   -3.8153   23.4329 C   0  0  0  0  0  0
  -21.9205   -4.6985   22.3392 C   0  0  0  0  0  0
  -22.7844  -13.5229   21.1837 C   0  0  0  0  0  0
  -22.1666   -4.2172   21.0969 F   0  0  0  0  0  0
  -21.5613   -3.4524   25.7719 F   0  0  0  0  0  0
  -30.0402  -13.3281   20.4908 N   0  0  0  0  0  0
  -26.3063  -12.9392   20.3533 N   0  0  0  0  0  0
  -25.9361  -11.6533   20.5894 N   0  0  0  0  0  0
  -22.0468  -12.8256   22.0366 N   0  0  0  0  0  0
  -25.4224  -15.1902   20.4152 N   0  0  0  0  0  0
  -31.7931  -14.7174   20.0852 O   0  0  0  0  0  0
  -21.6629   -6.8909   21.4243 O   0  0  0  0  0  0
  -22.3546  -14.5529   20.6610 O   0  0  0  0  0  0
  -24.6352  -31.8715   23.2156 C   0  0  0  0  0  0
  -25.9179  -32.4886   23.8478 C   0  0  1  0  0  0
  -27.2357  -27.3699   20.1204 C   0  0  0  0  0  0
  -25.5951  -33.8679   24.2394 N   0  0  0  0  0  0
  -23.4468  -30.4961   21.5661 C   0  0  2  0  0  0
  -24.8676  -28.9382   20.1357 C   0  0  0  0  0  0
  -22.7762  -29.4820   22.5198 C   0  0  0  0  0  0
  -17.9911  -28.1206   22.8677 C   0  0  0  0  0  0
  -24.1467  -36.7366   23.2640 C   0  0  0  0  0  0
  -25.9674  -30.8112   21.3723 C   0  0  0  0  0  0
  -26.0305  -29.4327   20.7363 C   0  0  0  0  0  0
  -27.2160  -28.6549   20.7238 C   0  0  0  0  0  0
  -26.0602  -26.9137   19.4879 C   0  0  0  0  0  0
  -24.8771  -27.6811   19.5051 C   0  0  0  0  0  0
  -23.6448  -29.8258   20.1786 C   0  0  0  0  0  0
  -25.4095  -36.3171   24.0344 C   0  0  1  0  0  0
  -20.4721  -28.4661   22.7580 C   0  0  2  0  0  0
  -20.6935  -26.9699   22.5149 C   0  0  0  0  0  0
  -19.5528  -26.4499   21.6145 C   0  0  0  0  0  0
  -18.1527  -26.7551   22.1916 C   0  0  0  0  0  0
  -19.1137  -28.8964   23.2455 C   0  0  0  0  0  0
  -18.9397  -30.1437   23.8766 C   0  0  0  0  0  0
  -17.6437  -30.6491   24.0808 C   0  0  0  0  0  0
  -25.9039  -34.9507   23.5157 C   0  0  0  0  0  0
  -16.5252  -29.8957   23.6819 C   0  0  0  0  0  0
  -16.6971  -28.6290   23.0946 C   0  0  0  0  0  0
  -26.4504  -31.6646   25.0819 C   0  0  0  0  0  0
  -25.3734  -31.3766   26.1546 C   0  0  0  0  0  0
  -27.0293  -30.3089   24.6147 C   0  0  0  0  0  0
  -27.6068  -32.4355   25.7619 C   0  0  0  0  0  0
  -27.5583  -37.1856   24.8464 C   0  0  0  0  0  0
  -21.4534  -29.4587   22.4033 N   0  0  0  0  0  0
  -26.4297  -37.3850   23.9411 N   0  0  0  0  0  0
  -24.7068  -31.0737   22.1131 N   0  0  0  0  0  0
  -23.4228  -28.7493   23.2714 O   0  0  0  0  0  0
  -28.4237  -26.6586   20.0515 O   0  0  0  0  0  0
  -26.5582  -34.8951   22.4710 O   0  0  0  0  0  0
  -23.5491  -32.1460   23.7455 O   0  0  0  0  0  0
  -27.0229  -18.4793   21.2516 C   0  0  0  0  0  0
  -28.0557  -17.5694   21.5098 C   0  0  0  0  0  0
  -27.2893  -19.8181   20.8834 C   0  0  0  0  0  0
  -29.3980  -17.9744   21.4094 C   0  0  0  0  0  0
  -29.6811  -19.3690   21.1822 C   0  0  0  0  0  0
  -28.6282  -20.3088   20.8707 C   0  0  0  0  0  0
  -28.2364  -23.5008   22.1496 C   0  0  0  0  0  0
  -28.2672  -22.7767   23.2787 C   0  0  0  0  0  0
  -28.2885  -25.0238   22.0034 C   0  0  0  0  0  0
  -27.9682  -24.0557   19.8296 C   0  0  0  0  0  0
  -28.5817  -25.2874   20.5328 C   0  0  1  0  0  0
  -26.0815  -20.6582   20.4947 C   0  0  0  0  0  0
  -31.1284  -19.8534   21.2487 C   0  0  0  0  0  0
  -30.5061  -16.8905   21.4959 C   0  0  0  0  0  0
  -28.9468  -21.7610   20.3608 C   0  0  0  0  0  0
  -30.0928  -15.4700   21.3672 N   0  0  0  0  0  0
  -28.0606  -22.9071   20.7874 N   0  3  1  0  0  0
  -31.4804  -12.4528   19.1698 H   0  0  0  0  0  0
  -30.3575  -11.3383   19.8714 H   0  0  0  0  0  0
  -29.7511  -11.7875   17.4814 H   0  0  0  0  0  0
  -29.6539  -13.5071   17.7982 H   0  0  0  0  0  0
  -27.8673  -11.3073   18.8781 H   0  0  0  0  0  0
  -27.3620  -12.6004   17.8287 H   0  0  0  0  0  0
  -27.7153  -14.2641   19.6002 H   0  0  0  0  0  0
  -28.6945  -11.9843   21.3922 H   0  0  0  0  0  0
  -28.4524  -13.6148   21.9104 H   0  0  0  0  0  0
  -25.2783   -9.5664   22.4763 H   0  0  0  0  0  0
  -24.0000   -7.4634   22.7436 H   0  0  0  0  0  0
  -21.0875   -8.8797   19.8925 H   0  0  0  0  0  0
  -22.3732  -10.9707   19.6152 H   0  0  0  0  0  0
  -21.2045   -7.6156   23.9726 H   0  0  0  0  0  0
  -21.1425   -6.0514   25.9075 H   0  0  0  0  0  0
  -22.0622   -2.7617   23.2812 H   0  0  0  0  0  0
  -22.4104  -11.9960   22.4835 H   0  0  0  0  0  0
  -21.1056  -13.1228   22.2494 H   0  0  0  0  0  0
  -24.6439  -15.8313   20.5156 H   0  0  0  0  0  0
  -26.2713  -15.6371   20.0919 H   0  0  0  0  0  0
  -26.7283  -32.5543   23.1270 H   0  0  0  0  0  0
  -25.0078  -33.9841   25.0515 H   0  0  0  0  0  0
  -22.7562  -31.3285   21.4136 H   0  0  0  0  0  0
  -23.3715  -35.9709   23.3308 H   0  0  0  0  0  0
  -24.3559  -36.8985   22.2055 H   0  0  0  0  0  0
  -23.7205  -37.6579   23.6635 H   0  0  0  0  0  0
  -26.0652  -31.5567   20.5820 H   0  0  0  0  0  0
  -26.8656  -30.8937   21.9724 H   0  0  0  0  0  0
  -28.1188  -29.0364   21.1805 H   0  0  0  0  0  0
  -26.0558  -25.9874   18.9341 H   0  0  0  0  0  0
  -23.9906  -27.3116   19.0110 H   0  0  0  0  0  0
  -23.7866  -30.5994   19.4240 H   0  0  0  0  0  0
  -22.7610  -29.2688   19.8666 H   0  0  0  0  0  0
  -25.1244  -36.2089   25.0838 H   0  0  0  0  0  0
  -20.1524  -28.6903   21.7382 H   0  0  0  0  0  0
  -20.7063  -26.4314   23.4629 H   0  0  0  0  0  0
  -21.6548  -26.7867   22.0350 H   0  0  0  0  0  0
  -19.6568  -25.3744   21.4593 H   0  0  0  0  0  0
  -19.6337  -26.8931   20.6205 H   0  0  0  0  0  0
  -17.4094  -26.6498   21.3981 H   0  0  0  0  0  0
  -17.9073  -25.9972   22.9375 H   0  0  0  0  0  0
  -19.7984  -30.7441   24.1490 H   0  0  0  0  0  0
  -17.5078  -31.6262   24.5286 H   0  0  0  0  0  0
  -15.5287  -30.2867   23.8364 H   0  0  0  0  0  0
  -15.8269  -28.0567   22.8005 H   0  0  0  0  0  0
  -24.5883  -30.7155   25.7886 H   0  0  0  0  0  0
  -24.8930  -32.2921   26.5015 H   0  0  0  0  0  0
  -25.8053  -30.8927   27.0311 H   0  0  0  0  0  0
  -26.2823  -29.6957   24.1105 H   0  0  0  0  0  0
  -27.3983  -29.7248   25.4581 H   0  0  0  0  0  0
  -27.8696  -30.4452   23.9342 H   0  0  0  0  0  0
  -27.2672  -33.3635   26.2235 H   0  0  0  0  0  0
  -28.3871  -32.6969   25.0465 H   0  0  0  0  0  0
  -28.0725  -31.8450   26.5519 H   0  0  0  0  0  0
  -28.2615  -38.0144   24.7491 H   0  0  0  0  0  0
  -28.1062  -36.2670   24.6288 H   0  0  0  0  0  0
  -27.2298  -37.1519   25.8872 H   0  0  0  0  0  0
  -21.0770  -30.2011   21.8293 H   0  0  0  0  0  0
  -26.0194  -38.2944   24.1400 H   0  0  0  0  0  0
  -26.0066  -18.1180   21.2927 H   0  0  0  0  0  0
  -27.7941  -16.5468   21.7544 H   0  0  0  0  0  0
  -28.3448  -23.2529   24.2459 H   0  0  0  0  0  0
  -28.1966  -21.6992   23.2547 H   0  0  0  0  0  0
  -29.0566  -25.4707   22.6330 H   0  0  0  0  0  0
  -27.3247  -25.4462   22.2906 H   0  0  0  0  0  0
  -28.4270  -23.8736   18.8581 H   0  0  0  0  0  0
  -26.9036  -24.1947   19.6707 H   0  0  0  0  0  0
  -29.6592  -25.1449   20.4310 H   0  0  0  0  0  0
  -26.2818  -21.2816   19.6254 H   0  0  0  0  0  0
  -25.7389  -21.2736   21.3292 H   0  0  0  0  0  0
  -25.2471  -20.0166   20.2073 H   0  0  0  0  0  0
  -31.8177  -19.0941   21.6096 H   0  0  0  0  0  0
  -31.2414  -20.6842   21.9439 H   0  0  0  0  0  0
  -31.4780  -20.1805   20.2711 H   0  0  0  0  0  0
  -31.2030  -17.1091   20.6862 H   0  0  0  0  0  0
  -31.0466  -16.9892   22.4378 H   0  0  0  0  0  0
  -28.8501  -21.6647   19.2775 H   0  0  0  0  0  0
  -29.9846  -22.0439   20.5306 H   0  0  0  0  0  0
  -29.2920  -15.1944   21.9091 H   0  0  0  0  0  0
  -27.1438  -22.4848   20.7603 H   0  0  0  0  0  0
  1 25  1  0  0  0
  1 30  2  0  0  0
  1 86  1  0  0  0
  2  3  1  0  0  0
  2 25  1  0  0  0
  2 88  1  0  0  0
  2 89  1  0  0  0
  3  4  1  0  0  0
  3 90  1  0  0  0
  3 91  1  0  0  0
  4  5  1  0  0  0
  4 92  1  0  0  0
  4 93  1  0  0  0
  5  6  1  0  0  0
  5 26  1  0  0  0
  5 94  1  0  0  0
  6 25  1  0  0  0
  6 95  1  0  0  0
  6 96  1  0  0  0
  7  8  2  0  0  0
  7 26  1  0  0  0
  7 29  1  0  0  0
  8  9  1  0  0  0
  8 22  1  0  0  0
  9 10  1  0  0  0
  9 27  2  0  0  0
 10 11  2  0  0  0
 10 15  1  0  0  0
 11 12  1  0  0  0
 11 97  1  0  0  0
 12 13  2  0  0  0
 12 98  1  0  0  0
 13 14  1  0  0  0
 13 31  1  0  0  0
 14 15  2  0  0  0
 14 99  1  0  0  0
 15100  1  0  0  0
 16 17  2  0  0  0
 16 21  1  0  0  0
 16 31  1  0  0  0
 17 18  1  0  0  0
 17101  1  0  0  0
 18 19  2  0  0  0
 18102  1  0  0  0
 19 20  1  0  0  0
 19 24  1  0  0  0
 20 21  2  0  0  0
 20103  1  0  0  0
 21 23  1  0  0  0
 22 28  1  0  0  0
 22 32  2  0  0  0
 26 27  1  0  0  0
 28104  1  0  0  0
 28105  1  0  0  0
 29106  1  0  0  0
 29107  1  0  0  0
 33 34  1  0  0  0
 33 66  1  0  0  0
 33 70  2  0  0  0
 34 36  1  0  0  0
 34 59  1  0  0  0
 34108  1  0  0  0
 35 44  2  0  0  0
 35 45  1  0  0  0
 35 68  1  0  0  0
 36 56  1  0  0  0
 36109  1  0  0  0
 37 39  1  0  0  0
 37 47  1  0  0  0
 37 66  1  0  0  0
 37110  1  0  0  0
 38 43  2  0  0  0
 38 46  1  0  0  0
 38 47  1  0  0  0
 39 64  1  0  0  0
 39 67  2  0  0  0
 40 52  1  0  0  0
 40 53  2  0  0  0
 40 58  1  0  0  0
 41111  1  0  0  0
 41112  1  0  0  0
 41113  1  0  0  0
 41 48  1  0  0  0
 42 43  1  0  0  0
 42 66  1  0  0  0
 42114  1  0  0  0
 42115  1  0  0  0
 43 44  1  0  0  0
 44116  1  0  0  0
 45 46  2  0  0  0
 45117  1  0  0  0
 46118  1  0  0  0
 47119  1  0  0  0
 47120  1  0  0  0
 48 56  1  0  0  0
 48 65  1  0  0  0
 48121  1  0  0  0
 49 50  1  0  0  0
 49 53  1  0  0  0
 49 64  1  0  0  0
 49122  1  0  0  0
 50 51  1  0  0  0
 50123  1  0  0  0
 50124  1  0  0  0
 51 52  1  0  0  0
 51125  1  0  0  0
 51126  1  0  0  0
 52127  1  0  0  0
 52128  1  0  0  0
 53 54  1  0  0  0
 54 55  2  0  0  0
 54129  1  0  0  0
 55 57  1  0  0  0
 55130  1  0  0  0
 56 69  2  0  0  0
 57 58  2  0  0  0
 57131  1  0  0  0
 58132  1  0  0  0
 59 60  1  0  0  0
 59 61  1  0  0  0
 59 62  1  0  0  0
 60133  1  0  0  0
 60134  1  0  0  0
 60135  1  0  0  0
 61136  1  0  0  0
 61137  1  0  0  0
 61138  1  0  0  0
 62139  1  0  0  0
 62140  1  0  0  0
 62141  1  0  0  0
 63 65  1  0  0  0
 63142  1  0  0  0
 63143  1  0  0  0
 63144  1  0  0  0
 64145  1  0  0  0
 65146  1  0  0  0
 68 81  1  0  0  0
 71 72  2  0  0  0
 71 73  1  0  0  0
 71147  1  0  0  0
 72 74  1  0  0  0
 72148  1  0  0  0
 73 76  2  0  0  0
 73 82  1  0  0  0
 74 75  2  0  0  0
 74 84  1  0  0  0
 75 76  1  0  0  0
 75 83  1  0  0  0
 76 85  1  0  0  0
 77 78  2  0  0  0
 77 79  1  0  0  0
 77 87  1  0  0  0
 78149  1  0  0  0
 78150  1  0  0  0
 79 81  1  0  0  0
 79151  1  0  0  0
 79152  1  0  0  0
 80 81  1  0  0  0
 80 87  1  0  0  0
 80153  1  0  0  0
 80154  1  0  0  0
 81155  1  0  0  0
 82156  1  0  0  0
 82157  1  0  0  0
 82158  1  0  0  0
 83159  1  0  0  0
 83160  1  0  0  0
 83161  1  0  0  0
 84 86  1  0  0  0
 84162  1  0  0  0
 84163  1  0  0  0
 85164  1  0  0  0
 85165  1  0  0  0
 85 87  1  0  0  0
 86166  1  0  0  0
 87167  1  0  0  0
M  CHG  1  87   1
M  ISO  4   1 100  68 101  81 101  86 100
M  END
> <chiral flag>
0

> <version>
0

> <s_m_source_file>
/data/baiqing/PycharmProjects/Reinvent-master-3.2/result/LINK_invent/BTK/process_docking_weight1_custom_product_contain_oxygen_bond_distance_aromatic_linkinvent_7_9_3/rearranged_h_0033.sdf

> <i_m_source_file_index>
10

> <r_mmod_Potential_Energy-OPLS-2005>
41.6099739074707

> <r_mmod_Stretch_Energy-OPLS-2005>
58.6835327148438

> <r_mmod_Bend_Energy-OPLS-2005>
272.234985351562

> <r_mmod_Torsional_Energy-OPLS-2005>
244.400588989258

> <r_mmod_Improper_Torsional_Energy-OPLS-2005>
5.00749969482422

> <r_mmod_Van_der_Waal_Energy-OPLS-2005>
147.880416870117

> <r_mmod_Electrostatic_Energy-OPLS-2005>
-307.388580322266

> <r_mmod_Solvation_Energy-OPLS-2005>
-420.789276123047

> <b_mmod_Minimization_Converged-OPLS-2005>
0

> <r_mmod_RMS_Derivative-OPLS-2005>
6.64096641540527

$$$$
10
                    3D
 Structure written by MMmdl.
156164  0  0  1  0            999 V2000
  -30.6214  -14.4959   20.5735 C   0  0  0  0  0  0
  -30.4322  -12.3200   19.4124 C   0  0  0  0  0  0
  -29.4903  -12.4999   18.1990 C   0  0  0  0  0  0
  -28.0131  -12.3456   18.6193 C   0  0  0  0  0  0
  -27.6513  -13.1884   19.8723 C   0  0  2  0  0  0
  -28.6884  -12.9391   20.9866 C   0  0  0  0  0  0
  -25.2467  -13.8049   20.5546 C   0  0  0  0  0  0
  -24.1765  -13.0353   20.9246 C   0  0  0  0  0  0
  -24.6337  -11.6847   20.8807 C   0  0  0  0  0  0
  -23.9025  -10.4237   21.0436 C   0  0  0  0  0  0
  -24.3594   -9.4149   21.9201 C   0  0  0  0  0  0
  -23.6256   -8.2191   22.0768 C   0  0  0  0  0  0
  -22.4244   -8.0231   21.3557 C   0  0  0  0  0  0
  -21.9891   -9.0196   20.4656 C   0  0  0  0  0  0
  -22.7216  -10.2071   20.3063 C   0  0  0  0  0  0
  -21.6804   -6.0701   22.5277 C   0  0  0  0  0  0
  -21.3956   -6.5616   23.8200 C   0  0  0  0  0  0
  -21.3655   -5.6768   24.9165 C   0  0  0  0  0  0
  -21.6046   -4.3038   24.7214 C   0  0  0  0  0  0
  -21.8827   -3.8137   23.4339 C   0  0  0  0  0  0
  -21.9181   -4.6943   22.3388 C   0  0  0  0  0  0
  -22.7818  -13.5198   21.1869 C   0  0  0  0  0  0
  -22.1672   -4.2137   21.0969 F   0  0  0  0  0  0
  -21.5676   -3.4536   25.7741 F   0  0  0  0  0  0
  -30.0125  -13.2829   20.4491 N   0  0  0  0  0  0
  -26.2927  -12.9209   20.3347 N   0  0  0  0  0  0
  -25.9242  -11.6396   20.5799 N   0  0  0  0  0  0
  -22.0410  -12.8226   22.0415 N   0  0  0  0  0  0
  -25.3982  -15.1709   20.3532 N   0  0  0  0  0  0
  -31.7483  -14.7200   20.1230 O   0  0  0  0  0  0
  -21.6609   -6.8841   21.4239 O   0  0  0  0  0  0
  -22.3543  -14.5480   20.6650 O   0  0  0  0  0  0
  -24.6203  -31.8688   23.2058 C   0  0  0  0  0  0
  -25.9094  -32.4820   23.8364 C   0  0  1  0  0  0
  -27.1942  -27.3729   20.0984 C   0  0  0  0  0  0
  -25.5946  -33.8621   24.2297 N   0  0  0  0  0  0
  -23.4064  -30.4992   21.5489 C   0  0  2  0  0  0
  -24.8399  -28.9595   20.1185 C   0  0  0  0  0  0
  -22.7376  -29.4728   22.4953 C   0  0  0  0  0  0
  -18.0208  -28.1298   22.8417 C   0  0  0  0  0  0
  -24.1500  -36.7285   23.2650 C   0  0  0  0  0  0
  -25.9462  -30.8134   21.3743 C   0  0  0  0  0  0
  -26.0094  -29.4495   20.7102 C   0  0  0  0  0  0
  -27.1922  -28.6653   20.6911 C   0  0  0  0  0  0
  -25.9906  -26.9130   19.5141 C   0  0  0  0  0  0
  -24.8265  -27.6954   19.5183 C   0  0  0  0  0  0
  -23.6140  -29.8384   20.1618 C   0  0  0  0  0  0
  -25.4116  -36.3096   24.0339 C   0  0  1  0  0  0
  -20.5816  -28.3681   23.1213 C   0  0  2  0  0  0
  -20.6805  -26.9471   22.5207 C   0  0  0  0  0  0
  -19.5732  -26.6402   21.5080 C   0  0  0  0  0  0
  -18.1919  -26.7810   22.1622 C   0  0  0  0  0  0
  -19.1437  -28.8787   23.2844 C   0  0  0  0  0  0
  -18.9279  -30.1400   23.8848 C   0  0  0  0  0  0
  -17.6233  -30.6438   24.0518 C   0  0  0  0  0  0
  -25.9063  -34.9474   23.5107 C   0  0  0  0  0  0
  -16.5162  -29.8901   23.6222 C   0  0  0  0  0  0
  -16.7167  -28.6355   23.0204 C   0  0  0  0  0  0
  -26.4512  -31.6621   25.0708 C   0  0  0  0  0  0
  -25.3764  -31.3726   26.1439 C   0  0  0  0  0  0
  -27.0382  -30.3054   24.6160 C   0  0  0  0  0  0
  -27.6064  -32.4350   25.7497 C   0  0  0  0  0  0
  -27.5571  -37.1809   24.8467 C   0  0  0  0  0  0
  -21.4103  -29.3117   22.3679 N   0  0  0  0  0  0
  -26.4291  -37.3776   23.9413 N   0  0  0  0  0  0
  -24.6764  -31.0765   22.0989 N   0  0  0  0  0  0
  -23.4115  -28.8225   23.2997 O   0  0  0  0  0  0
  -28.3544  -26.6097   20.1129 O   0  0  0  0  0  0
  -26.5608  -34.8909   22.4665 O   0  0  0  0  0  0
  -23.5398  -32.1487   23.7434 O   0  0  0  0  0  0
  -27.6819  -17.5501   21.1405 C   0  0  0  0  0  0
  -26.6376  -18.4795   21.2990 C   0  0  0  0  0  0
  -29.0262  -17.9707   21.1454 C   0  0  0  0  0  0
  -28.2458  -20.3246   21.4517 C   0  0  0  0  0  0
  -26.9115  -19.8494   21.4626 C   0  0  0  0  0  0
  -29.3003  -19.3679   21.2814 C   0  0  0  0  0  0
  -30.1696  -16.9380   20.9778 C   0  0  0  0  0  0
  -28.5162  -21.8252   21.7341 C   0  0  0  0  0  0
  -28.1664  -24.2450   21.0323 C   0  0  0  0  0  0
  -28.3190  -25.1906   19.7960 C   0  0  0  0  0  0
  -29.8444  -15.4918   21.0650 N   0  0  0  0  0  0
  -28.0123  -22.7846   20.7020 N   0  3  0  0  0  0
  -25.5791  -20.9316   21.6894 Cl  0  0  0  0  0  0
  -30.9503  -19.8946   21.2344 Cl  0  0  0  0  0  0
  -31.4682  -12.4669   19.0989 H   0  0  0  0  0  0
  -30.3821  -11.2955   19.7908 H   0  0  0  0  0  0
  -29.7291  -11.7696   17.4212 H   0  0  0  0  0  0
  -29.6437  -13.4871   17.7532 H   0  0  0  0  0  0
  -27.8452  -11.2874   18.8332 H   0  0  0  0  0  0
  -27.3554  -12.5978   17.7877 H   0  0  0  0  0  0
  -27.7019  -14.2381   19.5876 H   0  0  0  0  0  0
  -28.6739  -11.8851   21.2721 H   0  0  0  0  0  0
  -28.4501  -13.4827   21.8999 H   0  0  0  0  0  0
  -25.2742   -9.5596   22.4773 H   0  0  0  0  0  0
  -23.9929   -7.4568   22.7492 H   0  0  0  0  0  0
  -21.0828   -8.8704   19.8965 H   0  0  0  0  0  0
  -22.3680  -10.9594   19.6157 H   0  0  0  0  0  0
  -21.1897   -7.6114   23.9696 H   0  0  0  0  0  0
  -21.1493   -6.0504   25.9068 H   0  0  0  0  0  0
  -22.0614   -2.7606   23.2828 H   0  0  0  0  0  0
  -22.3972  -11.9908   22.4875 H   0  0  0  0  0  0
  -21.1021  -13.1267   22.2535 H   0  0  0  0  0  0
  -24.5659  -15.7501   20.3135 H   0  0  0  0  0  0
  -26.1535  -15.5456   19.7909 H   0  0  0  0  0  0
  -26.7125  -32.5503   23.1094 H   0  0  0  0  0  0
  -25.0113  -33.9782   25.0447 H   0  0  0  0  0  0
  -22.6974  -31.3178   21.4107 H   0  0  0  0  0  0
  -23.3761  -35.9632   23.3349 H   0  0  0  0  0  0
  -24.3585  -36.8865   22.2060 H   0  0  0  0  0  0
  -23.7261  -37.6490   23.6648 H   0  0  0  0  0  0
  -26.0875  -31.5850   20.6144 H   0  0  0  0  0  0
  -26.8255  -30.8460   22.0054 H   0  0  0  0  0  0
  -28.1005  -29.0372   21.1472 H   0  0  0  0  0  0
  -25.8851  -25.9499   19.0466 H   0  0  0  0  0  0
  -23.9167  -27.3103   19.0783 H   0  0  0  0  0  0
  -23.7434  -30.6160   19.4103 H   0  0  0  0  0  0
  -22.7316  -29.2723   19.8574 H   0  0  0  0  0  0
  -25.1315  -36.1948   25.0833 H   0  0  0  0  0  0
  -20.9855  -28.3194   24.1350 H   0  0  0  0  0  0
  -20.6035  -26.2205   23.3303 H   0  0  0  0  0  0
  -21.6621  -26.7737   22.0807 H   0  0  0  0  0  0
  -19.6580  -27.3256   20.6620 H   0  0  0  0  0  0
  -19.6908  -25.6313   21.1051 H   0  0  0  0  0  0
  -17.4116  -26.6382   21.4128 H   0  0  0  0  0  0
  -18.0460  -25.9974   22.9072 H   0  0  0  0  0  0
  -19.7702  -30.7245   24.2317 H   0  0  0  0  0  0
  -17.4681  -31.6085   24.5128 H   0  0  0  0  0  0
  -15.5126  -30.2762   23.7514 H   0  0  0  0  0  0
  -15.8613  -28.0666   22.6803 H   0  0  0  0  0  0
  -24.5890  -30.7157   25.7714 H   0  0  0  0  0  0
  -24.9040  -32.2906   26.4957 H   0  0  0  0  0  0
  -25.8115  -30.8784   27.0144 H   0  0  0  0  0  0
  -26.2960  -29.6751   24.1245 H   0  0  0  0  0  0
  -27.4142  -29.7357   25.4671 H   0  0  0  0  0  0
  -27.8802  -30.4328   23.9349 H   0  0  0  0  0  0
  -27.2655  -33.3611   26.2155 H   0  0  0  0  0  0
  -28.3879  -32.7001   25.0351 H   0  0  0  0  0  0
  -28.0761  -31.8438   26.5380 H   0  0  0  0  0  0
  -28.2610  -38.0078   24.7487 H   0  0  0  0  0  0
  -28.1048  -36.2613   24.6360 H   0  0  0  0  0  0
  -27.2282  -37.1532   25.8864 H   0  0  0  0  0  0
  -20.9291  -29.8826   21.6841 H   0  0  0  0  0  0
  -26.0179  -38.2854   24.1401 H   0  0  0  0  0  0
  -27.4456  -16.5073   21.0270 H   0  0  0  0  0  0
  -25.6131  -18.1345   21.3208 H   0  0  0  0  0  0
  -30.6135  -17.1246   20.0033 H   0  0  0  0  0  0
  -30.9426  -17.1627   21.7088 H   0  0  0  0  0  0
  -29.5814  -22.0034   21.8725 H   0  0  0  0  0  0
  -28.0649  -22.0608   22.7007 H   0  0  0  0  0  0
  -27.3092  -24.5541   21.6293 H   0  0  0  0  0  0
  -29.0407  -24.3842   21.6674 H   0  0  0  0  0  0
  -27.6032  -24.9329   19.0201 H   0  0  0  0  0  0
  -29.2733  -24.9716   19.3183 H   0  0  0  0  0  0
  -28.9468  -15.2282   21.4437 H   0  0  0  0  0  0
  -27.0288  -22.5889   20.5575 H   0  0  0  0  0  0
  -28.4933  -22.5782   19.8430 H   0  0  0  0  0  0
  1 25  1  0  0  0
  1 30  2  0  0  0
  1 81  1  0  0  0
  2  3  1  0  0  0
  2 25  1  0  0  0
  2 85  1  0  0  0
  2 86  1  0  0  0
  3  4  1  0  0  0
  3 87  1  0  0  0
  3 88  1  0  0  0
  4  5  1  0  0  0
  4 89  1  0  0  0
  4 90  1  0  0  0
  5  6  1  0  0  0
  5 26  1  0  0  0
  5 91  1  0  0  0
  6 25  1  0  0  0
  6 92  1  0  0  0
  6 93  1  0  0  0
  7  8  2  0  0  0
  7 26  1  0  0  0
  7 29  1  0  0  0
  8  9  1  0  0  0
  8 22  1  0  0  0
  9 10  1  0  0  0
  9 27  2  0  0  0
 10 11  2  0  0  0
 10 15  1  0  0  0
 11 12  1  0  0  0
 11 94  1  0  0  0
 12 13  2  0  0  0
 12 95  1  0  0  0
 13 14  1  0  0  0
 13 31  1  0  0  0
 14 15  2  0  0  0
 14 96  1  0  0  0
 15 97  1  0  0  0
 16 17  2  0  0  0
 16 21  1  0  0  0
 16 31  1  0  0  0
 17 18  1  0  0  0
 17 98  1  0  0  0
 18 19  2  0  0  0
 18 99  1  0  0  0
 19 20  1  0  0  0
 19 24  1  0  0  0
 20 21  2  0  0  0
 20100  1  0  0  0
 21 23  1  0  0  0
 22 28  1  0  0  0
 22 32  2  0  0  0
 26 27  1  0  0  0
 28101  1  0  0  0
 28102  1  0  0  0
 29103  1  0  0  0
 29104  1  0  0  0
 33 34  1  0  0  0
 33 66  1  0  0  0
 33 70  2  0  0  0
 34 36  1  0  0  0
 34 59  1  0  0  0
 34105  1  0  0  0
 35 44  2  0  0  0
 35 45  1  0  0  0
 35 68  1  0  0  0
 36 56  1  0  0  0
 36106  1  0  0  0
 37 39  1  0  0  0
 37 47  1  0  0  0
 37 66  1  0  0  0
 37107  1  0  0  0
 38 43  2  0  0  0
 38 46  1  0  0  0
 38 47  1  0  0  0
 39 64  1  0  0  0
 39 67  2  0  0  0
 40 52  1  0  0  0
 40 53  2  0  0  0
 40 58  1  0  0  0
 41108  1  0  0  0
 41109  1  0  0  0
 41110  1  0  0  0
 41 48  1  0  0  0
 42 43  1  0  0  0
 42 66  1  0  0  0
 42111  1  0  0  0
 42112  1  0  0  0
 43 44  1  0  0  0
 44113  1  0  0  0
 45 46  2  0  0  0
 45114  1  0  0  0
 46115  1  0  0  0
 47116  1  0  0  0
 47117  1  0  0  0
 48 56  1  0  0  0
 48 65  1  0  0  0
 48118  1  0  0  0
 49 50  1  0  0  0
 49 53  1  0  0  0
 49 64  1  0  0  0
 49119  1  0  0  0
 50 51  1  0  0  0
 50120  1  0  0  0
 50121  1  0  0  0
 51 52  1  0  0  0
 51122  1  0  0  0
 51123  1  0  0  0
 52124  1  0  0  0
 52125  1  0  0  0
 53 54  1  0  0  0
 54 55  2  0  0  0
 54126  1  0  0  0
 55 57  1  0  0  0
 55127  1  0  0  0
 56 69  2  0  0  0
 57 58  2  0  0  0
 57128  1  0  0  0
 58129  1  0  0  0
 59 60  1  0  0  0
 59 61  1  0  0  0
 59 62  1  0  0  0
 60130  1  0  0  0
 60131  1  0  0  0
 60132  1  0  0  0
 61133  1  0  0  0
 61134  1  0  0  0
 61135  1  0  0  0
 62136  1  0  0  0
 62137  1  0  0  0
 62138  1  0  0  0
 63 65  1  0  0  0
 63139  1  0  0  0
 63140  1  0  0  0
 63141  1  0  0  0
 64142  1  0  0  0
 65143  1  0  0  0
 68 80  1  0  0  0
 71 72  2  0  0  0
 71 73  1  0  0  0
 71144  1  0  0  0
 72 75  1  0  0  0
 72145  1  0  0  0
 73 76  2  0  0  0
 73 77  1  0  0  0
 74 75  2  0  0  0
 74 76  1  0  0  0
 74 78  1  0  0  0
 75 83  1  0  0  0
 76 84  1  0  0  0
 77 81  1  0  0  0
 77146  1  0  0  0
 77147  1  0  0  0
 78 82  1  0  0  0
 78148  1  0  0  0
 78149  1  0  0  0
 79 80  1  0  0  0
 79 82  1  0  0  0
 79150  1  0  0  0
 79151  1  0  0  0
 80152  1  0  0  0
 80153  1  0  0  0
 81154  1  0  0  0
 82155  1  0  0  0
 82156  1  0  0  0
M  CHG  1  82   1
M  ISO  4   1 100  68 101  80 101  81 100
M  END
> <chiral flag>
0

> <version>
0

> <s_m_source_file>
/data/baiqing/PycharmProjects/Reinvent-master-3.2/result/LINK_invent/BTK/process_docking_weight1_custom_product_contain_oxygen_bond_distance_aromatic_linkinvent_7_9_3/rearranged_h_0033.sdf

> <i_m_source_file_index>
11

> <r_mmod_Potential_Energy-OPLS-2005>
-261.218231201172

> <r_mmod_Stretch_Energy-OPLS-2005>
50.7670288085938

> <r_mmod_Bend_Energy-OPLS-2005>
104.989784240723

> <r_mmod_Torsional_Energy-OPLS-2005>
189.77912902832

> <r_mmod_Improper_Torsional_Energy-OPLS-2005>
6.81281423568726

> <r_mmod_Van_der_Waal_Energy-OPLS-2005>
155.873840332031

> <r_mmod_Electrostatic_Energy-OPLS-2005>
-339.751892089844

> <r_mmod_Solvation_Energy-OPLS-2005>
-452.197052001953

> <b_mmod_Minimization_Converged-OPLS-2005>
0

> <r_mmod_RMS_Derivative-OPLS-2005>
6.00254344940186

$$$$
11
                    3D
 Structure written by MMmdl.
167176  0  0  1  0            999 V2000
  -30.5883  -14.6438   20.5296 C   0  0  0  0  0  0
  -30.4423  -12.4008   19.4520 C   0  0  0  0  0  0
  -29.5091  -12.5178   18.2248 C   0  0  0  0  0  0
  -28.0301  -12.3566   18.6308 C   0  0  0  0  0  0
  -27.6545  -13.2113   19.8701 C   0  0  2  0  0  0
  -28.6954  -13.0367   20.9985 C   0  0  0  0  0  0
  -25.2551  -13.8114   20.5653 C   0  0  0  0  0  0
  -24.1824  -13.0401   20.9188 C   0  0  0  0  0  0
  -24.6397  -11.6876   20.8736 C   0  0  0  0  0  0
  -23.9059  -10.4276   21.0412 C   0  0  0  0  0  0
  -24.3611   -9.4192   21.9189 C   0  0  0  0  0  0
  -23.6290   -8.2227   22.0750 C   0  0  0  0  0  0
  -22.4273   -8.0275   21.3545 C   0  0  0  0  0  0
  -21.9908   -9.0241   20.4642 C   0  0  0  0  0  0
  -22.7234  -10.2122   20.3056 C   0  0  0  0  0  0
  -21.6848   -6.0732   22.5283 C   0  0  0  0  0  0
  -21.4014   -6.5636   23.8218 C   0  0  0  0  0  0
  -21.3656   -5.6785   24.9172 C   0  0  0  0  0  0
  -21.6043   -4.3054   24.7224 C   0  0  0  0  0  0
  -21.8821   -3.8148   23.4350 C   0  0  0  0  0  0
  -21.9196   -4.6961   22.3406 C   0  0  0  0  0  0
  -22.7860  -13.5217   21.1861 C   0  0  0  0  0  0
  -22.1667   -4.2146   21.0986 F   0  0  0  0  0  0
  -21.5624   -3.4542   25.7740 F   0  0  0  0  0  0
  -30.0095  -13.4032   20.4471 N   0  0  0  0  0  0
  -26.2984  -12.9299   20.3319 N   0  0  0  0  0  0
  -25.9325  -11.6461   20.5753 N   0  0  0  0  0  0
  -22.0504  -12.8203   22.0412 N   0  0  0  0  0  0
  -25.4251  -15.1812   20.4027 N   0  0  0  0  0  0
  -31.7347  -14.8401   20.1123 O   0  0  0  0  0  0
  -21.6635   -6.8874   21.4248 O   0  0  0  0  0  0
  -22.3545  -14.5532   20.6726 O   0  0  0  0  0  0
  -24.6213  -31.8575   23.1987 C   0  0  0  0  0  0
  -25.9043  -32.4776   23.8332 C   0  0  1  0  0  0
  -27.2367  -27.3192   20.1431 C   0  0  0  0  0  0
  -25.5862  -33.8576   24.2265 N   0  0  0  0  0  0
  -23.4168  -30.4759   21.5398 C   0  0  2  0  0  0
  -24.8662  -28.9143   20.1219 C   0  0  0  0  0  0
  -22.7471  -29.4570   22.4920 C   0  0  0  0  0  0
  -18.0291  -28.1368   22.8477 C   0  0  0  0  0  0
  -24.1484  -36.7284   23.2650 C   0  0  0  0  0  0
  -25.9528  -30.7927   21.3632 C   0  0  0  0  0  0
  -26.0286  -29.4123   20.7203 C   0  0  0  0  0  0
  -27.2151  -28.6278   20.7128 C   0  0  0  0  0  0
  -26.0502  -26.8512   19.5419 C   0  0  0  0  0  0
  -24.8768  -27.6393   19.5271 C   0  0  0  0  0  0
  -23.6348  -29.7992   20.1590 C   0  0  0  0  0  0
  -25.4099  -36.3086   24.0352 C   0  0  1  0  0  0
  -20.5887  -28.3643   23.1296 C   0  0  2  0  0  0
  -20.6768  -26.9360   22.5421 C   0  0  0  0  0  0
  -19.5757  -26.6362   21.5210 C   0  0  0  0  0  0
  -18.1927  -26.7913   22.1615 C   0  0  0  0  0  0
  -19.1541  -28.8821   23.2889 C   0  0  0  0  0  0
  -18.9475  -30.1436   23.8884 C   0  0  0  0  0  0
  -17.6470  -30.6575   24.0555 C   0  0  0  0  0  0
  -25.9028  -34.9459   23.5121 C   0  0  0  0  0  0
  -16.5365  -29.9078   23.6325 C   0  0  0  0  0  0
  -16.7271  -28.6501   23.0338 C   0  0  0  0  0  0
  -26.4439  -31.6593   25.0703 C   0  0  0  0  0  0
  -25.3694  -31.3738   26.1462 C   0  0  0  0  0  0
  -27.0275  -30.3037   24.6081 C   0  0  0  0  0  0
  -27.6000  -32.4318   25.7470 C   0  0  0  0  0  0
  -27.5576  -37.1796   24.8475 C   0  0  0  0  0  0
  -21.4180  -29.3004   22.3701 N   0  0  0  0  0  0
  -26.4283  -37.3776   23.9421 N   0  0  0  0  0  0
  -24.6825  -31.0609   22.0912 N   0  0  0  0  0  0
  -23.4212  -28.8110   23.2974 O   0  0  0  0  0  0
  -28.4228  -26.5826   20.0894 O   0  0  0  0  0  0
  -26.5625  -34.8935   22.4702 O   0  0  0  0  0  0
  -23.5374  -32.1358   23.7312 O   0  0  0  0  0  0
  -30.6610  -17.8445   20.0851 C   0  0  0  0  0  0
  -30.5540  -19.2548   19.9022 C   0  0  0  0  0  0
  -28.4800  -19.2779   21.1437 C   0  0  0  0  0  0
  -29.4678  -20.0381   20.4232 C   0  0  0  0  0  0
  -28.6495  -17.8635   21.3940 C   0  0  0  0  0  0
  -29.7212  -17.1025   20.8295 C   0  0  0  0  0  0
  -28.4313  -23.2066   21.9155 C   0  0  0  0  0  0
  -28.7912  -22.5176   23.0136 C   0  0  0  0  0  0
  -28.0650  -24.6935   21.8533 C   0  0  0  0  0  0
  -28.3971  -23.9007   19.6155 C   0  0  0  0  0  0
  -28.6004  -25.1689   20.5091 C   0  0  1  0  0  0
  -31.6579  -19.9001   19.0757 C   0  0  0  0  0  0
  -27.1907  -19.9242   21.6468 C   0  0  0  0  0  0
  -27.6508  -17.1522   22.3087 C   0  0  0  0  0  0
  -29.5026  -21.6192   20.1362 C   0  0  0  0  0  0
  -29.7685  -15.6429   20.9954 N   0  0  0  0  0  0
  -28.4482  -22.6662   20.5064 N   0  3  1  0  0  0
  -31.4818  -12.5455   19.1498 H   0  0  0  0  0  0
  -30.3930  -11.3969   19.8769 H   0  0  0  0  0  0
  -29.7725  -11.7689   17.4770 H   0  0  0  0  0  0
  -29.6527  -13.4886   17.7470 H   0  0  0  0  0  0
  -27.8580  -11.3010   18.8435 H   0  0  0  0  0  0
  -27.3792  -12.6048   17.7909 H   0  0  0  0  0  0
  -27.6806  -14.2520   19.5474 H   0  0  0  0  0  0
  -28.7113  -12.0016   21.3427 H   0  0  0  0  0  0
  -28.4314  -13.6323   21.8742 H   0  0  0  0  0  0
  -25.2757   -9.5663   22.4759 H   0  0  0  0  0  0
  -23.9999   -7.4612   22.7470 H   0  0  0  0  0  0
  -21.0834   -8.8762   19.8949 H   0  0  0  0  0  0
  -22.3702  -10.9659   19.6160 H   0  0  0  0  0  0
  -21.2008   -7.6143   23.9717 H   0  0  0  0  0  0
  -21.1473   -6.0518   25.9073 H   0  0  0  0  0  0
  -22.0606   -2.7612   23.2852 H   0  0  0  0  0  0
  -22.4110  -11.9842   22.4762 H   0  0  0  0  0  0
  -21.1128  -13.1231   22.2643 H   0  0  0  0  0  0
  -24.6665  -15.8395   20.5406 H   0  0  0  0  0  0
  -26.2766  -15.6202   20.0769 H   0  0  0  0  0  0
  -26.7100  -32.5443   23.1075 H   0  0  0  0  0  0
  -25.0007  -33.9738   25.0415 H   0  0  0  0  0  0
  -22.7080  -31.2935   21.3883 H   0  0  0  0  0  0
  -23.3765  -35.9597   23.3311 H   0  0  0  0  0  0
  -24.3583  -36.8901   22.2069 H   0  0  0  0  0  0
  -23.7252  -37.6494   23.6655 H   0  0  0  0  0  0
  -26.0764  -31.5488   20.5860 H   0  0  0  0  0  0
  -26.8367  -30.8495   21.9873 H   0  0  0  0  0  0
  -28.1190  -29.0186   21.1596 H   0  0  0  0  0  0
  -26.0291  -25.8805   19.0700 H   0  0  0  0  0  0
  -23.9843  -27.2506   19.0576 H   0  0  0  0  0  0
  -23.7620  -30.5706   19.3984 H   0  0  0  0  0  0
  -22.7553  -29.2300   19.8545 H   0  0  0  0  0  0
  -25.1291  -36.1924   25.0851 H   0  0  0  0  0  0
  -20.9979  -28.3181   24.1416 H   0  0  0  0  0  0
  -20.5644  -26.2234   23.3597 H   0  0  0  0  0  0
  -21.6644  -26.7381   22.1224 H   0  0  0  0  0  0
  -19.6913  -25.6274   21.1230 H   0  0  0  0  0  0
  -19.6713  -27.3171   20.6742 H   0  0  0  0  0  0
  -17.4209  -26.6666   21.4008 H   0  0  0  0  0  0
  -18.0319  -26.0060   22.9004 H   0  0  0  0  0  0
  -19.7957  -30.7257   24.2234 H   0  0  0  0  0  0
  -17.5041  -31.6251   24.5150 H   0  0  0  0  0  0
  -15.5366  -30.2979   23.7661 H   0  0  0  0  0  0
  -15.8680  -28.0831   22.7034 H   0  0  0  0  0  0
  -24.5871  -30.7065   25.7831 H   0  0  0  0  0  0
  -24.8873  -32.2911   26.4861 H   0  0  0  0  0  0
  -25.8049  -30.8969   27.0254 H   0  0  0  0  0  0
  -26.2832  -29.6817   24.1094 H   0  0  0  0  0  0
  -27.4058  -29.7245   25.4514 H   0  0  0  0  0  0
  -27.8646  -30.4411   23.9229 H   0  0  0  0  0  0
  -27.2622  -33.3642   26.1992 H   0  0  0  0  0  0
  -28.3816  -32.6843   25.0298 H   0  0  0  0  0  0
  -28.0625  -31.8478   26.5434 H   0  0  0  0  0  0
  -28.2590  -38.0097   24.7519 H   0  0  0  0  0  0
  -28.1092  -36.2639   24.6291 H   0  0  0  0  0  0
  -27.2307  -37.1433   25.8886 H   0  0  0  0  0  0
  -20.9326  -29.8791   21.6985 H   0  0  0  0  0  0
  -26.0175  -38.2852   24.1435 H   0  0  0  0  0  0
  -31.4930  -17.3239   19.6326 H   0  0  0  0  0  0
  -28.7948  -22.9906   23.9857 H   0  0  0  0  0  0
  -29.0968  -21.4833   22.9754 H   0  0  0  0  0  0
  -28.5044  -25.2501   22.6812 H   0  0  0  0  0  0
  -26.9820  -24.8024   21.9060 H   0  0  0  0  0  0
  -29.1377  -23.8704   18.8156 H   0  0  0  0  0  0
  -27.4176  -23.9360   19.1424 H   0  0  0  0  0  0
  -29.6819  -25.1791   20.6612 H   0  0  0  0  0  0
  -31.2854  -20.1672   18.0871 H   0  0  0  0  0  0
  -32.4976  -19.2171   18.9323 H   0  0  0  0  0  0
  -32.0620  -20.7903   19.5540 H   0  0  0  0  0  0
  -26.9129  -20.8221   21.1097 H   0  0  0  0  0  0
  -27.2496  -20.1474   22.7122 H   0  0  0  0  0  0
  -26.3392  -19.2596   21.5010 H   0  0  0  0  0  0
  -27.4654  -17.7403   23.2068 H   0  0  0  0  0  0
  -27.9897  -16.1802   22.6647 H   0  0  0  0  0  0
  -26.6986  -17.0124   21.8029 H   0  0  0  0  0  0
  -29.5950  -21.6800   19.0519 H   0  0  0  0  0  0
  -30.4444  -22.0006   20.5321 H   0  0  0  0  0  0
  -28.9271  -15.2639   21.4000 H   0  0  0  0  0  0
  -27.5700  -22.1975   20.3379 H   0  0  0  0  0  0
  1 25  1  0  0  0
  1 30  2  0  0  0
  1 86  1  0  0  0
  2  3  1  0  0  0
  2 25  1  0  0  0
  2 88  1  0  0  0
  2 89  1  0  0  0
  3  4  1  0  0  0
  3 90  1  0  0  0
  3 91  1  0  0  0
  4  5  1  0  0  0
  4 92  1  0  0  0
  4 93  1  0  0  0
  5  6  1  0  0  0
  5 26  1  0  0  0
  5 94  1  0  0  0
  6 25  1  0  0  0
  6 95  1  0  0  0
  6 96  1  0  0  0
  7  8  2  0  0  0
  7 26  1  0  0  0
  7 29  1  0  0  0
  8  9  1  0  0  0
  8 22  1  0  0  0
  9 10  1  0  0  0
  9 27  2  0  0  0
 10 11  2  0  0  0
 10 15  1  0  0  0
 11 12  1  0  0  0
 11 97  1  0  0  0
 12 13  2  0  0  0
 12 98  1  0  0  0
 13 14  1  0  0  0
 13 31  1  0  0  0
 14 15  2  0  0  0
 14 99  1  0  0  0
 15100  1  0  0  0
 16 17  2  0  0  0
 16 21  1  0  0  0
 16 31  1  0  0  0
 17 18  1  0  0  0
 17101  1  0  0  0
 18 19  2  0  0  0
 18102  1  0  0  0
 19 20  1  0  0  0
 19 24  1  0  0  0
 20 21  2  0  0  0
 20103  1  0  0  0
 21 23  1  0  0  0
 22 28  1  0  0  0
 22 32  2  0  0  0
 26 27  1  0  0  0
 28104  1  0  0  0
 28105  1  0  0  0
 29106  1  0  0  0
 29107  1  0  0  0
 33 34  1  0  0  0
 33 66  1  0  0  0
 33 70  2  0  0  0
 34 36  1  0  0  0
 34 59  1  0  0  0
 34108  1  0  0  0
 35 44  2  0  0  0
 35 45  1  0  0  0
 35 68  1  0  0  0
 36 56  1  0  0  0
 36109  1  0  0  0
 37 39  1  0  0  0
 37 47  1  0  0  0
 37 66  1  0  0  0
 37110  1  0  0  0
 38 43  2  0  0  0
 38 46  1  0  0  0
 38 47  1  0  0  0
 39 64  1  0  0  0
 39 67  2  0  0  0
 40 52  1  0  0  0
 40 53  2  0  0  0
 40 58  1  0  0  0
 41111  1  0  0  0
 41112  1  0  0  0
 41113  1  0  0  0
 41 48  1  0  0  0
 42 43  1  0  0  0
 42 66  1  0  0  0
 42114  1  0  0  0
 42115  1  0  0  0
 43 44  1  0  0  0
 44116  1  0  0  0
 45 46  2  0  0  0
 45117  1  0  0  0
 46118  1  0  0  0
 47119  1  0  0  0
 47120  1  0  0  0
 48 56  1  0  0  0
 48 65  1  0  0  0
 48121  1  0  0  0
 49 50  1  0  0  0
 49 53  1  0  0  0
 49 64  1  0  0  0
 49122  1  0  0  0
 50 51  1  0  0  0
 50123  1  0  0  0
 50124  1  0  0  0
 51 52  1  0  0  0
 51125  1  0  0  0
 51126  1  0  0  0
 52127  1  0  0  0
 52128  1  0  0  0
 53 54  1  0  0  0
 54 55  2  0  0  0
 54129  1  0  0  0
 55 57  1  0  0  0
 55130  1  0  0  0
 56 69  2  0  0  0
 57 58  2  0  0  0
 57131  1  0  0  0
 58132  1  0  0  0
 59 60  1  0  0  0
 59 61  1  0  0  0
 59 62  1  0  0  0
 60133  1  0  0  0
 60134  1  0  0  0
 60135  1  0  0  0
 61136  1  0  0  0
 61137  1  0  0  0
 61138  1  0  0  0
 62139  1  0  0  0
 62140  1  0  0  0
 62141  1  0  0  0
 63 65  1  0  0  0
 63142  1  0  0  0
 63143  1  0  0  0
 63144  1  0  0  0
 64145  1  0  0  0
 65146  1  0  0  0
 68 81  1  0  0  0
 71 72  2  0  0  0
 71 76  1  0  0  0
 71147  1  0  0  0
 72 74  1  0  0  0
 72 82  1  0  0  0
 73 74  2  0  0  0
 73 75  1  0  0  0
 73 83  1  0  0  0
 74 85  1  0  0  0
 75 76  2  0  0  0
 75 84  1  0  0  0
 76 86  1  0  0  0
 77 78  2  0  0  0
 77 79  1  0  0  0
 77 87  1  0  0  0
 78148  1  0  0  0
 78149  1  0  0  0
 79 81  1  0  0  0
 79150  1  0  0  0
 79151  1  0  0  0
 80 81  1  0  0  0
 80 87  1  0  0  0
 80152  1  0  0  0
 80153  1  0  0  0
 81154  1  0  0  0
 82155  1  0  0  0
 82156  1  0  0  0
 82157  1  0  0  0
 83158  1  0  0  0
 83159  1  0  0  0
 83160  1  0  0  0
 84161  1  0  0  0
 84162  1  0  0  0
 84163  1  0  0  0
 85164  1  0  0  0
 85165  1  0  0  0
 85 87  1  0  0  0
 86166  1  0  0  0
 87167  1  0  0  0
M  CHG  1  87   1
M  ISO  4   1 100  68 101  81 101  86 100
M  END
> <chiral flag>
0

> <version>
0

> <s_m_source_file>
/data/baiqing/PycharmProjects/Reinvent-master-3.2/result/LINK_invent/BTK/process_docking_weight1_custom_product_contain_oxygen_bond_distance_aromatic_linkinvent_7_9_3/rearranged_h_0033.sdf

> <i_m_source_file_index>
12

> <r_mmod_Potential_Energy-OPLS-2005>
73.0374450683594

> <r_mmod_Stretch_Energy-OPLS-2005>
94.0576858520508

> <r_mmod_Bend_Energy-OPLS-2005>
244.414306640625

> <r_mmod_Torsional_Energy-OPLS-2005>
252.155502319336

> <r_mmod_Improper_Torsional_Energy-OPLS-2005>
3.69188857078552

> <r_mmod_Van_der_Waal_Energy-OPLS-2005>
145.513244628906

> <r_mmod_Electrostatic_Energy-OPLS-2005>
-286.635772705078

> <r_mmod_Solvation_Energy-OPLS-2005>
-423.192565917969

> <b_mmod_Minimization_Converged-OPLS-2005>
0

> <r_mmod_RMS_Derivative-OPLS-2005>
2.39404940605164

$$$$
12
                    3D
 Structure written by MMmdl.
158167  0  0  1  0            999 V2000
  -30.6849  -14.6130   20.4794 C   0  0  0  0  0  0
  -30.4144  -12.3736   19.4567 C   0  0  0  0  0  0
  -29.4965  -12.4873   18.2228 C   0  0  0  0  0  0
  -28.0223  -12.3362   18.6401 C   0  0  0  0  0  0
  -27.6458  -13.2274   19.8546 C   0  0  2  0  0  0
  -28.6916  -13.1290   20.9876 C   0  0  0  0  0  0
  -25.2521  -13.8204   20.5699 C   0  0  0  0  0  0
  -24.1809  -13.0451   20.9210 C   0  0  0  0  0  0
  -24.6396  -11.6924   20.8767 C   0  0  0  0  0  0
  -23.9080  -10.4300   21.0426 C   0  0  0  0  0  0
  -24.3629   -9.4210   21.9203 C   0  0  0  0  0  0
  -23.6297   -8.2248   22.0768 C   0  0  0  0  0  0
  -22.4282   -8.0292   21.3553 C   0  0  0  0  0  0
  -21.9923   -9.0268   20.4656 C   0  0  0  0  0  0
  -22.7257  -10.2142   20.3069 C   0  0  0  0  0  0
  -21.6848   -6.0745   22.5283 C   0  0  0  0  0  0
  -21.4013   -6.5647   23.8219 C   0  0  0  0  0  0
  -21.3658   -5.6800   24.9181 C   0  0  0  0  0  0
  -21.6042   -4.3062   24.7231 C   0  0  0  0  0  0
  -21.8818   -3.8154   23.4352 C   0  0  0  0  0  0
  -21.9189   -4.6972   22.3405 C   0  0  0  0  0  0
  -22.7826  -13.5229   21.1862 C   0  0  0  0  0  0
  -22.1658   -4.2157   21.0984 F   0  0  0  0  0  0
  -21.5626   -3.4548   25.7741 F   0  0  0  0  0  0
  -30.0040  -13.4287   20.4053 N   0  0  0  0  0  0
  -26.2956  -12.9413   20.3312 N   0  0  0  0  0  0
  -25.9326  -11.6553   20.5779 N   0  0  0  0  0  0
  -22.0469  -12.8219   22.0410 N   0  0  0  0  0  0
  -25.4203  -15.1936   20.4119 N   0  0  0  0  0  0
  -31.8706  -14.6780   20.1490 O   0  0  0  0  0  0
  -21.6640   -6.8894   21.4248 O   0  0  0  0  0  0
  -22.3513  -14.5538   20.6711 O   0  0  0  0  0  0
  -24.6221  -31.8635   23.2068 C   0  0  0  0  0  0
  -25.9089  -32.4793   23.8387 C   0  0  1  0  0  0
  -27.2047  -27.3317   20.1356 C   0  0  0  0  0  0
  -25.5916  -33.8596   24.2298 N   0  0  0  0  0  0
  -23.4148  -30.4885   21.5487 C   0  0  2  0  0  0
  -24.8625  -28.9504   20.1100 C   0  0  0  0  0  0
  -22.7457  -29.4646   22.4957 C   0  0  0  0  0  0
  -18.0277  -28.1375   22.8492 C   0  0  0  0  0  0
  -24.1490  -36.7303   23.2631 C   0  0  0  0  0  0
  -25.9538  -30.7957   21.3813 C   0  0  0  0  0  0
  -26.0255  -29.4228   20.7319 C   0  0  0  0  0  0
  -27.2025  -28.6193   20.7475 C   0  0  0  0  0  0
  -26.0470  -26.9401   19.4349 C   0  0  0  0  0  0
  -24.8723  -27.7114   19.4526 C   0  0  0  0  0  0
  -23.6289  -29.8266   20.1629 C   0  0  0  0  0  0
  -25.4100  -36.3089   24.0338 C   0  0  1  0  0  0
  -20.5879  -28.3685   23.1292 C   0  0  2  0  0  0
  -20.6773  -26.9416   22.5403 C   0  0  0  0  0  0
  -19.5745  -26.6384   21.5206 C   0  0  0  0  0  0
  -18.1923  -26.7921   22.1616 C   0  0  0  0  0  0
  -19.1530  -28.8844   23.2882 C   0  0  0  0  0  0
  -18.9458  -30.1443   23.8901 C   0  0  0  0  0  0
  -17.6462  -30.6584   24.0561 C   0  0  0  0  0  0
  -25.9044  -34.9463   23.5115 C   0  0  0  0  0  0
  -16.5349  -29.9082   23.6328 C   0  0  0  0  0  0
  -16.7266  -28.6492   23.0363 C   0  0  0  0  0  0
  -26.4485  -31.6596   25.0741 C   0  0  0  0  0  0
  -25.3726  -31.3716   26.1466 C   0  0  0  0  0  0
  -27.0343  -30.3024   24.6193 C   0  0  0  0  0  0
  -27.6044  -32.4345   25.7498 C   0  0  0  0  0  0
  -27.5594  -37.1774   24.8435 C   0  0  0  0  0  0
  -21.4177  -29.3048   22.3695 N   0  0  0  0  0  0
  -26.4265  -37.3796   23.9442 N   0  0  0  0  0  0
  -24.6816  -31.0663   22.1020 N   0  0  0  0  0  0
  -23.4192  -28.8169   23.3015 O   0  0  0  0  0  0
  -28.3012  -26.4687   20.1473 O   0  0  0  0  0  0
  -26.5619  -34.8934   22.4686 O   0  0  0  0  0  0
  -23.5386  -32.1444   23.7397 O   0  0  0  0  0  0
  -30.3044  -19.5040   19.6676 C   0  0  0  0  0  0
  -28.4351  -20.2552   21.5542 C   0  0  0  0  0  0
  -29.8325  -20.8507   19.6875 C   0  0  0  0  0  0
  -29.8730  -18.4989   20.5710 C   0  0  0  0  0  0
  -28.8702  -21.2848   20.6554 C   0  0  0  0  0  0
  -28.9061  -18.9086   21.5203 C   0  0  0  0  0  0
  -27.1257  -23.0178   21.2491 C   0  0  0  0  0  0
  -26.8459  -24.5173   21.1749 C   0  0  0  0  0  0
  -28.9724  -23.9302   20.2496 C   0  0  0  0  0  0
  -28.2072  -25.1623   20.8541 C   0  0  1  0  0  0
  -30.3942  -21.7730   18.6167 C   0  0  0  0  0  0
  -30.6299  -17.1213   20.5707 C   0  0  0  0  0  0
  -28.3378  -22.6715   20.7512 N   0  0  0  0  0  0
  -29.9873  -15.7701   20.7042 N   0  0  0  0  0  0
  -26.2618  -22.2525   21.6900 O   0  0  0  0  0  0
  -28.3168  -17.7886   22.6959 Cl  0  0  0  0  0  0
  -31.4597  -12.4591   19.1554 H   0  0  0  0  0  0
  -30.3188  -11.3903   19.9202 H   0  0  0  0  0  0
  -29.7553  -11.7257   17.4861 H   0  0  0  0  0  0
  -29.6465  -13.4510   17.7339 H   0  0  0  0  0  0
  -27.8618  -11.2869   18.8899 H   0  0  0  0  0  0
  -27.3658  -12.5504   17.7959 H   0  0  0  0  0  0
  -27.6524  -14.2547   19.4900 H   0  0  0  0  0  0
  -28.6942  -12.1320   21.4294 H   0  0  0  0  0  0
  -28.4527  -13.8224   21.7960 H   0  0  0  0  0  0
  -25.2769   -9.5687   22.4786 H   0  0  0  0  0  0
  -23.9998   -7.4647   22.7498 H   0  0  0  0  0  0
  -21.0848   -8.8807   19.8964 H   0  0  0  0  0  0
  -22.3729  -10.9696   19.6185 H   0  0  0  0  0  0
  -21.2010   -7.6157   23.9729 H   0  0  0  0  0  0
  -21.1478   -6.0528   25.9085 H   0  0  0  0  0  0
  -22.0595   -2.7616   23.2853 H   0  0  0  0  0  0
  -22.4076  -11.9864   22.4775 H   0  0  0  0  0  0
  -21.1096  -13.1265   22.2635 H   0  0  0  0  0  0
  -24.6548  -15.8467   20.5373 H   0  0  0  0  0  0
  -26.2722  -15.6405   20.0993 H   0  0  0  0  0  0
  -26.7159  -32.5477   23.1145 H   0  0  0  0  0  0
  -25.0065  -33.9748   25.0441 H   0  0  0  0  0  0
  -22.7069  -31.3082   21.4084 H   0  0  0  0  0  0
  -23.3773  -35.9611   23.3219 H   0  0  0  0  0  0
  -24.3580  -36.8984   22.2054 H   0  0  0  0  0  0
  -23.7232  -37.6478   23.6705 H   0  0  0  0  0  0
  -26.0833  -31.5552   20.6089 H   0  0  0  0  0  0
  -26.8348  -30.8477   22.0089 H   0  0  0  0  0  0
  -28.0920  -28.9697   21.2528 H   0  0  0  0  0  0
  -26.0460  -26.0225   18.8668 H   0  0  0  0  0  0
  -23.9891  -27.3557   18.9388 H   0  0  0  0  0  0
  -23.7407  -30.6043   19.4064 H   0  0  0  0  0  0
  -22.7504  -29.2513   19.8652 H   0  0  0  0  0  0
  -25.1266  -36.1919   25.0830 H   0  0  0  0  0  0
  -20.9970  -28.3269   24.1415 H   0  0  0  0  0  0
  -20.5683  -26.2299   23.3596 H   0  0  0  0  0  0
  -21.6638  -26.7451   22.1194 H   0  0  0  0  0  0
  -19.6913  -25.6298   21.1234 H   0  0  0  0  0  0
  -19.6680  -27.3185   20.6734 H   0  0  0  0  0  0
  -17.4197  -26.6670   21.4016 H   0  0  0  0  0  0
  -18.0304  -26.0050   22.9001 H   0  0  0  0  0  0
  -19.7936  -30.7245   24.2286 H   0  0  0  0  0  0
  -17.5020  -31.6269   24.5152 H   0  0  0  0  0  0
  -15.5351  -30.2991   23.7654 H   0  0  0  0  0  0
  -15.8659  -28.0809   22.7102 H   0  0  0  0  0  0
  -24.5923  -30.7035   25.7796 H   0  0  0  0  0  0
  -24.8885  -32.2861   26.4906 H   0  0  0  0  0  0
  -25.8053  -30.8898   27.0241 H   0  0  0  0  0  0
  -26.2927  -29.6752   24.1227 H   0  0  0  0  0  0
  -27.4051  -29.7302   25.4708 H   0  0  0  0  0  0
  -27.8792  -30.4308   23.9421 H   0  0  0  0  0  0
  -27.2672  -33.3677   26.2036 H   0  0  0  0  0  0
  -28.3871  -32.6854   25.0323 H   0  0  0  0  0  0
  -28.0707  -31.8494   26.5436 H   0  0  0  0  0  0
  -28.2511  -38.0174   24.7644 H   0  0  0  0  0  0
  -28.1201  -36.2717   24.6057 H   0  0  0  0  0  0
  -27.2330  -37.1159   25.8833 H   0  0  0  0  0  0
  -20.9353  -29.8785   21.6920 H   0  0  0  0  0  0
  -26.0138  -38.2851   24.1531 H   0  0  0  0  0  0
  -31.0587  -19.2386   18.9404 H   0  0  0  0  0  0
  -27.7255  -20.4821   22.3347 H   0  0  0  0  0  0
  -26.4038  -24.8984   22.0960 H   0  0  0  0  0  0
  -26.1105  -24.6023   20.3843 H   0  0  0  0  0  0
  -30.0294  -23.9750   20.5099 H   0  0  0  0  0  0
  -28.8822  -23.9647   19.1649 H   0  0  0  0  0  0
  -28.6713  -25.3589   21.8228 H   0  0  0  0  0  0
  -31.0760  -21.2434   17.9507 H   0  0  0  0  0  0
  -30.9683  -22.5903   19.0489 H   0  0  0  0  0  0
  -29.5952  -22.1735   17.9936 H   0  0  0  0  0  0
  -31.3801  -17.1938   21.3589 H   0  0  0  0  0  0
  -31.2023  -17.0966   19.6415 H   0  0  0  0  0  0
  -29.0026  -15.7211   20.9138 H   0  0  0  0  0  0
  1 25  1  0  0  0
  1 30  2  0  0  0
  1 84  1  0  0  0
  2  3  1  0  0  0
  2 25  1  0  0  0
  2 87  1  0  0  0
  2 88  1  0  0  0
  3  4  1  0  0  0
  3 89  1  0  0  0
  3 90  1  0  0  0
  4  5  1  0  0  0
  4 91  1  0  0  0
  4 92  1  0  0  0
  5  6  1  0  0  0
  5 26  1  0  0  0
  5 93  1  0  0  0
  6 25  1  0  0  0
  6 94  1  0  0  0
  6 95  1  0  0  0
  7  8  2  0  0  0
  7 26  1  0  0  0
  7 29  1  0  0  0
  8  9  1  0  0  0
  8 22  1  0  0  0
  9 10  1  0  0  0
  9 27  2  0  0  0
 10 11  2  0  0  0
 10 15  1  0  0  0
 11 12  1  0  0  0
 11 96  1  0  0  0
 12 13  2  0  0  0
 12 97  1  0  0  0
 13 14  1  0  0  0
 13 31  1  0  0  0
 14 15  2  0  0  0
 14 98  1  0  0  0
 15 99  1  0  0  0
 16 17  2  0  0  0
 16 21  1  0  0  0
 16 31  1  0  0  0
 17 18  1  0  0  0
 17100  1  0  0  0
 18 19  2  0  0  0
 18101  1  0  0  0
 19 20  1  0  0  0
 19 24  1  0  0  0
 20 21  2  0  0  0
 20102  1  0  0  0
 21 23  1  0  0  0
 22 28  1  0  0  0
 22 32  2  0  0  0
 26 27  1  0  0  0
 28103  1  0  0  0
 28104  1  0  0  0
 29105  1  0  0  0
 29106  1  0  0  0
 33 34  1  0  0  0
 33 66  1  0  0  0
 33 70  2  0  0  0
 34 36  1  0  0  0
 34 59  1  0  0  0
 34107  1  0  0  0
 35 44  2  0  0  0
 35 45  1  0  0  0
 35 68  1  0  0  0
 36 56  1  0  0  0
 36108  1  0  0  0
 37 39  1  0  0  0
 37 47  1  0  0  0
 37 66  1  0  0  0
 37109  1  0  0  0
 38 43  2  0  0  0
 38 46  1  0  0  0
 38 47  1  0  0  0
 39 64  1  0  0  0
 39 67  2  0  0  0
 40 52  1  0  0  0
 40 53  2  0  0  0
 40 58  1  0  0  0
 41110  1  0  0  0
 41111  1  0  0  0
 41112  1  0  0  0
 41 48  1  0  0  0
 42 43  1  0  0  0
 42 66  1  0  0  0
 42113  1  0  0  0
 42114  1  0  0  0
 43 44  1  0  0  0
 44115  1  0  0  0
 45 46  2  0  0  0
 45116  1  0  0  0
 46117  1  0  0  0
 47118  1  0  0  0
 47119  1  0  0  0
 48 56  1  0  0  0
 48 65  1  0  0  0
 48120  1  0  0  0
 49 50  1  0  0  0
 49 53  1  0  0  0
 49 64  1  0  0  0
 49121  1  0  0  0
 50 51  1  0  0  0
 50122  1  0  0  0
 50123  1  0  0  0
 51 52  1  0  0  0
 51124  1  0  0  0
 51125  1  0  0  0
 52126  1  0  0  0
 52127  1  0  0  0
 53 54  1  0  0  0
 54 55  2  0  0  0
 54128  1  0  0  0
 55 57  1  0  0  0
 55129  1  0  0  0
 56 69  2  0  0  0
 57 58  2  0  0  0
 57130  1  0  0  0
 58131  1  0  0  0
 59 60  1  0  0  0
 59 61  1  0  0  0
 59 62  1  0  0  0
 60132  1  0  0  0
 60133  1  0  0  0
 60134  1  0  0  0
 61135  1  0  0  0
 61136  1  0  0  0
 61137  1  0  0  0
 62138  1  0  0  0
 62139  1  0  0  0
 62140  1  0  0  0
 63 65  1  0  0  0
 63141  1  0  0  0
 63142  1  0  0  0
 63143  1  0  0  0
 64144  1  0  0  0
 65145  1  0  0  0
 68 80  1  0  0  0
 71 73  2  0  0  0
 71 74  1  0  0  0
 71146  1  0  0  0
 72 75  2  0  0  0
 72 76  1  0  0  0
 72147  1  0  0  0
 73 75  1  0  0  0
 73 81  1  0  0  0
 74 76  2  0  0  0
 74 82  1  0  0  0
 75 83  1  0  0  0
 76 86  1  0  0  0
 77 78  1  0  0  0
 77 83  1  0  0  0
 77 85  2  0  0  0
 78 80  1  0  0  0
 78148  1  0  0  0
 78149  1  0  0  0
 79 80  1  0  0  0
 79 83  1  0  0  0
 79150  1  0  0  0
 79151  1  0  0  0
 80152  1  0  0  0
 81153  1  0  0  0
 81154  1  0  0  0
 81155  1  0  0  0
 82 84  1  0  0  0
 82156  1  0  0  0
 82157  1  0  0  0
 84158  1  0  0  0
M  ISO  4   1 100  68 101  80 101  84 100
M  END
> <chiral flag>
0

> <version>
0

> <s_m_source_file>
/data/baiqing/PycharmProjects/Reinvent-master-3.2/result/LINK_invent/BTK/process_docking_weight1_custom_product_contain_oxygen_bond_distance_aromatic_linkinvent_7_9_3/rearranged_h_0033.sdf

> <i_m_source_file_index>
13

> <r_mmod_Potential_Energy-OPLS-2005>
131.768783569336

> <r_mmod_Stretch_Energy-OPLS-2005>
79.2800140380859

> <r_mmod_Bend_Energy-OPLS-2005>
188.371154785156

> <r_mmod_Torsional_Energy-OPLS-2005>
273.730590820312

> <r_mmod_Improper_Torsional_Energy-OPLS-2005>
5.99156141281128

> <r_mmod_Van_der_Waal_Energy-OPLS-2005>
156.352874755859

> <r_mmod_Electrostatic_Energy-OPLS-2005>
-408.158721923828

> <r_mmod_Solvation_Energy-OPLS-2005>
-211.814971923828

> <b_mmod_Minimization_Converged-OPLS-2005>
0

> <r_mmod_RMS_Derivative-OPLS-2005>
1.81875145435333

$$$$
13
                    3D
 Structure written by MMmdl.
167176  0  0  1  0            999 V2000
  -30.6801  -14.5593   20.5285 C   0  0  0  0  0  0
  -30.4310  -12.3470   19.4653 C   0  0  0  0  0  0
  -29.5080  -12.4721   18.2349 C   0  0  0  0  0  0
  -28.0293  -12.3267   18.6432 C   0  0  0  0  0  0
  -27.6545  -13.2124   19.8601 C   0  0  2  0  0  0
  -28.6899  -13.0758   20.9993 C   0  0  0  0  0  0
  -25.2552  -13.8181   20.5658 C   0  0  0  0  0  0
  -24.1830  -13.0481   20.9173 C   0  0  0  0  0  0
  -24.6374  -11.6909   20.8720 C   0  0  0  0  0  0
  -23.9050  -10.4304   21.0403 C   0  0  0  0  0  0
  -24.3592   -9.4208   21.9170 C   0  0  0  0  0  0
  -23.6277   -8.2245   22.0753 C   0  0  0  0  0  0
  -22.4268   -8.0266   21.3536 C   0  0  0  0  0  0
  -21.9889   -9.0242   20.4629 C   0  0  0  0  0  0
  -22.7223  -10.2131   20.3036 C   0  0  0  0  0  0
  -21.6865   -6.0713   22.5263 C   0  0  0  0  0  0
  -21.4010   -6.5628   23.8198 C   0  0  0  0  0  0
  -21.3656   -5.6775   24.9165 C   0  0  0  0  0  0
  -21.6049   -4.3050   24.7219 C   0  0  0  0  0  0
  -21.8821   -3.8126   23.4360 C   0  0  0  0  0  0
  -21.9194   -4.6929   22.3402 C   0  0  0  0  0  0
  -22.7830  -13.5240   21.1860 C   0  0  0  0  0  0
  -22.1660   -4.2122   21.0985 F   0  0  0  0  0  0
  -21.5635   -3.4531   25.7749 F   0  0  0  0  0  0
  -30.0202  -13.3682   20.4443 N   0  0  0  0  0  0
  -26.2993  -12.9353   20.3274 N   0  0  0  0  0  0
  -25.9298  -11.6535   20.5743 N   0  0  0  0  0  0
  -22.0477  -12.8210   22.0386 N   0  0  0  0  0  0
  -25.4307  -15.1903   20.4056 N   0  0  0  0  0  0
  -31.8247  -14.7081   20.0879 O   0  0  0  0  0  0
  -21.6642   -6.8863   21.4239 O   0  0  0  0  0  0
  -22.3480  -14.5538   20.6705 O   0  0  0  0  0  0
  -24.6273  -31.8534   23.2051 C   0  0  0  0  0  0
  -25.9125  -32.4751   23.8327 C   0  0  1  0  0  0
  -27.1862  -27.3101   20.1219 C   0  0  0  0  0  0
  -25.5950  -33.8576   24.2257 N   0  0  0  0  0  0
  -23.4202  -30.4858   21.5455 C   0  0  2  0  0  0
  -24.8658  -28.9593   20.0933 C   0  0  0  0  0  0
  -22.7525  -29.4587   22.4864 C   0  0  0  0  0  0
  -18.0303  -28.1420   22.8380 C   0  0  0  0  0  0
  -24.1509  -36.7256   23.2631 C   0  0  0  0  0  0
  -25.9639  -30.7936   21.3779 C   0  0  0  0  0  0
  -26.0355  -29.4253   20.7074 C   0  0  0  0  0  0
  -27.2085  -28.6096   20.7133 C   0  0  0  0  0  0
  -26.0093  -26.9121   19.4629 C   0  0  0  0  0  0
  -24.8558  -27.7120   19.4569 C   0  0  0  0  0  0
  -23.6341  -29.8335   20.1526 C   0  0  0  0  0  0
  -25.4097  -36.3043   24.0313 C   0  0  1  0  0  0
  -20.5903  -28.3654   23.1299 C   0  0  2  0  0  0
  -20.6761  -26.9358   22.5454 C   0  0  0  0  0  0
  -19.5782  -26.6358   21.5248 C   0  0  0  0  0  0
  -18.1939  -26.7950   22.1595 C   0  0  0  0  0  0
  -19.1557  -28.8840   23.2838 C   0  0  0  0  0  0
  -18.9472  -30.1435   23.8867 C   0  0  0  0  0  0
  -17.6475  -30.6549   24.0523 C   0  0  0  0  0  0
  -25.8989  -34.9435   23.5065 C   0  0  0  0  0  0
  -16.5358  -29.9049   23.6377 C   0  0  0  0  0  0
  -16.7293  -28.6511   23.0308 C   0  0  0  0  0  0
  -26.4511  -31.6572   25.0718 C   0  0  0  0  0  0
  -25.3734  -31.3780   26.1449 C   0  0  0  0  0  0
  -27.0327  -30.2974   24.6179 C   0  0  0  0  0  0
  -27.6058  -32.4321   25.7505 C   0  0  0  0  0  0
  -27.5540  -37.1768   24.8446 C   0  0  0  0  0  0
  -21.4197  -29.2990   22.3682 N   0  0  0  0  0  0
  -26.4237  -37.3755   23.9405 N   0  0  0  0  0  0
  -24.6920  -31.0548   22.1019 N   0  0  0  0  0  0
  -23.4247  -28.8045   23.2895 O   0  0  0  0  0  0
  -28.2387  -26.3858   20.1872 O   0  0  0  0  0  0
  -26.5610  -34.8834   22.4663 O   0  0  0  0  0  0
  -23.5417  -32.1399   23.7327 O   0  0  0  0  0  0
  -30.0453  -18.1312   22.6105 C   0  0  0  0  0  0
  -29.7097  -19.1754   23.4916 C   0  0  0  0  0  0
  -29.7823  -18.2141   21.2311 C   0  0  0  0  0  0
  -29.0943  -20.3672   22.9959 C   0  0  0  0  0  0
  -29.2504  -19.4421   20.7136 C   0  0  0  0  0  0
  -28.8584  -20.5206   21.5886 C   0  0  0  0  0  0
  -27.8727  -23.8443   19.6410 C   0  0  0  0  0  0
  -27.2564  -23.5380   18.4790 C   0  0  0  0  0  0
  -28.9795  -24.1565   21.2799 C   0  0  0  0  0  0
  -27.8401  -25.0236   20.6341 C   0  0  1  0  0  0
  -30.0289  -18.9205   24.9702 C   0  0  0  0  0  0
  -28.6707  -21.4636   23.9875 C   0  0  0  0  0  0
  -29.1321  -19.5994   19.1915 C   0  0  0  0  0  0
  -30.1551  -16.9976   20.3341 C   0  0  0  0  0  0
  -28.0294  -21.7362   21.0292 C   0  0  0  0  0  0
  -29.9421  -15.6381   20.8863 N   0  0  0  0  0  0
  -28.7075  -22.9580   20.4376 N   0  3  1  0  0  0
  -31.4747  -12.4601   19.1639 H   0  0  0  0  0  0
  -30.3572  -11.3575   19.9162 H   0  0  0  0  0  0
  -29.7707  -11.7079   17.5022 H   0  0  0  0  0  0
  -29.6680  -13.4317   17.7424 H   0  0  0  0  0  0
  -27.8644  -11.2785   18.8891 H   0  0  0  0  0  0
  -27.3818  -12.5436   17.7945 H   0  0  0  0  0  0
  -27.6759  -14.2444   19.5072 H   0  0  0  0  0  0
  -28.6786  -12.0706   21.4185 H   0  0  0  0  0  0
  -28.4389  -13.7455   21.8247 H   0  0  0  0  0  0
  -25.2745   -9.5699   22.4731 H   0  0  0  0  0  0
  -23.9991   -7.4645   22.7482 H   0  0  0  0  0  0
  -21.0820   -8.8745   19.8932 H   0  0  0  0  0  0
  -22.3675  -10.9646   19.6125 H   0  0  0  0  0  0
  -21.2001   -7.6131   23.9696 H   0  0  0  0  0  0
  -21.1474   -6.0512   25.9069 H   0  0  0  0  0  0
  -22.0607   -2.7587   23.2869 H   0  0  0  0  0  0
  -22.4082  -11.9866   22.4767 H   0  0  0  0  0  0
  -21.1068  -13.1187   22.2596 H   0  0  0  0  0  0
  -24.6737  -15.8550   20.5270 H   0  0  0  0  0  0
  -26.2830  -15.6242   20.0750 H   0  0  0  0  0  0
  -26.7189  -32.5383   23.1048 H   0  0  0  0  0  0
  -25.0188  -33.9741   25.0458 H   0  0  0  0  0  0
  -22.7129  -31.3078   21.4015 H   0  0  0  0  0  0
  -23.3734  -35.9619   23.3304 H   0  0  0  0  0  0
  -24.3617  -36.8887   22.2041 H   0  0  0  0  0  0
  -23.7304  -37.6475   23.6663 H   0  0  0  0  0  0
  -26.1060  -31.5645   20.6211 H   0  0  0  0  0  0
  -26.8447  -30.8363   22.0092 H   0  0  0  0  0  0
  -28.0964  -28.9465   21.2313 H   0  0  0  0  0  0
  -25.9487  -25.9596   18.9731 H   0  0  0  0  0  0
  -23.9758  -27.3657   18.9457 H   0  0  0  0  0  0
  -23.7388  -30.6164   19.4014 H   0  0  0  0  0  0
  -22.7584  -29.2573   19.8480 H   0  0  0  0  0  0
  -25.1313  -36.1840   25.0802 H   0  0  0  0  0  0
  -21.0005  -28.3153   24.1426 H   0  0  0  0  0  0
  -20.5715  -26.2171   23.3601 H   0  0  0  0  0  0
  -21.6592  -26.7389   22.1214 H   0  0  0  0  0  0
  -19.6943  -25.6316   21.1189 H   0  0  0  0  0  0
  -19.6755  -27.3196   20.6819 H   0  0  0  0  0  0
  -17.4220  -26.6714   21.3954 H   0  0  0  0  0  0
  -18.0219  -26.0146   22.9026 H   0  0  0  0  0  0
  -19.7952  -30.7271   24.2143 H   0  0  0  0  0  0
  -17.5029  -31.6252   24.5144 H   0  0  0  0  0  0
  -15.5333  -30.2916   23.7754 H   0  0  0  0  0  0
  -15.8694  -28.0854   22.6969 H   0  0  0  0  0  0
  -24.5974  -30.7004   25.7866 H   0  0  0  0  0  0
  -24.8805  -32.2959   26.4685 H   0  0  0  0  0  0
  -25.8047  -30.9177   27.0336 H   0  0  0  0  0  0
  -26.2895  -29.6772   24.1140 H   0  0  0  0  0  0
  -27.4004  -29.7195   25.4676 H   0  0  0  0  0  0
  -27.8775  -30.4306   23.9405 H   0  0  0  0  0  0
  -27.2701  -33.3667   26.1995 H   0  0  0  0  0  0
  -28.3912  -32.6805   25.0367 H   0  0  0  0  0  0
  -28.0665  -31.8499   26.5504 H   0  0  0  0  0  0
  -28.2542  -38.0089   24.7497 H   0  0  0  0  0  0
  -28.1079  -36.2600   24.6280 H   0  0  0  0  0  0
  -27.2263  -37.1433   25.8866 H   0  0  0  0  0  0
  -20.9336  -29.8755   21.6952 H   0  0  0  0  0  0
  -26.0091  -38.2794   24.1503 H   0  0  0  0  0  0
  -30.5414  -17.2451   22.9950 H   0  0  0  0  0  0
  -26.5931  -24.2061   17.9524 H   0  0  0  0  0  0
  -27.3717  -22.5549   18.0305 H   0  0  0  0  0  0
  -28.8700  -23.9898   22.3528 H   0  0  0  0  0  0
  -29.9668  -24.5676   21.0407 H   0  0  0  0  0  0
  -26.9548  -25.0449   21.2815 H   0  0  0  0  0  0
  -30.3610  -17.8880   25.1184 H   0  0  0  0  0  0
  -29.1612  -19.0536   25.6151 H   0  0  0  0  0  0
  -30.8415  -19.5538   25.3286 H   0  0  0  0  0  0
  -29.1440  -22.4155   23.7486 H   0  0  0  0  0  0
  -28.9407  -21.2428   25.0221 H   0  0  0  0  0  0
  -27.5896  -21.6196   23.9899 H   0  0  0  0  0  0
  -28.4775  -20.3827   18.8354 H   0  0  0  0  0  0
  -28.7127  -18.7193   18.7121 H   0  0  0  0  0  0
  -30.1038  -19.8496   18.7650 H   0  0  0  0  0  0
  -31.1768  -17.1517   19.9842 H   0  0  0  0  0  0
  -29.5368  -16.9526   19.4400 H   0  0  0  0  0  0
  -27.2267  -21.9986   21.7087 H   0  0  0  0  0  0
  -27.4309  -21.3236   20.2275 H   0  0  0  0  0  0
  -29.0058  -15.4494   21.2138 H   0  0  0  0  0  0
  -29.5268  -22.6881   19.9138 H   0  0  0  0  0  0
  1 25  1  0  0  0
  1 30  2  0  0  0
  1 86  1  0  0  0
  2  3  1  0  0  0
  2 25  1  0  0  0
  2 88  1  0  0  0
  2 89  1  0  0  0
  3  4  1  0  0  0
  3 90  1  0  0  0
  3 91  1  0  0  0
  4  5  1  0  0  0
  4 92  1  0  0  0
  4 93  1  0  0  0
  5  6  1  0  0  0
  5 26  1  0  0  0
  5 94  1  0  0  0
  6 25  1  0  0  0
  6 95  1  0  0  0
  6 96  1  0  0  0
  7  8  2  0  0  0
  7 26  1  0  0  0
  7 29  1  0  0  0
  8  9  1  0  0  0
  8 22  1  0  0  0
  9 10  1  0  0  0
  9 27  2  0  0  0
 10 11  2  0  0  0
 10 15  1  0  0  0
 11 12  1  0  0  0
 11 97  1  0  0  0
 12 13  2  0  0  0
 12 98  1  0  0  0
 13 14  1  0  0  0
 13 31  1  0  0  0
 14 15  2  0  0  0
 14 99  1  0  0  0
 15100  1  0  0  0
 16 17  2  0  0  0
 16 21  1  0  0  0
 16 31  1  0  0  0
 17 18  1  0  0  0
 17101  1  0  0  0
 18 19  2  0  0  0
 18102  1  0  0  0
 19 20  1  0  0  0
 19 24  1  0  0  0
 20 21  2  0  0  0
 20103  1  0  0  0
 21 23  1  0  0  0
 22 28  1  0  0  0
 22 32  2  0  0  0
 26 27  1  0  0  0
 28104  1  0  0  0
 28105  1  0  0  0
 29106  1  0  0  0
 29107  1  0  0  0
 33 34  1  0  0  0
 33 66  1  0  0  0
 33 70  2  0  0  0
 34 36  1  0  0  0
 34 59  1  0  0  0
 34108  1  0  0  0
 35 44  2  0  0  0
 35 45  1  0  0  0
 35 68  1  0  0  0
 36 56  1  0  0  0
 36109  1  0  0  0
 37 39  1  0  0  0
 37 47  1  0  0  0
 37 66  1  0  0  0
 37110  1  0  0  0
 38 43  2  0  0  0
 38 46  1  0  0  0
 38 47  1  0  0  0
 39 64  1  0  0  0
 39 67  2  0  0  0
 40 52  1  0  0  0
 40 53  2  0  0  0
 40 58  1  0  0  0
 41111  1  0  0  0
 41112  1  0  0  0
 41113  1  0  0  0
 41 48  1  0  0  0
 42 43  1  0  0  0
 42 66  1  0  0  0
 42114  1  0  0  0
 42115  1  0  0  0
 43 44  1  0  0  0
 44116  1  0  0  0
 45 46  2  0  0  0
 45117  1  0  0  0
 46118  1  0  0  0
 47119  1  0  0  0
 47120  1  0  0  0
 48 56  1  0  0  0
 48 65  1  0  0  0
 48121  1  0  0  0
 49 50  1  0  0  0
 49 53  1  0  0  0
 49 64  1  0  0  0
 49122  1  0  0  0
 50 51  1  0  0  0
 50123  1  0  0  0
 50124  1  0  0  0
 51 52  1  0  0  0
 51125  1  0  0  0
 51126  1  0  0  0
 52127  1  0  0  0
 52128  1  0  0  0
 53 54  1  0  0  0
 54 55  2  0  0  0
 54129  1  0  0  0
 55 57  1  0  0  0
 55130  1  0  0  0
 56 69  2  0  0  0
 57 58  2  0  0  0
 57131  1  0  0  0
 58132  1  0  0  0
 59 60  1  0  0  0
 59 61  1  0  0  0
 59 62  1  0  0  0
 60133  1  0  0  0
 60134  1  0  0  0
 60135  1  0  0  0
 61136  1  0  0  0
 61137  1  0  0  0
 61138  1  0  0  0
 62139  1  0  0  0
 62140  1  0  0  0
 62141  1  0  0  0
 63 65  1  0  0  0
 63142  1  0  0  0
 63143  1  0  0  0
 63144  1  0  0  0
 64145  1  0  0  0
 65146  1  0  0  0
 68 80  1  0  0  0
 71 72  2  0  0  0
 71 73  1  0  0  0
 71147  1  0  0  0
 72 74  1  0  0  0
 72 81  1  0  0  0
 73 75  2  0  0  0
 73 84  1  0  0  0
 74 76  2  0  0  0
 74 82  1  0  0  0
 75 76  1  0  0  0
 75 83  1  0  0  0
 76 85  1  0  0  0
 77 78  2  0  0  0
 77 80  1  0  0  0
 77 87  1  0  0  0
 78148  1  0  0  0
 78149  1  0  0  0
 79 80  1  0  0  0
 79 87  1  0  0  0
 79150  1  0  0  0
 79151  1  0  0  0
 80152  1  0  0  0
 81153  1  0  0  0
 81154  1  0  0  0
 81155  1  0  0  0
 82156  1  0  0  0
 82157  1  0  0  0
 82158  1  0  0  0
 83159  1  0  0  0
 83160  1  0  0  0
 83161  1  0  0  0
 84 86  1  0  0  0
 84162  1  0  0  0
 84163  1  0  0  0
 85164  1  0  0  0
 85165  1  0  0  0
 85 87  1  0  0  0
 86166  1  0  0  0
 87167  1  0  0  0
M  CHG  1  87   1
M  ISO  4   1 100  68 101  80 101  86 100
M  END
> <chiral flag>
0

> <version>
0

> <s_m_source_file>
/data/baiqing/PycharmProjects/Reinvent-master-3.2/result/LINK_invent/BTK/process_docking_weight1_custom_product_contain_oxygen_bond_distance_aromatic_linkinvent_7_9_3/rearranged_h_0033.sdf

> <i_m_source_file_index>
14

> <r_mmod_Potential_Energy-OPLS-2005>
-119.881660461426

> <r_mmod_Stretch_Energy-OPLS-2005>
77.5317306518555

> <r_mmod_Bend_Energy-OPLS-2005>
167.416976928711

> <r_mmod_Torsional_Energy-OPLS-2005>
234.924713134766

> <r_mmod_Improper_Torsional_Energy-OPLS-2005>
8.32982444763184

> <r_mmod_Van_der_Waal_Energy-OPLS-2005>
159.946411132812

> <r_mmod_Electrostatic_Energy-OPLS-2005>
-370.284332275391

> <r_mmod_Solvation_Energy-OPLS-2005>
-446.914947509766

> <b_mmod_Minimization_Converged-OPLS-2005>
0

> <r_mmod_RMS_Derivative-OPLS-2005>
12.8059358596802

$$$$
14
                    3D
 Structure written by MMmdl.
167176  0  0  1  0            999 V2000
  -30.5025  -14.8387   20.5045 C   0  0  0  0  0  0
  -30.4461  -12.5255   19.5069 C   0  0  0  0  0  0
  -29.5255  -12.5263   18.2630 C   0  0  0  0  0  0
  -28.0507  -12.3261   18.6647 C   0  0  0  0  0  0
  -27.6363  -13.2269   19.8566 C   0  0  2  0  0  0
  -28.6663  -13.1584   21.0022 C   0  0  0  0  0  0
  -25.2487  -13.8180   20.5700 C   0  0  0  0  0  0
  -24.1790  -13.0406   20.9196 C   0  0  0  0  0  0
  -24.6388  -11.6893   20.8731 C   0  0  0  0  0  0
  -23.9076  -10.4273   21.0418 C   0  0  0  0  0  0
  -24.3638   -9.4198   21.9199 C   0  0  0  0  0  0
  -23.6299   -8.2238   22.0769 C   0  0  0  0  0  0
  -22.4285   -8.0280   21.3546 C   0  0  0  0  0  0
  -21.9925   -9.0254   20.4652 C   0  0  0  0  0  0
  -22.7255  -10.2123   20.3061 C   0  0  0  0  0  0
  -21.6846   -6.0745   22.5292 C   0  0  0  0  0  0
  -21.4013   -6.5649   23.8230 C   0  0  0  0  0  0
  -21.3650   -5.6795   24.9186 C   0  0  0  0  0  0
  -21.6053   -4.3062   24.7226 C   0  0  0  0  0  0
  -21.8817   -3.8154   23.4345 C   0  0  0  0  0  0
  -21.9191   -4.6976   22.3406 C   0  0  0  0  0  0
  -22.7823  -13.5212   21.1839 C   0  0  0  0  0  0
  -22.1661   -4.2181   21.0973 F   0  0  0  0  0  0
  -21.5626   -3.4532   25.7726 F   0  0  0  0  0  0
  -29.9589  -13.5680   20.4462 N   0  0  0  0  0  0
  -26.2887  -12.9367   20.3255 N   0  0  0  0  0  0
  -25.9299  -11.6518   20.5704 N   0  0  0  0  0  0
  -22.0464  -12.8197   22.0394 N   0  0  0  0  0  0
  -25.4142  -15.1908   20.4185 N   0  0  0  0  0  0
  -31.6700  -15.0020   20.1313 O   0  0  0  0  0  0
  -21.6628   -6.8885   21.4252 O   0  0  0  0  0  0
  -22.3520  -14.5529   20.6702 O   0  0  0  0  0  0
  -24.6362  -31.8468   23.1883 C   0  0  0  0  0  0
  -25.9165  -32.4708   23.8236 C   0  0  1  0  0  0
  -27.1959  -27.2129   20.1077 C   0  0  0  0  0  0
  -25.5932  -33.8496   24.2176 N   0  0  0  0  0  0
  -23.4315  -30.4739   21.5289 C   0  0  2  0  0  0
  -24.8710  -28.9085   20.0963 C   0  0  0  0  0  0
  -22.7537  -29.4537   22.4795 C   0  0  0  0  0  0
  -18.0314  -28.1371   22.8474 C   0  0  0  0  0  0
  -24.1509  -36.7247   23.2656 C   0  0  0  0  0  0
  -25.9804  -30.7456   21.3684 C   0  0  0  0  0  0
  -26.0447  -29.3630   20.7079 C   0  0  0  0  0  0
  -27.2089  -28.5286   20.7021 C   0  0  0  0  0  0
  -26.0005  -26.8274   19.4736 C   0  0  0  0  0  0
  -24.8547  -27.6501   19.4706 C   0  0  0  0  0  0
  -23.6483  -29.8065   20.1438 C   0  0  0  0  0  0
  -25.4129  -36.3033   24.0337 C   0  0  1  0  0  0
  -20.5925  -28.3653   23.1246 C   0  0  2  0  0  0
  -20.6790  -26.9365   22.5391 C   0  0  0  0  0  0
  -19.5770  -26.6356   21.5184 C   0  0  0  0  0  0
  -18.1941  -26.7908   22.1602 C   0  0  0  0  0  0
  -19.1573  -28.8819   23.2864 C   0  0  0  0  0  0
  -18.9505  -30.1422   23.8894 C   0  0  0  0  0  0
  -17.6495  -30.6567   24.0546 C   0  0  0  0  0  0
  -25.9066  -34.9410   23.5058 C   0  0  0  0  0  0
  -16.5388  -29.9064   23.6317 C   0  0  0  0  0  0
  -16.7308  -28.6483   23.0355 C   0  0  0  0  0  0
  -26.4496  -31.6562   25.0656 C   0  0  0  0  0  0
  -25.3755  -31.3730   26.1410 C   0  0  0  0  0  0
  -27.0308  -30.2983   24.6114 C   0  0  0  0  0  0
  -27.6028  -32.4287   25.7471 C   0  0  0  0  0  0
  -27.5564  -37.1770   24.8471 C   0  0  0  0  0  0
  -21.4227  -29.3017   22.3624 N   0  0  0  0  0  0
  -26.4270  -37.3752   23.9420 N   0  0  0  0  0  0
  -24.7036  -31.0411   22.0845 N   0  0  0  0  0  0
  -23.4250  -28.7999   23.2849 O   0  0  0  0  0  0
  -28.2853  -26.3111   20.1951 O   0  0  0  0  0  0
  -26.5627  -34.8907   22.4624 O   0  0  0  0  0  0
  -23.5514  -32.1256   23.7152 O   0  0  0  0  0  0
  -29.1100  -18.0968   22.8397 C   0  0  0  0  0  0
  -28.8422  -18.9408   23.9299 C   0  0  0  0  0  0
  -29.3042  -18.5857   21.5190 C   0  0  0  0  0  0
  -28.9458  -20.3311   23.7899 C   0  0  0  0  0  0
  -29.2888  -20.8571   22.5205 C   0  0  0  0  0  0
  -29.2013  -20.0671   21.3350 C   0  0  0  0  0  0
  -30.1194  -23.1059   19.3095 C   0  0  0  0  0  0
  -31.2428  -22.5142   18.8745 C   0  0  0  0  0  0
  -29.8755  -24.6198   19.4058 C   0  0  0  0  0  0
  -27.8783  -23.4915   20.1286 C   0  0  0  0  0  0
  -28.3740  -24.9280   19.5613 C   0  0  2  0  0  0
  -29.9822  -22.2098   22.4879 C   0  0  0  0  0  0
  -29.6739  -17.4369   20.4520 C   0  0  0  0  0  0
  -28.8197  -20.8547   19.9817 C   0  0  0  0  0  0
  -28.6660  -21.2309   24.9948 C   0  0  0  0  0  0
  -29.6464  -15.9151   20.7916 N   0  0  0  0  0  0
  -28.8547  -22.3989   19.6631 N   0  3  2  0  0  0
  -27.4616  -21.7981   24.8681 F   0  0  0  0  0  0
  -31.4806  -12.7054   19.2129 H   0  0  0  0  0  0
  -30.4378  -11.5515   19.9966 H   0  0  0  0  0  0
  -29.8322  -11.7411   17.5720 H   0  0  0  0  0  0
  -29.6374  -13.4683   17.7225 H   0  0  0  0  0  0
  -27.9225  -11.2777   18.9358 H   0  0  0  0  0  0
  -27.3986  -12.5026   17.8098 H   0  0  0  0  0  0
  -27.6278  -14.2473   19.4742 H   0  0  0  0  0  0
  -28.7254  -12.1502   21.4148 H   0  0  0  0  0  0
  -28.3697  -13.8023   21.8309 H   0  0  0  0  0  0
  -25.2797   -9.5666   22.4761 H   0  0  0  0  0  0
  -24.0007   -7.4633   22.7504 H   0  0  0  0  0  0
  -21.0852   -8.8783   19.8955 H   0  0  0  0  0  0
  -22.3743  -10.9666   19.6161 H   0  0  0  0  0  0
  -21.2009   -7.6160   23.9749 H   0  0  0  0  0  0
  -21.1469   -6.0514   25.9092 H   0  0  0  0  0  0
  -22.0600   -2.7618   23.2831 H   0  0  0  0  0  0
  -22.4072  -11.9832   22.4745 H   0  0  0  0  0  0
  -21.1101  -13.1248   22.2612 H   0  0  0  0  0  0
  -24.6446  -15.8355   20.5639 H   0  0  0  0  0  0
  -26.2488  -15.6454   20.0693 H   0  0  0  0  0  0
  -26.7186  -32.5305   23.0926 H   0  0  0  0  0  0
  -25.0154  -33.9577   25.0370 H   0  0  0  0  0  0
  -22.7372  -31.3013   21.3810 H   0  0  0  0  0  0
  -23.3756  -35.9589   23.3334 H   0  0  0  0  0  0
  -24.3626  -36.8842   22.2066 H   0  0  0  0  0  0
  -23.7250  -37.6455   23.6657 H   0  0  0  0  0  0
  -26.1375  -31.5065   20.6025 H   0  0  0  0  0  0
  -26.8561  -30.7890   22.0025 H   0  0  0  0  0  0
  -28.1116  -28.8700   21.1898 H   0  0  0  0  0  0
  -25.9149  -25.8569   19.0052 H   0  0  0  0  0  0
  -23.9509  -27.3010   18.9949 H   0  0  0  0  0  0
  -23.7863  -30.5865   19.3941 H   0  0  0  0  0  0
  -22.7627  -29.2532   19.8233 H   0  0  0  0  0  0
  -25.1323  -36.1867   25.0815 H   0  0  0  0  0  0
  -21.0085  -28.3225   24.1327 H   0  0  0  0  0  0
  -20.5641  -26.2253   23.3598 H   0  0  0  0  0  0
  -21.6654  -26.7289   22.1208 H   0  0  0  0  0  0
  -19.6906  -25.6264   21.1196 H   0  0  0  0  0  0
  -19.6722  -27.3188   20.6743 H   0  0  0  0  0  0
  -17.4207  -26.6666   21.4012 H   0  0  0  0  0  0
  -18.0314  -26.0043   22.9004 H   0  0  0  0  0  0
  -19.7990  -30.7207   24.2273 H   0  0  0  0  0  0
  -17.5077  -31.6262   24.5126 H   0  0  0  0  0  0
  -15.5393  -30.2972   23.7632 H   0  0  0  0  0  0
  -15.8718  -28.0785   22.7079 H   0  0  0  0  0  0
  -24.5998  -30.6965   25.7819 H   0  0  0  0  0  0
  -24.8855  -32.2900   26.4708 H   0  0  0  0  0  0
  -25.8139  -30.9074   27.0248 H   0  0  0  0  0  0
  -26.2848  -29.6781   24.1135 H   0  0  0  0  0  0
  -27.4042  -29.7204   25.4562 H   0  0  0  0  0  0
  -27.8730  -30.4291   23.9315 H   0  0  0  0  0  0
  -27.2625  -33.3632   26.1951 H   0  0  0  0  0  0
  -28.3932  -32.6753   25.0379 H   0  0  0  0  0  0
  -28.0584  -31.8448   26.5483 H   0  0  0  0  0  0
  -28.2567  -38.0077   24.7512 H   0  0  0  0  0  0
  -28.1078  -36.2597   24.6331 H   0  0  0  0  0  0
  -27.2280  -37.1453   25.8875 H   0  0  0  0  0  0
  -20.9382  -29.8891   21.6961 H   0  0  0  0  0  0
  -26.0159  -38.2824   24.1454 H   0  0  0  0  0  0
  -29.1339  -17.0381   23.0469 H   0  0  0  0  0  0
  -28.6352  -18.5128   24.9022 H   0  0  0  0  0  0
  -32.0943  -23.1182   18.5954 H   0  0  0  0  0  0
  -31.3474  -21.4456   18.7747 H   0  0  0  0  0  0
  -30.2876  -25.1254   18.5316 H   0  0  0  0  0  0
  -30.4180  -24.9982   20.2710 H   0  0  0  0  0  0
  -26.8967  -23.2585   19.7129 H   0  0  0  0  0  0
  -27.7425  -23.5106   21.2032 H   0  0  0  0  0  0
  -27.9749  -25.0221   18.5500 H   0  0  0  0  0  0
  -29.3145  -23.0639   22.4717 H   0  0  0  0  0  0
  -30.6852  -22.2293   21.6570 H   0  0  0  0  0  0
  -30.6268  -22.3104   23.3569 H   0  0  0  0  0  0
  -30.6594  -17.6829   20.0549 H   0  0  0  0  0  0
  -28.9857  -17.5764   19.6174 H   0  0  0  0  0  0
  -27.7805  -20.5803   19.8043 H   0  0  0  0  0  0
  -29.3628  -20.3512   19.1852 H   0  0  0  0  0  0
  -29.3880  -22.0380   25.1157 H   0  0  0  0  0  0
  -28.6586  -20.6740   25.9333 H   0  0  0  0  0  0
  -28.7389  -15.6023   21.1016 H   0  0  0  0  0  0
  -28.4492  -22.2588   18.7489 H   0  0  0  0  0  0
  1 25  1  0  0  0
  1 30  2  0  0  0
  1 86  1  0  0  0
  2  3  1  0  0  0
  2 25  1  0  0  0
  2 89  1  0  0  0
  2 90  1  0  0  0
  3  4  1  0  0  0
  3 91  1  0  0  0
  3 92  1  0  0  0
  4  5  1  0  0  0
  4 93  1  0  0  0
  4 94  1  0  0  0
  5  6  1  0  0  0
  5 26  1  0  0  0
  5 95  1  0  0  0
  6 25  1  0  0  0
  6 96  1  0  0  0
  6 97  1  0  0  0
  7  8  2  0  0  0
  7 26  1  0  0  0
  7 29  1  0  0  0
  8  9  1  0  0  0
  8 22  1  0  0  0
  9 10  1  0  0  0
  9 27  2  0  0  0
 10 11  2  0  0  0
 10 15  1  0  0  0
 11 12  1  0  0  0
 11 98  1  0  0  0
 12 13  2  0  0  0
 12 99  1  0  0  0
 13 14  1  0  0  0
 13 31  1  0  0  0
 14 15  2  0  0  0
 14100  1  0  0  0
 15101  1  0  0  0
 16 17  2  0  0  0
 16 21  1  0  0  0
 16 31  1  0  0  0
 17 18  1  0  0  0
 17102  1  0  0  0
 18 19  2  0  0  0
 18103  1  0  0  0
 19 20  1  0  0  0
 19 24  1  0  0  0
 20 21  2  0  0  0
 20104  1  0  0  0
 21 23  1  0  0  0
 22 28  1  0  0  0
 22 32  2  0  0  0
 26 27  1  0  0  0
 28105  1  0  0  0
 28106  1  0  0  0
 29107  1  0  0  0
 29108  1  0  0  0
 33 34  1  0  0  0
 33 66  1  0  0  0
 33 70  2  0  0  0
 34 36  1  0  0  0
 34 59  1  0  0  0
 34109  1  0  0  0
 35 44  2  0  0  0
 35 45  1  0  0  0
 35 68  1  0  0  0
 36 56  1  0  0  0
 36110  1  0  0  0
 37 39  1  0  0  0
 37 47  1  0  0  0
 37 66  1  0  0  0
 37111  1  0  0  0
 38 43  2  0  0  0
 38 46  1  0  0  0
 38 47  1  0  0  0
 39 64  1  0  0  0
 39 67  2  0  0  0
 40 52  1  0  0  0
 40 53  2  0  0  0
 40 58  1  0  0  0
 41112  1  0  0  0
 41113  1  0  0  0
 41114  1  0  0  0
 41 48  1  0  0  0
 42 43  1  0  0  0
 42 66  1  0  0  0
 42115  1  0  0  0
 42116  1  0  0  0
 43 44  1  0  0  0
 44117  1  0  0  0
 45 46  2  0  0  0
 45118  1  0  0  0
 46119  1  0  0  0
 47120  1  0  0  0
 47121  1  0  0  0
 48 56  1  0  0  0
 48 65  1  0  0  0
 48122  1  0  0  0
 49 50  1  0  0  0
 49 53  1  0  0  0
 49 64  1  0  0  0
 49123  1  0  0  0
 50 51  1  0  0  0
 50124  1  0  0  0
 50125  1  0  0  0
 51 52  1  0  0  0
 51126  1  0  0  0
 51127  1  0  0  0
 52128  1  0  0  0
 52129  1  0  0  0
 53 54  1  0  0  0
 54 55  2  0  0  0
 54130  1  0  0  0
 55 57  1  0  0  0
 55131  1  0  0  0
 56 69  2  0  0  0
 57 58  2  0  0  0
 57132  1  0  0  0
 58133  1  0  0  0
 59 60  1  0  0  0
 59 61  1  0  0  0
 59 62  1  0  0  0
 60134  1  0  0  0
 60135  1  0  0  0
 60136  1  0  0  0
 61137  1  0  0  0
 61138  1  0  0  0
 61139  1  0  0  0
 62140  1  0  0  0
 62141  1  0  0  0
 62142  1  0  0  0
 63 65  1  0  0  0
 63143  1  0  0  0
 63144  1  0  0  0
 63145  1  0  0  0
 64146  1  0  0  0
 65147  1  0  0  0
 68 81  1  0  0  0
 71 72  2  0  0  0
 71 73  1  0  0  0
 71148  1  0  0  0
 72 74  1  0  0  0
 72149  1  0  0  0
 73 76  2  0  0  0
 73 83  1  0  0  0
 74 75  2  0  0  0
 74 85  1  0  0  0
 75 76  1  0  0  0
 75 82  1  0  0  0
 76 84  1  0  0  0
 77 78  2  0  0  0
 77 79  1  0  0  0
 77 87  1  0  0  0
 78150  1  0  0  0
 78151  1  0  0  0
 79 81  1  0  0  0
 79152  1  0  0  0
 79153  1  0  0  0
 80 81  1  0  0  0
 80 87  1  0  0  0
 80154  1  0  0  0
 80155  1  0  0  0
 81156  1  0  0  0
 82157  1  0  0  0
 82158  1  0  0  0
 82159  1  0  0  0
 83 86  1  0  0  0
 83160  1  0  0  0
 83161  1  0  0  0
 84162  1  0  0  0
 84163  1  0  0  0
 84 87  1  0  0  0
 85 88  1  0  0  0
 85164  1  0  0  0
 85165  1  0  0  0
 86166  1  0  0  0
 87167  1  0  0  0
M  CHG  1  87   1
M  ISO  4   1 100  68 101  81 101  86 100
M  END
> <chiral flag>
0

> <version>
0

> <s_m_source_file>
/data/baiqing/PycharmProjects/Reinvent-master-3.2/result/LINK_invent/BTK/process_docking_weight1_custom_product_contain_oxygen_bond_distance_aromatic_linkinvent_7_9_3/rearranged_h_0033.sdf

> <i_m_source_file_index>
15

> <r_mmod_Potential_Energy-OPLS-2005>
318.752563476562

> <r_mmod_Stretch_Energy-OPLS-2005>
175.509963989258

> <r_mmod_Bend_Energy-OPLS-2005>
313.98583984375

> <r_mmod_Torsional_Energy-OPLS-2005>
300.198150634766

> <r_mmod_Improper_Torsional_Energy-OPLS-2005>
7.18696546554565

> <r_mmod_Van_der_Waal_Energy-OPLS-2005>
135.827087402344

> <r_mmod_Electrostatic_Energy-OPLS-2005>
-295.186737060547

> <r_mmod_Solvation_Energy-OPLS-2005>
-446.505432128906

> <b_mmod_Minimization_Converged-OPLS-2005>
0

> <r_mmod_RMS_Derivative-OPLS-2005>
6.18333387374878

$$$$
15
                    3D
 Structure written by MMmdl.
171180  0  0  1  0            999 V2000
  -30.6470  -14.5066   20.5660 C   0  0  0  0  0  0
  -30.4389  -12.3218   19.4227 C   0  0  0  0  0  0
  -29.5012  -12.4715   18.2057 C   0  0  0  0  0  0
  -28.0223  -12.3239   18.6203 C   0  0  0  0  0  0
  -27.6608  -13.1829   19.8609 C   0  0  2  0  0  0
  -28.6992  -12.9719   20.9842 C   0  0  0  0  0  0
  -25.2642  -13.8098   20.5591 C   0  0  0  0  0  0
  -24.1872  -13.0430   20.9127 C   0  0  0  0  0  0
  -24.6378  -11.6875   20.8726 C   0  0  0  0  0  0
  -23.9023  -10.4283   21.0412 C   0  0  0  0  0  0
  -24.3568   -9.4209   21.9203 C   0  0  0  0  0  0
  -23.6260   -8.2235   22.0771 C   0  0  0  0  0  0
  -22.4252   -8.0255   21.3544 C   0  0  0  0  0  0
  -21.9879   -9.0234   20.4646 C   0  0  0  0  0  0
  -22.7199  -10.2126   20.3056 C   0  0  0  0  0  0
  -21.6865   -6.0700   22.5265 C   0  0  0  0  0  0
  -21.4025   -6.5618   23.8195 C   0  0  0  0  0  0
  -21.3655   -5.6774   24.9157 C   0  0  0  0  0  0
  -21.6031   -4.3036   24.7223 C   0  0  0  0  0  0
  -21.8839   -3.8120   23.4353 C   0  0  0  0  0  0
  -21.9204   -4.6925   22.3396 C   0  0  0  0  0  0
  -22.7912  -13.5279   21.1814 C   0  0  0  0  0  0
  -22.1673   -4.2098   21.0981 F   0  0  0  0  0  0
  -21.5628   -3.4521   25.7746 F   0  0  0  0  0  0
  -30.0244  -13.3042   20.4324 N   0  0  0  0  0  0
  -26.3013  -12.9200   20.3251 N   0  0  0  0  0  0
  -25.9286  -11.6402   20.5724 N   0  0  0  0  0  0
  -22.0533  -12.8262   22.0343 N   0  0  0  0  0  0
  -25.4504  -15.1786   20.3913 N   0  0  0  0  0  0
  -31.7886  -14.7262   20.1486 O   0  0  0  0  0  0
  -21.6642   -6.8836   21.4222 O   0  0  0  0  0  0
  -22.3617  -14.5611   20.6691 O   0  0  0  0  0  0
  -24.6201  -31.8653   23.2103 C   0  0  0  0  0  0
  -25.9098  -32.4791   23.8397 C   0  0  1  0  0  0
  -27.2157  -27.4039   20.0807 C   0  0  0  0  0  0
  -25.5973  -33.8596   24.2330 N   0  0  0  0  0  0
  -23.4031  -30.5028   21.5421 C   0  0  2  0  0  0
  -24.8418  -28.9604   20.1155 C   0  0  0  0  0  0
  -22.7423  -29.4689   22.4847 C   0  0  0  0  0  0
  -18.0321  -28.1413   22.8457 C   0  0  0  0  0  0
  -24.1502  -36.7270   23.2651 C   0  0  0  0  0  0
  -25.9399  -30.8225   21.3628 C   0  0  0  0  0  0
  -26.0079  -29.4573   20.7066 C   0  0  0  0  0  0
  -27.1952  -28.6839   20.6861 C   0  0  0  0  0  0
  -26.0140  -26.9086   19.5279 C   0  0  0  0  0  0
  -24.8379  -27.6810   19.5347 C   0  0  0  0  0  0
  -23.6175  -29.8494   20.1532 C   0  0  0  0  0  0
  -25.4114  -36.3062   24.0339 C   0  0  1  0  0  0
  -20.5922  -28.3695   23.1255 C   0  0  2  0  0  0
  -20.6814  -26.9414   22.5375 C   0  0  0  0  0  0
  -19.5789  -26.6397   21.5192 C   0  0  0  0  0  0
  -18.1960  -26.7966   22.1587 C   0  0  0  0  0  0
  -19.1572  -28.8853   23.2872 C   0  0  0  0  0  0
  -18.9495  -30.1488   23.8870 C   0  0  0  0  0  0
  -17.6487  -30.6577   24.0588 C   0  0  0  0  0  0
  -25.9045  -34.9458   23.5096 C   0  0  0  0  0  0
  -16.5382  -29.9078   23.6361 C   0  0  0  0  0  0
  -16.7310  -28.6534   23.0287 C   0  0  0  0  0  0
  -26.4522  -31.6586   25.0729 C   0  0  0  0  0  0
  -25.3782  -31.3660   26.1468 C   0  0  0  0  0  0
  -27.0416  -30.3057   24.6110 C   0  0  0  0  0  0
  -27.6105  -32.4282   25.7515 C   0  0  0  0  0  0
  -27.5566  -37.1798   24.8486 C   0  0  0  0  0  0
  -21.4127  -29.3071   22.3618 N   0  0  0  0  0  0
  -26.4289  -37.3747   23.9413 N   0  0  0  0  0  0
  -24.6731  -31.0786   22.0973 N   0  0  0  0  0  0
  -23.4200  -28.8207   23.2850 O   0  0  0  0  0  0
  -28.3973  -26.6809   20.0616 O   0  0  0  0  0  0
  -26.5569  -34.8934   22.4640 O   0  0  0  0  0  0
  -23.5388  -32.1426   23.7472 O   0  0  0  0  0  0
  -28.2146  -22.6530   21.6562 C   0  0  0  0  0  0
  -28.2879  -23.9509   21.1058 C   0  0  0  0  0  0
  -28.4787  -21.6967   19.4499 C   0  0  0  0  0  0
  -28.3226  -21.5015   20.8405 C   0  0  0  0  0  0
  -28.4541  -24.1513   19.7178 C   0  0  0  0  0  0
  -28.5557  -22.9987   18.8824 C   0  0  0  0  0  0
  -29.7509  -18.7298   22.8809 C   0  0  0  0  0  0
  -29.7922  -21.6078   25.1599 C   0  0  0  0  0  0
  -29.9708  -19.4922   23.9678 C   0  0  0  0  0  0
  -29.9224  -20.9342   24.0064 C   0  0  0  0  0  0
  -29.9485  -17.2250   22.8216 C   0  0  0  0  0  0
  -29.2663  -17.9605   20.6694 C   0  0  0  0  0  0
  -30.1631  -16.8968   21.3522 C   0  0  2  0  0  0
  -28.9303  -21.8952   16.5513 C   0  0  0  0  0  0
  -28.7380  -23.1808   17.3730 C   0  0  0  0  0  0
  -28.1316  -20.0807   21.4179 C   0  0  0  0  0  0
  -28.5621  -25.5811   19.1373 C   0  0  0  0  0  0
  -29.8550  -15.4822   21.0579 N   0  0  0  0  0  0
  -29.3537  -19.1997   21.5023 N   0  3  1  0  0  0
  -31.4810  -12.4476   19.1212 H   0  0  0  0  0  0
  -30.3684  -11.3144   19.8369 H   0  0  0  0  0  0
  -29.7536  -11.7240   17.4512 H   0  0  0  0  0  0
  -29.6541  -13.4426   17.7340 H   0  0  0  0  0  0
  -27.8484  -11.2689   18.8379 H   0  0  0  0  0  0
  -27.3685  -12.5621   17.7804 H   0  0  0  0  0  0
  -27.7058  -14.2224   19.5397 H   0  0  0  0  0  0
  -28.6913  -11.9321   21.3143 H   0  0  0  0  0  0
  -28.4467  -13.5513   21.8727 H   0  0  0  0  0  0
  -25.2707   -9.5702   22.4774 H   0  0  0  0  0  0
  -23.9966   -7.4636   22.7511 H   0  0  0  0  0  0
  -21.0802   -8.8729   19.8950 H   0  0  0  0  0  0
  -22.3649  -10.9641   19.6141 H   0  0  0  0  0  0
  -21.2031   -7.6131   23.9682 H   0  0  0  0  0  0
  -21.1457   -6.0509   25.9057 H   0  0  0  0  0  0
  -22.0634   -2.7571   23.2872 H   0  0  0  0  0  0
  -22.4082  -11.9833   22.4609 H   0  0  0  0  0  0
  -21.1175  -13.1342   22.2580 H   0  0  0  0  0  0
  -24.6883  -15.8434   20.4657 H   0  0  0  0  0  0
  -26.2840  -15.5781   19.9815 H   0  0  0  0  0  0
  -26.7132  -32.5450   23.1128 H   0  0  0  0  0  0
  -25.0343  -33.9799   25.0614 H   0  0  0  0  0  0
  -22.6963  -31.3224   21.4023 H   0  0  0  0  0  0
  -23.3782  -35.9581   23.3316 H   0  0  0  0  0  0
  -24.3629  -36.8863   22.2070 H   0  0  0  0  0  0
  -23.7241  -37.6474   23.6654 H   0  0  0  0  0  0
  -26.0645  -31.5958   20.6032 H   0  0  0  0  0  0
  -26.8265  -30.8659   21.9846 H   0  0  0  0  0  0
  -28.1042  -29.0763   21.1200 H   0  0  0  0  0  0
  -25.9548  -25.9146   19.1068 H   0  0  0  0  0  0
  -23.9263  -27.2826   19.1100 H   0  0  0  0  0  0
  -23.7506  -30.6380   19.4114 H   0  0  0  0  0  0
  -22.7327  -29.3005   19.8279 H   0  0  0  0  0  0
  -25.1269  -36.1926   25.0815 H   0  0  0  0  0  0
  -21.0062  -28.3290   24.1351 H   0  0  0  0  0  0
  -20.5754  -26.2275   23.3550 H   0  0  0  0  0  0
  -21.6657  -26.7450   22.1114 H   0  0  0  0  0  0
  -19.6962  -25.6309   21.1210 H   0  0  0  0  0  0
  -19.6782  -27.3215   20.6739 H   0  0  0  0  0  0
  -17.4218  -26.6746   21.4001 H   0  0  0  0  0  0
  -18.0353  -26.0107   22.8977 H   0  0  0  0  0  0
  -19.7982  -30.7330   24.2149 H   0  0  0  0  0  0
  -17.5055  -31.6252   24.5198 H   0  0  0  0  0  0
  -15.5394  -30.2947   23.7745 H   0  0  0  0  0  0
  -15.8733  -28.0918   22.6897 H   0  0  0  0  0  0
  -24.6024  -30.6902   25.7828 H   0  0  0  0  0  0
  -24.8894  -32.2792   26.4890 H   0  0  0  0  0  0
  -25.8163  -30.8911   27.0266 H   0  0  0  0  0  0
  -26.2997  -29.6741   24.1215 H   0  0  0  0  0  0
  -27.4330  -29.7339   25.4547 H   0  0  0  0  0  0
  -27.8724  -30.4453   23.9183 H   0  0  0  0  0  0
  -27.2775  -33.3632   26.2051 H   0  0  0  0  0  0
  -28.3991  -32.6747   25.0372 H   0  0  0  0  0  0
  -28.0683  -31.8388   26.5492 H   0  0  0  0  0  0
  -28.2548  -38.0128   24.7508 H   0  0  0  0  0  0
  -28.1091  -36.2659   24.6309 H   0  0  0  0  0  0
  -27.2294  -37.1386   25.8892 H   0  0  0  0  0  0
  -20.9222  -29.8868   21.6953 H   0  0  0  0  0  0
  -26.0184  -38.2804   24.1455 H   0  0  0  0  0  0
  -28.0532  -22.5629   22.7226 H   0  0  0  0  0  0
  -28.2042  -24.8044   21.7650 H   0  0  0  0  0  0
  -28.5051  -20.8208   18.8189 H   0  0  0  0  0  0
  -29.7549  -22.6872   25.1768 H   0  0  0  0  0  0
  -29.7157  -21.0851   26.1045 H   0  0  0  0  0  0
  -30.2720  -18.9857   24.8746 H   0  0  0  0  0  0
  -30.0242  -21.4921   23.0858 H   0  0  0  0  0  0
  -29.0585  -16.7304   23.2168 H   0  0  0  0  0  0
  -30.7983  -16.9133   23.4292 H   0  0  0  0  0  0
  -28.2382  -17.5963   20.6437 H   0  0  0  0  0  0
  -29.5716  -18.1641   19.6418 H   0  0  0  0  0  0
  -31.2033  -17.1046   21.1004 H   0  0  0  0  0  0
  -28.9863  -22.1199   15.4849 H   0  0  0  0  0  0
  -28.1049  -21.1940   16.6844 H   0  0  0  0  0  0
  -29.8583  -21.3954   16.8261 H   0  0  0  0  0  0
  -29.6039  -23.8245   17.2137 H   0  0  0  0  0  0
  -27.8741  -23.7207   16.9851 H   0  0  0  0  0  0
  -27.3644  -19.6185   20.7974 H   0  0  0  0  0  0
  -27.6710  -20.1597   22.4041 H   0  0  0  0  0  0
  -27.9255  -25.6951   18.2590 H   0  0  0  0  0  0
  -29.5751  -25.6801   18.7449 H   0  0  0  0  0  0
  -28.9351  -15.1687   21.3272 H   0  0  0  0  0  0
  -30.1107  -19.7485   21.1274 H   0  0  0  0  0  0
  1 25  1  0  0  0
  1 30  2  0  0  0
  1 88  1  0  0  0
  2  3  1  0  0  0
  2 25  1  0  0  0
  2 90  1  0  0  0
  2 91  1  0  0  0
  3  4  1  0  0  0
  3 92  1  0  0  0
  3 93  1  0  0  0
  4  5  1  0  0  0
  4 94  1  0  0  0
  4 95  1  0  0  0
  5  6  1  0  0  0
  5 26  1  0  0  0
  5 96  1  0  0  0
  6 25  1  0  0  0
  6 97  1  0  0  0
  6 98  1  0  0  0
  7  8  2  0  0  0
  7 26  1  0  0  0
  7 29  1  0  0  0
  8  9  1  0  0  0
  8 22  1  0  0  0
  9 10  1  0  0  0
  9 27  2  0  0  0
 10 11  2  0  0  0
 10 15  1  0  0  0
 11 12  1  0  0  0
 11 99  1  0  0  0
 12 13  2  0  0  0
 12100  1  0  0  0
 13 14  1  0  0  0
 13 31  1  0  0  0
 14 15  2  0  0  0
 14101  1  0  0  0
 15102  1  0  0  0
 16 17  2  0  0  0
 16 21  1  0  0  0
 16 31  1  0  0  0
 17 18  1  0  0  0
 17103  1  0  0  0
 18 19  2  0  0  0
 18104  1  0  0  0
 19 20  1  0  0  0
 19 24  1  0  0  0
 20 21  2  0  0  0
 20105  1  0  0  0
 21 23  1  0  0  0
 22 28  1  0  0  0
 22 32  2  0  0  0
 26 27  1  0  0  0
 28106  1  0  0  0
 28107  1  0  0  0
 29108  1  0  0  0
 29109  1  0  0  0
 33 34  1  0  0  0
 33 66  1  0  0  0
 33 70  2  0  0  0
 34 36  1  0  0  0
 34 59  1  0  0  0
 34110  1  0  0  0
 35 44  2  0  0  0
 35 45  1  0  0  0
 35 68  1  0  0  0
 36 56  1  0  0  0
 36111  1  0  0  0
 37 39  1  0  0  0
 37 47  1  0  0  0
 37 66  1  0  0  0
 37112  1  0  0  0
 38 43  2  0  0  0
 38 46  1  0  0  0
 38 47  1  0  0  0
 39 64  1  0  0  0
 39 67  2  0  0  0
 40 52  1  0  0  0
 40 53  2  0  0  0
 40 58  1  0  0  0
 41113  1  0  0  0
 41114  1  0  0  0
 41115  1  0  0  0
 41 48  1  0  0  0
 42 43  1  0  0  0
 42 66  1  0  0  0
 42116  1  0  0  0
 42117  1  0  0  0
 43 44  1  0  0  0
 44118  1  0  0  0
 45 46  2  0  0  0
 45119  1  0  0  0
 46120  1  0  0  0
 47121  1  0  0  0
 47122  1  0  0  0
 48 56  1  0  0  0
 48 65  1  0  0  0
 48123  1  0  0  0
 49 50  1  0  0  0
 49 53  1  0  0  0
 49 64  1  0  0  0
 49124  1  0  0  0
 50 51  1  0  0  0
 50125  1  0  0  0
 50126  1  0  0  0
 51 52  1  0  0  0
 51127  1  0  0  0
 51128  1  0  0  0
 52129  1  0  0  0
 52130  1  0  0  0
 53 54  1  0  0  0
 54 55  2  0  0  0
 54131  1  0  0  0
 55 57  1  0  0  0
 55132  1  0  0  0
 56 69  2  0  0  0
 57 58  2  0  0  0
 57133  1  0  0  0
 58134  1  0  0  0
 59 60  1  0  0  0
 59 61  1  0  0  0
 59 62  1  0  0  0
 60135  1  0  0  0
 60136  1  0  0  0
 60137  1  0  0  0
 61138  1  0  0  0
 61139  1  0  0  0
 61140  1  0  0  0
 62141  1  0  0  0
 62142  1  0  0  0
 62143  1  0  0  0
 63 65  1  0  0  0
 63144  1  0  0  0
 63145  1  0  0  0
 63146  1  0  0  0
 64147  1  0  0  0
 65148  1  0  0  0
 68 87  1  0  0  0
 71 72  2  0  0  0
 71 74  1  0  0  0
 71149  1  0  0  0
 72 75  1  0  0  0
 72150  1  0  0  0
 73 74  2  0  0  0
 73 76  1  0  0  0
 73151  1  0  0  0
 74 86  1  0  0  0
 75 76  2  0  0  0
 75 87  1  0  0  0
 76 85  1  0  0  0
 77 79  2  0  0  0
 77 81  1  0  0  0
 77 89  1  0  0  0
 78 80  2  0  0  0
 78152  1  0  0  0
 78153  1  0  0  0
 79 80  1  0  0  0
 79154  1  0  0  0
 80155  1  0  0  0
 81 83  1  0  0  0
 81156  1  0  0  0
 81157  1  0  0  0
 82 83  1  0  0  0
 82 89  1  0  0  0
 82158  1  0  0  0
 82159  1  0  0  0
 83 88  1  0  0  0
 83160  1  0  0  0
 84 85  1  0  0  0
 84161  1  0  0  0
 84162  1  0  0  0
 84163  1  0  0  0
 85164  1  0  0  0
 85165  1  0  0  0
 86166  1  0  0  0
 86167  1  0  0  0
 86 89  1  0  0  0
 87168  1  0  0  0
 87169  1  0  0  0
 88170  1  0  0  0
 89171  1  0  0  0
M  CHG  1  89   1
M  ISO  4   1 100  68 101  87 101  88 100
M  END
> <chiral flag>
0

> <version>
0

> <s_m_source_file>
/data/baiqing/PycharmProjects/Reinvent-master-3.2/result/LINK_invent/BTK/process_docking_weight1_custom_product_contain_oxygen_bond_distance_aromatic_linkinvent_7_9_3/rearranged_h_0033.sdf

> <i_m_source_file_index>
16

> <r_mmod_Potential_Energy-OPLS-2005>
-119.678352355957

> <r_mmod_Stretch_Energy-OPLS-2005>
47.4665718078613

> <r_mmod_Bend_Energy-OPLS-2005>
142.300323486328

> <r_mmod_Torsional_Energy-OPLS-2005>
234.488204956055

> <r_mmod_Improper_Torsional_Energy-OPLS-2005>
4.36323070526123

> <r_mmod_Van_der_Waal_Energy-OPLS-2005>
151.718490600586

> <r_mmod_Electrostatic_Energy-OPLS-2005>
-275.655212402344

> <r_mmod_Solvation_Energy-OPLS-2005>
-443.840972900391

> <b_mmod_Minimization_Converged-OPLS-2005>
0

> <r_mmod_RMS_Derivative-OPLS-2005>
5.2784571647644

$$$$
16
                    3D
 Structure written by MMmdl.
159168  0  0  1  0            999 V2000
  -30.6805  -14.6262   20.4786 C   0  0  0  0  0  0
  -30.4169  -12.3840   19.4591 C   0  0  0  0  0  0
  -29.4983  -12.4909   18.2247 C   0  0  0  0  0  0
  -28.0234  -12.3364   18.6405 C   0  0  0  0  0  0
  -27.6450  -13.2273   19.8547 C   0  0  2  0  0  0
  -28.6906  -13.1333   20.9881 C   0  0  0  0  0  0
  -25.2523  -13.8199   20.5697 C   0  0  0  0  0  0
  -24.1808  -13.0447   20.9205 C   0  0  0  0  0  0
  -24.6392  -11.6922   20.8751 C   0  0  0  0  0  0
  -23.9068  -10.4298   21.0410 C   0  0  0  0  0  0
  -24.3619   -9.4212   21.9187 C   0  0  0  0  0  0
  -23.6294   -8.2246   22.0755 C   0  0  0  0  0  0
  -22.4276   -8.0282   21.3545 C   0  0  0  0  0  0
  -21.9914   -9.0256   20.4647 C   0  0  0  0  0  0
  -22.7241  -10.2137   20.3058 C   0  0  0  0  0  0
  -21.6856   -6.0734   22.5277 C   0  0  0  0  0  0
  -21.4014   -6.5639   23.8209 C   0  0  0  0  0  0
  -21.3660   -5.6794   24.9173 C   0  0  0  0  0  0
  -21.6043   -4.3055   24.7226 C   0  0  0  0  0  0
  -21.8820   -3.8146   23.4347 C   0  0  0  0  0  0
  -21.9193   -4.6961   22.3402 C   0  0  0  0  0  0
  -22.7828  -13.5228   21.1861 C   0  0  0  0  0  0
  -22.1662   -4.2145   21.0981 F   0  0  0  0  0  0
  -21.5630   -3.4540   25.7740 F   0  0  0  0  0  0
  -30.0018  -13.4396   20.4060 N   0  0  0  0  0  0
  -26.2952  -12.9402   20.3311 N   0  0  0  0  0  0
  -25.9323  -11.6547   20.5772 N   0  0  0  0  0  0
  -22.0477  -12.8216   22.0416 N   0  0  0  0  0  0
  -25.4224  -15.1922   20.4109 N   0  0  0  0  0  0
  -31.8670  -14.6895   20.1495 O   0  0  0  0  0  0
  -21.6642   -6.8877   21.4238 O   0  0  0  0  0  0
  -22.3511  -14.5533   20.6706 O   0  0  0  0  0  0
  -24.6248  -31.8608   23.2036 C   0  0  0  0  0  0
  -25.9102  -32.4784   23.8360 C   0  0  1  0  0  0
  -27.2187  -27.3325   20.1252 C   0  0  0  0  0  0
  -25.5924  -33.8584   24.2288 N   0  0  0  0  0  0
  -23.4177  -30.4841   21.5459 C   0  0  2  0  0  0
  -24.8653  -28.9410   20.1102 C   0  0  0  0  0  0
  -22.7467  -29.4625   22.4943 C   0  0  0  0  0  0
  -18.0282  -28.1383   22.8487 C   0  0  0  0  0  0
  -24.1490  -36.7293   23.2641 C   0  0  0  0  0  0
  -25.9572  -30.7974   21.3718 C   0  0  0  0  0  0
  -26.0330  -29.4253   20.7150 C   0  0  0  0  0  0
  -27.2173  -28.6326   20.7116 C   0  0  0  0  0  0
  -26.0365  -26.8987   19.4896 C   0  0  0  0  0  0
  -24.8677  -27.6828   19.4867 C   0  0  0  0  0  0
  -23.6316  -29.8187   20.1608 C   0  0  0  0  0  0
  -25.4113  -36.3083   24.0330 C   0  0  1  0  0  0
  -20.5883  -28.3682   23.1287 C   0  0  2  0  0  0
  -20.6774  -26.9407   22.5412 C   0  0  0  0  0  0
  -19.5749  -26.6382   21.5214 C   0  0  0  0  0  0
  -18.1927  -26.7928   22.1623 C   0  0  0  0  0  0
  -19.1536  -28.8848   23.2884 C   0  0  0  0  0  0
  -18.9462  -30.1452   23.8898 C   0  0  0  0  0  0
  -17.6465  -30.6588   24.0561 C   0  0  0  0  0  0
  -25.9050  -34.9455   23.5109 C   0  0  0  0  0  0
  -16.5353  -29.9086   23.6333 C   0  0  0  0  0  0
  -16.7272  -28.6502   23.0352 C   0  0  0  0  0  0
  -26.4490  -31.6586   25.0723 C   0  0  0  0  0  0
  -25.3727  -31.3718   26.1451 C   0  0  0  0  0  0
  -27.0342  -30.3020   24.6161 C   0  0  0  0  0  0
  -27.6054  -32.4324   25.7491 C   0  0  0  0  0  0
  -27.5578  -37.1800   24.8464 C   0  0  0  0  0  0
  -21.4182  -29.3039   22.3687 N   0  0  0  0  0  0
  -26.4292  -37.3774   23.9409 N   0  0  0  0  0  0
  -24.6853  -31.0636   22.0978 N   0  0  0  0  0  0
  -23.4200  -28.8166   23.3017 O   0  0  0  0  0  0
  -28.3179  -26.4695   20.1593 O   0  0  0  0  0  0
  -26.5616  -34.8916   22.4672 O   0  0  0  0  0  0
  -23.5415  -32.1396   23.7378 O   0  0  0  0  0  0
  -29.4738  -20.8312   19.7221 C   0  0  0  0  0  0
  -29.2525  -18.9915   21.8309 C   0  0  0  0  0  0
  -29.8514  -18.5268   20.6234 C   0  0  0  0  0  0
  -28.9441  -21.3353   20.9346 C   0  0  0  0  0  0
  -29.9101  -19.4845   19.5624 C   0  0  0  0  0  0
  -28.7883  -20.3461   21.9715 C   0  0  0  0  0  0
  -28.7894  -24.9534   22.0562 C   0  0  0  0  0  0
  -28.6963  -23.4445   22.3544 C   0  0  0  0  0  0
  -28.5528  -23.7909   20.0136 C   0  0  0  0  0  0
  -28.0747  -25.1209   20.7188 C   0  0  2  0  0  0
  -29.1333  -18.0571   23.0334 C   0  0  0  0  0  0
  -30.6135  -17.1434   20.5144 C   0  0  0  0  0  0
  -28.6086  -22.7424   21.0712 N   0  0  0  0  0  0
  -29.9823  -15.7869   20.6947 N   0  0  0  0  0  0
  -30.5745  -19.0668   18.0205 Cl  0  0  0  0  0  0
  -27.9907  -20.7391   23.4635 Cl  0  0  0  0  0  0
  -31.4614  -12.4746   19.1562 H   0  0  0  0  0  0
  -30.3271  -11.4012   19.9244 H   0  0  0  0  0  0
  -29.7608  -11.7280   17.4902 H   0  0  0  0  0  0
  -29.6454  -13.4543   17.7335 H   0  0  0  0  0  0
  -27.8631  -11.2866   18.8888 H   0  0  0  0  0  0
  -27.3674  -12.5506   17.7960 H   0  0  0  0  0  0
  -27.6512  -14.2544   19.4889 H   0  0  0  0  0  0
  -28.6976  -12.1355   21.4293 H   0  0  0  0  0  0
  -28.4477  -13.8243   21.7968 H   0  0  0  0  0  0
  -25.2763   -9.5686   22.4764 H   0  0  0  0  0  0
  -24.0001   -7.4637   22.7476 H   0  0  0  0  0  0
  -21.0845   -8.8776   19.8952 H   0  0  0  0  0  0
  -22.3699  -10.9676   19.6167 H   0  0  0  0  0  0
  -21.2006   -7.6148   23.9710 H   0  0  0  0  0  0
  -21.1481   -6.0527   25.9076 H   0  0  0  0  0  0
  -22.0599   -2.7607   23.2850 H   0  0  0  0  0  0
  -22.4100  -11.9876   22.4798 H   0  0  0  0  0  0
  -21.1093  -13.1234   22.2624 H   0  0  0  0  0  0
  -24.6551  -15.8461   20.5203 H   0  0  0  0  0  0
  -26.2701  -15.6315   20.0757 H   0  0  0  0  0  0
  -26.7172  -32.5463   23.1114 H   0  0  0  0  0  0
  -25.0068  -33.9727   25.0431 H   0  0  0  0  0  0
  -22.7109  -31.3045   21.4035 H   0  0  0  0  0  0
  -23.3752  -35.9628   23.3304 H   0  0  0  0  0  0
  -24.3578  -36.8911   22.2055 H   0  0  0  0  0  0
  -23.7246  -37.6494   23.6664 H   0  0  0  0  0  0
  -26.0842  -31.5618   20.6040 H   0  0  0  0  0  0
  -26.8391  -30.8480   21.9986 H   0  0  0  0  0  0
  -28.1141  -28.9957   21.1941 H   0  0  0  0  0  0
  -26.0088  -25.9310   19.0090 H   0  0  0  0  0  0
  -23.9739  -27.3076   19.0077 H   0  0  0  0  0  0
  -23.7481  -30.5953   19.4041 H   0  0  0  0  0  0
  -22.7526  -29.2462   19.8596 H   0  0  0  0  0  0
  -25.1295  -36.1934   25.0822 H   0  0  0  0  0  0
  -20.9972  -28.3260   24.1409 H   0  0  0  0  0  0
  -20.5683  -26.2289   23.3609 H   0  0  0  0  0  0
  -21.6640  -26.7444   22.1197 H   0  0  0  0  0  0
  -19.6910  -25.6294   21.1238 H   0  0  0  0  0  0
  -19.6688  -27.3201   20.6751 H   0  0  0  0  0  0
  -17.4197  -26.6679   21.4025 H   0  0  0  0  0  0
  -18.0319  -26.0073   22.9020 H   0  0  0  0  0  0
  -19.7941  -30.7265   24.2266 H   0  0  0  0  0  0
  -17.5023  -31.6270   24.5162 H   0  0  0  0  0  0
  -15.5354  -30.2989   23.7664 H   0  0  0  0  0  0
  -15.8667  -28.0828   22.7063 H   0  0  0  0  0  0
  -24.5911  -30.7057   25.7779 H   0  0  0  0  0  0
  -24.8902  -32.2879   26.4872 H   0  0  0  0  0  0
  -25.8051  -30.8903   27.0231 H   0  0  0  0  0  0
  -26.2914  -29.6765   24.1199 H   0  0  0  0  0  0
  -27.4068  -29.7280   25.4653 H   0  0  0  0  0  0
  -27.8765  -30.4319   23.9365 H   0  0  0  0  0  0
  -27.2673  -33.3636   26.2052 H   0  0  0  0  0  0
  -28.3871  -32.6864   25.0319 H   0  0  0  0  0  0
  -28.0715  -31.8458   26.5418 H   0  0  0  0  0  0
  -28.2592  -38.0101   24.7511 H   0  0  0  0  0  0
  -28.1074  -36.2627   24.6291 H   0  0  0  0  0  0
  -27.2290  -37.1445   25.8866 H   0  0  0  0  0  0
  -20.9359  -29.8769   21.6902 H   0  0  0  0  0  0
  -26.0173  -38.2847   24.1416 H   0  0  0  0  0  0
  -29.5908  -21.4988   18.8821 H   0  0  0  0  0  0
  -29.8356  -25.2466   21.9544 H   0  0  0  0  0  0
  -28.3508  -25.5614   22.8480 H   0  0  0  0  0  0
  -27.7813  -23.2686   22.9208 H   0  0  0  0  0  0
  -29.5417  -23.1052   22.9556 H   0  0  0  0  0  0
  -29.5473  -23.9244   19.5856 H   0  0  0  0  0  0
  -27.8769  -23.5076   19.2055 H   0  0  0  0  0  0
  -27.0115  -24.9919   20.9289 H   0  0  0  0  0  0
  -29.6559  -17.1117   22.9180 H   0  0  0  0  0  0
  -28.0854  -17.8301   23.2311 H   0  0  0  0  0  0
  -29.5533  -18.5268   23.9233 H   0  0  0  0  0  0
  -31.4178  -17.2045   21.2495 H   0  0  0  0  0  0
  -31.1449  -17.1072   19.5655 H   0  0  0  0  0  0
  -28.9963  -15.7324   20.8974 H   0  0  0  0  0  0
  1 25  1  0  0  0
  1 30  2  0  0  0
  1 84  1  0  0  0
  2  3  1  0  0  0
  2 25  1  0  0  0
  2 87  1  0  0  0
  2 88  1  0  0  0
  3  4  1  0  0  0
  3 89  1  0  0  0
  3 90  1  0  0  0
  4  5  1  0  0  0
  4 91  1  0  0  0
  4 92  1  0  0  0
  5  6  1  0  0  0
  5 26  1  0  0  0
  5 93  1  0  0  0
  6 25  1  0  0  0
  6 94  1  0  0  0
  6 95  1  0  0  0
  7  8  2  0  0  0
  7 26  1  0  0  0
  7 29  1  0  0  0
  8  9  1  0  0  0
  8 22  1  0  0  0
  9 10  1  0  0  0
  9 27  2  0  0  0
 10 11  2  0  0  0
 10 15  1  0  0  0
 11 12  1  0  0  0
 11 96  1  0  0  0
 12 13  2  0  0  0
 12 97  1  0  0  0
 13 14  1  0  0  0
 13 31  1  0  0  0
 14 15  2  0  0  0
 14 98  1  0  0  0
 15 99  1  0  0  0
 16 17  2  0  0  0
 16 21  1  0  0  0
 16 31  1  0  0  0
 17 18  1  0  0  0
 17100  1  0  0  0
 18 19  2  0  0  0
 18101  1  0  0  0
 19 20  1  0  0  0
 19 24  1  0  0  0
 20 21  2  0  0  0
 20102  1  0  0  0
 21 23  1  0  0  0
 22 28  1  0  0  0
 22 32  2  0  0  0
 26 27  1  0  0  0
 28103  1  0  0  0
 28104  1  0  0  0
 29105  1  0  0  0
 29106  1  0  0  0
 33 34  1  0  0  0
 33 66  1  0  0  0
 33 70  2  0  0  0
 34 36  1  0  0  0
 34 59  1  0  0  0
 34107  1  0  0  0
 35 44  2  0  0  0
 35 45  1  0  0  0
 35 68  1  0  0  0
 36 56  1  0  0  0
 36108  1  0  0  0
 37 39  1  0  0  0
 37 47  1  0  0  0
 37 66  1  0  0  0
 37109  1  0  0  0
 38 43  2  0  0  0
 38 46  1  0  0  0
 38 47  1  0  0  0
 39 64  1  0  0  0
 39 67  2  0  0  0
 40 52  1  0  0  0
 40 53  2  0  0  0
 40 58  1  0  0  0
 41110  1  0  0  0
 41111  1  0  0  0
 41112  1  0  0  0
 41 48  1  0  0  0
 42 43  1  0  0  0
 42 66  1  0  0  0
 42113  1  0  0  0
 42114  1  0  0  0
 43 44  1  0  0  0
 44115  1  0  0  0
 45 46  2  0  0  0
 45116  1  0  0  0
 46117  1  0  0  0
 47118  1  0  0  0
 47119  1  0  0  0
 48 56  1  0  0  0
 48 65  1  0  0  0
 48120  1  0  0  0
 49 50  1  0  0  0
 49 53  1  0  0  0
 49 64  1  0  0  0
 49121  1  0  0  0
 50 51  1  0  0  0
 50122  1  0  0  0
 50123  1  0  0  0
 51 52  1  0  0  0
 51124  1  0  0  0
 51125  1  0  0  0
 52126  1  0  0  0
 52127  1  0  0  0
 53 54  1  0  0  0
 54 55  2  0  0  0
 54128  1  0  0  0
 55 57  1  0  0  0
 55129  1  0  0  0
 56 69  2  0  0  0
 57 58  2  0  0  0
 57130  1  0  0  0
 58131  1  0  0  0
 59 60  1  0  0  0
 59 61  1  0  0  0
 59 62  1  0  0  0
 60132  1  0  0  0
 60133  1  0  0  0
 60134  1  0  0  0
 61135  1  0  0  0
 61136  1  0  0  0
 61137  1  0  0  0
 62138  1  0  0  0
 62139  1  0  0  0
 62140  1  0  0  0
 63 65  1  0  0  0
 63141  1  0  0  0
 63142  1  0  0  0
 63143  1  0  0  0
 64144  1  0  0  0
 65145  1  0  0  0
 68 80  1  0  0  0
 71 74  2  0  0  0
 71 75  1  0  0  0
 71146  1  0  0  0
 72 73  1  0  0  0
 72 76  2  0  0  0
 72 81  1  0  0  0
 73 75  2  0  0  0
 73 82  1  0  0  0
 74 76  1  0  0  0
 74 83  1  0  0  0
 75 85  1  0  0  0
 76 86  1  0  0  0
 77 78  1  0  0  0
 77 80  1  0  0  0
 77147  1  0  0  0
 77148  1  0  0  0
 78 83  1  0  0  0
 78149  1  0  0  0
 78150  1  0  0  0
 79 80  1  0  0  0
 79 83  1  0  0  0
 79151  1  0  0  0
 79152  1  0  0  0
 80153  1  0  0  0
 81154  1  0  0  0
 81155  1  0  0  0
 81156  1  0  0  0
 82 84  1  0  0  0
 82157  1  0  0  0
 82158  1  0  0  0
 84159  1  0  0  0
M  ISO  4   1 100  68 101  80 101  84 100
M  END
> <chiral flag>
0

> <version>
0

> <s_m_source_file>
/data/baiqing/PycharmProjects/Reinvent-master-3.2/result/LINK_invent/BTK/process_docking_weight1_custom_product_contain_oxygen_bond_distance_aromatic_linkinvent_7_9_3/rearranged_h_0033.sdf

> <i_m_source_file_index>
17

> <r_mmod_Potential_Energy-OPLS-2005>
190.10319519043

> <r_mmod_Stretch_Energy-OPLS-2005>
81.7281036376953

> <r_mmod_Bend_Energy-OPLS-2005>
196.24853515625

> <r_mmod_Torsional_Energy-OPLS-2005>
272.745147705078

> <r_mmod_Improper_Torsional_Energy-OPLS-2005>
7.26839971542358

> <r_mmod_Van_der_Waal_Energy-OPLS-2005>
158.769500732422

> <r_mmod_Electrostatic_Energy-OPLS-2005>
-357.457183837891

> <r_mmod_Solvation_Energy-OPLS-2005>
-218.124664306641

> <b_mmod_Minimization_Converged-OPLS-2005>
0

> <r_mmod_RMS_Derivative-OPLS-2005>
0.638847649097443

$$$$
17
                    3D
 Structure written by MMmdl.
154162  0  0  1  0            999 V2000
  -30.6346  -14.7291   20.4611 C   0  0  0  0  0  0
  -30.4245  -12.4436   19.4785 C   0  0  0  0  0  0
  -29.5088  -12.5075   18.2374 C   0  0  0  0  0  0
  -28.0341  -12.3360   18.6481 C   0  0  0  0  0  0
  -27.6405  -13.2355   19.8498 C   0  0  2  0  0  0
  -28.6840  -13.1756   20.9875 C   0  0  0  0  0  0
  -25.2477  -13.8202   20.5652 C   0  0  0  0  0  0
  -24.1795  -13.0442   20.9224 C   0  0  0  0  0  0
  -24.6393  -11.6927   20.8765 C   0  0  0  0  0  0
  -23.9067  -10.4299   21.0414 C   0  0  0  0  0  0
  -24.3623   -9.4208   21.9184 C   0  0  0  0  0  0
  -23.6296   -8.2247   22.0756 C   0  0  0  0  0  0
  -22.4277   -8.0285   21.3549 C   0  0  0  0  0  0
  -21.9918   -9.0258   20.4647 C   0  0  0  0  0  0
  -22.7243  -10.2136   20.3057 C   0  0  0  0  0  0
  -21.6853   -6.0729   22.5274 C   0  0  0  0  0  0
  -21.4016   -6.5632   23.8207 C   0  0  0  0  0  0
  -21.3665   -5.6791   24.9173 C   0  0  0  0  0  0
  -21.6049   -4.3054   24.7226 C   0  0  0  0  0  0
  -21.8823   -3.8143   23.4347 C   0  0  0  0  0  0
  -21.9199   -4.6957   22.3401 C   0  0  0  0  0  0
  -22.7812  -13.5209   21.1879 C   0  0  0  0  0  0
  -22.1667   -4.2140   21.0975 F   0  0  0  0  0  0
  -21.5628   -3.4536   25.7738 F   0  0  0  0  0  0
  -29.9885  -13.5137   20.4068 N   0  0  0  0  0  0
  -26.2920  -12.9424   20.3256 N   0  0  0  0  0  0
  -25.9324  -11.6563   20.5766 N   0  0  0  0  0  0
  -22.0467  -12.8189   22.0436 N   0  0  0  0  0  0
  -25.4123  -15.1917   20.3973 N   0  0  0  0  0  0
  -31.8229  -14.7781   20.1377 O   0  0  0  0  0  0
  -21.6647   -6.8875   21.4238 O   0  0  0  0  0  0
  -22.3491  -14.5512   20.6720 O   0  0  0  0  0  0
  -24.6277  -31.8562   23.1977 C   0  0  0  0  0  0
  -25.9106  -32.4759   23.8333 C   0  0  1  0  0  0
  -27.2272  -27.2777   20.1244 C   0  0  0  0  0  0
  -25.5904  -33.8563   24.2247 N   0  0  0  0  0  0
  -23.4247  -30.4759   21.5419 C   0  0  2  0  0  0
  -24.8730  -28.9226   20.1097 C   0  0  0  0  0  0
  -22.7481  -29.4596   22.4932 C   0  0  0  0  0  0
  -18.0279  -28.1381   22.8494 C   0  0  0  0  0  0
  -24.1489  -36.7300   23.2643 C   0  0  0  0  0  0
  -25.9678  -30.7739   21.3738 C   0  0  0  0  0  0
  -26.0410  -29.3966   20.7188 C   0  0  0  0  0  0
  -27.2162  -28.5835   20.7184 C   0  0  0  0  0  0
  -26.0317  -26.8590   19.4988 C   0  0  0  0  0  0
  -24.8725  -27.6619   19.4908 C   0  0  0  0  0  0
  -23.6416  -29.8055   20.1591 C   0  0  0  0  0  0
  -25.4112  -36.3079   24.0325 C   0  0  1  0  0  0
  -20.5881  -28.3688   23.1287 C   0  0  2  0  0  0
  -20.6760  -26.9410   22.5418 C   0  0  0  0  0  0
  -19.5741  -26.6383   21.5218 C   0  0  0  0  0  0
  -18.1925  -26.7923   22.1634 C   0  0  0  0  0  0
  -19.1535  -28.8853   23.2884 C   0  0  0  0  0  0
  -18.9455  -30.1456   23.8902 C   0  0  0  0  0  0
  -17.6455  -30.6590   24.0569 C   0  0  0  0  0  0
  -25.9048  -34.9440   23.5092 C   0  0  0  0  0  0
  -16.5346  -29.9090   23.6328 C   0  0  0  0  0  0
  -16.7266  -28.6502   23.0357 C   0  0  0  0  0  0
  -26.4472  -31.6578   25.0718 C   0  0  0  0  0  0
  -25.3696  -31.3727   26.1439 C   0  0  0  0  0  0
  -27.0308  -30.2990   24.6196 C   0  0  0  0  0  0
  -27.6031  -32.4310   25.7489 C   0  0  0  0  0  0
  -27.5574  -37.1802   24.8462 C   0  0  0  0  0  0
  -21.4190  -29.3044   22.3677 N   0  0  0  0  0  0
  -26.4289  -37.3773   23.9400 N   0  0  0  0  0  0
  -24.6927  -31.0533   22.0952 N   0  0  0  0  0  0
  -23.4185  -28.8140   23.3032 O   0  0  0  0  0  0
  -28.3521  -26.4297   20.2133 O   0  0  0  0  0  0
  -26.5648  -34.8913   22.4679 O   0  0  0  0  0  0
  -23.5429  -32.1392   23.7278 O   0  0  0  0  0  0
  -30.9071  -20.1206   20.1666 C   0  0  0  0  0  0
  -31.5252  -17.7510   20.2461 C   0  0  0  0  0  0
  -29.5590  -19.8518   20.4829 C   0  0  0  0  0  0
  -29.2204  -18.4252   20.6499 C   0  0  0  0  0  0
  -30.1996  -17.3406   20.5292 C   0  0  0  0  0  0
  -31.8675  -19.1018   20.0617 C   0  0  0  0  0  0
  -28.8941  -22.5236   20.0218 C   0  0  0  0  0  0
  -28.2638  -23.7353   20.2842 C   0  0  0  0  0  0
  -28.6420  -21.1190   20.6292 C   0  0  0  0  0  0
  -27.7763  -18.0309   20.9376 C   0  0  0  0  0  0
  -28.4680  -25.1105   19.5213 C   0  0  0  0  0  0
  -27.5851  -21.0317   21.3169 N   0  0  0  0  0  0
  -29.8840  -15.8827   20.6824 N   0  0  0  0  0  0
  -33.5052  -19.5191   19.7116 Cl  0  0  0  0  0  0
  -31.4678  -12.5477   19.1777 H   0  0  0  0  0  0
  -30.3524  -11.4682   19.9619 H   0  0  0  0  0  0
  -29.7871  -11.7370   17.5171 H   0  0  0  0  0  0
  -29.6420  -13.4648   17.7303 H   0  0  0  0  0  0
  -27.8856  -11.2867   18.9065 H   0  0  0  0  0  0
  -27.3806  -12.5328   17.7975 H   0  0  0  0  0  0
  -27.6340  -14.2559   19.4664 H   0  0  0  0  0  0
  -28.7122  -12.1821   21.4370 H   0  0  0  0  0  0
  -28.4205  -13.8646   21.7906 H   0  0  0  0  0  0
  -25.2773   -9.5668   22.4744 H   0  0  0  0  0  0
  -24.0005   -7.4630   22.7475 H   0  0  0  0  0  0
  -21.0855   -8.8772   19.8945 H   0  0  0  0  0  0
  -22.3713  -10.9671   19.6159 H   0  0  0  0  0  0
  -21.2003   -7.6137   23.9700 H   0  0  0  0  0  0
  -21.1485   -6.0523   25.9070 H   0  0  0  0  0  0
  -22.0598   -2.7603   23.2849 H   0  0  0  0  0  0
  -22.4104  -11.9859   22.4821 H   0  0  0  0  0  0
  -21.1080  -13.1187   22.2644 H   0  0  0  0  0  0
  -24.6277  -15.8296   20.4701 H   0  0  0  0  0  0
  -26.2206  -15.6099   19.9573 H   0  0  0  0  0  0
  -26.7166  -32.5416   23.1072 H   0  0  0  0  0  0
  -24.9972  -33.9709   25.0336 H   0  0  0  0  0  0
  -22.7204  -31.2977   21.3950 H   0  0  0  0  0  0
  -23.3743  -35.9644   23.3319 H   0  0  0  0  0  0
  -24.3575  -36.8923   22.2056 H   0  0  0  0  0  0
  -23.7256  -37.6507   23.6664 H   0  0  0  0  0  0
  -26.0978  -31.5316   20.5998 H   0  0  0  0  0  0
  -26.8477  -30.8297   22.0019 H   0  0  0  0  0  0
  -28.1102  -28.9421   21.2091 H   0  0  0  0  0  0
  -25.9496  -25.8839   19.0452 H   0  0  0  0  0  0
  -23.9740  -27.2882   19.0186 H   0  0  0  0  0  0
  -23.7603  -30.5814   19.4025 H   0  0  0  0  0  0
  -22.7620  -29.2338   19.8587 H   0  0  0  0  0  0
  -25.1294  -36.1926   25.0820 H   0  0  0  0  0  0
  -20.9966  -28.3264   24.1414 H   0  0  0  0  0  0
  -20.5654  -26.2304   23.3625 H   0  0  0  0  0  0
  -21.6627  -26.7432   22.1222 H   0  0  0  0  0  0
  -19.6909  -25.6295   21.1256 H   0  0  0  0  0  0
  -19.6675  -27.3191   20.6747 H   0  0  0  0  0  0
  -17.4186  -26.6672   21.4045 H   0  0  0  0  0  0
  -18.0329  -26.0063   22.9029 H   0  0  0  0  0  0
  -19.7927  -30.7273   24.2281 H   0  0  0  0  0  0
  -17.5004  -31.6275   24.5169 H   0  0  0  0  0  0
  -15.5343  -30.2995   23.7647 H   0  0  0  0  0  0
  -15.8665  -28.0824   22.7070 H   0  0  0  0  0  0
  -24.5879  -30.7070   25.7759 H   0  0  0  0  0  0
  -24.8876  -32.2902   26.4829 H   0  0  0  0  0  0
  -25.8010  -30.8925   27.0235 H   0  0  0  0  0  0
  -26.2892  -29.6744   24.1202 H   0  0  0  0  0  0
  -27.3970  -29.7229   25.4707 H   0  0  0  0  0  0
  -27.8775  -30.4257   23.9445 H   0  0  0  0  0  0
  -27.2643  -33.3613   26.2059 H   0  0  0  0  0  0
  -28.3840  -32.6869   25.0313 H   0  0  0  0  0  0
  -28.0700  -31.8445   26.5414 H   0  0  0  0  0  0
  -28.2593  -38.0093   24.7480 H   0  0  0  0  0  0
  -28.1067  -36.2621   24.6315 H   0  0  0  0  0  0
  -27.2297  -37.1484   25.8869 H   0  0  0  0  0  0
  -20.9364  -29.8777   21.6898 H   0  0  0  0  0  0
  -26.0176  -38.2854   24.1383 H   0  0  0  0  0  0
  -31.2430  -21.1386   20.0379 H   0  0  0  0  0  0
  -32.3328  -17.0455   20.1586 H   0  0  0  0  0  0
  -29.6542  -22.5187   19.2546 H   0  0  0  0  0  0
  -27.5016  -23.7574   21.0509 H   0  0  0  0  0  0
  -27.0891  -18.5778   20.2918 H   0  0  0  0  0  0
  -27.5195  -18.2352   21.9774 H   0  0  0  0  0  0
  -27.5858  -16.9753   20.7561 H   0  0  0  0  0  0
  -27.8525  -25.0916   18.6242 H   0  0  0  0  0  0
  -29.4837  -25.0823   19.1285 H   0  0  0  0  0  0
  -27.4754  -20.0981   21.6960 H   0  0  0  0  0  0
  -28.9252  -15.6824   20.9197 H   0  0  0  0  0  0
  1 25  1  0  0  0
  1 30  2  0  0  0
  1 83  1  0  0  0
  2  3  1  0  0  0
  2 25  1  0  0  0
  2 85  1  0  0  0
  2 86  1  0  0  0
  3  4  1  0  0  0
  3 87  1  0  0  0
  3 88  1  0  0  0
  4  5  1  0  0  0
  4 89  1  0  0  0
  4 90  1  0  0  0
  5  6  1  0  0  0
  5 26  1  0  0  0
  5 91  1  0  0  0
  6 25  1  0  0  0
  6 92  1  0  0  0
  6 93  1  0  0  0
  7  8  2  0  0  0
  7 26  1  0  0  0
  7 29  1  0  0  0
  8  9  1  0  0  0
  8 22  1  0  0  0
  9 10  1  0  0  0
  9 27  2  0  0  0
 10 11  2  0  0  0
 10 15  1  0  0  0
 11 12  1  0  0  0
 11 94  1  0  0  0
 12 13  2  0  0  0
 12 95  1  0  0  0
 13 14  1  0  0  0
 13 31  1  0  0  0
 14 15  2  0  0  0
 14 96  1  0  0  0
 15 97  1  0  0  0
 16 17  2  0  0  0
 16 21  1  0  0  0
 16 31  1  0  0  0
 17 18  1  0  0  0
 17 98  1  0  0  0
 18 19  2  0  0  0
 18 99  1  0  0  0
 19 20  1  0  0  0
 19 24  1  0  0  0
 20 21  2  0  0  0
 20100  1  0  0  0
 21 23  1  0  0  0
 22 28  1  0  0  0
 22 32  2  0  0  0
 26 27  1  0  0  0
 28101  1  0  0  0
 28102  1  0  0  0
 29103  1  0  0  0
 29104  1  0  0  0
 33 34  1  0  0  0
 33 66  1  0  0  0
 33 70  2  0  0  0
 34 36  1  0  0  0
 34 59  1  0  0  0
 34105  1  0  0  0
 35 44  2  0  0  0
 35 45  1  0  0  0
 35 68  1  0  0  0
 36 56  1  0  0  0
 36106  1  0  0  0
 37 39  1  0  0  0
 37 47  1  0  0  0
 37 66  1  0  0  0
 37107  1  0  0  0
 38 43  2  0  0  0
 38 46  1  0  0  0
 38 47  1  0  0  0
 39 64  1  0  0  0
 39 67  2  0  0  0
 40 52  1  0  0  0
 40 53  2  0  0  0
 40 58  1  0  0  0
 41108  1  0  0  0
 41109  1  0  0  0
 41110  1  0  0  0
 41 48  1  0  0  0
 42 43  1  0  0  0
 42 66  1  0  0  0
 42111  1  0  0  0
 42112  1  0  0  0
 43 44  1  0  0  0
 44113  1  0  0  0
 45 46  2  0  0  0
 45114  1  0  0  0
 46115  1  0  0  0
 47116  1  0  0  0
 47117  1  0  0  0
 48 56  1  0  0  0
 48 65  1  0  0  0
 48118  1  0  0  0
 49 50  1  0  0  0
 49 53  1  0  0  0
 49 64  1  0  0  0
 49119  1  0  0  0
 50 51  1  0  0  0
 50120  1  0  0  0
 50121  1  0  0  0
 51 52  1  0  0  0
 51122  1  0  0  0
 51123  1  0  0  0
 52124  1  0  0  0
 52125  1  0  0  0
 53 54  1  0  0  0
 54 55  2  0  0  0
 54126  1  0  0  0
 55 57  1  0  0  0
 55127  1  0  0  0
 56 69  2  0  0  0
 57 58  2  0  0  0
 57128  1  0  0  0
 58129  1  0  0  0
 59 60  1  0  0  0
 59 61  1  0  0  0
 59 62  1  0  0  0
 60130  1  0  0  0
 60131  1  0  0  0
 60132  1  0  0  0
 61133  1  0  0  0
 61134  1  0  0  0
 61135  1  0  0  0
 62136  1  0  0  0
 62137  1  0  0  0
 62138  1  0  0  0
 63 65  1  0  0  0
 63139  1  0  0  0
 63140  1  0  0  0
 63141  1  0  0  0
 64142  1  0  0  0
 65143  1  0  0  0
 68 81  1  0  0  0
 71 73  2  0  0  0
 71 76  1  0  0  0
 71144  1  0  0  0
 72 75  1  0  0  0
 72 76  2  0  0  0
 72145  1  0  0  0
 73 74  1  0  0  0
 73 79  1  0  0  0
 74 75  2  0  0  0
 74 80  1  0  0  0
 75 83  1  0  0  0
 76 84  1  0  0  0
 77 78  2  0  0  0
 77 79  1  0  0  0
 77146  1  0  0  0
 78 81  1  0  0  0
 78147  1  0  0  0
 79 82  2  0  0  0
 80148  1  0  0  0
 80149  1  0  0  0
 80150  1  0  0  0
 81151  1  0  0  0
 81152  1  0  0  0
 82153  1  0  0  0
 83154  1  0  0  0
M  ISO  4   1 100  68 101  81 101  83 100
M  END
> <chiral flag>
0

> <version>
0

> <s_m_source_file>
/data/baiqing/PycharmProjects/Reinvent-master-3.2/result/LINK_invent/BTK/process_docking_weight1_custom_product_contain_oxygen_bond_distance_aromatic_linkinvent_7_9_3/rearranged_h_0033.sdf

> <i_m_source_file_index>
18

> <r_mmod_Potential_Energy-OPLS-2005>
125.49235534668

> <r_mmod_Stretch_Energy-OPLS-2005>
130.612716674805

> <r_mmod_Bend_Energy-OPLS-2005>
168.513320922852

> <r_mmod_Torsional_Energy-OPLS-2005>
221.319076538086

> <r_mmod_Improper_Torsional_Energy-OPLS-2005>
5.84913444519043

> <r_mmod_Van_der_Waal_Energy-OPLS-2005>
151.317626953125

> <r_mmod_Electrostatic_Energy-OPLS-2005>
-410.587493896484

> <r_mmod_Solvation_Energy-OPLS-2005>
-217.492752075195

> <b_mmod_Minimization_Converged-OPLS-2005>
0

> <r_mmod_RMS_Derivative-OPLS-2005>
1.68306994438171

$$$$
18
                    3D
 Structure written by MMmdl.
186196  0  0  1  0            999 V2000
  -30.7686  -14.5060   20.6262 C   0  0  0  0  0  0
  -30.4047  -12.3621   19.4495 C   0  0  0  0  0  0
  -29.4698  -12.5357   18.2383 C   0  0  0  0  0  0
  -28.0063  -12.3636   18.6655 C   0  0  0  0  0  0
  -27.6500  -13.2289   19.8972 C   0  0  2  0  0  0
  -28.6955  -13.0569   21.0253 C   0  0  0  0  0  0
  -25.2509  -13.8200   20.5816 C   0  0  0  0  0  0
  -24.1775  -13.0416   20.9240 C   0  0  0  0  0  0
  -24.6345  -11.6907   20.8780 C   0  0  0  0  0  0
  -23.8981  -10.4305   21.0440 C   0  0  0  0  0  0
  -24.3553   -9.4229   21.9203 C   0  0  0  0  0  0
  -23.6269   -8.2219   22.0727 C   0  0  0  0  0  0
  -22.4236   -8.0244   21.3551 C   0  0  0  0  0  0
  -21.9876   -9.0172   20.4628 C   0  0  0  0  0  0
  -22.7162  -10.2098   20.3084 C   0  0  0  0  0  0
  -21.6868   -6.0733   22.5275 C   0  0  0  0  0  0
  -21.4008   -6.5656   23.8193 C   0  0  0  0  0  0
  -21.3665   -5.6806   24.9166 C   0  0  0  0  0  0
  -21.6055   -4.3059   24.7243 C   0  0  0  0  0  0
  -21.8803   -3.8157   23.4359 C   0  0  0  0  0  0
  -21.9187   -4.6983   22.3437 C   0  0  0  0  0  0
  -22.7794  -13.5185   21.1887 C   0  0  0  0  0  0
  -22.1669   -4.2191   21.1006 F   0  0  0  0  0  0
  -21.5642   -3.4537   25.7768 F   0  0  0  0  0  0
  -30.0289  -13.3618   20.4701 N   0  0  0  0  0  0
  -26.2956  -12.9413   20.3564 N   0  0  0  0  0  0
  -25.9300  -11.6529   20.5876 N   0  0  0  0  0  0
  -22.0510  -12.8095   22.0459 N   0  0  0  0  0  0
  -25.4250  -15.1892   20.4336 N   0  0  0  0  0  0
  -31.8447  -14.6496   20.0391 O   0  0  0  0  0  0
  -21.6623   -6.8806   21.4207 O   0  0  0  0  0  0
  -22.3451  -14.5497   20.6786 O   0  0  0  0  0  0
  -24.6139  -31.8647   23.2028 C   0  0  0  0  0  0
  -25.9023  -32.4819   23.8311 C   0  0  1  0  0  0
  -27.2596  -27.3924   20.1224 C   0  0  0  0  0  0
  -25.5874  -33.8612   24.2239 N   0  0  0  0  0  0
  -23.4027  -30.4846   21.5466 C   0  0  2  0  0  0
  -24.8610  -28.9359   20.1264 C   0  0  0  0  0  0
  -22.7365  -29.4650   22.4968 C   0  0  0  0  0  0
  -18.0252  -28.1375   22.8484 C   0  0  0  0  0  0
  -24.1490  -36.7287   23.2642 C   0  0  0  0  0  0
  -25.9349  -30.8152   21.3678 C   0  0  0  0  0  0
  -26.0228  -29.4413   20.7261 C   0  0  0  0  0  0
  -27.2186  -28.6797   20.7239 C   0  0  0  0  0  0
  -26.0762  -26.9076   19.5204 C   0  0  0  0  0  0
  -24.8875  -27.6656   19.5187 C   0  0  0  0  0  0
  -23.6207  -29.8059   20.1680 C   0  0  0  0  0  0
  -25.4124  -36.3094   24.0321 C   0  0  1  0  0  0
  -20.5831  -28.3641   23.1331 C   0  0  2  0  0  0
  -20.6755  -26.9375   22.5448 C   0  0  0  0  0  0
  -19.5771  -26.6374   21.5216 C   0  0  0  0  0  0
  -18.1911  -26.7920   22.1585 C   0  0  0  0  0  0
  -19.1505  -28.8820   23.2914 C   0  0  0  0  0  0
  -18.9466  -30.1419   23.8920 C   0  0  0  0  0  0
  -17.6478  -30.6590   24.0570 C   0  0  0  0  0  0
  -25.9041  -34.9469   23.5087 C   0  0  0  0  0  0
  -16.5359  -29.9100   23.6348 C   0  0  0  0  0  0
  -16.7238  -28.6525   23.0350 C   0  0  0  0  0  0
  -26.4463  -31.6621   25.0645 C   0  0  0  0  0  0
  -25.3670  -31.3791   26.1342 C   0  0  0  0  0  0
  -27.0313  -30.3044   24.6081 C   0  0  0  0  0  0
  -27.5972  -32.4375   25.7441 C   0  0  0  0  0  0
  -27.5586  -37.1789   24.8446 C   0  0  0  0  0  0
  -21.4088  -29.3014   22.3717 N   0  0  0  0  0  0
  -26.4300  -37.3796   23.9402 N   0  0  0  0  0  0
  -24.6681  -31.0706   22.0973 N   0  0  0  0  0  0
  -23.4124  -28.8147   23.2996 O   0  0  0  0  0  0
  -28.4383  -26.6734   19.9643 O   0  0  0  0  0  0
  -26.5646  -34.8937   22.4649 O   0  0  0  0  0  0
  -23.5326  -32.1425   23.7432 O   0  0  0  0  0  0
  -29.9206  -18.6033   20.9533 C   0  0  0  0  0  0
  -29.6745  -20.0039   20.8385 C   0  0  0  0  0  0
  -30.9450  -18.0881   21.7718 C   0  0  0  0  0  0
  -30.4974  -20.9669   21.5213 C   0  0  0  0  0  0
  -31.6509  -20.4445   22.1985 C   0  0  0  0  0  0
  -31.8153  -19.0354   22.3827 C   0  0  0  0  0  0
  -30.9099  -24.4576   20.3406 C   0  0  0  0  0  0
  -31.8741  -24.4204   19.3941 C   0  0  0  0  0  0
  -30.3988  -25.7272   21.0015 C   0  0  0  0  0  0
  -28.9649  -20.9610   15.6976 C   0  0  0  0  0  0
  -27.5697  -20.7022   16.2728 C   0  0  0  0  0  0
  -29.9616  -20.0621   16.4378 C   0  0  0  0  0  0
  -27.5247  -20.9224   17.7941 C   0  0  0  0  0  0
  -29.9370  -20.3451   17.9532 C   0  0  0  0  0  0
  -28.5861  -24.1920   20.5581 C   0  0  0  0  0  0
  -28.8649  -25.6823   20.9391 C   0  0  2  0  0  0
  -32.7554  -21.3540   22.7488 C   0  0  0  0  0  0
  -32.1932  -23.2940   18.4353 C   0  0  0  0  0  0
  -31.1982  -16.5673   22.0113 C   0  0  0  0  0  0
  -28.4483  -20.3937   20.0015 C   0  0  0  0  0  0
  -30.0304  -22.4588   21.7503 C   0  0  0  0  0  0
  -30.3234  -15.4835   21.4507 N   0  0  0  0  0  0
  -29.8720  -23.4094   20.5729 N   0  3  2  0  0  0
  -28.5738  -20.1602   18.5312 N   0  3  0  0  0  0
  -33.0818  -18.4625   23.4174 Cl  0  0  0  0  0  0
  -31.4396  -12.4491   19.1187 H   0  0  0  0  0  0
  -30.3176  -11.3567   19.8727 H   0  0  0  0  0  0
  -29.7182  -11.8089   17.4718 H   0  0  0  0  0  0
  -29.6002  -13.5259   17.7944 H   0  0  0  0  0  0
  -27.8415  -11.3083   18.8916 H   0  0  0  0  0  0
  -27.3407  -12.6017   17.8397 H   0  0  0  0  0  0
  -27.6794  -14.2693   19.5753 H   0  0  0  0  0  0
  -28.6710  -12.0389   21.4226 H   0  0  0  0  0  0
  -28.4432  -13.7103   21.8599 H   0  0  0  0  0  0
  -25.2707   -9.5736   22.4760 H   0  0  0  0  0  0
  -24.0053   -7.4615   22.7422 H   0  0  0  0  0  0
  -21.0856   -8.8614   19.8897 H   0  0  0  0  0  0
  -22.3583  -10.9594   19.6191 H   0  0  0  0  0  0
  -21.1967   -7.6146   23.9689 H   0  0  0  0  0  0
  -21.1510   -6.0579   25.9058 H   0  0  0  0  0  0
  -22.0579   -2.7620   23.2868 H   0  0  0  0  0  0
  -22.4156  -11.9735   22.4777 H   0  0  0  0  0  0
  -21.1135  -13.1038   22.2714 H   0  0  0  0  0  0
  -24.6739  -15.8601   20.5639 H   0  0  0  0  0  0
  -26.2936  -15.6119   20.1325 H   0  0  0  0  0  0
  -26.7055  -32.5538   23.1035 H   0  0  0  0  0  0
  -24.9934  -33.9763   25.0327 H   0  0  0  0  0  0
  -22.6916  -31.3009   21.3997 H   0  0  0  0  0  0
  -23.3782  -35.9595   23.3305 H   0  0  0  0  0  0
  -24.3563  -36.8910   22.2055 H   0  0  0  0  0  0
  -23.7221  -37.6464   23.6685 H   0  0  0  0  0  0
  -26.0478  -31.5817   20.5985 H   0  0  0  0  0  0
  -26.8197  -30.8760   21.9906 H   0  0  0  0  0  0
  -28.1137  -29.0901   21.1708 H   0  0  0  0  0  0
  -26.0779  -25.9443   19.0321 H   0  0  0  0  0  0
  -23.9984  -27.2710   19.0511 H   0  0  0  0  0  0
  -23.7253  -30.5778   19.4060 H   0  0  0  0  0  0
  -22.7441  -29.2298   19.8696 H   0  0  0  0  0  0
  -25.1330  -36.1934   25.0823 H   0  0  0  0  0  0
  -20.9928  -28.3232   24.1452 H   0  0  0  0  0  0
  -20.5627  -26.2227   23.3628 H   0  0  0  0  0  0
  -21.6624  -26.7395   22.1261 H   0  0  0  0  0  0
  -19.6929  -25.6290   21.1230 H   0  0  0  0  0  0
  -19.6775  -27.3204   20.6768 H   0  0  0  0  0  0
  -17.4198  -26.6696   21.3959 H   0  0  0  0  0  0
  -18.0289  -26.0054   22.8950 H   0  0  0  0  0  0
  -19.7956  -30.7221   24.2293 H   0  0  0  0  0  0
  -17.5059  -31.6275   24.5150 H   0  0  0  0  0  0
  -15.5380  -30.3029   23.7689 H   0  0  0  0  0  0
  -15.8613  -28.0869   22.7066 H   0  0  0  0  0  0
  -24.5868  -30.7127   25.7671 H   0  0  0  0  0  0
  -24.8845  -32.2996   26.4650 H   0  0  0  0  0  0
  -25.7952  -30.9047   27.0178 H   0  0  0  0  0  0
  -26.2895  -29.6774   24.1126 H   0  0  0  0  0  0
  -27.4048  -29.7326   25.4588 H   0  0  0  0  0  0
  -27.8730  -30.4333   23.9264 H   0  0  0  0  0  0
  -27.2519  -33.3663   26.2009 H   0  0  0  0  0  0
  -28.3807  -32.6977   25.0302 H   0  0  0  0  0  0
  -28.0615  -31.8513   26.5389 H   0  0  0  0  0  0
  -28.2587  -38.0107   24.7512 H   0  0  0  0  0  0
  -28.1110  -36.2623   24.6266 H   0  0  0  0  0  0
  -27.2279  -37.1395   25.8845 H   0  0  0  0  0  0
  -20.9203  -29.8730   21.6961 H   0  0  0  0  0  0
  -26.0182  -38.2859   24.1470 H   0  0  0  0  0  0
  -29.2704  -17.9117   20.4402 H   0  0  0  0  0  0
  -32.4170  -25.3351   19.1945 H   0  0  0  0  0  0
  -30.7851  -26.6191   20.5058 H   0  0  0  0  0  0
  -30.7453  -25.7549   22.0354 H   0  0  0  0  0  0
  -29.2461  -22.0122   15.7971 H   0  0  0  0  0  0
  -28.9611  -20.7357   14.6310 H   0  0  0  0  0  0
  -27.2669  -19.6759   16.0574 H   0  0  0  0  0  0
  -26.8383  -21.3521   15.7858 H   0  0  0  0  0  0
  -30.9641  -20.2062   16.0342 H   0  0  0  0  0  0
  -29.7059  -19.0119   16.2686 H   0  0  0  0  0  0
  -26.5515  -20.6095   18.1782 H   0  0  0  0  0  0
  -27.6136  -21.9928   17.9953 H   0  0  0  0  0  0
  -30.2598  -21.3561   18.1583 H   0  0  0  0  0  0
  -30.6739  -19.6997   18.4340 H   0  0  0  0  0  0
  -28.2025  -24.1539   19.5381 H   0  0  0  0  0  0
  -27.8072  -23.7641   21.1863 H   0  0  0  0  0  0
  -28.4564  -25.9266   21.9217 H   0  0  0  0  0  0
  -32.7540  -21.3991   23.8405 H   0  0  0  0  0  0
  -32.6993  -22.3688   22.3584 H   0  0  0  0  0  0
  -33.7374  -20.9742   22.4513 H   0  0  0  0  0  0
  -32.9832  -23.6107   17.7498 H   0  0  0  0  0  0
  -31.3352  -23.0956   17.7988 H   0  0  0  0  0  0
  -32.5173  -22.3786   18.9344 H   0  0  0  0  0  0
  -31.2184  -16.4134   23.0914 H   0  0  0  0  0  0
  -32.2242  -16.4050   21.6771 H   0  0  0  0  0  0
  -28.1824  -21.4360   20.1582 H   0  0  0  0  0  0
  -27.5943  -19.8283   20.3773 H   0  0  0  0  0  0
  -30.5727  -22.9444   22.5650 H   0  0  0  0  0  0
  -29.0451  -22.3141   22.1962 H   0  0  0  0  0  0
  -29.4550  -15.2978   21.9369 H   0  0  0  0  0  0
  -29.8496  -22.8110   19.7693 H   0  0  0  0  0  0
  -28.3653  -19.1820   18.3928 H   0  0  0  0  0  0
  1 25  1  0  0  0
  1 30  2  0  0  0
  1 92  1  0  0  0
  2  3  1  0  0  0
  2 25  1  0  0  0
  2 96  1  0  0  0
  2 97  1  0  0  0
  3  4  1  0  0  0
  3 98  1  0  0  0
  3 99  1  0  0  0
  4  5  1  0  0  0
  4100  1  0  0  0
  4101  1  0  0  0
  5  6  1  0  0  0
  5 26  1  0  0  0
  5102  1  0  0  0
  6 25  1  0  0  0
  6103  1  0  0  0
  6104  1  0  0  0
  7  8  2  0  0  0
  7 26  1  0  0  0
  7 29  1  0  0  0
  8  9  1  0  0  0
  8 22  1  0  0  0
  9 10  1  0  0  0
  9 27  2  0  0  0
 10 11  2  0  0  0
 10 15  1  0  0  0
 11 12  1  0  0  0
 11105  1  0  0  0
 12 13  2  0  0  0
 12106  1  0  0  0
 13 14  1  0  0  0
 13 31  1  0  0  0
 14 15  2  0  0  0
 14107  1  0  0  0
 15108  1  0  0  0
 16 17  2  0  0  0
 16 21  1  0  0  0
 16 31  1  0  0  0
 17 18  1  0  0  0
 17109  1  0  0  0
 18 19  2  0  0  0
 18110  1  0  0  0
 19 20  1  0  0  0
 19 24  1  0  0  0
 20 21  2  0  0  0
 20111  1  0  0  0
 21 23  1  0  0  0
 22 28  1  0  0  0
 22 32  2  0  0  0
 26 27  1  0  0  0
 28112  1  0  0  0
 28113  1  0  0  0
 29114  1  0  0  0
 29115  1  0  0  0
 33 34  1  0  0  0
 33 66  1  0  0  0
 33 70  2  0  0  0
 34 36  1  0  0  0
 34 59  1  0  0  0
 34116  1  0  0  0
 35 44  2  0  0  0
 35 45  1  0  0  0
 35 68  1  0  0  0
 36 56  1  0  0  0
 36117  1  0  0  0
 37 39  1  0  0  0
 37 47  1  0  0  0
 37 66  1  0  0  0
 37118  1  0  0  0
 38 43  2  0  0  0
 38 46  1  0  0  0
 38 47  1  0  0  0
 39 64  1  0  0  0
 39 67  2  0  0  0
 40 52  1  0  0  0
 40 53  2  0  0  0
 40 58  1  0  0  0
 41119  1  0  0  0
 41120  1  0  0  0
 41121  1  0  0  0
 41 48  1  0  0  0
 42 43  1  0  0  0
 42 66  1  0  0  0
 42122  1  0  0  0
 42123  1  0  0  0
 43 44  1  0  0  0
 44124  1  0  0  0
 45 46  2  0  0  0
 45125  1  0  0  0
 46126  1  0  0  0
 47127  1  0  0  0
 47128  1  0  0  0
 48 56  1  0  0  0
 48 65  1  0  0  0
 48129  1  0  0  0
 49 50  1  0  0  0
 49 53  1  0  0  0
 49 64  1  0  0  0
 49130  1  0  0  0
 50 51  1  0  0  0
 50131  1  0  0  0
 50132  1  0  0  0
 51 52  1  0  0  0
 51133  1  0  0  0
 51134  1  0  0  0
 52135  1  0  0  0
 52136  1  0  0  0
 53 54  1  0  0  0
 54 55  2  0  0  0
 54137  1  0  0  0
 55 57  1  0  0  0
 55138  1  0  0  0
 56 69  2  0  0  0
 57 58  2  0  0  0
 57139  1  0  0  0
 58140  1  0  0  0
 59 60  1  0  0  0
 59 61  1  0  0  0
 59 62  1  0  0  0
 60141  1  0  0  0
 60142  1  0  0  0
 60143  1  0  0  0
 61144  1  0  0  0
 61145  1  0  0  0
 61146  1  0  0  0
 62147  1  0  0  0
 62148  1  0  0  0
 62149  1  0  0  0
 63 65  1  0  0  0
 63150  1  0  0  0
 63151  1  0  0  0
 63152  1  0  0  0
 64153  1  0  0  0
 65154  1  0  0  0
 68 86  1  0  0  0
 71 72  2  0  0  0
 71 73  1  0  0  0
 71155  1  0  0  0
 72 74  1  0  0  0
 72 90  1  0  0  0
 73 76  2  0  0  0
 73 89  1  0  0  0
 74 75  2  0  0  0
 74 91  1  0  0  0
 75 76  1  0  0  0
 75 87  1  0  0  0
 76 95  1  0  0  0
 77 78  2  0  0  0
 77 79  1  0  0  0
 77 93  1  0  0  0
 78 88  1  0  0  0
 78156  1  0  0  0
 79 86  1  0  0  0
 79157  1  0  0  0
 79158  1  0  0  0
 80 81  1  0  0  0
 80 82  1  0  0  0
 80159  1  0  0  0
 80160  1  0  0  0
 81 83  1  0  0  0
 81161  1  0  0  0
 81162  1  0  0  0
 82 84  1  0  0  0
 82163  1  0  0  0
 82164  1  0  0  0
 83 94  1  0  0  0
 83165  1  0  0  0
 83166  1  0  0  0
 84 94  1  0  0  0
 84167  1  0  0  0
 84168  1  0  0  0
 85 86  1  0  0  0
 85 93  1  0  0  0
 85169  1  0  0  0
 85170  1  0  0  0
 86171  1  0  0  0
 87172  1  0  0  0
 87173  1  0  0  0
 87174  1  0  0  0
 88175  1  0  0  0
 88176  1  0  0  0
 88177  1  0  0  0
 89 92  1  0  0  0
 89178  1  0  0  0
 89179  1  0  0  0
 90180  1  0  0  0
 90181  1  0  0  0
 90 94  1  0  0  0
 91182  1  0  0  0
 91183  1  0  0  0
 91 93  1  0  0  0
 92184  1  0  0  0
 93185  1  0  0  0
 94186  1  0  0  0
M  CHG  2  93   1  94   1
M  ISO  4   1 100  68 101  86 101  92 100
M  END
> <chiral flag>
0

> <version>
0

> <s_m_source_file>
/data/baiqing/PycharmProjects/Reinvent-master-3.2/result/LINK_invent/BTK/process_docking_weight1_custom_product_contain_oxygen_bond_distance_aromatic_linkinvent_7_9_3/rearranged_h_0033.sdf

> <i_m_source_file_index>
19

> <r_mmod_Potential_Energy-OPLS-2005>
-77.2411499023438

> <r_mmod_Stretch_Energy-OPLS-2005>
72.4832763671875

> <r_mmod_Bend_Energy-OPLS-2005>
186.27294921875

> <r_mmod_Torsional_Energy-OPLS-2005>
326.266418457031

> <r_mmod_Improper_Torsional_Energy-OPLS-2005>
5.99100494384766

> <r_mmod_Van_der_Waal_Energy-OPLS-2005>
142.883163452148

> <r_mmod_Electrostatic_Energy-OPLS-2005>
100.621559143066

> <r_mmod_Solvation_Energy-OPLS-2005>
-930.414855957031

> <b_mmod_Minimization_Converged-OPLS-2005>
0

> <r_mmod_RMS_Derivative-OPLS-2005>
9.26551914215088

$$$$
19
                    3D
 Structure written by MMmdl.
175184  0  0  1  0            999 V2000
  -29.1908  -15.8461   20.7728 C   0  0  0  0  0  0
  -30.2157  -13.4701   19.6731 C   0  0  0  0  0  0
  -29.5161  -12.7894   18.4373 C   0  0  0  0  0  0
  -28.1246  -12.2512   18.8097 C   0  0  0  0  0  0
  -27.4754  -13.2228   19.8100 C   0  0  2  0  0  0
  -28.3259  -13.4725   21.0395 C   0  0  0  0  0  0
  -25.1781  -13.8075   20.5467 C   0  0  0  0  0  0
  -24.1225  -13.0296   20.9370 C   0  0  0  0  0  0
  -24.5872  -11.6829   20.8869 C   0  0  0  0  0  0
  -23.8725  -10.4224   21.0560 C   0  0  0  0  0  0
  -24.3433   -9.4205   21.9275 C   0  0  0  0  0  0
  -23.6199   -8.2188   22.0803 C   0  0  0  0  0  0
  -22.4193   -8.0210   21.3572 C   0  0  0  0  0  0
  -21.9747   -9.0151   20.4689 C   0  0  0  0  0  0
  -22.6989  -10.2070   20.3145 C   0  0  0  0  0  0
  -21.6826   -6.0689   22.5288 C   0  0  0  0  0  0
  -21.3976   -6.5619   23.8213 C   0  0  0  0  0  0
  -21.3626   -5.6787   24.9182 C   0  0  0  0  0  0
  -21.6042   -4.3051   24.7242 C   0  0  0  0  0  0
  -21.8838   -3.8127   23.4370 C   0  0  0  0  0  0
  -21.9199   -4.6927   22.3423 C   0  0  0  0  0  0
  -22.7390  -13.5265   21.1999 C   0  0  0  0  0  0
  -22.1686   -4.2125   21.1000 F   0  0  0  0  0  0
  -21.5618   -3.4545   25.7757 F   0  0  0  0  0  0
  -29.2582  -14.3983   20.4974 N   0  0  0  0  0  0
  -26.1741  -12.9022   20.2539 N   0  0  0  0  0  0
  -25.8644  -11.6273   20.5469 N   0  0  0  0  0  0
  -21.9981  -12.8290   22.0574 N   0  0  0  0  0  0
  -25.3517  -15.1775   20.3809 N   0  0  0  0  0  0
  -30.4346  -16.1089   20.6553 O   0  0  0  0  0  0
  -21.6614   -6.8784   21.4234 O   0  0  0  0  0  0
  -22.3245  -14.5576   20.6832 O   0  0  0  0  0  0
  -24.6463  -31.9481   23.2381 C   0  0  0  0  0  0
  -25.9510  -32.5040   23.8656 C   0  0  1  0  0  0
  -26.1374  -27.2005   20.2495 C   0  0  0  0  0  0
  -25.6490  -33.8828   24.2644 N   0  0  0  0  0  0
  -23.4059  -30.5807   21.6492 C   0  0  2  0  0  0
  -24.8117  -29.3393   19.8088 C   0  0  0  0  0  0
  -23.0064  -29.5309   22.7542 C   0  0  0  0  0  0
  -18.7989  -27.5007   22.3563 C   0  0  0  0  0  0
  -24.1540  -36.7294   23.2585 C   0  0  0  0  0  0
  -25.9563  -30.7864   21.4730 C   0  0  0  0  0  0
  -25.8723  -29.4971   20.6965 C   0  0  0  0  0  0
  -26.7002  -28.3744   20.8521 C   0  0  0  0  0  0
  -25.9293  -27.3569   18.9172 C   0  0  0  0  0  0
  -24.9515  -28.3656   18.7785 C   0  0  0  0  0  0
  -23.5545  -30.1137   20.1357 C   0  0  0  0  0  0
  -25.4173  -36.3175   24.0304 C   0  0  1  0  0  0
  -21.3473  -27.7999   23.5870 C   0  0  2  0  0  0
  -22.5247  -26.3021   22.8934 C   0  0  0  0  0  0
  -21.7837  -25.1572   20.9644 C   0  0  0  0  0  0
  -19.3471  -26.2581   21.1398 C   0  0  0  0  0  0
  -19.7131  -28.1906   23.3030 C   0  0  0  0  0  0
  -19.2303  -29.4431   23.9389 C   0  0  0  0  0  0
  -17.9327  -30.0104   23.8585 C   0  0  0  0  0  0
  -25.9185  -34.9579   23.5173 C   0  0  0  0  0  0
  -16.9857  -29.2573   23.1575 C   0  0  0  0  0  0
  -17.4190  -28.0753   22.4383 C   0  0  0  0  0  0
  -26.4592  -31.6642   25.1020 C   0  0  0  0  0  0
  -25.3687  -31.3794   26.1593 C   0  0  0  0  0  0
  -27.0415  -30.2982   24.6739 C   0  0  0  0  0  0
  -27.6185  -32.4272   25.7885 C   0  0  0  0  0  0
  -27.5630  -37.1850   24.8457 C   0  0  0  0  0  0
  -21.7582  -29.1815   23.0431 N   0  0  0  0  0  0
  -26.4350  -37.3867   23.9390 N   0  0  0  0  0  0
  -24.6793  -31.1872   22.1160 N   0  0  0  0  0  0
  -23.8783  -28.9501   23.3834 O   0  0  0  0  0  0
  -24.7852  -26.8130   20.6774 O   0  0  0  0  0  0
  -26.5470  -34.8951   22.4570 O   0  0  0  0  0  0
  -23.5751  -32.2302   23.7888 O   0  0  0  0  0  0
  -26.0328  -22.4419   21.9358 C   0  0  0  0  0  0
  -26.3888  -21.0906   21.6728 C   0  0  0  0  0  0
  -24.7817  -23.0021   22.3388 C   0  0  0  0  0  0
  -25.5565  -19.9544   21.7975 C   0  0  0  0  0  0
  -24.0600  -20.7460   22.1438 C   0  0  0  0  0  0
  -23.4916  -22.3531   22.4242 C   0  0  0  0  0  0
  -20.6137  -25.4000   18.7601 C   0  0  0  0  0  0
  -21.9741  -26.5892   18.8577 C   0  0  0  0  0  0
  -19.8323  -24.1412   19.8301 C   0  0  0  0  0  0
  -21.3615  -27.2319   21.2790 C   0  0  0  0  0  0
  -23.0165  -27.0703   20.1974 C   0  0  3  0  0  0
  -19.7792  -23.9366   21.6733 C   0  0  2  0  0  0
  -24.8984  -24.4157   22.8064 C   0  0  0  0  0  0
  -22.8986  -19.7671   22.2117 C   0  0  0  0  0  0
  -18.4089  -23.4429   22.2142 C   0  0  0  0  0  0
  -26.6198  -18.1872   21.7601 C   0  0  0  0  0  0
  -21.9044  -23.5622   23.0627 C   0  0  0  0  0  0
  -27.8251  -16.8254   21.0024 N   0  0  0  0  0  0
  -20.5949  -25.0763   22.7305 N   0  3  2  0  0  0
  -31.0410  -14.0739   19.2955 H   0  0  0  0  0  0
  -30.6822  -12.7271   20.3189 H   0  0  0  0  0  0
  -30.1434  -12.0068   18.0153 H   0  0  0  0  0  0
  -29.3913  -13.5398   17.6540 H   0  0  0  0  0  0
  -28.2451  -11.2759   19.2805 H   0  0  0  0  0  0
  -27.5042  -12.1077   17.9268 H   0  0  0  0  0  0
  -27.3458  -14.1382   19.2250 H   0  0  0  0  0  0
  -28.7649  -12.5809   21.4918 H   0  0  0  0  0  0
  -27.7544  -13.9840   21.8189 H   0  0  0  0  0  0
  -25.2559   -9.5766   22.4868 H   0  0  0  0  0  0
  -23.9948   -7.4598   22.7528 H   0  0  0  0  0  0
  -21.0670   -8.8629   19.9014 H   0  0  0  0  0  0
  -22.3397  -10.9624   19.6294 H   0  0  0  0  0  0
  -21.1952   -7.6131   23.9696 H   0  0  0  0  0  0
  -21.1409   -6.0523   25.9071 H   0  0  0  0  0  0
  -22.0638   -2.7599   23.2888 H   0  0  0  0  0  0
  -22.3498  -11.9950   22.4986 H   0  0  0  0  0  0
  -21.0650  -13.1460   22.2753 H   0  0  0  0  0  0
  -24.4712  -15.6797   20.4370 H   0  0  0  0  0  0
  -25.8447  -15.4467   19.5385 H   0  0  0  0  0  0
  -26.7558  -32.5446   23.1333 H   0  0  0  0  0  0
  -25.0979  -34.0010   25.1030 H   0  0  0  0  0  0
  -22.6250  -31.3398   21.6478 H   0  0  0  0  0  0
  -23.3846  -35.9585   23.3250 H   0  0  0  0  0  0
  -24.3631  -36.8909   22.2002 H   0  0  0  0  0  0
  -23.7229  -37.6491   23.6577 H   0  0  0  0  0  0
  -26.2757  -31.5796   20.7986 H   0  0  0  0  0  0
  -26.7744  -30.6515   22.1663 H   0  0  0  0  0  0
  -27.4976  -28.3365   21.5846 H   0  0  0  0  0  0
  -25.9003  -26.5058   18.2556 H   0  0  0  0  0  0
  -24.2302  -28.2959   17.9703 H   0  0  0  0  0  0
  -23.6287  -31.0169   19.5269 H   0  0  0  0  0  0
  -22.6569  -29.6166   19.7836 H   0  0  0  0  0  0
  -25.1324  -36.2061   25.0798 H   0  0  0  0  0  0
  -21.4697  -27.7953   24.6710 H   0  0  0  0  0  0
  -22.8199  -25.7013   23.7556 H   0  0  0  0  0  0
  -23.4729  -26.7798   22.7075 H   0  0  0  0  0  0
  -21.9321  -24.0830   20.9343 H   0  0  0  0  0  0
  -22.3500  -24.7687   20.1338 H   0  0  0  0  0  0
  -18.4367  -25.6707   21.0261 H   0  0  0  0  0  0
  -19.1637  -26.7972   20.2219 H   0  0  0  0  0  0
  -19.9280  -29.9742   24.5708 H   0  0  0  0  0  0
  -17.6718  -30.9358   24.3519 H   0  0  0  0  0  0
  -15.9659  -29.6036   23.0818 H   0  0  0  0  0  0
  -16.6752  -27.6056   21.8082 H   0  0  0  0  0  0
  -24.5717  -30.7457   25.7662 H   0  0  0  0  0  0
  -24.9065  -32.2987   26.5251 H   0  0  0  0  0  0
  -25.7785  -30.8585   27.0252 H   0  0  0  0  0  0
  -26.3074  -29.6731   24.1684 H   0  0  0  0  0  0
  -27.3746  -29.7296   25.5426 H   0  0  0  0  0  0
  -27.9142  -30.4040   24.0289 H   0  0  0  0  0  0
  -27.2868  -33.3564   26.2524 H   0  0  0  0  0  0
  -28.4052  -32.6843   25.0787 H   0  0  0  0  0  0
  -28.0802  -31.8330   26.5790 H   0  0  0  0  0  0
  -28.2609  -38.0189   24.7603 H   0  0  0  0  0  0
  -28.1179  -36.2736   24.6198 H   0  0  0  0  0  0
  -27.2318  -37.1373   25.8845 H   0  0  0  0  0  0
  -21.0245  -29.6553   22.5326 H   0  0  0  0  0  0
  -26.0227  -38.2942   24.1431 H   0  0  0  0  0  0
  -26.8526  -23.1456   21.8993 H   0  0  0  0  0  0
  -27.4217  -20.9240   21.4508 H   0  0  0  0  0  0
  -20.8935  -24.8120   17.8810 H   0  0  0  0  0  0
  -19.8008  -25.9723   18.3143 H   0  0  0  0  0  0
  -21.4838  -27.5263   18.5865 H   0  0  0  0  0  0
  -22.6012  -26.4331   17.9714 H   0  0  0  0  0  0
  -20.2246  -23.2005   19.4509 H   0  0  0  0  0  0
  -18.8000  -24.0899   19.4794 H   0  0  0  0  0  0
  -20.7116  -28.0072   20.8391 H   0  0  0  0  0  0
  -22.1906  -27.8891   21.3497 H   0  0  0  0  0  0
  -23.5155  -26.1653   19.8564 H   0  0  0  0  0  0
  -20.2750  -22.9698   21.6516 H   0  0  0  0  0  0
  -24.1764  -24.8603   22.1618 H   0  0  0  0  0  0
  -25.8017  -25.0065   22.6414 H   0  0  0  0  0  0
  -24.6315  -24.4158   23.8664 H   0  0  0  0  0  0
  -23.1696  -18.7819   21.8135 H   0  0  0  0  0  0
  -22.0515  -20.1295   21.6200 H   0  0  0  0  0  0
  -22.5531  -19.6393   23.2360 H   0  0  0  0  0  0
  -17.6747  -24.2171   22.3891 H   0  0  0  0  0  0
  -18.5240  -22.8916   23.1497 H   0  0  0  0  0  0
  -17.9743  -22.7437   21.5078 H   0  0  0  0  0  0
  -25.7627  -17.5247   21.9250 H   0  0  0  0  0  0
  -27.0490  -18.2540   22.7600 H   0  0  0  0  0  0
  -22.2461  -23.7734   24.0690 H   0  0  0  0  0  0
  -21.2251  -22.7569   23.3366 H   0  0  0  0  0  0
  -27.1243  -16.1646   20.6867 H   0  0  0  0  0  0
  -20.0936  -25.1856   23.6265 H   0  0  0  0  0  0
  1 25  1  0  0  0
  1 30  2  0  0  0
  1 88  1  0  0  0
  2  3  1  0  0  0
  2 25  1  0  0  0
  2 90  1  0  0  0
  2 91  1  0  0  0
  3  4  1  0  0  0
  3 92  1  0  0  0
  3 93  1  0  0  0
  4  5  1  0  0  0
  4 94  1  0  0  0
  4 95  1  0  0  0
  5  6  1  0  0  0
  5 26  1  0  0  0
  5 96  1  0  0  0
  6 25  1  0  0  0
  6 97  1  0  0  0
  6 98  1  0  0  0
  7  8  2  0  0  0
  7 26  1  0  0  0
  7 29  1  0  0  0
  8  9  1  0  0  0
  8 22  1  0  0  0
  9 10  1  0  0  0
  9 27  2  0  0  0
 10 11  2  0  0  0
 10 15  1  0  0  0
 11 12  1  0  0  0
 11 99  1  0  0  0
 12 13  2  0  0  0
 12100  1  0  0  0
 13 14  1  0  0  0
 13 31  1  0  0  0
 14 15  2  0  0  0
 14101  1  0  0  0
 15102  1  0  0  0
 16 17  2  0  0  0
 16 21  1  0  0  0
 16 31  1  0  0  0
 17 18  1  0  0  0
 17103  1  0  0  0
 18 19  2  0  0  0
 18104  1  0  0  0
 19 20  1  0  0  0
 19 24  1  0  0  0
 20 21  2  0  0  0
 20105  1  0  0  0
 21 23  1  0  0  0
 22 28  1  0  0  0
 22 32  2  0  0  0
 26 27  1  0  0  0
 28106  1  0  0  0
 28107  1  0  0  0
 29108  1  0  0  0
 29109  1  0  0  0
 33 34  1  0  0  0
 33 66  1  0  0  0
 33 70  2  0  0  0
 34 36  1  0  0  0
 34 59  1  0  0  0
 34110  1  0  0  0
 35 44  2  0  0  0
 35 45  1  0  0  0
 35 68  1  0  0  0
 36 56  1  0  0  0
 36111  1  0  0  0
 37 39  1  0  0  0
 37 47  1  0  0  0
 37 66  1  0  0  0
 37112  1  0  0  0
 38 43  2  0  0  0
 38 46  1  0  0  0
 38 47  1  0  0  0
 39 64  1  0  0  0
 39 67  2  0  0  0
 40 52  1  0  0  0
 40 53  2  0  0  0
 40 58  1  0  0  0
 41113  1  0  0  0
 41114  1  0  0  0
 41115  1  0  0  0
 41 48  1  0  0  0
 42 43  1  0  0  0
 42 66  1  0  0  0
 42116  1  0  0  0
 42117  1  0  0  0
 43 44  1  0  0  0
 44118  1  0  0  0
 45 46  2  0  0  0
 45119  1  0  0  0
 46120  1  0  0  0
 47121  1  0  0  0
 47122  1  0  0  0
 48 56  1  0  0  0
 48 65  1  0  0  0
 48123  1  0  0  0
 49 50  1  0  0  0
 49 53  1  0  0  0
 49 64  1  0  0  0
 49124  1  0  0  0
 50 51  1  0  0  0
 50125  1  0  0  0
 50126  1  0  0  0
 51 52  1  0  0  0
 51127  1  0  0  0
 51128  1  0  0  0
 52129  1  0  0  0
 52130  1  0  0  0
 53 54  1  0  0  0
 54 55  2  0  0  0
 54131  1  0  0  0
 55 57  1  0  0  0
 55132  1  0  0  0
 56 69  2  0  0  0
 57 58  2  0  0  0
 57133  1  0  0  0
 58134  1  0  0  0
 59 60  1  0  0  0
 59 61  1  0  0  0
 59 62  1  0  0  0
 60135  1  0  0  0
 60136  1  0  0  0
 60137  1  0  0  0
 61138  1  0  0  0
 61139  1  0  0  0
 61140  1  0  0  0
 62141  1  0  0  0
 62142  1  0  0  0
 62143  1  0  0  0
 63 65  1  0  0  0
 63144  1  0  0  0
 63145  1  0  0  0
 63146  1  0  0  0
 64147  1  0  0  0
 65148  1  0  0  0
 68 81  1  0  0  0
 71 72  2  0  0  0
 71 73  1  0  0  0
 71149  1  0  0  0
 72 74  1  0  0  0
 72150  1  0  0  0
 73 76  2  0  0  0
 73 83  1  0  0  0
 74 75  2  0  0  0
 74 86  1  0  0  0
 75 76  1  0  0  0
 75 84  1  0  0  0
 76 87  1  0  0  0
 77 78  1  0  0  0
 77 79  1  0  0  0
 77151  1  0  0  0
 77152  1  0  0  0
 78 81  1  0  0  0
 78153  1  0  0  0
 78154  1  0  0  0
 79 82  1  0  0  0
 79155  1  0  0  0
 79156  1  0  0  0
 80 81  1  0  0  0
 80 89  1  0  0  0
 80157  1  0  0  0
 80158  1  0  0  0
 81159  1  0  0  0
 82 85  1  0  0  0
 82 89  1  0  0  0
 82160  1  0  0  0
 83161  1  0  0  0
 83162  1  0  0  0
 83163  1  0  0  0
 84164  1  0  0  0
 84165  1  0  0  0
 84166  1  0  0  0
 85167  1  0  0  0
 85168  1  0  0  0
 85169  1  0  0  0
 86 88  1  0  0  0
 86170  1  0  0  0
 86171  1  0  0  0
 87172  1  0  0  0
 87173  1  0  0  0
 87 89  1  0  0  0
 88174  1  0  0  0
 89175  1  0  0  0
M  CHG  1  89   1
M  ISO  4   1 100  68 101  81 101  88 100
M  END
> <chiral flag>
0

> <version>
0

> <s_m_source_file>
/data/baiqing/PycharmProjects/Reinvent-master-3.2/result/LINK_invent/BTK/process_docking_weight1_custom_product_contain_oxygen_bond_distance_aromatic_linkinvent_7_9_3/rearranged_h_0033.sdf

> <i_m_source_file_index>
20

> <r_mmod_Potential_Energy-OPLS-2005>
18890.255859375

> <r_mmod_Stretch_Energy-OPLS-2005>
8672.265625

> <r_mmod_Bend_Energy-OPLS-2005>
2288.43115234375

> <r_mmod_Torsional_Energy-OPLS-2005>
640.924011230469

> <r_mmod_Improper_Torsional_Energy-OPLS-2005>
49.9608459472656

> <r_mmod_Van_der_Waal_Energy-OPLS-2005>
2755.67553710938

> <r_mmod_Electrostatic_Energy-OPLS-2005>
-332.649841308594

> <r_mmod_Solvation_Energy-OPLS-2005>
-392.066802978516

> <b_mmod_Minimization_Converged-OPLS-2005>
0

> <r_mmod_RMS_Derivative-OPLS-2005>
37.0398483276367

$$$$
20
                    3D
 Structure written by MMmdl.
167176  0  0  1  0            999 V2000
  -30.6796  -14.5586   20.4689 C   0  0  0  0  0  0
  -30.4218  -12.3310   19.4614 C   0  0  0  0  0  0
  -29.5068  -12.4843   18.2267 C   0  0  0  0  0  0
  -28.0274  -12.3507   18.6336 C   0  0  0  0  0  0
  -27.6571  -13.2192   19.8673 C   0  0  2  0  0  0
  -28.6995  -13.0718   21.0024 C   0  0  0  0  0  0
  -25.2574  -13.8158   20.5649 C   0  0  0  0  0  0
  -24.1841  -13.0445   20.9165 C   0  0  0  0  0  0
  -24.6416  -11.6919   20.8731 C   0  0  0  0  0  0
  -23.9085  -10.4303   21.0394 C   0  0  0  0  0  0
  -24.3631   -9.4225   21.9166 C   0  0  0  0  0  0
  -23.6314   -8.2252   22.0726 C   0  0  0  0  0  0
  -22.4285   -8.0285   21.3531 C   0  0  0  0  0  0
  -21.9932   -9.0253   20.4632 C   0  0  0  0  0  0
  -22.7259  -10.2134   20.3049 C   0  0  0  0  0  0
  -21.6861   -6.0750   22.5276 C   0  0  0  0  0  0
  -21.4010   -6.5644   23.8209 C   0  0  0  0  0  0
  -21.3662   -5.6792   24.9164 C   0  0  0  0  0  0
  -21.6039   -4.3058   24.7214 C   0  0  0  0  0  0
  -21.8823   -3.8158   23.4336 C   0  0  0  0  0  0
  -21.9190   -4.6981   22.3394 C   0  0  0  0  0  0
  -22.7861  -13.5251   21.1869 C   0  0  0  0  0  0
  -22.1661   -4.2172   21.0975 F   0  0  0  0  0  0
  -21.5649   -3.4535   25.7730 F   0  0  0  0  0  0
  -30.0261  -13.3619   20.4400 N   0  0  0  0  0  0
  -26.3017  -12.9359   20.3329 N   0  0  0  0  0  0
  -25.9352  -11.6513   20.5769 N   0  0  0  0  0  0
  -22.0498  -12.8199   22.0401 N   0  0  0  0  0  0
  -25.4328  -15.1864   20.4008 N   0  0  0  0  0  0
  -31.8296  -14.6649   20.0499 O   0  0  0  0  0  0
  -21.6645   -6.8887   21.4232 O   0  0  0  0  0  0
  -22.3559  -14.5581   20.6793 O   0  0  0  0  0  0
  -24.6189  -31.8675   23.2090 C   0  0  0  0  0  0
  -25.9077  -32.4813   23.8378 C   0  0  1  0  0  0
  -27.2195  -27.3931   20.1129 C   0  0  0  0  0  0
  -25.5931  -33.8609   24.2331 N   0  0  0  0  0  0
  -23.4073  -30.4947   21.5509 C   0  0  2  0  0  0
  -24.8493  -28.9625   20.1131 C   0  0  0  0  0  0
  -22.7431  -29.4684   22.4981 C   0  0  0  0  0  0
  -18.0296  -28.1389   22.8506 C   0  0  0  0  0  0
  -24.1496  -36.7308   23.2632 C   0  0  0  0  0  0
  -25.9387  -30.8284   21.3591 C   0  0  0  0  0  0
  -26.0150  -29.4592   20.7083 C   0  0  0  0  0  0
  -27.2031  -28.6856   20.7012 C   0  0  0  0  0  0
  -26.0315  -26.9347   19.4948 C   0  0  0  0  0  0
  -24.8556  -27.7013   19.5001 C   0  0  0  0  0  0
  -23.6140  -29.8331   20.1639 C   0  0  0  0  0  0
  -25.4111  -36.3101   24.0337 C   0  0  1  0  0  0
  -20.5887  -28.3683   23.1316 C   0  0  2  0  0  0
  -20.6795  -26.9423   22.5419 C   0  0  0  0  0  0
  -19.5769  -26.6407   21.5223 C   0  0  0  0  0  0
  -18.1942  -26.7948   22.1628 C   0  0  0  0  0  0
  -19.1540  -28.8856   23.2917 C   0  0  0  0  0  0
  -18.9450  -30.1461   23.8924 C   0  0  0  0  0  0
  -17.6444  -30.6586   24.0579 C   0  0  0  0  0  0
  -25.9034  -34.9468   23.5130 C   0  0  0  0  0  0
  -16.5347  -29.9081   23.6330 C   0  0  0  0  0  0
  -16.7283  -28.6510   23.0346 C   0  0  0  0  0  0
  -26.4498  -31.6567   25.0687 C   0  0  0  0  0  0
  -25.3787  -31.3650   26.1454 C   0  0  0  0  0  0
  -27.0291  -30.3016   24.6005 C   0  0  0  0  0  0
  -27.6092  -32.4263   25.7455 C   0  0  0  0  0  0
  -27.5589  -37.1808   24.8472 C   0  0  0  0  0  0
  -21.4161  -29.3052   22.3710 N   0  0  0  0  0  0
  -26.4302  -37.3781   23.9415 N   0  0  0  0  0  0
  -24.6750  -31.0773   22.0983 N   0  0  0  0  0  0
  -23.4193  -28.8219   23.3025 O   0  0  0  0  0  0
  -28.3648  -26.6091   20.1654 O   0  0  0  0  0  0
  -26.5578  -34.8928   22.4675 O   0  0  0  0  0  0
  -23.5385  -32.1426   23.7473 O   0  0  0  0  0  0
  -32.3674  -19.7268   21.0473 C   0  0  0  0  0  0
  -29.6255  -19.3592   20.6943 C   0  0  0  0  0  0
  -31.8938  -18.4805   20.5945 C   0  0  0  0  0  0
  -31.4976  -20.8057   21.2888 C   0  0  0  0  0  0
  -30.4993  -18.2519   20.4590 C   0  0  0  0  0  0
  -30.1053  -20.6551   21.0676 C   0  0  0  0  0  0
  -28.7361  -23.0791   19.0402 C   0  0  0  0  0  0
  -28.5444  -22.0197   18.2367 C   0  0  0  0  0  0
  -28.2487  -24.5007   18.8246 C   0  0  0  0  0  0
  -29.3087  -24.3997   20.9701 C   0  0  0  0  0  0
  -28.1995  -25.1598   20.2065 C   0  0  1  0  0  0
  -32.9310  -17.4432   20.2068 C   0  0  0  0  0  0
  -32.1183  -22.1127   21.7572 C   0  0  0  0  0  0
  -29.9418  -16.9135   19.8915 C   0  0  0  0  0  0
  -29.1422  -21.8626   21.2485 C   0  0  0  0  0  0
  -29.9221  -15.6619   20.7071 N   0  0  0  0  0  0
  -29.4404  -23.0377   20.3554 N   0  3  2  0  0  0
  -31.4704  -12.4078   19.1658 H   0  0  0  0  0  0
  -30.3145  -11.3393   19.9010 H   0  0  0  0  0  0
  -29.7551  -11.7296   17.4803 H   0  0  0  0  0  0
  -29.6765  -13.4490   17.7477 H   0  0  0  0  0  0
  -27.8415  -11.2968   18.8501 H   0  0  0  0  0  0
  -27.3813  -12.6072   17.7940 H   0  0  0  0  0  0
  -27.6811  -14.2544   19.5294 H   0  0  0  0  0  0
  -28.6825  -12.0641   21.4182 H   0  0  0  0  0  0
  -28.4630  -13.7380   21.8329 H   0  0  0  0  0  0
  -25.2770   -9.5734   22.4748 H   0  0  0  0  0  0
  -24.0045   -7.4643   22.7431 H   0  0  0  0  0  0
  -21.0870   -8.8788   19.8917 H   0  0  0  0  0  0
  -22.3718  -10.9679   19.6179 H   0  0  0  0  0  0
  -21.1988   -7.6147   23.9726 H   0  0  0  0  0  0
  -21.1489   -6.0507   25.9069 H   0  0  0  0  0  0
  -22.0606   -2.7624   23.2819 H   0  0  0  0  0  0
  -22.4128  -11.9850   22.4758 H   0  0  0  0  0  0
  -21.1126  -13.1225   22.2642 H   0  0  0  0  0  0
  -24.6778  -15.8526   20.5200 H   0  0  0  0  0  0
  -26.2865  -15.6126   20.0648 H   0  0  0  0  0  0
  -26.7158  -32.5532   23.1147 H   0  0  0  0  0  0
  -25.0137  -33.9775   25.0523 H   0  0  0  0  0  0
  -22.6973  -31.3123   21.4129 H   0  0  0  0  0  0
  -23.3763  -35.9637   23.3280 H   0  0  0  0  0  0
  -24.3612  -36.8937   22.2057 H   0  0  0  0  0  0
  -23.7247  -37.6510   23.6654 H   0  0  0  0  0  0
  -26.0464  -31.5911   20.5855 H   0  0  0  0  0  0
  -26.8294  -30.8861   21.9742 H   0  0  0  0  0  0
  -28.0990  -29.0634   21.1766 H   0  0  0  0  0  0
  -25.9737  -25.9780   19.0067 H   0  0  0  0  0  0
  -23.9602  -27.3135   19.0329 H   0  0  0  0  0  0
  -23.7267  -30.6082   19.4054 H   0  0  0  0  0  0
  -22.7345  -29.2567   19.8679 H   0  0  0  0  0  0
  -25.1278  -36.1962   25.0832 H   0  0  0  0  0  0
  -21.0003  -28.3263   24.1429 H   0  0  0  0  0  0
  -20.5742  -26.2282   23.3599 H   0  0  0  0  0  0
  -21.6659  -26.7497   22.1177 H   0  0  0  0  0  0
  -19.6925  -25.6328   21.1234 H   0  0  0  0  0  0
  -19.6700  -27.3240   20.6768 H   0  0  0  0  0  0
  -17.4220  -26.6737   21.4019 H   0  0  0  0  0  0
  -18.0316  -26.0077   22.9008 H   0  0  0  0  0  0
  -19.7918  -30.7291   24.2303 H   0  0  0  0  0  0
  -17.4989  -31.6266   24.5170 H   0  0  0  0  0  0
  -15.5344  -30.2971   23.7641 H   0  0  0  0  0  0
  -15.8701  -28.0831   22.7020 H   0  0  0  0  0  0
  -24.5975  -30.6969   25.7810 H   0  0  0  0  0  0
  -24.8951  -32.2776   26.4939 H   0  0  0  0  0  0
  -25.8174  -30.8813   27.0188 H   0  0  0  0  0  0
  -26.2768  -29.6793   24.1138 H   0  0  0  0  0  0
  -27.4171  -29.7241   25.4405 H   0  0  0  0  0  0
  -27.8569  -30.4356   23.9042 H   0  0  0  0  0  0
  -27.2751  -33.3599   26.2002 H   0  0  0  0  0  0
  -28.3918  -32.6750   25.0271 H   0  0  0  0  0  0
  -28.0720  -31.8373   26.5393 H   0  0  0  0  0  0
  -28.2600  -38.0113   24.7511 H   0  0  0  0  0  0
  -28.1090  -36.2637   24.6284 H   0  0  0  0  0  0
  -27.2315  -37.1450   25.8881 H   0  0  0  0  0  0
  -20.9312  -29.8742   21.6911 H   0  0  0  0  0  0
  -26.0187  -38.2865   24.1396 H   0  0  0  0  0  0
  -33.4316  -19.8721   21.1787 H   0  0  0  0  0  0
  -28.5642  -19.2191   20.5431 H   0  0  0  0  0  0
  -28.0060  -22.1212   17.3068 H   0  0  0  0  0  0
  -28.9164  -21.0357   18.4860 H   0  0  0  0  0  0
  -27.2827  -24.4923   18.3235 H   0  0  0  0  0  0
  -28.9529  -25.0253   18.1773 H   0  0  0  0  0  0
  -29.1297  -24.3870   22.0448 H   0  0  0  0  0  0
  -30.2566  -24.9178   20.8184 H   0  0  0  0  0  0
  -27.2565  -24.8950   20.6897 H   0  0  0  0  0  0
  -33.9109  -17.8928   20.0516 H   0  0  0  0  0  0
  -32.6711  -16.9514   19.2700 H   0  0  0  0  0  0
  -33.0379  -16.6982   20.9924 H   0  0  0  0  0  0
  -33.0863  -21.9332   22.2302 H   0  0  0  0  0  0
  -31.4964  -22.6233   22.4949 H   0  0  0  0  0  0
  -32.2904  -22.7811   20.9129 H   0  0  0  0  0  0
  -30.4427  -16.7190   18.9408 H   0  0  0  0  0  0
  -28.9074  -17.0999   19.5963 H   0  0  0  0  0  0
  -29.1967  -22.1618   22.2966 H   0  0  0  0  0  0
  -28.1095  -21.5447   21.1017 H   0  0  0  0  0  0
  -29.0285  -15.4625   21.1292 H   0  0  0  0  0  0
  -30.4277  -22.9323   20.1718 H   0  0  0  0  0  0
  1 25  1  0  0  0
  1 30  2  0  0  0
  1 86  1  0  0  0
  2  3  1  0  0  0
  2 25  1  0  0  0
  2 88  1  0  0  0
  2 89  1  0  0  0
  3  4  1  0  0  0
  3 90  1  0  0  0
  3 91  1  0  0  0
  4  5  1  0  0  0
  4 92  1  0  0  0
  4 93  1  0  0  0
  5  6  1  0  0  0
  5 26  1  0  0  0
  5 94  1  0  0  0
  6 25  1  0  0  0
  6 95  1  0  0  0
  6 96  1  0  0  0
  7  8  2  0  0  0
  7 26  1  0  0  0
  7 29  1  0  0  0
  8  9  1  0  0  0
  8 22  1  0  0  0
  9 10  1  0  0  0
  9 27  2  0  0  0
 10 11  2  0  0  0
 10 15  1  0  0  0
 11 12  1  0  0  0
 11 97  1  0  0  0
 12 13  2  0  0  0
 12 98  1  0  0  0
 13 14  1  0  0  0
 13 31  1  0  0  0
 14 15  2  0  0  0
 14 99  1  0  0  0
 15100  1  0  0  0
 16 17  2  0  0  0
 16 21  1  0  0  0
 16 31  1  0  0  0
 17 18  1  0  0  0
 17101  1  0  0  0
 18 19  2  0  0  0
 18102  1  0  0  0
 19 20  1  0  0  0
 19 24  1  0  0  0
 20 21  2  0  0  0
 20103  1  0  0  0
 21 23  1  0  0  0
 22 28  1  0  0  0
 22 32  2  0  0  0
 26 27  1  0  0  0
 28104  1  0  0  0
 28105  1  0  0  0
 29106  1  0  0  0
 29107  1  0  0  0
 33 34  1  0  0  0
 33 66  1  0  0  0
 33 70  2  0  0  0
 34 36  1  0  0  0
 34 59  1  0  0  0
 34108  1  0  0  0
 35 44  2  0  0  0
 35 45  1  0  0  0
 35 68  1  0  0  0
 36 56  1  0  0  0
 36109  1  0  0  0
 37 39  1  0  0  0
 37 47  1  0  0  0
 37 66  1  0  0  0
 37110  1  0  0  0
 38 43  2  0  0  0
 38 46  1  0  0  0
 38 47  1  0  0  0
 39 64  1  0  0  0
 39 67  2  0  0  0
 40 52  1  0  0  0
 40 53  2  0  0  0
 40 58  1  0  0  0
 41111  1  0  0  0
 41112  1  0  0  0
 41113  1  0  0  0
 41 48  1  0  0  0
 42 43  1  0  0  0
 42 66  1  0  0  0
 42114  1  0  0  0
 42115  1  0  0  0
 43 44  1  0  0  0
 44116  1  0  0  0
 45 46  2  0  0  0
 45117  1  0  0  0
 46118  1  0  0  0
 47119  1  0  0  0
 47120  1  0  0  0
 48 56  1  0  0  0
 48 65  1  0  0  0
 48121  1  0  0  0
 49 50  1  0  0  0
 49 53  1  0  0  0
 49 64  1  0  0  0
 49122  1  0  0  0
 50 51  1  0  0  0
 50123  1  0  0  0
 50124  1  0  0  0
 51 52  1  0  0  0
 51125  1  0  0  0
 51126  1  0  0  0
 52127  1  0  0  0
 52128  1  0  0  0
 53 54  1  0  0  0
 54 55  2  0  0  0
 54129  1  0  0  0
 55 57  1  0  0  0
 55130  1  0  0  0
 56 69  2  0  0  0
 57 58  2  0  0  0
 57131  1  0  0  0
 58132  1  0  0  0
 59 60  1  0  0  0
 59 61  1  0  0  0
 59 62  1  0  0  0
 60133  1  0  0  0
 60134  1  0  0  0
 60135  1  0  0  0
 61136  1  0  0  0
 61137  1  0  0  0
 61138  1  0  0  0
 62139  1  0  0  0
 62140  1  0  0  0
 62141  1  0  0  0
 63 65  1  0  0  0
 63142  1  0  0  0
 63143  1  0  0  0
 63144  1  0  0  0
 64145  1  0  0  0
 65146  1  0  0  0
 68 81  1  0  0  0
 71 73  2  0  0  0
 71 74  1  0  0  0
 71147  1  0  0  0
 72 75  2  0  0  0
 72 76  1  0  0  0
 72148  1  0  0  0
 73 75  1  0  0  0
 73 82  1  0  0  0
 74 76  2  0  0  0
 74 83  1  0  0  0
 75 84  1  0  0  0
 76 85  1  0  0  0
 77 78  2  0  0  0
 77 79  1  0  0  0
 77 87  1  0  0  0
 78149  1  0  0  0
 78150  1  0  0  0
 79 81  1  0  0  0
 79151  1  0  0  0
 79152  1  0  0  0
 80 81  1  0  0  0
 80 87  1  0  0  0
 80153  1  0  0  0
 80154  1  0  0  0
 81155  1  0  0  0
 82156  1  0  0  0
 82157  1  0  0  0
 82158  1  0  0  0
 83159  1  0  0  0
 83160  1  0  0  0
 83161  1  0  0  0
 84 86  1  0  0  0
 84162  1  0  0  0
 84163  1  0  0  0
 85164  1  0  0  0
 85165  1  0  0  0
 85 87  1  0  0  0
 86166  1  0  0  0
 87167  1  0  0  0
M  CHG  1  87   1
M  ISO  4   1 100  68 101  81 101  86 100
M  END
> <chiral flag>
0

> <version>
0

> <s_m_source_file>
/data/baiqing/PycharmProjects/Reinvent-master-3.2/result/LINK_invent/BTK/process_docking_weight1_custom_product_contain_oxygen_bond_distance_aromatic_linkinvent_7_9_3/rearranged_h_0033.sdf

> <i_m_source_file_index>
21

> <r_mmod_Potential_Energy-OPLS-2005>
-106.785659790039

> <r_mmod_Stretch_Energy-OPLS-2005>
54.198112487793

> <r_mmod_Bend_Energy-OPLS-2005>
140.238876342773

> <r_mmod_Torsional_Energy-OPLS-2005>
256.025390625

> <r_mmod_Improper_Torsional_Energy-OPLS-2005>
10.0003910064697

> <r_mmod_Van_der_Waal_Energy-OPLS-2005>
147.939849853516

> <r_mmod_Electrostatic_Energy-OPLS-2005>
-321.517395019531

> <r_mmod_Solvation_Energy-OPLS-2005>
-421.214965820312

> <b_mmod_Minimization_Converged-OPLS-2005>
0

> <r_mmod_RMS_Derivative-OPLS-2005>
3.77937912940979

$$$$
21
                    3D
 Structure written by MMmdl.
167176  0  0  1  0            999 V2000
  -30.5893  -14.7659   20.4553 C   0  0  0  0  0  0
  -30.4503  -12.4673   19.4625 C   0  0  0  0  0  0
  -29.5128  -12.4837   18.2356 C   0  0  0  0  0  0
  -28.0422  -12.3031   18.6629 C   0  0  0  0  0  0
  -27.6404  -13.2235   19.8447 C   0  0  2  0  0  0
  -28.6917  -13.1744   20.9729 C   0  0  0  0  0  0
  -25.2534  -13.8203   20.5740 C   0  0  0  0  0  0
  -24.1802  -13.0459   20.9230 C   0  0  0  0  0  0
  -24.6395  -11.6930   20.8790 C   0  0  0  0  0  0
  -23.9073  -10.4306   21.0452 C   0  0  0  0  0  0
  -24.3618   -9.4205   21.9209 C   0  0  0  0  0  0
  -23.6293   -8.2237   22.0757 C   0  0  0  0  0  0
  -22.4269   -8.0293   21.3543 C   0  0  0  0  0  0
  -21.9922   -9.0287   20.4645 C   0  0  0  0  0  0
  -22.7269  -10.2162   20.3074 C   0  0  0  0  0  0
  -21.6856   -6.0733   22.5272 C   0  0  0  0  0  0
  -21.4028   -6.5632   23.8208 C   0  0  0  0  0  0
  -21.3650   -5.6781   24.9166 C   0  0  0  0  0  0
  -21.6049   -4.3043   24.7221 C   0  0  0  0  0  0
  -21.8815   -3.8136   23.4336 C   0  0  0  0  0  0
  -21.9198   -4.6961   22.3395 C   0  0  0  0  0  0
  -22.7815  -13.5225   21.1896 C   0  0  0  0  0  0
  -22.1659   -4.2137   21.0977 F   0  0  0  0  0  0
  -21.5627   -3.4534   25.7731 F   0  0  0  0  0  0
  -29.9839  -13.5318   20.3736 N   0  0  0  0  0  0
  -26.2936  -12.9378   20.3290 N   0  0  0  0  0  0
  -25.9314  -11.6540   20.5795 N   0  0  0  0  0  0
  -22.0456  -12.8195   22.0447 N   0  0  0  0  0  0
  -25.4282  -15.1940   20.4173 N   0  0  0  0  0  0
  -31.7994  -14.8733   20.2391 O   0  0  0  0  0  0
  -21.6637   -6.8884   21.4234 O   0  0  0  0  0  0
  -22.3488  -14.5534   20.6760 O   0  0  0  0  0  0
  -24.6334  -31.8496   23.1910 C   0  0  0  0  0  0
  -25.9144  -32.4718   23.8278 C   0  0  1  0  0  0
  -27.2166  -27.2368   20.1270 C   0  0  0  0  0  0
  -25.5938  -33.8518   24.2197 N   0  0  0  0  0  0
  -23.4285  -30.4797   21.5281 C   0  0  2  0  0  0
  -24.8727  -28.9137   20.1002 C   0  0  0  0  0  0
  -22.7514  -29.4606   22.4764 C   0  0  0  0  0  0
  -18.0316  -28.1401   22.8466 C   0  0  0  0  0  0
  -24.1503  -36.7271   23.2657 C   0  0  0  0  0  0
  -25.9739  -30.7597   21.3656 C   0  0  0  0  0  0
  -26.0424  -29.3774   20.7118 C   0  0  0  0  0  0
  -27.2123  -28.5521   20.7104 C   0  0  0  0  0  0
  -26.0172  -26.8348   19.4967 C   0  0  0  0  0  0
  -24.8669  -27.6510   19.4844 C   0  0  0  0  0  0
  -23.6495  -29.8125   20.1447 C   0  0  0  0  0  0
  -25.4129  -36.3025   24.0325 C   0  0  1  0  0  0
  -20.5923  -28.3725   23.1199 C   0  0  2  0  0  0
  -20.6826  -26.9433   22.5365 C   0  0  0  0  0  0
  -19.5811  -26.6378   21.5176 C   0  0  0  0  0  0
  -18.1980  -26.7941   22.1588 C   0  0  0  0  0  0
  -19.1573  -28.8856   23.2848 C   0  0  0  0  0  0
  -18.9536  -30.1449   23.8884 C   0  0  0  0  0  0
  -17.6550  -30.6597   24.0571 C   0  0  0  0  0  0
  -25.9079  -34.9418   23.5048 C   0  0  0  0  0  0
  -16.5426  -29.9119   23.6323 C   0  0  0  0  0  0
  -16.7306  -28.6532   23.0325 C   0  0  0  0  0  0
  -26.4505  -31.6578   25.0699 C   0  0  0  0  0  0
  -25.3746  -31.3771   26.1434 C   0  0  0  0  0  0
  -27.0366  -30.3008   24.6170 C   0  0  0  0  0  0
  -27.6028  -32.4329   25.7476 C   0  0  0  0  0  0
  -27.5568  -37.1783   24.8468 C   0  0  0  0  0  0
  -21.4206  -29.3080   22.3567 N   0  0  0  0  0  0
  -26.4287  -37.3736   23.9426 N   0  0  0  0  0  0
  -24.6998  -31.0473   22.0875 N   0  0  0  0  0  0
  -23.4222  -28.8134   23.2836 O   0  0  0  0  0  0
  -28.3329  -26.3681   20.2074 O   0  0  0  0  0  0
  -26.5646  -34.8902   22.4620 O   0  0  0  0  0  0
  -23.5475  -32.1298   23.7209 O   0  0  0  0  0  0
  -29.3249  -18.4447   20.3418 C   0  0  0  0  0  0
  -29.1385  -19.7552   20.9579 C   0  0  0  0  0  0
  -29.4374  -19.8156   22.3478 C   0  0  0  0  0  0
  -30.0386  -18.7121   23.0258 C   0  0  0  0  0  0
  -30.2061  -17.4441   22.3908 C   0  0  0  0  0  0
  -29.8283  -17.2582   21.0295 C   0  0  0  0  0  0
  -29.9889  -23.0237   19.4672 C   0  0  0  0  0  0
  -30.8859  -22.2752   18.8012 C   0  0  0  0  0  0
  -29.8214  -24.5472   19.3958 C   0  0  0  0  0  0
  -27.9816  -23.6504   20.6116 C   0  0  0  0  0  0
  -28.3731  -24.9269   19.7331 C   0  0  1  0  0  0
  -29.0237  -21.0407   23.1627 C   0  0  0  0  0  0
  -30.4460  -18.8910   24.4945 C   0  0  0  0  0  0
  -30.7152  -16.2486   23.2053 C   0  0  0  0  0  0
  -28.4606  -21.0268   20.2206 C   0  0  0  0  0  0
  -29.7503  -15.8775   20.4623 N   0  0  0  0  0  0
  -28.9682  -22.4873   20.4149 N   0  3  1  0  0  0
  -31.4840  -12.6202   19.1473 H   0  0  0  0  0  0
  -30.4311  -11.4978   19.9649 H   0  0  0  0  0  0
  -29.7992  -11.6996   17.5336 H   0  0  0  0  0  0
  -29.6226  -13.4301   17.7045 H   0  0  0  0  0  0
  -27.9155  -11.2589   18.9558 H   0  0  0  0  0  0
  -27.3776  -12.4623   17.8137 H   0  0  0  0  0  0
  -27.6299  -14.2364   19.4435 H   0  0  0  0  0  0
  -28.7380  -12.1807   21.4254 H   0  0  0  0  0  0
  -28.4261  -13.8707   21.7719 H   0  0  0  0  0  0
  -25.2777   -9.5651   22.4777 H   0  0  0  0  0  0
  -24.0003   -7.4604   22.7449 H   0  0  0  0  0  0
  -21.0859   -8.8822   19.8930 H   0  0  0  0  0  0
  -22.3766  -10.9706   19.6158 H   0  0  0  0  0  0
  -21.2029   -7.6139   23.9711 H   0  0  0  0  0  0
  -21.1478   -6.0508   25.9065 H   0  0  0  0  0  0
  -22.0609   -2.7601   23.2847 H   0  0  0  0  0  0
  -22.4050  -11.9812   22.4762 H   0  0  0  0  0  0
  -21.1093  -13.1225   22.2690 H   0  0  0  0  0  0
  -24.6772  -15.8627   20.5504 H   0  0  0  0  0  0
  -26.2887  -15.6343   20.1206 H   0  0  0  0  0  0
  -26.7199  -32.5329   23.0994 H   0  0  0  0  0  0
  -25.0088  -33.9634   25.0343 H   0  0  0  0  0  0
  -22.7285  -31.3057   21.3799 H   0  0  0  0  0  0
  -23.3736  -35.9625   23.3282 H   0  0  0  0  0  0
  -24.3615  -36.8921   22.2080 H   0  0  0  0  0  0
  -23.7275  -37.6482   23.6693 H   0  0  0  0  0  0
  -26.1129  -31.5157   20.5908 H   0  0  0  0  0  0
  -26.8525  -30.8069   21.9967 H   0  0  0  0  0  0
  -28.1101  -28.9062   21.1974 H   0  0  0  0  0  0
  -25.9302  -25.8654   19.0316 H   0  0  0  0  0  0
  -23.9682  -27.2912   19.0052 H   0  0  0  0  0  0
  -23.7836  -30.5905   19.3920 H   0  0  0  0  0  0
  -22.7608  -29.2611   19.8262 H   0  0  0  0  0  0
  -25.1293  -36.1852   25.0811 H   0  0  0  0  0  0
  -21.0066  -28.3335   24.1289 H   0  0  0  0  0  0
  -20.5717  -26.2346   23.3592 H   0  0  0  0  0  0
  -21.6704  -26.7426   22.1184 H   0  0  0  0  0  0
  -19.7013  -25.6273   21.1231 H   0  0  0  0  0  0
  -19.6775  -27.3152   20.6700 H   0  0  0  0  0  0
  -17.4260  -26.6638   21.3983 H   0  0  0  0  0  0
  -18.0413  -26.0076   22.8994 H   0  0  0  0  0  0
  -19.8033  -30.7240   24.2246 H   0  0  0  0  0  0
  -17.5140  -31.6277   24.5173 H   0  0  0  0  0  0
  -15.5437  -30.3058   23.7666 H   0  0  0  0  0  0
  -15.8702  -28.0883   22.7036 H   0  0  0  0  0  0
  -24.5933  -30.7077   25.7813 H   0  0  0  0  0  0
  -24.8941  -32.2972   26.4785 H   0  0  0  0  0  0
  -25.8098  -30.9055   27.0258 H   0  0  0  0  0  0
  -26.2961  -29.6730   24.1208 H   0  0  0  0  0  0
  -27.4137  -29.7259   25.4642 H   0  0  0  0  0  0
  -27.8764  -30.4300   23.9337 H   0  0  0  0  0  0
  -27.2608  -33.3657   26.1951 H   0  0  0  0  0  0
  -28.3903  -32.6846   25.0360 H   0  0  0  0  0  0
  -28.0616  -31.8533   26.5497 H   0  0  0  0  0  0
  -28.2533  -38.0123   24.7484 H   0  0  0  0  0  0
  -28.1098  -36.2636   24.6283 H   0  0  0  0  0  0
  -27.2285  -37.1393   25.8873 H   0  0  0  0  0  0
  -20.9389  -29.8876   21.6832 H   0  0  0  0  0  0
  -26.0137  -38.2783   24.1483 H   0  0  0  0  0  0
  -29.0102  -18.3301   19.3129 H   0  0  0  0  0  0
  -31.5927  -22.7361   18.1245 H   0  0  0  0  0  0
  -30.9425  -21.2021   18.9091 H   0  0  0  0  0  0
  -30.1154  -24.9414   18.4232 H   0  0  0  0  0  0
  -30.4927  -24.9812   20.1361 H   0  0  0  0  0  0
  -26.9590  -23.3477   20.3956 H   0  0  0  0  0  0
  -28.0170  -23.9331   21.6634 H   0  0  0  0  0  0
  -27.8248  -24.8538   18.7939 H   0  0  0  0  0  0
  -29.8470  -21.7492   23.2672 H   0  0  0  0  0  0
  -28.6736  -20.7608   24.1577 H   0  0  0  0  0  0
  -28.1645  -21.5495   22.7335 H   0  0  0  0  0  0
  -30.6949  -19.9235   24.7445 H   0  0  0  0  0  0
  -31.3404  -18.3262   24.7580 H   0  0  0  0  0  0
  -29.6274  -18.5768   25.1446 H   0  0  0  0  0  0
  -30.6599  -16.3762   24.2825 H   0  0  0  0  0  0
  -31.7523  -16.0374   22.9405 H   0  0  0  0  0  0
  -30.1251  -15.3491   23.0314 H   0  0  0  0  0  0
  -27.4236  -21.0168   20.5540 H   0  0  0  0  0  0
  -28.3893  -20.8209   19.1525 H   0  0  0  0  0  0
  -28.8158  -15.6249   20.1853 H   0  0  0  0  0  0
  -29.4226  -22.4275   21.3152 H   0  0  0  0  0  0
  1 25  1  0  0  0
  1 30  2  0  0  0
  1 86  1  0  0  0
  2  3  1  0  0  0
  2 25  1  0  0  0
  2 88  1  0  0  0
  2 89  1  0  0  0
  3  4  1  0  0  0
  3 90  1  0  0  0
  3 91  1  0  0  0
  4  5  1  0  0  0
  4 92  1  0  0  0
  4 93  1  0  0  0
  5  6  1  0  0  0
  5 26  1  0  0  0
  5 94  1  0  0  0
  6 25  1  0  0  0
  6 95  1  0  0  0
  6 96  1  0  0  0
  7  8  2  0  0  0
  7 26  1  0  0  0
  7 29  1  0  0  0
  8  9  1  0  0  0
  8 22  1  0  0  0
  9 10  1  0  0  0
  9 27  2  0  0  0
 10 11  2  0  0  0
 10 15  1  0  0  0
 11 12  1  0  0  0
 11 97  1  0  0  0
 12 13  2  0  0  0
 12 98  1  0  0  0
 13 14  1  0  0  0
 13 31  1  0  0  0
 14 15  2  0  0  0
 14 99  1  0  0  0
 15100  1  0  0  0
 16 17  2  0  0  0
 16 21  1  0  0  0
 16 31  1  0  0  0
 17 18  1  0  0  0
 17101  1  0  0  0
 18 19  2  0  0  0
 18102  1  0  0  0
 19 20  1  0  0  0
 19 24  1  0  0  0
 20 21  2  0  0  0
 20103  1  0  0  0
 21 23  1  0  0  0
 22 28  1  0  0  0
 22 32  2  0  0  0
 26 27  1  0  0  0
 28104  1  0  0  0
 28105  1  0  0  0
 29106  1  0  0  0
 29107  1  0  0  0
 33 34  1  0  0  0
 33 66  1  0  0  0
 33 70  2  0  0  0
 34 36  1  0  0  0
 34 59  1  0  0  0
 34108  1  0  0  0
 35 44  2  0  0  0
 35 45  1  0  0  0
 35 68  1  0  0  0
 36 56  1  0  0  0
 36109  1  0  0  0
 37 39  1  0  0  0
 37 47  1  0  0  0
 37 66  1  0  0  0
 37110  1  0  0  0
 38 43  2  0  0  0
 38 46  1  0  0  0
 38 47  1  0  0  0
 39 64  1  0  0  0
 39 67  2  0  0  0
 40 52  1  0  0  0
 40 53  2  0  0  0
 40 58  1  0  0  0
 41111  1  0  0  0
 41112  1  0  0  0
 41113  1  0  0  0
 41 48  1  0  0  0
 42 43  1  0  0  0
 42 66  1  0  0  0
 42114  1  0  0  0
 42115  1  0  0  0
 43 44  1  0  0  0
 44116  1  0  0  0
 45 46  2  0  0  0
 45117  1  0  0  0
 46118  1  0  0  0
 47119  1  0  0  0
 47120  1  0  0  0
 48 56  1  0  0  0
 48 65  1  0  0  0
 48121  1  0  0  0
 49 50  1  0  0  0
 49 53  1  0  0  0
 49 64  1  0  0  0
 49122  1  0  0  0
 50 51  1  0  0  0
 50123  1  0  0  0
 50124  1  0  0  0
 51 52  1  0  0  0
 51125  1  0  0  0
 51126  1  0  0  0
 52127  1  0  0  0
 52128  1  0  0  0
 53 54  1  0  0  0
 54 55  2  0  0  0
 54129  1  0  0  0
 55 57  1  0  0  0
 55130  1  0  0  0
 56 69  2  0  0  0
 57 58  2  0  0  0
 57131  1  0  0  0
 58132  1  0  0  0
 59 60  1  0  0  0
 59 61  1  0  0  0
 59 62  1  0  0  0
 60133  1  0  0  0
 60134  1  0  0  0
 60135  1  0  0  0
 61136  1  0  0  0
 61137  1  0  0  0
 61138  1  0  0  0
 62139  1  0  0  0
 62140  1  0  0  0
 62141  1  0  0  0
 63 65  1  0  0  0
 63142  1  0  0  0
 63143  1  0  0  0
 63144  1  0  0  0
 64145  1  0  0  0
 65146  1  0  0  0
 68 81  1  0  0  0
 71 72  2  0  0  0
 71 76  1  0  0  0
 71147  1  0  0  0
 72 73  1  0  0  0
 72 85  1  0  0  0
 73 74  2  0  0  0
 73 82  1  0  0  0
 74 75  1  0  0  0
 74 83  1  0  0  0
 75 76  2  0  0  0
 75 84  1  0  0  0
 76 86  1  0  0  0
 77 78  2  0  0  0
 77 79  1  0  0  0
 77 87  1  0  0  0
 78148  1  0  0  0
 78149  1  0  0  0
 79 81  1  0  0  0
 79150  1  0  0  0
 79151  1  0  0  0
 80 81  1  0  0  0
 80 87  1  0  0  0
 80152  1  0  0  0
 80153  1  0  0  0
 81154  1  0  0  0
 82155  1  0  0  0
 82156  1  0  0  0
 82157  1  0  0  0
 83158  1  0  0  0
 83159  1  0  0  0
 83160  1  0  0  0
 84161  1  0  0  0
 84162  1  0  0  0
 84163  1  0  0  0
 85164  1  0  0  0
 85165  1  0  0  0
 85 87  1  0  0  0
 86166  1  0  0  0
 87167  1  0  0  0
M  CHG  1  87   1
M  ISO  4   1 100  68 101  81 101  86 100
M  END
> <chiral flag>
0

> <version>
0

> <s_m_source_file>
/data/baiqing/PycharmProjects/Reinvent-master-3.2/result/LINK_invent/BTK/process_docking_weight1_custom_product_contain_oxygen_bond_distance_aromatic_linkinvent_7_9_3/rearranged_h_0033.sdf

> <i_m_source_file_index>
22

> <r_mmod_Potential_Energy-OPLS-2005>
165.2548828125

> <r_mmod_Stretch_Energy-OPLS-2005>
140.865097045898

> <r_mmod_Bend_Energy-OPLS-2005>
219.369750976562

> <r_mmod_Torsional_Energy-OPLS-2005>
280.155059814453

> <r_mmod_Improper_Torsional_Energy-OPLS-2005>
10.47718334198

> <r_mmod_Van_der_Waal_Energy-OPLS-2005>
148.616912841797

> <r_mmod_Electrostatic_Energy-OPLS-2005>
-307.704986572266

> <r_mmod_Solvation_Energy-OPLS-2005>
-426.123748779297

> <b_mmod_Minimization_Converged-OPLS-2005>
0

> <r_mmod_RMS_Derivative-OPLS-2005>
4.54125881195068

$$$$
22
                    3D
 Structure written by MMmdl.
166175  0  0  1  0            999 V2000
  -30.6428  -14.5418   20.5129 C   0  0  0  0  0  0
  -30.4317  -12.3241   19.4500 C   0  0  0  0  0  0
  -29.5065  -12.4895   18.2228 C   0  0  0  0  0  0
  -28.0227  -12.3612   18.6263 C   0  0  0  0  0  0
  -27.6588  -13.2117   19.8733 C   0  0  2  0  0  0
  -28.6987  -13.0154   21.0018 C   0  0  0  0  0  0
  -25.2573  -13.8179   20.5703 C   0  0  0  0  0  0
  -24.1833  -13.0445   20.9182 C   0  0  0  0  0  0
  -24.6403  -11.6923   20.8730 C   0  0  0  0  0  0
  -23.9093  -10.4288   21.0384 C   0  0  0  0  0  0
  -24.3649   -9.4215   21.9159 C   0  0  0  0  0  0
  -23.6337   -8.2239   22.0742 C   0  0  0  0  0  0
  -22.4302   -8.0291   21.3561 C   0  0  0  0  0  0
  -21.9928   -9.0261   20.4660 C   0  0  0  0  0  0
  -22.7261  -10.2137   20.3050 C   0  0  0  0  0  0
  -21.6868   -6.0750   22.5275 C   0  0  0  0  0  0
  -21.4032   -6.5649   23.8206 C   0  0  0  0  0  0
  -21.3659   -5.6798   24.9165 C   0  0  0  0  0  0
  -21.6043   -4.3063   24.7210 C   0  0  0  0  0  0
  -21.8814   -3.8160   23.4340 C   0  0  0  0  0  0
  -21.9198   -4.6978   22.3397 C   0  0  0  0  0  0
  -22.7839  -13.5243   21.1834 C   0  0  0  0  0  0
  -22.1661   -4.2163   21.0969 F   0  0  0  0  0  0
  -21.5631   -3.4549   25.7738 F   0  0  0  0  0  0
  -30.0296  -13.3239   20.4520 N   0  0  0  0  0  0
  -26.3013  -12.9356   20.3356 N   0  0  0  0  0  0
  -25.9328  -11.6524   20.5754 N   0  0  0  0  0  0
  -22.0482  -12.8248   22.0395 N   0  0  0  0  0  0
  -25.4251  -15.1904   20.4107 N   0  0  0  0  0  0
  -31.7716  -14.7411   20.0589 O   0  0  0  0  0  0
  -21.6671   -6.8887   21.4238 O   0  0  0  0  0  0
  -22.3509  -14.5520   20.6654 O   0  0  0  0  0  0
  -24.6187  -31.8682   23.2127 C   0  0  0  0  0  0
  -25.9068  -32.4823   23.8406 C   0  0  1  0  0  0
  -27.2174  -27.3920   20.1125 C   0  0  0  0  0  0
  -25.5909  -33.8626   24.2330 N   0  0  0  0  0  0
  -23.4067  -30.4957   21.5545 C   0  0  2  0  0  0
  -24.8499  -28.9631   20.1201 C   0  0  0  0  0  0
  -22.7433  -29.4663   22.4984 C   0  0  0  0  0  0
  -18.0280  -28.1383   22.8488 C   0  0  0  0  0  0
  -24.1486  -36.7300   23.2634 C   0  0  0  0  0  0
  -25.9410  -30.8249   21.3708 C   0  0  0  0  0  0
  -26.0164  -29.4562   20.7180 C   0  0  0  0  0  0
  -27.2065  -28.6821   20.7058 C   0  0  0  0  0  0
  -26.0347  -26.9407   19.4858 C   0  0  0  0  0  0
  -24.8560  -27.7052   19.5006 C   0  0  0  0  0  0
  -23.6178  -29.8393   20.1665 C   0  0  0  0  0  0
  -25.4111  -36.3113   24.0336 C   0  0  1  0  0  0
  -20.5870  -28.3667   23.1314 C   0  0  2  0  0  0
  -20.6769  -26.9398   22.5421 C   0  0  0  0  0  0
  -19.5745  -26.6384   21.5213 C   0  0  0  0  0  0
  -18.1924  -26.7933   22.1611 C   0  0  0  0  0  0
  -19.1526  -28.8845   23.2903 C   0  0  0  0  0  0
  -18.9455  -30.1450   23.8915 C   0  0  0  0  0  0
  -17.6455  -30.6584   24.0570 C   0  0  0  0  0  0
  -25.9049  -34.9477   23.5132 C   0  0  0  0  0  0
  -16.5350  -29.9085   23.6325 C   0  0  0  0  0  0
  -16.7270  -28.6504   23.0349 C   0  0  0  0  0  0
  -26.4496  -31.6604   25.0731 C   0  0  0  0  0  0
  -25.3761  -31.3718   26.1477 C   0  0  0  0  0  0
  -27.0321  -30.3041   24.6116 C   0  0  0  0  0  0
  -27.6072  -32.4332   25.7484 C   0  0  0  0  0  0
  -27.5587  -37.1799   24.8463 C   0  0  0  0  0  0
  -21.4157  -29.3024   22.3709 N   0  0  0  0  0  0
  -26.4292  -37.3801   23.9424 N   0  0  0  0  0  0
  -24.6738  -31.0780   22.1035 N   0  0  0  0  0  0
  -23.4198  -28.8188   23.3014 O   0  0  0  0  0  0
  -28.3644  -26.6112   20.0812 O   0  0  0  0  0  0
  -26.5604  -34.8928   22.4700 O   0  0  0  0  0  0
  -23.5368  -32.1442   23.7495 O   0  0  0  0  0  0
  -30.8154  -18.1401   22.0058 C   0  0  0  0  0  0
  -30.0830  -18.1747   20.8052 C   0  0  0  0  0  0
  -29.7837  -19.4541   20.2207 C   0  0  0  0  0  0
  -30.3023  -20.6673   20.7923 C   0  0  0  0  0  0
  -31.1175  -20.5715   21.9600 C   0  0  0  0  0  0
  -31.3204  -19.3147   22.5796 C   0  0  0  0  0  0
  -27.3068  -24.2740   20.3471 C   0  0  0  0  0  0
  -27.8576  -22.9398   20.8733 C   0  0  0  0  0  0
  -29.6397  -24.5054   20.5822 C   0  0  0  0  0  0
  -28.3419  -25.3259   20.7752 C   0  0  1  0  0  0
  -28.9211  -19.5325   18.9574 C   0  0  0  0  0  0
  -31.8262  -21.7817   22.5693 C   0  0  0  0  0  0
  -29.6686  -16.8398   20.1422 C   0  0  0  0  0  0
  -30.0908  -22.0549   20.1140 C   0  0  0  0  0  0
  -29.8290  -15.5597   20.8739 N   0  0  0  0  0  0
  -29.3310  -23.0742   20.9108 N   0  3  2  0  0  0
  -32.2058  -19.1858   24.0598 Cl  0  0  0  0  0  0
  -31.4776  -12.4255   19.1556 H   0  0  0  0  0  0
  -30.3409  -11.3207   19.8709 H   0  0  0  0  0  0
  -29.7496  -11.7405   17.4662 H   0  0  0  0  0  0
  -29.6767  -13.4588   17.7520 H   0  0  0  0  0  0
  -27.8158  -11.3081   18.8269 H   0  0  0  0  0  0
  -27.3841  -12.6364   17.7858 H   0  0  0  0  0  0
  -27.6930  -14.2559   19.5586 H   0  0  0  0  0  0
  -28.6787  -11.9860   21.3668 H   0  0  0  0  0  0
  -28.4558  -13.6349   21.8676 H   0  0  0  0  0  0
  -25.2798   -9.5713   22.4732 H   0  0  0  0  0  0
  -24.0059   -7.4648   22.7490 H   0  0  0  0  0  0
  -21.0840   -8.8788   19.9004 H   0  0  0  0  0  0
  -22.3694  -10.9680   19.6181 H   0  0  0  0  0  0
  -21.1994   -7.6151   23.9709 H   0  0  0  0  0  0
  -21.1504   -6.0522   25.9061 H   0  0  0  0  0  0
  -22.0584   -2.7625   23.2815 H   0  0  0  0  0  0
  -22.4122  -11.9983   22.4869 H   0  0  0  0  0  0
  -21.1080  -13.1268   22.2563 H   0  0  0  0  0  0
  -24.6537  -15.8435   20.5082 H   0  0  0  0  0  0
  -26.2662  -15.6283   20.0621 H   0  0  0  0  0  0
  -26.7132  -32.5528   23.1157 H   0  0  0  0  0  0
  -25.0057  -33.9801   25.0469 H   0  0  0  0  0  0
  -22.6943  -31.3125   21.4191 H   0  0  0  0  0  0
  -23.3763  -35.9618   23.3302 H   0  0  0  0  0  0
  -24.3577  -36.8918   22.2048 H   0  0  0  0  0  0
  -23.7218  -37.6497   23.6652 H   0  0  0  0  0  0
  -26.0613  -31.5945   20.6073 H   0  0  0  0  0  0
  -26.8256  -30.8740   21.9941 H   0  0  0  0  0  0
  -28.1085  -29.0673   21.1618 H   0  0  0  0  0  0
  -26.0023  -25.9984   18.9650 H   0  0  0  0  0  0
  -23.9639  -27.3255   19.0227 H   0  0  0  0  0  0
  -23.7367  -30.6203   19.4135 H   0  0  0  0  0  0
  -22.7382  -29.2702   19.8605 H   0  0  0  0  0  0
  -25.1287  -36.1973   25.0824 H   0  0  0  0  0  0
  -20.9971  -28.3239   24.1433 H   0  0  0  0  0  0
  -20.5669  -26.2276   23.3615 H   0  0  0  0  0  0
  -21.6647  -26.7442   22.1220 H   0  0  0  0  0  0
  -19.6917  -25.6302   21.1236 H   0  0  0  0  0  0
  -19.6705  -27.3209   20.6748 H   0  0  0  0  0  0
  -17.4208  -26.6705   21.3995 H   0  0  0  0  0  0
  -18.0307  -26.0061   22.8994 H   0  0  0  0  0  0
  -19.7941  -30.7252   24.2300 H   0  0  0  0  0  0
  -17.5024  -31.6264   24.5172 H   0  0  0  0  0  0
  -15.5360  -30.2998   23.7647 H   0  0  0  0  0  0
  -15.8668  -28.0832   22.7064 H   0  0  0  0  0  0
  -24.5922  -30.7081   25.7816 H   0  0  0  0  0  0
  -24.8962  -32.2873   26.4939 H   0  0  0  0  0  0
  -25.8104  -30.8870   27.0226 H   0  0  0  0  0  0
  -26.2856  -29.6796   24.1193 H   0  0  0  0  0  0
  -27.4110  -29.7291   25.4573 H   0  0  0  0  0  0
  -27.8692  -30.4352   23.9258 H   0  0  0  0  0  0
  -27.2686  -33.3613   26.2106 H   0  0  0  0  0  0
  -28.3844  -32.6934   25.0286 H   0  0  0  0  0  0
  -28.0789  -31.8438   26.5359 H   0  0  0  0  0  0
  -28.2606  -38.0096   24.7537 H   0  0  0  0  0  0
  -28.1080  -36.2634   24.6251 H   0  0  0  0  0  0
  -27.2312  -37.1413   25.8865 H   0  0  0  0  0  0
  -20.9326  -29.8735   21.6916 H   0  0  0  0  0  0
  -26.0179  -38.2875   24.1457 H   0  0  0  0  0  0
  -31.0228  -17.1999   22.4953 H   0  0  0  0  0  0
  -26.3074  -24.4742   20.7337 H   0  0  0  0  0  0
  -27.2545  -24.2225   19.2586 H   0  0  0  0  0  0
  -27.5150  -22.0976   20.2727 H   0  0  0  0  0  0
  -27.5065  -22.7690   21.8932 H   0  0  0  0  0  0
  -30.4571  -24.8893   21.1929 H   0  0  0  0  0  0
  -29.9526  -24.5790   19.5394 H   0  0  0  0  0  0
  -28.2167  -25.5244   21.8408 H   0  0  0  0  0  0
  -28.5276  -18.5786   18.6162 H   0  0  0  0  0  0
  -29.4908  -19.9491   18.1258 H   0  0  0  0  0  0
  -28.0466  -20.1600   19.1278 H   0  0  0  0  0  0
  -31.3544  -22.0851   23.5042 H   0  0  0  0  0  0
  -31.8958  -22.6493   21.9157 H   0  0  0  0  0  0
  -32.8595  -21.5151   22.7970 H   0  0  0  0  0  0
  -30.1608  -16.7715   19.1696 H   0  0  0  0  0  0
  -28.6024  -16.8934   19.9290 H   0  0  0  0  0  0
  -29.6317  -21.9752   19.1308 H   0  0  0  0  0  0
  -31.0833  -22.4491   19.8965 H   0  0  0  0  0  0
  -28.9910  -15.2548   21.3437 H   0  0  0  0  0  0
  -29.5951  -22.9291   21.8749 H   0  0  0  0  0  0
  1 25  1  0  0  0
  1 30  2  0  0  0
  1 85  1  0  0  0
  2  3  1  0  0  0
  2 25  1  0  0  0
  2 88  1  0  0  0
  2 89  1  0  0  0
  3  4  1  0  0  0
  3 90  1  0  0  0
  3 91  1  0  0  0
  4  5  1  0  0  0
  4 92  1  0  0  0
  4 93  1  0  0  0
  5  6  1  0  0  0
  5 26  1  0  0  0
  5 94  1  0  0  0
  6 25  1  0  0  0
  6 95  1  0  0  0
  6 96  1  0  0  0
  7  8  2  0  0  0
  7 26  1  0  0  0
  7 29  1  0  0  0
  8  9  1  0  0  0
  8 22  1  0  0  0
  9 10  1  0  0  0
  9 27  2  0  0  0
 10 11  2  0  0  0
 10 15  1  0  0  0
 11 12  1  0  0  0
 11 97  1  0  0  0
 12 13  2  0  0  0
 12 98  1  0  0  0
 13 14  1  0  0  0
 13 31  1  0  0  0
 14 15  2  0  0  0
 14 99  1  0  0  0
 15100  1  0  0  0
 16 17  2  0  0  0
 16 21  1  0  0  0
 16 31  1  0  0  0
 17 18  1  0  0  0
 17101  1  0  0  0
 18 19  2  0  0  0
 18102  1  0  0  0
 19 20  1  0  0  0
 19 24  1  0  0  0
 20 21  2  0  0  0
 20103  1  0  0  0
 21 23  1  0  0  0
 22 28  1  0  0  0
 22 32  2  0  0  0
 26 27  1  0  0  0
 28104  1  0  0  0
 28105  1  0  0  0
 29106  1  0  0  0
 29107  1  0  0  0
 33 34  1  0  0  0
 33 66  1  0  0  0
 33 70  2  0  0  0
 34 36  1  0  0  0
 34 59  1  0  0  0
 34108  1  0  0  0
 35 44  2  0  0  0
 35 45  1  0  0  0
 35 68  1  0  0  0
 36 56  1  0  0  0
 36109  1  0  0  0
 37 39  1  0  0  0
 37 47  1  0  0  0
 37 66  1  0  0  0
 37110  1  0  0  0
 38 43  2  0  0  0
 38 46  1  0  0  0
 38 47  1  0  0  0
 39 64  1  0  0  0
 39 67  2  0  0  0
 40 52  1  0  0  0
 40 53  2  0  0  0
 40 58  1  0  0  0
 41111  1  0  0  0
 41112  1  0  0  0
 41113  1  0  0  0
 41 48  1  0  0  0
 42 43  1  0  0  0
 42 66  1  0  0  0
 42114  1  0  0  0
 42115  1  0  0  0
 43 44  1  0  0  0
 44116  1  0  0  0
 45 46  2  0  0  0
 45117  1  0  0  0
 46118  1  0  0  0
 47119  1  0  0  0
 47120  1  0  0  0
 48 56  1  0  0  0
 48 65  1  0  0  0
 48121  1  0  0  0
 49 50  1  0  0  0
 49 53  1  0  0  0
 49 64  1  0  0  0
 49122  1  0  0  0
 50 51  1  0  0  0
 50123  1  0  0  0
 50124  1  0  0  0
 51 52  1  0  0  0
 51125  1  0  0  0
 51126  1  0  0  0
 52127  1  0  0  0
 52128  1  0  0  0
 53 54  1  0  0  0
 54 55  2  0  0  0
 54129  1  0  0  0
 55 57  1  0  0  0
 55130  1  0  0  0
 56 69  2  0  0  0
 57 58  2  0  0  0
 57131  1  0  0  0
 58132  1  0  0  0
 59 60  1  0  0  0
 59 61  1  0  0  0
 59 62  1  0  0  0
 60133  1  0  0  0
 60134  1  0  0  0
 60135  1  0  0  0
 61136  1  0  0  0
 61137  1  0  0  0
 61138  1  0  0  0
 62139  1  0  0  0
 62140  1  0  0  0
 62141  1  0  0  0
 63 65  1  0  0  0
 63142  1  0  0  0
 63143  1  0  0  0
 63144  1  0  0  0
 64145  1  0  0  0
 65146  1  0  0  0
 68 80  1  0  0  0
 71 72  2  0  0  0
 71 76  1  0  0  0
 71147  1  0  0  0
 72 73  1  0  0  0
 72 83  1  0  0  0
 73 74  2  0  0  0
 73 81  1  0  0  0
 74 75  1  0  0  0
 74 84  1  0  0  0
 75 76  2  0  0  0
 75 82  1  0  0  0
 76 87  1  0  0  0
 77 78  1  0  0  0
 77 80  1  0  0  0
 77148  1  0  0  0
 77149  1  0  0  0
 78 86  1  0  0  0
 78150  1  0  0  0
 78151  1  0  0  0
 79 80  1  0  0  0
 79 86  1  0  0  0
 79152  1  0  0  0
 79153  1  0  0  0
 80154  1  0  0  0
 81155  1  0  0  0
 81156  1  0  0  0
 81157  1  0  0  0
 82158  1  0  0  0
 82159  1  0  0  0
 82160  1  0  0  0
 83 85  1  0  0  0
 83161  1  0  0  0
 83162  1  0  0  0
 84163  1  0  0  0
 84164  1  0  0  0
 84 86  1  0  0  0
 85165  1  0  0  0
 86166  1  0  0  0
M  CHG  1  86   1
M  ISO  4   1 100  68 101  80 101  85 100
M  END
> <chiral flag>
0

> <version>
0

> <s_m_source_file>
/data/baiqing/PycharmProjects/Reinvent-master-3.2/result/LINK_invent/BTK/process_docking_weight1_custom_product_contain_oxygen_bond_distance_aromatic_linkinvent_7_9_3/rearranged_h_0033.sdf

> <i_m_source_file_index>
23

> <r_mmod_Potential_Energy-OPLS-2005>
-95.6752548217773

> <r_mmod_Stretch_Energy-OPLS-2005>
54.4065361022949

> <r_mmod_Bend_Energy-OPLS-2005>
139.509811401367

> <r_mmod_Torsional_Energy-OPLS-2005>
288.102325439453

> <r_mmod_Improper_Torsional_Energy-OPLS-2005>
8.82370948791504

> <r_mmod_Van_der_Waal_Energy-OPLS-2005>
156.094207763672

> <r_mmod_Electrostatic_Energy-OPLS-2005>
-324.397552490234

> <r_mmod_Solvation_Energy-OPLS-2005>
-440.338623046875

> <b_mmod_Minimization_Converged-OPLS-2005>
0

> <r_mmod_RMS_Derivative-OPLS-2005>
3.81626677513123

$$$$
23
                    3D
 Structure written by MMmdl.
161170  0  0  1  0            999 V2000
  -30.6076  -14.7553   20.4801 C   0  0  0  0  0  0
  -30.4226  -12.4618   19.4826 C   0  0  0  0  0  0
  -29.5081  -12.5046   18.2382 C   0  0  0  0  0  0
  -28.0333  -12.3265   18.6464 C   0  0  0  0  0  0
  -27.6350  -13.2306   19.8456 C   0  0  2  0  0  0
  -28.6759  -13.1734   20.9848 C   0  0  0  0  0  0
  -25.2488  -13.8219   20.5752 C   0  0  0  0  0  0
  -24.1770  -13.0465   20.9219 C   0  0  0  0  0  0
  -24.6350  -11.6934   20.8737 C   0  0  0  0  0  0
  -23.9033  -10.4304   21.0391 C   0  0  0  0  0  0
  -24.3598   -9.4224   21.9176 C   0  0  0  0  0  0
  -23.6281   -8.2252   22.0752 C   0  0  0  0  0  0
  -22.4268   -8.0277   21.3538 C   0  0  0  0  0  0
  -21.9891   -9.0240   20.4643 C   0  0  0  0  0  0
  -22.7201  -10.2135   20.3043 C   0  0  0  0  0  0
  -21.6852   -6.0743   22.5287 C   0  0  0  0  0  0
  -21.4019   -6.5641   23.8222 C   0  0  0  0  0  0
  -21.3655   -5.6790   24.9172 C   0  0  0  0  0  0
  -21.6040   -4.3054   24.7220 C   0  0  0  0  0  0
  -21.8813   -3.8148   23.4338 C   0  0  0  0  0  0
  -21.9192   -4.6973   22.3399 C   0  0  0  0  0  0
  -22.7798  -13.5252   21.1873 C   0  0  0  0  0  0
  -22.1667   -4.2167   21.0975 F   0  0  0  0  0  0
  -21.5611   -3.4529   25.7726 F   0  0  0  0  0  0
  -29.9746  -13.5315   20.4053 N   0  0  0  0  0  0
  -26.2881  -12.9407   20.3248 N   0  0  0  0  0  0
  -25.9272  -11.6557   20.5706 N   0  0  0  0  0  0
  -22.0429  -12.8248   22.0421 N   0  0  0  0  0  0
  -25.4215  -15.1962   20.4324 N   0  0  0  0  0  0
  -31.7965  -14.8230   20.1574 O   0  0  0  0  0  0
  -21.6625   -6.8887   21.4249 O   0  0  0  0  0  0
  -22.3479  -14.5546   20.6700 O   0  0  0  0  0  0
  -24.6323  -31.8499   23.1926 C   0  0  0  0  0  0
  -25.9161  -32.4718   23.8290 C   0  0  1  0  0  0
  -27.2345  -27.2514   20.1349 C   0  0  0  0  0  0
  -25.5970  -33.8536   24.2234 N   0  0  0  0  0  0
  -23.4283  -30.4670   21.5364 C   0  0  2  0  0  0
  -24.8738  -28.8990   20.1124 C   0  0  0  0  0  0
  -22.7515  -29.4555   22.4921 C   0  0  0  0  0  0
  -18.0289  -28.1393   22.8500 C   0  0  0  0  0  0
  -24.1467  -36.7231   23.2642 C   0  0  0  0  0  0
  -25.9697  -30.7611   21.3674 C   0  0  0  0  0  0
  -26.0413  -29.3779   20.7174 C   0  0  0  0  0  0
  -27.2184  -28.5688   20.7080 C   0  0  0  0  0  0
  -26.0404  -26.8222   19.5192 C   0  0  0  0  0  0
  -24.8790  -27.6295   19.5048 C   0  0  0  0  0  0
  -23.6449  -29.7905   20.1539 C   0  0  0  0  0  0
  -25.4113  -36.3045   24.0322 C   0  0  1  0  0  0
  -20.5897  -28.3661   23.1297 C   0  0  2  0  0  0
  -20.6775  -26.9383   22.5407 C   0  0  0  0  0  0
  -19.5734  -26.6378   21.5220 C   0  0  0  0  0  0
  -18.1926  -26.7930   22.1630 C   0  0  0  0  0  0
  -19.1551  -28.8854   23.2887 C   0  0  0  0  0  0
  -18.9467  -30.1462   23.8891 C   0  0  0  0  0  0
  -17.6473  -30.6589   24.0569 C   0  0  0  0  0  0
  -25.9071  -34.9424   23.5078 C   0  0  0  0  0  0
  -16.5360  -29.9098   23.6337 C   0  0  0  0  0  0
  -16.7275  -28.6521   23.0361 C   0  0  0  0  0  0
  -26.4534  -31.6555   25.0698 C   0  0  0  0  0  0
  -25.3774  -31.3716   26.1425 C   0  0  0  0  0  0
  -27.0380  -30.2969   24.6200 C   0  0  0  0  0  0
  -27.6075  -32.4295   25.7509 C   0  0  0  0  0  0
  -27.5554  -37.1787   24.8484 C   0  0  0  0  0  0
  -21.4222  -29.3003   22.3682 N   0  0  0  0  0  0
  -26.4266  -37.3768   23.9423 N   0  0  0  0  0  0
  -24.6958  -31.0467   22.0885 N   0  0  0  0  0  0
  -23.4230  -28.8126   23.3036 O   0  0  0  0  0  0
  -28.4036  -26.4616   20.1901 O   0  0  0  0  0  0
  -26.5611  -34.8912   22.4628 O   0  0  0  0  0  0
  -23.5482  -32.1324   23.7237 O   0  0  0  0  0  0
  -29.2919  -18.4869   20.7015 C   0  0  0  0  0  0
  -31.5586  -17.7068   21.0069 C   0  0  0  0  0  0
  -29.6839  -19.8930   20.8456 C   0  0  0  0  0  0
  -31.0656  -20.1250   21.1101 C   0  0  0  0  0  0
  -30.2114  -17.3531   20.7811 C   0  0  0  0  0  0
  -31.9807  -19.0397   21.1570 C   0  0  0  0  0  0
  -28.7490  -22.7722   18.8198 C   0  0  0  0  0  0
  -28.9255  -21.8340   17.8723 C   0  0  0  0  0  0
  -28.3749  -24.2628   18.6133 C   0  0  0  0  0  0
  -28.4133  -23.7748   20.9573 C   0  0  0  0  0  0
  -28.6246  -24.9798   19.9534 C   0  0  2  0  0  0
  -31.5857  -21.5347   21.3847 C   0  0  0  0  0  0
  -28.6406  -21.1235   20.8709 C   0  0  0  0  0  0
  -29.8384  -15.9032   20.6969 N   0  0  0  0  0  0
  -28.9732  -22.5217   20.2861 N   0  3  1  0  0  0
  -33.6736  -19.2892   21.4269 Cl  0  0  0  0  0  0
  -31.4659  -12.5781   19.1859 H   0  0  0  0  0  0
  -30.3622  -11.4886   19.9726 H   0  0  0  0  0  0
  -29.7941  -11.7227   17.5331 H   0  0  0  0  0  0
  -29.6329  -13.4529   17.7139 H   0  0  0  0  0  0
  -27.8893  -11.2778   18.9119 H   0  0  0  0  0  0
  -27.3783  -12.5132   17.7954 H   0  0  0  0  0  0
  -27.6280  -14.2500   19.4599 H   0  0  0  0  0  0
  -28.7153  -12.1761   21.4251 H   0  0  0  0  0  0
  -28.4004  -13.8531   21.7935 H   0  0  0  0  0  0
  -25.2748   -9.5710   22.4751 H   0  0  0  0  0  0
  -24.0001   -7.4653   22.7482 H   0  0  0  0  0  0
  -21.0816   -8.8727   19.8966 H   0  0  0  0  0  0
  -22.3640  -10.9655   19.6142 H   0  0  0  0  0  0
  -21.2031   -7.6158   23.9723 H   0  0  0  0  0  0
  -21.1480   -6.0522   25.9078 H   0  0  0  0  0  0
  -22.0603   -2.7614   23.2822 H   0  0  0  0  0  0
  -22.4008  -11.9936   22.4880 H   0  0  0  0  0  0
  -21.1046  -13.1299   22.2574 H   0  0  0  0  0  0
  -24.6627  -15.8537   20.5753 H   0  0  0  0  0  0
  -26.2814  -15.6437   20.1468 H   0  0  0  0  0  0
  -26.7245  -32.5343   23.1048 H   0  0  0  0  0  0
  -25.0224  -33.9682   25.0451 H   0  0  0  0  0  0
  -22.7250  -31.2873   21.3867 H   0  0  0  0  0  0
  -23.3744  -35.9545   23.3328 H   0  0  0  0  0  0
  -24.3540  -36.8826   22.2049 H   0  0  0  0  0  0
  -23.7199  -37.6439   23.6637 H   0  0  0  0  0  0
  -26.1080  -31.5160   20.5916 H   0  0  0  0  0  0
  -26.8487  -30.8130   21.9977 H   0  0  0  0  0  0
  -28.1195  -28.9427   21.1751 H   0  0  0  0  0  0
  -25.9857  -25.8509   19.0545 H   0  0  0  0  0  0
  -23.9839  -27.2548   19.0292 H   0  0  0  0  0  0
  -23.7694  -30.5633   19.3931 H   0  0  0  0  0  0
  -22.7609  -29.2234   19.8536 H   0  0  0  0  0  0
  -25.1294  -36.1883   25.0812 H   0  0  0  0  0  0
  -20.9970  -28.3224   24.1429 H   0  0  0  0  0  0
  -20.5672  -26.2270   23.3604 H   0  0  0  0  0  0
  -21.6637  -26.7404   22.1184 H   0  0  0  0  0  0
  -19.6885  -25.6270   21.1295 H   0  0  0  0  0  0
  -19.6682  -27.3183   20.6753 H   0  0  0  0  0  0
  -17.4204  -26.6693   21.4015 H   0  0  0  0  0  0
  -18.0289  -26.0068   22.9020 H   0  0  0  0  0  0
  -19.7947  -30.7284   24.2244 H   0  0  0  0  0  0
  -17.5020  -31.6252   24.5194 H   0  0  0  0  0  0
  -15.5366  -30.3005   23.7660 H   0  0  0  0  0  0
  -15.8670  -28.0855   22.7074 H   0  0  0  0  0  0
  -24.5967  -30.7030   25.7778 H   0  0  0  0  0  0
  -24.8945  -32.2886   26.4818 H   0  0  0  0  0  0
  -25.8114  -30.8941   27.0220 H   0  0  0  0  0  0
  -26.2944  -29.6724   24.1224 H   0  0  0  0  0  0
  -27.4063  -29.7244   25.4727 H   0  0  0  0  0  0
  -27.8832  -30.4240   23.9425 H   0  0  0  0  0  0
  -27.2674  -33.3607   26.2053 H   0  0  0  0  0  0
  -28.3937  -32.6840   25.0388 H   0  0  0  0  0  0
  -28.0679  -31.8432   26.5476 H   0  0  0  0  0  0
  -28.2617  -38.0041   24.7504 H   0  0  0  0  0  0
  -28.1000  -36.2587   24.6337 H   0  0  0  0  0  0
  -27.2270  -37.1463   25.8886 H   0  0  0  0  0  0
  -20.9367  -29.8712   21.6905 H   0  0  0  0  0  0
  -26.0132  -38.2832   24.1446 H   0  0  0  0  0  0
  -28.2418  -18.2735   20.5558 H   0  0  0  0  0  0
  -32.3212  -16.9510   21.1004 H   0  0  0  0  0  0
  -28.7819  -22.0641   16.8268 H   0  0  0  0  0  0
  -29.2200  -20.8221   18.1098 H   0  0  0  0  0  0
  -27.3326  -24.3137   18.3039 H   0  0  0  0  0  0
  -28.9776  -24.6990   17.8169 H   0  0  0  0  0  0
  -27.3482  -23.6418   21.1475 H   0  0  0  0  0  0
  -28.9060  -23.9516   21.9136 H   0  0  0  0  0  0
  -29.7142  -25.0490   19.9516 H   0  0  0  0  0  0
  -30.9208  -22.0824   22.0524 H   0  0  0  0  0  0
  -31.7113  -22.0828   20.4521 H   0  0  0  0  0  0
  -32.5488  -21.5423   21.8952 H   0  0  0  0  0  0
  -28.4364  -21.2864   21.9297 H   0  0  0  0  0  0
  -27.6901  -20.7883   20.4568 H   0  0  0  0  0  0
  -28.8553  -15.7096   20.8014 H   0  0  0  0  0  0
  -29.9687  -22.5832   20.4448 H   0  0  0  0  0  0
  1 25  1  0  0  0
  1 30  2  0  0  0
  1 84  1  0  0  0
  2  3  1  0  0  0
  2 25  1  0  0  0
  2 87  1  0  0  0
  2 88  1  0  0  0
  3  4  1  0  0  0
  3 89  1  0  0  0
  3 90  1  0  0  0
  4  5  1  0  0  0
  4 91  1  0  0  0
  4 92  1  0  0  0
  5  6  1  0  0  0
  5 26  1  0  0  0
  5 93  1  0  0  0
  6 25  1  0  0  0
  6 94  1  0  0  0
  6 95  1  0  0  0
  7  8  2  0  0  0
  7 26  1  0  0  0
  7 29  1  0  0  0
  8  9  1  0  0  0
  8 22  1  0  0  0
  9 10  1  0  0  0
  9 27  2  0  0  0
 10 11  2  0  0  0
 10 15  1  0  0  0
 11 12  1  0  0  0
 11 96  1  0  0  0
 12 13  2  0  0  0
 12 97  1  0  0  0
 13 14  1  0  0  0
 13 31  1  0  0  0
 14 15  2  0  0  0
 14 98  1  0  0  0
 15 99  1  0  0  0
 16 17  2  0  0  0
 16 21  1  0  0  0
 16 31  1  0  0  0
 17 18  1  0  0  0
 17100  1  0  0  0
 18 19  2  0  0  0
 18101  1  0  0  0
 19 20  1  0  0  0
 19 24  1  0  0  0
 20 21  2  0  0  0
 20102  1  0  0  0
 21 23  1  0  0  0
 22 28  1  0  0  0
 22 32  2  0  0  0
 26 27  1  0  0  0
 28103  1  0  0  0
 28104  1  0  0  0
 29105  1  0  0  0
 29106  1  0  0  0
 33 34  1  0  0  0
 33 66  1  0  0  0
 33 70  2  0  0  0
 34 36  1  0  0  0
 34 59  1  0  0  0
 34107  1  0  0  0
 35 44  2  0  0  0
 35 45  1  0  0  0
 35 68  1  0  0  0
 36 56  1  0  0  0
 36108  1  0  0  0
 37 39  1  0  0  0
 37 47  1  0  0  0
 37 66  1  0  0  0
 37109  1  0  0  0
 38 43  2  0  0  0
 38 46  1  0  0  0
 38 47  1  0  0  0
 39 64  1  0  0  0
 39 67  2  0  0  0
 40 52  1  0  0  0
 40 53  2  0  0  0
 40 58  1  0  0  0
 41110  1  0  0  0
 41111  1  0  0  0
 41112  1  0  0  0
 41 48  1  0  0  0
 42 43  1  0  0  0
 42 66  1  0  0  0
 42113  1  0  0  0
 42114  1  0  0  0
 43 44  1  0  0  0
 44115  1  0  0  0
 45 46  2  0  0  0
 45116  1  0  0  0
 46117  1  0  0  0
 47118  1  0  0  0
 47119  1  0  0  0
 48 56  1  0  0  0
 48 65  1  0  0  0
 48120  1  0  0  0
 49 50  1  0  0  0
 49 53  1  0  0  0
 49 64  1  0  0  0
 49121  1  0  0  0
 50 51  1  0  0  0
 50122  1  0  0  0
 50123  1  0  0  0
 51 52  1  0  0  0
 51124  1  0  0  0
 51125  1  0  0  0
 52126  1  0  0  0
 52127  1  0  0  0
 53 54  1  0  0  0
 54 55  2  0  0  0
 54128  1  0  0  0
 55 57  1  0  0  0
 55129  1  0  0  0
 56 69  2  0  0  0
 57 58  2  0  0  0
 57130  1  0  0  0
 58131  1  0  0  0
 59 60  1  0  0  0
 59 61  1  0  0  0
 59 62  1  0  0  0
 60132  1  0  0  0
 60133  1  0  0  0
 60134  1  0  0  0
 61135  1  0  0  0
 61136  1  0  0  0
 61137  1  0  0  0
 62138  1  0  0  0
 62139  1  0  0  0
 62140  1  0  0  0
 63 65  1  0  0  0
 63141  1  0  0  0
 63142  1  0  0  0
 63143  1  0  0  0
 64144  1  0  0  0
 65145  1  0  0  0
 68 81  1  0  0  0
 71 73  2  0  0  0
 71 75  1  0  0  0
 71146  1  0  0  0
 72 75  2  0  0  0
 72 76  1  0  0  0
 72147  1  0  0  0
 73 74  1  0  0  0
 73 83  1  0  0  0
 74 76  2  0  0  0
 74 82  1  0  0  0
 75 84  1  0  0  0
 76 86  1  0  0  0
 77 78  2  0  0  0
 77 79  1  0  0  0
 77 85  1  0  0  0
 78148  1  0  0  0
 78149  1  0  0  0
 79 81  1  0  0  0
 79150  1  0  0  0
 79151  1  0  0  0
 80 81  1  0  0  0
 80 85  1  0  0  0
 80152  1  0  0  0
 80153  1  0  0  0
 81154  1  0  0  0
 82155  1  0  0  0
 82156  1  0  0  0
 82157  1  0  0  0
 83158  1  0  0  0
 83159  1  0  0  0
 83 85  1  0  0  0
 84160  1  0  0  0
 85161  1  0  0  0
M  CHG  1  85   1
M  ISO  4   1 100  68 101  81 101  84 100
M  END
> <chiral flag>
0

> <version>
0

> <s_m_source_file>
/data/baiqing/PycharmProjects/Reinvent-master-3.2/result/LINK_invent/BTK/process_docking_weight1_custom_product_contain_oxygen_bond_distance_aromatic_linkinvent_7_9_3/rearranged_h_0033.sdf

> <i_m_source_file_index>
24

> <r_mmod_Potential_Energy-OPLS-2005>
159.029861450195

> <r_mmod_Stretch_Energy-OPLS-2005>
135.824951171875

> <r_mmod_Bend_Energy-OPLS-2005>
270.590759277344

> <r_mmod_Torsional_Energy-OPLS-2005>
219.338851928711

> <r_mmod_Improper_Torsional_Energy-OPLS-2005>
5.22002363204956

> <r_mmod_Van_der_Waal_Energy-OPLS-2005>
136.697143554688

> <r_mmod_Electrostatic_Energy-OPLS-2005>
-241.565048217773

> <r_mmod_Solvation_Energy-OPLS-2005>
-450.281555175781

> <b_mmod_Minimization_Converged-OPLS-2005>
0

> <r_mmod_RMS_Derivative-OPLS-2005>
3.05847549438477

$$$$
24
                    3D
 Structure written by MMmdl.
169178  0  0  1  0            999 V2000
  -30.7049  -14.4778   20.5542 C   0  0  0  0  0  0
  -30.4159  -12.3036   19.4251 C   0  0  0  0  0  0
  -29.4935  -12.4956   18.2038 C   0  0  0  0  0  0
  -28.0126  -12.3652   18.6124 C   0  0  0  0  0  0
  -27.6580  -13.2105   19.8655 C   0  0  2  0  0  0
  -28.6998  -13.0100   20.9883 C   0  0  0  0  0  0
  -25.2566  -13.8183   20.5632 C   0  0  0  0  0  0
  -24.1833  -13.0441   20.9160 C   0  0  0  0  0  0
  -24.6403  -11.6914   20.8741 C   0  0  0  0  0  0
  -23.9074  -10.4295   21.0436 C   0  0  0  0  0  0
  -24.3627   -9.4208   21.9199 C   0  0  0  0  0  0
  -23.6287   -8.2252   22.0768 C   0  0  0  0  0  0
  -22.4273   -8.0293   21.3549 C   0  0  0  0  0  0
  -21.9923   -9.0275   20.4658 C   0  0  0  0  0  0
  -22.7254  -10.2146   20.3067 C   0  0  0  0  0  0
  -21.6836   -6.0745   22.5282 C   0  0  0  0  0  0
  -21.4013   -6.5656   23.8220 C   0  0  0  0  0  0
  -21.3641   -5.6803   24.9182 C   0  0  0  0  0  0
  -21.6038   -4.3070   24.7232 C   0  0  0  0  0  0
  -21.8810   -3.8161   23.4355 C   0  0  0  0  0  0
  -21.9192   -4.6974   22.3407 C   0  0  0  0  0  0
  -22.7850  -13.5239   21.1819 C   0  0  0  0  0  0
  -22.1657   -4.2170   21.0974 F   0  0  0  0  0  0
  -21.5622   -3.4539   25.7746 F   0  0  0  0  0  0
  -30.0265  -13.3058   20.4305 N   0  0  0  0  0  0
  -26.3002  -12.9357   20.3330 N   0  0  0  0  0  0
  -25.9328  -11.6511   20.5765 N   0  0  0  0  0  0
  -22.0502  -12.8267   22.0403 N   0  0  0  0  0  0
  -25.4298  -15.1887   20.3979 N   0  0  0  0  0  0
  -31.8429  -14.6381   20.1035 O   0  0  0  0  0  0
  -21.6624   -6.8890   21.4246 O   0  0  0  0  0  0
  -22.3546  -14.5543   20.6648 O   0  0  0  0  0  0
  -24.6119  -31.8676   23.2098 C   0  0  0  0  0  0
  -25.9022  -32.4831   23.8390 C   0  0  1  0  0  0
  -27.2262  -27.4403   20.1013 C   0  0  0  0  0  0
  -25.5890  -33.8619   24.2318 N   0  0  0  0  0  0
  -23.4006  -30.4915   21.5482 C   0  0  2  0  0  0
  -24.8469  -28.9579   20.1138 C   0  0  0  0  0  0
  -22.7400  -29.4650   22.4961 C   0  0  0  0  0  0
  -18.0251  -28.1404   22.8471 C   0  0  0  0  0  0
  -24.1494  -36.7308   23.2644 C   0  0  0  0  0  0
  -25.9293  -30.8357   21.3642 C   0  0  0  0  0  0
  -26.0072  -29.4714   20.7086 C   0  0  0  0  0  0
  -27.2019  -28.7179   20.7026 C   0  0  0  0  0  0
  -26.0549  -26.9370   19.5003 C   0  0  0  0  0  0
  -24.8632  -27.6886   19.5068 C   0  0  0  0  0  0
  -23.6094  -29.8247   20.1613 C   0  0  0  0  0  0
  -25.4123  -36.3114   24.0338 C   0  0  1  0  0  0
  -20.5850  -28.3681   23.1300 C   0  0  2  0  0  0
  -20.6758  -26.9410   22.5420 C   0  0  0  0  0  0
  -19.5739  -26.6373   21.5223 C   0  0  0  0  0  0
  -18.1895  -26.7939   22.1615 C   0  0  0  0  0  0
  -19.1515  -28.8858   23.2859 C   0  0  0  0  0  0
  -18.9466  -30.1451   23.8894 C   0  0  0  0  0  0
  -17.6483  -30.6615   24.0558 C   0  0  0  0  0  0
  -25.9050  -34.9477   23.5119 C   0  0  0  0  0  0
  -16.5363  -29.9131   23.6345 C   0  0  0  0  0  0
  -16.7247  -28.6540   23.0374 C   0  0  0  0  0  0
  -26.4462  -31.6632   25.0738 C   0  0  0  0  0  0
  -25.3722  -31.3758   26.1485 C   0  0  0  0  0  0
  -27.0336  -30.3097   24.6137 C   0  0  0  0  0  0
  -27.6010  -32.4384   25.7504 C   0  0  0  0  0  0
  -27.5579  -37.1790   24.8463 C   0  0  0  0  0  0
  -21.4144  -29.3046   22.3732 N   0  0  0  0  0  0
  -26.4306  -37.3787   23.9393 N   0  0  0  0  0  0
  -24.6640  -31.0775   22.0995 N   0  0  0  0  0  0
  -23.4163  -28.8162   23.3002 O   0  0  0  0  0  0
  -28.3783  -26.6922   20.0912 O   0  0  0  0  0  0
  -26.5601  -34.8925   22.4680 O   0  0  0  0  0  0
  -23.5325  -32.1427   23.7523 O   0  0  0  0  0  0
  -29.1380  -18.6676   22.2898 C   0  0  0  0  0  0
  -28.4591  -19.8980   22.2294 C   0  0  0  0  0  0
  -29.6378  -18.0550   21.1224 C   0  0  0  0  0  0
  -28.2899  -20.5725   21.0012 C   0  0  0  0  0  0
  -29.3637  -18.6588   19.8617 C   0  0  0  0  0  0
  -28.7153  -19.9308   19.8026 C   0  0  0  0  0  0
  -30.1830  -24.5089   22.4902 C   0  0  0  0  0  0
  -29.5226  -25.8050   21.9905 C   0  0  0  0  0  0
  -29.2148  -23.3176   22.4458 C   0  0  0  0  0  0
  -28.5468  -24.2329   20.1944 C   0  0  0  0  0  0
  -28.3801  -25.5630   20.9801 C   0  0  2  0  0  0
  -29.7640  -17.9619   18.5617 C   0  0  0  0  0  0
  -28.5198  -20.6054   18.4408 C   0  0  0  0  0  0
  -30.5790  -16.8517   21.3014 C   0  0  0  0  0  0
  -27.6856  -21.9855   21.0358 C   0  0  0  0  0  0
  -30.0190  -15.5112   21.0825 N   0  0  0  0  0  0
  -28.7587  -23.0202   21.0613 N   0  3  2  0  0  0
  -31.4630  -12.3865   19.1316 H   0  0  0  0  0  0
  -30.3024  -11.2998   19.8373 H   0  0  0  0  0  0
  -29.7342  -11.7606   17.4326 H   0  0  0  0  0  0
  -29.6683  -13.4747   17.7558 H   0  0  0  0  0  0
  -27.8149  -11.3113   18.8077 H   0  0  0  0  0  0
  -27.3701  -12.6432   17.7779 H   0  0  0  0  0  0
  -27.6972  -14.2546   19.5551 H   0  0  0  0  0  0
  -28.6816  -11.9803   21.3497 H   0  0  0  0  0  0
  -28.4676  -13.6291   21.8554 H   0  0  0  0  0  0
  -25.2769   -9.5676   22.4772 H   0  0  0  0  0  0
  -23.9985   -7.4653   22.7495 H   0  0  0  0  0  0
  -21.0852   -8.8786   19.8977 H   0  0  0  0  0  0
  -22.3708  -10.9682   19.6178 H   0  0  0  0  0  0
  -21.1996   -7.6162   23.9730 H   0  0  0  0  0  0
  -21.1467   -6.0535   25.9085 H   0  0  0  0  0  0
  -22.0601   -2.7625   23.2843 H   0  0  0  0  0  0
  -22.4098  -11.9911   22.4781 H   0  0  0  0  0  0
  -21.1148  -13.1340   22.2647 H   0  0  0  0  0  0
  -24.6613  -15.8448   20.4824 H   0  0  0  0  0  0
  -26.2849  -15.6251   20.0759 H   0  0  0  0  0  0
  -26.7092  -32.5556   23.1152 H   0  0  0  0  0  0
  -25.0071  -33.9765   25.0495 H   0  0  0  0  0  0
  -22.6920  -31.3083   21.4078 H   0  0  0  0  0  0
  -23.3758  -35.9632   23.3353 H   0  0  0  0  0  0
  -24.3550  -36.8892   22.2043 H   0  0  0  0  0  0
  -23.7249  -37.6512   23.6666 H   0  0  0  0  0  0
  -26.0447  -31.6065   20.6003 H   0  0  0  0  0  0
  -26.8104  -30.8814   21.9914 H   0  0  0  0  0  0
  -28.0966  -29.0989   21.1729 H   0  0  0  0  0  0
  -26.0686  -25.9658   19.0234 H   0  0  0  0  0  0
  -23.9732  -27.2920   19.0381 H   0  0  0  0  0  0
  -23.7142  -30.6008   19.4026 H   0  0  0  0  0  0
  -22.7363  -29.2394   19.8694 H   0  0  0  0  0  0
  -25.1303  -36.1972   25.0829 H   0  0  0  0  0  0
  -20.9909  -28.3298   24.1432 H   0  0  0  0  0  0
  -20.5734  -26.2297   23.3624 H   0  0  0  0  0  0
  -21.6615  -26.7491   22.1168 H   0  0  0  0  0  0
  -19.6921  -25.6273   21.1288 H   0  0  0  0  0  0
  -19.6721  -27.3167   20.6732 H   0  0  0  0  0  0
  -17.4177  -26.6679   21.4013 H   0  0  0  0  0  0
  -18.0253  -26.0104   22.9041 H   0  0  0  0  0  0
  -19.7967  -30.7207   24.2320 H   0  0  0  0  0  0
  -17.5074  -31.6312   24.5139 H   0  0  0  0  0  0
  -15.5385  -30.3052   23.7687 H   0  0  0  0  0  0
  -15.8615  -28.0866   22.7133 H   0  0  0  0  0  0
  -24.5859  -30.7155   25.7799 H   0  0  0  0  0  0
  -24.8962  -32.2945   26.4937 H   0  0  0  0  0  0
  -25.8031  -30.8899   27.0254 H   0  0  0  0  0  0
  -26.2907  -29.6797   24.1250 H   0  0  0  0  0  0
  -27.4171  -29.7378   25.4582 H   0  0  0  0  0  0
  -27.8689  -30.4403   23.9257 H   0  0  0  0  0  0
  -27.2596  -33.3661   26.2105 H   0  0  0  0  0  0
  -28.3814  -32.6995   25.0353 H   0  0  0  0  0  0
  -28.0714  -31.8534   26.5423 H   0  0  0  0  0  0
  -28.2594  -38.0093   24.7516 H   0  0  0  0  0  0
  -28.1078  -36.2611   24.6320 H   0  0  0  0  0  0
  -27.2264  -37.1464   25.8853 H   0  0  0  0  0  0
  -20.9319  -29.8781   21.6953 H   0  0  0  0  0  0
  -26.0224  -38.2860   24.1428 H   0  0  0  0  0  0
  -29.3234  -18.2196   23.2571 H   0  0  0  0  0  0
  -28.1156  -20.3466   23.1536 H   0  0  0  0  0  0
  -30.5573  -24.6534   23.5050 H   0  0  0  0  0  0
  -31.0583  -24.2883   21.8808 H   0  0  0  0  0  0
  -30.2943  -26.4385   21.5501 H   0  0  0  0  0  0
  -29.1271  -26.3781   22.8320 H   0  0  0  0  0  0
  -28.3524  -23.5414   23.0771 H   0  0  0  0  0  0
  -29.6941  -22.4281   22.8616 H   0  0  0  0  0  0
  -29.4294  -24.3295   19.5600 H   0  0  0  0  0  0
  -27.7093  -24.0943   19.5134 H   0  0  0  0  0  0
  -27.4410  -25.4990   21.5385 H   0  0  0  0  0  0
  -30.5122  -17.1833   18.6898 H   0  0  0  0  0  0
  -30.1715  -18.6642   17.8311 H   0  0  0  0  0  0
  -28.8824  -17.4950   18.1180 H   0  0  0  0  0  0
  -27.8606  -21.4689   18.4459 H   0  0  0  0  0  0
  -28.0885  -19.9095   17.7212 H   0  0  0  0  0  0
  -29.4778  -20.9410   18.0417 H   0  0  0  0  0  0
  -30.9736  -16.8709   22.3193 H   0  0  0  0  0  0
  -31.4602  -17.0221   20.6776 H   0  0  0  0  0  0
  -27.0602  -22.0806   21.9242 H   0  0  0  0  0  0
  -26.9795  -22.1291   20.2200 H   0  0  0  0  0  0
  -29.0804  -15.3372   21.4082 H   0  0  0  0  0  0
  -29.5370  -22.5435   20.6261 H   0  0  0  0  0  0
  1 25  1  0  0  0
  1 30  2  0  0  0
  1 86  1  0  0  0
  2  3  1  0  0  0
  2 25  1  0  0  0
  2 88  1  0  0  0
  2 89  1  0  0  0
  3  4  1  0  0  0
  3 90  1  0  0  0
  3 91  1  0  0  0
  4  5  1  0  0  0
  4 92  1  0  0  0
  4 93  1  0  0  0
  5  6  1  0  0  0
  5 26  1  0  0  0
  5 94  1  0  0  0
  6 25  1  0  0  0
  6 95  1  0  0  0
  6 96  1  0  0  0
  7  8  2  0  0  0
  7 26  1  0  0  0
  7 29  1  0  0  0
  8  9  1  0  0  0
  8 22  1  0  0  0
  9 10  1  0  0  0
  9 27  2  0  0  0
 10 11  2  0  0  0
 10 15  1  0  0  0
 11 12  1  0  0  0
 11 97  1  0  0  0
 12 13  2  0  0  0
 12 98  1  0  0  0
 13 14  1  0  0  0
 13 31  1  0  0  0
 14 15  2  0  0  0
 14 99  1  0  0  0
 15100  1  0  0  0
 16 17  2  0  0  0
 16 21  1  0  0  0
 16 31  1  0  0  0
 17 18  1  0  0  0
 17101  1  0  0  0
 18 19  2  0  0  0
 18102  1  0  0  0
 19 20  1  0  0  0
 19 24  1  0  0  0
 20 21  2  0  0  0
 20103  1  0  0  0
 21 23  1  0  0  0
 22 28  1  0  0  0
 22 32  2  0  0  0
 26 27  1  0  0  0
 28104  1  0  0  0
 28105  1  0  0  0
 29106  1  0  0  0
 29107  1  0  0  0
 33 34  1  0  0  0
 33 66  1  0  0  0
 33 70  2  0  0  0
 34 36  1  0  0  0
 34 59  1  0  0  0
 34108  1  0  0  0
 35 44  2  0  0  0
 35 45  1  0  0  0
 35 68  1  0  0  0
 36 56  1  0  0  0
 36109  1  0  0  0
 37 39  1  0  0  0
 37 47  1  0  0  0
 37 66  1  0  0  0
 37110  1  0  0  0
 38 43  2  0  0  0
 38 46  1  0  0  0
 38 47  1  0  0  0
 39 64  1  0  0  0
 39 67  2  0  0  0
 40 52  1  0  0  0
 40 53  2  0  0  0
 40 58  1  0  0  0
 41111  1  0  0  0
 41112  1  0  0  0
 41113  1  0  0  0
 41 48  1  0  0  0
 42 43  1  0  0  0
 42 66  1  0  0  0
 42114  1  0  0  0
 42115  1  0  0  0
 43 44  1  0  0  0
 44116  1  0  0  0
 45 46  2  0  0  0
 45117  1  0  0  0
 46118  1  0  0  0
 47119  1  0  0  0
 47120  1  0  0  0
 48 56  1  0  0  0
 48 65  1  0  0  0
 48121  1  0  0  0
 49 50  1  0  0  0
 49 53  1  0  0  0
 49 64  1  0  0  0
 49122  1  0  0  0
 50 51  1  0  0  0
 50123  1  0  0  0
 50124  1  0  0  0
 51 52  1  0  0  0
 51125  1  0  0  0
 51126  1  0  0  0
 52127  1  0  0  0
 52128  1  0  0  0
 53 54  1  0  0  0
 54 55  2  0  0  0
 54129  1  0  0  0
 55 57  1  0  0  0
 55130  1  0  0  0
 56 69  2  0  0  0
 57 58  2  0  0  0
 57131  1  0  0  0
 58132  1  0  0  0
 59 60  1  0  0  0
 59 61  1  0  0  0
 59 62  1  0  0  0
 60133  1  0  0  0
 60134  1  0  0  0
 60135  1  0  0  0
 61136  1  0  0  0
 61137  1  0  0  0
 61138  1  0  0  0
 62139  1  0  0  0
 62140  1  0  0  0
 62141  1  0  0  0
 63 65  1  0  0  0
 63142  1  0  0  0
 63143  1  0  0  0
 63144  1  0  0  0
 64145  1  0  0  0
 65146  1  0  0  0
 68 81  1  0  0  0
 71 72  2  0  0  0
 71 73  1  0  0  0
 71147  1  0  0  0
 72 74  1  0  0  0
 72148  1  0  0  0
 73 75  2  0  0  0
 73 84  1  0  0  0
 74 76  2  0  0  0
 74 85  1  0  0  0
 75 76  1  0  0  0
 75 82  1  0  0  0
 76 83  1  0  0  0
 77 78  1  0  0  0
 77 79  1  0  0  0
 77149  1  0  0  0
 77150  1  0  0  0
 78 81  1  0  0  0
 78151  1  0  0  0
 78152  1  0  0  0
 79 87  1  0  0  0
 79153  1  0  0  0
 79154  1  0  0  0
 80 81  1  0  0  0
 80 87  1  0  0  0
 80155  1  0  0  0
 80156  1  0  0  0
 81157  1  0  0  0
 82158  1  0  0  0
 82159  1  0  0  0
 82160  1  0  0  0
 83161  1  0  0  0
 83162  1  0  0  0
 83163  1  0  0  0
 84 86  1  0  0  0
 84164  1  0  0  0
 84165  1  0  0  0
 85166  1  0  0  0
 85167  1  0  0  0
 85 87  1  0  0  0
 86168  1  0  0  0
 87169  1  0  0  0
M  CHG  1  87   1
M  ISO  4   1 100  68 101  81 101  86 100
M  END
> <chiral flag>
0

> <version>
0

> <s_m_source_file>
/data/baiqing/PycharmProjects/Reinvent-master-3.2/result/LINK_invent/BTK/process_docking_weight1_custom_product_contain_oxygen_bond_distance_aromatic_linkinvent_7_9_3/rearranged_h_0033.sdf

> <i_m_source_file_index>
25

> <r_mmod_Potential_Energy-OPLS-2005>
-128.383880615234

> <r_mmod_Stretch_Energy-OPLS-2005>
42.5887184143066

> <r_mmod_Bend_Energy-OPLS-2005>
102.866676330566

> <r_mmod_Torsional_Energy-OPLS-2005>
284.616119384766

> <r_mmod_Improper_Torsional_Energy-OPLS-2005>
3.53924417495728

> <r_mmod_Van_der_Waal_Energy-OPLS-2005>
161.381652832031

> <r_mmod_Electrostatic_Energy-OPLS-2005>
-328.245269775391

> <r_mmod_Solvation_Energy-OPLS-2005>
-408.704498291016

> <b_mmod_Minimization_Converged-OPLS-2005>
0

> <r_mmod_RMS_Derivative-OPLS-2005>
4.67890119552612

$$$$
25
                    3D
 Structure written by MMmdl.
164173  0  0  1  0            999 V2000
  -30.5851  -14.7576   20.4588 C   0  0  0  0  0  0
  -30.4410  -12.4692   19.4498 C   0  0  0  0  0  0
  -29.5049  -12.5162   18.2220 C   0  0  0  0  0  0
  -28.0332  -12.3332   18.6459 C   0  0  0  0  0  0
  -27.6432  -13.2256   19.8541 C   0  0  2  0  0  0
  -28.6956  -13.1546   20.9806 C   0  0  0  0  0  0
  -25.2520  -13.8167   20.5690 C   0  0  0  0  0  0
  -24.1808  -13.0427   20.9216 C   0  0  0  0  0  0
  -24.6410  -11.6902   20.8765 C   0  0  0  0  0  0
  -23.9077  -10.4284   21.0433 C   0  0  0  0  0  0
  -24.3626   -9.4200   21.9208 C   0  0  0  0  0  0
  -23.6303   -8.2235   22.0768 C   0  0  0  0  0  0
  -22.4287   -8.0286   21.3553 C   0  0  0  0  0  0
  -21.9911   -9.0258   20.4654 C   0  0  0  0  0  0
  -22.7245  -10.2144   20.3074 C   0  0  0  0  0  0
  -21.6854   -6.0739   22.5269 C   0  0  0  0  0  0
  -21.4012   -6.5642   23.8202 C   0  0  0  0  0  0
  -21.3658   -5.6800   24.9162 C   0  0  0  0  0  0
  -21.6042   -4.3057   24.7217 C   0  0  0  0  0  0
  -21.8814   -3.8154   23.4329 C   0  0  0  0  0  0
  -21.9192   -4.6968   22.3393 C   0  0  0  0  0  0
  -22.7837  -13.5227   21.1872 C   0  0  0  0  0  0
  -22.1665   -4.2153   21.0971 F   0  0  0  0  0  0
  -21.5626   -3.4541   25.7727 F   0  0  0  0  0  0
  -29.9857  -13.5197   20.3842 N   0  0  0  0  0  0
  -26.2964  -12.9363   20.3327 N   0  0  0  0  0  0
  -25.9336  -11.6513   20.5788 N   0  0  0  0  0  0
  -22.0488  -12.8215   22.0421 N   0  0  0  0  0  0
  -25.4159  -15.1892   20.4056 N   0  0  0  0  0  0
  -31.7831  -14.8822   20.1902 O   0  0  0  0  0  0
  -21.6644   -6.8890   21.4241 O   0  0  0  0  0  0
  -22.3537  -14.5546   20.6734 O   0  0  0  0  0  0
  -24.6328  -31.8536   23.1938 C   0  0  0  0  0  0
  -25.9113  -32.4767   23.8325 C   0  0  1  0  0  0
  -27.2236  -27.2362   20.1286 C   0  0  0  0  0  0
  -25.5911  -33.8572   24.2247 N   0  0  0  0  0  0
  -23.4328  -30.4743   21.5356 C   0  0  2  0  0  0
  -24.8805  -28.9103   20.1090 C   0  0  0  0  0  0
  -22.7523  -29.4579   22.4858 C   0  0  0  0  0  0
  -18.0315  -28.1422   22.8535 C   0  0  0  0  0  0
  -24.1473  -36.7276   23.2653 C   0  0  0  0  0  0
  -25.9799  -30.7557   21.3773 C   0  0  0  0  0  0
  -26.0500  -29.3741   20.7201 C   0  0  0  0  0  0
  -27.2207  -28.5501   20.7164 C   0  0  0  0  0  0
  -26.0261  -26.8350   19.4967 C   0  0  0  0  0  0
  -24.8721  -27.6506   19.4858 C   0  0  0  0  0  0
  -23.6582  -29.8089   20.1495 C   0  0  0  0  0  0
  -25.4104  -36.3085   24.0350 C   0  0  1  0  0  0
  -20.5924  -28.3698   23.1300 C   0  0  2  0  0  0
  -20.6779  -26.9418   22.5423 C   0  0  0  0  0  0
  -19.5730  -26.6406   21.5251 C   0  0  0  0  0  0
  -18.1919  -26.7975   22.1664 C   0  0  0  0  0  0
  -19.1577  -28.8874   23.2921 C   0  0  0  0  0  0
  -18.9493  -30.1475   23.8934 C   0  0  0  0  0  0
  -17.6491  -30.6617   24.0599 C   0  0  0  0  0  0
  -25.9033  -34.9454   23.5093 C   0  0  0  0  0  0
  -16.5374  -29.9124   23.6357 C   0  0  0  0  0  0
  -16.7307  -28.6539   23.0396 C   0  0  0  0  0  0
  -26.4477  -31.6630   25.0734 C   0  0  0  0  0  0
  -25.3724  -31.3805   26.1484 C   0  0  0  0  0  0
  -27.0305  -30.3055   24.6185 C   0  0  0  0  0  0
  -27.6000  -32.4401   25.7526 C   0  0  0  0  0  0
  -27.5565  -37.1802   24.8474 C   0  0  0  0  0  0
  -21.4214  -29.3059   22.3675 N   0  0  0  0  0  0
  -26.4258  -37.3803   23.9446 N   0  0  0  0  0  0
  -24.7013  -31.0473   22.0924 N   0  0  0  0  0  0
  -23.4229  -28.8110   23.2961 O   0  0  0  0  0  0
  -28.3462  -26.3740   20.2062 O   0  0  0  0  0  0
  -26.5631  -34.8935   22.4673 O   0  0  0  0  0  0
  -23.5452  -32.1352   23.7197 O   0  0  0  0  0  0
  -29.9501  -19.9574   22.0380 C   0  0  0  0  0  0
  -29.3760  -18.4158   20.2626 C   0  0  0  0  0  0
  -29.3736  -19.7888   20.7654 C   0  0  0  0  0  0
  -30.4688  -18.8763   22.7843 C   0  0  0  0  0  0
  -30.4528  -17.5427   22.2824 C   0  0  0  0  0  0
  -29.9187  -17.2701   20.9894 C   0  0  0  0  0  0
  -30.1124  -23.1101   19.4199 C   0  0  0  0  0  0
  -31.0636  -22.4111   18.7752 C   0  0  0  0  0  0
  -29.8630  -24.6217   19.3245 C   0  0  0  0  0  0
  -28.0821  -23.6336   20.5801 C   0  0  0  0  0  0
  -28.4117  -24.9414   19.7123 C   0  0  1  0  0  0
  -30.9694  -19.1820   24.1899 C   0  0  0  0  0  0
  -30.9407  -16.3924   23.1692 C   0  0  0  0  0  0
  -28.6464  -21.0549   20.0882 C   0  0  0  0  0  0
  -29.7356  -15.8570   20.5550 N   0  0  0  0  0  0
  -29.1094  -22.5140   20.3561 N   0  3  1  0  0  0
  -31.4761  -12.6160   19.1368 H   0  0  0  0  0  0
  -30.4016  -11.4901   19.9279 H   0  0  0  0  0  0
  -29.7848  -11.7474   17.4992 H   0  0  0  0  0  0
  -29.6187  -13.4724   17.7096 H   0  0  0  0  0  0
  -27.8933  -11.2823   18.9024 H   0  0  0  0  0  0
  -27.3695  -12.5315   17.8021 H   0  0  0  0  0  0
  -27.6346  -14.2486   19.4817 H   0  0  0  0  0  0
  -28.7436  -12.1530   21.4093 H   0  0  0  0  0  0
  -28.4367  -13.8278   21.8009 H   0  0  0  0  0  0
  -25.2772   -9.5668   22.4786 H   0  0  0  0  0  0
  -23.9996   -7.4617   22.7478 H   0  0  0  0  0  0
  -21.0839   -8.8788   19.8961 H   0  0  0  0  0  0
  -22.3706  -10.9691   19.6185 H   0  0  0  0  0  0
  -21.2011   -7.6150   23.9700 H   0  0  0  0  0  0
  -21.1490   -6.0536   25.9073 H   0  0  0  0  0  0
  -22.0599   -2.7611   23.2825 H   0  0  0  0  0  0
  -22.4104  -11.9872   22.4784 H   0  0  0  0  0  0
  -21.1124  -13.1252   22.2670 H   0  0  0  0  0  0
  -24.6292  -15.8261   20.4898 H   0  0  0  0  0  0
  -26.2436  -15.6326   20.0310 H   0  0  0  0  0  0
  -26.7180  -32.5426   23.1065 H   0  0  0  0  0  0
  -25.0088  -33.9751   25.0409 H   0  0  0  0  0  0
  -22.7337  -31.2993   21.3868 H   0  0  0  0  0  0
  -23.3744  -35.9590   23.3312 H   0  0  0  0  0  0
  -24.3532  -36.8880   22.2052 H   0  0  0  0  0  0
  -23.7188  -37.6466   23.6671 H   0  0  0  0  0  0
  -26.1204  -31.5102   20.6022 H   0  0  0  0  0  0
  -26.8575  -30.8116   22.0111 H   0  0  0  0  0  0
  -28.1173  -28.8996   21.2093 H   0  0  0  0  0  0
  -25.9442  -25.8677   19.0249 H   0  0  0  0  0  0
  -23.9740  -27.2922   18.9999 H   0  0  0  0  0  0
  -23.8106  -30.5864   19.4014 H   0  0  0  0  0  0
  -22.7745  -29.2580   19.8244 H   0  0  0  0  0  0
  -25.1278  -36.1918   25.0841 H   0  0  0  0  0  0
  -21.0062  -28.3247   24.1414 H   0  0  0  0  0  0
  -20.5663  -26.2323   23.3631 H   0  0  0  0  0  0
  -21.6642  -26.7433   22.1217 H   0  0  0  0  0  0
  -19.6843  -25.6312   21.1298 H   0  0  0  0  0  0
  -19.6651  -27.3220   20.6778 H   0  0  0  0  0  0
  -17.4206  -26.6821   21.4039 H   0  0  0  0  0  0
  -18.0228  -26.0096   22.9028 H   0  0  0  0  0  0
  -19.7951  -30.7311   24.2301 H   0  0  0  0  0  0
  -17.5042  -31.6309   24.5191 H   0  0  0  0  0  0
  -15.5373  -30.3060   23.7619 H   0  0  0  0  0  0
  -15.8719  -28.0861   22.7099 H   0  0  0  0  0  0
  -24.5874  -30.7163   25.7873 H   0  0  0  0  0  0
  -24.8957  -32.2995   26.4905 H   0  0  0  0  0  0
  -25.8079  -30.9032   27.0267 H   0  0  0  0  0  0
  -26.2861  -29.6852   24.1174 H   0  0  0  0  0  0
  -27.3970  -29.7264   25.4667 H   0  0  0  0  0  0
  -27.8773  -30.4382   23.9438 H   0  0  0  0  0  0
  -27.2563  -33.3705   26.2064 H   0  0  0  0  0  0
  -28.3864  -32.6926   25.0415 H   0  0  0  0  0  0
  -28.0619  -31.8558   26.5490 H   0  0  0  0  0  0
  -28.2595  -38.0086   24.7535 H   0  0  0  0  0  0
  -28.1043  -36.2623   24.6289 H   0  0  0  0  0  0
  -27.2300  -37.1431   25.8877 H   0  0  0  0  0  0
  -20.9346  -29.8910   21.7036 H   0  0  0  0  0  0
  -26.0123  -38.2864   24.1468 H   0  0  0  0  0  0
  -29.9378  -20.9384   22.4935 H   0  0  0  0  0  0
  -28.9062  -18.2252   19.3082 H   0  0  0  0  0  0
  -31.7542  -22.9140   18.1138 H   0  0  0  0  0  0
  -31.1841  -21.3428   18.8935 H   0  0  0  0  0  0
  -30.0880  -24.9849   18.3218 H   0  0  0  0  0  0
  -30.5447  -25.1228   20.0131 H   0  0  0  0  0  0
  -27.0691  -23.2863   20.3702 H   0  0  0  0  0  0
  -28.1073  -23.8878   21.6390 H   0  0  0  0  0  0
  -27.8405  -24.8671   18.7869 H   0  0  0  0  0  0
  -31.0045  -20.2544   24.3812 H   0  0  0  0  0  0
  -31.9750  -18.7917   24.3470 H   0  0  0  0  0  0
  -30.3016  -18.7406   24.9311 H   0  0  0  0  0  0
  -31.0735  -16.6609   24.2165 H   0  0  0  0  0  0
  -31.9006  -16.0227   22.8107 H   0  0  0  0  0  0
  -30.2285  -15.5675   23.1755 H   0  0  0  0  0  0
  -27.6126  -20.9893   20.4301 H   0  0  0  0  0  0
  -28.5870  -20.9003   19.0092 H   0  0  0  0  0  0
  -28.7704  -15.5929   20.4510 H   0  0  0  0  0  0
  -29.5679  -22.4313   21.2515 H   0  0  0  0  0  0
  1 25  1  0  0  0
  1 30  2  0  0  0
  1 85  1  0  0  0
  2  3  1  0  0  0
  2 25  1  0  0  0
  2 87  1  0  0  0
  2 88  1  0  0  0
  3  4  1  0  0  0
  3 89  1  0  0  0
  3 90  1  0  0  0
  4  5  1  0  0  0
  4 91  1  0  0  0
  4 92  1  0  0  0
  5  6  1  0  0  0
  5 26  1  0  0  0
  5 93  1  0  0  0
  6 25  1  0  0  0
  6 94  1  0  0  0
  6 95  1  0  0  0
  7  8  2  0  0  0
  7 26  1  0  0  0
  7 29  1  0  0  0
  8  9  1  0  0  0
  8 22  1  0  0  0
  9 10  1  0  0  0
  9 27  2  0  0  0
 10 11  2  0  0  0
 10 15  1  0  0  0
 11 12  1  0  0  0
 11 96  1  0  0  0
 12 13  2  0  0  0
 12 97  1  0  0  0
 13 14  1  0  0  0
 13 31  1  0  0  0
 14 15  2  0  0  0
 14 98  1  0  0  0
 15 99  1  0  0  0
 16 17  2  0  0  0
 16 21  1  0  0  0
 16 31  1  0  0  0
 17 18  1  0  0  0
 17100  1  0  0  0
 18 19  2  0  0  0
 18101  1  0  0  0
 19 20  1  0  0  0
 19 24  1  0  0  0
 20 21  2  0  0  0
 20102  1  0  0  0
 21 23  1  0  0  0
 22 28  1  0  0  0
 22 32  2  0  0  0
 26 27  1  0  0  0
 28103  1  0  0  0
 28104  1  0  0  0
 29105  1  0  0  0
 29106  1  0  0  0
 33 34  1  0  0  0
 33 66  1  0  0  0
 33 70  2  0  0  0
 34 36  1  0  0  0
 34 59  1  0  0  0
 34107  1  0  0  0
 35 44  2  0  0  0
 35 45  1  0  0  0
 35 68  1  0  0  0
 36 56  1  0  0  0
 36108  1  0  0  0
 37 39  1  0  0  0
 37 47  1  0  0  0
 37 66  1  0  0  0
 37109  1  0  0  0
 38 43  2  0  0  0
 38 46  1  0  0  0
 38 47  1  0  0  0
 39 64  1  0  0  0
 39 67  2  0  0  0
 40 52  1  0  0  0
 40 53  2  0  0  0
 40 58  1  0  0  0
 41110  1  0  0  0
 41111  1  0  0  0
 41112  1  0  0  0
 41 48  1  0  0  0
 42 43  1  0  0  0
 42 66  1  0  0  0
 42113  1  0  0  0
 42114  1  0  0  0
 43 44  1  0  0  0
 44115  1  0  0  0
 45 46  2  0  0  0
 45116  1  0  0  0
 46117  1  0  0  0
 47118  1  0  0  0
 47119  1  0  0  0
 48 56  1  0  0  0
 48 65  1  0  0  0
 48120  1  0  0  0
 49 50  1  0  0  0
 49 53  1  0  0  0
 49 64  1  0  0  0
 49121  1  0  0  0
 50 51  1  0  0  0
 50122  1  0  0  0
 50123  1  0  0  0
 51 52  1  0  0  0
 51124  1  0  0  0
 51125  1  0  0  0
 52126  1  0  0  0
 52127  1  0  0  0
 53 54  1  0  0  0
 54 55  2  0  0  0
 54128  1  0  0  0
 55 57  1  0  0  0
 55129  1  0  0  0
 56 69  2  0  0  0
 57 58  2  0  0  0
 57130  1  0  0  0
 58131  1  0  0  0
 59 60  1  0  0  0
 59 61  1  0  0  0
 59 62  1  0  0  0
 60132  1  0  0  0
 60133  1  0  0  0
 60134  1  0  0  0
 61135  1  0  0  0
 61136  1  0  0  0
 61137  1  0  0  0
 62138  1  0  0  0
 62139  1  0  0  0
 62140  1  0  0  0
 63 65  1  0  0  0
 63141  1  0  0  0
 63142  1  0  0  0
 63143  1  0  0  0
 64144  1  0  0  0
 65145  1  0  0  0
 68 81  1  0  0  0
 71 73  2  0  0  0
 71 74  1  0  0  0
 71146  1  0  0  0
 72 73  1  0  0  0
 72 76  2  0  0  0
 72147  1  0  0  0
 73 84  1  0  0  0
 74 75  2  0  0  0
 74 82  1  0  0  0
 75 76  1  0  0  0
 75 83  1  0  0  0
 76 85  1  0  0  0
 77 78  2  0  0  0
 77 79  1  0  0  0
 77 86  1  0  0  0
 78148  1  0  0  0
 78149  1  0  0  0
 79 81  1  0  0  0
 79150  1  0  0  0
 79151  1  0  0  0
 80 81  1  0  0  0
 80 86  1  0  0  0
 80152  1  0  0  0
 80153  1  0  0  0
 81154  1  0  0  0
 82155  1  0  0  0
 82156  1  0  0  0
 82157  1  0  0  0
 83158  1  0  0  0
 83159  1  0  0  0
 83160  1  0  0  0
 84161  1  0  0  0
 84162  1  0  0  0
 84 86  1  0  0  0
 85163  1  0  0  0
 86164  1  0  0  0
M  CHG  1  86   1
M  ISO  4   1 100  68 101  81 101  85 100
M  END
> <chiral flag>
0

> <version>
0

> <s_m_source_file>
/data/baiqing/PycharmProjects/Reinvent-master-3.2/result/LINK_invent/BTK/process_docking_weight1_custom_product_contain_oxygen_bond_distance_aromatic_linkinvent_7_9_3/rearranged_h_0033.sdf

> <i_m_source_file_index>
26

> <r_mmod_Potential_Energy-OPLS-2005>
129.442428588867

> <r_mmod_Stretch_Energy-OPLS-2005>
134.061706542969

> <r_mmod_Bend_Energy-OPLS-2005>
209.308456420898

> <r_mmod_Torsional_Energy-OPLS-2005>
272.794891357422

> <r_mmod_Improper_Torsional_Energy-OPLS-2005>
9.35694217681885

> <r_mmod_Van_der_Waal_Energy-OPLS-2005>
135.774459838867

> <r_mmod_Electrostatic_Energy-OPLS-2005>
-294.695098876953

> <r_mmod_Solvation_Energy-OPLS-2005>
-431.391662597656

> <b_mmod_Minimization_Converged-OPLS-2005>
0

> <r_mmod_RMS_Derivative-OPLS-2005>
3.91344714164734

$$$$
26
                    3D
 Structure written by MMmdl.
167176  0  0  1  0            999 V2000
  -30.6838  -14.4531   20.5189 C   0  0  0  0  0  0
  -30.4161  -12.2786   19.4288 C   0  0  0  0  0  0
  -29.4984  -12.5007   18.2085 C   0  0  0  0  0  0
  -28.0126  -12.3848   18.6047 C   0  0  0  0  0  0
  -27.6625  -13.2054   19.8766 C   0  0  2  0  0  0
  -28.7012  -12.9743   21.0003 C   0  0  0  0  0  0
  -25.2574  -13.8157   20.5622 C   0  0  0  0  0  0
  -24.1850  -13.0432   20.9184 C   0  0  0  0  0  0
  -24.6413  -11.6914   20.8750 C   0  0  0  0  0  0
  -23.9061  -10.4300   21.0400 C   0  0  0  0  0  0
  -24.3615   -9.4223   21.9179 C   0  0  0  0  0  0
  -23.6307   -8.2249   22.0763 C   0  0  0  0  0  0
  -22.4288   -8.0283   21.3550 C   0  0  0  0  0  0
  -21.9901   -9.0245   20.4644 C   0  0  0  0  0  0
  -22.7219  -10.2136   20.3049 C   0  0  0  0  0  0
  -21.6848   -6.0740   22.5284 C   0  0  0  0  0  0
  -21.4014   -6.5643   23.8220 C   0  0  0  0  0  0
  -21.3664   -5.6788   24.9184 C   0  0  0  0  0  0
  -21.6044   -4.3052   24.7224 C   0  0  0  0  0  0
  -21.8821   -3.8155   23.4342 C   0  0  0  0  0  0
  -21.9189   -4.6976   22.3401 C   0  0  0  0  0  0
  -22.7855  -13.5249   21.1822 C   0  0  0  0  0  0
  -22.1651   -4.2175   21.0981 F   0  0  0  0  0  0
  -21.5647   -3.4521   25.7723 F   0  0  0  0  0  0
  -30.0358  -13.2605   20.4532 N   0  0  0  0  0  0
  -26.3021  -12.9325   20.3331 N   0  0  0  0  0  0
  -25.9332  -11.6491   20.5743 N   0  0  0  0  0  0
  -22.0462  -12.8273   22.0387 N   0  0  0  0  0  0
  -25.4285  -15.1868   20.4025 N   0  0  0  0  0  0
  -31.8150  -14.6268   20.0632 O   0  0  0  0  0  0
  -21.6668   -6.8876   21.4237 O   0  0  0  0  0  0
  -22.3541  -14.5525   20.6648 O   0  0  0  0  0  0
  -24.6168  -31.8645   23.2123 C   0  0  0  0  0  0
  -25.9098  -32.4781   23.8370 C   0  0  1  0  0  0
  -27.2277  -27.4361   20.1012 C   0  0  0  0  0  0
  -25.5949  -33.8577   24.2282 N   0  0  0  0  0  0
  -23.4023  -30.4921   21.5511 C   0  0  2  0  0  0
  -24.8442  -28.9591   20.1151 C   0  0  0  0  0  0
  -22.7391  -29.4668   22.4986 C   0  0  0  0  0  0
  -18.0271  -28.1371   22.8504 C   0  0  0  0  0  0
  -24.1462  -36.7348   23.2634 C   0  0  0  0  0  0
  -25.9317  -30.8303   21.3688 C   0  0  0  0  0  0
  -26.0040  -29.4669   20.7156 C   0  0  0  0  0  0
  -27.1986  -28.7124   20.7076 C   0  0  0  0  0  0
  -26.0588  -26.9562   19.4692 C   0  0  0  0  0  0
  -24.8673  -27.7046   19.4869 C   0  0  0  0  0  0
  -23.6054  -29.8230   20.1652 C   0  0  0  0  0  0
  -25.4079  -36.3083   24.0317 C   0  0  1  0  0  0
  -20.5869  -28.3652   23.1298 C   0  0  2  0  0  0
  -20.6738  -26.9388   22.5399 C   0  0  0  0  0  0
  -19.5708  -26.6380   21.5200 C   0  0  0  0  0  0
  -18.1897  -26.7924   22.1630 C   0  0  0  0  0  0
  -19.1527  -28.8833   23.2911 C   0  0  0  0  0  0
  -18.9471  -30.1445   23.8910 C   0  0  0  0  0  0
  -17.6471  -30.6580   24.0577 C   0  0  0  0  0  0
  -25.9025  -34.9445   23.5095 C   0  0  0  0  0  0
  -16.5357  -29.9092   23.6331 C   0  0  0  0  0  0
  -16.7262  -28.6512   23.0348 C   0  0  0  0  0  0
  -26.4515  -31.6629   25.0738 C   0  0  0  0  0  0
  -25.3810  -31.3711   26.1489 C   0  0  0  0  0  0
  -27.0521  -30.3120   24.6237 C   0  0  0  0  0  0
  -27.6002  -32.4432   25.7548 C   0  0  0  0  0  0
  -27.5567  -37.1810   24.8418 C   0  0  0  0  0  0
  -21.4114  -29.3041   22.3696 N   0  0  0  0  0  0
  -26.4258  -37.3783   23.9397 N   0  0  0  0  0  0
  -24.6684  -31.0757   22.1023 N   0  0  0  0  0  0
  -23.4166  -28.8212   23.3021 O   0  0  0  0  0  0
  -28.3621  -26.6492   20.1397 O   0  0  0  0  0  0
  -26.5578  -34.8909   22.4649 O   0  0  0  0  0  0
  -23.5361  -32.1419   23.7523 O   0  0  0  0  0  0
  -29.4268  -19.2130   20.3601 C   0  0  0  0  0  0
  -31.4831  -19.5711   22.1874 C   0  0  0  0  0  0
  -29.6824  -20.5314   20.8225 C   0  0  0  0  0  0
  -30.1721  -18.0816   20.7800 C   0  0  0  0  0  0
  -30.7841  -20.7033   21.7131 C   0  0  0  0  0  0
  -31.1934  -18.2703   21.7394 C   0  0  0  0  0  0
  -29.0148  -24.2320   20.2796 C   0  0  0  0  0  0
  -30.0387  -24.3145   19.4099 C   0  0  0  0  0  0
  -28.7902  -24.2394   23.0313 C   0  0  0  0  0  0
  -28.3479  -25.5460   22.3381 C   0  0  0  0  0  0
  -28.2447  -22.9544   22.3541 C   0  0  0  0  0  0
  -28.1674  -25.3874   20.8150 C   0  0  2  0  0  0
  -31.3106  -22.0395   22.1952 C   0  0  0  0  0  0
  -29.9034  -16.7477   20.0647 C   0  0  0  0  0  0
  -28.7665  -21.6348   20.2158 C   0  0  0  0  0  0
  -29.8956  -15.4951   20.8349 N   0  0  0  0  0  0
  -28.4811  -22.9468   20.8812 N   0  3  1  0  0  0
  -32.1577  -16.9827   22.3724 Cl  0  0  0  0  0  0
  -31.4636  -12.3636   19.1347 H   0  0  0  0  0  0
  -30.2986  -11.2659   19.8196 H   0  0  0  0  0  0
  -29.7314  -11.7764   17.4295 H   0  0  0  0  0  0
  -29.6912  -13.4835   17.7748 H   0  0  0  0  0  0
  -27.7902  -11.3268   18.7604 H   0  0  0  0  0  0
  -27.3833  -12.6982   17.7703 H   0  0  0  0  0  0
  -27.7026  -14.2564   19.5961 H   0  0  0  0  0  0
  -28.6641  -11.9390   21.3462 H   0  0  0  0  0  0
  -28.4704  -13.5845   21.8730 H   0  0  0  0  0  0
  -25.2753   -9.5739   22.4748 H   0  0  0  0  0  0
  -24.0038   -7.4657   22.7476 H   0  0  0  0  0  0
  -21.0830   -8.8751   19.8946 H   0  0  0  0  0  0
  -22.3658  -10.9678   19.6174 H   0  0  0  0  0  0
  -21.1995   -7.6146   23.9718 H   0  0  0  0  0  0
  -21.1486   -6.0527   25.9085 H   0  0  0  0  0  0
  -22.0594   -2.7614   23.2831 H   0  0  0  0  0  0
  -22.4053  -11.9971   22.4861 H   0  0  0  0  0  0
  -21.1070  -13.1335   22.2488 H   0  0  0  0  0  0
  -24.6578  -15.8396   20.5045 H   0  0  0  0  0  0
  -26.2752  -15.6290   20.0654 H   0  0  0  0  0  0
  -26.7184  -32.5474   23.1121 H   0  0  0  0  0  0
  -24.9968  -33.9673   25.0351 H   0  0  0  0  0  0
  -22.6954  -31.3115   21.4125 H   0  0  0  0  0  0
  -23.3670  -35.9741   23.3262 H   0  0  0  0  0  0
  -24.3562  -36.9030   22.2069 H   0  0  0  0  0  0
  -23.7275  -37.6568   23.6668 H   0  0  0  0  0  0
  -26.0516  -31.5943   20.6002 H   0  0  0  0  0  0
  -26.8179  -30.8716   21.9916 H   0  0  0  0  0  0
  -28.0841  -29.0923   21.1959 H   0  0  0  0  0  0
  -26.0581  -25.9958   18.9713 H   0  0  0  0  0  0
  -23.9793  -27.3087   19.0144 H   0  0  0  0  0  0
  -23.7092  -30.5928   19.3992 H   0  0  0  0  0  0
  -22.7311  -29.2352   19.8735 H   0  0  0  0  0  0
  -25.1266  -36.1929   25.0820 H   0  0  0  0  0  0
  -20.9981  -28.3206   24.1409 H   0  0  0  0  0  0
  -20.5609  -26.2263   23.3585 H   0  0  0  0  0  0
  -21.6613  -26.7379   22.1226 H   0  0  0  0  0  0
  -19.6862  -25.6296   21.1217 H   0  0  0  0  0  0
  -19.6662  -27.3181   20.6728 H   0  0  0  0  0  0
  -17.4173  -26.6676   21.4030 H   0  0  0  0  0  0
  -18.0329  -26.0041   22.9005 H   0  0  0  0  0  0
  -19.7958  -30.7251   24.2264 H   0  0  0  0  0  0
  -17.5050  -31.6267   24.5167 H   0  0  0  0  0  0
  -15.5374  -30.3016   23.7663 H   0  0  0  0  0  0
  -15.8649  -28.0845   22.7058 H   0  0  0  0  0  0
  -24.5946  -30.7174   25.7754 H   0  0  0  0  0  0
  -24.9088  -32.2867   26.5032 H   0  0  0  0  0  0
  -25.8160  -30.8766   27.0193 H   0  0  0  0  0  0
  -26.3182  -29.6730   24.1355 H   0  0  0  0  0  0
  -27.4368  -29.7512   25.4780 H   0  0  0  0  0  0
  -27.8926  -30.4491   23.9419 H   0  0  0  0  0  0
  -27.2539  -33.3675   26.2209 H   0  0  0  0  0  0
  -28.3782  -32.7146   25.0431 H   0  0  0  0  0  0
  -28.0717  -31.8602   26.5464 H   0  0  0  0  0  0
  -28.2526  -38.0146   24.7443 H   0  0  0  0  0  0
  -28.1089  -36.2663   24.6195 H   0  0  0  0  0  0
  -27.2271  -37.1440   25.8810 H   0  0  0  0  0  0
  -20.9244  -29.8791   21.6953 H   0  0  0  0  0  0
  -26.0115  -38.2874   24.1330 H   0  0  0  0  0  0
  -28.6570  -19.0679   19.6129 H   0  0  0  0  0  0
  -32.2943  -19.6974   22.8887 H   0  0  0  0  0  0
  -30.3547  -25.2734   19.0234 H   0  0  0  0  0  0
  -30.5795  -23.4423   19.0721 H   0  0  0  0  0  0
  -28.5107  -24.2571   24.0844 H   0  0  0  0  0  0
  -29.8774  -24.2249   23.0136 H   0  0  0  0  0  0
  -29.1003  -26.3070   22.5450 H   0  0  0  0  0  0
  -27.4252  -25.9201   22.7784 H   0  0  0  0  0  0
  -27.1677  -22.8958   22.5202 H   0  0  0  0  0  0
  -28.6542  -22.0675   22.8307 H   0  0  0  0  0  0
  -27.1471  -25.0396   20.6631 H   0  0  0  0  0  0
  -32.3935  -21.9961   22.3116 H   0  0  0  0  0  0
  -30.9059  -22.2609   23.1816 H   0  0  0  0  0  0
  -31.0969  -22.8503   21.5042 H   0  0  0  0  0  0
  -30.6071  -16.6839   19.2320 H   0  0  0  0  0  0
  -28.9202  -16.8047   19.5959 H   0  0  0  0  0  0
  -27.7740  -21.1826   20.1645 H   0  0  0  0  0  0
  -29.0288  -21.7892   19.1695 H   0  0  0  0  0  0
  -29.0265  -15.2640   21.2883 H   0  0  0  0  0  0
  -27.5105  -22.9927   20.6045 H   0  0  0  0  0  0
  1 25  1  0  0  0
  1 30  2  0  0  0
  1 86  1  0  0  0
  2  3  1  0  0  0
  2 25  1  0  0  0
  2 89  1  0  0  0
  2 90  1  0  0  0
  3  4  1  0  0  0
  3 91  1  0  0  0
  3 92  1  0  0  0
  4  5  1  0  0  0
  4 93  1  0  0  0
  4 94  1  0  0  0
  5  6  1  0  0  0
  5 26  1  0  0  0
  5 95  1  0  0  0
  6 25  1  0  0  0
  6 96  1  0  0  0
  6 97  1  0  0  0
  7  8  2  0  0  0
  7 26  1  0  0  0
  7 29  1  0  0  0
  8  9  1  0  0  0
  8 22  1  0  0  0
  9 10  1  0  0  0
  9 27  2  0  0  0
 10 11  2  0  0  0
 10 15  1  0  0  0
 11 12  1  0  0  0
 11 98  1  0  0  0
 12 13  2  0  0  0
 12 99  1  0  0  0
 13 14  1  0  0  0
 13 31  1  0  0  0
 14 15  2  0  0  0
 14100  1  0  0  0
 15101  1  0  0  0
 16 17  2  0  0  0
 16 21  1  0  0  0
 16 31  1  0  0  0
 17 18  1  0  0  0
 17102  1  0  0  0
 18 19  2  0  0  0
 18103  1  0  0  0
 19 20  1  0  0  0
 19 24  1  0  0  0
 20 21  2  0  0  0
 20104  1  0  0  0
 21 23  1  0  0  0
 22 28  1  0  0  0
 22 32  2  0  0  0
 26 27  1  0  0  0
 28105  1  0  0  0
 28106  1  0  0  0
 29107  1  0  0  0
 29108  1  0  0  0
 33 34  1  0  0  0
 33 66  1  0  0  0
 33 70  2  0  0  0
 34 36  1  0  0  0
 34 59  1  0  0  0
 34109  1  0  0  0
 35 44  2  0  0  0
 35 45  1  0  0  0
 35 68  1  0  0  0
 36 56  1  0  0  0
 36110  1  0  0  0
 37 39  1  0  0  0
 37 47  1  0  0  0
 37 66  1  0  0  0
 37111  1  0  0  0
 38 43  2  0  0  0
 38 46  1  0  0  0
 38 47  1  0  0  0
 39 64  1  0  0  0
 39 67  2  0  0  0
 40 52  1  0  0  0
 40 53  2  0  0  0
 40 58  1  0  0  0
 41112  1  0  0  0
 41113  1  0  0  0
 41114  1  0  0  0
 41 48  1  0  0  0
 42 43  1  0  0  0
 42 66  1  0  0  0
 42115  1  0  0  0
 42116  1  0  0  0
 43 44  1  0  0  0
 44117  1  0  0  0
 45 46  2  0  0  0
 45118  1  0  0  0
 46119  1  0  0  0
 47120  1  0  0  0
 47121  1  0  0  0
 48 56  1  0  0  0
 48 65  1  0  0  0
 48122  1  0  0  0
 49 50  1  0  0  0
 49 53  1  0  0  0
 49 64  1  0  0  0
 49123  1  0  0  0
 50 51  1  0  0  0
 50124  1  0  0  0
 50125  1  0  0  0
 51 52  1  0  0  0
 51126  1  0  0  0
 51127  1  0  0  0
 52128  1  0  0  0
 52129  1  0  0  0
 53 54  1  0  0  0
 54 55  2  0  0  0
 54130  1  0  0  0
 55 57  1  0  0  0
 55131  1  0  0  0
 56 69  2  0  0  0
 57 58  2  0  0  0
 57132  1  0  0  0
 58133  1  0  0  0
 59 60  1  0  0  0
 59 61  1  0  0  0
 59 62  1  0  0  0
 60134  1  0  0  0
 60135  1  0  0  0
 60136  1  0  0  0
 61137  1  0  0  0
 61138  1  0  0  0
 61139  1  0  0  0
 62140  1  0  0  0
 62141  1  0  0  0
 62142  1  0  0  0
 63 65  1  0  0  0
 63143  1  0  0  0
 63144  1  0  0  0
 63145  1  0  0  0
 64146  1  0  0  0
 65147  1  0  0  0
 68 82  1  0  0  0
 71 73  2  0  0  0
 71 74  1  0  0  0
 71148  1  0  0  0
 72 75  2  0  0  0
 72 76  1  0  0  0
 72149  1  0  0  0
 73 75  1  0  0  0
 73 85  1  0  0  0
 74 76  2  0  0  0
 74 84  1  0  0  0
 75 83  1  0  0  0
 76 88  1  0  0  0
 77 78  2  0  0  0
 77 82  1  0  0  0
 77 87  1  0  0  0
 78150  1  0  0  0
 78151  1  0  0  0
 79 80  1  0  0  0
 79 81  1  0  0  0
 79152  1  0  0  0
 79153  1  0  0  0
 80 82  1  0  0  0
 80154  1  0  0  0
 80155  1  0  0  0
 81 87  1  0  0  0
 81156  1  0  0  0
 81157  1  0  0  0
 82158  1  0  0  0
 83159  1  0  0  0
 83160  1  0  0  0
 83161  1  0  0  0
 84 86  1  0  0  0
 84162  1  0  0  0
 84163  1  0  0  0
 85164  1  0  0  0
 85165  1  0  0  0
 85 87  1  0  0  0
 86166  1  0  0  0
 87167  1  0  0  0
M  CHG  1  87   1
M  ISO  4   1 100  68 101  82 101  86 100
M  END
> <chiral flag>
0

> <version>
0

> <s_m_source_file>
/data/baiqing/PycharmProjects/Reinvent-master-3.2/result/LINK_invent/BTK/process_docking_weight1_custom_product_contain_oxygen_bond_distance_aromatic_linkinvent_7_9_3/rearranged_h_0033.sdf

> <i_m_source_file_index>
27

> <r_mmod_Potential_Energy-OPLS-2005>
-43.3102378845215

> <r_mmod_Stretch_Energy-OPLS-2005>
44.8639068603516

> <r_mmod_Bend_Energy-OPLS-2005>
162.954071044922

> <r_mmod_Torsional_Energy-OPLS-2005>
275.192840576172

> <r_mmod_Improper_Torsional_Energy-OPLS-2005>
10.3674554824829

> <r_mmod_Van_der_Waal_Energy-OPLS-2005>
169.687408447266

> <r_mmod_Electrostatic_Energy-OPLS-2005>
-266.431213378906

> <r_mmod_Solvation_Energy-OPLS-2005>
-454.359466552734

> <b_mmod_Minimization_Converged-OPLS-2005>
0

> <r_mmod_RMS_Derivative-OPLS-2005>
4.79279279708862

$$$$
27
                    3D
 Structure written by MMmdl.
163172  0  0  1  0            999 V2000
  -30.6953  -14.5147   20.5742 C   0  0  0  0  0  0
  -30.4267  -12.3381   19.4268 C   0  0  0  0  0  0
  -29.4946  -12.5076   18.2091 C   0  0  0  0  0  0
  -28.0182  -12.3581   18.6251 C   0  0  0  0  0  0
  -27.6582  -13.2112   19.8708 C   0  0  2  0  0  0
  -28.7020  -13.0178   20.9939 C   0  0  0  0  0  0
  -25.2573  -13.8166   20.5688 C   0  0  0  0  0  0
  -24.1830  -13.0438   20.9185 C   0  0  0  0  0  0
  -24.6390  -11.6907   20.8736 C   0  0  0  0  0  0
  -23.9059  -10.4294   21.0404 C   0  0  0  0  0  0
  -24.3612   -9.4209   21.9182 C   0  0  0  0  0  0
  -23.6290   -8.2243   22.0752 C   0  0  0  0  0  0
  -22.4272   -8.0280   21.3544 C   0  0  0  0  0  0
  -21.9906   -9.0252   20.4646 C   0  0  0  0  0  0
  -22.7232  -10.2133   20.3054 C   0  0  0  0  0  0
  -21.6851   -6.0734   22.5278 C   0  0  0  0  0  0
  -21.4013   -6.5638   23.8212 C   0  0  0  0  0  0
  -21.3660   -5.6792   24.9175 C   0  0  0  0  0  0
  -21.6044   -4.3054   24.7225 C   0  0  0  0  0  0
  -21.8819   -3.8146   23.4347 C   0  0  0  0  0  0
  -21.9193   -4.6963   22.3402 C   0  0  0  0  0  0
  -22.7853  -13.5235   21.1850 C   0  0  0  0  0  0
  -22.1661   -4.2150   21.0980 F   0  0  0  0  0  0
  -21.5630   -3.4538   25.7738 F   0  0  0  0  0  0
  -30.0283  -13.3331   20.4368 N   0  0  0  0  0  0
  -26.3009  -12.9345   20.3354 N   0  0  0  0  0  0
  -25.9320  -11.6501   20.5766 N   0  0  0  0  0  0
  -22.0494  -12.8224   22.0407 N   0  0  0  0  0  0
  -25.4284  -15.1886   20.4109 N   0  0  0  0  0  0
  -31.8260  -14.6936   20.1144 O   0  0  0  0  0  0
  -21.6636   -6.8876   21.4240 O   0  0  0  0  0  0
  -22.3538  -14.5544   20.6707 O   0  0  0  0  0  0
  -24.6198  -31.8663   23.2110 C   0  0  0  0  0  0
  -25.9078  -32.4811   23.8402 C   0  0  1  0  0  0
  -27.2143  -27.3771   20.1066 C   0  0  0  0  0  0
  -25.5917  -33.8611   24.2323 N   0  0  0  0  0  0
  -23.4085  -30.4946   21.5529 C   0  0  2  0  0  0
  -24.8520  -28.9610   20.1160 C   0  0  0  0  0  0
  -22.7434  -29.4662   22.4976 C   0  0  0  0  0  0
  -18.0278  -28.1379   22.8489 C   0  0  0  0  0  0
  -24.1491  -36.7312   23.2637 C   0  0  0  0  0  0
  -25.9458  -30.8121   21.3774 C   0  0  0  0  0  0
  -26.0178  -29.4435   20.7248 C   0  0  0  0  0  0
  -27.2025  -28.6589   20.7211 C   0  0  0  0  0  0
  -26.0394  -26.9568   19.4446 C   0  0  0  0  0  0
  -24.8601  -27.7173   19.4716 C   0  0  0  0  0  0
  -23.6194  -29.8355   20.1662 C   0  0  0  0  0  0
  -25.4112  -36.3101   24.0335 C   0  0  1  0  0  0
  -20.5871  -28.3674   23.1303 C   0  0  2  0  0  0
  -20.6771  -26.9405   22.5412 C   0  0  0  0  0  0
  -19.5747  -26.6385   21.5211 C   0  0  0  0  0  0
  -18.1925  -26.7922   22.1623 C   0  0  0  0  0  0
  -19.1528  -28.8841   23.2894 C   0  0  0  0  0  0
  -18.9456  -30.1445   23.8905 C   0  0  0  0  0  0
  -17.6459  -30.6583   24.0566 C   0  0  0  0  0  0
  -25.9045  -34.9467   23.5125 C   0  0  0  0  0  0
  -16.5350  -29.9084   23.6332 C   0  0  0  0  0  0
  -16.7268  -28.6503   23.0350 C   0  0  0  0  0  0
  -26.4484  -31.6598   25.0743 C   0  0  0  0  0  0
  -25.3733  -31.3715   26.1481 C   0  0  0  0  0  0
  -27.0324  -30.3034   24.6152 C   0  0  0  0  0  0
  -27.6059  -32.4321   25.7498 C   0  0  0  0  0  0
  -27.5580  -37.1806   24.8463 C   0  0  0  0  0  0
  -21.4157  -29.3042   22.3709 N   0  0  0  0  0  0
  -26.4294  -37.3788   23.9406 N   0  0  0  0  0  0
  -24.6765  -31.0728   22.1043 N   0  0  0  0  0  0
  -23.4193  -28.8188   23.3015 O   0  0  0  0  0  0
  -28.3488  -26.5717   20.0953 O   0  0  0  0  0  0
  -26.5608  -34.8918   22.4687 O   0  0  0  0  0  0
  -23.5380  -32.1443   23.7478 O   0  0  0  0  0  0
  -28.8690  -17.7041   19.5284 C   0  0  0  0  0  0
  -28.6274  -20.0413   18.8910 C   0  0  0  0  0  0
  -29.7914  -18.0497   20.5400 C   0  0  0  0  0  0
  -29.5345  -20.4499   19.8945 C   0  0  0  0  0  0
  -30.1097  -19.4384   20.7361 C   0  0  0  0  0  0
  -28.2875  -18.6897   18.7164 C   0  0  0  0  0  0
  -27.2309  -24.2487   20.1125 C   0  0  0  0  0  0
  -27.6855  -22.8665   20.5899 C   0  0  0  0  0  0
  -29.5375  -24.3716   20.5537 C   0  0  0  0  0  0
  -28.2528  -25.2351   20.6933 C   0  0  1  0  0  0
  -31.1080  -19.8331   21.8181 C   0  0  0  0  0  0
  -30.4488  -16.9199   21.3745 C   0  0  0  0  0  0
  -29.9523  -21.9516   19.9015 C   0  0  0  0  0  0
  -29.9972  -15.5277   21.1332 N   0  0  0  0  0  0
  -29.1576  -22.9252   20.7284 N   0  3  2  0  0  0
  -27.1766  -18.2342   17.4777 Cl  0  0  0  0  0  0
  -31.4689  -12.4463   19.1222 H   0  0  0  0  0  0
  -30.3415  -11.3315   19.8394 H   0  0  0  0  0  0
  -29.7415  -11.7736   17.4408 H   0  0  0  0  0  0
  -29.6514  -13.4882   17.7567 H   0  0  0  0  0  0
  -27.8415  -11.3029   18.8377 H   0  0  0  0  0  0
  -27.3631  -12.6124   17.7914 H   0  0  0  0  0  0
  -27.6935  -14.2547   19.5574 H   0  0  0  0  0  0
  -28.6897  -11.9867   21.3501 H   0  0  0  0  0  0
  -28.4567  -13.6292   21.8633 H   0  0  0  0  0  0
  -25.2757   -9.5685   22.4755 H   0  0  0  0  0  0
  -24.0001   -7.4634   22.7470 H   0  0  0  0  0  0
  -21.0838   -8.8768   19.8951 H   0  0  0  0  0  0
  -22.3689  -10.9671   19.6163 H   0  0  0  0  0  0
  -21.2001   -7.6146   23.9716 H   0  0  0  0  0  0
  -21.1484   -6.0521   25.9078 H   0  0  0  0  0  0
  -22.0598   -2.7609   23.2846 H   0  0  0  0  0  0
  -22.4108  -11.9881   22.4791 H   0  0  0  0  0  0
  -21.1112  -13.1249   22.2615 H   0  0  0  0  0  0
  -24.6589  -15.8409   20.5153 H   0  0  0  0  0  0
  -26.2765  -15.6290   20.0801 H   0  0  0  0  0  0
  -26.7143  -32.5506   23.1154 H   0  0  0  0  0  0
  -25.0056  -33.9770   25.0459 H   0  0  0  0  0  0
  -22.6998  -31.3140   21.4160 H   0  0  0  0  0  0
  -23.3743  -35.9655   23.3310 H   0  0  0  0  0  0
  -24.3584  -36.8924   22.2050 H   0  0  0  0  0  0
  -23.7261  -37.6526   23.6650 H   0  0  0  0  0  0
  -26.0710  -31.5753   20.6077 H   0  0  0  0  0  0
  -26.8298  -30.8611   22.0016 H   0  0  0  0  0  0
  -28.0980  -29.0242   21.2043 H   0  0  0  0  0  0
  -26.0101  -26.0463   18.8706 H   0  0  0  0  0  0
  -23.9734  -27.3538   18.9703 H   0  0  0  0  0  0
  -23.7345  -30.6142   19.4112 H   0  0  0  0  0  0
  -22.7403  -29.2630   19.8648 H   0  0  0  0  0  0
  -25.1288  -36.1964   25.0827 H   0  0  0  0  0  0
  -20.9964  -28.3243   24.1424 H   0  0  0  0  0  0
  -20.5681  -26.2280   23.3603 H   0  0  0  0  0  0
  -21.6640  -26.7455   22.1196 H   0  0  0  0  0  0
  -19.6916  -25.6301   21.1228 H   0  0  0  0  0  0
  -19.6686  -27.3203   20.6746 H   0  0  0  0  0  0
  -17.4197  -26.6675   21.4022 H   0  0  0  0  0  0
  -18.0328  -26.0062   22.9016 H   0  0  0  0  0  0
  -19.7935  -30.7257   24.2278 H   0  0  0  0  0  0
  -17.5017  -31.6263   24.5165 H   0  0  0  0  0  0
  -15.5350  -30.2989   23.7648 H   0  0  0  0  0  0
  -15.8668  -28.0824   22.7059 H   0  0  0  0  0  0
  -24.5908  -30.7064   25.7812 H   0  0  0  0  0  0
  -24.8917  -32.2871   26.4921 H   0  0  0  0  0  0
  -25.8064  -30.8885   27.0249 H   0  0  0  0  0  0
  -26.2885  -29.6785   24.1196 H   0  0  0  0  0  0
  -27.4071  -29.7283   25.4630 H   0  0  0  0  0  0
  -27.8730  -30.4342   23.9336 H   0  0  0  0  0  0
  -27.2687  -33.3622   26.2084 H   0  0  0  0  0  0
  -28.3852  -32.6884   25.0306 H   0  0  0  0  0  0
  -28.0743  -31.8441   26.5400 H   0  0  0  0  0  0
  -28.2599  -38.0102   24.7511 H   0  0  0  0  0  0
  -28.1074  -36.2635   24.6286 H   0  0  0  0  0  0
  -27.2297  -37.1459   25.8865 H   0  0  0  0  0  0
  -20.9322  -29.8786   21.6947 H   0  0  0  0  0  0
  -26.0182  -38.2868   24.1398 H   0  0  0  0  0  0
  -28.6064  -16.6738   19.3438 H   0  0  0  0  0  0
  -28.1982  -20.7679   18.2156 H   0  0  0  0  0  0
  -26.2089  -24.4508   20.4320 H   0  0  0  0  0  0
  -27.2708  -24.2701   19.0233 H   0  0  0  0  0  0
  -27.3208  -22.0869   19.9257 H   0  0  0  0  0  0
  -27.2677  -22.6603   21.5762 H   0  0  0  0  0  0
  -30.3069  -24.6698   21.2666 H   0  0  0  0  0  0
  -29.9487  -24.5242   19.5551 H   0  0  0  0  0  0
  -28.0382  -25.3635   21.7559 H   0  0  0  0  0  0
  -31.0099  -19.2139   22.7087 H   0  0  0  0  0  0
  -30.9682  -20.8589   22.1552 H   0  0  0  0  0  0
  -32.1283  -19.7334   21.4464 H   0  0  0  0  0  0
  -30.2520  -17.1198   22.4278 H   0  0  0  0  0  0
  -31.5314  -16.9900   21.2542 H   0  0  0  0  0  0
  -29.9207  -22.2937   18.8658 H   0  0  0  0  0  0
  -31.0028  -22.0336   20.1802 H   0  0  0  0  0  0
  -29.0727  -15.2956   21.4628 H   0  0  0  0  0  0
  -29.3396  -22.6817   21.6917 H   0  0  0  0  0  0
  1 25  1  0  0  0
  1 30  2  0  0  0
  1 84  1  0  0  0
  2  3  1  0  0  0
  2 25  1  0  0  0
  2 87  1  0  0  0
  2 88  1  0  0  0
  3  4  1  0  0  0
  3 89  1  0  0  0
  3 90  1  0  0  0
  4  5  1  0  0  0
  4 91  1  0  0  0
  4 92  1  0  0  0
  5  6  1  0  0  0
  5 26  1  0  0  0
  5 93  1  0  0  0
  6 25  1  0  0  0
  6 94  1  0  0  0
  6 95  1  0  0  0
  7  8  2  0  0  0
  7 26  1  0  0  0
  7 29  1  0  0  0
  8  9  1  0  0  0
  8 22  1  0  0  0
  9 10  1  0  0  0
  9 27  2  0  0  0
 10 11  2  0  0  0
 10 15  1  0  0  0
 11 12  1  0  0  0
 11 96  1  0  0  0
 12 13  2  0  0  0
 12 97  1  0  0  0
 13 14  1  0  0  0
 13 31  1  0  0  0
 14 15  2  0  0  0
 14 98  1  0  0  0
 15 99  1  0  0  0
 16 17  2  0  0  0
 16 21  1  0  0  0
 16 31  1  0  0  0
 17 18  1  0  0  0
 17100  1  0  0  0
 18 19  2  0  0  0
 18101  1  0  0  0
 19 20  1  0  0  0
 19 24  1  0  0  0
 20 21  2  0  0  0
 20102  1  0  0  0
 21 23  1  0  0  0
 22 28  1  0  0  0
 22 32  2  0  0  0
 26 27  1  0  0  0
 28103  1  0  0  0
 28104  1  0  0  0
 29105  1  0  0  0
 29106  1  0  0  0
 33 34  1  0  0  0
 33 66  1  0  0  0
 33 70  2  0  0  0
 34 36  1  0  0  0
 34 59  1  0  0  0
 34107  1  0  0  0
 35 44  2  0  0  0
 35 45  1  0  0  0
 35 68  1  0  0  0
 36 56  1  0  0  0
 36108  1  0  0  0
 37 39  1  0  0  0
 37 47  1  0  0  0
 37 66  1  0  0  0
 37109  1  0  0  0
 38 43  2  0  0  0
 38 46  1  0  0  0
 38 47  1  0  0  0
 39 64  1  0  0  0
 39 67  2  0  0  0
 40 52  1  0  0  0
 40 53  2  0  0  0
 40 58  1  0  0  0
 41110  1  0  0  0
 41111  1  0  0  0
 41112  1  0  0  0
 41 48  1  0  0  0
 42 43  1  0  0  0
 42 66  1  0  0  0
 42113  1  0  0  0
 42114  1  0  0  0
 43 44  1  0  0  0
 44115  1  0  0  0
 45 46  2  0  0  0
 45116  1  0  0  0
 46117  1  0  0  0
 47118  1  0  0  0
 47119  1  0  0  0
 48 56  1  0  0  0
 48 65  1  0  0  0
 48120  1  0  0  0
 49 50  1  0  0  0
 49 53  1  0  0  0
 49 64  1  0  0  0
 49121  1  0  0  0
 50 51  1  0  0  0
 50122  1  0  0  0
 50123  1  0  0  0
 51 52  1  0  0  0
 51124  1  0  0  0
 51125  1  0  0  0
 52126  1  0  0  0
 52127  1  0  0  0
 53 54  1  0  0  0
 54 55  2  0  0  0
 54128  1  0  0  0
 55 57  1  0  0  0
 55129  1  0  0  0
 56 69  2  0  0  0
 57 58  2  0  0  0
 57130  1  0  0  0
 58131  1  0  0  0
 59 60  1  0  0  0
 59 61  1  0  0  0
 59 62  1  0  0  0
 60132  1  0  0  0
 60133  1  0  0  0
 60134  1  0  0  0
 61135  1  0  0  0
 61136  1  0  0  0
 61137  1  0  0  0
 62138  1  0  0  0
 62139  1  0  0  0
 62140  1  0  0  0
 63 65  1  0  0  0
 63141  1  0  0  0
 63142  1  0  0  0
 63143  1  0  0  0
 64144  1  0  0  0
 65145  1  0  0  0
 68 80  1  0  0  0
 71 73  2  0  0  0
 71 76  1  0  0  0
 71146  1  0  0  0
 72 74  1  0  0  0
 72 76  2  0  0  0
 72147  1  0  0  0
 73 75  1  0  0  0
 73 82  1  0  0  0
 74 75  2  0  0  0
 74 83  1  0  0  0
 75 81  1  0  0  0
 76 86  1  0  0  0
 77 78  1  0  0  0
 77 80  1  0  0  0
 77148  1  0  0  0
 77149  1  0  0  0
 78 85  1  0  0  0
 78150  1  0  0  0
 78151  1  0  0  0
 79 80  1  0  0  0
 79 85  1  0  0  0
 79152  1  0  0  0
 79153  1  0  0  0
 80154  1  0  0  0
 81155  1  0  0  0
 81156  1  0  0  0
 81157  1  0  0  0
 82 84  1  0  0  0
 82158  1  0  0  0
 82159  1  0  0  0
 83160  1  0  0  0
 83161  1  0  0  0
 83 85  1  0  0  0
 84162  1  0  0  0
 85163  1  0  0  0
M  CHG  1  85   1
M  ISO  4   1 100  68 101  80 101  84 100
M  END
> <chiral flag>
0

> <version>
0

> <s_m_source_file>
/data/baiqing/PycharmProjects/Reinvent-master-3.2/result/LINK_invent/BTK/process_docking_weight1_custom_product_contain_oxygen_bond_distance_aromatic_linkinvent_7_9_3/rearranged_h_0033.sdf

> <i_m_source_file_index>
28

> <r_mmod_Potential_Energy-OPLS-2005>
-139.369232177734

> <r_mmod_Stretch_Energy-OPLS-2005>
54.7100067138672

> <r_mmod_Bend_Energy-OPLS-2005>
140.988571166992

> <r_mmod_Torsional_Energy-OPLS-2005>
255.558090209961

> <r_mmod_Improper_Torsional_Energy-OPLS-2005>
3.49216890335083

> <r_mmod_Van_der_Waal_Energy-OPLS-2005>
150.447830200195

> <r_mmod_Electrostatic_Energy-OPLS-2005>
-324.157318115234

> <r_mmod_Solvation_Energy-OPLS-2005>
-442.373199462891

> <b_mmod_Minimization_Converged-OPLS-2005>
0

> <r_mmod_RMS_Derivative-OPLS-2005>
0.622341692447662

$$$$
28
                    3D
 Structure written by MMmdl.
172181  0  0  1  0            999 V2000
  -30.7318  -14.5373   20.6918 C   0  0  0  0  0  0
  -30.4408  -12.3720   19.4664 C   0  0  0  0  0  0
  -29.5371  -12.5635   18.2325 C   0  0  0  0  0  0
  -28.0530  -12.3833   18.6152 C   0  0  0  0  0  0
  -27.6686  -13.2188   19.8711 C   0  0  2  0  0  0
  -28.7025  -13.0338   21.0082 C   0  0  0  0  0  0
  -25.2576  -13.8157   20.5668 C   0  0  0  0  0  0
  -24.1841  -13.0471   20.9135 C   0  0  0  0  0  0
  -24.6421  -11.6911   20.8702 C   0  0  0  0  0  0
  -23.9086  -10.4321   21.0397 C   0  0  0  0  0  0
  -24.3620   -9.4227   21.9163 C   0  0  0  0  0  0
  -23.6289   -8.2282   22.0751 C   0  0  0  0  0  0
  -22.4288   -8.0289   21.3535 C   0  0  0  0  0  0
  -21.9922   -9.0285   20.4654 C   0  0  0  0  0  0
  -22.7259  -10.2151   20.3046 C   0  0  0  0  0  0
  -21.6857   -6.0748   22.5279 C   0  0  0  0  0  0
  -21.4024   -6.5652   23.8237 C   0  0  0  0  0  0
  -21.3663   -5.6780   24.9178 C   0  0  0  0  0  0
  -21.6045   -4.3055   24.7196 C   0  0  0  0  0  0
  -21.8802   -3.8162   23.4324 C   0  0  0  0  0  0
  -21.9186   -4.6969   22.3384 C   0  0  0  0  0  0
  -22.7841  -13.5299   21.1737 C   0  0  0  0  0  0
  -22.1622   -4.2183   21.0944 F   0  0  0  0  0  0
  -21.5617   -3.4491   25.7688 F   0  0  0  0  0  0
  -30.0421  -13.3639   20.4884 N   0  0  0  0  0  0
  -26.3045  -12.9370   20.3251 N   0  0  0  0  0  0
  -25.9375  -11.6524   20.5726 N   0  0  0  0  0  0
  -22.0357  -12.8473   22.0276 N   0  0  0  0  0  0
  -25.4290  -15.1901   20.4121 N   0  0  0  0  0  0
  -31.8105  -14.7585   20.1319 O   0  0  0  0  0  0
  -21.6654   -6.8895   21.4254 O   0  0  0  0  0  0
  -22.3605  -14.5600   20.6479 O   0  0  0  0  0  0
  -24.6173  -31.8646   23.2040 C   0  0  0  0  0  0
  -25.9039  -32.4804   23.8311 C   0  0  1  0  0  0
  -27.2341  -27.4150   20.1178 C   0  0  0  0  0  0
  -25.5885  -33.8611   24.2269 N   0  0  0  0  0  0
  -23.4041  -30.4858   21.5437 C   0  0  2  0  0  0
  -24.8503  -28.9473   20.1061 C   0  0  0  0  0  0
  -22.7421  -29.4633   22.4979 C   0  0  0  0  0  0
  -18.0277  -28.1400   22.8498 C   0  0  0  0  0  0
  -24.1486  -36.7372   23.2626 C   0  0  0  0  0  0
  -25.9288  -30.8339   21.3423 C   0  0  0  0  0  0
  -26.0070  -29.4640   20.6958 C   0  0  0  0  0  0
  -27.1994  -28.7073   20.6869 C   0  0  0  0  0  0
  -26.0574  -26.9081   19.5161 C   0  0  0  0  0  0
  -24.8745  -27.6751   19.5089 C   0  0  0  0  0  0
  -23.6115  -29.8131   20.1599 C   0  0  0  0  0  0
  -25.4095  -36.3132   24.0329 C   0  0  1  0  0  0
  -20.5861  -28.3677   23.1351 C   0  0  2  0  0  0
  -20.6741  -26.9408   22.5433 C   0  0  0  0  0  0
  -19.5712  -26.6396   21.5227 C   0  0  0  0  0  0
  -18.1898  -26.7964   22.1636 C   0  0  0  0  0  0
  -19.1529  -28.8863   23.2918 C   0  0  0  0  0  0
  -18.9425  -30.1478   23.8921 C   0  0  0  0  0  0
  -17.6420  -30.6587   24.0552 C   0  0  0  0  0  0
  -25.9045  -34.9486   23.5102 C   0  0  0  0  0  0
  -16.5317  -29.9082   23.6308 C   0  0  0  0  0  0
  -16.7264  -28.6505   23.0315 C   0  0  0  0  0  0
  -26.4474  -31.6577   25.0631 C   0  0  0  0  0  0
  -25.3745  -31.3671   26.1382 C   0  0  0  0  0  0
  -27.0236  -30.2997   24.5974 C   0  0  0  0  0  0
  -27.6032  -32.4277   25.7429 C   0  0  0  0  0  0
  -27.5593  -37.1811   24.8435 C   0  0  0  0  0  0
  -21.4135  -29.3045   22.3754 N   0  0  0  0  0  0
  -26.4284  -37.3801   23.9425 N   0  0  0  0  0  0
  -24.6673  -31.0777   22.0879 N   0  0  0  0  0  0
  -23.4211  -28.8197   23.3005 O   0  0  0  0  0  0
  -28.4278  -26.7286   20.2127 O   0  0  0  0  0  0
  -26.5650  -34.8937   22.4684 O   0  0  0  0  0  0
  -23.5357  -32.1359   23.7457 O   0  0  0  0  0  0
  -30.5860  -20.6375   21.5455 C   0  0  0  0  0  0
  -29.2094  -19.6507   19.8423 C   0  0  0  0  0  0
  -29.7919  -20.8113   20.4026 C   0  0  0  0  0  0
  -30.8462  -19.3530   22.0887 C   0  0  0  0  0  0
  -29.3849  -18.3577   20.4140 C   0  0  0  0  0  0
  -30.2905  -18.1540   21.5061 C   0  0  0  0  0  0
  -30.1741  -25.3024   19.5997 C   0  0  0  0  0  0
  -28.2570  -24.2045   20.5832 C   0  0  0  0  0  0
  -28.6460  -25.4115   19.6784 C   0  0  1  0  0  0
  -30.6053  -24.3681   20.7427 C   0  0  0  0  0  0
  -31.7335  -19.3652   23.3307 C   0  0  0  0  0  0
  -28.4818  -17.2705   19.8480 C   0  0  0  0  0  0
  -30.7307  -25.1377   22.0954 C   0  0  0  0  0  0
  -32.0203  -23.8092   20.4946 C   0  0  0  0  0  0
  -30.6544  -16.7371   22.1064 C   0  0  0  0  0  0
  -29.5774  -22.2149   19.7793 C   0  0  0  0  0  0
  -30.1576  -15.4464   21.5217 N   0  0  0  0  0  0
  -29.4855  -23.3625   20.7626 N   0  3  2  0  0  0
  -31.4972  -12.4438   19.1980 H   0  0  0  0  0  0
  -30.3120  -11.3600   19.8542 H   0  0  0  0  0  0
  -29.8260  -11.8712   17.4379 H   0  0  0  0  0  0
  -29.6791  -13.5720   17.8426 H   0  0  0  0  0  0
  -27.8733  -11.3215   18.7905 H   0  0  0  0  0  0
  -27.4300  -12.6591   17.7652 H   0  0  0  0  0  0
  -27.7046  -14.2666   19.5729 H   0  0  0  0  0  0
  -28.6898  -12.0011   21.3617 H   0  0  0  0  0  0
  -28.4213  -13.6279   21.8785 H   0  0  0  0  0  0
  -25.2749   -9.5728   22.4730 H   0  0  0  0  0  0
  -23.9971   -7.4739   22.7524 H   0  0  0  0  0  0
  -21.0830   -8.8846   19.9020 H   0  0  0  0  0  0
  -22.3726  -10.9671   19.6164 H   0  0  0  0  0  0
  -21.2039   -7.6149   23.9758 H   0  0  0  0  0  0
  -21.1482   -6.0480   25.9091 H   0  0  0  0  0  0
  -22.0586   -2.7607   23.2788 H   0  0  0  0  0  0
  -22.3871  -12.0253   22.4939 H   0  0  0  0  0  0
  -21.0945  -13.1625   22.2241 H   0  0  0  0  0  0
  -24.6564  -15.8371   20.5231 H   0  0  0  0  0  0
  -26.2859  -15.6349   20.1171 H   0  0  0  0  0  0
  -26.7100  -32.5531   23.1069 H   0  0  0  0  0  0
  -24.9885  -33.9723   25.0317 H   0  0  0  0  0  0
  -22.6942  -31.3032   21.4028 H   0  0  0  0  0  0
  -23.3743  -35.9703   23.3235 H   0  0  0  0  0  0
  -24.3565  -36.9053   22.2048 H   0  0  0  0  0  0
  -23.7252  -37.6553   23.6699 H   0  0  0  0  0  0
  -26.0222  -31.5946   20.5650 H   0  0  0  0  0  0
  -26.8263  -30.9070   21.9452 H   0  0  0  0  0  0
  -28.0990  -29.1130   21.1283 H   0  0  0  0  0  0
  -26.0278  -25.9235   19.0675 H   0  0  0  0  0  0
  -23.9782  -27.2779   19.0492 H   0  0  0  0  0  0
  -23.7166  -30.5843   19.3963 H   0  0  0  0  0  0
  -22.7358  -29.2330   19.8665 H   0  0  0  0  0  0
  -25.1268  -36.1946   25.0819 H   0  0  0  0  0  0
  -20.9943  -28.3206   24.1476 H   0  0  0  0  0  0
  -20.5644  -26.2259   23.3600 H   0  0  0  0  0  0
  -21.6587  -26.7443   22.1200 H   0  0  0  0  0  0
  -19.6819  -25.6307   21.1236 H   0  0  0  0  0  0
  -19.6649  -27.3231   20.6775 H   0  0  0  0  0  0
  -17.4166  -26.6781   21.4019 H   0  0  0  0  0  0
  -18.0227  -26.0105   22.9022 H   0  0  0  0  0  0
  -19.7909  -30.7280   24.2260 H   0  0  0  0  0  0
  -17.4967  -31.6263   24.5173 H   0  0  0  0  0  0
  -15.5298  -30.2943   23.7619 H   0  0  0  0  0  0
  -15.8691  -28.0807   22.6970 H   0  0  0  0  0  0
  -24.5932  -30.7020   25.7718 H   0  0  0  0  0  0
  -24.8936  -32.2815   26.4863 H   0  0  0  0  0  0
  -25.8088  -30.8805   27.0130 H   0  0  0  0  0  0
  -26.2682  -29.6790   24.1136 H   0  0  0  0  0  0
  -27.4100  -29.7207   25.4387 H   0  0  0  0  0  0
  -27.8503  -30.4291   23.8972 H   0  0  0  0  0  0
  -27.2630  -33.3546   26.2075 H   0  0  0  0  0  0
  -28.3828  -32.6906   25.0263 H   0  0  0  0  0  0
  -28.0744  -31.8372   26.5310 H   0  0  0  0  0  0
  -28.2553  -38.0163   24.7564 H   0  0  0  0  0  0
  -28.1148  -36.2714   24.6138 H   0  0  0  0  0  0
  -27.2347  -37.1294   25.8834 H   0  0  0  0  0  0
  -20.9282  -29.8782   21.7002 H   0  0  0  0  0  0
  -26.0181  -38.2867   24.1440 H   0  0  0  0  0  0
  -31.0201  -21.5088   22.0098 H   0  0  0  0  0  0
  -28.5898  -19.7430   18.9595 H   0  0  0  0  0  0
  -30.6782  -26.2680   19.6292 H   0  0  0  0  0  0
  -30.4241  -24.8418   18.6450 H   0  0  0  0  0  0
  -27.4034  -23.6469   20.1921 H   0  0  0  0  0  0
  -27.9547  -24.5500   21.5700 H   0  0  0  0  0  0
  -28.2198  -25.3118   18.6773 H   0  0  0  0  0  0
  -31.6232  -20.3098   23.8789 H   0  0  0  0  0  0
  -32.7919  -19.2890   23.0757 H   0  0  0  0  0  0
  -31.4880  -18.5756   24.0365 H   0  0  0  0  0  0
  -27.5766  -17.7389   19.4577 H   0  0  0  0  0  0
  -28.1229  -16.5778   20.6137 H   0  0  0  0  0  0
  -28.9474  -16.7102   19.0355 H   0  0  0  0  0  0
  -29.7849  -25.4861   22.5089 H   0  0  0  0  0  0
  -31.3591  -26.0253   21.9841 H   0  0  0  0  0  0
  -31.2238  -24.5279   22.8586 H   0  0  0  0  0  0
  -32.7628  -24.5747   20.7307 H   0  0  0  0  0  0
  -32.1823  -23.5387   19.4552 H   0  0  0  0  0  0
  -32.2548  -22.9561   21.1306 H   0  0  0  0  0  0
  -30.2489  -16.7398   23.1222 H   0  0  0  0  0  0
  -31.7346  -16.6707   22.2707 H   0  0  0  0  0  0
  -28.6516  -22.1612   19.2011 H   0  0  0  0  0  0
  -30.3345  -22.3973   19.0151 H   0  0  0  0  0  0
  -29.2918  -15.1253   21.9181 H   0  0  0  0  0  0
  -29.4335  -22.9241   21.6700 H   0  0  0  0  0  0
  1 25  1  0  0  0
  1 30  2  0  0  0
  1 87  1  0  0  0
  2  3  1  0  0  0
  2 25  1  0  0  0
  2 89  1  0  0  0
  2 90  1  0  0  0
  3  4  1  0  0  0
  3 91  1  0  0  0
  3 92  1  0  0  0
  4  5  1  0  0  0
  4 93  1  0  0  0
  4 94  1  0  0  0
  5  6  1  0  0  0
  5 26  1  0  0  0
  5 95  1  0  0  0
  6 25  1  0  0  0
  6 96  1  0  0  0
  6 97  1  0  0  0
  7  8  2  0  0  0
  7 26  1  0  0  0
  7 29  1  0  0  0
  8  9  1  0  0  0
  8 22  1  0  0  0
  9 10  1  0  0  0
  9 27  2  0  0  0
 10 11  2  0  0  0
 10 15  1  0  0  0
 11 12  1  0  0  0
 11 98  1  0  0  0
 12 13  2  0  0  0
 12 99  1  0  0  0
 13 14  1  0  0  0
 13 31  1  0  0  0
 14 15  2  0  0  0
 14100  1  0  0  0
 15101  1  0  0  0
 16 17  2  0  0  0
 16 21  1  0  0  0
 16 31  1  0  0  0
 17 18  1  0  0  0
 17102  1  0  0  0
 18 19  2  0  0  0
 18103  1  0  0  0
 19 20  1  0  0  0
 19 24  1  0  0  0
 20 21  2  0  0  0
 20104  1  0  0  0
 21 23  1  0  0  0
 22 28  1  0  0  0
 22 32  2  0  0  0
 26 27  1  0  0  0
 28105  1  0  0  0
 28106  1  0  0  0
 29107  1  0  0  0
 29108  1  0  0  0
 33 34  1  0  0  0
 33 66  1  0  0  0
 33 70  2  0  0  0
 34 36  1  0  0  0
 34 59  1  0  0  0
 34109  1  0  0  0
 35 44  2  0  0  0
 35 45  1  0  0  0
 35 68  1  0  0  0
 36 56  1  0  0  0
 36110  1  0  0  0
 37 39  1  0  0  0
 37 47  1  0  0  0
 37 66  1  0  0  0
 37111  1  0  0  0
 38 43  2  0  0  0
 38 46  1  0  0  0
 38 47  1  0  0  0
 39 64  1  0  0  0
 39 67  2  0  0  0
 40 52  1  0  0  0
 40 53  2  0  0  0
 40 58  1  0  0  0
 41112  1  0  0  0
 41113  1  0  0  0
 41114  1  0  0  0
 41 48  1  0  0  0
 42 43  1  0  0  0
 42 66  1  0  0  0
 42115  1  0  0  0
 42116  1  0  0  0
 43 44  1  0  0  0
 44117  1  0  0  0
 45 46  2  0  0  0
 45118  1  0  0  0
 46119  1  0  0  0
 47120  1  0  0  0
 47121  1  0  0  0
 48 56  1  0  0  0
 48 65  1  0  0  0
 48122  1  0  0  0
 49 50  1  0  0  0
 49 53  1  0  0  0
 49 64  1  0  0  0
 49123  1  0  0  0
 50 51  1  0  0  0
 50124  1  0  0  0
 50125  1  0  0  0
 51 52  1  0  0  0
 51126  1  0  0  0
 51127  1  0  0  0
 52128  1  0  0  0
 52129  1  0  0  0
 53 54  1  0  0  0
 54 55  2  0  0  0
 54130  1  0  0  0
 55 57  1  0  0  0
 55131  1  0  0  0
 56 69  2  0  0  0
 57 58  2  0  0  0
 57132  1  0  0  0
 58133  1  0  0  0
 59 60  1  0  0  0
 59 61  1  0  0  0
 59 62  1  0  0  0
 60134  1  0  0  0
 60135  1  0  0  0
 60136  1  0  0  0
 61137  1  0  0  0
 61138  1  0  0  0
 61139  1  0  0  0
 62140  1  0  0  0
 62141  1  0  0  0
 62142  1  0  0  0
 63 65  1  0  0  0
 63143  1  0  0  0
 63144  1  0  0  0
 63145  1  0  0  0
 64146  1  0  0  0
 65147  1  0  0  0
 68 79  1  0  0  0
 71 73  2  0  0  0
 71 74  1  0  0  0
 71148  1  0  0  0
 72 73  1  0  0  0
 72 75  2  0  0  0
 72149  1  0  0  0
 73 86  1  0  0  0
 74 76  2  0  0  0
 74 81  1  0  0  0
 75 76  1  0  0  0
 75 82  1  0  0  0
 76 85  1  0  0  0
 77 79  1  0  0  0
 77 80  1  0  0  0
 77150  1  0  0  0
 77151  1  0  0  0
 78 79  1  0  0  0
 78 88  1  0  0  0
 78152  1  0  0  0
 78153  1  0  0  0
 79154  1  0  0  0
 80 83  1  0  0  0
 80 84  1  0  0  0
 80 88  1  0  0  0
 81155  1  0  0  0
 81156  1  0  0  0
 81157  1  0  0  0
 82158  1  0  0  0
 82159  1  0  0  0
 82160  1  0  0  0
 83161  1  0  0  0
 83162  1  0  0  0
 83163  1  0  0  0
 84164  1  0  0  0
 84165  1  0  0  0
 84166  1  0  0  0
 85 87  1  0  0  0
 85167  1  0  0  0
 85168  1  0  0  0
 86169  1  0  0  0
 86170  1  0  0  0
 86 88  1  0  0  0
 87171  1  0  0  0
 88172  1  0  0  0
M  CHG  1  88   1
M  ISO  4   1 100  68 101  79 101  87 100
M  END
> <chiral flag>
0

> <version>
0

> <s_m_source_file>
/data/baiqing/PycharmProjects/Reinvent-master-3.2/result/LINK_invent/BTK/process_docking_weight1_custom_product_contain_oxygen_bond_distance_aromatic_linkinvent_7_9_3/rearranged_h_0033.sdf

> <i_m_source_file_index>
29

> <r_mmod_Potential_Energy-OPLS-2005>
-27.8852081298828

> <r_mmod_Stretch_Energy-OPLS-2005>
66.4968948364258

> <r_mmod_Bend_Energy-OPLS-2005>
195.422698974609

> <r_mmod_Torsional_Energy-OPLS-2005>
267.577880859375

> <r_mmod_Improper_Torsional_Energy-OPLS-2005>
2.20858263969421

> <r_mmod_Van_der_Waal_Energy-OPLS-2005>
146.326446533203

> <r_mmod_Electrostatic_Energy-OPLS-2005>
-315.786224365234

> <r_mmod_Solvation_Energy-OPLS-2005>
-413.369171142578

> <b_mmod_Minimization_Converged-OPLS-2005>
0

> <r_mmod_RMS_Derivative-OPLS-2005>
9.72964668273926

$$$$
29
                    3D
 Structure written by MMmdl.
169178  0  0  1  0            999 V2000
  -30.6970  -14.5058   20.5685 C   0  0  0  0  0  0
  -30.4287  -12.3290   19.4155 C   0  0  0  0  0  0
  -29.4932  -12.5136   18.2037 C   0  0  0  0  0  0
  -28.0153  -12.3798   18.6180 C   0  0  0  0  0  0
  -27.6660  -13.2103   19.8809 C   0  0  2  0  0  0
  -28.7148  -12.9966   20.9949 C   0  0  0  0  0  0
  -25.2650  -13.8187   20.5709 C   0  0  0  0  0  0
  -24.1882  -13.0480   20.9188 C   0  0  0  0  0  0
  -24.6416  -11.6931   20.8731 C   0  0  0  0  0  0
  -23.9058  -10.4321   21.0394 C   0  0  0  0  0  0
  -24.3610   -9.4246   21.9186 C   0  0  0  0  0  0
  -23.6289   -8.2287   22.0765 C   0  0  0  0  0  0
  -22.4273   -8.0305   21.3544 C   0  0  0  0  0  0
  -21.9892   -9.0279   20.4643 C   0  0  0  0  0  0
  -22.7218  -10.2164   20.3060 C   0  0  0  0  0  0
  -21.6872   -6.0720   22.5257 C   0  0  0  0  0  0
  -21.4013   -6.5611   23.8186 C   0  0  0  0  0  0
  -21.3681   -5.6764   24.9149 C   0  0  0  0  0  0
  -21.6080   -4.3036   24.7199 C   0  0  0  0  0  0
  -21.8824   -3.8128   23.4323 C   0  0  0  0  0  0
  -21.9202   -4.6953   22.3373 C   0  0  0  0  0  0
  -22.7901  -13.5309   21.1808 C   0  0  0  0  0  0
  -22.1677   -4.2149   21.0947 F   0  0  0  0  0  0
  -21.5647   -3.4494   25.7707 F   0  0  0  0  0  0
  -30.0366  -13.3197   20.4320 N   0  0  0  0  0  0
  -26.3071  -12.9353   20.3445 N   0  0  0  0  0  0
  -25.9353  -11.6509   20.5808 N   0  0  0  0  0  0
  -22.0496  -12.8323   22.0359 N   0  0  0  0  0  0
  -25.4408  -15.1894   20.4060 N   0  0  0  0  0  0
  -31.8331  -14.6826   20.1185 O   0  0  0  0  0  0
  -21.6667   -6.8882   21.4235 O   0  0  0  0  0  0
  -22.3599  -14.5586   20.6591 O   0  0  0  0  0  0
  -24.6164  -31.8658   23.2089 C   0  0  0  0  0  0
  -25.9046  -32.4815   23.8398 C   0  0  1  0  0  0
  -27.2093  -27.3785   20.1238 C   0  0  0  0  0  0
  -25.5911  -33.8619   24.2325 N   0  0  0  0  0  0
  -23.4057  -30.4912   21.5482 C   0  0  2  0  0  0
  -24.8501  -28.9495   20.1149 C   0  0  0  0  0  0
  -22.7422  -29.4672   22.4958 C   0  0  0  0  0  0
  -18.0281  -28.1380   22.8497 C   0  0  0  0  0  0
  -24.1487  -36.7284   23.2645 C   0  0  0  0  0  0
  -25.9399  -30.8140   21.3731 C   0  0  0  0  0  0
  -26.0129  -29.4458   20.7178 C   0  0  0  0  0  0
  -27.2000  -28.6689   20.7146 C   0  0  0  0  0  0
  -26.0314  -26.9071   19.5078 C   0  0  0  0  0  0
  -24.8576  -27.6838   19.5038 C   0  0  0  0  0  0
  -23.6165  -29.8249   20.1630 C   0  0  0  0  0  0
  -25.4111  -36.3103   24.0345 C   0  0  1  0  0  0
  -20.5874  -28.3675   23.1294 C   0  0  2  0  0  0
  -20.6783  -26.9406   22.5413 C   0  0  0  0  0  0
  -19.5760  -26.6388   21.5206 C   0  0  0  0  0  0
  -18.1928  -26.7930   22.1607 C   0  0  0  0  0  0
  -19.1532  -28.8841   23.2896 C   0  0  0  0  0  0
  -18.9458  -30.1444   23.8909 C   0  0  0  0  0  0
  -17.6463  -30.6596   24.0542 C   0  0  0  0  0  0
  -25.9038  -34.9473   23.5125 C   0  0  0  0  0  0
  -16.5352  -29.9077   23.6359 C   0  0  0  0  0  0
  -16.7268  -28.6488   23.0393 C   0  0  0  0  0  0
  -26.4450  -31.6623   25.0756 C   0  0  0  0  0  0
  -25.3702  -31.3743   26.1498 C   0  0  0  0  0  0
  -27.0313  -30.3069   24.6181 C   0  0  0  0  0  0
  -27.6044  -32.4335   25.7492 C   0  0  0  0  0  0
  -27.5577  -37.1801   24.8465 C   0  0  0  0  0  0
  -21.4149  -29.3037   22.3687 N   0  0  0  0  0  0
  -26.4291  -37.3785   23.9414 N   0  0  0  0  0  0
  -24.6714  -31.0734   22.1004 N   0  0  0  0  0  0
  -23.4180  -28.8229   23.3023 O   0  0  0  0  0  0
  -28.3486  -26.5938   20.1203 O   0  0  0  0  0  0
  -26.5586  -34.8918   22.4680 O   0  0  0  0  0  0
  -23.5353  -32.1434   23.7466 O   0  0  0  0  0  0
  -29.5393  -17.7095   19.0445 C   0  0  0  0  0  0
  -28.9793  -18.6706   18.1859 C   0  0  0  0  0  0
  -29.3830  -19.3025   20.8812 C   0  0  0  0  0  0
  -29.7451  -18.0035   20.4055 C   0  0  0  0  0  0
  -28.6079  -19.9496   18.6597 C   0  0  0  0  0  0
  -28.8173  -20.2992   20.0205 C   0  0  0  0  0  0
  -29.4301  -25.1701   21.6815 C   0  0  0  0  0  0
  -30.6579  -24.6211   20.9531 C   0  0  0  0  0  0
  -28.2789  -24.1051   19.6471 C   0  0  0  0  0  0
  -28.2480  -25.2638   20.7101 C   0  0  2  0  0  0
  -30.4390  -23.1357   20.5868 C   0  0  2  0  0  0
  -27.9812  -20.9169   17.6662 C   0  0  0  0  0  0
  -31.5638  -22.6217   19.6751 C   0  0  0  0  0  0
  -30.4076  -16.9342   21.3102 C   0  0  0  0  0  0
  -28.3708  -21.6920   20.5612 C   0  0  0  0  0  0
  -29.9835  -15.5251   21.0982 N   0  0  0  0  0  0
  -29.1014  -22.8714   19.9691 N   0  3  1  0  0  0
  -31.4701  -12.4339   19.1053 H   0  0  0  0  0  0
  -30.3421  -11.3181   19.8138 H   0  0  0  0  0  0
  -29.7245  -11.7792   17.4300 H   0  0  0  0  0  0
  -29.6656  -13.4926   17.7584 H   0  0  0  0  0  0
  -27.8152  -11.3222   18.7988 H   0  0  0  0  0  0
  -27.3694  -12.6765   17.7931 H   0  0  0  0  0  0
  -27.7085  -14.2590   19.5878 H   0  0  0  0  0  0
  -28.7133  -11.9588   21.3360 H   0  0  0  0  0  0
  -28.4813  -13.5908   21.8789 H   0  0  0  0  0  0
  -25.2748   -9.5751   22.4747 H   0  0  0  0  0  0
  -24.0011   -7.4684   22.7475 H   0  0  0  0  0  0
  -21.0833   -8.8793   19.8913 H   0  0  0  0  0  0
  -22.3678  -10.9707   19.6175 H   0  0  0  0  0  0
  -21.1986   -7.6114   23.9692 H   0  0  0  0  0  0
  -21.1510   -6.0478   25.9056 H   0  0  0  0  0  0
  -22.0584   -2.7592   23.2793 H   0  0  0  0  0  0
  -22.4023  -11.9997   22.4823 H   0  0  0  0  0  0
  -21.1115  -13.1409   22.2467 H   0  0  0  0  0  0
  -24.6748  -15.8482   20.4907 H   0  0  0  0  0  0
  -26.2925  -15.6204   20.0654 H   0  0  0  0  0  0
  -26.7112  -32.5502   23.1152 H   0  0  0  0  0  0
  -25.0125  -33.9784   25.0512 H   0  0  0  0  0  0
  -22.6969  -31.3104   21.4100 H   0  0  0  0  0  0
  -23.3763  -35.9599   23.3305 H   0  0  0  0  0  0
  -24.3582  -36.8898   22.2061 H   0  0  0  0  0  0
  -23.7211  -37.6477   23.6649 H   0  0  0  0  0  0
  -26.0696  -31.5837   20.6113 H   0  0  0  0  0  0
  -26.8197  -30.8582   22.0027 H   0  0  0  0  0  0
  -28.0957  -29.0428   21.1902 H   0  0  0  0  0  0
  -26.0131  -25.9392   19.0257 H   0  0  0  0  0  0
  -23.9617  -27.3037   19.0333 H   0  0  0  0  0  0
  -23.7300  -30.5998   19.4047 H   0  0  0  0  0  0
  -22.7376  -29.2515   19.8630 H   0  0  0  0  0  0
  -25.1291  -36.1968   25.0836 H   0  0  0  0  0  0
  -20.9964  -28.3246   24.1409 H   0  0  0  0  0  0
  -20.5710  -26.2270   23.3597 H   0  0  0  0  0  0
  -21.6650  -26.7484   22.1179 H   0  0  0  0  0  0
  -19.6933  -25.6292   21.1240 H   0  0  0  0  0  0
  -19.6713  -27.3191   20.6719 H   0  0  0  0  0  0
  -17.4216  -26.6698   21.3991 H   0  0  0  0  0  0
  -18.0329  -26.0055   22.8987 H   0  0  0  0  0  0
  -19.7938  -30.7252   24.2291 H   0  0  0  0  0  0
  -17.5025  -31.6289   24.5112 H   0  0  0  0  0  0
  -15.5353  -30.2974   23.7697 H   0  0  0  0  0  0
  -15.8661  -28.0781   22.7156 H   0  0  0  0  0  0
  -24.5886  -30.7077   25.7819 H   0  0  0  0  0  0
  -24.8878  -32.2921   26.4898 H   0  0  0  0  0  0
  -25.8056  -30.8944   27.0285 H   0  0  0  0  0  0
  -26.2917  -29.6819   24.1179 H   0  0  0  0  0  0
  -27.4018  -29.7312   25.4672 H   0  0  0  0  0  0
  -27.8763  -30.4376   23.9415 H   0  0  0  0  0  0
  -27.2693  -33.3630   26.2092 H   0  0  0  0  0  0
  -28.3830  -32.6905   25.0301 H   0  0  0  0  0  0
  -28.0739  -31.8453   26.5379 H   0  0  0  0  0  0
  -28.2600  -38.0093   24.7529 H   0  0  0  0  0  0
  -28.1072  -36.2636   24.6281 H   0  0  0  0  0  0
  -27.2305  -37.1444   25.8869 H   0  0  0  0  0  0
  -20.9311  -29.8687   21.6845 H   0  0  0  0  0  0
  -26.0182  -38.2860   24.1426 H   0  0  0  0  0  0
  -29.8181  -16.7445   18.6477 H   0  0  0  0  0  0
  -28.8356  -18.4130   17.1461 H   0  0  0  0  0  0
  -29.5303  -19.5372   21.9249 H   0  0  0  0  0  0
  -29.6367  -26.1490   22.1156 H   0  0  0  0  0  0
  -29.1737  -24.5147   22.5166 H   0  0  0  0  0  0
  -31.5438  -24.7252   21.5800 H   0  0  0  0  0  0
  -30.8571  -25.2218   20.0639 H   0  0  0  0  0  0
  -28.7314  -24.5200   18.7489 H   0  0  0  0  0  0
  -27.2689  -23.8352   19.3400 H   0  0  0  0  0  0
  -27.3334  -25.1836   21.3009 H   0  0  0  0  0  0
  -30.5012  -22.5752   21.5220 H   0  0  0  0  0  0
  -27.6991  -20.3996   16.7487 H   0  0  0  0  0  0
  -28.6851  -21.7033   17.3972 H   0  0  0  0  0  0
  -27.0715  -21.3696   18.0613 H   0  0  0  0  0  0
  -31.5743  -23.1341   18.7121 H   0  0  0  0  0  0
  -31.4674  -21.5510   19.4873 H   0  0  0  0  0  0
  -32.5398  -22.7799   20.1359 H   0  0  0  0  0  0
  -30.2337  -17.1871   22.3567 H   0  0  0  0  0  0
  -31.4868  -17.0189   21.1754 H   0  0  0  0  0  0
  -28.4467  -21.7104   21.6479 H   0  0  0  0  0  0
  -27.3009  -21.7876   20.3675 H   0  0  0  0  0  0
  -29.0523  -15.2947   21.4079 H   0  0  0  0  0  0
  -29.3281  -22.5197   19.0501 H   0  0  0  0  0  0
  1 25  1  0  0  0
  1 30  2  0  0  0
  1 86  1  0  0  0
  2  3  1  0  0  0
  2 25  1  0  0  0
  2 88  1  0  0  0
  2 89  1  0  0  0
  3  4  1  0  0  0
  3 90  1  0  0  0
  3 91  1  0  0  0
  4  5  1  0  0  0
  4 92  1  0  0  0
  4 93  1  0  0  0
  5  6  1  0  0  0
  5 26  1  0  0  0
  5 94  1  0  0  0
  6 25  1  0  0  0
  6 95  1  0  0  0
  6 96  1  0  0  0
  7  8  2  0  0  0
  7 26  1  0  0  0
  7 29  1  0  0  0
  8  9  1  0  0  0
  8 22  1  0  0  0
  9 10  1  0  0  0
  9 27  2  0  0  0
 10 11  2  0  0  0
 10 15  1  0  0  0
 11 12  1  0  0  0
 11 97  1  0  0  0
 12 13  2  0  0  0
 12 98  1  0  0  0
 13 14  1  0  0  0
 13 31  1  0  0  0
 14 15  2  0  0  0
 14 99  1  0  0  0
 15100  1  0  0  0
 16 17  2  0  0  0
 16 21  1  0  0  0
 16 31  1  0  0  0
 17 18  1  0  0  0
 17101  1  0  0  0
 18 19  2  0  0  0
 18102  1  0  0  0
 19 20  1  0  0  0
 19 24  1  0  0  0
 20 21  2  0  0  0
 20103  1  0  0  0
 21 23  1  0  0  0
 22 28  1  0  0  0
 22 32  2  0  0  0
 26 27  1  0  0  0
 28104  1  0  0  0
 28105  1  0  0  0
 29106  1  0  0  0
 29107  1  0  0  0
 33 34  1  0  0  0
 33 66  1  0  0  0
 33 70  2  0  0  0
 34 36  1  0  0  0
 34 59  1  0  0  0
 34108  1  0  0  0
 35 44  2  0  0  0
 35 45  1  0  0  0
 35 68  1  0  0  0
 36 56  1  0  0  0
 36109  1  0  0  0
 37 39  1  0  0  0
 37 47  1  0  0  0
 37 66  1  0  0  0
 37110  1  0  0  0
 38 43  2  0  0  0
 38 46  1  0  0  0
 38 47  1  0  0  0
 39 64  1  0  0  0
 39 67  2  0  0  0
 40 52  1  0  0  0
 40 53  2  0  0  0
 40 58  1  0  0  0
 41111  1  0  0  0
 41112  1  0  0  0
 41113  1  0  0  0
 41 48  1  0  0  0
 42 43  1  0  0  0
 42 66  1  0  0  0
 42114  1  0  0  0
 42115  1  0  0  0
 43 44  1  0  0  0
 44116  1  0  0  0
 45 46  2  0  0  0
 45117  1  0  0  0
 46118  1  0  0  0
 47119  1  0  0  0
 47120  1  0  0  0
 48 56  1  0  0  0
 48 65  1  0  0  0
 48121  1  0  0  0
 49 50  1  0  0  0
 49 53  1  0  0  0
 49 64  1  0  0  0
 49122  1  0  0  0
 50 51  1  0  0  0
 50123  1  0  0  0
 50124  1  0  0  0
 51 52  1  0  0  0
 51125  1  0  0  0
 51126  1  0  0  0
 52127  1  0  0  0
 52128  1  0  0  0
 53 54  1  0  0  0
 54 55  2  0  0  0
 54129  1  0  0  0
 55 57  1  0  0  0
 55130  1  0  0  0
 56 69  2  0  0  0
 57 58  2  0  0  0
 57131  1  0  0  0
 58132  1  0  0  0
 59 60  1  0  0  0
 59 61  1  0  0  0
 59 62  1  0  0  0
 60133  1  0  0  0
 60134  1  0  0  0
 60135  1  0  0  0
 61136  1  0  0  0
 61137  1  0  0  0
 61138  1  0  0  0
 62139  1  0  0  0
 62140  1  0  0  0
 62141  1  0  0  0
 63 65  1  0  0  0
 63142  1  0  0  0
 63143  1  0  0  0
 63144  1  0  0  0
 64145  1  0  0  0
 65146  1  0  0  0
 68 80  1  0  0  0
 71 72  2  0  0  0
 71 74  1  0  0  0
 71147  1  0  0  0
 72 75  1  0  0  0
 72148  1  0  0  0
 73 74  2  0  0  0
 73 76  1  0  0  0
 73149  1  0  0  0
 74 84  1  0  0  0
 75 76  2  0  0  0
 75 82  1  0  0  0
 76 85  1  0  0  0
 77 78  1  0  0  0
 77 80  1  0  0  0
 77150  1  0  0  0
 77151  1  0  0  0
 78 81  1  0  0  0
 78152  1  0  0  0
 78153  1  0  0  0
 79 80  1  0  0  0
 79 87  1  0  0  0
 79154  1  0  0  0
 79155  1  0  0  0
 80156  1  0  0  0
 81 83  1  0  0  0
 81 87  1  0  0  0
 81157  1  0  0  0
 82158  1  0  0  0
 82159  1  0  0  0
 82160  1  0  0  0
 83161  1  0  0  0
 83162  1  0  0  0
 83163  1  0  0  0
 84 86  1  0  0  0
 84164  1  0  0  0
 84165  1  0  0  0
 85166  1  0  0  0
 85167  1  0  0  0
 85 87  1  0  0  0
 86168  1  0  0  0
 87169  1  0  0  0
M  CHG  1  87   1
M  ISO  4   1 100  68 101  80 101  86 100
M  END
> <chiral flag>
0

> <version>
0

> <s_m_source_file>
/data/baiqing/PycharmProjects/Reinvent-master-3.2/result/LINK_invent/BTK/process_docking_weight1_custom_product_contain_oxygen_bond_distance_aromatic_linkinvent_7_9_3/rearranged_h_0033.sdf

> <i_m_source_file_index>
30

> <r_mmod_Potential_Energy-OPLS-2005>
-106.641906738281

> <r_mmod_Stretch_Energy-OPLS-2005>
56.5745658874512

> <r_mmod_Bend_Energy-OPLS-2005>
116.906921386719

> <r_mmod_Torsional_Energy-OPLS-2005>
270.883361816406

> <r_mmod_Improper_Torsional_Energy-OPLS-2005>
3.32429432868958

> <r_mmod_Van_der_Waal_Energy-OPLS-2005>
144.045669555664

> <r_mmod_Electrostatic_Energy-OPLS-2005>
-309.257781982422

> <r_mmod_Solvation_Energy-OPLS-2005>
-409.384216308594

> <b_mmod_Minimization_Converged-OPLS-2005>
0

> <r_mmod_RMS_Derivative-OPLS-2005>
3.97912311553955

$$$$
30
                    3D
 Structure written by MMmdl.
172181  0  0  1  0            999 V2000
  -30.7871  -14.4113   20.5308 C   0  0  0  0  0  0
  -30.3884  -12.2597   19.4336 C   0  0  0  0  0  0
  -29.4854  -12.4693   18.2053 C   0  0  0  0  0  0
  -28.0061  -12.3626   18.6168 C   0  0  0  0  0  0
  -27.6562  -13.2206   19.8646 C   0  0  2  0  0  0
  -28.6990  -13.0535   20.9940 C   0  0  0  0  0  0
  -25.2564  -13.8201   20.5672 C   0  0  0  0  0  0
  -24.1826  -13.0447   20.9164 C   0  0  0  0  0  0
  -24.6401  -11.6920   20.8736 C   0  0  0  0  0  0
  -23.9079  -10.4291   21.0407 C   0  0  0  0  0  0
  -24.3629   -9.4205   21.9189 C   0  0  0  0  0  0
  -23.6285   -8.2247   22.0768 C   0  0  0  0  0  0
  -22.4275   -8.0286   21.3549 C   0  0  0  0  0  0
  -21.9920   -9.0259   20.4654 C   0  0  0  0  0  0
  -22.7253  -10.2129   20.3055 C   0  0  0  0  0  0
  -21.6856   -6.0723   22.5275 C   0  0  0  0  0  0
  -21.4010   -6.5633   23.8203 C   0  0  0  0  0  0
  -21.3655   -5.6792   24.9171 C   0  0  0  0  0  0
  -21.6047   -4.3056   24.7226 C   0  0  0  0  0  0
  -21.8823   -3.8140   23.4354 C   0  0  0  0  0  0
  -21.9189   -4.6948   22.3404 C   0  0  0  0  0  0
  -22.7851  -13.5241   21.1810 C   0  0  0  0  0  0
  -22.1664   -4.2130   21.0981 F   0  0  0  0  0  0
  -21.5630   -3.4543   25.7743 F   0  0  0  0  0  0
  -30.0304  -13.2902   20.4229 N   0  0  0  0  0  0
  -26.3006  -12.9391   20.3342 N   0  0  0  0  0  0
  -25.9338  -11.6537   20.5771 N   0  0  0  0  0  0
  -22.0496  -12.8224   22.0372 N   0  0  0  0  0  0
  -25.4269  -15.1907   20.4085 N   0  0  0  0  0  0
  -31.9383  -14.4577   20.0939 O   0  0  0  0  0  0
  -21.6646   -6.8871   21.4240 O   0  0  0  0  0  0
  -22.3536  -14.5537   20.6655 O   0  0  0  0  0  0
  -24.6147  -31.8685   23.2118 C   0  0  0  0  0  0
  -25.9049  -32.4819   23.8390 C   0  0  1  0  0  0
  -27.2223  -27.4334   20.0908 C   0  0  0  0  0  0
  -25.5884  -33.8618   24.2295 N   0  0  0  0  0  0
  -23.4001  -30.4924   21.5540 C   0  0  2  0  0  0
  -24.8424  -28.9660   20.1124 C   0  0  0  0  0  0
  -22.7409  -29.4653   22.5015 C   0  0  0  0  0  0
  -18.0264  -28.1355   22.8507 C   0  0  0  0  0  0
  -24.1491  -36.7309   23.2638 C   0  0  0  0  0  0
  -25.9278  -30.8374   21.3622 C   0  0  0  0  0  0
  -26.0031  -29.4707   20.7126 C   0  0  0  0  0  0
  -27.1944  -28.7108   20.7004 C   0  0  0  0  0  0
  -26.0435  -26.9580   19.4643 C   0  0  0  0  0  0
  -24.8568  -27.7102   19.4868 C   0  0  0  0  0  0
  -23.6045  -29.8301   20.1662 C   0  0  0  0  0  0
  -25.4109  -36.3090   24.0318 C   0  0  1  0  0  0
  -20.5846  -28.3636   23.1333 C   0  0  2  0  0  0
  -20.6750  -26.9368   22.5427 C   0  0  0  0  0  0
  -19.5727  -26.6366   21.5213 C   0  0  0  0  0  0
  -18.1906  -26.7908   22.1626 C   0  0  0  0  0  0
  -19.1508  -28.8829   23.2912 C   0  0  0  0  0  0
  -18.9451  -30.1448   23.8900 C   0  0  0  0  0  0
  -17.6456  -30.6588   24.0550 C   0  0  0  0  0  0
  -25.9038  -34.9468   23.5102 C   0  0  0  0  0  0
  -16.5350  -29.9073   23.6325 C   0  0  0  0  0  0
  -16.7253  -28.6483   23.0348 C   0  0  0  0  0  0
  -26.4474  -31.6597   25.0714 C   0  0  0  0  0  0
  -25.3718  -31.3701   26.1429 C   0  0  0  0  0  0
  -27.0262  -30.3036   24.6045 C   0  0  0  0  0  0
  -27.6034  -32.4341   25.7497 C   0  0  0  0  0  0
  -27.5574  -37.1795   24.8467 C   0  0  0  0  0  0
  -21.4136  -29.3007   22.3758 N   0  0  0  0  0  0
  -26.4281  -37.3775   23.9407 N   0  0  0  0  0  0
  -24.6663  -31.0793   22.1017 N   0  0  0  0  0  0
  -23.4199  -28.8184   23.3030 O   0  0  0  0  0  0
  -28.3981  -26.7090   20.1041 O   0  0  0  0  0  0
  -26.5613  -34.8922   22.4676 O   0  0  0  0  0  0
  -23.5348  -32.1460   23.7500 O   0  0  0  0  0  0
  -30.7112  -20.3271   22.1316 C   0  0  0  0  0  0
  -30.8938  -18.9338   22.1229 C   0  0  0  0  0  0
  -30.0410  -20.9816   21.0792 C   0  0  0  0  0  0
  -29.3917  -20.2049   20.0807 C   0  0  0  0  0  0
  -29.5260  -18.7875   20.0979 C   0  0  0  0  0  0
  -30.3692  -18.1647   21.0566 C   0  0  0  0  0  0
  -27.4884  -23.9637   23.2216 C   0  0  0  0  0  0
  -28.2366  -25.1849   22.6932 C   0  0  0  0  0  0
  -28.3745  -22.8060   22.7800 C   0  0  0  0  0  0
  -28.9475  -24.7009   21.4102 C   0  0  2  0  0  0
  -31.7510  -18.3137   23.2160 C   0  0  0  0  0  0
  -28.6099  -20.8693   18.9476 C   0  0  0  0  0  0
  -28.8427  -17.9442   19.0263 C   0  0  0  0  0  0
  -30.9773  -16.7912   20.7694 C   0  0  0  0  0  0
  -30.1284  -22.5130   21.0325 C   0  0  0  0  0  0
  -28.3220  -25.2700   20.1183 C   0  0  0  0  0  0
  -30.2060  -15.5503   20.9495 N   0  0  0  0  0  0
  -28.8837  -23.2043   21.4493 N   0  3  1  0  0  0
  -31.4382  -12.2872   19.1352 H   0  0  0  0  0  0
  -30.2301  -11.2658   19.8561 H   0  0  0  0  0  0
  -29.7108  -11.7209   17.4434 H   0  0  0  0  0  0
  -29.6835  -13.4415   17.7501 H   0  0  0  0  0  0
  -27.8034  -11.3114   18.8217 H   0  0  0  0  0  0
  -27.3631  -12.6361   17.7789 H   0  0  0  0  0  0
  -27.6899  -14.2625   19.5456 H   0  0  0  0  0  0
  -28.6533  -12.0479   21.4153 H   0  0  0  0  0  0
  -28.4865  -13.7354   21.8192 H   0  0  0  0  0  0
  -25.2779   -9.5664   22.4764 H   0  0  0  0  0  0
  -23.9980   -7.4647   22.7510 H   0  0  0  0  0  0
  -21.0849   -8.8784   19.8972 H   0  0  0  0  0  0
  -22.3727  -10.9662   19.6160 H   0  0  0  0  0  0
  -21.2007   -7.6140   23.9691 H   0  0  0  0  0  0
  -21.1476   -6.0530   25.9065 H   0  0  0  0  0  0
  -22.0606   -2.7600   23.2864 H   0  0  0  0  0  0
  -22.4127  -11.9895   22.4748 H   0  0  0  0  0  0
  -21.1116  -13.1255   22.2567 H   0  0  0  0  0  0
  -24.6642  -15.8479   20.5278 H   0  0  0  0  0  0
  -26.2809  -15.6306   20.0908 H   0  0  0  0  0  0
  -26.7111  -32.5533   23.1140 H   0  0  0  0  0  0
  -24.9969  -33.9790   25.0387 H   0  0  0  0  0  0
  -22.6865  -31.3089   21.4187 H   0  0  0  0  0  0
  -23.3730  -35.9672   23.3317 H   0  0  0  0  0  0
  -24.3575  -36.8927   22.2055 H   0  0  0  0  0  0
  -23.7292  -37.6526   23.6671 H   0  0  0  0  0  0
  -26.0320  -31.6044   20.5927 H   0  0  0  0  0  0
  -26.8207  -30.8974   21.9725 H   0  0  0  0  0  0
  -28.0905  -29.0973   21.1670 H   0  0  0  0  0  0
  -26.0156  -26.0216   18.9289 H   0  0  0  0  0  0
  -23.9643  -27.3281   19.0066 H   0  0  0  0  0  0
  -23.7071  -30.6084   19.4079 H   0  0  0  0  0  0
  -22.7313  -29.2447   19.8724 H   0  0  0  0  0  0
  -25.1296  -36.1917   25.0804 H   0  0  0  0  0  0
  -20.9956  -28.3196   24.1436 H   0  0  0  0  0  0
  -20.5683  -26.2223   23.3611 H   0  0  0  0  0  0
  -21.6604  -26.7405   22.1193 H   0  0  0  0  0  0
  -19.6870  -25.6279   21.1230 H   0  0  0  0  0  0
  -19.6663  -27.3206   20.6768 H   0  0  0  0  0  0
  -17.4175  -26.6684   21.4031 H   0  0  0  0  0  0
  -18.0264  -26.0052   22.9016 H   0  0  0  0  0  0
  -19.7950  -30.7248   24.2263 H   0  0  0  0  0  0
  -17.5021  -31.6272   24.5147 H   0  0  0  0  0  0
  -15.5354  -30.2973   23.7675 H   0  0  0  0  0  0
  -15.8638  -28.0824   22.7034 H   0  0  0  0  0  0
  -24.5926  -30.7009   25.7757 H   0  0  0  0  0  0
  -24.8866  -32.2867   26.4823 H   0  0  0  0  0  0
  -25.8072  -30.8919   27.0216 H   0  0  0  0  0  0
  -26.2755  -29.6829   24.1140 H   0  0  0  0  0  0
  -27.4068  -29.7243   25.4467 H   0  0  0  0  0  0
  -27.8599  -30.4334   23.9129 H   0  0  0  0  0  0
  -27.2607  -33.3647   26.2030 H   0  0  0  0  0  0
  -28.3873  -32.6890   25.0351 H   0  0  0  0  0  0
  -28.0646  -31.8484   26.5448 H   0  0  0  0  0  0
  -28.2570  -38.0108   24.7483 H   0  0  0  0  0  0
  -28.1071  -36.2619   24.6312 H   0  0  0  0  0  0
  -27.2269  -37.1475   25.8865 H   0  0  0  0  0  0
  -20.9299  -29.8708   21.6952 H   0  0  0  0  0  0
  -26.0150  -38.2837   24.1431 H   0  0  0  0  0  0
  -31.1789  -20.9107   22.9138 H   0  0  0  0  0  0
  -26.5125  -23.8837   22.7406 H   0  0  0  0  0  0
  -27.3361  -23.9890   24.2999 H   0  0  0  0  0  0
  -28.9834  -25.4901   23.4288 H   0  0  0  0  0  0
  -27.5794  -26.0402   22.5375 H   0  0  0  0  0  0
  -27.8327  -21.8606   22.7483 H   0  0  0  0  0  0
  -29.2018  -22.6902   23.4837 H   0  0  0  0  0  0
  -29.9849  -25.0346   21.4522 H   0  0  0  0  0  0
  -31.7605  -18.9344   24.1122 H   0  0  0  0  0  0
  -32.7835  -18.2096   22.8797 H   0  0  0  0  0  0
  -31.3755  -17.3311   23.5037 H   0  0  0  0  0  0
  -27.5398  -20.7920   19.1345 H   0  0  0  0  0  0
  -28.8169  -20.3880   17.9912 H   0  0  0  0  0  0
  -28.8438  -21.9205   18.8000 H   0  0  0  0  0  0
  -29.4546  -17.8895   18.1258 H   0  0  0  0  0  0
  -27.8656  -18.3511   18.7640 H   0  0  0  0  0  0
  -28.6528  -16.9302   19.3688 H   0  0  0  0  0  0
  -31.9229  -16.6838   21.3012 H   0  0  0  0  0  0
  -31.2829  -16.8499   19.7213 H   0  0  0  0  0  0
  -30.4146  -22.8316   20.0304 H   0  0  0  0  0  0
  -30.9531  -22.8417   21.6676 H   0  0  0  0  0  0
  -28.8611  -24.8997   19.2446 H   0  0  0  0  0  0
  -27.3138  -24.8671   20.0452 H   0  0  0  0  0  0
  -29.2400  -15.5706   21.2376 H   0  0  0  0  0  0
  -28.1704  -22.9142   20.7983 H   0  0  0  0  0  0
  1 25  1  0  0  0
  1 30  2  0  0  0
  1 87  1  0  0  0
  2  3  1  0  0  0
  2 25  1  0  0  0
  2 89  1  0  0  0
  2 90  1  0  0  0
  3  4  1  0  0  0
  3 91  1  0  0  0
  3 92  1  0  0  0
  4  5  1  0  0  0
  4 93  1  0  0  0
  4 94  1  0  0  0
  5  6  1  0  0  0
  5 26  1  0  0  0
  5 95  1  0  0  0
  6 25  1  0  0  0
  6 96  1  0  0  0
  6 97  1  0  0  0
  7  8  2  0  0  0
  7 26  1  0  0  0
  7 29  1  0  0  0
  8  9  1  0  0  0
  8 22  1  0  0  0
  9 10  1  0  0  0
  9 27  2  0  0  0
 10 11  2  0  0  0
 10 15  1  0  0  0
 11 12  1  0  0  0
 11 98  1  0  0  0
 12 13  2  0  0  0
 12 99  1  0  0  0
 13 14  1  0  0  0
 13 31  1  0  0  0
 14 15  2  0  0  0
 14100  1  0  0  0
 15101  1  0  0  0
 16 17  2  0  0  0
 16 21  1  0  0  0
 16 31  1  0  0  0
 17 18  1  0  0  0
 17102  1  0  0  0
 18 19  2  0  0  0
 18103  1  0  0  0
 19 20  1  0  0  0
 19 24  1  0  0  0
 20 21  2  0  0  0
 20104  1  0  0  0
 21 23  1  0  0  0
 22 28  1  0  0  0
 22 32  2  0  0  0
 26 27  1  0  0  0
 28105  1  0  0  0
 28106  1  0  0  0
 29107  1  0  0  0
 29108  1  0  0  0
 33 34  1  0  0  0
 33 66  1  0  0  0
 33 70  2  0  0  0
 34 36  1  0  0  0
 34 59  1  0  0  0
 34109  1  0  0  0
 35 44  2  0  0  0
 35 45  1  0  0  0
 35 68  1  0  0  0
 36 56  1  0  0  0
 36110  1  0  0  0
 37 39  1  0  0  0
 37 47  1  0  0  0
 37 66  1  0  0  0
 37111  1  0  0  0
 38 43  2  0  0  0
 38 46  1  0  0  0
 38 47  1  0  0  0
 39 64  1  0  0  0
 39 67  2  0  0  0
 40 52  1  0  0  0
 40 53  2  0  0  0
 40 58  1  0  0  0
 41112  1  0  0  0
 41113  1  0  0  0
 41114  1  0  0  0
 41 48  1  0  0  0
 42 43  1  0  0  0
 42 66  1  0  0  0
 42115  1  0  0  0
 42116  1  0  0  0
 43 44  1  0  0  0
 44117  1  0  0  0
 45 46  2  0  0  0
 45118  1  0  0  0
 46119  1  0  0  0
 47120  1  0  0  0
 47121  1  0  0  0
 48 56  1  0  0  0
 48 65  1  0  0  0
 48122  1  0  0  0
 49 50  1  0  0  0
 49 53  1  0  0  0
 49 64  1  0  0  0
 49123  1  0  0  0
 50 51  1  0  0  0
 50124  1  0  0  0
 50125  1  0  0  0
 51 52  1  0  0  0
 51126  1  0  0  0
 51127  1  0  0  0
 52128  1  0  0  0
 52129  1  0  0  0
 53 54  1  0  0  0
 54 55  2  0  0  0
 54130  1  0  0  0
 55 57  1  0  0  0
 55131  1  0  0  0
 56 69  2  0  0  0
 57 58  2  0  0  0
 57132  1  0  0  0
 58133  1  0  0  0
 59 60  1  0  0  0
 59 61  1  0  0  0
 59 62  1  0  0  0
 60134  1  0  0  0
 60135  1  0  0  0
 60136  1  0  0  0
 61137  1  0  0  0
 61138  1  0  0  0
 61139  1  0  0  0
 62140  1  0  0  0
 62141  1  0  0  0
 62142  1  0  0  0
 63 65  1  0  0  0
 63143  1  0  0  0
 63144  1  0  0  0
 63145  1  0  0  0
 64146  1  0  0  0
 65147  1  0  0  0
 68 86  1  0  0  0
 71 72  2  0  0  0
 71 73  1  0  0  0
 71148  1  0  0  0
 72 76  1  0  0  0
 72 81  1  0  0  0
 73 74  2  0  0  0
 73 85  1  0  0  0
 74 75  1  0  0  0
 74 82  1  0  0  0
 75 76  2  0  0  0
 75 83  1  0  0  0
 76 84  1  0  0  0
 77 78  1  0  0  0
 77 79  1  0  0  0
 77149  1  0  0  0
 77150  1  0  0  0
 78 80  1  0  0  0
 78151  1  0  0  0
 78152  1  0  0  0
 79 88  1  0  0  0
 79153  1  0  0  0
 79154  1  0  0  0
 80 86  1  0  0  0
 80 88  1  0  0  0
 80155  1  0  0  0
 81156  1  0  0  0
 81157  1  0  0  0
 81158  1  0  0  0
 82159  1  0  0  0
 82160  1  0  0  0
 82161  1  0  0  0
 83162  1  0  0  0
 83163  1  0  0  0
 83164  1  0  0  0
 84 87  1  0  0  0
 84165  1  0  0  0
 84166  1  0  0  0
 85167  1  0  0  0
 85168  1  0  0  0
 85 88  1  0  0  0
 86169  1  0  0  0
 86170  1  0  0  0
 87171  1  0  0  0
 88172  1  0  0  0
M  CHG  1  88   1
M  ISO  4   1 100  68 101  86 101  87 100
M  END
> <chiral flag>
0

> <version>
0

> <s_m_source_file>
/data/baiqing/PycharmProjects/Reinvent-master-3.2/result/LINK_invent/BTK/process_docking_weight1_custom_product_contain_oxygen_bond_distance_aromatic_linkinvent_7_9_3/rearranged_h_0033.sdf

> <i_m_source_file_index>
31

> <r_mmod_Potential_Energy-OPLS-2005>
-58.1236991882324

> <r_mmod_Stretch_Energy-OPLS-2005>
39.2435035705566

> <r_mmod_Bend_Energy-OPLS-2005>
138.086166381836

> <r_mmod_Torsional_Energy-OPLS-2005>
286.241760253906

> <r_mmod_Improper_Torsional_Energy-OPLS-2005>
7.0990424156189

> <r_mmod_Van_der_Waal_Energy-OPLS-2005>
168.560684204102

> <r_mmod_Electrostatic_Energy-OPLS-2005>
-308.626068115234

> <r_mmod_Solvation_Energy-OPLS-2005>
-408.938720703125

> <b_mmod_Minimization_Converged-OPLS-2005>
0

> <r_mmod_RMS_Derivative-OPLS-2005>
3.04228758811951

$$$$
31
                    3D
 Structure written by MMmdl.
160169  0  0  1  0            999 V2000
  -30.6737  -14.6387   20.5026 C   0  0  0  0  0  0
  -30.4223  -12.3991   19.4549 C   0  0  0  0  0  0
  -29.5002  -12.4985   18.2225 C   0  0  0  0  0  0
  -28.0254  -12.3384   18.6384 C   0  0  0  0  0  0
  -27.6455  -13.2273   19.8537 C   0  0  2  0  0  0
  -28.6915  -13.1269   20.9856 C   0  0  0  0  0  0
  -25.2523  -13.8196   20.5698 C   0  0  0  0  0  0
  -24.1807  -13.0443   20.9208 C   0  0  0  0  0  0
  -24.6393  -11.6919   20.8753 C   0  0  0  0  0  0
  -23.9068  -10.4296   21.0410 C   0  0  0  0  0  0
  -24.3621   -9.4211   21.9186 C   0  0  0  0  0  0
  -23.6296   -8.2246   22.0753 C   0  0  0  0  0  0
  -22.4279   -8.0281   21.3542 C   0  0  0  0  0  0
  -21.9913   -9.0256   20.4647 C   0  0  0  0  0  0
  -22.7242  -10.2136   20.3058 C   0  0  0  0  0  0
  -21.6853   -6.0737   22.5279 C   0  0  0  0  0  0
  -21.4015   -6.5640   23.8213 C   0  0  0  0  0  0
  -21.3659   -5.6793   24.9176 C   0  0  0  0  0  0
  -21.6044   -4.3055   24.7226 C   0  0  0  0  0  0
  -21.8817   -3.8147   23.4347 C   0  0  0  0  0  0
  -21.9193   -4.6965   22.3403 C   0  0  0  0  0  0
  -22.7829  -13.5229   21.1863 C   0  0  0  0  0  0
  -22.1660   -4.2149   21.0981 F   0  0  0  0  0  0
  -21.5629   -3.4539   25.7740 F   0  0  0  0  0  0
  -30.0011  -13.4487   20.4052 N   0  0  0  0  0  0
  -26.2953  -12.9399   20.3303 N   0  0  0  0  0  0
  -25.9323  -11.6542   20.5765 N   0  0  0  0  0  0
  -22.0475  -12.8222   22.0421 N   0  0  0  0  0  0
  -25.4209  -15.1919   20.4112 N   0  0  0  0  0  0
  -31.8536  -14.7203   20.1555 O   0  0  0  0  0  0
  -21.6640   -6.8880   21.4240 O   0  0  0  0  0  0
  -22.3513  -14.5531   20.6703 O   0  0  0  0  0  0
  -24.6275  -31.8607   23.2045 C   0  0  0  0  0  0
  -25.9123  -32.4782   23.8366 C   0  0  1  0  0  0
  -27.2133  -27.3100   20.1093 C   0  0  0  0  0  0
  -25.5941  -33.8583   24.2290 N   0  0  0  0  0  0
  -23.4201  -30.4881   21.5476 C   0  0  2  0  0  0
  -24.8636  -28.9502   20.1081 C   0  0  0  0  0  0
  -22.7482  -29.4633   22.4929 C   0  0  0  0  0  0
  -18.0288  -28.1387   22.8487 C   0  0  0  0  0  0
  -24.1489  -36.7292   23.2637 C   0  0  0  0  0  0
  -25.9643  -30.7879   21.3792 C   0  0  0  0  0  0
  -26.0351  -29.4171   20.7169 C   0  0  0  0  0  0
  -27.2121  -28.6083   20.7109 C   0  0  0  0  0  0
  -26.0176  -26.9124   19.4633 C   0  0  0  0  0  0
  -24.8576  -27.7031   19.4724 C   0  0  0  0  0  0
  -23.6340  -29.8313   20.1604 C   0  0  0  0  0  0
  -25.4115  -36.3086   24.0329 C   0  0  1  0  0  0
  -20.5890  -28.3695   23.1276 C   0  0  2  0  0  0
  -20.6778  -26.9418   22.5406 C   0  0  0  0  0  0
  -19.5752  -26.6388   21.5210 C   0  0  0  0  0  0
  -18.1933  -26.7931   22.1625 C   0  0  0  0  0  0
  -19.1541  -28.8857   23.2878 C   0  0  0  0  0  0
  -18.9464  -30.1457   23.8898 C   0  0  0  0  0  0
  -17.6464  -30.6589   24.0564 C   0  0  0  0  0  0
  -25.9055  -34.9455   23.5106 C   0  0  0  0  0  0
  -16.5355  -29.9089   23.6330 C   0  0  0  0  0  0
  -16.7275  -28.6505   23.0353 C   0  0  0  0  0  0
  -26.4502  -31.6590   25.0737 C   0  0  0  0  0  0
  -25.3731  -31.3732   26.1460 C   0  0  0  0  0  0
  -27.0345  -30.3011   24.6201 C   0  0  0  0  0  0
  -27.6062  -32.4327   25.7509 C   0  0  0  0  0  0
  -27.5578  -37.1806   24.8467 C   0  0  0  0  0  0
  -21.4195  -29.3050   22.3672 N   0  0  0  0  0  0
  -26.4293  -37.3781   23.9406 N   0  0  0  0  0  0
  -24.6895  -31.0620   22.1001 N   0  0  0  0  0  0
  -23.4204  -28.8164   23.3003 O   0  0  0  0  0  0
  -28.3180  -26.4378   20.1787 O   0  0  0  0  0  0
  -26.5617  -34.8921   22.4669 O   0  0  0  0  0  0
  -23.5438  -32.1408   23.7373 O   0  0  0  0  0  0
  -28.9953  -19.1847   21.4673 C   0  0  0  0  0  0
  -30.1502  -20.5855   19.3582 C   0  0  0  0  0  0
  -28.6074  -20.5405   21.2021 C   0  0  0  0  0  0
  -29.9706  -18.4980   20.6942 C   0  0  0  0  0  0
  -29.1873  -21.2895   20.1314 C   0  0  0  0  0  0
  -30.5322  -19.2404   19.6235 C   0  0  0  0  0  0
  -28.4941  -23.0744   18.4795 C   0  0  0  0  0  0
  -28.2908  -22.3059   17.3958 C   0  0  0  0  0  0
  -28.3169  -24.5861   18.4700 C   0  0  0  0  0  0
  -28.9121  -23.8317   20.6478 C   0  0  0  0  0  0
  -28.1007  -24.9839   19.9357 C   0  0  1  0  0  0
  -27.5242  -21.1536   22.0726 C   0  0  0  0  0  0
  -30.5864  -17.1157   21.1351 C   0  0  0  0  0  0
  -28.8033  -22.6348   19.7655 N   0  0  0  0  0  0
  -29.9731  -15.7709   20.8364 N   0  0  0  0  0  0
  -31.4901  -18.6736   18.8510 F   0  0  0  0  0  0
  -31.4653  -12.5016   19.1512 H   0  0  0  0  0  0
  -30.3428  -11.4153   19.9199 H   0  0  0  0  0  0
  -29.7672  -11.7362   17.4891 H   0  0  0  0  0  0
  -29.6426  -13.4620   17.7301 H   0  0  0  0  0  0
  -27.8685  -11.2880   18.8867 H   0  0  0  0  0  0
  -27.3687  -12.5511   17.7940 H   0  0  0  0  0  0
  -27.6524  -14.2561   19.4925 H   0  0  0  0  0  0
  -28.7051  -12.1236   21.4138 H   0  0  0  0  0  0
  -28.4409  -13.8029   21.8045 H   0  0  0  0  0  0
  -25.2766   -9.5688   22.4760 H   0  0  0  0  0  0
  -24.0004   -7.4639   22.7473 H   0  0  0  0  0  0
  -21.0843   -8.8779   19.8956 H   0  0  0  0  0  0
  -22.3700  -10.9676   19.6168 H   0  0  0  0  0  0
  -21.2006   -7.6149   23.9717 H   0  0  0  0  0  0
  -21.1483   -6.0524   25.9080 H   0  0  0  0  0  0
  -22.0596   -2.7607   23.2848 H   0  0  0  0  0  0
  -22.4092  -11.9888   22.4815 H   0  0  0  0  0  0
  -21.1089  -13.1241   22.2619 H   0  0  0  0  0  0
  -24.6506  -15.8429   20.5194 H   0  0  0  0  0  0
  -26.2663  -15.6338   20.0730 H   0  0  0  0  0  0
  -26.7189  -32.5445   23.1110 H   0  0  0  0  0  0
  -25.0099  -33.9731   25.0442 H   0  0  0  0  0  0
  -22.7138  -31.3092   21.4086 H   0  0  0  0  0  0
  -23.3753  -35.9623   23.3306 H   0  0  0  0  0  0
  -24.3580  -36.8908   22.2050 H   0  0  0  0  0  0
  -23.7242  -37.6498   23.6652 H   0  0  0  0  0  0
  -26.1008  -31.5532   20.6139 H   0  0  0  0  0  0
  -26.8432  -30.8311   22.0108 H   0  0  0  0  0  0
  -28.1072  -28.9595   21.2051 H   0  0  0  0  0  0
  -25.9316  -25.9692   18.9492 H   0  0  0  0  0  0
  -23.9625  -27.3422   18.9843 H   0  0  0  0  0  0
  -23.7555  -30.6114   19.4079 H   0  0  0  0  0  0
  -22.7527  -29.2645   19.8547 H   0  0  0  0  0  0
  -25.1296  -36.1940   25.0822 H   0  0  0  0  0  0
  -20.9981  -28.3270   24.1396 H   0  0  0  0  0  0
  -20.5683  -26.2305   23.3606 H   0  0  0  0  0  0
  -21.6647  -26.7451   22.1194 H   0  0  0  0  0  0
  -19.6916  -25.6299   21.1241 H   0  0  0  0  0  0
  -19.6686  -27.3197   20.6737 H   0  0  0  0  0  0
  -17.4201  -26.6674   21.4029 H   0  0  0  0  0  0
  -18.0338  -26.0073   22.9023 H   0  0  0  0  0  0
  -19.7940  -30.7271   24.2271 H   0  0  0  0  0  0
  -17.5020  -31.6270   24.5165 H   0  0  0  0  0  0
  -15.5356  -30.2993   23.7655 H   0  0  0  0  0  0
  -15.8674  -28.0826   22.7070 H   0  0  0  0  0  0
  -24.5908  -30.7078   25.7791 H   0  0  0  0  0  0
  -24.8917  -32.2899   26.4876 H   0  0  0  0  0  0
  -25.8053  -30.8919   27.0240 H   0  0  0  0  0  0
  -26.2923  -29.6765   24.1214 H   0  0  0  0  0  0
  -27.4024  -29.7266   25.4713 H   0  0  0  0  0  0
  -27.8803  -30.4296   23.9442 H   0  0  0  0  0  0
  -27.2669  -33.3625   26.2088 H   0  0  0  0  0  0
  -28.3872  -32.6892   25.0338 H   0  0  0  0  0  0
  -28.0727  -31.8450   26.5426 H   0  0  0  0  0  0
  -28.2605  -38.0094   24.7506 H   0  0  0  0  0  0
  -28.1066  -36.2627   24.6305 H   0  0  0  0  0  0
  -27.2294  -37.1471   25.8871 H   0  0  0  0  0  0
  -20.9370  -29.8787   21.6896 H   0  0  0  0  0  0
  -26.0176  -38.2858   24.1401 H   0  0  0  0  0  0
  -28.5585  -18.6702   22.3117 H   0  0  0  0  0  0
  -30.6260  -21.0904   18.5311 H   0  0  0  0  0  0
  -28.0233  -22.7488   16.4463 H   0  0  0  0  0  0
  -28.3743  -21.2291   17.4238 H   0  0  0  0  0  0
  -27.4857  -24.8831   17.8314 H   0  0  0  0  0  0
  -29.2225  -25.0453   18.0715 H   0  0  0  0  0  0
  -28.5384  -23.6484   21.6542 H   0  0  0  0  0  0
  -29.9640  -24.1061   20.7340 H   0  0  0  0  0  0
  -27.0776  -24.7330   20.2156 H   0  0  0  0  0  0
  -27.9669  -21.7417   22.8762 H   0  0  0  0  0  0
  -26.9004  -20.3824   22.5250 H   0  0  0  0  0  0
  -26.8670  -21.7990   21.4888 H   0  0  0  0  0  0
  -31.6192  -17.1192   20.7844 H   0  0  0  0  0  0
  -30.6825  -17.1598   22.2205 H   0  0  0  0  0  0
  -28.9911  -15.6595   21.0366 H   0  0  0  0  0  0
  1 25  1  0  0  0
  1 30  2  0  0  0
  1 85  1  0  0  0
  2  3  1  0  0  0
  2 25  1  0  0  0
  2 87  1  0  0  0
  2 88  1  0  0  0
  3  4  1  0  0  0
  3 89  1  0  0  0
  3 90  1  0  0  0
  4  5  1  0  0  0
  4 91  1  0  0  0
  4 92  1  0  0  0
  5  6  1  0  0  0
  5 26  1  0  0  0
  5 93  1  0  0  0
  6 25  1  0  0  0
  6 94  1  0  0  0
  6 95  1  0  0  0
  7  8  2  0  0  0
  7 26  1  0  0  0
  7 29  1  0  0  0
  8  9  1  0  0  0
  8 22  1  0  0  0
  9 10  1  0  0  0
  9 27  2  0  0  0
 10 11  2  0  0  0
 10 15  1  0  0  0
 11 12  1  0  0  0
 11 96  1  0  0  0
 12 13  2  0  0  0
 12 97  1  0  0  0
 13 14  1  0  0  0
 13 31  1  0  0  0
 14 15  2  0  0  0
 14 98  1  0  0  0
 15 99  1  0  0  0
 16 17  2  0  0  0
 16 21  1  0  0  0
 16 31  1  0  0  0
 17 18  1  0  0  0
 17100  1  0  0  0
 18 19  2  0  0  0
 18101  1  0  0  0
 19 20  1  0  0  0
 19 24  1  0  0  0
 20 21  2  0  0  0
 20102  1  0  0  0
 21 23  1  0  0  0
 22 28  1  0  0  0
 22 32  2  0  0  0
 26 27  1  0  0  0
 28103  1  0  0  0
 28104  1  0  0  0
 29105  1  0  0  0
 29106  1  0  0  0
 33 34  1  0  0  0
 33 66  1  0  0  0
 33 70  2  0  0  0
 34 36  1  0  0  0
 34 59  1  0  0  0
 34107  1  0  0  0
 35 44  2  0  0  0
 35 45  1  0  0  0
 35 68  1  0  0  0
 36 56  1  0  0  0
 36108  1  0  0  0
 37 39  1  0  0  0
 37 47  1  0  0  0
 37 66  1  0  0  0
 37109  1  0  0  0
 38 43  2  0  0  0
 38 46  1  0  0  0
 38 47  1  0  0  0
 39 64  1  0  0  0
 39 67  2  0  0  0
 40 52  1  0  0  0
 40 53  2  0  0  0
 40 58  1  0  0  0
 41110  1  0  0  0
 41111  1  0  0  0
 41112  1  0  0  0
 41 48  1  0  0  0
 42 43  1  0  0  0
 42 66  1  0  0  0
 42113  1  0  0  0
 42114  1  0  0  0
 43 44  1  0  0  0
 44115  1  0  0  0
 45 46  2  0  0  0
 45116  1  0  0  0
 46117  1  0  0  0
 47118  1  0  0  0
 47119  1  0  0  0
 48 56  1  0  0  0
 48 65  1  0  0  0
 48120  1  0  0  0
 49 50  1  0  0  0
 49 53  1  0  0  0
 49 64  1  0  0  0
 49121  1  0  0  0
 50 51  1  0  0  0
 50122  1  0  0  0
 50123  1  0  0  0
 51 52  1  0  0  0
 51124  1  0  0  0
 51125  1  0  0  0
 52126  1  0  0  0
 52127  1  0  0  0
 53 54  1  0  0  0
 54 55  2  0  0  0
 54128  1  0  0  0
 55 57  1  0  0  0
 55129  1  0  0  0
 56 69  2  0  0  0
 57 58  2  0  0  0
 57130  1  0  0  0
 58131  1  0  0  0
 59 60  1  0  0  0
 59 61  1  0  0  0
 59 62  1  0  0  0
 60132  1  0  0  0
 60133  1  0  0  0
 60134  1  0  0  0
 61135  1  0  0  0
 61136  1  0  0  0
 61137  1  0  0  0
 62138  1  0  0  0
 62139  1  0  0  0
 62140  1  0  0  0
 63 65  1  0  0  0
 63141  1  0  0  0
 63142  1  0  0  0
 63143  1  0  0  0
 64144  1  0  0  0
 65145  1  0  0  0
 68 81  1  0  0  0
 71 73  2  0  0  0
 71 74  1  0  0  0
 71146  1  0  0  0
 72 75  2  0  0  0
 72 76  1  0  0  0
 72147  1  0  0  0
 73 75  1  0  0  0
 73 82  1  0  0  0
 74 76  2  0  0  0
 74 83  1  0  0  0
 75 84  1  0  0  0
 76 86  1  0  0  0
 77 78  2  0  0  0
 77 79  1  0  0  0
 77 84  1  0  0  0
 78148  1  0  0  0
 78149  1  0  0  0
 79 81  1  0  0  0
 79150  1  0  0  0
 79151  1  0  0  0
 80 81  1  0  0  0
 80 84  1  0  0  0
 80152  1  0  0  0
 80153  1  0  0  0
 81154  1  0  0  0
 82155  1  0  0  0
 82156  1  0  0  0
 82157  1  0  0  0
 83 85  1  0  0  0
 83158  1  0  0  0
 83159  1  0  0  0
 85160  1  0  0  0
M  ISO  4   1 100  68 101  81 101  85 100
M  END
> <chiral flag>
0

> <version>
0

> <s_m_source_file>
/data/baiqing/PycharmProjects/Reinvent-master-3.2/result/LINK_invent/BTK/process_docking_weight1_custom_product_contain_oxygen_bond_distance_aromatic_linkinvent_7_9_3/rearranged_h_0033.sdf

> <i_m_source_file_index>
32

> <r_mmod_Potential_Energy-OPLS-2005>
98.1294784545898

> <r_mmod_Stretch_Energy-OPLS-2005>
80.225830078125

> <r_mmod_Bend_Energy-OPLS-2005>
190.746780395508

> <r_mmod_Torsional_Energy-OPLS-2005>
237.6328125

> <r_mmod_Improper_Torsional_Energy-OPLS-2005>
5.39553117752075

> <r_mmod_Van_der_Waal_Energy-OPLS-2005>
150.751205444336

> <r_mmod_Electrostatic_Energy-OPLS-2005>
-415.664642333984

> <r_mmod_Solvation_Energy-OPLS-2005>
-205.557525634766

> <b_mmod_Minimization_Converged-OPLS-2005>
0

> <r_mmod_RMS_Derivative-OPLS-2005>
0.517469763755798

$$$$
32
                    3D
 Structure written by MMmdl.
163172  0  0  1  0            999 V2000
  -30.6266  -14.7450   20.4888 C   0  0  0  0  0  0
  -30.4300  -12.4617   19.4792 C   0  0  0  0  0  0
  -29.5126  -12.5247   18.2390 C   0  0  0  0  0  0
  -28.0391  -12.3398   18.6502 C   0  0  0  0  0  0
  -27.6397  -13.2359   19.8528 C   0  0  2  0  0  0
  -28.6832  -13.1749   20.9907 C   0  0  0  0  0  0
  -25.2504  -13.8204   20.5759 C   0  0  0  0  0  0
  -24.1784  -13.0435   20.9206 C   0  0  0  0  0  0
  -24.6374  -11.6915   20.8730 C   0  0  0  0  0  0
  -23.9050  -10.4299   21.0385 C   0  0  0  0  0  0
  -24.3613   -9.4226   21.9161 C   0  0  0  0  0  0
  -23.6307   -8.2256   22.0731 C   0  0  0  0  0  0
  -22.4281   -8.0278   21.3530 C   0  0  0  0  0  0
  -21.9908   -9.0246   20.4622 C   0  0  0  0  0  0
  -22.7225  -10.2130   20.3034 C   0  0  0  0  0  0
  -21.6852   -6.0741   22.5272 C   0  0  0  0  0  0
  -21.4018   -6.5640   23.8219 C   0  0  0  0  0  0
  -21.3673   -5.6787   24.9178 C   0  0  0  0  0  0
  -21.6044   -4.3049   24.7221 C   0  0  0  0  0  0
  -21.8818   -3.8146   23.4349 C   0  0  0  0  0  0
  -21.9197   -4.6968   22.3405 C   0  0  0  0  0  0
  -22.7805  -13.5209   21.1887 C   0  0  0  0  0  0
  -22.1656   -4.2153   21.0986 F   0  0  0  0  0  0
  -21.5634   -3.4529   25.7746 F   0  0  0  0  0  0
  -29.9871  -13.5270   20.4099 N   0  0  0  0  0  0
  -26.2916  -12.9411   20.3279 N   0  0  0  0  0  0
  -25.9298  -11.6544   20.5714 N   0  0  0  0  0  0
  -22.0461  -12.8204   22.0450 N   0  0  0  0  0  0
  -25.4227  -15.1953   20.4327 N   0  0  0  0  0  0
  -31.8055  -14.8322   20.1329 O   0  0  0  0  0  0
  -21.6638   -6.8879   21.4236 O   0  0  0  0  0  0
  -22.3490  -14.5531   20.6766 O   0  0  0  0  0  0
  -24.6300  -31.8567   23.1970 C   0  0  0  0  0  0
  -25.9130  -32.4767   23.8326 C   0  0  1  0  0  0
  -27.2312  -27.2825   20.1487 C   0  0  0  0  0  0
  -25.5954  -33.8579   24.2263 N   0  0  0  0  0  0
  -23.4270  -30.4762   21.5386 C   0  0  2  0  0  0
  -24.8776  -28.9182   20.1150 C   0  0  0  0  0  0
  -22.7503  -29.4609   22.4922 C   0  0  0  0  0  0
  -18.0307  -28.1376   22.8521 C   0  0  0  0  0  0
  -24.1479  -36.7281   23.2644 C   0  0  0  0  0  0
  -25.9703  -30.7779   21.3706 C   0  0  0  0  0  0
  -26.0460  -29.3981   20.7245 C   0  0  0  0  0  0
  -27.2262  -28.5947   20.7248 C   0  0  0  0  0  0
  -26.0425  -26.8594   19.5179 C   0  0  0  0  0  0
  -24.8792  -27.6547   19.5014 C   0  0  0  0  0  0
  -23.6460  -29.8027   20.1582 C   0  0  0  0  0  0
  -25.4116  -36.3082   24.0325 C   0  0  1  0  0  0
  -20.5911  -28.3687   23.1282 C   0  0  2  0  0  0
  -20.6788  -26.9401   22.5429 C   0  0  0  0  0  0
  -19.5759  -26.6374   21.5234 C   0  0  0  0  0  0
  -18.1930  -26.7935   22.1629 C   0  0  0  0  0  0
  -19.1559  -28.8857   23.2887 C   0  0  0  0  0  0
  -18.9476  -30.1469   23.8886 C   0  0  0  0  0  0
  -17.6462  -30.6581   24.0578 C   0  0  0  0  0  0
  -25.9065  -34.9461   23.5087 C   0  0  0  0  0  0
  -16.5356  -29.9074   23.6342 C   0  0  0  0  0  0
  -16.7282  -28.6491   23.0358 C   0  0  0  0  0  0
  -26.4469  -31.6590   25.0726 C   0  0  0  0  0  0
  -25.3683  -31.3811   26.1458 C   0  0  0  0  0  0
  -27.0274  -30.2988   24.6219 C   0  0  0  0  0  0
  -27.6056  -32.4300   25.7495 C   0  0  0  0  0  0
  -27.5570  -37.1794   24.8454 C   0  0  0  0  0  0
  -21.4207  -29.3026   22.3669 N   0  0  0  0  0  0
  -26.4261  -37.3801   23.9433 N   0  0  0  0  0  0
  -24.6952  -31.0553   22.0930 N   0  0  0  0  0  0
  -23.4211  -28.8172   23.3026 O   0  0  0  0  0  0
  -28.3427  -26.4184   20.1488 O   0  0  0  0  0  0
  -26.5603  -34.8930   22.4632 O   0  0  0  0  0  0
  -23.5450  -32.1374   23.7283 O   0  0  0  0  0  0
  -29.5681  -18.4712   20.4486 C   0  0  0  0  0  0
  -31.7770  -18.9370   22.0420 C   0  0  0  0  0  0
  -29.9479  -19.8637   20.6860 C   0  0  0  0  0  0
  -31.1291  -20.0482   21.4572 C   0  0  0  0  0  0
  -30.2800  -17.3062   20.9706 C   0  0  0  0  0  0
  -31.3615  -17.6063   21.8421 C   0  0  0  0  0  0
  -28.8146  -23.7256   22.8680 C   0  0  0  0  0  0
  -28.8931  -25.0666   22.0911 C   0  0  0  0  0  0
  -28.3921  -22.5009   22.0202 C   0  0  0  0  0  0
  -28.7454  -23.7469   19.9040 C   0  0  0  0  0  0
  -28.2053  -25.0377   20.7156 C   0  0  2  0  0  0
  -31.7701  -21.4092   21.6932 C   0  0  0  0  0  0
  -29.1796  -21.1180   20.0366 C   0  0  0  0  0  0
  -29.8729  -15.8895   20.7339 N   0  0  0  0  0  0
  -29.1178  -22.4958   20.7304 N   0  3  2  0  0  0
  -32.1862  -16.3953   22.7648 Cl  0  0  0  0  0  0
  -31.4715  -12.5855   19.1789 H   0  0  0  0  0  0
  -30.3706  -11.4826   19.9594 H   0  0  0  0  0  0
  -29.8027  -11.7638   17.5125 H   0  0  0  0  0  0
  -29.6375  -13.4874   17.7401 H   0  0  0  0  0  0
  -27.9004  -11.2899   18.9116 H   0  0  0  0  0  0
  -27.3833  -12.5331   17.7999 H   0  0  0  0  0  0
  -27.6318  -14.2574   19.4733 H   0  0  0  0  0  0
  -28.7162  -12.1815   21.4403 H   0  0  0  0  0  0
  -28.4135  -13.8638   21.7927 H   0  0  0  0  0  0
  -25.2754   -9.5718   22.4726 H   0  0  0  0  0  0
  -24.0027   -7.4648   22.7448 H   0  0  0  0  0  0
  -21.0835   -8.8751   19.8929 H   0  0  0  0  0  0
  -22.3670  -10.9663   19.6144 H   0  0  0  0  0  0
  -21.2002   -7.6143   23.9728 H   0  0  0  0  0  0
  -21.1489   -6.0510   25.9086 H   0  0  0  0  0  0
  -22.0590   -2.7604   23.2836 H   0  0  0  0  0  0
  -22.4068  -11.9862   22.4814 H   0  0  0  0  0  0
  -21.1060  -13.1201   22.2648 H   0  0  0  0  0  0
  -24.6678  -15.8541   20.5895 H   0  0  0  0  0  0
  -26.2946  -15.6440   20.1818 H   0  0  0  0  0  0
  -26.7238  -32.5410   23.1119 H   0  0  0  0  0  0
  -25.0166  -33.9728   25.0452 H   0  0  0  0  0  0
  -22.7215  -31.2961   21.3870 H   0  0  0  0  0  0
  -23.3757  -35.9588   23.3265 H   0  0  0  0  0  0
  -24.3596  -36.8928   22.2068 H   0  0  0  0  0  0
  -23.7194  -37.6463   23.6677 H   0  0  0  0  0  0
  -26.0968  -31.5329   20.5933 H   0  0  0  0  0  0
  -26.8524  -30.8348   21.9967 H   0  0  0  0  0  0
  -28.1238  -28.9640   21.2026 H   0  0  0  0  0  0
  -26.0064  -25.8923   19.0374 H   0  0  0  0  0  0
  -23.9877  -27.2783   19.0199 H   0  0  0  0  0  0
  -23.7701  -30.5711   19.3952 H   0  0  0  0  0  0
  -22.7652  -29.2285   19.8617 H   0  0  0  0  0  0
  -25.1288  -36.1906   25.0806 H   0  0  0  0  0  0
  -21.0002  -28.3241   24.1398 H   0  0  0  0  0  0
  -20.5695  -26.2282   23.3628 H   0  0  0  0  0  0
  -21.6645  -26.7417   22.1198 H   0  0  0  0  0  0
  -19.6901  -25.6287   21.1236 H   0  0  0  0  0  0
  -19.6693  -27.3219   20.6783 H   0  0  0  0  0  0
  -17.4221  -26.6747   21.3998 H   0  0  0  0  0  0
  -18.0268  -26.0073   22.8996 H   0  0  0  0  0  0
  -19.7939  -30.7322   24.2201 H   0  0  0  0  0  0
  -17.5004  -31.6256   24.5172 H   0  0  0  0  0  0
  -15.5356  -30.2952   23.7674 H   0  0  0  0  0  0
  -15.8682  -28.0803   22.7037 H   0  0  0  0  0  0
  -24.5888  -30.7092   25.7848 H   0  0  0  0  0  0
  -24.8837  -32.3012   26.4735 H   0  0  0  0  0  0
  -25.7992  -30.9136   27.0320 H   0  0  0  0  0  0
  -26.2850  -29.6803   24.1175 H   0  0  0  0  0  0
  -27.3863  -29.7200   25.4737 H   0  0  0  0  0  0
  -27.8767  -30.4253   23.9513 H   0  0  0  0  0  0
  -27.2734  -33.3706   26.1909 H   0  0  0  0  0  0
  -28.3965  -32.6661   25.0361 H   0  0  0  0  0  0
  -28.0597  -31.8498   26.5541 H   0  0  0  0  0  0
  -28.2551  -38.0127   24.7540 H   0  0  0  0  0  0
  -28.1070  -36.2650   24.6174 H   0  0  0  0  0  0
  -27.2299  -37.1325   25.8857 H   0  0  0  0  0  0
  -20.9380  -29.8729   21.6877 H   0  0  0  0  0  0
  -26.0107  -38.2846   24.1479 H   0  0  0  0  0  0
  -28.7099  -18.2913   19.8162 H   0  0  0  0  0  0
  -32.6300  -19.1083   22.6824 H   0  0  0  0  0  0
  -28.1216  -23.8323   23.7038 H   0  0  0  0  0  0
  -29.7885  -23.5337   23.3243 H   0  0  0  0  0  0
  -29.9408  -25.3361   21.9392 H   0  0  0  0  0  0
  -28.4677  -25.8631   22.7048 H   0  0  0  0  0  0
  -27.3192  -22.5164   21.8309 H   0  0  0  0  0  0
  -28.5803  -21.5835   22.5779 H   0  0  0  0  0  0
  -29.6252  -24.0329   19.3298 H   0  0  0  0  0  0
  -27.9912  -23.4719   19.1663 H   0  0  0  0  0  0
  -27.1495  -24.8529   20.9189 H   0  0  0  0  0  0
  -32.8347  -21.3047   21.9099 H   0  0  0  0  0  0
  -31.3242  -21.9047   22.5544 H   0  0  0  0  0  0
  -31.7087  -22.0565   20.8191 H   0  0  0  0  0  0
  -28.1562  -20.8140   19.8095 H   0  0  0  0  0  0
  -29.6568  -21.2850   19.0694 H   0  0  0  0  0  0
  -28.8785  -15.7253   20.7716 H   0  0  0  0  0  0
  -30.0789  -22.6554   20.9906 H   0  0  0  0  0  0
  1 25  1  0  0  0
  1 30  2  0  0  0
  1 84  1  0  0  0
  2  3  1  0  0  0
  2 25  1  0  0  0
  2 87  1  0  0  0
  2 88  1  0  0  0
  3  4  1  0  0  0
  3 89  1  0  0  0
  3 90  1  0  0  0
  4  5  1  0  0  0
  4 91  1  0  0  0
  4 92  1  0  0  0
  5  6  1  0  0  0
  5 26  1  0  0  0
  5 93  1  0  0  0
  6 25  1  0  0  0
  6 94  1  0  0  0
  6 95  1  0  0  0
  7  8  2  0  0  0
  7 26  1  0  0  0
  7 29  1  0  0  0
  8  9  1  0  0  0
  8 22  1  0  0  0
  9 10  1  0  0  0
  9 27  2  0  0  0
 10 11  2  0  0  0
 10 15  1  0  0  0
 11 12  1  0  0  0
 11 96  1  0  0  0
 12 13  2  0  0  0
 12 97  1  0  0  0
 13 14  1  0  0  0
 13 31  1  0  0  0
 14 15  2  0  0  0
 14 98  1  0  0  0
 15 99  1  0  0  0
 16 17  2  0  0  0
 16 21  1  0  0  0
 16 31  1  0  0  0
 17 18  1  0  0  0
 17100  1  0  0  0
 18 19  2  0  0  0
 18101  1  0  0  0
 19 20  1  0  0  0
 19 24  1  0  0  0
 20 21  2  0  0  0
 20102  1  0  0  0
 21 23  1  0  0  0
 22 28  1  0  0  0
 22 32  2  0  0  0
 26 27  1  0  0  0
 28103  1  0  0  0
 28104  1  0  0  0
 29105  1  0  0  0
 29106  1  0  0  0
 33 34  1  0  0  0
 33 66  1  0  0  0
 33 70  2  0  0  0
 34 36  1  0  0  0
 34 59  1  0  0  0
 34107  1  0  0  0
 35 44  2  0  0  0
 35 45  1  0  0  0
 35 68  1  0  0  0
 36 56  1  0  0  0
 36108  1  0  0  0
 37 39  1  0  0  0
 37 47  1  0  0  0
 37 66  1  0  0  0
 37109  1  0  0  0
 38 43  2  0  0  0
 38 46  1  0  0  0
 38 47  1  0  0  0
 39 64  1  0  0  0
 39 67  2  0  0  0
 40 52  1  0  0  0
 40 53  2  0  0  0
 40 58  1  0  0  0
 41110  1  0  0  0
 41111  1  0  0  0
 41112  1  0  0  0
 41 48  1  0  0  0
 42 43  1  0  0  0
 42 66  1  0  0  0
 42113  1  0  0  0
 42114  1  0  0  0
 43 44  1  0  0  0
 44115  1  0  0  0
 45 46  2  0  0  0
 45116  1  0  0  0
 46117  1  0  0  0
 47118  1  0  0  0
 47119  1  0  0  0
 48 56  1  0  0  0
 48 65  1  0  0  0
 48120  1  0  0  0
 49 50  1  0  0  0
 49 53  1  0  0  0
 49 64  1  0  0  0
 49121  1  0  0  0
 50 51  1  0  0  0
 50122  1  0  0  0
 50123  1  0  0  0
 51 52  1  0  0  0
 51124  1  0  0  0
 51125  1  0  0  0
 52126  1  0  0  0
 52127  1  0  0  0
 53 54  1  0  0  0
 54 55  2  0  0  0
 54128  1  0  0  0
 55 57  1  0  0  0
 55129  1  0  0  0
 56 69  2  0  0  0
 57 58  2  0  0  0
 57130  1  0  0  0
 58131  1  0  0  0
 59 60  1  0  0  0
 59 61  1  0  0  0
 59 62  1  0  0  0
 60132  1  0  0  0
 60133  1  0  0  0
 60134  1  0  0  0
 61135  1  0  0  0
 61136  1  0  0  0
 61137  1  0  0  0
 62138  1  0  0  0
 62139  1  0  0  0
 62140  1  0  0  0
 63 65  1  0  0  0
 63141  1  0  0  0
 63142  1  0  0  0
 63143  1  0  0  0
 64144  1  0  0  0
 65145  1  0  0  0
 68 81  1  0  0  0
 71 73  2  0  0  0
 71 75  1  0  0  0
 71146  1  0  0  0
 72 74  2  0  0  0
 72 76  1  0  0  0
 72147  1  0  0  0
 73 74  1  0  0  0
 73 83  1  0  0  0
 74 82  1  0  0  0
 75 76  2  0  0  0
 75 84  1  0  0  0
 76 86  1  0  0  0
 77 78  1  0  0  0
 77 79  1  0  0  0
 77148  1  0  0  0
 77149  1  0  0  0
 78 81  1  0  0  0
 78150  1  0  0  0
 78151  1  0  0  0
 79 85  1  0  0  0
 79152  1  0  0  0
 79153  1  0  0  0
 80 81  1  0  0  0
 80 85  1  0  0  0
 80154  1  0  0  0
 80155  1  0  0  0
 81156  1  0  0  0
 82157  1  0  0  0
 82158  1  0  0  0
 82159  1  0  0  0
 83160  1  0  0  0
 83161  1  0  0  0
 83 85  1  0  0  0
 84162  1  0  0  0
 85163  1  0  0  0
M  CHG  1  85   1
M  ISO  4   1 100  68 101  81 101  84 100
M  END
> <chiral flag>
0

> <version>
0

> <s_m_source_file>
/data/baiqing/PycharmProjects/Reinvent-master-3.2/result/LINK_invent/BTK/process_docking_weight1_custom_product_contain_oxygen_bond_distance_aromatic_linkinvent_7_9_3/rearranged_h_0033.sdf

> <i_m_source_file_index>
33

> <r_mmod_Potential_Energy-OPLS-2005>
120.134132385254

> <r_mmod_Stretch_Energy-OPLS-2005>
127.326766967773

> <r_mmod_Bend_Energy-OPLS-2005>
165.013763427734

> <r_mmod_Torsional_Energy-OPLS-2005>
293.3916015625

> <r_mmod_Improper_Torsional_Energy-OPLS-2005>
5.75490617752075

> <r_mmod_Van_der_Waal_Energy-OPLS-2005>
142.371566772461

> <r_mmod_Electrostatic_Energy-OPLS-2005>
-248.245452880859

> <r_mmod_Solvation_Energy-OPLS-2005>
-442.96728515625

> <b_mmod_Minimization_Converged-OPLS-2005>
0

> <r_mmod_RMS_Derivative-OPLS-2005>
3.72456073760986

$$$$
33
                    3D
 Structure written by MMmdl.
163172  0  0  1  0            999 V2000
  -30.6988  -14.6168   20.5145 C   0  0  0  0  0  0
  -30.4163  -12.3890   19.4533 C   0  0  0  0  0  0
  -29.4946  -12.4976   18.2218 C   0  0  0  0  0  0
  -28.0218  -12.3389   18.6407 C   0  0  0  0  0  0
  -27.6459  -13.2288   19.8564 C   0  0  2  0  0  0
  -28.6927  -13.1293   20.9888 C   0  0  0  0  0  0
  -25.2528  -13.8204   20.5720 C   0  0  0  0  0  0
  -24.1807  -13.0450   20.9208 C   0  0  0  0  0  0
  -24.6393  -11.6926   20.8748 C   0  0  0  0  0  0
  -23.9074  -10.4299   21.0403 C   0  0  0  0  0  0
  -24.3623   -9.4215   21.9182 C   0  0  0  0  0  0
  -23.6298   -8.2252   22.0753 C   0  0  0  0  0  0
  -22.4282   -8.0284   21.3543 C   0  0  0  0  0  0
  -21.9918   -9.0258   20.4648 C   0  0  0  0  0  0
  -22.7247  -10.2138   20.3054 C   0  0  0  0  0  0
  -21.6858   -6.0740   22.5281 C   0  0  0  0  0  0
  -21.4017   -6.5643   23.8213 C   0  0  0  0  0  0
  -21.3656   -5.6796   24.9176 C   0  0  0  0  0  0
  -21.6042   -4.3059   24.7226 C   0  0  0  0  0  0
  -21.8818   -3.8149   23.4347 C   0  0  0  0  0  0
  -21.9194   -4.6967   22.3405 C   0  0  0  0  0  0
  -22.7829  -13.5229   21.1867 C   0  0  0  0  0  0
  -22.1663   -4.2155   21.0980 F   0  0  0  0  0  0
  -21.5625   -3.4537   25.7735 F   0  0  0  0  0  0
  -30.0053  -13.4404   20.4083 N   0  0  0  0  0  0
  -26.2960  -12.9414   20.3328 N   0  0  0  0  0  0
  -25.9325  -11.6557   20.5777 N   0  0  0  0  0  0
  -22.0477  -12.8208   22.0418 N   0  0  0  0  0  0
  -25.4232  -15.1928   20.4160 N   0  0  0  0  0  0
  -31.8735  -14.6835   20.1478 O   0  0  0  0  0  0
  -21.6642   -6.8881   21.4242 O   0  0  0  0  0  0
  -22.3515  -14.5538   20.6723 O   0  0  0  0  0  0
  -24.6293  -31.8605   23.2077 C   0  0  0  0  0  0
  -25.9150  -32.4771   23.8377 C   0  0  1  0  0  0
  -27.1975  -27.2881   20.0893 C   0  0  0  0  0  0
  -25.5969  -33.8574   24.2299 N   0  0  0  0  0  0
  -23.4192  -30.4934   21.5529 C   0  0  2  0  0  0
  -24.8569  -28.9607   20.1095 C   0  0  0  0  0  0
  -22.7463  -29.4646   22.4947 C   0  0  0  0  0  0
  -18.0278  -28.1381   22.8492 C   0  0  0  0  0  0
  -24.1491  -36.7284   23.2638 C   0  0  0  0  0  0
  -25.9672  -30.7765   21.3906 C   0  0  0  0  0  0
  -26.0299  -29.4060   20.7273 C   0  0  0  0  0  0
  -27.1952  -28.5757   20.7229 C   0  0  0  0  0  0
  -26.0073  -26.9485   19.4051 C   0  0  0  0  0  0
  -24.8495  -27.7353   19.4432 C   0  0  0  0  0  0
  -23.6302  -29.8434   20.1643 C   0  0  0  0  0  0
  -25.4115  -36.3072   24.0332 C   0  0  1  0  0  0
  -20.5879  -28.3685   23.1267 C   0  0  2  0  0  0
  -20.6765  -26.9411   22.5384 C   0  0  0  0  0  0
  -19.5739  -26.6386   21.5191 C   0  0  0  0  0  0
  -18.1920  -26.7926   22.1616 C   0  0  0  0  0  0
  -19.1527  -28.8853   23.2882 C   0  0  0  0  0  0
  -18.9456  -30.1458   23.8903 C   0  0  0  0  0  0
  -17.6457  -30.6593   24.0560 C   0  0  0  0  0  0
  -25.9054  -34.9444   23.5101 C   0  0  0  0  0  0
  -16.5348  -29.9085   23.6338 C   0  0  0  0  0  0
  -16.7263  -28.6495   23.0370 C   0  0  0  0  0  0
  -26.4530  -31.6590   25.0756 C   0  0  0  0  0  0
  -25.3760  -31.3717   26.1477 C   0  0  0  0  0  0
  -27.0380  -30.3000   24.6249 C   0  0  0  0  0  0
  -27.6097  -32.4326   25.7516 C   0  0  0  0  0  0
  -27.5577  -37.1793   24.8473 C   0  0  0  0  0  0
  -21.4181  -29.3057   22.3675 N   0  0  0  0  0  0
  -26.4291  -37.3771   23.9413 N   0  0  0  0  0  0
  -24.6905  -31.0592   22.1062 N   0  0  0  0  0  0
  -23.4180  -28.8164   23.3010 O   0  0  0  0  0  0
  -28.3146  -26.4240   20.1732 O   0  0  0  0  0  0
  -26.5602  -34.8914   22.4658 O   0  0  0  0  0  0
  -23.5459  -32.1436   23.7391 O   0  0  0  0  0  0
  -30.4257  -19.2431   19.7076 C   0  0  0  0  0  0
  -30.0055  -20.5837   19.5033 C   0  0  0  0  0  0
  -30.0204  -18.4800   20.8311 C   0  0  0  0  0  0
  -29.1476  -19.1355   21.7550 C   0  0  0  0  0  0
  -28.7098  -20.4942   21.5391 C   0  0  0  0  0  0
  -29.1410  -21.2495   20.4036 C   0  0  0  0  0  0
  -27.5748  -22.7330   19.1722 C   0  0  0  0  0  0
  -26.9593  -21.7848   18.4447 C   0  0  0  0  0  0
  -27.2062  -24.1977   19.1368 C   0  0  0  0  0  0
  -29.0490  -23.8607   20.6056 C   0  0  0  0  0  0
  -28.4050  -24.9959   19.6956 C   0  0  1  0  0  0
  -28.6784  -18.3956   23.0054 C   0  0  0  0  0  0
  -27.7457  -21.1383   22.5318 C   0  0  0  0  0  0
  -30.7142  -17.0883   21.0844 C   0  0  0  0  0  0
  -28.6226  -22.5429   20.0508 N   0  0  0  0  0  0
  -30.0362  -15.7612   20.8753 N   0  0  0  0  0  0
  -31.4597  -12.4799   19.1469 H   0  0  0  0  0  0
  -30.3300  -11.4038   19.9149 H   0  0  0  0  0  0
  -29.7572  -11.7377   17.4848 H   0  0  0  0  0  0
  -29.6381  -13.4623   17.7335 H   0  0  0  0  0  0
  -27.8646  -11.2886   18.8898 H   0  0  0  0  0  0
  -27.3633  -12.5521   17.7976 H   0  0  0  0  0  0
  -27.6529  -14.2574   19.4945 H   0  0  0  0  0  0
  -28.7009  -12.1280   21.4226 H   0  0  0  0  0  0
  -28.4474  -13.8126   21.8033 H   0  0  0  0  0  0
  -25.2764   -9.5688   22.4767 H   0  0  0  0  0  0
  -24.0006   -7.4637   22.7469 H   0  0  0  0  0  0
  -21.0853   -8.8775   19.8949 H   0  0  0  0  0  0
  -22.3705  -10.9677   19.6164 H   0  0  0  0  0  0
  -21.2013   -7.6151   23.9720 H   0  0  0  0  0  0
  -21.1479   -6.0524   25.9077 H   0  0  0  0  0  0
  -22.0599   -2.7614   23.2845 H   0  0  0  0  0  0
  -22.4097  -11.9861   22.4785 H   0  0  0  0  0  0
  -21.1091  -13.1231   22.2633 H   0  0  0  0  0  0
  -24.6587  -15.8479   20.5359 H   0  0  0  0  0  0
  -26.2768  -15.6344   20.0979 H   0  0  0  0  0  0
  -26.7205  -32.5418   23.1105 H   0  0  0  0  0  0
  -25.0152  -33.9712   25.0472 H   0  0  0  0  0  0
  -22.7157  -31.3176   21.4164 H   0  0  0  0  0  0
  -23.3758  -35.9609   23.3292 H   0  0  0  0  0  0
  -24.3582  -36.8908   22.2054 H   0  0  0  0  0  0
  -23.7245  -37.6486   23.6657 H   0  0  0  0  0  0
  -26.1087  -31.5421   20.6263 H   0  0  0  0  0  0
  -26.8452  -30.8156   22.0232 H   0  0  0  0  0  0
  -28.0876  -28.9079   21.2342 H   0  0  0  0  0  0
  -25.8850  -26.0883   18.7879 H   0  0  0  0  0  0
  -23.9609  -27.4030   18.9243 H   0  0  0  0  0  0
  -23.7503  -30.6261   19.4144 H   0  0  0  0  0  0
  -22.7474  -29.2775   19.8603 H   0  0  0  0  0  0
  -25.1291  -36.1920   25.0824 H   0  0  0  0  0  0
  -20.9971  -28.3243   24.1385 H   0  0  0  0  0  0
  -20.5647  -26.2295   23.3578 H   0  0  0  0  0  0
  -21.6635  -26.7427   22.1183 H   0  0  0  0  0  0
  -19.6903  -25.6294   21.1225 H   0  0  0  0  0  0
  -19.6682  -27.3194   20.6720 H   0  0  0  0  0  0
  -17.4178  -26.6673   21.4031 H   0  0  0  0  0  0
  -18.0343  -26.0058   22.9008 H   0  0  0  0  0  0
  -19.7931  -30.7275   24.2273 H   0  0  0  0  0  0
  -17.5009  -31.6276   24.5154 H   0  0  0  0  0  0
  -15.5349  -30.2990   23.7674 H   0  0  0  0  0  0
  -15.8655  -28.0816   22.7106 H   0  0  0  0  0  0
  -24.5941  -30.7066   25.7792 H   0  0  0  0  0  0
  -24.8961  -32.2879   26.4927 H   0  0  0  0  0  0
  -25.8095  -30.8872   27.0237 H   0  0  0  0  0  0
  -26.2969  -29.6728   24.1279 H   0  0  0  0  0  0
  -27.4055  -29.7287   25.4786 H   0  0  0  0  0  0
  -27.8850  -30.4261   23.9501 H   0  0  0  0  0  0
  -27.2732  -33.3662   26.2041 H   0  0  0  0  0  0
  -28.3933  -32.6827   25.0347 H   0  0  0  0  0  0
  -28.0729  -31.8476   26.5470 H   0  0  0  0  0  0
  -28.2602  -38.0083   24.7510 H   0  0  0  0  0  0
  -28.1062  -36.2614   24.6308 H   0  0  0  0  0  0
  -27.2286  -37.1461   25.8874 H   0  0  0  0  0  0
  -20.9351  -29.8811   21.6924 H   0  0  0  0  0  0
  -26.0166  -38.2841   24.1419 H   0  0  0  0  0  0
  -31.1049  -18.8067   18.9884 H   0  0  0  0  0  0
  -30.3408  -21.1045   18.6185 H   0  0  0  0  0  0
  -26.1448  -22.0341   17.7785 H   0  0  0  0  0  0
  -27.2478  -20.7442   18.4956 H   0  0  0  0  0  0
  -26.3200  -24.2937   19.7646 H   0  0  0  0  0  0
  -26.9774  -24.4778   18.1078 H   0  0  0  0  0  0
  -28.6824  -23.9482   21.6282 H   0  0  0  0  0  0
  -30.1354  -23.9443   20.6358 H   0  0  0  0  0  0
  -29.0858  -25.0818   18.8476 H   0  0  0  0  0  0
  -29.2341  -17.4833   23.2107 H   0  0  0  0  0  0
  -27.6286  -18.1176   22.9064 H   0  0  0  0  0  0
  -28.7810  -19.0252   23.8896 H   0  0  0  0  0  0
  -26.9793  -20.4358   22.8566 H   0  0  0  0  0  0
  -27.2136  -21.9890   22.1092 H   0  0  0  0  0  0
  -28.2889  -21.4884   23.4096 H   0  0  0  0  0  0
  -31.1004  -17.0907   22.1042 H   0  0  0  0  0  0
  -31.6209  -17.1059   20.4779 H   0  0  0  0  0  0
  -29.0537  -15.6920   21.0912 H   0  0  0  0  0  0
  1 25  1  0  0  0
  1 30  2  0  0  0
  1 86  1  0  0  0
  2  3  1  0  0  0
  2 25  1  0  0  0
  2 87  1  0  0  0
  2 88  1  0  0  0
  3  4  1  0  0  0
  3 89  1  0  0  0
  3 90  1  0  0  0
  4  5  1  0  0  0
  4 91  1  0  0  0
  4 92  1  0  0  0
  5  6  1  0  0  0
  5 26  1  0  0  0
  5 93  1  0  0  0
  6 25  1  0  0  0
  6 94  1  0  0  0
  6 95  1  0  0  0
  7  8  2  0  0  0
  7 26  1  0  0  0
  7 29  1  0  0  0
  8  9  1  0  0  0
  8 22  1  0  0  0
  9 10  1  0  0  0
  9 27  2  0  0  0
 10 11  2  0  0  0
 10 15  1  0  0  0
 11 12  1  0  0  0
 11 96  1  0  0  0
 12 13  2  0  0  0
 12 97  1  0  0  0
 13 14  1  0  0  0
 13 31  1  0  0  0
 14 15  2  0  0  0
 14 98  1  0  0  0
 15 99  1  0  0  0
 16 17  2  0  0  0
 16 21  1  0  0  0
 16 31  1  0  0  0
 17 18  1  0  0  0
 17100  1  0  0  0
 18 19  2  0  0  0
 18101  1  0  0  0
 19 20  1  0  0  0
 19 24  1  0  0  0
 20 21  2  0  0  0
 20102  1  0  0  0
 21 23  1  0  0  0
 22 28  1  0  0  0
 22 32  2  0  0  0
 26 27  1  0  0  0
 28103  1  0  0  0
 28104  1  0  0  0
 29105  1  0  0  0
 29106  1  0  0  0
 33 34  1  0  0  0
 33 66  1  0  0  0
 33 70  2  0  0  0
 34 36  1  0  0  0
 34 59  1  0  0  0
 34107  1  0  0  0
 35 44  2  0  0  0
 35 45  1  0  0  0
 35 68  1  0  0  0
 36 56  1  0  0  0
 36108  1  0  0  0
 37 39  1  0  0  0
 37 47  1  0  0  0
 37 66  1  0  0  0
 37109  1  0  0  0
 38 43  2  0  0  0
 38 46  1  0  0  0
 38 47  1  0  0  0
 39 64  1  0  0  0
 39 67  2  0  0  0
 40 52  1  0  0  0
 40 53  2  0  0  0
 40 58  1  0  0  0
 41110  1  0  0  0
 41111  1  0  0  0
 41112  1  0  0  0
 41 48  1  0  0  0
 42 43  1  0  0  0
 42 66  1  0  0  0
 42113  1  0  0  0
 42114  1  0  0  0
 43 44  1  0  0  0
 44115  1  0  0  0
 45 46  2  0  0  0
 45116  1  0  0  0
 46117  1  0  0  0
 47118  1  0  0  0
 47119  1  0  0  0
 48 56  1  0  0  0
 48 65  1  0  0  0
 48120  1  0  0  0
 49 50  1  0  0  0
 49 53  1  0  0  0
 49 64  1  0  0  0
 49121  1  0  0  0
 50 51  1  0  0  0
 50122  1  0  0  0
 50123  1  0  0  0
 51 52  1  0  0  0
 51124  1  0  0  0
 51125  1  0  0  0
 52126  1  0  0  0
 52127  1  0  0  0
 53 54  1  0  0  0
 54 55  2  0  0  0
 54128  1  0  0  0
 55 57  1  0  0  0
 55129  1  0  0  0
 56 69  2  0  0  0
 57 58  2  0  0  0
 57130  1  0  0  0
 58131  1  0  0  0
 59 60  1  0  0  0
 59 61  1  0  0  0
 59 62  1  0  0  0
 60132  1  0  0  0
 60133  1  0  0  0
 60134  1  0  0  0
 61135  1  0  0  0
 61136  1  0  0  0
 61137  1  0  0  0
 62138  1  0  0  0
 62139  1  0  0  0
 62140  1  0  0  0
 63 65  1  0  0  0
 63141  1  0  0  0
 63142  1  0  0  0
 63143  1  0  0  0
 64144  1  0  0  0
 65145  1  0  0  0
 68 81  1  0  0  0
 71 72  2  0  0  0
 71 73  1  0  0  0
 71146  1  0  0  0
 72 76  1  0  0  0
 72147  1  0  0  0
 73 74  2  0  0  0
 73 84  1  0  0  0
 74 75  1  0  0  0
 74 82  1  0  0  0
 75 76  2  0  0  0
 75 83  1  0  0  0
 76 85  1  0  0  0
 77 78  2  0  0  0
 77 79  1  0  0  0
 77 85  1  0  0  0
 78148  1  0  0  0
 78149  1  0  0  0
 79 81  1  0  0  0
 79150  1  0  0  0
 79151  1  0  0  0
 80 81  1  0  0  0
 80 85  1  0  0  0
 80152  1  0  0  0
 80153  1  0  0  0
 81154  1  0  0  0
 82155  1  0  0  0
 82156  1  0  0  0
 82157  1  0  0  0
 83158  1  0  0  0
 83159  1  0  0  0
 83160  1  0  0  0
 84 86  1  0  0  0
 84161  1  0  0  0
 84162  1  0  0  0
 86163  1  0  0  0
M  ISO  4   1 100  68 101  81 101  86 100
M  END
> <chiral flag>
0

> <version>
0

> <s_m_source_file>
/data/baiqing/PycharmProjects/Reinvent-master-3.2/result/LINK_invent/BTK/process_docking_weight1_custom_product_contain_oxygen_bond_distance_aromatic_linkinvent_7_9_3/rearranged_h_0033.sdf

> <i_m_source_file_index>
34

> <r_mmod_Potential_Energy-OPLS-2005>
144.620010375977

> <r_mmod_Stretch_Energy-OPLS-2005>
87.2784423828125

> <r_mmod_Bend_Energy-OPLS-2005>
223.576721191406

> <r_mmod_Torsional_Energy-OPLS-2005>
256.511322021484

> <r_mmod_Improper_Torsional_Energy-OPLS-2005>
5.02456140518188

> <r_mmod_Van_der_Waal_Energy-OPLS-2005>
161.406936645508

> <r_mmod_Electrostatic_Energy-OPLS-2005>
-443.606018066406

> <r_mmod_Solvation_Energy-OPLS-2005>
-202.266693115234

> <b_mmod_Minimization_Converged-OPLS-2005>
0

> <r_mmod_RMS_Derivative-OPLS-2005>
1.27291476726532

$$$$
34
                    3D
 Structure written by MMmdl.
167176  0  0  1  0            999 V2000
  -30.5757  -14.7536   20.3482 C   0  0  0  0  0  0
  -30.4344  -12.4488   19.4229 C   0  0  0  0  0  0
  -29.4958  -12.4745   18.1976 C   0  0  0  0  0  0
  -28.0181  -12.3213   18.6209 C   0  0  0  0  0  0
  -27.6269  -13.2282   19.8172 C   0  0  2  0  0  0
  -28.6857  -13.1826   20.9342 C   0  0  0  0  0  0
  -25.2474  -13.8209   20.5705 C   0  0  0  0  0  0
  -24.1769  -13.0420   20.9244 C   0  0  0  0  0  0
  -24.6369  -11.6919   20.8737 C   0  0  0  0  0  0
  -23.9041  -10.4287   21.0415 C   0  0  0  0  0  0
  -24.3602   -9.4208   21.9184 C   0  0  0  0  0  0
  -23.6295   -8.2244   22.0747 C   0  0  0  0  0  0
  -22.4273   -8.0283   21.3554 C   0  0  0  0  0  0
  -21.9906   -9.0241   20.4642 C   0  0  0  0  0  0
  -22.7219  -10.2133   20.3059 C   0  0  0  0  0  0
  -21.6834   -6.0737   22.5278 C   0  0  0  0  0  0
  -21.4006   -6.5643   23.8205 C   0  0  0  0  0  0
  -21.3667   -5.6795   24.9167 C   0  0  0  0  0  0
  -21.6045   -4.3056   24.7218 C   0  0  0  0  0  0
  -21.8817   -3.8160   23.4337 C   0  0  0  0  0  0
  -21.9190   -4.6975   22.3394 C   0  0  0  0  0  0
  -22.7799  -13.5227   21.1904 C   0  0  0  0  0  0
  -22.1659   -4.2161   21.0966 F   0  0  0  0  0  0
  -21.5631   -3.4540   25.7731 F   0  0  0  0  0  0
  -29.9736  -13.5223   20.3176 N   0  0  0  0  0  0
  -26.2857  -12.9392   20.3163 N   0  0  0  0  0  0
  -25.9289  -11.6539   20.5692 N   0  0  0  0  0  0
  -22.0425  -12.8190   22.0452 N   0  0  0  0  0  0
  -25.4164  -15.1923   20.4175 N   0  0  0  0  0  0
  -31.7998  -14.8494   20.2227 O   0  0  0  0  0  0
  -21.6645   -6.8878   21.4247 O   0  0  0  0  0  0
  -22.3479  -14.5517   20.6735 O   0  0  0  0  0  0
  -24.6361  -31.8555   23.2084 C   0  0  0  0  0  0
  -25.9188  -32.4778   23.8367 C   0  0  1  0  0  0
  -27.1910  -27.2167   20.0620 C   0  0  0  0  0  0
  -25.5984  -33.8589   24.2285 N   0  0  0  0  0  0
  -23.4315  -30.4849   21.5570 C   0  0  2  0  0  0
  -24.8698  -28.9456   20.1137 C   0  0  0  0  0  0
  -22.7519  -29.4539   22.4962 C   0  0  0  0  0  0
  -18.0275  -28.1272   22.8493 C   0  0  0  0  0  0
  -24.1502  -36.7265   23.2622 C   0  0  0  0  0  0
  -25.9856  -30.7465   21.4023 C   0  0  0  0  0  0
  -26.0510  -29.3670   20.7351 C   0  0  0  0  0  0
  -27.2059  -28.5058   20.7184 C   0  0  0  0  0  0
  -25.9863  -26.9206   19.3873 C   0  0  0  0  0  0
  -24.8461  -27.7294   19.4371 C   0  0  0  0  0  0
  -23.6484  -29.8405   20.1642 C   0  0  0  0  0  0
  -25.4122  -36.3076   24.0303 C   0  0  1  0  0  0
  -20.5900  -28.3579   23.1265 C   0  0  2  0  0  0
  -20.6763  -26.9305   22.5392 C   0  0  0  0  0  0
  -19.5750  -26.6298   21.5165 C   0  0  0  0  0  0
  -18.1924  -26.7802   22.1582 C   0  0  0  0  0  0
  -19.1539  -28.8736   23.2856 C   0  0  0  0  0  0
  -18.9448  -30.1316   23.8885 C   0  0  0  0  0  0
  -17.6468  -30.6510   24.0491 C   0  0  0  0  0  0
  -25.9049  -34.9448   23.5068 C   0  0  0  0  0  0
  -16.5360  -29.9003   23.6295 C   0  0  0  0  0  0
  -16.7272  -28.6393   23.0377 C   0  0  0  0  0  0
  -26.4526  -31.6608   25.0771 C   0  0  0  0  0  0
  -25.3713  -31.3778   26.1470 C   0  0  0  0  0  0
  -27.0347  -30.3013   24.6259 C   0  0  0  0  0  0
  -27.6077  -32.4333   25.7532 C   0  0  0  0  0  0
  -27.5566  -37.1778   24.8454 C   0  0  0  0  0  0
  -21.4222  -29.2979   22.3701 N   0  0  0  0  0  0
  -26.4290  -37.3771   23.9400 N   0  0  0  0  0  0
  -24.7042  -31.0453   22.1120 N   0  0  0  0  0  0
  -23.4221  -28.8008   23.3009 O   0  0  0  0  0  0
  -28.2681  -26.2788   20.1035 O   0  0  0  0  0  0
  -26.5594  -34.8898   22.4648 O   0  0  0  0  0  0
  -23.5497  -32.1458   23.7314 O   0  0  0  0  0  0
  -30.2933  -18.8124   22.4718 C   0  0  0  0  0  0
  -29.5504  -18.4474   19.8295 C   0  0  0  0  0  0
  -30.0419  -19.9501   21.6789 C   0  0  0  0  0  0
  -30.1865  -17.4992   21.9851 C   0  0  0  0  0  0
  -29.6231  -19.8215   20.3262 C   0  0  0  0  0  0
  -29.8681  -17.2625   20.6240 C   0  0  0  0  0  0
  -27.3094  -22.5994   18.9220 C   0  0  0  0  0  0
  -26.4999  -21.7594   18.2267 C   0  0  0  0  0  0
  -27.0771  -24.1065   18.9812 C   0  0  0  0  0  0
  -29.0394  -23.6506   20.2320 C   0  0  0  0  0  0
  -28.3189  -24.8670   19.4837 C   0  0  2  0  0  0
  -30.2499  -21.2962   22.3510 C   0  0  0  0  0  0
  -30.3835  -16.3699   22.9883 C   0  0  0  0  0  0
  -26.4394  -20.2387   18.1872 C   0  0  0  0  0  0
  -29.4232  -21.1387   19.4264 C   0  0  0  0  0  0
  -29.7590  -15.8615   20.1504 N   0  0  0  0  0  0
  -28.4582  -22.2804   19.8385 N   0  3  2  0  0  0
  -31.4663  -12.6003   19.1006 H   0  0  0  0  0  0
  -30.4047  -11.4841   19.9329 H   0  0  0  0  0  0
  -29.7692  -11.6793   17.5019 H   0  0  0  0  0  0
  -29.6274  -13.4112   17.6568 H   0  0  0  0  0  0
  -27.8564  -11.2761   18.8815 H   0  0  0  0  0  0
  -27.3675  -12.5223   17.7699 H   0  0  0  0  0  0
  -27.6021  -14.2429   19.4232 H   0  0  0  0  0  0
  -28.7272  -12.1966   21.3959 H   0  0  0  0  0  0
  -28.4325  -13.8925   21.7208 H   0  0  0  0  0  0
  -25.2723   -9.5702   22.4768 H   0  0  0  0  0  0
  -23.9999   -7.4642   22.7453 H   0  0  0  0  0  0
  -21.0836   -8.8745   19.8954 H   0  0  0  0  0  0
  -22.3642  -10.9671   19.6189 H   0  0  0  0  0  0
  -21.1987   -7.6157   23.9709 H   0  0  0  0  0  0
  -21.1493   -6.0531   25.9072 H   0  0  0  0  0  0
  -22.0593   -2.7621   23.2822 H   0  0  0  0  0  0
  -22.4024  -11.9860   22.4855 H   0  0  0  0  0  0
  -21.1046  -13.1242   22.2645 H   0  0  0  0  0  0
  -24.6564  -15.8490   20.5551 H   0  0  0  0  0  0
  -26.2711  -15.6381   20.1092 H   0  0  0  0  0  0
  -26.7255  -32.5411   23.1079 H   0  0  0  0  0  0
  -25.0218  -33.9743   25.0488 H   0  0  0  0  0  0
  -22.7240  -31.3039   21.4214 H   0  0  0  0  0  0
  -23.3769  -35.9578   23.3330 H   0  0  0  0  0  0
  -24.3615  -36.8916   22.2031 H   0  0  0  0  0  0
  -23.7267  -37.6467   23.6653 H   0  0  0  0  0  0
  -26.1247  -31.5077   20.6322 H   0  0  0  0  0  0
  -26.8614  -30.7913   22.0378 H   0  0  0  0  0  0
  -28.1015  -28.8110   21.2427 H   0  0  0  0  0  0
  -25.8199  -26.0669   18.7726 H   0  0  0  0  0  0
  -23.9533  -27.4191   18.9151 H   0  0  0  0  0  0
  -23.7820  -30.6284   19.4257 H   0  0  0  0  0  0
  -22.7636  -29.2876   19.8483 H   0  0  0  0  0  0
  -25.1317  -36.1881   25.0778 H   0  0  0  0  0  0
  -20.9911  -28.3109   24.1397 H   0  0  0  0  0  0
  -20.5597  -26.2171   23.3591 H   0  0  0  0  0  0
  -21.6636  -26.7290   22.1204 H   0  0  0  0  0  0
  -19.6907  -25.6193   21.1196 H   0  0  0  0  0  0
  -19.6670  -27.3073   20.6687 H   0  0  0  0  0  0
  -17.4184  -26.6523   21.3998 H   0  0  0  0  0  0
  -18.0334  -25.9878   22.8926 H   0  0  0  0  0  0
  -19.7947  -30.7077   24.2301 H   0  0  0  0  0  0
  -17.5055  -31.6207   24.5026 H   0  0  0  0  0  0
  -15.5358  -30.2911   23.7589 H   0  0  0  0  0  0
  -15.8667  -28.0674   22.7164 H   0  0  0  0  0  0
  -24.5936  -30.7045   25.7842 H   0  0  0  0  0  0
  -24.8797  -32.2930   26.4719 H   0  0  0  0  0  0
  -25.7965  -30.9119   27.0362 H   0  0  0  0  0  0
  -26.2902  -29.6786   24.1272 H   0  0  0  0  0  0
  -27.4025  -29.7238   25.4747 H   0  0  0  0  0  0
  -27.8803  -30.4302   23.9520 H   0  0  0  0  0  0
  -27.2740  -33.3718   26.1948 H   0  0  0  0  0  0
  -28.3950  -32.6759   25.0394 H   0  0  0  0  0  0
  -28.0642  -31.8562   26.5585 H   0  0  0  0  0  0
  -28.2543  -38.0114   24.7560 H   0  0  0  0  0  0
  -28.1113  -36.2644   24.6233 H   0  0  0  0  0  0
  -27.2299  -37.1416   25.8865 H   0  0  0  0  0  0
  -20.9366  -29.8898   21.7097 H   0  0  0  0  0  0
  -26.0167  -38.2808   24.1482 H   0  0  0  0  0  0
  -30.5767  -18.9469   23.5065 H   0  0  0  0  0  0
  -29.2698  -18.2982   18.7951 H   0  0  0  0  0  0
  -25.7113  -22.2185   17.6477 H   0  0  0  0  0  0
  -26.2415  -24.2242   19.6715 H   0  0  0  0  0  0
  -26.7910  -24.4463   17.9844 H   0  0  0  0  0  0
  -28.8906  -23.7820   21.3015 H   0  0  0  0  0  0
  -30.1160  -23.6881   20.0625 H   0  0  0  0  0  0
  -28.9063  -25.0305   18.5759 H   0  0  0  0  0  0
  -30.6138  -21.1698   23.3715 H   0  0  0  0  0  0
  -29.3127  -21.8391   22.4433 H   0  0  0  0  0  0
  -30.9825  -21.9103   21.8223 H   0  0  0  0  0  0
  -30.2430  -16.7223   24.0084 H   0  0  0  0  0  0
  -31.3900  -15.9590   22.9077 H   0  0  0  0  0  0
  -29.6528  -15.5747   22.8417 H   0  0  0  0  0  0
  -26.4343  -19.8811   17.1536 H   0  0  0  0  0  0
  -25.5004  -19.9243   18.6460 H   0  0  0  0  0  0
  -27.2474  -19.7475   18.7184 H   0  0  0  0  0  0
  -29.1698  -20.8233   18.4137 H   0  0  0  0  0  0
  -30.4108  -21.5780   19.3017 H   0  0  0  0  0  0
  -28.8954  -15.6441   19.6749 H   0  0  0  0  0  0
  -28.0456  -21.9125   20.6795 H   0  0  0  0  0  0
  1 25  1  0  0  0
  1 30  2  0  0  0
  1 86  1  0  0  0
  2  3  1  0  0  0
  2 25  1  0  0  0
  2 88  1  0  0  0
  2 89  1  0  0  0
  3  4  1  0  0  0
  3 90  1  0  0  0
  3 91  1  0  0  0
  4  5  1  0  0  0
  4 92  1  0  0  0
  4 93  1  0  0  0
  5  6  1  0  0  0
  5 26  1  0  0  0
  5 94  1  0  0  0
  6 25  1  0  0  0
  6 95  1  0  0  0
  6 96  1  0  0  0
  7  8  2  0  0  0
  7 26  1  0  0  0
  7 29  1  0  0  0
  8  9  1  0  0  0
  8 22  1  0  0  0
  9 10  1  0  0  0
  9 27  2  0  0  0
 10 11  2  0  0  0
 10 15  1  0  0  0
 11 12  1  0  0  0
 11 97  1  0  0  0
 12 13  2  0  0  0
 12 98  1  0  0  0
 13 14  1  0  0  0
 13 31  1  0  0  0
 14 15  2  0  0  0
 14 99  1  0  0  0
 15100  1  0  0  0
 16 17  2  0  0  0
 16 21  1  0  0  0
 16 31  1  0  0  0
 17 18  1  0  0  0
 17101  1  0  0  0
 18 19  2  0  0  0
 18102  1  0  0  0
 19 20  1  0  0  0
 19 24  1  0  0  0
 20 21  2  0  0  0
 20103  1  0  0  0
 21 23  1  0  0  0
 22 28  1  0  0  0
 22 32  2  0  0  0
 26 27  1  0  0  0
 28104  1  0  0  0
 28105  1  0  0  0
 29106  1  0  0  0
 29107  1  0  0  0
 33 34  1  0  0  0
 33 66  1  0  0  0
 33 70  2  0  0  0
 34 36  1  0  0  0
 34 59  1  0  0  0
 34108  1  0  0  0
 35 44  2  0  0  0
 35 45  1  0  0  0
 35 68  1  0  0  0
 36 56  1  0  0  0
 36109  1  0  0  0
 37 39  1  0  0  0
 37 47  1  0  0  0
 37 66  1  0  0  0
 37110  1  0  0  0
 38 43  2  0  0  0
 38 46  1  0  0  0
 38 47  1  0  0  0
 39 64  1  0  0  0
 39 67  2  0  0  0
 40 52  1  0  0  0
 40 53  2  0  0  0
 40 58  1  0  0  0
 41111  1  0  0  0
 41112  1  0  0  0
 41113  1  0  0  0
 41 48  1  0  0  0
 42 43  1  0  0  0
 42 66  1  0  0  0
 42114  1  0  0  0
 42115  1  0  0  0
 43 44  1  0  0  0
 44116  1  0  0  0
 45 46  2  0  0  0
 45117  1  0  0  0
 46118  1  0  0  0
 47119  1  0  0  0
 47120  1  0  0  0
 48 56  1  0  0  0
 48 65  1  0  0  0
 48121  1  0  0  0
 49 50  1  0  0  0
 49 53  1  0  0  0
 49 64  1  0  0  0
 49122  1  0  0  0
 50 51  1  0  0  0
 50123  1  0  0  0
 50124  1  0  0  0
 51 52  1  0  0  0
 51125  1  0  0  0
 51126  1  0  0  0
 52127  1  0  0  0
 52128  1  0  0  0
 53 54  1  0  0  0
 54 55  2  0  0  0
 54129  1  0  0  0
 55 57  1  0  0  0
 55130  1  0  0  0
 56 69  2  0  0  0
 57 58  2  0  0  0
 57131  1  0  0  0
 58132  1  0  0  0
 59 60  1  0  0  0
 59 61  1  0  0  0
 59 62  1  0  0  0
 60133  1  0  0  0
 60134  1  0  0  0
 60135  1  0  0  0
 61136  1  0  0  0
 61137  1  0  0  0
 61138  1  0  0  0
 62139  1  0  0  0
 62140  1  0  0  0
 62141  1  0  0  0
 63 65  1  0  0  0
 63142  1  0  0  0
 63143  1  0  0  0
 63144  1  0  0  0
 64145  1  0  0  0
 65146  1  0  0  0
 68 81  1  0  0  0
 71 73  2  0  0  0
 71 74  1  0  0  0
 71147  1  0  0  0
 72 75  2  0  0  0
 72 76  1  0  0  0
 72148  1  0  0  0
 73 75  1  0  0  0
 73 82  1  0  0  0
 74 76  2  0  0  0
 74 83  1  0  0  0
 75 85  1  0  0  0
 76 86  1  0  0  0
 77 78  2  0  0  0
 77 79  1  0  0  0
 77 87  1  0  0  0
 78 84  1  0  0  0
 78149  1  0  0  0
 79 81  1  0  0  0
 79150  1  0  0  0
 79151  1  0  0  0
 80 81  1  0  0  0
 80 87  1  0  0  0
 80152  1  0  0  0
 80153  1  0  0  0
 81154  1  0  0  0
 82155  1  0  0  0
 82156  1  0  0  0
 82157  1  0  0  0
 83158  1  0  0  0
 83159  1  0  0  0
 83160  1  0  0  0
 84161  1  0  0  0
 84162  1  0  0  0
 84163  1  0  0  0
 85164  1  0  0  0
 85165  1  0  0  0
 85 87  1  0  0  0
 86166  1  0  0  0
 87167  1  0  0  0
M  CHG  1  87   1
M  ISO  4   1 100  68 101  81 101  86 100
M  END
> <chiral flag>
0

> <version>
0

> <s_m_source_file>
/data/baiqing/PycharmProjects/Reinvent-master-3.2/result/LINK_invent/BTK/process_docking_weight1_custom_product_contain_oxygen_bond_distance_aromatic_linkinvent_7_9_3/rearranged_h_0033.sdf

> <i_m_source_file_index>
35

> <r_mmod_Potential_Energy-OPLS-2005>
222.747421264648

> <r_mmod_Stretch_Energy-OPLS-2005>
141.509231567383

> <r_mmod_Bend_Energy-OPLS-2005>
244.577301025391

> <r_mmod_Torsional_Energy-OPLS-2005>
289.393096923828

> <r_mmod_Improper_Torsional_Energy-OPLS-2005>
10.6252307891846

> <r_mmod_Van_der_Waal_Energy-OPLS-2005>
151.767562866211

> <r_mmod_Electrostatic_Energy-OPLS-2005>
-300.907196044922

> <r_mmod_Solvation_Energy-OPLS-2005>
-428.620544433594

> <b_mmod_Minimization_Converged-OPLS-2005>
0

> <r_mmod_RMS_Derivative-OPLS-2005>
6.10462665557861

$$$$
35
                    3D
 Structure written by MMmdl.
164173  0  0  1  0            999 V2000
  -30.5855  -14.6715   20.5075 C   0  0  0  0  0  0
  -30.4472  -12.4147   19.4578 C   0  0  0  0  0  0
  -29.5142  -12.5154   18.2296 C   0  0  0  0  0  0
  -28.0383  -12.3387   18.6399 C   0  0  0  0  0  0
  -27.6549  -13.2122   19.8630 C   0  0  2  0  0  0
  -28.6950  -13.0635   20.9954 C   0  0  0  0  0  0
  -25.2579  -13.8165   20.5667 C   0  0  0  0  0  0
  -24.1837  -13.0441   20.9172 C   0  0  0  0  0  0
  -24.6391  -11.6908   20.8719 C   0  0  0  0  0  0
  -23.9061  -10.4290   21.0390 C   0  0  0  0  0  0
  -24.3614   -9.4204   21.9162 C   0  0  0  0  0  0
  -23.6288   -8.2245   22.0745 C   0  0  0  0  0  0
  -22.4266   -8.0279   21.3546 C   0  0  0  0  0  0
  -21.9897   -9.0252   20.4656 C   0  0  0  0  0  0
  -22.7228  -10.2129   20.3053 C   0  0  0  0  0  0
  -21.6847   -6.0732   22.5279 C   0  0  0  0  0  0
  -21.4015   -6.5636   23.8213 C   0  0  0  0  0  0
  -21.3661   -5.6785   24.9172 C   0  0  0  0  0  0
  -21.6044   -4.3048   24.7221 C   0  0  0  0  0  0
  -21.8822   -3.8146   23.4343 C   0  0  0  0  0  0
  -21.9194   -4.6963   22.3401 C   0  0  0  0  0  0
  -22.7863  -13.5244   21.1841 C   0  0  0  0  0  0
  -22.1663   -4.2153   21.0981 F   0  0  0  0  0  0
  -21.5624   -3.4534   25.7733 F   0  0  0  0  0  0
  -30.0097  -13.4264   20.4420 N   0  0  0  0  0  0
  -26.2989  -12.9326   20.3280 N   0  0  0  0  0  0
  -25.9312  -11.6490   20.5719 N   0  0  0  0  0  0
  -22.0502  -12.8248   22.0402 N   0  0  0  0  0  0
  -25.4346  -15.1882   20.4108 N   0  0  0  0  0  0
  -31.7327  -14.8649   20.0936 O   0  0  0  0  0  0
  -21.6635   -6.8874   21.4243 O   0  0  0  0  0  0
  -22.3549  -14.5554   20.6695 O   0  0  0  0  0  0
  -24.6268  -31.8575   23.2009 C   0  0  0  0  0  0
  -25.9109  -32.4764   23.8338 C   0  0  1  0  0  0
  -27.2224  -27.3055   20.1116 C   0  0  0  0  0  0
  -25.5923  -33.8566   24.2265 N   0  0  0  0  0  0
  -23.4194  -30.4807   21.5443 C   0  0  2  0  0  0
  -24.8627  -28.9286   20.1124 C   0  0  0  0  0  0
  -22.7473  -29.4612   22.4941 C   0  0  0  0  0  0
  -18.0287  -28.1392   22.8480 C   0  0  0  0  0  0
  -24.1488  -36.7298   23.2637 C   0  0  0  0  0  0
  -25.9601  -30.7841   21.3707 C   0  0  0  0  0  0
  -26.0314  -29.4091   20.7139 C   0  0  0  0  0  0
  -27.2110  -28.6087   20.7023 C   0  0  0  0  0  0
  -26.0247  -26.8693   19.5012 C   0  0  0  0  0  0
  -24.8616  -27.6651   19.4994 C   0  0  0  0  0  0
  -23.6326  -29.8122   20.1603 C   0  0  0  0  0  0
  -25.4110  -36.3075   24.0326 C   0  0  1  0  0  0
  -20.5884  -28.3689   23.1292 C   0  0  2  0  0  0
  -20.6772  -26.9410   22.5425 C   0  0  0  0  0  0
  -19.5756  -26.6388   21.5216 C   0  0  0  0  0  0
  -18.1930  -26.7939   22.1614 C   0  0  0  0  0  0
  -19.1537  -28.8859   23.2882 C   0  0  0  0  0  0
  -18.9458  -30.1461   23.8898 C   0  0  0  0  0  0
  -17.6456  -30.6587   24.0568 C   0  0  0  0  0  0
  -25.9047  -34.9446   23.5096 C   0  0  0  0  0  0
  -16.5350  -29.9085   23.6332 C   0  0  0  0  0  0
  -16.7273  -28.6509   23.0342 C   0  0  0  0  0  0
  -26.4503  -31.6584   25.0715 C   0  0  0  0  0  0
  -25.3758  -31.3750   26.1471 C   0  0  0  0  0  0
  -27.0316  -30.2993   24.6174 C   0  0  0  0  0  0
  -27.6071  -32.4331   25.7463 C   0  0  0  0  0  0
  -27.5584  -37.1790   24.8457 C   0  0  0  0  0  0
  -21.4189  -29.3034   22.3682 N   0  0  0  0  0  0
  -26.4288  -37.3771   23.9414 N   0  0  0  0  0  0
  -24.6878  -31.0584   22.0954 N   0  0  0  0  0  0
  -23.4198  -28.8157   23.3025 O   0  0  0  0  0  0
  -28.3717  -26.5005   20.1588 O   0  0  0  0  0  0
  -26.5621  -34.8917   22.4665 O   0  0  0  0  0  0
  -23.5435  -32.1377   23.7341 O   0  0  0  0  0  0
  -29.3535  -19.1239   19.3051 C   0  0  0  0  0  0
  -28.9604  -19.9776   20.3747 C   0  0  0  0  0  0
  -29.0041  -19.3807   21.6730 C   0  0  0  0  0  0
  -29.3858  -18.0015   21.8575 C   0  0  0  0  0  0
  -29.6996  -17.1339   20.7603 C   0  0  0  0  0  0
  -29.6903  -17.7458   19.4733 C   0  0  0  0  0  0
  -30.0638  -23.2126   19.5787 C   0  0  0  0  0  0
  -31.0735  -22.4494   19.1264 C   0  0  0  0  0  0
  -29.8562  -24.7083   19.3366 C   0  0  0  0  0  0
  -28.0465  -23.9047   20.6815 C   0  0  0  0  0  0
  -28.4152  -25.0828   19.7064 C   0  0  1  0  0  0
  -28.5815  -20.1964   22.8951 C   0  0  0  0  0  0
  -29.4103  -17.4176   23.2691 C   0  0  0  0  0  0
  -28.3049  -21.3948   20.0593 C   0  0  0  0  0  0
  -29.7784  -15.6779   20.9808 N   0  0  0  0  0  0
  -28.9638  -22.7139   20.4541 N   0  3  1  0  0  0
  -29.9620  -16.8136   18.0422 Cl  0  0  0  0  0  0
  -31.4853  -12.5613   19.1536 H   0  0  0  0  0  0
  -30.4023  -11.4168   19.8962 H   0  0  0  0  0  0
  -29.7873  -11.7650   17.4867 H   0  0  0  0  0  0
  -29.6461  -13.4845   17.7465 H   0  0  0  0  0  0
  -27.8837  -11.2854   18.8764 H   0  0  0  0  0  0
  -27.3836  -12.5595   17.7966 H   0  0  0  0  0  0
  -27.6761  -14.2463   19.5192 H   0  0  0  0  0  0
  -28.7148  -12.0373   21.3645 H   0  0  0  0  0  0
  -28.4240  -13.6789   21.8543 H   0  0  0  0  0  0
  -25.2758   -9.5679   22.4727 H   0  0  0  0  0  0
  -24.0002   -7.4632   22.7454 H   0  0  0  0  0  0
  -21.0824   -8.8771   19.8964 H   0  0  0  0  0  0
  -22.3676  -10.9664   19.6170 H   0  0  0  0  0  0
  -21.2013   -7.6139   23.9718 H   0  0  0  0  0  0
  -21.1474   -6.0509   25.9071 H   0  0  0  0  0  0
  -22.0606   -2.7609   23.2837 H   0  0  0  0  0  0
  -22.4109  -11.9920   22.4806 H   0  0  0  0  0  0
  -21.1132  -13.1301   22.2619 H   0  0  0  0  0  0
  -24.6750  -15.8498   20.5277 H   0  0  0  0  0  0
  -26.2883  -15.6214   20.0822 H   0  0  0  0  0  0
  -26.7169  -32.5424   23.1076 H   0  0  0  0  0  0
  -25.0069  -33.9706   25.0412 H   0  0  0  0  0  0
  -22.7139  -31.3020   21.4013 H   0  0  0  0  0  0
  -23.3744  -35.9636   23.3289 H   0  0  0  0  0  0
  -24.3583  -36.8931   22.2054 H   0  0  0  0  0  0
  -23.7247  -37.6499   23.6669 H   0  0  0  0  0  0
  -26.0918  -31.5452   20.6008 H   0  0  0  0  0  0
  -26.8414  -30.8343   21.9983 H   0  0  0  0  0  0
  -28.1116  -28.9758   21.1742 H   0  0  0  0  0  0
  -25.9501  -25.9008   19.0319 H   0  0  0  0  0  0
  -23.9609  -27.2900   19.0325 H   0  0  0  0  0  0
  -23.7553  -30.5878   19.4037 H   0  0  0  0  0  0
  -22.7509  -29.2443   19.8571 H   0  0  0  0  0  0
  -25.1287  -36.1920   25.0817 H   0  0  0  0  0  0
  -20.9974  -28.3270   24.1415 H   0  0  0  0  0  0
  -20.5667  -26.2297   23.3624 H   0  0  0  0  0  0
  -21.6644  -26.7440   22.1225 H   0  0  0  0  0  0
  -19.6917  -25.6300   21.1243 H   0  0  0  0  0  0
  -19.6703  -27.3203   20.6750 H   0  0  0  0  0  0
  -17.4207  -26.6700   21.4007 H   0  0  0  0  0  0
  -18.0316  -26.0081   22.9008 H   0  0  0  0  0  0
  -19.7930  -30.7284   24.2266 H   0  0  0  0  0  0
  -17.5007  -31.6263   24.5177 H   0  0  0  0  0  0
  -15.5349  -30.2983   23.7661 H   0  0  0  0  0  0
  -15.8674  -28.0833   22.7046 H   0  0  0  0  0  0
  -24.5915  -30.7098   25.7844 H   0  0  0  0  0  0
  -24.8973  -32.2927   26.4903 H   0  0  0  0  0  0
  -25.8113  -30.8947   27.0242 H   0  0  0  0  0  0
  -26.2858  -29.6756   24.1227 H   0  0  0  0  0  0
  -27.4019  -29.7252   25.4680 H   0  0  0  0  0  0
  -27.8744  -30.4255   23.9373 H   0  0  0  0  0  0
  -27.2668  -33.3611   26.2075 H   0  0  0  0  0  0
  -28.3844  -32.6932   25.0265 H   0  0  0  0  0  0
  -28.0787  -31.8449   26.5348 H   0  0  0  0  0  0
  -28.2601  -38.0088   24.7498 H   0  0  0  0  0  0
  -28.1077  -36.2619   24.6271 H   0  0  0  0  0  0
  -27.2316  -37.1435   25.8865 H   0  0  0  0  0  0
  -20.9373  -29.8744   21.6876 H   0  0  0  0  0  0
  -26.0168  -38.2842   24.1430 H   0  0  0  0  0  0
  -29.3106  -19.5054   18.2948 H   0  0  0  0  0  0
  -31.8502  -22.8723   18.5065 H   0  0  0  0  0  0
  -31.1557  -21.4003   19.3705 H   0  0  0  0  0  0
  -30.0799  -24.9742   18.3033 H   0  0  0  0  0  0
  -30.5576  -25.2489   19.9722 H   0  0  0  0  0  0
  -26.9909  -23.6447   20.6036 H   0  0  0  0  0  0
  -28.2055  -24.2393   21.7065 H   0  0  0  0  0  0
  -27.8365  -24.9620   18.7911 H   0  0  0  0  0  0
  -29.4504  -20.4313   23.5106 H   0  0  0  0  0  0
  -27.8778  -19.6340   23.5098 H   0  0  0  0  0  0
  -28.0874  -21.1352   22.6566 H   0  0  0  0  0  0
  -29.7343  -18.1480   24.0094 H   0  0  0  0  0  0
  -30.1108  -16.5868   23.3542 H   0  0  0  0  0  0
  -28.4187  -17.0624   23.5503 H   0  0  0  0  0  0
  -27.3135  -21.3665   20.5123 H   0  0  0  0  0  0
  -28.1011  -21.4483   18.9893 H   0  0  0  0  0  0
  -28.9832  -15.3116   21.4805 H   0  0  0  0  0  0
  -29.3597  -22.5245   21.3627 H   0  0  0  0  0  0
  1 25  1  0  0  0
  1 30  2  0  0  0
  1 85  1  0  0  0
  2  3  1  0  0  0
  2 25  1  0  0  0
  2 88  1  0  0  0
  2 89  1  0  0  0
  3  4  1  0  0  0
  3 90  1  0  0  0
  3 91  1  0  0  0
  4  5  1  0  0  0
  4 92  1  0  0  0
  4 93  1  0  0  0
  5  6  1  0  0  0
  5 26  1  0  0  0
  5 94  1  0  0  0
  6 25  1  0  0  0
  6 95  1  0  0  0
  6 96  1  0  0  0
  7  8  2  0  0  0
  7 26  1  0  0  0
  7 29  1  0  0  0
  8  9  1  0  0  0
  8 22  1  0  0  0
  9 10  1  0  0  0
  9 27  2  0  0  0
 10 11  2  0  0  0
 10 15  1  0  0  0
 11 12  1  0  0  0
 11 97  1  0  0  0
 12 13  2  0  0  0
 12 98  1  0  0  0
 13 14  1  0  0  0
 13 31  1  0  0  0
 14 15  2  0  0  0
 14 99  1  0  0  0
 15100  1  0  0  0
 16 17  2  0  0  0
 16 21  1  0  0  0
 16 31  1  0  0  0
 17 18  1  0  0  0
 17101  1  0  0  0
 18 19  2  0  0  0
 18102  1  0  0  0
 19 20  1  0  0  0
 19 24  1  0  0  0
 20 21  2  0  0  0
 20103  1  0  0  0
 21 23  1  0  0  0
 22 28  1  0  0  0
 22 32  2  0  0  0
 26 27  1  0  0  0
 28104  1  0  0  0
 28105  1  0  0  0
 29106  1  0  0  0
 29107  1  0  0  0
 33 34  1  0  0  0
 33 66  1  0  0  0
 33 70  2  0  0  0
 34 36  1  0  0  0
 34 59  1  0  0  0
 34108  1  0  0  0
 35 44  2  0  0  0
 35 45  1  0  0  0
 35 68  1  0  0  0
 36 56  1  0  0  0
 36109  1  0  0  0
 37 39  1  0  0  0
 37 47  1  0  0  0
 37 66  1  0  0  0
 37110  1  0  0  0
 38 43  2  0  0  0
 38 46  1  0  0  0
 38 47  1  0  0  0
 39 64  1  0  0  0
 39 67  2  0  0  0
 40 52  1  0  0  0
 40 53  2  0  0  0
 40 58  1  0  0  0
 41111  1  0  0  0
 41112  1  0  0  0
 41113  1  0  0  0
 41 48  1  0  0  0
 42 43  1  0  0  0
 42 66  1  0  0  0
 42114  1  0  0  0
 42115  1  0  0  0
 43 44  1  0  0  0
 44116  1  0  0  0
 45 46  2  0  0  0
 45117  1  0  0  0
 46118  1  0  0  0
 47119  1  0  0  0
 47120  1  0  0  0
 48 56  1  0  0  0
 48 65  1  0  0  0
 48121  1  0  0  0
 49 50  1  0  0  0
 49 53  1  0  0  0
 49 64  1  0  0  0
 49122  1  0  0  0
 50 51  1  0  0  0
 50123  1  0  0  0
 50124  1  0  0  0
 51 52  1  0  0  0
 51125  1  0  0  0
 51126  1  0  0  0
 52127  1  0  0  0
 52128  1  0  0  0
 53 54  1  0  0  0
 54 55  2  0  0  0
 54129  1  0  0  0
 55 57  1  0  0  0
 55130  1  0  0  0
 56 69  2  0  0  0
 57 58  2  0  0  0
 57131  1  0  0  0
 58132  1  0  0  0
 59 60  1  0  0  0
 59 61  1  0  0  0
 59 62  1  0  0  0
 60133  1  0  0  0
 60134  1  0  0  0
 60135  1  0  0  0
 61136  1  0  0  0
 61137  1  0  0  0
 61138  1  0  0  0
 62139  1  0  0  0
 62140  1  0  0  0
 62141  1  0  0  0
 63 65  1  0  0  0
 63142  1  0  0  0
 63143  1  0  0  0
 63144  1  0  0  0
 64145  1  0  0  0
 65146  1  0  0  0
 68 81  1  0  0  0
 71 72  2  0  0  0
 71 76  1  0  0  0
 71147  1  0  0  0
 72 73  1  0  0  0
 72 84  1  0  0  0
 73 74  2  0  0  0
 73 82  1  0  0  0
 74 75  1  0  0  0
 74 83  1  0  0  0
 75 76  2  0  0  0
 75 85  1  0  0  0
 76 87  1  0  0  0
 77 78  2  0  0  0
 77 79  1  0  0  0
 77 86  1  0  0  0
 78148  1  0  0  0
 78149  1  0  0  0
 79 81  1  0  0  0
 79150  1  0  0  0
 79151  1  0  0  0
 80 81  1  0  0  0
 80 86  1  0  0  0
 80152  1  0  0  0
 80153  1  0  0  0
 81154  1  0  0  0
 82155  1  0  0  0
 82156  1  0  0  0
 82157  1  0  0  0
 83158  1  0  0  0
 83159  1  0  0  0
 83160  1  0  0  0
 84161  1  0  0  0
 84162  1  0  0  0
 84 86  1  0  0  0
 85163  1  0  0  0
 86164  1  0  0  0
M  CHG  1  86   1
M  ISO  4   1 100  68 101  81 101  85 100
M  END
> <chiral flag>
0

> <version>
0

> <s_m_source_file>
/data/baiqing/PycharmProjects/Reinvent-master-3.2/result/LINK_invent/BTK/process_docking_weight1_custom_product_contain_oxygen_bond_distance_aromatic_linkinvent_7_9_3/rearranged_h_0033.sdf

> <i_m_source_file_index>
36

> <r_mmod_Potential_Energy-OPLS-2005>
-10.7278804779053

> <r_mmod_Stretch_Energy-OPLS-2005>
90.2204971313477

> <r_mmod_Bend_Energy-OPLS-2005>
182.115600585938

> <r_mmod_Torsional_Energy-OPLS-2005>
262.602813720703

> <r_mmod_Improper_Torsional_Energy-OPLS-2005>
5.59313535690308

> <r_mmod_Van_der_Waal_Energy-OPLS-2005>
137.514404296875

> <r_mmod_Electrostatic_Energy-OPLS-2005>
-302.905578613281

> <r_mmod_Solvation_Energy-OPLS-2005>
-440.559265136719

> <b_mmod_Minimization_Converged-OPLS-2005>
0

> <r_mmod_RMS_Derivative-OPLS-2005>
1.42676436901093

$$$$
36
                    3D
 Structure written by MMmdl.
174183  0  0  1  0            999 V2000
  -30.6433  -14.8186   20.2833 C   0  0  0  0  0  0
  -30.4293  -12.4985   19.4200 C   0  0  0  0  0  0
  -29.4843  -12.4325   18.2064 C   0  0  0  0  0  0
  -28.0320  -12.2066   18.6709 C   0  0  0  0  0  0
  -27.6258  -13.1584   19.8214 C   0  0  2  0  0  0
  -28.6984  -13.2747   20.9220 C   0  0  0  0  0  0
  -25.2574  -13.7965   20.5797 C   0  0  0  0  0  0
  -24.1776  -13.0330   20.9237 C   0  0  0  0  0  0
  -24.6301  -11.6796   20.8827 C   0  0  0  0  0  0
  -23.8960  -10.4223   21.0456 C   0  0  0  0  0  0
  -24.3554   -9.4156   21.9220 C   0  0  0  0  0  0
  -23.6257   -8.2182   22.0746 C   0  0  0  0  0  0
  -22.4241   -8.0237   21.3529 C   0  0  0  0  0  0
  -21.9862   -9.0192   20.4629 C   0  0  0  0  0  0
  -22.7158  -10.2082   20.3069 C   0  0  0  0  0  0
  -21.6827   -6.0733   22.5294 C   0  0  0  0  0  0
  -21.3987   -6.5639   23.8221 C   0  0  0  0  0  0
  -21.3658   -5.6786   24.9180 C   0  0  0  0  0  0
  -21.6048   -4.3047   24.7220 C   0  0  0  0  0  0
  -21.8827   -3.8147   23.4331 C   0  0  0  0  0  0
  -21.9180   -4.6972   22.3407 C   0  0  0  0  0  0
  -22.7821  -13.5191   21.1893 C   0  0  0  0  0  0
  -22.1659   -4.2166   21.0985 F   0  0  0  0  0  0
  -21.5637   -3.4536   25.7728 F   0  0  0  0  0  0
  -29.9531  -13.6252   20.2444 N   0  0  0  0  0  0
  -26.2901  -12.9027   20.3348 N   0  0  0  0  0  0
  -25.9204  -11.6264   20.5863 N   0  0  0  0  0  0
  -22.0434  -12.8190   22.0441 N   0  0  0  0  0  0
  -25.4342  -15.1654   20.4338 N   0  0  0  0  0  0
  -31.8625  -14.7581   20.4687 O   0  0  0  0  0  0
  -21.6599   -6.8852   21.4239 O   0  0  0  0  0  0
  -22.3568  -14.5537   20.6759 O   0  0  0  0  0  0
  -24.6274  -31.8540   23.2000 C   0  0  0  0  0  0
  -25.9096  -32.4736   23.8332 C   0  0  1  0  0  0
  -27.2095  -27.2805   20.1231 C   0  0  0  0  0  0
  -25.5930  -33.8562   24.2232 N   0  0  0  0  0  0
  -23.4226  -30.4774   21.5427 C   0  0  2  0  0  0
  -24.8664  -28.9258   20.1074 C   0  0  0  0  0  0
  -22.7472  -29.4587   22.4929 C   0  0  0  0  0  0
  -18.0291  -28.1387   22.8494 C   0  0  0  0  0  0
  -24.1504  -36.7271   23.2649 C   0  0  0  0  0  0
  -25.9670  -30.7698   21.3783 C   0  0  0  0  0  0
  -26.0347  -29.3957   20.7204 C   0  0  0  0  0  0
  -27.2080  -28.5823   20.7206 C   0  0  0  0  0  0
  -26.0340  -26.8868   19.4510 C   0  0  0  0  0  0
  -24.8681  -27.6757   19.4683 C   0  0  0  0  0  0
  -23.6350  -29.8076   20.1596 C   0  0  0  0  0  0
  -25.4113  -36.3049   24.0326 C   0  0  1  0  0  0
  -20.5888  -28.3654   23.1294 C   0  0  2  0  0  0
  -20.6769  -26.9371   22.5431 C   0  0  0  0  0  0
  -19.5744  -26.6342   21.5248 C   0  0  0  0  0  0
  -18.1928  -26.7951   22.1633 C   0  0  0  0  0  0
  -19.1542  -28.8837   23.2904 C   0  0  0  0  0  0
  -18.9468  -30.1463   23.8873 C   0  0  0  0  0  0
  -17.6460  -30.6586   24.0562 C   0  0  0  0  0  0
  -25.9053  -34.9430   23.5063 C   0  0  0  0  0  0
  -16.5351  -29.9063   23.6363 C   0  0  0  0  0  0
  -16.7277  -28.6497   23.0362 C   0  0  0  0  0  0
  -26.4492  -31.6580   25.0723 C   0  0  0  0  0  0
  -25.3710  -31.3755   26.1432 C   0  0  0  0  0  0
  -27.0354  -30.3005   24.6229 C   0  0  0  0  0  0
  -27.6044  -32.4339   25.7471 C   0  0  0  0  0  0
  -27.5584  -37.1766   24.8460 C   0  0  0  0  0  0
  -21.4186  -29.3027   22.3691 N   0  0  0  0  0  0
  -26.4283  -37.3745   23.9429 N   0  0  0  0  0  0
  -24.6908  -31.0516   22.0961 N   0  0  0  0  0  0
  -23.4186  -28.8132   23.3002 O   0  0  0  0  0  0
  -28.3156  -26.4108   20.1583 O   0  0  0  0  0  0
  -26.5625  -34.8898   22.4632 O   0  0  0  0  0  0
  -23.5411  -32.1361   23.7301 O   0  0  0  0  0  0
  -27.0736  -17.9240   19.2119 C   0  0  0  0  0  0
  -27.9938  -16.8790   19.3232 C   0  0  0  0  0  0
  -27.4612  -19.2655   19.3249 C   0  0  0  0  0  0
  -28.8153  -19.6064   19.6227 C   0  0  0  0  0  0
  -29.7326  -18.4734   19.8328 C   0  0  0  0  0  0
  -29.3373  -17.0666   19.6811 C   0  0  0  0  0  0
  -28.7657  -23.8429   19.5789 C   0  0  0  0  0  0
  -29.1777  -24.2000   18.3423 C   0  0  0  0  0  0
  -30.8128  -16.8372   17.2321 C   0  0  0  0  0  0
  -30.9409  -15.9300   18.2230 C   0  0  0  0  0  0
  -26.6331  -23.0213   21.1909 C   0  0  0  0  0  0
  -26.9681  -24.5091   21.3811 C   0  0  0  0  0  0
  -27.8845  -22.1251   21.2981 C   0  0  0  0  0  0
  -28.2122  -24.9586   20.5642 C   0  0  2  0  0  0
  -26.3736  -20.2714   18.9685 C   0  0  0  0  0  0
  -31.1967  -18.7689   20.0981 C   0  0  0  0  0  0
  -31.6304  -16.8188   15.9591 C   0  0  0  0  0  0
  -29.2577  -21.1347   19.3722 C   0  0  0  0  0  0
  -30.2179  -15.8718   19.4465 N   0  0  0  0  0  0
  -28.8708  -22.3788   20.2123 N   0  3  1  0  0  0
  -29.9642  -23.2346   17.1432 Cl  0  0  0  0  0  0
  -31.4545  -12.6470   19.0775 H   0  0  0  0  0  0
  -30.4253  -11.5653   19.9861 H   0  0  0  0  0  0
  -29.7904  -11.6297   17.5344 H   0  0  0  0  0  0
  -29.5435  -13.3586   17.6326 H   0  0  0  0  0  0
  -27.9536  -11.1715   19.0072 H   0  0  0  0  0  0
  -27.3401  -12.3001   17.8321 H   0  0  0  0  0  0
  -27.5576  -14.0955   19.3168 H   0  0  0  0  0  0
  -28.7995  -12.3415   21.4780 H   0  0  0  0  0  0
  -28.4213  -14.0477   21.6409 H   0  0  0  0  0  0
  -25.2693   -9.5639   22.4800 H   0  0  0  0  0  0
  -23.9990   -7.4553   22.7437 H   0  0  0  0  0  0
  -21.0799   -8.8656   19.8914 H   0  0  0  0  0  0
  -22.3603  -10.9624   19.6178 H   0  0  0  0  0  0
  -21.1971   -7.6150   23.9723 H   0  0  0  0  0  0
  -21.1480   -6.0520   25.9081 H   0  0  0  0  0  0
  -22.0614   -2.7617   23.2818 H   0  0  0  0  0  0
  -22.4014  -11.9827   22.4818 H   0  0  0  0  0  0
  -21.1050  -13.1229   22.2654 H   0  0  0  0  0  0
  -24.6758  -15.8198   20.5908 H   0  0  0  0  0  0
  -26.3171  -15.6200   20.2440 H   0  0  0  0  0  0
  -26.7151  -32.5343   23.1053 H   0  0  0  0  0  0
  -25.0133  -33.9743   25.0419 H   0  0  0  0  0  0
  -22.7182  -31.2999   21.3969 H   0  0  0  0  0  0
  -23.3793  -35.9587   23.3270 H   0  0  0  0  0  0
  -24.3616  -36.8938   22.2080 H   0  0  0  0  0  0
  -23.7239  -37.6450   23.6692 H   0  0  0  0  0  0
  -26.1129  -31.5278   20.6071 H   0  0  0  0  0  0
  -26.8450  -30.8092   22.0123 H   0  0  0  0  0  0
  -28.0967  -28.9356   21.2265 H   0  0  0  0  0  0
  -25.9995  -25.9352   18.9409 H   0  0  0  0  0  0
  -23.9706  -27.3091   18.9884 H   0  0  0  0  0  0
  -23.7478  -30.5802   19.4002 H   0  0  0  0  0  0
  -22.7541  -29.2344   19.8617 H   0  0  0  0  0  0
  -25.1309  -36.1879   25.0823 H   0  0  0  0  0  0
  -21.0022  -28.3240   24.1396 H   0  0  0  0  0  0
  -20.5740  -26.2259   23.3647 H   0  0  0  0  0  0
  -21.6621  -26.7433   22.1158 H   0  0  0  0  0  0
  -19.6921  -25.6259   21.1259 H   0  0  0  0  0  0
  -19.6701  -27.3171   20.6804 H   0  0  0  0  0  0
  -17.4214  -26.6752   21.4008 H   0  0  0  0  0  0
  -18.0270  -26.0103   22.9014 H   0  0  0  0  0  0
  -19.7941  -30.7319   24.2205 H   0  0  0  0  0  0
  -17.4993  -31.6278   24.5143 H   0  0  0  0  0  0
  -15.5350  -30.2929   23.7718 H   0  0  0  0  0  0
  -15.8691  -28.0798   22.7063 H   0  0  0  0  0  0
  -24.5886  -30.7105   25.7764 H   0  0  0  0  0  0
  -24.8906  -32.2936   26.4814 H   0  0  0  0  0  0
  -25.7985  -30.8945   27.0236 H   0  0  0  0  0  0
  -26.2938  -29.6737   24.1258 H   0  0  0  0  0  0
  -27.4082  -29.7278   25.4744 H   0  0  0  0  0  0
  -27.8792  -30.4349   23.9463 H   0  0  0  0  0  0
  -27.2670  -33.3680   26.1975 H   0  0  0  0  0  0
  -28.3856  -32.6831   25.0278 H   0  0  0  0  0  0
  -28.0699  -31.8518   26.5434 H   0  0  0  0  0  0
  -28.2542  -38.0129   24.7531 H   0  0  0  0  0  0
  -28.1131  -36.2629   24.6207 H   0  0  0  0  0  0
  -27.2305  -37.1320   25.8872 H   0  0  0  0  0  0
  -20.9354  -29.8722   21.6890 H   0  0  0  0  0  0
  -26.0151  -38.2823   24.1439 H   0  0  0  0  0  0
  -26.0709  -17.6797   18.8947 H   0  0  0  0  0  0
  -27.6507  -15.9429   18.9570 H   0  0  0  0  0  0
  -29.0538  -25.2296   18.0383 H   0  0  0  0  0  0
  -30.0984  -17.6443   17.2932 H   0  0  0  0  0  0
  -31.6652  -15.1334   18.0938 H   0  0  0  0  0  0
  -26.1493  -22.8936   20.2204 H   0  0  0  0  0  0
  -25.8900  -22.7126   21.9282 H   0  0  0  0  0  0
  -27.1541  -24.7080   22.4380 H   0  0  0  0  0  0
  -26.0665  -25.0683   21.1481 H   0  0  0  0  0  0
  -27.6005  -21.0768   21.3757 H   0  0  0  0  0  0
  -28.3912  -22.3446   22.2377 H   0  0  0  0  0  0
  -29.0001  -24.9415   21.3203 H   0  0  0  0  0  0
  -25.9037  -19.9890   18.0241 H   0  0  0  0  0  0
  -26.7148  -21.2915   18.8417 H   0  0  0  0  0  0
  -25.5926  -20.2742   19.7307 H   0  0  0  0  0  0
  -31.3118  -19.6033   20.7896 H   0  0  0  0  0  0
  -31.7210  -18.9960   19.1690 H   0  0  0  0  0  0
  -31.6781  -17.9062   20.5553 H   0  0  0  0  0  0
  -32.3635  -16.0110   15.9648 H   0  0  0  0  0  0
  -32.1656  -17.7611   15.8272 H   0  0  0  0  0  0
  -30.9743  -16.6830   15.0985 H   0  0  0  0  0  0
  -28.8589  -21.3070   18.3756 H   0  0  0  0  0  0
  -30.3374  -21.1690   19.2246 H   0  0  0  0  0  0
  -29.7109  -22.4297   20.7701 H   0  0  0  0  0  0
  1 25  1  0  0  0
  1 30  2  0  0  0
  1 89  1  0  0  0
  2  3  1  0  0  0
  2 25  1  0  0  0
  2 92  1  0  0  0
  2 93  1  0  0  0
  3  4  1  0  0  0
  3 94  1  0  0  0
  3 95  1  0  0  0
  4  5  1  0  0  0
  4 96  1  0  0  0
  4 97  1  0  0  0
  5  6  1  0  0  0
  5 26  1  0  0  0
  5 98  1  0  0  0
  6 25  1  0  0  0
  6 99  1  0  0  0
  6100  1  0  0  0
  7  8  2  0  0  0
  7 26  1  0  0  0
  7 29  1  0  0  0
  8  9  1  0  0  0
  8 22  1  0  0  0
  9 10  1  0  0  0
  9 27  2  0  0  0
 10 11  2  0  0  0
 10 15  1  0  0  0
 11 12  1  0  0  0
 11101  1  0  0  0
 12 13  2  0  0  0
 12102  1  0  0  0
 13 14  1  0  0  0
 13 31  1  0  0  0
 14 15  2  0  0  0
 14103  1  0  0  0
 15104  1  0  0  0
 16 17  2  0  0  0
 16 21  1  0  0  0
 16 31  1  0  0  0
 17 18  1  0  0  0
 17105  1  0  0  0
 18 19  2  0  0  0
 18106  1  0  0  0
 19 20  1  0  0  0
 19 24  1  0  0  0
 20 21  2  0  0  0
 20107  1  0  0  0
 21 23  1  0  0  0
 22 28  1  0  0  0
 22 32  2  0  0  0
 26 27  1  0  0  0
 28108  1  0  0  0
 28109  1  0  0  0
 29110  1  0  0  0
 29111  1  0  0  0
 33 34  1  0  0  0
 33 66  1  0  0  0
 33 70  2  0  0  0
 34 36  1  0  0  0
 34 59  1  0  0  0
 34112  1  0  0  0
 35 44  2  0  0  0
 35 45  1  0  0  0
 35 68  1  0  0  0
 36 56  1  0  0  0
 36113  1  0  0  0
 37 39  1  0  0  0
 37 47  1  0  0  0
 37 66  1  0  0  0
 37114  1  0  0  0
 38 43  2  0  0  0
 38 46  1  0  0  0
 38 47  1  0  0  0
 39 64  1  0  0  0
 39 67  2  0  0  0
 40 52  1  0  0  0
 40 53  2  0  0  0
 40 58  1  0  0  0
 41115  1  0  0  0
 41116  1  0  0  0
 41117  1  0  0  0
 41 48  1  0  0  0
 42 43  1  0  0  0
 42 66  1  0  0  0
 42118  1  0  0  0
 42119  1  0  0  0
 43 44  1  0  0  0
 44120  1  0  0  0
 45 46  2  0  0  0
 45121  1  0  0  0
 46122  1  0  0  0
 47123  1  0  0  0
 47124  1  0  0  0
 48 56  1  0  0  0
 48 65  1  0  0  0
 48125  1  0  0  0
 49 50  1  0  0  0
 49 53  1  0  0  0
 49 64  1  0  0  0
 49126  1  0  0  0
 50 51  1  0  0  0
 50127  1  0  0  0
 50128  1  0  0  0
 51 52  1  0  0  0
 51129  1  0  0  0
 51130  1  0  0  0
 52131  1  0  0  0
 52132  1  0  0  0
 53 54  1  0  0  0
 54 55  2  0  0  0
 54133  1  0  0  0
 55 57  1  0  0  0
 55134  1  0  0  0
 56 69  2  0  0  0
 57 58  2  0  0  0
 57135  1  0  0  0
 58136  1  0  0  0
 59 60  1  0  0  0
 59 61  1  0  0  0
 59 62  1  0  0  0
 60137  1  0  0  0
 60138  1  0  0  0
 60139  1  0  0  0
 61140  1  0  0  0
 61141  1  0  0  0
 61142  1  0  0  0
 62143  1  0  0  0
 62144  1  0  0  0
 62145  1  0  0  0
 63 65  1  0  0  0
 63146  1  0  0  0
 63147  1  0  0  0
 63148  1  0  0  0
 64149  1  0  0  0
 65150  1  0  0  0
 68 84  1  0  0  0
 71 72  2  0  0  0
 71 73  1  0  0  0
 71151  1  0  0  0
 72 76  1  0  0  0
 72152  1  0  0  0
 73 74  2  0  0  0
 73 85  1  0  0  0
 74 75  1  0  0  0
 74 88  1  0  0  0
 75 76  2  0  0  0
 75 86  1  0  0  0
 76 89  1  0  0  0
 77 78  2  0  0  0
 77 84  1  0  0  0
 77 90  1  0  0  0
 78 91  1  0  0  0
 78153  1  0  0  0
 79 80  2  0  0  0
 79 87  1  0  0  0
 79154  1  0  0  0
 80 89  1  0  0  0
 80155  1  0  0  0
 81 82  1  0  0  0
 81 83  1  0  0  0
 81156  1  0  0  0
 81157  1  0  0  0
 82 84  1  0  0  0
 82158  1  0  0  0
 82159  1  0  0  0
 83 90  1  0  0  0
 83160  1  0  0  0
 83161  1  0  0  0
 84162  1  0  0  0
 85163  1  0  0  0
 85164  1  0  0  0
 85165  1  0  0  0
 86166  1  0  0  0
 86167  1  0  0  0
 86168  1  0  0  0
 87169  1  0  0  0
 87170  1  0  0  0
 87171  1  0  0  0
 88172  1  0  0  0
 88173  1  0  0  0
 88 90  1  0  0  0
 90174  1  0  0  0
M  CHG  1  90   1
M  ISO  4   1 100  68 101  84 101  89 100
M  END
> <chiral flag>
0

> <version>
0

> <s_m_source_file>
/data/baiqing/PycharmProjects/Reinvent-master-3.2/result/LINK_invent/BTK/process_docking_weight1_custom_product_contain_oxygen_bond_distance_aromatic_linkinvent_7_9_3/rearranged_h_0033.sdf

> <i_m_source_file_index>
37

> <r_mmod_Potential_Energy-OPLS-2005>
474.855621337891

> <r_mmod_Stretch_Energy-OPLS-2005>
155.750930786133

> <r_mmod_Bend_Energy-OPLS-2005>
264.171264648438

> <r_mmod_Torsional_Energy-OPLS-2005>
397.134490966797

> <r_mmod_Improper_Torsional_Energy-OPLS-2005>
36.7271308898926

> <r_mmod_Van_der_Waal_Energy-OPLS-2005>
165.536926269531

> <r_mmod_Electrostatic_Energy-OPLS-2005>
-268.176116943359

> <r_mmod_Solvation_Energy-OPLS-2005>
-412.144683837891

> <b_mmod_Minimization_Converged-OPLS-2005>
0

> <r_mmod_RMS_Derivative-OPLS-2005>
4.87748432159424

$$$$
37
                    3D
 Structure written by MMmdl.
151159  0  0  1  0            999 V2000
  -30.5086  -14.9950   20.4403 C   0  0  0  0  0  0
  -30.4478  -12.6136   19.5287 C   0  0  0  0  0  0
  -29.5328  -12.5444   18.2800 C   0  0  0  0  0  0
  -28.0638  -12.3247   18.6838 C   0  0  0  0  0  0
  -27.6364  -13.2498   19.8517 C   0  0  2  0  0  0
  -28.6705  -13.2715   20.9995 C   0  0  0  0  0  0
  -25.2497  -13.8194   20.5680 C   0  0  0  0  0  0
  -24.1815  -13.0439   20.9183 C   0  0  0  0  0  0
  -24.6431  -11.6908   20.8741 C   0  0  0  0  0  0
  -23.9116  -10.4286   21.0407 C   0  0  0  0  0  0
  -24.3653   -9.4188   21.9177 C   0  0  0  0  0  0
  -23.6309   -8.2236   22.0752 C   0  0  0  0  0  0
  -22.4286   -8.0289   21.3541 C   0  0  0  0  0  0
  -21.9932   -9.0277   20.4651 C   0  0  0  0  0  0
  -22.7293  -10.2136   20.3061 C   0  0  0  0  0  0
  -21.6861   -6.0747   22.5267 C   0  0  0  0  0  0
  -21.4031   -6.5643   23.8206 C   0  0  0  0  0  0
  -21.3648   -5.6785   24.9156 C   0  0  0  0  0  0
  -21.6037   -4.3052   24.7199 C   0  0  0  0  0  0
  -21.8825   -3.8156   23.4319 C   0  0  0  0  0  0
  -21.9201   -4.6979   22.3382 C   0  0  0  0  0  0
  -22.7837  -13.5208   21.1809 C   0  0  0  0  0  0
  -22.1669   -4.2174   21.0957 F   0  0  0  0  0  0
  -21.5615   -3.4527   25.7706 F   0  0  0  0  0  0
  -29.9517  -13.7076   20.4267 N   0  0  0  0  0  0
  -26.2931  -12.9443   20.3260 N   0  0  0  0  0  0
  -25.9369  -11.6571   20.5742 N   0  0  0  0  0  0
  -22.0490  -12.8239   22.0383 N   0  0  0  0  0  0
  -25.4198  -15.1928   20.4075 N   0  0  0  0  0  0
  -31.6747  -15.0867   20.0416 O   0  0  0  0  0  0
  -21.6640   -6.8896   21.4235 O   0  0  0  0  0  0
  -22.3523  -14.5500   20.6612 O   0  0  0  0  0  0
  -24.6527  -31.8345   23.1847 C   0  0  0  0  0  0
  -25.9263  -32.4647   23.8252 C   0  0  1  0  0  0
  -27.1993  -27.0258   20.1623 C   0  0  0  0  0  0
  -25.5990  -33.8464   24.2150 N   0  0  0  0  0  0
  -23.4641  -30.4553   21.5270 C   0  0  2  0  0  0
  -24.9162  -28.8725   20.1085 C   0  0  0  0  0  0
  -22.7616  -29.4507   22.4759 C   0  0  0  0  0  0
  -18.0314  -28.1419   22.8440 C   0  0  0  0  0  0
  -24.1506  -36.7250   23.2631 C   0  0  0  0  0  0
  -26.0296  -30.6663   21.4109 C   0  0  0  0  0  0
  -26.0939  -29.2665   20.7584 C   0  0  0  0  0  0
  -27.2294  -28.3513   20.7904 C   0  0  0  0  0  0
  -26.0241  -26.8085   19.4043 C   0  0  0  0  0  0
  -24.8973  -27.6537   19.4213 C   0  0  0  0  0  0
  -23.7036  -29.7900   20.1461 C   0  0  0  0  0  0
  -25.4134  -36.2997   24.0299 C   0  0  1  0  0  0
  -20.5935  -28.3757   23.1184 C   0  0  2  0  0  0
  -20.6800  -26.9443   22.5371 C   0  0  0  0  0  0
  -19.5780  -26.6379   21.5185 C   0  0  0  0  0  0
  -18.1964  -26.7947   22.1602 C   0  0  0  0  0  0
  -19.1569  -28.8908   23.2805 C   0  0  0  0  0  0
  -18.9478  -30.1490   23.8850 C   0  0  0  0  0  0
  -17.6478  -30.6601   24.0557 C   0  0  0  0  0  0
  -25.9088  -34.9376   23.5027 C   0  0  0  0  0  0
  -16.5371  -29.9096   23.6333 C   0  0  0  0  0  0
  -16.7298  -28.6522   23.0340 C   0  0  0  0  0  0
  -26.4537  -31.6559   25.0739 C   0  0  0  0  0  0
  -25.3699  -31.3797   26.1418 C   0  0  0  0  0  0
  -27.0401  -30.2931   24.6425 C   0  0  0  0  0  0
  -27.6050  -32.4346   25.7535 C   0  0  0  0  0  0
  -27.5576  -37.1784   24.8459 C   0  0  0  0  0  0
  -21.4291  -29.3083   22.3548 N   0  0  0  0  0  0
  -26.4282  -37.3715   23.9399 N   0  0  0  0  0  0
  -24.7352  -31.0094   22.0950 N   0  0  0  0  0  0
  -23.4206  -28.8024   23.2932 O   0  0  0  0  0  0
  -28.1525  -25.9059   20.2475 O   0  0  0  0  0  0
  -26.5648  -34.8882   22.4592 O   0  0  0  0  0  0
  -23.5624  -32.1281   23.6984 O   0  0  0  0  0  0
  -28.7499  -20.3670   20.2438 C   0  0  0  0  0  0
  -30.8907  -19.5823   21.0175 C   0  0  0  0  0  0
  -29.0464  -21.8322   20.4401 C   0  0  0  0  0  0
  -29.6441  -19.1867   20.4964 C   0  0  0  0  0  0
  -30.3852  -22.0406   20.8517 C   0  0  0  0  0  0
  -31.2530  -20.9492   21.1639 C   0  0  0  0  0  0
  -28.0039  -23.0745   20.2704 C   0  0  0  0  0  0
  -27.6652  -24.4889   20.2209 C   0  0  0  0  0  0
  -30.9170  -23.4562   20.9773 C   0  0  0  0  0  0
  -29.4349  -17.5790   20.0533 C   0  0  0  0  0  0
  -29.7248  -16.1579   20.7441 N   0  0  0  0  0  0
  -32.5013  -21.2201   21.6151 F   0  0  0  0  0  0
  -31.4809  -12.7745   19.2167 H   0  0  0  0  0  0
  -30.4533  -11.6583   20.0551 H   0  0  0  0  0  0
  -29.8569  -11.7466   17.6099 H   0  0  0  0  0  0
  -29.6190  -13.4746   17.7175 H   0  0  0  0  0  0
  -27.9498  -11.2798   18.9762 H   0  0  0  0  0  0
  -27.4081  -12.4648   17.8237 H   0  0  0  0  0  0
  -27.6032  -14.2556   19.4300 H   0  0  0  0  0  0
  -28.7597  -12.2866   21.4600 H   0  0  0  0  0  0
  -28.3506  -13.9471   21.7941 H   0  0  0  0  0  0
  -25.2816   -9.5637   22.4739 H   0  0  0  0  0  0
  -24.0012   -7.4620   22.7472 H   0  0  0  0  0  0
  -21.0860   -8.8822   19.8961 H   0  0  0  0  0  0
  -22.3786  -10.9676   19.6155 H   0  0  0  0  0  0
  -21.2046   -7.6161   23.9718 H   0  0  0  0  0  0
  -21.1455   -6.0506   25.9052 H   0  0  0  0  0  0
  -22.0621   -2.7627   23.2792 H   0  0  0  0  0  0
  -22.4148  -11.9945   22.4833 H   0  0  0  0  0  0
  -21.1090  -13.1250   22.2537 H   0  0  0  0  0  0
  -24.6485  -15.8430   20.5066 H   0  0  0  0  0  0
  -26.2567  -15.6227   20.0348 H   0  0  0  0  0  0
  -26.7328  -32.5212   23.0964 H   0  0  0  0  0  0
  -25.0165  -33.9562   25.0323 H   0  0  0  0  0  0
  -22.7738  -31.2852   21.3657 H   0  0  0  0  0  0
  -23.3751  -35.9595   23.3265 H   0  0  0  0  0  0
  -24.3596  -36.8907   22.2047 H   0  0  0  0  0  0
  -23.7276  -37.6448   23.6696 H   0  0  0  0  0  0
  -26.1999  -31.4095   20.6320 H   0  0  0  0  0  0
  -26.8953  -30.7246   22.0585 H   0  0  0  0  0  0
  -28.1063  -28.6262   21.3585 H   0  0  0  0  0  0
  -25.9344  -25.9166   18.8032 H   0  0  0  0  0  0
  -24.0124  -27.3523   18.8771 H   0  0  0  0  0  0
  -23.8719  -30.5699   19.4024 H   0  0  0  0  0  0
  -22.8163  -29.2506   19.8093 H   0  0  0  0  0  0
  -25.1320  -36.1804   25.0788 H   0  0  0  0  0  0
  -21.0021  -28.3359   24.1314 H   0  0  0  0  0  0
  -20.5684  -26.2372   23.3594 H   0  0  0  0  0  0
  -21.6666  -26.7435   22.1178 H   0  0  0  0  0  0
  -19.6940  -25.6271   21.1268 H   0  0  0  0  0  0
  -19.6737  -27.3143   20.6676 H   0  0  0  0  0  0
  -17.4214  -26.6634   21.4032 H   0  0  0  0  0  0
  -18.0404  -26.0125   22.9043 H   0  0  0  0  0  0
  -19.7953  -30.7309   24.2205 H   0  0  0  0  0  0
  -17.5034  -31.6274   24.5170 H   0  0  0  0  0  0
  -15.5371  -30.2990   23.7694 H   0  0  0  0  0  0
  -15.8686  -28.0839   22.7077 H   0  0  0  0  0  0
  -24.5898  -30.7116   25.7754 H   0  0  0  0  0  0
  -24.8867  -32.2995   26.4736 H   0  0  0  0  0  0
  -25.7968  -30.9053   27.0264 H   0  0  0  0  0  0
  -26.3034  -29.6644   24.1419 H   0  0  0  0  0  0
  -27.3917  -29.7271   25.5058 H   0  0  0  0  0  0
  -27.8997  -30.4097   23.9826 H   0  0  0  0  0  0
  -27.2629  -33.3685   26.2004 H   0  0  0  0  0  0
  -28.3928  -32.6835   25.0418 H   0  0  0  0  0  0
  -28.0640  -31.8539   26.5541 H   0  0  0  0  0  0
  -28.2553  -38.0115   24.7494 H   0  0  0  0  0  0
  -28.1107  -36.2635   24.6295 H   0  0  0  0  0  0
  -27.2291  -37.1435   25.8860 H   0  0  0  0  0  0
  -20.9513  -29.8867   21.6780 H   0  0  0  0  0  0
  -26.0137  -38.2773   24.1421 H   0  0  0  0  0  0
  -27.7663  -20.1304   19.8586 H   0  0  0  0  0  0
  -31.6216  -18.8212   21.2529 H   0  0  0  0  0  0
  -27.0527  -22.5659   20.1727 H   0  0  0  0  0  0
  -26.5918  -24.5442   20.1469 H   0  0  0  0  0  0
  -30.4996  -24.1051   20.2068 H   0  0  0  0  0  0
  -31.9991  -23.4806   20.8499 H   0  0  0  0  0  0
  -30.6654  -23.8698   21.9531 H   0  0  0  0  0  0
  -29.8899  -17.4981   19.0664 H   0  0  0  0  0  0
  -28.3657  -17.5188   19.8503 H   0  0  0  0  0  0
  -28.9158  -15.8631   21.2690 H   0  0  0  0  0  0
  1 25  1  0  0  0
  1 30  2  0  0  0
  1 81  1  0  0  0
  2  3  1  0  0  0
  2 25  1  0  0  0
  2 83  1  0  0  0
  2 84  1  0  0  0
  3  4  1  0  0  0
  3 85  1  0  0  0
  3 86  1  0  0  0
  4  5  1  0  0  0
  4 87  1  0  0  0
  4 88  1  0  0  0
  5  6  1  0  0  0
  5 26  1  0  0  0
  5 89  1  0  0  0
  6 25  1  0  0  0
  6 90  1  0  0  0
  6 91  1  0  0  0
  7  8  2  0  0  0
  7 26  1  0  0  0
  7 29  1  0  0  0
  8  9  1  0  0  0
  8 22  1  0  0  0
  9 10  1  0  0  0
  9 27  2  0  0  0
 10 11  2  0  0  0
 10 15  1  0  0  0
 11 12  1  0  0  0
 11 92  1  0  0  0
 12 13  2  0  0  0
 12 93  1  0  0  0
 13 14  1  0  0  0
 13 31  1  0  0  0
 14 15  2  0  0  0
 14 94  1  0  0  0
 15 95  1  0  0  0
 16 17  2  0  0  0
 16 21  1  0  0  0
 16 31  1  0  0  0
 17 18  1  0  0  0
 17 96  1  0  0  0
 18 19  2  0  0  0
 18 97  1  0  0  0
 19 20  1  0  0  0
 19 24  1  0  0  0
 20 21  2  0  0  0
 20 98  1  0  0  0
 21 23  1  0  0  0
 22 28  1  0  0  0
 22 32  2  0  0  0
 26 27  1  0  0  0
 28 99  1  0  0  0
 28100  1  0  0  0
 29101  1  0  0  0
 29102  1  0  0  0
 33 34  1  0  0  0
 33 66  1  0  0  0
 33 70  2  0  0  0
 34 36  1  0  0  0
 34 59  1  0  0  0
 34103  1  0  0  0
 35 44  2  0  0  0
 35 45  1  0  0  0
 35 68  1  0  0  0
 36 56  1  0  0  0
 36104  1  0  0  0
 37 39  1  0  0  0
 37 47  1  0  0  0
 37 66  1  0  0  0
 37105  1  0  0  0
 38 43  2  0  0  0
 38 46  1  0  0  0
 38 47  1  0  0  0
 39 64  1  0  0  0
 39 67  2  0  0  0
 40 52  1  0  0  0
 40 53  2  0  0  0
 40 58  1  0  0  0
 41106  1  0  0  0
 41107  1  0  0  0
 41108  1  0  0  0
 41 48  1  0  0  0
 42 43  1  0  0  0
 42 66  1  0  0  0
 42109  1  0  0  0
 42110  1  0  0  0
 43 44  1  0  0  0
 44111  1  0  0  0
 45 46  2  0  0  0
 45112  1  0  0  0
 46113  1  0  0  0
 47114  1  0  0  0
 47115  1  0  0  0
 48 56  1  0  0  0
 48 65  1  0  0  0
 48116  1  0  0  0
 49 50  1  0  0  0
 49 53  1  0  0  0
 49 64  1  0  0  0
 49117  1  0  0  0
 50 51  1  0  0  0
 50118  1  0  0  0
 50119  1  0  0  0
 51 52  1  0  0  0
 51120  1  0  0  0
 51121  1  0  0  0
 52122  1  0  0  0
 52123  1  0  0  0
 53 54  1  0  0  0
 54 55  2  0  0  0
 54124  1  0  0  0
 55 57  1  0  0  0
 55125  1  0  0  0
 56 69  2  0  0  0
 57 58  2  0  0  0
 57126  1  0  0  0
 58127  1  0  0  0
 59 60  1  0  0  0
 59 61  1  0  0  0
 59 62  1  0  0  0
 60128  1  0  0  0
 60129  1  0  0  0
 60130  1  0  0  0
 61131  1  0  0  0
 61132  1  0  0  0
 61133  1  0  0  0
 62134  1  0  0  0
 62135  1  0  0  0
 62136  1  0  0  0
 63 65  1  0  0  0
 63137  1  0  0  0
 63138  1  0  0  0
 63139  1  0  0  0
 64140  1  0  0  0
 65141  1  0  0  0
 68 78  1  0  0  0
 71 73  2  0  0  0
 71 74  1  0  0  0
 71142  1  0  0  0
 72 74  2  0  0  0
 72 76  1  0  0  0
 72143  1  0  0  0
 73 75  1  0  0  0
 73 77  1  0  0  0
 74 80  1  0  0  0
 75 76  2  0  0  0
 75 79  1  0  0  0
 76 82  1  0  0  0
 77 78  2  0  0  0
 77144  1  0  0  0
 78145  1  0  0  0
 79146  1  0  0  0
 79147  1  0  0  0
 79148  1  0  0  0
 80 81  1  0  0  0
 80149  1  0  0  0
 80150  1  0  0  0
 81151  1  0  0  0
M  ISO  4   1 100  68 101  78 101  81 100
M  END
> <chiral flag>
0

> <version>
0

> <s_m_source_file>
/data/baiqing/PycharmProjects/Reinvent-master-3.2/result/LINK_invent/BTK/process_docking_weight1_custom_product_contain_oxygen_bond_distance_aromatic_linkinvent_7_9_3/rearranged_h_0033.sdf

> <i_m_source_file_index>
38

> <r_mmod_Potential_Energy-OPLS-2005>
790.996337890625

> <r_mmod_Stretch_Energy-OPLS-2005>
328.775543212891

> <r_mmod_Bend_Energy-OPLS-2005>
414.862701416016

> <r_mmod_Torsional_Energy-OPLS-2005>
235.16731262207

> <r_mmod_Improper_Torsional_Energy-OPLS-2005>
7.04230546951294

> <r_mmod_Van_der_Waal_Energy-OPLS-2005>
140.668685913086

> <r_mmod_Electrostatic_Energy-OPLS-2005>
-398.326446533203

> <r_mmod_Solvation_Energy-OPLS-2005>
-214.134750366211

> <b_mmod_Minimization_Converged-OPLS-2005>
0

> <r_mmod_RMS_Derivative-OPLS-2005>
3.48025631904602

$$$$
38
                    3D
 Structure written by MMmdl.
155164  0  0  1  0            999 V2000
  -30.6559  -14.6377   20.5029 C   0  0  0  0  0  0
  -30.4240  -12.3984   19.4458 C   0  0  0  0  0  0
  -29.4950  -12.4980   18.2167 C   0  0  0  0  0  0
  -28.0191  -12.3410   18.6348 C   0  0  0  0  0  0
  -27.6459  -13.2240   19.8560 C   0  0  2  0  0  0
  -28.6935  -13.1099   20.9847 C   0  0  0  0  0  0
  -25.2537  -13.8191   20.5710 C   0  0  0  0  0  0
  -24.1808  -13.0425   20.9208 C   0  0  0  0  0  0
  -24.6394  -11.6910   20.8769 C   0  0  0  0  0  0
  -23.9058  -10.4282   21.0426 C   0  0  0  0  0  0
  -24.3615   -9.4203   21.9188 C   0  0  0  0  0  0
  -23.6305   -8.2234   22.0748 C   0  0  0  0  0  0
  -22.4290   -8.0274   21.3538 C   0  0  0  0  0  0
  -21.9923   -9.0244   20.4634 C   0  0  0  0  0  0
  -22.7248  -10.2126   20.3060 C   0  0  0  0  0  0
  -21.6855   -6.0746   22.5284 C   0  0  0  0  0  0
  -21.4014   -6.5635   23.8215 C   0  0  0  0  0  0
  -21.3662   -5.6796   24.9178 C   0  0  0  0  0  0
  -21.6041   -4.3061   24.7229 C   0  0  0  0  0  0
  -21.8811   -3.8150   23.4347 C   0  0  0  0  0  0
  -21.9196   -4.6974   22.3417 C   0  0  0  0  0  0
  -22.7842  -13.5225   21.1868 C   0  0  0  0  0  0
  -22.1659   -4.2161   21.0999 F   0  0  0  0  0  0
  -21.5636   -3.4546   25.7738 F   0  0  0  0  0  0
  -30.0005  -13.4403   20.4025 N   0  0  0  0  0  0
  -26.2956  -12.9369   20.3335 N   0  0  0  0  0  0
  -25.9326  -11.6511   20.5771 N   0  0  0  0  0  0
  -22.0503  -12.8181   22.0432 N   0  0  0  0  0  0
  -25.4195  -15.1907   20.4110 N   0  0  0  0  0  0
  -31.8395  -14.7387   20.1697 O   0  0  0  0  0  0
  -21.6641   -6.8882   21.4238 O   0  0  0  0  0  0
  -22.3509  -14.5531   20.6759 O   0  0  0  0  0  0
  -24.6282  -31.8594   23.2044 C   0  0  0  0  0  0
  -25.9141  -32.4778   23.8358 C   0  0  1  0  0  0
  -27.2044  -27.2950   20.0905 C   0  0  0  0  0  0
  -25.5971  -33.8586   24.2284 N   0  0  0  0  0  0
  -23.4208  -30.4918   21.5458 C   0  0  2  0  0  0
  -24.8592  -28.9502   20.1108 C   0  0  0  0  0  0
  -22.7467  -29.4655   22.4882 C   0  0  0  0  0  0
  -18.0284  -28.1377   22.8501 C   0  0  0  0  0  0
  -24.1479  -36.7252   23.2656 C   0  0  0  0  0  0
  -25.9660  -30.7820   21.3785 C   0  0  0  0  0  0
  -26.0343  -29.4103   20.7145 C   0  0  0  0  0  0
  -27.2088  -28.5953   20.6961 C   0  0  0  0  0  0
  -25.9894  -26.8937   19.4811 C   0  0  0  0  0  0
  -24.8388  -27.6969   19.4922 C   0  0  0  0  0  0
  -23.6364  -29.8398   20.1580 C   0  0  0  0  0  0
  -25.4114  -36.3071   24.0324 C   0  0  1  0  0  0
  -20.5894  -28.3692   23.1258 C   0  0  2  0  0  0
  -20.6781  -26.9401   22.5400 C   0  0  0  0  0  0
  -19.5743  -26.6376   21.5210 C   0  0  0  0  0  0
  -18.1927  -26.7913   22.1634 C   0  0  0  0  0  0
  -19.1556  -28.8851   23.2871 C   0  0  0  0  0  0
  -18.9500  -30.1468   23.8877 C   0  0  0  0  0  0
  -17.6503  -30.6596   24.0586 C   0  0  0  0  0  0
  -25.9053  -34.9450   23.5083 C   0  0  0  0  0  0
  -16.5382  -29.9104   23.6357 C   0  0  0  0  0  0
  -16.7274  -28.6519   23.0349 C   0  0  0  0  0  0
  -26.4508  -31.6596   25.0743 C   0  0  0  0  0  0
  -25.3748  -31.3760   26.1485 C   0  0  0  0  0  0
  -27.0357  -30.3021   24.6208 C   0  0  0  0  0  0
  -27.6063  -32.4337   25.7506 C   0  0  0  0  0  0
  -27.5541  -37.1807   24.8490 C   0  0  0  0  0  0
  -21.4185  -29.3077   22.3648 N   0  0  0  0  0  0
  -26.4278  -37.3771   23.9410 N   0  0  0  0  0  0
  -24.6920  -31.0605   22.1002 N   0  0  0  0  0  0
  -23.4196  -28.8143   23.2910 O   0  0  0  0  0  0
  -28.3361  -26.4546   20.1299 O   0  0  0  0  0  0
  -26.5609  -34.8920   22.4636 O   0  0  0  0  0  0
  -23.5445  -32.1387   23.7345 O   0  0  0  0  0  0
  -30.1360  -18.9594   19.4109 C   0  0  0  0  0  0
  -29.8818  -20.3128   19.0333 C   0  0  0  0  0  0
  -29.0345  -20.7789   21.2320 C   0  0  0  0  0  0
  -29.8832  -18.4808   20.7234 C   0  0  0  0  0  0
  -29.3721  -21.2934   19.9465 C   0  0  0  0  0  0
  -29.2797  -19.4233   21.6157 C   0  0  0  0  0  0
  -29.7295  -23.3860   18.5372 C   0  0  0  0  0  0
  -29.4522  -24.8929   18.5476 C   0  0  0  0  0  0
  -28.5734  -23.7841   20.4714 C   0  0  0  0  0  0
  -28.3429  -25.0658   19.5750 C   0  0  1  0  0  0
  -30.4734  -17.0993   21.2140 C   0  0  0  0  0  0
  -29.2137  -22.7361   19.6127 N   0  0  0  0  0  0
  -29.9236  -15.7529   20.8237 N   0  0  0  0  0  0
  -30.3719  -22.8880   17.6075 O   0  0  0  0  0  0
  -28.8659  -18.9702   23.2356 Cl  0  0  0  0  0  0
  -31.4664  -12.5116   19.1402 H   0  0  0  0  0  0
  -30.3499  -11.4103   19.9042 H   0  0  0  0  0  0
  -29.7559  -11.7351   17.4814 H   0  0  0  0  0  0
  -29.6346  -13.4604   17.7230 H   0  0  0  0  0  0
  -27.8564  -11.2892   18.8739 H   0  0  0  0  0  0
  -27.3615  -12.5640   17.7935 H   0  0  0  0  0  0
  -27.6533  -14.2551   19.5016 H   0  0  0  0  0  0
  -28.7081  -12.1009   21.3982 H   0  0  0  0  0  0
  -28.4459  -13.7731   21.8157 H   0  0  0  0  0  0
  -25.2762   -9.5690   22.4764 H   0  0  0  0  0  0
  -24.0021   -7.4627   22.7463 H   0  0  0  0  0  0
  -21.0860   -8.8754   19.8939 H   0  0  0  0  0  0
  -22.3702  -10.9665   19.6171 H   0  0  0  0  0  0
  -21.1986   -7.6130   23.9722 H   0  0  0  0  0  0
  -21.1497   -6.0526   25.9087 H   0  0  0  0  0  0
  -22.0590   -2.7613   23.2852 H   0  0  0  0  0  0
  -22.4134  -11.9827   22.4781 H   0  0  0  0  0  0
  -21.1124  -13.1176   22.2680 H   0  0  0  0  0  0
  -24.6450  -15.8390   20.5111 H   0  0  0  0  0  0
  -26.2655  -15.6356   20.0754 H   0  0  0  0  0  0
  -26.7188  -32.5432   23.1080 H   0  0  0  0  0  0
  -25.0239  -33.9759   25.0506 H   0  0  0  0  0  0
  -22.7187  -31.3167   21.4043 H   0  0  0  0  0  0
  -23.3748  -35.9587   23.3393 H   0  0  0  0  0  0
  -24.3526  -36.8779   22.2050 H   0  0  0  0  0  0
  -23.7245  -37.6491   23.6601 H   0  0  0  0  0  0
  -26.1027  -31.5473   20.6125 H   0  0  0  0  0  0
  -26.8454  -30.8256   22.0095 H   0  0  0  0  0  0
  -28.1131  -28.9462   21.1731 H   0  0  0  0  0  0
  -25.8469  -25.9487   18.9890 H   0  0  0  0  0  0
  -23.9314  -27.3344   19.0301 H   0  0  0  0  0  0
  -23.7753  -30.6264   19.4136 H   0  0  0  0  0  0
  -22.7518  -29.2880   19.8358 H   0  0  0  0  0  0
  -25.1284  -36.1927   25.0810 H   0  0  0  0  0  0
  -21.0016  -28.3280   24.1360 H   0  0  0  0  0  0
  -20.5700  -26.2303   23.3604 H   0  0  0  0  0  0
  -21.6640  -26.7415   22.1182 H   0  0  0  0  0  0
  -19.6919  -25.6291   21.1236 H   0  0  0  0  0  0
  -19.6688  -27.3217   20.6759 H   0  0  0  0  0  0
  -17.4189  -26.6709   21.4024 H   0  0  0  0  0  0
  -18.0310  -26.0013   22.8995 H   0  0  0  0  0  0
  -19.7994  -30.7306   24.2201 H   0  0  0  0  0  0
  -17.5070  -31.6274   24.5202 H   0  0  0  0  0  0
  -15.5399  -30.3027   23.7667 H   0  0  0  0  0  0
  -15.8657  -28.0862   22.7031 H   0  0  0  0  0  0
  -24.5922  -30.7076   25.7866 H   0  0  0  0  0  0
  -24.8960  -32.2952   26.4902 H   0  0  0  0  0  0
  -25.8108  -30.8997   27.0276 H   0  0  0  0  0  0
  -26.2952  -29.6777   24.1224 H   0  0  0  0  0  0
  -27.4050  -29.7268   25.4718 H   0  0  0  0  0  0
  -27.8792  -30.4300   23.9414 H   0  0  0  0  0  0
  -27.2671  -33.3667   26.2007 H   0  0  0  0  0  0
  -28.3919  -32.6854   25.0362 H   0  0  0  0  0  0
  -28.0650  -31.8512   26.5500 H   0  0  0  0  0  0
  -28.2632  -38.0036   24.7438 H   0  0  0  0  0  0
  -28.0944  -36.2559   24.6419 H   0  0  0  0  0  0
  -27.2229  -37.1582   25.8894 H   0  0  0  0  0  0
  -20.9337  -29.8865   21.6938 H   0  0  0  0  0  0
  -26.0144  -38.2833   24.1446 H   0  0  0  0  0  0
  -30.5972  -18.3006   18.6856 H   0  0  0  0  0  0
  -30.1397  -20.5681   18.0135 H   0  0  0  0  0  0
  -28.6136  -21.4379   21.9799 H   0  0  0  0  0  0
  -29.1584  -25.2611   17.5641 H   0  0  0  0  0  0
  -30.3587  -25.4174   18.8561 H   0  0  0  0  0  0
  -27.6334  -23.4247   20.8885 H   0  0  0  0  0  0
  -29.2416  -24.0131   21.3031 H   0  0  0  0  0  0
  -27.4436  -24.8380   19.0187 H   0  0  0  0  0  0
  -30.4922  -17.1006   22.3036 H   0  0  0  0  0  0
  -31.5314  -17.1319   20.9471 H   0  0  0  0  0  0
  -28.9386  -15.6067   20.9865 H   0  0  0  0  0  0
  1 25  1  0  0  0
  1 30  2  0  0  0
  1 83  1  0  0  0
  2  3  1  0  0  0
  2 25  1  0  0  0
  2 86  1  0  0  0
  2 87  1  0  0  0
  3  4  1  0  0  0
  3 88  1  0  0  0
  3 89  1  0  0  0
  4  5  1  0  0  0
  4 90  1  0  0  0
  4 91  1  0  0  0
  5  6  1  0  0  0
  5 26  1  0  0  0
  5 92  1  0  0  0
  6 25  1  0  0  0
  6 93  1  0  0  0
  6 94  1  0  0  0
  7  8  2  0  0  0
  7 26  1  0  0  0
  7 29  1  0  0  0
  8  9  1  0  0  0
  8 22  1  0  0  0
  9 10  1  0  0  0
  9 27  2  0  0  0
 10 11  2  0  0  0
 10 15  1  0  0  0
 11 12  1  0  0  0
 11 95  1  0  0  0
 12 13  2  0  0  0
 12 96  1  0  0  0
 13 14  1  0  0  0
 13 31  1  0  0  0
 14 15  2  0  0  0
 14 97  1  0  0  0
 15 98  1  0  0  0
 16 17  2  0  0  0
 16 21  1  0  0  0
 16 31  1  0  0  0
 17 18  1  0  0  0
 17 99  1  0  0  0
 18 19  2  0  0  0
 18100  1  0  0  0
 19 20  1  0  0  0
 19 24  1  0  0  0
 20 21  2  0  0  0
 20101  1  0  0  0
 21 23  1  0  0  0
 22 28  1  0  0  0
 22 32  2  0  0  0
 26 27  1  0  0  0
 28102  1  0  0  0
 28103  1  0  0  0
 29104  1  0  0  0
 29105  1  0  0  0
 33 34  1  0  0  0
 33 66  1  0  0  0
 33 70  2  0  0  0
 34 36  1  0  0  0
 34 59  1  0  0  0
 34106  1  0  0  0
 35 44  2  0  0  0
 35 45  1  0  0  0
 35 68  1  0  0  0
 36 56  1  0  0  0
 36107  1  0  0  0
 37 39  1  0  0  0
 37 47  1  0  0  0
 37 66  1  0  0  0
 37108  1  0  0  0
 38 43  2  0  0  0
 38 46  1  0  0  0
 38 47  1  0  0  0
 39 64  1  0  0  0
 39 67  2  0  0  0
 40 52  1  0  0  0
 40 53  2  0  0  0
 40 58  1  0  0  0
 41109  1  0  0  0
 41110  1  0  0  0
 41111  1  0  0  0
 41 48  1  0  0  0
 42 43  1  0  0  0
 42 66  1  0  0  0
 42112  1  0  0  0
 42113  1  0  0  0
 43 44  1  0  0  0
 44114  1  0  0  0
 45 46  2  0  0  0
 45115  1  0  0  0
 46116  1  0  0  0
 47117  1  0  0  0
 47118  1  0  0  0
 48 56  1  0  0  0
 48 65  1  0  0  0
 48119  1  0  0  0
 49 50  1  0  0  0
 49 53  1  0  0  0
 49 64  1  0  0  0
 49120  1  0  0  0
 50 51  1  0  0  0
 50121  1  0  0  0
 50122  1  0  0  0
 51 52  1  0  0  0
 51123  1  0  0  0
 51124  1  0  0  0
 52125  1  0  0  0
 52126  1  0  0  0
 53 54  1  0  0  0
 54 55  2  0  0  0
 54127  1  0  0  0
 55 57  1  0  0  0
 55128  1  0  0  0
 56 69  2  0  0  0
 57 58  2  0  0  0
 57129  1  0  0  0
 58130  1  0  0  0
 59 60  1  0  0  0
 59 61  1  0  0  0
 59 62  1  0  0  0
 60131  1  0  0  0
 60132  1  0  0  0
 60133  1  0  0  0
 61134  1  0  0  0
 61135  1  0  0  0
 61136  1  0  0  0
 62137  1  0  0  0
 62138  1  0  0  0
 62139  1  0  0  0
 63 65  1  0  0  0
 63140  1  0  0  0
 63141  1  0  0  0
 63142  1  0  0  0
 64143  1  0  0  0
 65144  1  0  0  0
 68 80  1  0  0  0
 71 72  2  0  0  0
 71 74  1  0  0  0
 71145  1  0  0  0
 72 75  1  0  0  0
 72146  1  0  0  0
 73 75  2  0  0  0
 73 76  1  0  0  0
 73147  1  0  0  0
 74 76  2  0  0  0
 74 81  1  0  0  0
 75 82  1  0  0  0
 76 85  1  0  0  0
 77 78  1  0  0  0
 77 82  1  0  0  0
 77 84  2  0  0  0
 78 80  1  0  0  0
 78148  1  0  0  0
 78149  1  0  0  0
 79 80  1  0  0  0
 79 82  1  0  0  0
 79150  1  0  0  0
 79151  1  0  0  0
 80152  1  0  0  0
 81 83  1  0  0  0
 81153  1  0  0  0
 81154  1  0  0  0
 83155  1  0  0  0
M  ISO  4   1 100  68 101  80 101  83 100
M  END
> <chiral flag>
0

> <version>
0

> <s_m_source_file>
/data/baiqing/PycharmProjects/Reinvent-master-3.2/result/LINK_invent/BTK/process_docking_weight1_custom_product_contain_oxygen_bond_distance_aromatic_linkinvent_7_9_3/rearranged_h_0033.sdf

> <i_m_source_file_index>
39

> <r_mmod_Potential_Energy-OPLS-2005>
121.490531921387

> <r_mmod_Stretch_Energy-OPLS-2005>
91.2201919555664

> <r_mmod_Bend_Energy-OPLS-2005>
186.483627319336

> <r_mmod_Torsional_Energy-OPLS-2005>
248.005126953125

> <r_mmod_Improper_Torsional_Energy-OPLS-2005>
5.28175258636475

> <r_mmod_Van_der_Waal_Energy-OPLS-2005>
151.893676757812

> <r_mmod_Electrostatic_Energy-OPLS-2005>
-395.032409667969

> <r_mmod_Solvation_Energy-OPLS-2005>
-220.132537841797

> <b_mmod_Minimization_Converged-OPLS-2005>
0

> <r_mmod_RMS_Derivative-OPLS-2005>
3.89581251144409

$$$$
39
                    3D
 Structure written by MMmdl.
150158  0  0  1  0            999 V2000
  -30.3974  -15.3744   20.3698 C   0  0  0  0  0  0
  -30.4390  -12.8969   19.5100 C   0  0  0  0  0  0
  -29.5358  -12.5909   18.2876 C   0  0  0  0  0  0
  -28.0914  -12.2960   18.7268 C   0  0  0  0  0  0
  -27.6056  -13.2821   19.8162 C   0  0  2  0  0  0
  -28.6414  -13.5037   20.9382 C   0  0  0  0  0  0
  -25.2376  -13.8255   20.5771 C   0  0  0  0  0  0
  -24.1734  -13.0435   20.9269 C   0  0  0  0  0  0
  -24.6403  -11.6935   20.8772 C   0  0  0  0  0  0
  -23.9098  -10.4293   21.0407 C   0  0  0  0  0  0
  -24.3642   -9.4207   21.9183 C   0  0  0  0  0  0
  -23.6309   -8.2246   22.0756 C   0  0  0  0  0  0
  -22.4292   -8.0285   21.3542 C   0  0  0  0  0  0
  -21.9932   -9.0255   20.4640 C   0  0  0  0  0  0
  -22.7270  -10.2129   20.3051 C   0  0  0  0  0  0
  -21.6854   -6.0740   22.5274 C   0  0  0  0  0  0
  -21.4015   -6.5642   23.8205 C   0  0  0  0  0  0
  -21.3656   -5.6793   24.9166 C   0  0  0  0  0  0
  -21.6049   -4.3056   24.7215 C   0  0  0  0  0  0
  -21.8821   -3.8150   23.4335 C   0  0  0  0  0  0
  -21.9195   -4.6969   22.3396 C   0  0  0  0  0  0
  -22.7747  -13.5180   21.1909 C   0  0  0  0  0  0
  -22.1664   -4.2156   21.0972 F   0  0  0  0  0  0
  -21.5628   -3.4540   25.7728 F   0  0  0  0  0  0
  -29.8457  -14.0526   20.2874 N   0  0  0  0  0  0
  -26.2803  -12.9536   20.3231 N   0  0  0  0  0  0
  -25.9340  -11.6633   20.5724 N   0  0  0  0  0  0
  -22.0416  -12.8143   22.0457 N   0  0  0  0  0  0
  -25.4000  -15.1996   20.4228 N   0  0  0  0  0  0
  -31.6326  -15.3528   20.2535 O   0  0  0  0  0  0
  -21.6648   -6.8887   21.4238 O   0  0  0  0  0  0
  -22.3419  -14.5483   20.6752 O   0  0  0  0  0  0
  -24.6708  -31.8189   23.1668 C   0  0  0  0  0  0
  -25.9366  -32.4568   23.8146 C   0  0  1  0  0  0
  -27.2159  -26.8581   20.2080 C   0  0  0  0  0  0
  -25.6014  -33.8383   24.2053 N   0  0  0  0  0  0
  -23.4880  -30.4290   21.5175 C   0  0  2  0  0  0
  -24.9428  -28.8002   20.1238 C   0  0  0  0  0  0
  -22.7706  -29.4429   22.4775 C   0  0  0  0  0  0
  -18.0329  -28.1432   22.8480 C   0  0  0  0  0  0
  -24.1476  -36.7160   23.2642 C   0  0  0  0  0  0
  -26.0625  -30.6030   21.4089 C   0  0  0  0  0  0
  -26.1301  -29.1820   20.7633 C   0  0  0  0  0  0
  -27.2635  -28.2359   20.7767 C   0  0  0  0  0  0
  -25.9997  -26.6510   19.5166 C   0  0  0  0  0  0
  -24.9056  -27.5552   19.4792 C   0  0  0  0  0  0
  -23.7342  -29.7392   20.1485 C   0  0  0  0  0  0
  -25.4126  -36.2944   24.0295 C   0  0  1  0  0  0
  -20.5965  -28.3775   23.1192 C   0  0  2  0  0  0
  -20.6794  -26.9447   22.5411 C   0  0  0  0  0  0
  -19.5763  -26.6405   21.5228 C   0  0  0  0  0  0
  -18.1952  -26.7964   22.1639 C   0  0  0  0  0  0
  -19.1591  -28.8929   23.2819 C   0  0  0  0  0  0
  -18.9499  -30.1515   23.8861 C   0  0  0  0  0  0
  -17.6490  -30.6622   24.0569 C   0  0  0  0  0  0
  -25.9107  -34.9337   23.4993 C   0  0  0  0  0  0
  -16.5382  -29.9107   23.6360 C   0  0  0  0  0  0
  -16.7309  -28.6524   23.0386 C   0  0  0  0  0  0
  -26.4599  -31.6534   25.0694 C   0  0  0  0  0  0
  -25.3713  -31.3804   26.1339 C   0  0  0  0  0  0
  -27.0489  -30.2884   24.6460 C   0  0  0  0  0  0
  -27.6091  -32.4336   25.7508 C   0  0  0  0  0  0
  -27.5554  -37.1740   24.8472 C   0  0  0  0  0  0
  -21.4367  -29.3045   22.3514 N   0  0  0  0  0  0
  -26.4256  -37.3698   23.9426 N   0  0  0  0  0  0
  -24.7618  -30.9792   22.0843 N   0  0  0  0  0  0
  -23.4213  -28.8019   23.3062 O   0  0  0  0  0  0
  -28.1953  -25.7021   20.1774 O   0  0  0  0  0  0
  -26.5711  -34.8884   22.4583 O   0  0  0  0  0  0
  -23.5764  -32.1199   23.6732 O   0  0  0  0  0  0
  -29.1638  -21.3606   18.0851 C   0  0  0  0  0  0
  -28.8238  -22.5829   18.7358 C   0  0  0  0  0  0
  -29.3686  -20.1034   18.7276 C   0  0  0  0  0  0
  -28.6183  -22.7011   20.1283 C   0  0  0  0  0  0
  -29.2732  -19.9188   20.1232 C   0  0  0  0  0  0
  -28.8776  -21.2883   20.7726 C   0  0  0  0  0  0
  -28.0036  -24.2488   20.6889 C   0  0  0  0  0  0
  -28.7237  -21.2144   22.2803 C   0  0  0  0  0  0
  -29.7897  -18.3257   20.7502 C   0  0  0  0  0  0
  -27.2657  -24.1713   21.7106 N   0  0  0  0  0  0
  -29.6232  -16.6681   20.3885 N   0  0  0  0  0  0
  -31.4432  -13.1357   19.1573 H   0  0  0  0  0  0
  -30.5531  -12.0159   20.1439 H   0  0  0  0  0  0
  -29.9354  -11.7486   17.7207 H   0  0  0  0  0  0
  -29.5419  -13.4465   17.6113 H   0  0  0  0  0  0
  -28.0681  -11.2795   19.1210 H   0  0  0  0  0  0
  -27.4178  -12.3091   17.8691 H   0  0  0  0  0  0
  -27.5027  -14.2351   19.2968 H   0  0  0  0  0  0
  -28.8495  -12.5834   21.4856 H   0  0  0  0  0  0
  -28.2640  -14.2211   21.6683 H   0  0  0  0  0  0
  -25.2780   -9.5682   22.4761 H   0  0  0  0  0  0
  -24.0012   -7.4640   22.7479 H   0  0  0  0  0  0
  -21.0865   -8.8775   19.8941 H   0  0  0  0  0  0
  -22.3731  -10.9666   19.6162 H   0  0  0  0  0  0
  -21.2010   -7.6150   23.9707 H   0  0  0  0  0  0
  -21.1475   -6.0523   25.9066 H   0  0  0  0  0  0
  -22.0608   -2.7614   23.2827 H   0  0  0  0  0  0
  -22.4049  -11.9802   22.4822 H   0  0  0  0  0  0
  -21.1033  -13.1134   22.2690 H   0  0  0  0  0  0
  -24.6300  -15.8504   20.5399 H   0  0  0  0  0  0
  -26.2446  -15.6438   20.0891 H   0  0  0  0  0  0
  -26.7438  -32.5105   23.0853 H   0  0  0  0  0  0
  -25.0151  -33.9436   25.0201 H   0  0  0  0  0  0
  -22.8037  -31.2615   21.3412 H   0  0  0  0  0  0
  -23.3768  -35.9461   23.3298 H   0  0  0  0  0  0
  -24.3537  -36.8813   22.2054 H   0  0  0  0  0  0
  -23.7198  -37.6331   23.6704 H   0  0  0  0  0  0
  -26.2486  -31.3351   20.6222 H   0  0  0  0  0  0
  -26.9207  -30.6699   22.0652 H   0  0  0  0  0  0
  -28.1665  -28.5345   21.2903 H   0  0  0  0  0  0
  -25.8673  -25.7010   19.0184 H   0  0  0  0  0  0
  -24.0070  -27.2555   18.9570 H   0  0  0  0  0  0
  -23.8998  -30.5040   19.3894 H   0  0  0  0  0  0
  -22.8423  -29.1994   19.8268 H   0  0  0  0  0  0
  -25.1320  -36.1730   25.0785 H   0  0  0  0  0  0
  -21.0053  -28.3395   24.1317 H   0  0  0  0  0  0
  -20.5680  -26.2397   23.3657 H   0  0  0  0  0  0
  -21.6662  -26.7415   22.1218 H   0  0  0  0  0  0
  -19.6905  -25.6308   21.1283 H   0  0  0  0  0  0
  -19.6707  -27.3195   20.6740 H   0  0  0  0  0  0
  -17.4216  -26.6742   21.4031 H   0  0  0  0  0  0
  -18.0322  -26.0110   22.9037 H   0  0  0  0  0  0
  -19.7970  -30.7352   24.2216 H   0  0  0  0  0  0
  -17.5040  -31.6296   24.5174 H   0  0  0  0  0  0
  -15.5380  -30.3003   23.7706 H   0  0  0  0  0  0
  -15.8707  -28.0828   22.7144 H   0  0  0  0  0  0
  -24.5956  -30.7064   25.7686 H   0  0  0  0  0  0
  -24.8823  -32.3001   26.4555 H   0  0  0  0  0  0
  -25.7953  -30.9155   27.0246 H   0  0  0  0  0  0
  -26.3164  -29.6566   24.1412 H   0  0  0  0  0  0
  -27.3945  -29.7242   25.5136 H   0  0  0  0  0  0
  -27.9150  -30.4036   23.9932 H   0  0  0  0  0  0
  -27.2682  -33.3728   26.1874 H   0  0  0  0  0  0
  -28.4032  -32.6739   25.0424 H   0  0  0  0  0  0
  -28.0602  -31.8576   26.5595 H   0  0  0  0  0  0
  -28.2568  -38.0043   24.7545 H   0  0  0  0  0  0
  -28.1056  -36.2577   24.6281 H   0  0  0  0  0  0
  -27.2271  -37.1360   25.8873 H   0  0  0  0  0  0
  -20.9643  -29.8688   21.6589 H   0  0  0  0  0  0
  -26.0095  -38.2745   24.1483 H   0  0  0  0  0  0
  -29.2745  -21.3891   17.0103 H   0  0  0  0  0  0
  -28.6702  -23.4616   18.1236 H   0  0  0  0  0  0
  -29.6489  -19.2561   18.1172 H   0  0  0  0  0  0
  -27.7615  -20.7719   22.5416 H   0  0  0  0  0  0
  -28.7903  -22.1936   22.7513 H   0  0  0  0  0  0
  -29.5106  -20.5994   22.7164 H   0  0  0  0  0  0
  -29.4855  -18.3654   21.7963 H   0  0  0  0  0  0
  -30.8735  -18.4394   20.8009 H   0  0  0  0  0  0
  -27.1703  -23.2072   22.0078 H   0  0  0  0  0  0
  -28.6415  -16.4472   20.3068 H   0  0  0  0  0  0
  1 25  1  0  0  0
  1 30  2  0  0  0
  1 81  1  0  0  0
  2  3  1  0  0  0
  2 25  1  0  0  0
  2 82  1  0  0  0
  2 83  1  0  0  0
  3  4  1  0  0  0
  3 84  1  0  0  0
  3 85  1  0  0  0
  4  5  1  0  0  0
  4 86  1  0  0  0
  4 87  1  0  0  0
  5  6  1  0  0  0
  5 26  1  0  0  0
  5 88  1  0  0  0
  6 25  1  0  0  0
  6 89  1  0  0  0
  6 90  1  0  0  0
  7  8  2  0  0  0
  7 26  1  0  0  0
  7 29  1  0  0  0
  8  9  1  0  0  0
  8 22  1  0  0  0
  9 10  1  0  0  0
  9 27  2  0  0  0
 10 11  2  0  0  0
 10 15  1  0  0  0
 11 12  1  0  0  0
 11 91  1  0  0  0
 12 13  2  0  0  0
 12 92  1  0  0  0
 13 14  1  0  0  0
 13 31  1  0  0  0
 14 15  2  0  0  0
 14 93  1  0  0  0
 15 94  1  0  0  0
 16 17  2  0  0  0
 16 21  1  0  0  0
 16 31  1  0  0  0
 17 18  1  0  0  0
 17 95  1  0  0  0
 18 19  2  0  0  0
 18 96  1  0  0  0
 19 20  1  0  0  0
 19 24  1  0  0  0
 20 21  2  0  0  0
 20 97  1  0  0  0
 21 23  1  0  0  0
 22 28  1  0  0  0
 22 32  2  0  0  0
 26 27  1  0  0  0
 28 98  1  0  0  0
 28 99  1  0  0  0
 29100  1  0  0  0
 29101  1  0  0  0
 33 34  1  0  0  0
 33 66  1  0  0  0
 33 70  2  0  0  0
 34 36  1  0  0  0
 34 59  1  0  0  0
 34102  1  0  0  0
 35 44  2  0  0  0
 35 45  1  0  0  0
 35 68  1  0  0  0
 36 56  1  0  0  0
 36103  1  0  0  0
 37 39  1  0  0  0
 37 47  1  0  0  0
 37 66  1  0  0  0
 37104  1  0  0  0
 38 43  2  0  0  0
 38 46  1  0  0  0
 38 47  1  0  0  0
 39 64  1  0  0  0
 39 67  2  0  0  0
 40 52  1  0  0  0
 40 53  2  0  0  0
 40 58  1  0  0  0
 41105  1  0  0  0
 41106  1  0  0  0
 41107  1  0  0  0
 41 48  1  0  0  0
 42 43  1  0  0  0
 42 66  1  0  0  0
 42108  1  0  0  0
 42109  1  0  0  0
 43 44  1  0  0  0
 44110  1  0  0  0
 45 46  2  0  0  0
 45111  1  0  0  0
 46112  1  0  0  0
 47113  1  0  0  0
 47114  1  0  0  0
 48 56  1  0  0  0
 48 65  1  0  0  0
 48115  1  0  0  0
 49 50  1  0  0  0
 49 53  1  0  0  0
 49 64  1  0  0  0
 49116  1  0  0  0
 50 51  1  0  0  0
 50117  1  0  0  0
 50118  1  0  0  0
 51 52  1  0  0  0
 51119  1  0  0  0
 51120  1  0  0  0
 52121  1  0  0  0
 52122  1  0  0  0
 53 54  1  0  0  0
 54 55  2  0  0  0
 54123  1  0  0  0
 55 57  1  0  0  0
 55124  1  0  0  0
 56 69  2  0  0  0
 57 58  2  0  0  0
 57125  1  0  0  0
 58126  1  0  0  0
 59 60  1  0  0  0
 59 61  1  0  0  0
 59 62  1  0  0  0
 60127  1  0  0  0
 60128  1  0  0  0
 60129  1  0  0  0
 61130  1  0  0  0
 61131  1  0  0  0
 61132  1  0  0  0
 62133  1  0  0  0
 62134  1  0  0  0
 62135  1  0  0  0
 63 65  1  0  0  0
 63136  1  0  0  0
 63137  1  0  0  0
 63138  1  0  0  0
 64139  1  0  0  0
 65140  1  0  0  0
 68 77  1  0  0  0
 71 72  2  0  0  0
 71 73  1  0  0  0
 71141  1  0  0  0
 72 74  1  0  0  0
 72142  1  0  0  0
 73 75  2  0  0  0
 73143  1  0  0  0
 74 76  2  0  0  0
 74 77  1  0  0  0
 75 76  1  0  0  0
 75 79  1  0  0  0
 76 78  1  0  0  0
 77 80  2  0  0  0
 78144  1  0  0  0
 78145  1  0  0  0
 78146  1  0  0  0
 79 81  1  0  0  0
 79147  1  0  0  0
 79148  1  0  0  0
 80149  1  0  0  0
 81150  1  0  0  0
M  ISO  4   1 100  68 101  77 101  81 100
M  END
> <chiral flag>
0

> <version>
0

> <s_m_source_file>
/data/baiqing/PycharmProjects/Reinvent-master-3.2/result/LINK_invent/BTK/process_docking_weight1_custom_product_contain_oxygen_bond_distance_aromatic_linkinvent_7_9_3/rearranged_h_0033.sdf

> <i_m_source_file_index>
40

> <r_mmod_Potential_Energy-OPLS-2005>
1503.94982910156

> <r_mmod_Stretch_Energy-OPLS-2005>
685.85107421875

> <r_mmod_Bend_Energy-OPLS-2005>
463.353668212891

> <r_mmod_Torsional_Energy-OPLS-2005>
229.985534667969

> <r_mmod_Improper_Torsional_Energy-OPLS-2005>
5.81410074234009

> <r_mmod_Van_der_Waal_Energy-OPLS-2005>
122.145118713379

> <r_mmod_Electrostatic_Energy-OPLS-2005>
-355.860015869141

> <r_mmod_Solvation_Energy-OPLS-2005>
-224.712142944336

> <b_mmod_Minimization_Converged-OPLS-2005>
0

> <r_mmod_RMS_Derivative-OPLS-2005>
1.80955302715302

$$$$
40
                    3D
 Structure written by MMmdl.
164173  0  0  1  0            999 V2000
  -30.0347  -15.9440   20.5795 C   0  0  0  0  0  0
  -30.3748  -13.3364   19.6647 C   0  0  0  0  0  0
  -29.5784  -12.7891   18.4285 C   0  0  0  0  0  0
  -28.1731  -12.3192   18.8286 C   0  0  0  0  0  0
  -27.5754  -13.3227   19.8360 C   0  0  2  0  0  0
  -28.5289  -13.7211   20.9897 C   0  0  0  0  0  0
  -25.2165  -13.8253   20.5852 C   0  0  0  0  0  0
  -24.1587  -13.0385   20.9345 C   0  0  0  0  0  0
  -24.6312  -11.6906   20.8782 C   0  0  0  0  0  0
  -23.9041  -10.4273   21.0402 C   0  0  0  0  0  0
  -24.3602   -9.4205   21.9182 C   0  0  0  0  0  0
  -23.6282   -8.2240   22.0756 C   0  0  0  0  0  0
  -22.4257   -8.0274   21.3555 C   0  0  0  0  0  0
  -21.9896   -9.0230   20.4645 C   0  0  0  0  0  0
  -22.7218  -10.2107   20.3047 C   0  0  0  0  0  0
  -21.6838   -6.0735   22.5280 C   0  0  0  0  0  0
  -21.4012   -6.5646   23.8214 C   0  0  0  0  0  0
  -21.3656   -5.6801   24.9179 C   0  0  0  0  0  0
  -21.6039   -4.3061   24.7228 C   0  0  0  0  0  0
  -21.8817   -3.8151   23.4348 C   0  0  0  0  0  0
  -21.9199   -4.6969   22.3408 C   0  0  0  0  0  0
  -22.7618  -13.5147   21.1926 C   0  0  0  0  0  0
  -22.1668   -4.2161   21.0983 F   0  0  0  0  0  0
  -21.5627   -3.4542   25.7738 F   0  0  0  0  0  0
  -29.6327  -14.5074   20.3891 N   0  0  0  0  0  0
  -26.2591  -12.9591   20.3225 N   0  0  0  0  0  0
  -25.9250  -11.6643   20.5679 N   0  0  0  0  0  0
  -22.0260  -12.8162   22.0473 N   0  0  0  0  0  0
  -25.3804  -15.1998   20.4425 N   0  0  0  0  0  0
  -31.2812  -15.8911   20.4102 O   0  0  0  0  0  0
  -21.6628   -6.8864   21.4234 O   0  0  0  0  0  0
  -22.3350  -14.5449   20.6721 O   0  0  0  0  0  0
  -24.8457  -31.5553   23.4349 C   0  0  0  0  0  0
  -26.0092  -32.4072   23.9520 C   0  0  1  0  0  0
  -27.1915  -26.9254   19.6390 C   0  0  0  0  0  0
  -25.5908  -33.8040   24.2280 N   0  0  0  0  0  0
  -23.4844  -29.7747   21.9302 C   0  0  2  0  0  0
  -25.4368  -28.7015   19.0513 C   0  0  0  0  0  0
  -22.5440  -29.2264   22.8638 C   0  0  0  0  0  0
  -17.9360  -28.1249   22.8311 C   0  0  0  0  0  0
  -24.1511  -36.6957   23.2577 C   0  0  0  0  0  0
  -27.1602  -30.0578   22.1072 C   0  0  0  0  0  0
  -27.0253  -29.0243   20.0281 C   0  0  0  0  0  0
  -27.9367  -28.0834   19.8415 C   0  0  0  0  0  0
  -26.4520  -26.7292   18.4864 C   0  0  0  0  0  0
  -25.3857  -27.6028   18.2523 C   0  0  0  0  0  0
  -23.4468  -28.9190   19.8543 C   0  0  0  0  0  0
  -25.4100  -36.2681   24.0253 C   0  0  1  0  0  0
  -20.4381  -28.2518   23.2058 C   0  0  2  0  0  0
  -20.5503  -26.8449   22.5851 C   0  0  0  0  0  0
  -19.4939  -26.6078   21.5155 C   0  0  0  0  0  0
  -18.0998  -26.7848   22.1271 C   0  0  0  0  0  0
  -19.0556  -28.8392   23.3048 C   0  0  0  0  0  0
  -18.8936  -30.1092   23.8991 C   0  0  0  0  0  0
  -17.6086  -30.6549   24.0520 C   0  0  0  0  0  0
  -25.9079  -34.8949   23.5092 C   0  0  0  0  0  0
  -16.4865  -29.9259   23.6170 C   0  0  0  0  0  0
  -16.6504  -28.6672   23.0087 C   0  0  0  0  0  0
  -26.5323  -31.7057   25.2540 C   0  0  0  0  0  0
  -25.4148  -31.4670   26.2996 C   0  0  0  0  0  0
  -27.2138  -30.3351   25.0391 C   0  0  0  0  0  0
  -27.6391  -32.5741   25.8709 C   0  0  0  0  0  0
  -27.5520  -37.1572   24.8442 C   0  0  0  0  0  0
  -21.2931  -29.1332   22.4767 N   0  0  0  0  0  0
  -26.4230  -37.3414   23.9373 N   0  0  0  0  0  0
  -25.1607  -30.3451   22.8363 N   0  0  0  0  0  0
  -23.0029  -28.8343   23.9220 O   0  0  0  0  0  0
  -26.0220  -26.8106   20.3770 O   0  0  0  0  0  0
  -26.5847  -34.8429   22.4795 O   0  0  0  0  0  0
  -23.6914  -31.9785   23.6392 O   0  0  0  0  0  0
  -28.9860  -22.4200   20.9568 C   0  0  0  0  0  0
  -26.8991  -23.2872   22.2998 C   0  0  0  0  0  0
  -28.6129  -23.9259   21.1981 C   0  0  0  0  0  0
  -28.4187  -21.0494   21.2931 C   0  0  0  0  0  0
  -27.4706  -24.6641   21.9004 C   0  0  0  0  0  0
  -27.2777  -21.7575   22.0511 C   0  0  0  0  0  0
  -25.6781  -30.6885   20.6361 C   0  0  0  0  0  0
  -26.4312  -31.8103   20.2618 C   0  0  0  0  0  0
  -24.8807  -30.5200   20.3337 C   0  0  0  0  0  0
  -24.8783  -27.5861   22.5624 C   0  0  0  0  0  0
  -25.1243  -28.0956   21.2187 C   0  0  2  0  0  0
  -29.6590  -24.8343   20.5803 C   0  0  0  0  0  0
  -29.1855  -19.2509   20.8176 C   0  0  0  0  0  0
  -27.1455  -26.6127   22.3626 C   0  0  0  0  0  0
  -29.1905  -17.3403   20.7774 N   0  0  0  0  0  0
  -25.9944  -28.1791   22.0178 N   0  3  2  0  0  0
  -26.2097  -20.6720   22.8680 Cl  0  0  0  0  0  0
  -31.3651  -13.6540   19.3399 H   0  0  0  0  0  0
  -30.5957  -12.5210   20.3598 H   0  0  0  0  0  0
  -30.1308  -11.9859   17.9484 H   0  0  0  0  0  0
  -29.4923  -13.5923   17.6928 H   0  0  0  0  0  0
  -28.2544  -11.3377   19.2929 H   0  0  0  0  0  0
  -27.5347  -12.1879   17.9545 H   0  0  0  0  0  0
  -27.4168  -14.2185   19.2297 H   0  0  0  0  0  0
  -28.8588  -12.8431   21.5466 H   0  0  0  0  0  0
  -28.0100  -14.3385   21.7207 H   0  0  0  0  0  0
  -25.2731   -9.5697   22.4774 H   0  0  0  0  0  0
  -23.9999   -7.4626   22.7474 H   0  0  0  0  0  0
  -21.0833   -8.8706   19.8948 H   0  0  0  0  0  0
  -22.3648  -10.9627   19.6160 H   0  0  0  0  0  0
  -21.1999   -7.6153   23.9716 H   0  0  0  0  0  0
  -21.1478   -6.0537   25.9082 H   0  0  0  0  0  0
  -22.0602   -2.7614   23.2835 H   0  0  0  0  0  0
  -22.3912  -11.9853   22.4868 H   0  0  0  0  0  0
  -21.0852  -13.1153   22.2654 H   0  0  0  0  0  0
  -24.6062  -15.8446   20.5575 H   0  0  0  0  0  0
  -26.2202  -15.6315   20.0827 H   0  0  0  0  0  0
  -26.8023  -32.4458   23.2107 H   0  0  0  0  0  0
  -24.9733  -33.9290   25.0180 H   0  0  0  0  0  0
  -22.8865  -30.6849   21.8207 H   0  0  0  0  0  0
  -23.3780  -35.9268   23.3100 H   0  0  0  0  0  0
  -24.3646  -36.8698   22.2016 H   0  0  0  0  0  0
  -23.7225  -37.6103   23.6688 H   0  0  0  0  0  0
  -27.7924  -30.9390   22.1497 H   0  0  0  0  0  0
  -27.8062  -29.4232   22.7311 H   0  0  0  0  0  0
  -28.9287  -28.0572   20.2946 H   0  0  0  0  0  0
  -26.4522  -25.7595   18.0040 H   0  0  0  0  0  0
  -24.5398  -27.3397   17.6352 H   0  0  0  0  0  0
  -22.8814  -29.5901   19.1975 H   0  0  0  0  0  0
  -22.8347  -28.0116   19.7714 H   0  0  0  0  0  0
  -25.1259  -36.1519   25.0715 H   0  0  0  0  0  0
  -20.7506  -28.1681   24.2521 H   0  0  0  0  0  0
  -20.3847  -26.1136   23.3781 H   0  0  0  0  0  0
  -21.5524  -26.6346   22.2090 H   0  0  0  0  0  0
  -19.5962  -25.6076   21.0963 H   0  0  0  0  0  0
  -19.6335  -27.3096   20.6936 H   0  0  0  0  0  0
  -17.3425  -26.6841   21.3468 H   0  0  0  0  0  0
  -17.9011  -25.9907   22.8485 H   0  0  0  0  0  0
  -19.7537  -30.6583   24.2545 H   0  0  0  0  0  0
  -17.4819  -31.6242   24.5155 H   0  0  0  0  0  0
  -15.4954  -30.3418   23.7457 H   0  0  0  0  0  0
  -15.7778  -28.1300   22.6641 H   0  0  0  0  0  0
  -24.7005  -30.6947   26.0100 H   0  0  0  0  0  0
  -24.8527  -32.3787   26.5002 H   0  0  0  0  0  0
  -25.8353  -31.1499   27.2536 H   0  0  0  0  0  0
  -26.5779  -29.5414   24.6603 H   0  0  0  0  0  0
  -27.5309  -29.9400   26.0063 H   0  0  0  0  0  0
  -28.1484  -30.4308   24.4904 H   0  0  0  0  0  0
  -27.2650  -33.5417   26.1994 H   0  0  0  0  0  0
  -28.4454  -32.7600   25.1624 H   0  0  0  0  0  0
  -28.0806  -32.1012   26.7473 H   0  0  0  0  0  0
  -28.2458  -37.9956   24.7549 H   0  0  0  0  0  0
  -28.1139  -36.2464   24.6257 H   0  0  0  0  0  0
  -27.2227  -37.1121   25.8846 H   0  0  0  0  0  0
  -20.9841  -29.5022   21.5882 H   0  0  0  0  0  0
  -26.0083  -38.2481   24.1303 H   0  0  0  0  0  0
  -29.9250  -22.2931   20.4419 H   0  0  0  0  0  0
  -26.0406  -23.3838   22.9501 H   0  0  0  0  0  0
  -26.0032  -32.5845   19.6384 H   0  0  0  0  0  0
  -27.4683  -31.9840   20.4903 H   0  0  0  0  0  0
  -24.7574  -30.7900   19.2594 H   0  0  0  0  0  0
  -24.2605  -31.3787   20.6509 H   0  0  0  0  0  0
  -25.1430  -27.9868   23.5413 H   0  0  0  0  0  0
  -24.8736  -26.4927   22.6333 H   0  0  0  0  0  0
  -24.2850  -27.3686   21.0151 H   0  0  0  0  0  0
  -30.6638  -24.4659   20.8055 H   0  0  0  0  0  0
  -29.5987  -25.8653   20.9256 H   0  0  0  0  0  0
  -29.5119  -24.8170   19.4992 H   0  0  0  0  0  0
  -30.2169  -19.4657   21.0773 H   0  0  0  0  0  0
  -29.2009  -19.3927   19.7311 H   0  0  0  0  0  0
  -28.1507  -27.0361   22.3142 H   0  0  0  0  0  0
  -27.0199  -26.4859   23.4395 H   0  0  0  0  0  0
  -28.2246  -17.0428   20.6787 H   0  0  0  0  0  0
  -26.3535  -28.5842   22.8729 H   0  0  0  0  0  0
  1 25  1  0  0  0
  1 30  2  0  0  0
  1 85  1  0  0  0
  2  3  1  0  0  0
  2 25  1  0  0  0
  2 88  1  0  0  0
  2 89  1  0  0  0
  3  4  1  0  0  0
  3 90  1  0  0  0
  3 91  1  0  0  0
  4  5  1  0  0  0
  4 92  1  0  0  0
  4 93  1  0  0  0
  5  6  1  0  0  0
  5 26  1  0  0  0
  5 94  1  0  0  0
  6 25  1  0  0  0
  6 95  1  0  0  0
  6 96  1  0  0  0
  7  8  2  0  0  0
  7 26  1  0  0  0
  7 29  1  0  0  0
  8  9  1  0  0  0
  8 22  1  0  0  0
  9 10  1  0  0  0
  9 27  2  0  0  0
 10 11  2  0  0  0
 10 15  1  0  0  0
 11 12  1  0  0  0
 11 97  1  0  0  0
 12 13  2  0  0  0
 12 98  1  0  0  0
 13 14  1  0  0  0
 13 31  1  0  0  0
 14 15  2  0  0  0
 14 99  1  0  0  0
 15100  1  0  0  0
 16 17  2  0  0  0
 16 21  1  0  0  0
 16 31  1  0  0  0
 17 18  1  0  0  0
 17101  1  0  0  0
 18 19  2  0  0  0
 18102  1  0  0  0
 19 20  1  0  0  0
 19 24  1  0  0  0
 20 21  2  0  0  0
 20103  1  0  0  0
 21 23  1  0  0  0
 22 28  1  0  0  0
 22 32  2  0  0  0
 26 27  1  0  0  0
 28104  1  0  0  0
 28105  1  0  0  0
 29106  1  0  0  0
 29107  1  0  0  0
 33 34  1  0  0  0
 33 66  1  0  0  0
 33 70  2  0  0  0
 34 36  1  0  0  0
 34 59  1  0  0  0
 34108  1  0  0  0
 35 44  2  0  0  0
 35 45  1  0  0  0
 35 68  1  0  0  0
 36 56  1  0  0  0
 36109  1  0  0  0
 37 39  1  0  0  0
 37 47  1  0  0  0
 37 66  1  0  0  0
 37110  1  0  0  0
 38 43  2  0  0  0
 38 46  1  0  0  0
 38 47  1  0  0  0
 39 64  1  0  0  0
 39 67  2  0  0  0
 40 52  1  0  0  0
 40 53  2  0  0  0
 40 58  1  0  0  0
 41111  1  0  0  0
 41112  1  0  0  0
 41113  1  0  0  0
 41 48  1  0  0  0
 42 43  1  0  0  0
 42 66  1  0  0  0
 42114  1  0  0  0
 42115  1  0  0  0
 43 44  1  0  0  0
 44116  1  0  0  0
 45 46  2  0  0  0
 45117  1  0  0  0
 46118  1  0  0  0
 47119  1  0  0  0
 47120  1  0  0  0
 48 56  1  0  0  0
 48 65  1  0  0  0
 48121  1  0  0  0
 49 50  1  0  0  0
 49 53  1  0  0  0
 49 64  1  0  0  0
 49122  1  0  0  0
 50 51  1  0  0  0
 50123  1  0  0  0
 50124  1  0  0  0
 51 52  1  0  0  0
 51125  1  0  0  0
 51126  1  0  0  0
 52127  1  0  0  0
 52128  1  0  0  0
 53 54  1  0  0  0
 54 55  2  0  0  0
 54129  1  0  0  0
 55 57  1  0  0  0
 55130  1  0  0  0
 56 69  2  0  0  0
 57 58  2  0  0  0
 57131  1  0  0  0
 58132  1  0  0  0
 59 60  1  0  0  0
 59 61  1  0  0  0
 59 62  1  0  0  0
 60133  1  0  0  0
 60134  1  0  0  0
 60135  1  0  0  0
 61136  1  0  0  0
 61137  1  0  0  0
 61138  1  0  0  0
 62139  1  0  0  0
 62140  1  0  0  0
 62141  1  0  0  0
 63 65  1  0  0  0
 63142  1  0  0  0
 63143  1  0  0  0
 63144  1  0  0  0
 64145  1  0  0  0
 65146  1  0  0  0
 68 81  1  0  0  0
 71 73  2  0  0  0
 71 74  1  0  0  0
 71147  1  0  0  0
 72 75  2  0  0  0
 72 76  1  0  0  0
 72148  1  0  0  0
 73 75  1  0  0  0
 73 82  1  0  0  0
 74 76  2  0  0  0
 74 83  1  0  0  0
 75 84  1  0  0  0
 76 87  1  0  0  0
 77 78  2  0  0  0
 77 79  1  0  0  0
 77 86  1  0  0  0
 78149  1  0  0  0
 78150  1  0  0  0
 79 81  1  0  0  0
 79151  1  0  0  0
 79152  1  0  0  0
 80 81  1  0  0  0
 80 86  1  0  0  0
 80153  1  0  0  0
 80154  1  0  0  0
 81155  1  0  0  0
 82156  1  0  0  0
 82157  1  0  0  0
 82158  1  0  0  0
 83 85  1  0  0  0
 83159  1  0  0  0
 83160  1  0  0  0
 84161  1  0  0  0
 84162  1  0  0  0
 84 86  1  0  0  0
 85163  1  0  0  0
 86164  1  0  0  0
M  CHG  1  86   1
M  ISO  4   1 100  68 101  81 101  85 100
M  END
> <chiral flag>
0

> <version>
0

> <s_m_source_file>
/data/baiqing/PycharmProjects/Reinvent-master-3.2/result/LINK_invent/BTK/process_docking_weight1_custom_product_contain_oxygen_bond_distance_aromatic_linkinvent_7_9_3/rearranged_h_0033.sdf

> <i_m_source_file_index>
41

> <r_mmod_Potential_Energy-OPLS-2005>
18451.7265625

> <r_mmod_Stretch_Energy-OPLS-2005>
9922.806640625

> <r_mmod_Bend_Energy-OPLS-2005>
2110.21484375

> <r_mmod_Torsional_Energy-OPLS-2005>
543.167297363281

> <r_mmod_Improper_Torsional_Energy-OPLS-2005>
58.5129547119141

> <r_mmod_Van_der_Waal_Energy-OPLS-2005>
3429.89208984375

> <r_mmod_Electrostatic_Energy-OPLS-2005>
-295.136840820312

> <r_mmod_Solvation_Energy-OPLS-2005>
-405.022827148438

> <b_mmod_Minimization_Converged-OPLS-2005>
0

> <r_mmod_RMS_Derivative-OPLS-2005>
16.6135654449463

$$$$
41
                    3D
 Structure written by MMmdl.
167176  0  0  1  0            999 V2000
  -30.5919  -14.6632   20.5061 C   0  0  0  0  0  0
  -30.4466  -12.4100   19.4546 C   0  0  0  0  0  0
  -29.5117  -12.5127   18.2274 C   0  0  0  0  0  0
  -28.0331  -12.3496   18.6355 C   0  0  0  0  0  0
  -27.6549  -13.2149   19.8665 C   0  0  2  0  0  0
  -28.6978  -13.0595   20.9960 C   0  0  0  0  0  0
  -25.2570  -13.8166   20.5679 C   0  0  0  0  0  0
  -24.1829  -13.0431   20.9172 C   0  0  0  0  0  0
  -24.6398  -11.6906   20.8727 C   0  0  0  0  0  0
  -23.9072  -10.4288   21.0399 C   0  0  0  0  0  0
  -24.3620   -9.4205   21.9179 C   0  0  0  0  0  0
  -23.6290   -8.2245   22.0755 C   0  0  0  0  0  0
  -22.4274   -8.0280   21.3543 C   0  0  0  0  0  0
  -21.9910   -9.0257   20.4649 C   0  0  0  0  0  0
  -22.7242  -10.2132   20.3054 C   0  0  0  0  0  0
  -21.6853   -6.0735   22.5276 C   0  0  0  0  0  0
  -21.4016   -6.5641   23.8209 C   0  0  0  0  0  0
  -21.3656   -5.6792   24.9171 C   0  0  0  0  0  0
  -21.6046   -4.3056   24.7222 C   0  0  0  0  0  0
  -21.8822   -3.8149   23.4344 C   0  0  0  0  0  0
  -21.9193   -4.6962   22.3397 C   0  0  0  0  0  0
  -22.7857  -13.5227   21.1839 C   0  0  0  0  0  0
  -22.1664   -4.2149   21.0973 F   0  0  0  0  0  0
  -21.5627   -3.4541   25.7735 F   0  0  0  0  0  0
  -30.0114  -13.4215   20.4395 N   0  0  0  0  0  0
  -26.2995  -12.9342   20.3322 N   0  0  0  0  0  0
  -25.9324  -11.6499   20.5748 N   0  0  0  0  0  0
  -22.0506  -12.8219   22.0406 N   0  0  0  0  0  0
  -25.4300  -15.1883   20.4107 N   0  0  0  0  0  0
  -31.7436  -14.8532   20.1030 O   0  0  0  0  0  0
  -21.6638   -6.8876   21.4240 O   0  0  0  0  0  0
  -22.3545  -14.5532   20.6689 O   0  0  0  0  0  0
  -24.6261  -31.8580   23.1990 C   0  0  0  0  0  0
  -25.9107  -32.4760   23.8326 C   0  0  1  0  0  0
  -27.2319  -27.3158   20.1192 C   0  0  0  0  0  0
  -25.5919  -33.8561   24.2260 N   0  0  0  0  0  0
  -23.4211  -30.4778   21.5423 C   0  0  2  0  0  0
  -24.8689  -28.9238   20.1144 C   0  0  0  0  0  0
  -22.7483  -29.4602   22.4936 C   0  0  0  0  0  0
  -18.0284  -28.1393   22.8469 C   0  0  0  0  0  0
  -24.1495  -36.7297   23.2639 C   0  0  0  0  0  0
  -25.9606  -30.7876   21.3686 C   0  0  0  0  0  0
  -26.0375  -29.4127   20.7127 C   0  0  0  0  0  0
  -27.2243  -28.6228   20.6969 C   0  0  0  0  0  0
  -26.0411  -26.8677   19.5108 C   0  0  0  0  0  0
  -24.8722  -27.6570   19.5054 C   0  0  0  0  0  0
  -23.6370  -29.8068   20.1598 C   0  0  0  0  0  0
  -25.4120  -36.3075   24.0326 C   0  0  1  0  0  0
  -20.5883  -28.3691   23.1285 C   0  0  2  0  0  0
  -20.6778  -26.9415   22.5417 C   0  0  0  0  0  0
  -19.5761  -26.6386   21.5214 C   0  0  0  0  0  0
  -18.1931  -26.7934   22.1608 C   0  0  0  0  0  0
  -19.1537  -28.8859   23.2865 C   0  0  0  0  0  0
  -18.9463  -30.1459   23.8885 C   0  0  0  0  0  0
  -17.6464  -30.6587   24.0562 C   0  0  0  0  0  0
  -25.9056  -34.9442   23.5098 C   0  0  0  0  0  0
  -16.5355  -29.9089   23.6326 C   0  0  0  0  0  0
  -16.7271  -28.6514   23.0330 C   0  0  0  0  0  0
  -26.4487  -31.6573   25.0701 C   0  0  0  0  0  0
  -25.3713  -31.3711   26.1422 C   0  0  0  0  0  0
  -27.0337  -30.3000   24.6153 C   0  0  0  0  0  0
  -27.6053  -32.4311   25.7468 C   0  0  0  0  0  0
  -27.5588  -37.1797   24.8457 C   0  0  0  0  0  0
  -21.4198  -29.3040   22.3685 N   0  0  0  0  0  0
  -26.4297  -37.3773   23.9407 N   0  0  0  0  0  0
  -24.6884  -31.0581   22.0936 N   0  0  0  0  0  0
  -23.4199  -28.8140   23.3020 O   0  0  0  0  0  0
  -28.3701  -26.4996   20.1113 O   0  0  0  0  0  0
  -26.5635  -34.8916   22.4668 O   0  0  0  0  0  0
  -23.5431  -32.1383   23.7316 O   0  0  0  0  0  0
  -29.3316  -19.1664   19.3732 C   0  0  0  0  0  0
  -29.0681  -20.0082   20.4911 C   0  0  0  0  0  0
  -29.6437  -17.7738   19.4873 C   0  0  0  0  0  0
  -29.2386  -19.3849   21.7709 C   0  0  0  0  0  0
  -29.5864  -17.9895   21.8936 C   0  0  0  0  0  0
  -29.7547  -17.1393   20.7577 C   0  0  0  0  0  0
  -29.8701  -23.2971   21.2822 C   0  0  0  0  0  0
  -30.8406  -22.6491   21.9478 C   0  0  0  0  0  0
  -29.4259  -24.7457   21.4918 C   0  0  0  0  0  0
  -28.4014  -23.9072   19.4931 C   0  0  0  0  0  0
  -28.2732  -25.0767   20.5338 C   0  0  2  0  0  0
  -29.7662  -16.9545   18.2140 C   0  0  0  0  0  0
  -28.9868  -20.1769   23.0543 C   0  0  0  0  0  0
  -29.7224  -17.3714   23.2848 C   0  0  0  0  0  0
  -28.3825  -21.4345   20.2707 C   0  0  0  0  0  0
  -29.7694  -15.6775   20.9311 N   0  0  0  0  0  0
  -29.1610  -22.7368   20.0960 N   0  3  2  0  0  0
  -31.4840  -12.5569   19.1494 H   0  0  0  0  0  0
  -30.4035  -11.4119   19.8933 H   0  0  0  0  0  0
  -29.7789  -11.7558   17.4883 H   0  0  0  0  0  0
  -29.6516  -13.4791   17.7403 H   0  0  0  0  0  0
  -27.8676  -11.2953   18.8598 H   0  0  0  0  0  0
  -27.3819  -12.5870   17.7932 H   0  0  0  0  0  0
  -27.6753  -14.2524   19.5315 H   0  0  0  0  0  0
  -28.7168  -12.0318   21.3617 H   0  0  0  0  0  0
  -28.4345  -13.6719   21.8597 H   0  0  0  0  0  0
  -25.2765   -9.5678   22.4752 H   0  0  0  0  0  0
  -24.0000   -7.4637   22.7475 H   0  0  0  0  0  0
  -21.0844   -8.8772   19.8952 H   0  0  0  0  0  0
  -22.3699  -10.9670   19.6164 H   0  0  0  0  0  0
  -21.2012   -7.6152   23.9711 H   0  0  0  0  0  0
  -21.1475   -6.0525   25.9073 H   0  0  0  0  0  0
  -22.0605   -2.7612   23.2842 H   0  0  0  0  0  0
  -22.4125  -11.9871   22.4777 H   0  0  0  0  0  0
  -21.1125  -13.1244   22.2618 H   0  0  0  0  0  0
  -24.6664  -15.8450   20.5274 H   0  0  0  0  0  0
  -26.2859  -15.6305   20.1001 H   0  0  0  0  0  0
  -26.7172  -32.5430   23.1075 H   0  0  0  0  0  0
  -25.0040  -33.9701   25.0384 H   0  0  0  0  0  0
  -22.7146  -31.2973   21.3959 H   0  0  0  0  0  0
  -23.3754  -35.9629   23.3288 H   0  0  0  0  0  0
  -24.3593  -36.8937   22.2058 H   0  0  0  0  0  0
  -23.7251  -37.6491   23.6678 H   0  0  0  0  0  0
  -26.0920  -31.5506   20.5998 H   0  0  0  0  0  0
  -26.8411  -30.8380   21.9979 H   0  0  0  0  0  0
  -28.1287  -28.9977   21.1552 H   0  0  0  0  0  0
  -26.0098  -25.8990   19.0320 H   0  0  0  0  0  0
  -23.9762  -27.2764   19.0339 H   0  0  0  0  0  0
  -23.7574  -30.5821   19.4023 H   0  0  0  0  0  0
  -22.7552  -29.2379   19.8582 H   0  0  0  0  0  0
  -25.1298  -36.1930   25.0819 H   0  0  0  0  0  0
  -20.9968  -28.3286   24.1409 H   0  0  0  0  0  0
  -20.5697  -26.2305   23.3619 H   0  0  0  0  0  0
  -21.6648  -26.7457   22.1208 H   0  0  0  0  0  0
  -19.6937  -25.6299   21.1242 H   0  0  0  0  0  0
  -19.6715  -27.3194   20.6742 H   0  0  0  0  0  0
  -17.4214  -26.6682   21.3997 H   0  0  0  0  0  0
  -18.0314  -26.0077   22.9004 H   0  0  0  0  0  0
  -19.7941  -30.7265   24.2266 H   0  0  0  0  0  0
  -17.5020  -31.6264   24.5168 H   0  0  0  0  0  0
  -15.5356  -30.2985   23.7660 H   0  0  0  0  0  0
  -15.8670  -28.0841   22.7036 H   0  0  0  0  0  0
  -24.5906  -30.7037   25.7746 H   0  0  0  0  0  0
  -24.8869  -32.2870   26.4820 H   0  0  0  0  0  0
  -25.8022  -30.8909   27.0217 H   0  0  0  0  0  0
  -26.2908  -29.6737   24.1194 H   0  0  0  0  0  0
  -27.4059  -29.7266   25.4652 H   0  0  0  0  0  0
  -27.8763  -30.4280   23.9353 H   0  0  0  0  0  0
  -27.2673  -33.3624   26.2027 H   0  0  0  0  0  0
  -28.3864  -32.6856   25.0290 H   0  0  0  0  0  0
  -28.0718  -31.8444   26.5393 H   0  0  0  0  0  0
  -28.2580  -38.0118   24.7527 H   0  0  0  0  0  0
  -28.1112  -36.2649   24.6251 H   0  0  0  0  0  0
  -27.2312  -37.1406   25.8860 H   0  0  0  0  0  0
  -20.9391  -29.8766   21.6891 H   0  0  0  0  0  0
  -26.0181  -38.2844   24.1419 H   0  0  0  0  0  0
  -29.1962  -19.5775   18.3820 H   0  0  0  0  0  0
  -31.3658  -23.1227   22.7644 H   0  0  0  0  0  0
  -31.1351  -21.6427   21.6883 H   0  0  0  0  0  0
  -30.2813  -25.3858   21.2768 H   0  0  0  0  0  0
  -29.1417  -24.9194   22.5291 H   0  0  0  0  0  0
  -28.9820  -24.2678   18.6432 H   0  0  0  0  0  0
  -27.4276  -23.6149   19.1005 H   0  0  0  0  0  0
  -27.3439  -24.9249   21.0861 H   0  0  0  0  0  0
  -29.5027  -17.5384   17.3322 H   0  0  0  0  0  0
  -29.1050  -16.0882   18.2438 H   0  0  0  0  0  0
  -30.7900  -16.6016   18.0889 H   0  0  0  0  0  0
  -28.5722  -21.1694   22.9004 H   0  0  0  0  0  0
  -29.9220  -20.3088   23.5993 H   0  0  0  0  0  0
  -28.2900  -19.6487   23.7055 H   0  0  0  0  0  0
  -30.2316  -18.0415   23.9759 H   0  0  0  0  0  0
  -30.3131  -16.4558   23.2800 H   0  0  0  0  0  0
  -28.7398  -17.1363   23.6936 H   0  0  0  0  0  0
  -27.6162  -21.5985   21.0269 H   0  0  0  0  0  0
  -27.8042  -21.3132   19.3547 H   0  0  0  0  0  0
  -28.9354  -15.3214   21.3723 H   0  0  0  0  0  0
  -29.8581  -22.5018   19.4042 H   0  0  0  0  0  0
  1 25  1  0  0  0
  1 30  2  0  0  0
  1 86  1  0  0  0
  2  3  1  0  0  0
  2 25  1  0  0  0
  2 88  1  0  0  0
  2 89  1  0  0  0
  3  4  1  0  0  0
  3 90  1  0  0  0
  3 91  1  0  0  0
  4  5  1  0  0  0
  4 92  1  0  0  0
  4 93  1  0  0  0
  5  6  1  0  0  0
  5 26  1  0  0  0
  5 94  1  0  0  0
  6 25  1  0  0  0
  6 95  1  0  0  0
  6 96  1  0  0  0
  7  8  2  0  0  0
  7 26  1  0  0  0
  7 29  1  0  0  0
  8  9  1  0  0  0
  8 22  1  0  0  0
  9 10  1  0  0  0
  9 27  2  0  0  0
 10 11  2  0  0  0
 10 15  1  0  0  0
 11 12  1  0  0  0
 11 97  1  0  0  0
 12 13  2  0  0  0
 12 98  1  0  0  0
 13 14  1  0  0  0
 13 31  1  0  0  0
 14 15  2  0  0  0
 14 99  1  0  0  0
 15100  1  0  0  0
 16 17  2  0  0  0
 16 21  1  0  0  0
 16 31  1  0  0  0
 17 18  1  0  0  0
 17101  1  0  0  0
 18 19  2  0  0  0
 18102  1  0  0  0
 19 20  1  0  0  0
 19 24  1  0  0  0
 20 21  2  0  0  0
 20103  1  0  0  0
 21 23  1  0  0  0
 22 28  1  0  0  0
 22 32  2  0  0  0
 26 27  1  0  0  0
 28104  1  0  0  0
 28105  1  0  0  0
 29106  1  0  0  0
 29107  1  0  0  0
 33 34  1  0  0  0
 33 66  1  0  0  0
 33 70  2  0  0  0
 34 36  1  0  0  0
 34 59  1  0  0  0
 34108  1  0  0  0
 35 44  2  0  0  0
 35 45  1  0  0  0
 35 68  1  0  0  0
 36 56  1  0  0  0
 36109  1  0  0  0
 37 39  1  0  0  0
 37 47  1  0  0  0
 37 66  1  0  0  0
 37110  1  0  0  0
 38 43  2  0  0  0
 38 46  1  0  0  0
 38 47  1  0  0  0
 39 64  1  0  0  0
 39 67  2  0  0  0
 40 52  1  0  0  0
 40 53  2  0  0  0
 40 58  1  0  0  0
 41111  1  0  0  0
 41112  1  0  0  0
 41113  1  0  0  0
 41 48  1  0  0  0
 42 43  1  0  0  0
 42 66  1  0  0  0
 42114  1  0  0  0
 42115  1  0  0  0
 43 44  1  0  0  0
 44116  1  0  0  0
 45 46  2  0  0  0
 45117  1  0  0  0
 46118  1  0  0  0
 47119  1  0  0  0
 47120  1  0  0  0
 48 56  1  0  0  0
 48 65  1  0  0  0
 48121  1  0  0  0
 49 50  1  0  0  0
 49 53  1  0  0  0
 49 64  1  0  0  0
 49122  1  0  0  0
 50 51  1  0  0  0
 50123  1  0  0  0
 50124  1  0  0  0
 51 52  1  0  0  0
 51125  1  0  0  0
 51126  1  0  0  0
 52127  1  0  0  0
 52128  1  0  0  0
 53 54  1  0  0  0
 54 55  2  0  0  0
 54129  1  0  0  0
 55 57  1  0  0  0
 55130  1  0  0  0
 56 69  2  0  0  0
 57 58  2  0  0  0
 57131  1  0  0  0
 58132  1  0  0  0
 59 60  1  0  0  0
 59 61  1  0  0  0
 59 62  1  0  0  0
 60133  1  0  0  0
 60134  1  0  0  0
 60135  1  0  0  0
 61136  1  0  0  0
 61137  1  0  0  0
 61138  1  0  0  0
 62139  1  0  0  0
 62140  1  0  0  0
 62141  1  0  0  0
 63 65  1  0  0  0
 63142  1  0  0  0
 63143  1  0  0  0
 63144  1  0  0  0
 64145  1  0  0  0
 65146  1  0  0  0
 68 81  1  0  0  0
 71 72  2  0  0  0
 71 73  1  0  0  0
 71147  1  0  0  0
 72 74  1  0  0  0
 72 85  1  0  0  0
 73 76  2  0  0  0
 73 82  1  0  0  0
 74 75  2  0  0  0
 74 83  1  0  0  0
 75 76  1  0  0  0
 75 84  1  0  0  0
 76 86  1  0  0  0
 77 78  2  0  0  0
 77 79  1  0  0  0
 77 87  1  0  0  0
 78148  1  0  0  0
 78149  1  0  0  0
 79 81  1  0  0  0
 79150  1  0  0  0
 79151  1  0  0  0
 80 81  1  0  0  0
 80 87  1  0  0  0
 80152  1  0  0  0
 80153  1  0  0  0
 81154  1  0  0  0
 82155  1  0  0  0
 82156  1  0  0  0
 82157  1  0  0  0
 83158  1  0  0  0
 83159  1  0  0  0
 83160  1  0  0  0
 84161  1  0  0  0
 84162  1  0  0  0
 84163  1  0  0  0
 85164  1  0  0  0
 85165  1  0  0  0
 85 87  1  0  0  0
 86166  1  0  0  0
 87167  1  0  0  0
M  CHG  1  87   1
M  ISO  4   1 100  68 101  81 101  86 100
M  END
> <chiral flag>
0

> <version>
0

> <s_m_source_file>
/data/baiqing/PycharmProjects/Reinvent-master-3.2/result/LINK_invent/BTK/process_docking_weight1_custom_product_contain_oxygen_bond_distance_aromatic_linkinvent_7_9_3/rearranged_h_0033.sdf

> <i_m_source_file_index>
42

> <r_mmod_Potential_Energy-OPLS-2005>
1.71024918556213

> <r_mmod_Stretch_Energy-OPLS-2005>
89.7786254882812

> <r_mmod_Bend_Energy-OPLS-2005>
175.476638793945

> <r_mmod_Torsional_Energy-OPLS-2005>
288.680450439453

> <r_mmod_Improper_Torsional_Energy-OPLS-2005>
6.51986265182495

> <r_mmod_Van_der_Waal_Energy-OPLS-2005>
135.555297851562

> <r_mmod_Electrostatic_Energy-OPLS-2005>
-319.097625732422

> <r_mmod_Solvation_Energy-OPLS-2005>
-425.783355712891

> <b_mmod_Minimization_Converged-OPLS-2005>
0

> <r_mmod_RMS_Derivative-OPLS-2005>
1.31167995929718

$$$$
42
                    3D
 Structure written by MMmdl.
163172  0  0  1  0            999 V2000
  -30.6699  -14.5011   20.5628 C   0  0  0  0  0  0
  -30.4295  -12.3211   19.4263 C   0  0  0  0  0  0
  -29.4971  -12.5115   18.2105 C   0  0  0  0  0  0
  -28.0184  -12.3661   18.6225 C   0  0  0  0  0  0
  -27.6632  -13.2053   19.8788 C   0  0  2  0  0  0
  -28.7038  -12.9805   20.9992 C   0  0  0  0  0  0
  -25.2594  -13.8158   20.5682 C   0  0  0  0  0  0
  -24.1839  -13.0438   20.9167 C   0  0  0  0  0  0
  -24.6392  -11.6902   20.8733 C   0  0  0  0  0  0
  -23.9059  -10.4288   21.0406 C   0  0  0  0  0  0
  -24.3610   -9.4205   21.9186 C   0  0  0  0  0  0
  -23.6287   -8.2241   22.0759 C   0  0  0  0  0  0
  -22.4270   -8.0279   21.3548 C   0  0  0  0  0  0
  -21.9905   -9.0251   20.4647 C   0  0  0  0  0  0
  -22.7234  -10.2129   20.3055 C   0  0  0  0  0  0
  -21.6850   -6.0734   22.5281 C   0  0  0  0  0  0
  -21.4012   -6.5636   23.8213 C   0  0  0  0  0  0
  -21.3659   -5.6791   24.9174 C   0  0  0  0  0  0
  -21.6044   -4.3055   24.7227 C   0  0  0  0  0  0
  -21.8818   -3.8145   23.4348 C   0  0  0  0  0  0
  -21.9191   -4.6962   22.3404 C   0  0  0  0  0  0
  -22.7861  -13.5240   21.1831 C   0  0  0  0  0  0
  -22.1659   -4.2149   21.0980 F   0  0  0  0  0  0
  -21.5630   -3.4541   25.7740 F   0  0  0  0  0  0
  -30.0345  -13.3004   20.4524 N   0  0  0  0  0  0
  -26.3030  -12.9320   20.3383 N   0  0  0  0  0  0
  -25.9321  -11.6484   20.5776 N   0  0  0  0  0  0
  -22.0499  -12.8232   22.0385 N   0  0  0  0  0  0
  -25.4324  -15.1878   20.4099 N   0  0  0  0  0  0
  -31.7873  -14.7078   20.0778 O   0  0  0  0  0  0
  -21.6636   -6.8876   21.4242 O   0  0  0  0  0  0
  -22.3548  -14.5551   20.6687 O   0  0  0  0  0  0
  -24.6158  -31.8660   23.2074 C   0  0  0  0  0  0
  -25.9043  -32.4813   23.8377 C   0  0  1  0  0  0
  -27.2376  -27.4079   20.0940 C   0  0  0  0  0  0
  -25.5892  -33.8614   24.2301 N   0  0  0  0  0  0
  -23.4052  -30.4887   21.5486 C   0  0  2  0  0  0
  -24.8519  -28.9524   20.1108 C   0  0  0  0  0  0
  -22.7418  -29.4644   22.4974 C   0  0  0  0  0  0
  -18.0276  -28.1373   22.8489 C   0  0  0  0  0  0
  -24.1490  -36.7304   23.2639 C   0  0  0  0  0  0
  -25.9376  -30.8202   21.3684 C   0  0  0  0  0  0
  -26.0120  -29.4544   20.7119 C   0  0  0  0  0  0
  -27.2025  -28.6877   20.7024 C   0  0  0  0  0  0
  -26.0537  -26.9273   19.4849 C   0  0  0  0  0  0
  -24.8692  -27.6894   19.4948 C   0  0  0  0  0  0
  -23.6147  -29.8220   20.1627 C   0  0  0  0  0  0
  -25.4115  -36.3106   24.0334 C   0  0  1  0  0  0
  -20.5867  -28.3659   23.1313 C   0  0  2  0  0  0
  -20.6769  -26.9393   22.5415 C   0  0  0  0  0  0
  -19.5747  -26.6383   21.5210 C   0  0  0  0  0  0
  -18.1922  -26.7919   22.1619 C   0  0  0  0  0  0
  -19.1525  -28.8834   23.2899 C   0  0  0  0  0  0
  -18.9459  -30.1440   23.8910 C   0  0  0  0  0  0
  -17.6462  -30.6577   24.0570 C   0  0  0  0  0  0
  -25.9043  -34.9473   23.5119 C   0  0  0  0  0  0
  -16.5353  -29.9080   23.6332 C   0  0  0  0  0  0
  -16.7266  -28.6500   23.0345 C   0  0  0  0  0  0
  -26.4460  -31.6606   25.0721 C   0  0  0  0  0  0
  -25.3711  -31.3720   26.1457 C   0  0  0  0  0  0
  -27.0306  -30.3051   24.6119 C   0  0  0  0  0  0
  -27.6021  -32.4345   25.7491 C   0  0  0  0  0  0
  -27.5584  -37.1809   24.8461 C   0  0  0  0  0  0
  -21.4144  -29.3028   22.3718 N   0  0  0  0  0  0
  -26.4295  -37.3793   23.9406 N   0  0  0  0  0  0
  -24.6709  -31.0736   22.0991 N   0  0  0  0  0  0
  -23.4182  -28.8192   23.3026 O   0  0  0  0  0  0
  -28.4122  -26.6696   20.1559 O   0  0  0  0  0  0
  -26.5614  -34.8927   22.4688 O   0  0  0  0  0  0
  -23.5347  -32.1427   23.7452 O   0  0  0  0  0  0
  -30.6067  -18.9415   19.8038 C   0  0  0  0  0  0
  -30.4841  -17.5380   19.8790 C   0  0  0  0  0  0
  -30.4021  -19.7653   20.9347 C   0  0  0  0  0  0
  -30.0078  -19.1389   22.1543 C   0  0  0  0  0  0
  -29.8048  -17.7234   22.2079 C   0  0  0  0  0  0
  -30.1053  -16.9044   21.0837 C   0  0  0  0  0  0
  -28.9073  -24.4595   20.3176 C   0  0  0  0  0  0
  -29.4043  -24.6370   21.7265 C   0  0  0  0  0  0
  -29.1482  -23.0001   19.9144 C   0  0  0  0  0  0
  -30.2186  -23.3737   22.0108 C   0  0  0  0  0  0
  -29.8385  -19.9700   23.4249 C   0  0  0  0  0  0
  -29.2953  -17.0754   23.4944 C   0  0  0  0  0  0
  -30.7869  -21.2632   20.8213 C   0  0  0  0  0  0
  -28.3667  -25.3641   19.5830 N   0  0  0  0  0  0
  -29.9506  -15.4775   21.1609 N   0  0  0  0  0  0
  -29.7373  -22.3028   21.0991 N   0  3  2  0  0  0
  -31.4723  -12.4322   19.1242 H   0  0  0  0  0  0
  -30.3421  -11.3084   19.8224 H   0  0  0  0  0  0
  -29.7403  -11.7873   17.4318 H   0  0  0  0  0  0
  -29.6588  -13.4974   17.7716 H   0  0  0  0  0  0
  -27.8322  -11.3096   18.8193 H   0  0  0  0  0  0
  -27.3670  -12.6390   17.7915 H   0  0  0  0  0  0
  -27.7089  -14.2540   19.5844 H   0  0  0  0  0  0
  -28.6853  -11.9406   21.3290 H   0  0  0  0  0  0
  -28.4574  -13.5663   21.8852 H   0  0  0  0  0  0
  -25.2756   -9.5681   22.4761 H   0  0  0  0  0  0
  -23.9995   -7.4635   22.7481 H   0  0  0  0  0  0
  -21.0839   -8.8768   19.8951 H   0  0  0  0  0  0
  -22.3697  -10.9667   19.6162 H   0  0  0  0  0  0
  -21.2002   -7.6145   23.9717 H   0  0  0  0  0  0
  -21.1482   -6.0521   25.9077 H   0  0  0  0  0  0
  -22.0598   -2.7607   23.2850 H   0  0  0  0  0  0
  -22.4099  -11.9876   22.4752 H   0  0  0  0  0  0
  -21.1122  -13.1263   22.2597 H   0  0  0  0  0  0
  -24.6689  -15.8463   20.5200 H   0  0  0  0  0  0
  -26.2916  -15.6272   20.1032 H   0  0  0  0  0  0
  -26.7111  -32.5507   23.1131 H   0  0  0  0  0  0
  -25.0033  -33.9780   25.0441 H   0  0  0  0  0  0
  -22.6952  -31.3064   21.4090 H   0  0  0  0  0  0
  -23.3758  -35.9628   23.3304 H   0  0  0  0  0  0
  -24.3584  -36.8926   22.2053 H   0  0  0  0  0  0
  -23.7233  -37.6504   23.6657 H   0  0  0  0  0  0
  -26.0614  -31.5883   20.6039 H   0  0  0  0  0  0
  -26.8210  -30.8670   21.9933 H   0  0  0  0  0  0
  -28.0956  -29.0687   21.1769 H   0  0  0  0  0  0
  -26.0226  -25.9595   19.0065 H   0  0  0  0  0  0
  -23.9769  -27.2961   19.0275 H   0  0  0  0  0  0
  -23.7248  -30.5982   19.4045 H   0  0  0  0  0  0
  -22.7380  -29.2442   19.8646 H   0  0  0  0  0  0
  -25.1300  -36.1964   25.0829 H   0  0  0  0  0  0
  -20.9964  -28.3224   24.1430 H   0  0  0  0  0  0
  -20.5683  -26.2261   23.3601 H   0  0  0  0  0  0
  -21.6637  -26.7440   22.1200 H   0  0  0  0  0  0
  -19.6912  -25.6300   21.1224 H   0  0  0  0  0  0
  -19.6690  -27.3212   20.6756 H   0  0  0  0  0  0
  -17.4198  -26.6677   21.4016 H   0  0  0  0  0  0
  -18.0320  -26.0047   22.9004 H   0  0  0  0  0  0
  -19.7934  -30.7255   24.2277 H   0  0  0  0  0  0
  -17.5018  -31.6259   24.5165 H   0  0  0  0  0  0
  -15.5356  -30.2994   23.7646 H   0  0  0  0  0  0
  -15.8660  -28.0836   22.7043 H   0  0  0  0  0  0
  -24.5875  -30.7086   25.7783 H   0  0  0  0  0  0
  -24.8910  -32.2882   26.4908 H   0  0  0  0  0  0
  -25.8039  -30.8873   27.0216 H   0  0  0  0  0  0
  -26.2867  -29.6818   24.1142 H   0  0  0  0  0  0
  -27.4049  -29.7281   25.4585 H   0  0  0  0  0  0
  -27.8712  -30.4386   23.9304 H   0  0  0  0  0  0
  -27.2620  -33.3637   26.2076 H   0  0  0  0  0  0
  -28.3817  -32.6926   25.0311 H   0  0  0  0  0  0
  -28.0700  -31.8472   26.5401 H   0  0  0  0  0  0
  -28.2587  -38.0121   24.7531 H   0  0  0  0  0  0
  -28.1100  -36.2656   24.6263 H   0  0  0  0  0  0
  -27.2301  -37.1426   25.8862 H   0  0  0  0  0  0
  -20.9298  -29.8756   21.6950 H   0  0  0  0  0  0
  -26.0185  -38.2871   24.1411 H   0  0  0  0  0  0
  -30.9236  -19.3786   18.8668 H   0  0  0  0  0  0
  -30.6848  -16.9523   18.9925 H   0  0  0  0  0  0
  -28.5490  -24.7157   22.3972 H   0  0  0  0  0  0
  -30.0098  -25.5372   21.8315 H   0  0  0  0  0  0
  -29.8238  -22.9882   19.0593 H   0  0  0  0  0  0
  -28.2144  -22.5255   19.6125 H   0  0  0  0  0  0
  -30.1537  -23.0794   23.0586 H   0  0  0  0  0  0
  -31.2679  -23.5950   21.8029 H   0  0  0  0  0  0
  -30.5233  -20.8138   23.4606 H   0  0  0  0  0  0
  -30.0614  -19.3967   24.3240 H   0  0  0  0  0  0
  -28.8175  -20.3425   23.5092 H   0  0  0  0  0  0
  -28.5356  -17.6941   23.9720 H   0  0  0  0  0  0
  -30.1160  -16.9319   24.1973 H   0  0  0  0  0  0
  -28.8228  -16.1087   23.3282 H   0  0  0  0  0  0
  -31.2361  -21.4517   19.8458 H   0  0  0  0  0  0
  -31.6206  -21.3928   21.5124 H   0  0  0  0  0  0
  -29.1417  -15.1514   21.6663 H   0  0  0  0  0  0
  -28.9717  -21.8419   21.5660 H   0  0  0  0  0  0
  1 25  1  0  0  0
  1 30  2  0  0  0
  1 85  1  0  0  0
  2  3  1  0  0  0
  2 25  1  0  0  0
  2 87  1  0  0  0
  2 88  1  0  0  0
  3  4  1  0  0  0
  3 89  1  0  0  0
  3 90  1  0  0  0
  4  5  1  0  0  0
  4 91  1  0  0  0
  4 92  1  0  0  0
  5  6  1  0  0  0
  5 26  1  0  0  0
  5 93  1  0  0  0
  6 25  1  0  0  0
  6 94  1  0  0  0
  6 95  1  0  0  0
  7  8  2  0  0  0
  7 26  1  0  0  0
  7 29  1  0  0  0
  8  9  1  0  0  0
  8 22  1  0  0  0
  9 10  1  0  0  0
  9 27  2  0  0  0
 10 11  2  0  0  0
 10 15  1  0  0  0
 11 12  1  0  0  0
 11 96  1  0  0  0
 12 13  2  0  0  0
 12 97  1  0  0  0
 13 14  1  0  0  0
 13 31  1  0  0  0
 14 15  2  0  0  0
 14 98  1  0  0  0
 15 99  1  0  0  0
 16 17  2  0  0  0
 16 21  1  0  0  0
 16 31  1  0  0  0
 17 18  1  0  0  0
 17100  1  0  0  0
 18 19  2  0  0  0
 18101  1  0  0  0
 19 20  1  0  0  0
 19 24  1  0  0  0
 20 21  2  0  0  0
 20102  1  0  0  0
 21 23  1  0  0  0
 22 28  1  0  0  0
 22 32  2  0  0  0
 26 27  1  0  0  0
 28103  1  0  0  0
 28104  1  0  0  0
 29105  1  0  0  0
 29106  1  0  0  0
 33 34  1  0  0  0
 33 66  1  0  0  0
 33 70  2  0  0  0
 34 36  1  0  0  0
 34 59  1  0  0  0
 34107  1  0  0  0
 35 44  2  0  0  0
 35 45  1  0  0  0
 35 68  1  0  0  0
 36 56  1  0  0  0
 36108  1  0  0  0
 37 39  1  0  0  0
 37 47  1  0  0  0
 37 66  1  0  0  0
 37109  1  0  0  0
 38 43  2  0  0  0
 38 46  1  0  0  0
 38 47  1  0  0  0
 39 64  1  0  0  0
 39 67  2  0  0  0
 40 52  1  0  0  0
 40 53  2  0  0  0
 40 58  1  0  0  0
 41110  1  0  0  0
 41111  1  0  0  0
 41112  1  0  0  0
 41 48  1  0  0  0
 42 43  1  0  0  0
 42 66  1  0  0  0
 42113  1  0  0  0
 42114  1  0  0  0
 43 44  1  0  0  0
 44115  1  0  0  0
 45 46  2  0  0  0
 45116  1  0  0  0
 46117  1  0  0  0
 47118  1  0  0  0
 47119  1  0  0  0
 48 56  1  0  0  0
 48 65  1  0  0  0
 48120  1  0  0  0
 49 50  1  0  0  0
 49 53  1  0  0  0
 49 64  1  0  0  0
 49121  1  0  0  0
 50 51  1  0  0  0
 50122  1  0  0  0
 50123  1  0  0  0
 51 52  1  0  0  0
 51124  1  0  0  0
 51125  1  0  0  0
 52126  1  0  0  0
 52127  1  0  0  0
 53 54  1  0  0  0
 54 55  2  0  0  0
 54128  1  0  0  0
 55 57  1  0  0  0
 55129  1  0  0  0
 56 69  2  0  0  0
 57 58  2  0  0  0
 57130  1  0  0  0
 58131  1  0  0  0
 59 60  1  0  0  0
 59 61  1  0  0  0
 59 62  1  0  0  0
 60132  1  0  0  0
 60133  1  0  0  0
 60134  1  0  0  0
 61135  1  0  0  0
 61136  1  0  0  0
 61137  1  0  0  0
 62138  1  0  0  0
 62139  1  0  0  0
 62140  1  0  0  0
 63 65  1  0  0  0
 63141  1  0  0  0
 63142  1  0  0  0
 63143  1  0  0  0
 64144  1  0  0  0
 65145  1  0  0  0
 68 84  1  0  0  0
 71 72  2  0  0  0
 71 73  1  0  0  0
 71146  1  0  0  0
 72 76  1  0  0  0
 72147  1  0  0  0
 73 74  2  0  0  0
 73 83  1  0  0  0
 74 75  1  0  0  0
 74 81  1  0  0  0
 75 76  2  0  0  0
 75 82  1  0  0  0
 76 85  1  0  0  0
 77 78  1  0  0  0
 77 79  1  0  0  0
 77 84  2  0  0  0
 78 80  1  0  0  0
 78148  1  0  0  0
 78149  1  0  0  0
 79 86  1  0  0  0
 79150  1  0  0  0
 79151  1  0  0  0
 80 86  1  0  0  0
 80152  1  0  0  0
 80153  1  0  0  0
 81154  1  0  0  0
 81155  1  0  0  0
 81156  1  0  0  0
 82157  1  0  0  0
 82158  1  0  0  0
 82159  1  0  0  0
 83160  1  0  0  0
 83161  1  0  0  0
 83 86  1  0  0  0
 85162  1  0  0  0
 86163  1  0  0  0
M  CHG  1  86   1
M  ISO  4   1 100  68 101  84 101  85 100
M  END
> <chiral flag>
0

> <version>
0

> <s_m_source_file>
/data/baiqing/PycharmProjects/Reinvent-master-3.2/result/LINK_invent/BTK/process_docking_weight1_custom_product_contain_oxygen_bond_distance_aromatic_linkinvent_7_9_3/rearranged_h_0033.sdf

> <i_m_source_file_index>
43

> <r_mmod_Potential_Energy-OPLS-2005>
-232.320846557617

> <r_mmod_Stretch_Energy-OPLS-2005>
48.2658767700195

> <r_mmod_Bend_Energy-OPLS-2005>
127.035362243652

> <r_mmod_Torsional_Energy-OPLS-2005>
256.222686767578

> <r_mmod_Improper_Torsional_Energy-OPLS-2005>
3.51396226882935

> <r_mmod_Van_der_Waal_Energy-OPLS-2005>
160.719421386719

> <r_mmod_Electrostatic_Energy-OPLS-2005>
-371.734436035156

> <r_mmod_Solvation_Energy-OPLS-2005>
-473.269378662109

> <b_mmod_Minimization_Converged-OPLS-2005>
0

> <r_mmod_RMS_Derivative-OPLS-2005>
0.731026947498322

$$$$
43
                    3D
 Structure written by MMmdl.
168177  0  0  1  0            999 V2000
  -30.6476  -14.6373   20.5436 C   0  0  0  0  0  0
  -30.4243  -12.4073   19.4471 C   0  0  0  0  0  0
  -29.4906  -12.5378   18.2210 C   0  0  0  0  0  0
  -28.0220  -12.3676   18.6438 C   0  0  0  0  0  0
  -27.6577  -13.2241   19.8819 C   0  0  2  0  0  0
  -28.7043  -13.0735   21.0083 C   0  0  0  0  0  0
  -25.2586  -13.8180   20.5749 C   0  0  0  0  0  0
  -24.1853  -13.0435   20.9191 C   0  0  0  0  0  0
  -24.6429  -11.6911   20.8742 C   0  0  0  0  0  0
  -23.9086  -10.4297   21.0385 C   0  0  0  0  0  0
  -24.3656   -9.4224   21.9167 C   0  0  0  0  0  0
  -23.6332   -8.2257   22.0768 C   0  0  0  0  0  0
  -22.4308   -8.0295   21.3563 C   0  0  0  0  0  0
  -21.9930   -9.0263   20.4665 C   0  0  0  0  0  0
  -22.7251  -10.2144   20.3047 C   0  0  0  0  0  0
  -21.6892   -6.0727   22.5276 C   0  0  0  0  0  0
  -21.4016   -6.5653   23.8188 C   0  0  0  0  0  0
  -21.3651   -5.6831   24.9167 C   0  0  0  0  0  0
  -21.6044   -4.3087   24.7248 C   0  0  0  0  0  0
  -21.8823   -3.8156   23.4382 C   0  0  0  0  0  0
  -21.9199   -4.6946   22.3421 C   0  0  0  0  0  0
  -22.7885  -13.5221   21.1893 C   0  0  0  0  0  0
  -22.1683   -4.2141   21.0997 F   0  0  0  0  0  0
  -21.5626   -3.4578   25.7758 F   0  0  0  0  0  0
  -30.0202  -13.4204   20.4473 N   0  0  0  0  0  0
  -26.3042  -12.9379   20.3447 N   0  0  0  0  0  0
  -25.9364  -11.6518   20.5793 N   0  0  0  0  0  0
  -22.0616  -12.8136   22.0460 N   0  0  0  0  0  0
  -25.4308  -15.1901   20.4222 N   0  0  0  0  0  0
  -31.7915  -14.7973   20.1046 O   0  0  0  0  0  0
  -21.6681   -6.8890   21.4241 O   0  0  0  0  0  0
  -22.3532  -14.5541   20.6791 O   0  0  0  0  0  0
  -24.6286  -31.8633   23.2052 C   0  0  0  0  0  0
  -25.9138  -32.4800   23.8399 C   0  0  1  0  0  0
  -27.2341  -27.3073   20.1229 C   0  0  0  0  0  0
  -25.5913  -33.8608   24.2318 N   0  0  0  0  0  0
  -23.4251  -30.4857   21.5497 C   0  0  2  0  0  0
  -24.8723  -28.9401   20.1234 C   0  0  0  0  0  0
  -22.7486  -29.4672   22.4941 C   0  0  0  0  0  0
  -18.0319  -28.1429   22.8413 C   0  0  0  0  0  0
  -24.1500  -36.7308   23.2642 C   0  0  0  0  0  0
  -25.9660  -30.7851   21.3844 C   0  0  0  0  0  0
  -26.0396  -29.4083   20.7336 C   0  0  0  0  0  0
  -27.2198  -28.6063   20.7245 C   0  0  0  0  0  0
  -26.0468  -26.9185   19.4579 C   0  0  0  0  0  0
  -24.8771  -27.6950   19.4818 C   0  0  0  0  0  0
  -23.6412  -29.8220   20.1689 C   0  0  0  0  0  0
  -25.4115  -36.3096   24.0357 C   0  0  1  0  0  0
  -20.5943  -28.3658   23.1198 C   0  0  2  0  0  0
  -20.6835  -26.9449   22.5187 C   0  0  0  0  0  0
  -19.5826  -26.6641   21.4919 C   0  0  0  0  0  0
  -18.2003  -26.8047   22.1399 C   0  0  0  0  0  0
  -19.1604  -28.8821   23.2869 C   0  0  0  0  0  0
  -18.9585  -30.1414   23.8944 C   0  0  0  0  0  0
  -17.6586  -30.6556   24.0660 C   0  0  0  0  0  0
  -25.9012  -34.9451   23.5117 C   0  0  0  0  0  0
  -16.5440  -29.9129   23.6352 C   0  0  0  0  0  0
  -16.7312  -28.6563   23.0305 C   0  0  0  0  0  0
  -26.4494  -31.6603   25.0754 C   0  0  0  0  0  0
  -25.3723  -31.3739   26.1471 C   0  0  0  0  0  0
  -27.0343  -30.3023   24.6252 C   0  0  0  0  0  0
  -27.6073  -32.4303   25.7517 C   0  0  0  0  0  0
  -27.5571  -37.1832   24.8448 C   0  0  0  0  0  0
  -21.4190  -29.3159   22.3672 N   0  0  0  0  0  0
  -26.4293  -37.3785   23.9377 N   0  0  0  0  0  0
  -24.6929  -31.0615   22.1017 N   0  0  0  0  0  0
  -23.4128  -28.8133   23.3030 O   0  0  0  0  0  0
  -28.3603  -26.4601   20.1126 O   0  0  0  0  0  0
  -26.5585  -34.8918   22.4670 O   0  0  0  0  0  0
  -23.5465  -32.1402   23.7406 O   0  0  0  0  0  0
  -29.8354  -19.1063   19.2819 C   0  0  0  0  0  0
  -29.9382  -18.0641   21.8611 C   0  0  0  0  0  0
  -29.8466  -20.0464   20.3480 C   0  0  0  0  0  0
  -29.9202  -17.6950   19.4797 C   0  0  0  0  0  0
  -29.9180  -19.4860   21.6595 C   0  0  0  0  0  0
  -29.9740  -17.1270   20.7876 C   0  0  0  0  0  0
  -27.4981  -22.6889   20.3065 C   0  0  0  0  0  0
  -25.5334  -19.6767   21.3431 C   0  0  0  0  0  0
  -26.5186  -21.7776   20.5098 C   0  0  0  0  0  0
  -26.6005  -20.4076   20.9917 C   0  0  0  0  0  0
  -27.1973  -24.1366   19.9291 C   0  0  0  0  0  0
  -29.4590  -24.0609   20.4682 C   0  0  0  0  0  0
  -28.2404  -25.0471   20.5922 C   0  0  1  0  0  0
  -29.9207  -16.8115   18.2494 C   0  0  0  0  0  0
  -29.9324  -20.4035   22.8709 C   0  0  0  0  0  0
  -29.8782  -21.5920   20.0048 C   0  0  0  0  0  0
  -29.9186  -15.6808   21.0526 N   0  0  0  0  0  0
  -28.9708  -22.6315   20.6566 N   0  3  2  0  0  0
  -31.4646  -12.5287   19.1383 H   0  0  0  0  0  0
  -30.3451  -11.4067   19.8792 H   0  0  0  0  0  0
  -29.7480  -11.7933   17.4654 H   0  0  0  0  0  0
  -29.6195  -13.5125   17.7452 H   0  0  0  0  0  0
  -27.8622  -11.3141   18.8678 H   0  0  0  0  0  0
  -27.3554  -12.6129   17.8155 H   0  0  0  0  0  0
  -27.6813  -14.2629   19.5593 H   0  0  0  0  0  0
  -28.7164  -12.0520   21.3942 H   0  0  0  0  0  0
  -28.4507  -13.7047   21.8591 H   0  0  0  0  0  0
  -25.2808   -9.5730   22.4748 H   0  0  0  0  0  0
  -24.0056   -7.4658   22.7505 H   0  0  0  0  0  0
  -21.0846   -8.8782   19.9005 H   0  0  0  0  0  0
  -22.3675  -10.9697   19.6184 H   0  0  0  0  0  0
  -21.2018   -7.6168   23.9676 H   0  0  0  0  0  0
  -21.1459   -6.0583   25.9065 H   0  0  0  0  0  0
  -22.0597   -2.7621   23.2899 H   0  0  0  0  0  0
  -22.4317  -11.9707   22.4618 H   0  0  0  0  0  0
  -21.1267  -13.1113   22.2839 H   0  0  0  0  0  0
  -24.6745  -15.8505   20.5557 H   0  0  0  0  0  0
  -26.2887  -15.6297   20.1110 H   0  0  0  0  0  0
  -26.7171  -32.5478   23.1134 H   0  0  0  0  0  0
  -24.9973  -33.9742   25.0416 H   0  0  0  0  0  0
  -22.7204  -31.3074   21.4056 H   0  0  0  0  0  0
  -23.3745  -35.9646   23.3316 H   0  0  0  0  0  0
  -24.3558  -36.8902   22.2028 H   0  0  0  0  0  0
  -23.7267  -37.6543   23.6624 H   0  0  0  0  0  0
  -26.0854  -31.5543   20.6208 H   0  0  0  0  0  0
  -26.8494  -30.8395   22.0103 H   0  0  0  0  0  0
  -28.1178  -28.9650   21.2109 H   0  0  0  0  0  0
  -25.9941  -26.0149   18.8801 H   0  0  0  0  0  0
  -23.9885  -27.3361   18.9821 H   0  0  0  0  0  0
  -23.7693  -30.5938   19.4116 H   0  0  0  0  0  0
  -22.7623  -29.2466   19.8637 H   0  0  0  0  0  0
  -25.1316  -36.1948   25.0863 H   0  0  0  0  0  0
  -21.0083  -28.3047   24.1308 H   0  0  0  0  0  0
  -20.5641  -26.2202   23.3242 H   0  0  0  0  0  0
  -21.6706  -26.7549   22.0941 H   0  0  0  0  0  0
  -19.6676  -27.3686   20.6604 H   0  0  0  0  0  0
  -19.7014  -25.6665   21.0651 H   0  0  0  0  0  0
  -17.4226  -26.6890   21.3803 H   0  0  0  0  0  0
  -18.0463  -26.0117   22.8711 H   0  0  0  0  0  0
  -19.8098  -30.7174   24.2310 H   0  0  0  0  0  0
  -17.5208  -31.6186   24.5353 H   0  0  0  0  0  0
  -15.5467  -30.3050   23.7690 H   0  0  0  0  0  0
  -15.8689  -28.0892   22.7010 H   0  0  0  0  0  0
  -24.5889  -30.7103   25.7761 H   0  0  0  0  0  0
  -24.8952  -32.2914   26.4916 H   0  0  0  0  0  0
  -25.8065  -30.8875   27.0234 H   0  0  0  0  0  0
  -26.2947  -29.6734   24.1296 H   0  0  0  0  0  0
  -27.3957  -29.7300   25.4807 H   0  0  0  0  0  0
  -27.8832  -30.4227   23.9533 H   0  0  0  0  0  0
  -27.2702  -33.3572   26.2175 H   0  0  0  0  0  0
  -28.3871  -32.6937   25.0345 H   0  0  0  0  0  0
  -28.0765  -31.8394   26.5393 H   0  0  0  0  0  0
  -28.2650  -38.0086   24.7471 H   0  0  0  0  0  0
  -28.1061  -36.2633   24.6357 H   0  0  0  0  0  0
  -27.2278  -37.1530   25.8858 H   0  0  0  0  0  0
  -20.9375  -29.8950   21.6916 H   0  0  0  0  0  0
  -26.0199  -38.2886   24.1353 H   0  0  0  0  0  0
  -29.7816  -19.4842   18.2707 H   0  0  0  0  0  0
  -29.9296  -17.6801   22.8712 H   0  0  0  0  0  0
  -25.6639  -18.6545   21.6819 H   0  0  0  0  0  0
  -24.5222  -20.0595   21.3159 H   0  0  0  0  0  0
  -25.5199  -22.1265   20.2788 H   0  0  0  0  0  0
  -27.5408  -19.9025   21.0655 H   0  0  0  0  0  0
  -26.1928  -24.3904   20.2702 H   0  0  0  0  0  0
  -27.2430  -24.2236   18.8448 H   0  0  0  0  0  0
  -30.2590  -24.3148   21.1617 H   0  0  0  0  0  0
  -29.8819  -24.1553   19.4641 H   0  0  0  0  0  0
  -28.0032  -25.1160   21.6541 H   0  0  0  0  0  0
  -29.1938  -16.0058   18.3529 H   0  0  0  0  0  0
  -30.9105  -16.3801   18.1067 H   0  0  0  0  0  0
  -29.6719  -17.3761   17.3515 H   0  0  0  0  0  0
  -30.0005  -19.8488   23.8102 H   0  0  0  0  0  0
  -29.0113  -20.9856   22.9139 H   0  0  0  0  0  0
  -30.7806  -21.0864   22.8294 H   0  0  0  0  0  0
  -29.7513  -21.6931   18.9263 H   0  0  0  0  0  0
  -30.9093  -21.8962   20.1908 H   0  0  0  0  0  0
  -29.1327  -15.3730   21.6089 H   0  0  0  0  0  0
  -29.0393  -22.4412   21.6438 H   0  0  0  0  0  0
  1 25  1  0  0  0
  1 30  2  0  0  0
  1 87  1  0  0  0
  2  3  1  0  0  0
  2 25  1  0  0  0
  2 89  1  0  0  0
  2 90  1  0  0  0
  3  4  1  0  0  0
  3 91  1  0  0  0
  3 92  1  0  0  0
  4  5  1  0  0  0
  4 93  1  0  0  0
  4 94  1  0  0  0
  5  6  1  0  0  0
  5 26  1  0  0  0
  5 95  1  0  0  0
  6 25  1  0  0  0
  6 96  1  0  0  0
  6 97  1  0  0  0
  7  8  2  0  0  0
  7 26  1  0  0  0
  7 29  1  0  0  0
  8  9  1  0  0  0
  8 22  1  0  0  0
  9 10  1  0  0  0
  9 27  2  0  0  0
 10 11  2  0  0  0
 10 15  1  0  0  0
 11 12  1  0  0  0
 11 98  1  0  0  0
 12 13  2  0  0  0
 12 99  1  0  0  0
 13 14  1  0  0  0
 13 31  1  0  0  0
 14 15  2  0  0  0
 14100  1  0  0  0
 15101  1  0  0  0
 16 17  2  0  0  0
 16 21  1  0  0  0
 16 31  1  0  0  0
 17 18  1  0  0  0
 17102  1  0  0  0
 18 19  2  0  0  0
 18103  1  0  0  0
 19 20  1  0  0  0
 19 24  1  0  0  0
 20 21  2  0  0  0
 20104  1  0  0  0
 21 23  1  0  0  0
 22 28  1  0  0  0
 22 32  2  0  0  0
 26 27  1  0  0  0
 28105  1  0  0  0
 28106  1  0  0  0
 29107  1  0  0  0
 29108  1  0  0  0
 33 34  1  0  0  0
 33 66  1  0  0  0
 33 70  2  0  0  0
 34 36  1  0  0  0
 34 59  1  0  0  0
 34109  1  0  0  0
 35 44  2  0  0  0
 35 45  1  0  0  0
 35 68  1  0  0  0
 36 56  1  0  0  0
 36110  1  0  0  0
 37 39  1  0  0  0
 37 47  1  0  0  0
 37 66  1  0  0  0
 37111  1  0  0  0
 38 43  2  0  0  0
 38 46  1  0  0  0
 38 47  1  0  0  0
 39 64  1  0  0  0
 39 67  2  0  0  0
 40 52  1  0  0  0
 40 53  2  0  0  0
 40 58  1  0  0  0
 41112  1  0  0  0
 41113  1  0  0  0
 41114  1  0  0  0
 41 48  1  0  0  0
 42 43  1  0  0  0
 42 66  1  0  0  0
 42115  1  0  0  0
 42116  1  0  0  0
 43 44  1  0  0  0
 44117  1  0  0  0
 45 46  2  0  0  0
 45118  1  0  0  0
 46119  1  0  0  0
 47120  1  0  0  0
 47121  1  0  0  0
 48 56  1  0  0  0
 48 65  1  0  0  0
 48122  1  0  0  0
 49 50  1  0  0  0
 49 53  1  0  0  0
 49 64  1  0  0  0
 49123  1  0  0  0
 50 51  1  0  0  0
 50124  1  0  0  0
 50125  1  0  0  0
 51 52  1  0  0  0
 51126  1  0  0  0
 51127  1  0  0  0
 52128  1  0  0  0
 52129  1  0  0  0
 53 54  1  0  0  0
 54 55  2  0  0  0
 54130  1  0  0  0
 55 57  1  0  0  0
 55131  1  0  0  0
 56 69  2  0  0  0
 57 58  2  0  0  0
 57132  1  0  0  0
 58133  1  0  0  0
 59 60  1  0  0  0
 59 61  1  0  0  0
 59 62  1  0  0  0
 60134  1  0  0  0
 60135  1  0  0  0
 60136  1  0  0  0
 61137  1  0  0  0
 61138  1  0  0  0
 61139  1  0  0  0
 62140  1  0  0  0
 62141  1  0  0  0
 62142  1  0  0  0
 63 65  1  0  0  0
 63143  1  0  0  0
 63144  1  0  0  0
 63145  1  0  0  0
 64146  1  0  0  0
 65147  1  0  0  0
 68 83  1  0  0  0
 71 73  2  0  0  0
 71 74  1  0  0  0
 71148  1  0  0  0
 72 75  2  0  0  0
 72 76  1  0  0  0
 72149  1  0  0  0
 73 75  1  0  0  0
 73 86  1  0  0  0
 74 76  2  0  0  0
 74 84  1  0  0  0
 75 85  1  0  0  0
 76 87  1  0  0  0
 77 79  2  0  0  0
 77 81  1  0  0  0
 77 88  1  0  0  0
 78 80  2  0  0  0
 78150  1  0  0  0
 78151  1  0  0  0
 79 80  1  0  0  0
 79152  1  0  0  0
 80153  1  0  0  0
 81 83  1  0  0  0
 81154  1  0  0  0
 81155  1  0  0  0
 82 83  1  0  0  0
 82 88  1  0  0  0
 82156  1  0  0  0
 82157  1  0  0  0
 83158  1  0  0  0
 84159  1  0  0  0
 84160  1  0  0  0
 84161  1  0  0  0
 85162  1  0  0  0
 85163  1  0  0  0
 85164  1  0  0  0
 86165  1  0  0  0
 86166  1  0  0  0
 86 88  1  0  0  0
 87167  1  0  0  0
 88168  1  0  0  0
M  CHG  1  88   1
M  ISO  4   1 100  68 101  83 101  87 100
M  END
> <chiral flag>
0

> <version>
0

> <s_m_source_file>
/data/baiqing/PycharmProjects/Reinvent-master-3.2/result/LINK_invent/BTK/process_docking_weight1_custom_product_contain_oxygen_bond_distance_aromatic_linkinvent_7_9_3/rearranged_h_0033.sdf

> <i_m_source_file_index>
44

> <r_mmod_Potential_Energy-OPLS-2005>
37.744457244873

> <r_mmod_Stretch_Energy-OPLS-2005>
88.7967376708984

> <r_mmod_Bend_Energy-OPLS-2005>
202.959548950195

> <r_mmod_Torsional_Energy-OPLS-2005>
265.888031005859

> <r_mmod_Improper_Torsional_Energy-OPLS-2005>
4.04829931259155

> <r_mmod_Van_der_Waal_Energy-OPLS-2005>
141.536010742188

> <r_mmod_Electrostatic_Energy-OPLS-2005>
-288.112609863281

> <r_mmod_Solvation_Energy-OPLS-2005>
-424.594879150391

> <b_mmod_Minimization_Converged-OPLS-2005>
0

> <r_mmod_RMS_Derivative-OPLS-2005>
7.03428268432617

$$$$
44
                    3D
 Structure written by MMmdl.
173182  0  0  1  0            999 V2000
  -30.7013  -14.5367   20.4989 C   0  0  0  0  0  0
  -30.4169  -12.3184   19.4585 C   0  0  0  0  0  0
  -29.5045  -12.4945   18.2244 C   0  0  0  0  0  0
  -28.0214  -12.3664   18.6283 C   0  0  0  0  0  0
  -27.6597  -13.2214   19.8715 C   0  0  2  0  0  0
  -28.7019  -13.0581   21.0047 C   0  0  0  0  0  0
  -25.2564  -13.8176   20.5663 C   0  0  0  0  0  0
  -24.1824  -13.0420   20.9123 C   0  0  0  0  0  0
  -24.6422  -11.6897   20.8682 C   0  0  0  0  0  0
  -23.9081  -10.4264   21.0367 C   0  0  0  0  0  0
  -24.3604   -9.4182   21.9148 C   0  0  0  0  0  0
  -23.6260   -8.2232   22.0739 C   0  0  0  0  0  0
  -22.4232   -8.0278   21.3541 C   0  0  0  0  0  0
  -21.9875   -9.0271   20.4636 C   0  0  0  0  0  0
  -22.7243  -10.2127   20.3024 C   0  0  0  0  0  0
  -21.6855   -6.0730   22.5272 C   0  0  0  0  0  0
  -21.4032   -6.5632   23.8219 C   0  0  0  0  0  0
  -21.3655   -5.6783   24.9162 C   0  0  0  0  0  0
  -21.6028   -4.3034   24.7206 C   0  0  0  0  0  0
  -21.8824   -3.8135   23.4333 C   0  0  0  0  0  0
  -21.9196   -4.6964   22.3387 C   0  0  0  0  0  0
  -22.7855  -13.5207   21.1827 C   0  0  0  0  0  0
  -22.1654   -4.2152   21.0955 F   0  0  0  0  0  0
  -21.5614   -3.4522   25.7725 F   0  0  0  0  0  0
  -30.0352  -13.3456   20.4479 N   0  0  0  0  0  0
  -26.3027  -12.9375   20.3346 N   0  0  0  0  0  0
  -25.9357  -11.6522   20.5732 N   0  0  0  0  0  0
  -22.0508  -12.8198   22.0382 N   0  0  0  0  0  0
  -25.4264  -15.1912   20.4165 N   0  0  0  0  0  0
  -31.8303  -14.6698   20.0250 O   0  0  0  0  0  0
  -21.6597   -6.8886   21.4242 O   0  0  0  0  0  0
  -22.3530  -14.5544   20.6711 O   0  0  0  0  0  0
  -24.6185  -31.8655   23.2098 C   0  0  0  0  0  0
  -25.9070  -32.4804   23.8390 C   0  0  1  0  0  0
  -27.2185  -27.3890   20.0913 C   0  0  0  0  0  0
  -25.5894  -33.8605   24.2309 N   0  0  0  0  0  0
  -23.4076  -30.4975   21.5470 C   0  0  2  0  0  0
  -24.8486  -28.9639   20.1052 C   0  0  0  0  0  0
  -22.7426  -29.4684   22.4912 C   0  0  0  0  0  0
  -18.0283  -28.1408   22.8493 C   0  0  0  0  0  0
  -24.1479  -36.7307   23.2639 C   0  0  0  0  0  0
  -25.9422  -30.8161   21.3721 C   0  0  0  0  0  0
  -26.0113  -29.4496   20.7147 C   0  0  0  0  0  0
  -27.1925  -28.6678   20.7104 C   0  0  0  0  0  0
  -26.0354  -26.9449   19.4513 C   0  0  0  0  0  0
  -24.8594  -27.7150   19.4695 C   0  0  0  0  0  0
  -23.6175  -29.8400   20.1577 C   0  0  0  0  0  0
  -25.4096  -36.3099   24.0342 C   0  0  1  0  0  0
  -20.5878  -28.3709   23.1285 C   0  0  2  0  0  0
  -20.6761  -26.9435   22.5414 C   0  0  0  0  0  0
  -19.5740  -26.6410   21.5209 C   0  0  0  0  0  0
  -18.1923  -26.7953   22.1628 C   0  0  0  0  0  0
  -19.1533  -28.8870   23.2897 C   0  0  0  0  0  0
  -18.9462  -30.1463   23.8925 C   0  0  0  0  0  0
  -17.6466  -30.6603   24.0589 C   0  0  0  0  0  0
  -25.9032  -34.9468   23.5128 C   0  0  0  0  0  0
  -16.5357  -29.9117   23.6332 C   0  0  0  0  0  0
  -16.7275  -28.6541   23.0340 C   0  0  0  0  0  0
  -26.4493  -31.6600   25.0733 C   0  0  0  0  0  0
  -25.3759  -31.3731   26.1486 C   0  0  0  0  0  0
  -27.0306  -30.3020   24.6146 C   0  0  0  0  0  0
  -27.6071  -32.4331   25.7478 C   0  0  0  0  0  0
  -27.5592  -37.1789   24.8451 C   0  0  0  0  0  0
  -21.4148  -29.3068   22.3666 N   0  0  0  0  0  0
  -26.4266  -37.3803   23.9440 N   0  0  0  0  0  0
  -24.6744  -31.0748   22.1008 N   0  0  0  0  0  0
  -23.4187  -28.8196   23.2945 O   0  0  0  0  0  0
  -28.3866  -26.6359   20.1572 O   0  0  0  0  0  0
  -26.5612  -34.8940   22.4699 O   0  0  0  0  0  0
  -23.5369  -32.1413   23.7480 O   0  0  0  0  0  0
  -31.0618  -20.8167   21.7610 C   0  0  0  0  0  0
  -29.4033  -19.3035   20.8372 C   0  0  0  0  0  0
  -29.7572  -20.6035   21.2930 C   0  0  0  0  0  0
  -32.0335  -19.8044   21.6894 C   0  0  0  0  0  0
  -30.3647  -18.2488   20.7586 C   0  0  0  0  0  0
  -31.7065  -18.5359   21.1397 C   0  0  0  0  0  0
  -29.1453  -24.3173   20.6532 C   0  0  0  0  0  0
  -29.6697  -24.7292   21.8241 C   0  0  0  0  0  0
  -29.0985  -24.3469   17.2856 C   0  0  0  0  0  0
  -29.5950  -22.9835   17.7587 C   0  0  0  0  0  0
  -29.2765  -25.4541   18.3286 C   0  0  0  0  0  0
  -28.7515  -22.4154   18.9089 C   0  0  0  0  0  0
  -28.4738  -25.2792   19.6387 C   0  0  2  0  0  0
  -33.4281  -20.1463   22.1939 C   0  0  0  0  0  0
  -32.8081  -17.5148   20.8914 C   0  0  0  0  0  0
  -29.9607  -16.9024   20.0942 C   0  0  0  0  0  0
  -28.8008  -21.8133   21.2772 C   0  0  0  0  0  0
  -29.9708  -15.6221   20.8568 N   0  0  0  0  0  0
  -29.2251  -22.8327   20.2569 N   0  3  2  0  0  0
  -31.4690  -12.3746   19.1699 H   0  0  0  0  0  0
  -30.2789  -11.3228   19.8838 H   0  0  0  0  0  0
  -29.7496  -11.7516   17.4661 H   0  0  0  0  0  0
  -29.6827  -13.4672   17.7644 H   0  0  0  0  0  0
  -27.8234  -11.3146   18.8335 H   0  0  0  0  0  0
  -27.3826  -12.6377   17.7878 H   0  0  0  0  0  0
  -27.6843  -14.2609   19.5438 H   0  0  0  0  0  0
  -28.6773  -12.0412   21.3975 H   0  0  0  0  0  0
  -28.4665  -13.7097   21.8489 H   0  0  0  0  0  0
  -25.2769   -9.5627   22.4701 H   0  0  0  0  0  0
  -23.9979   -7.4604   22.7441 H   0  0  0  0  0  0
  -21.0813   -8.8782   19.8955 H   0  0  0  0  0  0
  -22.3718  -10.9640   19.6094 H   0  0  0  0  0  0
  -21.2045   -7.6147   23.9725 H   0  0  0  0  0  0
  -21.1476   -6.0488   25.9070 H   0  0  0  0  0  0
  -22.0618   -2.7610   23.2805 H   0  0  0  0  0  0
  -22.4106  -11.9845   22.4755 H   0  0  0  0  0  0
  -21.1145  -13.1255   22.2670 H   0  0  0  0  0  0
  -24.6555  -15.8395   20.5183 H   0  0  0  0  0  0
  -26.2890  -15.6435   20.1414 H   0  0  0  0  0  0
  -26.7132  -32.5503   23.1141 H   0  0  0  0  0  0
  -25.0023  -33.9751   25.0435 H   0  0  0  0  0  0
  -22.7008  -31.3185   21.4122 H   0  0  0  0  0  0
  -23.3756  -35.9620   23.3252 H   0  0  0  0  0  0
  -24.3605  -36.8967   22.2068 H   0  0  0  0  0  0
  -23.7198  -37.6486   23.6677 H   0  0  0  0  0  0
  -26.0666  -31.5851   20.6081 H   0  0  0  0  0  0
  -26.8272  -30.8616   21.9955 H   0  0  0  0  0  0
  -28.0853  -29.0341   21.1978 H   0  0  0  0  0  0
  -25.9658  -26.0129   18.9151 H   0  0  0  0  0  0
  -23.9704  -27.3463   18.9762 H   0  0  0  0  0  0
  -23.7352  -30.6200   19.4046 H   0  0  0  0  0  0
  -22.7374  -29.2711   19.8529 H   0  0  0  0  0  0
  -25.1261  -36.1955   25.0829 H   0  0  0  0  0  0
  -21.0008  -28.3299   24.1390 H   0  0  0  0  0  0
  -20.5653  -26.2330   23.3619 H   0  0  0  0  0  0
  -21.6635  -26.7460   22.1221 H   0  0  0  0  0  0
  -19.6899  -25.6324   21.1233 H   0  0  0  0  0  0
  -19.6664  -27.3228   20.6745 H   0  0  0  0  0  0
  -17.4188  -26.6714   21.4030 H   0  0  0  0  0  0
  -18.0322  -26.0091   22.9027 H   0  0  0  0  0  0
  -19.7935  -30.7270   24.2311 H   0  0  0  0  0  0
  -17.5027  -31.6283   24.5201 H   0  0  0  0  0  0
  -15.5360  -30.3035   23.7638 H   0  0  0  0  0  0
  -15.8676  -28.0883   22.7017 H   0  0  0  0  0  0
  -24.5892  -30.7122   25.7826 H   0  0  0  0  0  0
  -24.9008  -32.2904   26.4980 H   0  0  0  0  0  0
  -25.8116  -30.8856   27.0218 H   0  0  0  0  0  0
  -26.2834  -29.6786   24.1216 H   0  0  0  0  0  0
  -27.4046  -29.7277   25.4636 H   0  0  0  0  0  0
  -27.8706  -30.4303   23.9311 H   0  0  0  0  0  0
  -27.2675  -33.3612   26.2102 H   0  0  0  0  0  0
  -28.3846  -32.6933   25.0273 H   0  0  0  0  0  0
  -28.0784  -31.8431   26.5354 H   0  0  0  0  0  0
  -28.2553  -38.0143   24.7595 H   0  0  0  0  0  0
  -28.1131  -36.2689   24.6116 H   0  0  0  0  0  0
  -27.2351  -37.1269   25.8858 H   0  0  0  0  0  0
  -20.9290  -29.8818   21.6921 H   0  0  0  0  0  0
  -26.0149  -38.2860   24.1502 H   0  0  0  0  0  0
  -31.3303  -21.7847   22.1615 H   0  0  0  0  0  0
  -28.3925  -19.1217   20.4999 H   0  0  0  0  0  0
  -29.6214  -25.7697   22.1154 H   0  0  0  0  0  0
  -30.1542  -24.0617   22.5204 H   0  0  0  0  0  0
  -28.0507  -24.2795   16.9852 H   0  0  0  0  0  0
  -29.6429  -24.6190   16.3802 H   0  0  0  0  0  0
  -30.6571  -23.0147   18.0147 H   0  0  0  0  0  0
  -29.5146  -22.2975   16.9137 H   0  0  0  0  0  0
  -28.9536  -26.3783   17.8500 H   0  0  0  0  0  0
  -30.3350  -25.6008   18.5503 H   0  0  0  0  0  0
  -28.8427  -21.3310   18.8377 H   0  0  0  0  0  0
  -27.6871  -22.6217   18.7809 H   0  0  0  0  0  0
  -27.5000  -24.8438   19.4424 H   0  0  0  0  0  0
  -33.3867  -20.9453   22.9351 H   0  0  0  0  0  0
  -34.0679  -20.4835   21.3770 H   0  0  0  0  0  0
  -33.8985  -19.2962   22.6858 H   0  0  0  0  0  0
  -32.7062  -16.6669   21.5682 H   0  0  0  0  0  0
  -32.7567  -17.1627   19.8629 H   0  0  0  0  0  0
  -33.8155  -17.9134   21.0002 H   0  0  0  0  0  0
  -30.5570  -16.8025   19.1878 H   0  0  0  0  0  0
  -28.9376  -17.0079   19.7292 H   0  0  0  0  0  0
  -28.7972  -22.2375   22.2807 H   0  0  0  0  0  0
  -27.7724  -21.4923   21.0992 H   0  0  0  0  0  0
  -29.1068  -15.4013   21.3232 H   0  0  0  0  0  0
  -30.2126  -22.6362   20.2096 H   0  0  0  0  0  0
  1 25  1  0  0  0
  1 30  2  0  0  0
  1 88  1  0  0  0
  2  3  1  0  0  0
  2 25  1  0  0  0
  2 90  1  0  0  0
  2 91  1  0  0  0
  3  4  1  0  0  0
  3 92  1  0  0  0
  3 93  1  0  0  0
  4  5  1  0  0  0
  4 94  1  0  0  0
  4 95  1  0  0  0
  5  6  1  0  0  0
  5 26  1  0  0  0
  5 96  1  0  0  0
  6 25  1  0  0  0
  6 97  1  0  0  0
  6 98  1  0  0  0
  7  8  2  0  0  0
  7 26  1  0  0  0
  7 29  1  0  0  0
  8  9  1  0  0  0
  8 22  1  0  0  0
  9 10  1  0  0  0
  9 27  2  0  0  0
 10 11  2  0  0  0
 10 15  1  0  0  0
 11 12  1  0  0  0
 11 99  1  0  0  0
 12 13  2  0  0  0
 12100  1  0  0  0
 13 14  1  0  0  0
 13 31  1  0  0  0
 14 15  2  0  0  0
 14101  1  0  0  0
 15102  1  0  0  0
 16 17  2  0  0  0
 16 21  1  0  0  0
 16 31  1  0  0  0
 17 18  1  0  0  0
 17103  1  0  0  0
 18 19  2  0  0  0
 18104  1  0  0  0
 19 20  1  0  0  0
 19 24  1  0  0  0
 20 21  2  0  0  0
 20105  1  0  0  0
 21 23  1  0  0  0
 22 28  1  0  0  0
 22 32  2  0  0  0
 26 27  1  0  0  0
 28106  1  0  0  0
 28107  1  0  0  0
 29108  1  0  0  0
 29109  1  0  0  0
 33 34  1  0  0  0
 33 66  1  0  0  0
 33 70  2  0  0  0
 34 36  1  0  0  0
 34 59  1  0  0  0
 34110  1  0  0  0
 35 44  2  0  0  0
 35 45  1  0  0  0
 35 68  1  0  0  0
 36 56  1  0  0  0
 36111  1  0  0  0
 37 39  1  0  0  0
 37 47  1  0  0  0
 37 66  1  0  0  0
 37112  1  0  0  0
 38 43  2  0  0  0
 38 46  1  0  0  0
 38 47  1  0  0  0
 39 64  1  0  0  0
 39 67  2  0  0  0
 40 52  1  0  0  0
 40 53  2  0  0  0
 40 58  1  0  0  0
 41113  1  0  0  0
 41114  1  0  0  0
 41115  1  0  0  0
 41 48  1  0  0  0
 42 43  1  0  0  0
 42 66  1  0  0  0
 42116  1  0  0  0
 42117  1  0  0  0
 43 44  1  0  0  0
 44118  1  0  0  0
 45 46  2  0  0  0
 45119  1  0  0  0
 46120  1  0  0  0
 47121  1  0  0  0
 47122  1  0  0  0
 48 56  1  0  0  0
 48 65  1  0  0  0
 48123  1  0  0  0
 49 50  1  0  0  0
 49 53  1  0  0  0
 49 64  1  0  0  0
 49124  1  0  0  0
 50 51  1  0  0  0
 50125  1  0  0  0
 50126  1  0  0  0
 51 52  1  0  0  0
 51127  1  0  0  0
 51128  1  0  0  0
 52129  1  0  0  0
 52130  1  0  0  0
 53 54  1  0  0  0
 54 55  2  0  0  0
 54131  1  0  0  0
 55 57  1  0  0  0
 55132  1  0  0  0
 56 69  2  0  0  0
 57 58  2  0  0  0
 57133  1  0  0  0
 58134  1  0  0  0
 59 60  1  0  0  0
 59 61  1  0  0  0
 59 62  1  0  0  0
 60135  1  0  0  0
 60136  1  0  0  0
 60137  1  0  0  0
 61138  1  0  0  0
 61139  1  0  0  0
 61140  1  0  0  0
 62141  1  0  0  0
 62142  1  0  0  0
 62143  1  0  0  0
 63 65  1  0  0  0
 63144  1  0  0  0
 63145  1  0  0  0
 63146  1  0  0  0
 64147  1  0  0  0
 65148  1  0  0  0
 68 83  1  0  0  0
 71 73  2  0  0  0
 71 74  1  0  0  0
 71149  1  0  0  0
 72 73  1  0  0  0
 72 75  2  0  0  0
 72150  1  0  0  0
 73 87  1  0  0  0
 74 76  2  0  0  0
 74 84  1  0  0  0
 75 76  1  0  0  0
 75 86  1  0  0  0
 76 85  1  0  0  0
 77 78  2  0  0  0
 77 83  1  0  0  0
 77 89  1  0  0  0
 78151  1  0  0  0
 78152  1  0  0  0
 79 80  1  0  0  0
 79 81  1  0  0  0
 79153  1  0  0  0
 79154  1  0  0  0
 80 82  1  0  0  0
 80155  1  0  0  0
 80156  1  0  0  0
 81 83  1  0  0  0
 81157  1  0  0  0
 81158  1  0  0  0
 82 89  1  0  0  0
 82159  1  0  0  0
 82160  1  0  0  0
 83161  1  0  0  0
 84162  1  0  0  0
 84163  1  0  0  0
 84164  1  0  0  0
 85165  1  0  0  0
 85166  1  0  0  0
 85167  1  0  0  0
 86 88  1  0  0  0
 86168  1  0  0  0
 86169  1  0  0  0
 87170  1  0  0  0
 87171  1  0  0  0
 87 89  1  0  0  0
 88172  1  0  0  0
 89173  1  0  0  0
M  CHG  1  89   1
M  ISO  4   1 100  68 101  83 101  88 100
M  END
> <chiral flag>
0

> <version>
0

> <s_m_source_file>
/data/baiqing/PycharmProjects/Reinvent-master-3.2/result/LINK_invent/BTK/process_docking_weight1_custom_product_contain_oxygen_bond_distance_aromatic_linkinvent_7_9_3/rearranged_h_0033.sdf

> <i_m_source_file_index>
45

> <r_mmod_Potential_Energy-OPLS-2005>
-120.996116638184

> <r_mmod_Stretch_Energy-OPLS-2005>
57.9679489135742

> <r_mmod_Bend_Energy-OPLS-2005>
146.021621704102

> <r_mmod_Torsional_Energy-OPLS-2005>
235.920623779297

> <r_mmod_Improper_Torsional_Energy-OPLS-2005>
9.06985378265381

> <r_mmod_Van_der_Waal_Energy-OPLS-2005>
158.540771484375

> <r_mmod_Electrostatic_Energy-OPLS-2005>
-332.904174804688

> <r_mmod_Solvation_Energy-OPLS-2005>
-420.277313232422

> <b_mmod_Minimization_Converged-OPLS-2005>
0

> <r_mmod_RMS_Derivative-OPLS-2005>
4.10667371749878

$$$$
45
                    3D
 Structure written by MMmdl.
167175  0  0  1  0            999 V2000
  -30.6727  -14.6078   20.4288 C   0  0  0  0  0  0
  -30.4281  -12.3584   19.4531 C   0  0  0  0  0  0
  -29.4940  -12.4416   18.2238 C   0  0  0  0  0  0
  -28.0185  -12.3172   18.6411 C   0  0  0  0  0  0
  -27.6478  -13.2181   19.8488 C   0  0  2  0  0  0
  -28.6991  -13.1159   20.9784 C   0  0  0  0  0  0
  -25.2543  -13.8200   20.5696 C   0  0  0  0  0  0
  -24.1803  -13.0472   20.9201 C   0  0  0  0  0  0
  -24.6365  -11.6939   20.8757 C   0  0  0  0  0  0
  -23.9031  -10.4313   21.0399 C   0  0  0  0  0  0
  -24.3591   -9.4223   21.9170 C   0  0  0  0  0  0
  -23.6268   -8.2261   22.0749 C   0  0  0  0  0  0
  -22.4248   -8.0298   21.3547 C   0  0  0  0  0  0
  -21.9876   -9.0260   20.4646 C   0  0  0  0  0  0
  -22.7201  -10.2145   20.3043 C   0  0  0  0  0  0
  -21.6861   -6.0737   22.5270 C   0  0  0  0  0  0
  -21.4036   -6.5639   23.8205 C   0  0  0  0  0  0
  -21.3650   -5.6785   24.9159 C   0  0  0  0  0  0
  -21.6038   -4.3050   24.7206 C   0  0  0  0  0  0
  -21.8828   -3.8143   23.4330 C   0  0  0  0  0  0
  -21.9198   -4.6967   22.3390 C   0  0  0  0  0  0
  -22.7818  -13.5264   21.1831 C   0  0  0  0  0  0
  -22.1663   -4.2161   21.0965 F   0  0  0  0  0  0
  -21.5603   -3.4525   25.7717 F   0  0  0  0  0  0
  -30.0150  -13.4105   20.3972 N   0  0  0  0  0  0
  -26.2960  -12.9388   20.3294 N   0  0  0  0  0  0
  -25.9294  -11.6547   20.5785 N   0  0  0  0  0  0
  -22.0457  -12.8264   22.0397 N   0  0  0  0  0  0
  -25.4274  -15.1922   20.4106 N   0  0  0  0  0  0
  -31.8827  -14.6777   20.2072 O   0  0  0  0  0  0
  -21.6641   -6.8873   21.4230 O   0  0  0  0  0  0
  -22.3505  -14.5550   20.6646 O   0  0  0  0  0  0
  -24.6203  -31.8648   23.2056 C   0  0  0  0  0  0
  -25.9070  -32.4807   23.8365 C   0  0  1  0  0  0
  -27.2254  -27.3780   20.1087 C   0  0  0  0  0  0
  -25.5911  -33.8607   24.2302 N   0  0  0  0  0  0
  -23.4112  -30.4870   21.5481 C   0  0  2  0  0  0
  -24.8573  -28.9475   20.1124 C   0  0  0  0  0  0
  -22.7451  -29.4635   22.4972 C   0  0  0  0  0  0
  -18.0285  -28.1393   22.8486 C   0  0  0  0  0  0
  -24.1492  -36.7301   23.2633 C   0  0  0  0  0  0
  -25.9462  -30.8135   21.3667 C   0  0  0  0  0  0
  -26.0226  -29.4443   20.7116 C   0  0  0  0  0  0
  -27.2134  -28.6697   20.7007 C   0  0  0  0  0  0
  -26.0470  -26.9210   19.4821 C   0  0  0  0  0  0
  -24.8678  -27.6878   19.4910 C   0  0  0  0  0  0
  -23.6219  -29.8200   20.1630 C   0  0  0  0  0  0
  -25.4116  -36.3102   24.0329 C   0  0  1  0  0  0
  -20.5880  -28.3678   23.1312 C   0  0  2  0  0  0
  -20.6781  -26.9406   22.5421 C   0  0  0  0  0  0
  -19.5751  -26.6388   21.5223 C   0  0  0  0  0  0
  -18.1929  -26.7940   22.1628 C   0  0  0  0  0  0
  -19.1540  -28.8854   23.2894 C   0  0  0  0  0  0
  -18.9456  -30.1461   23.8907 C   0  0  0  0  0  0
  -17.6454  -30.6587   24.0572 C   0  0  0  0  0  0
  -25.9041  -34.9465   23.5118 C   0  0  0  0  0  0
  -16.5350  -29.9086   23.6328 C   0  0  0  0  0  0
  -16.7276  -28.6512   23.0339 C   0  0  0  0  0  0
  -26.4476  -31.6598   25.0708 C   0  0  0  0  0  0
  -25.3725  -31.3729   26.1445 C   0  0  0  0  0  0
  -27.0296  -30.3030   24.6104 C   0  0  0  0  0  0
  -27.6056  -32.4316   25.7473 C   0  0  0  0  0  0
  -27.5588  -37.1805   24.8461 C   0  0  0  0  0  0
  -21.4168  -29.3037   22.3717 N   0  0  0  0  0  0
  -26.4304  -37.3781   23.9401 N   0  0  0  0  0  0
  -24.6776  -31.0698   22.0979 N   0  0  0  0  0  0
  -23.4194  -28.8179   23.3032 O   0  0  0  0  0  0
  -28.3540  -26.5682   20.1287 O   0  0  0  0  0  0
  -26.5597  -34.8924   22.4676 O   0  0  0  0  0  0
  -23.5378  -32.1420   23.7415 O   0  0  0  0  0  0
  -30.8742  -18.5159   18.0297 C   0  0  0  0  0  0
  -29.5580  -18.2225   20.4571 C   0  0  0  0  0  0
  -30.3040  -19.6583   18.6223 C   0  0  0  0  0  0
  -30.7579  -17.2280   18.5859 C   0  0  0  0  0  0
  -29.6357  -19.5303   19.8658 C   0  0  0  0  0  0
  -30.1139  -17.0443   19.8504 C   0  0  0  0  0  0
  -31.3189  -21.2867   16.9926 C   0  0  0  0  0  0
  -30.4044  -20.9519   17.9221 C   0  0  0  0  0  0
  -29.8843  -23.2085   20.8173 C   0  0  0  0  0  0
  -31.2910  -16.1027   17.7109 C   0  0  0  0  0  0
  -29.6169  -24.5447   18.6632 C   0  0  0  0  0  0
  -30.7781  -21.2987   22.0483 C   0  0  0  0  0  0
  -28.9497  -20.7801   20.5112 C   0  0  0  0  0  0
  -28.1710  -25.2122   20.6549 C   0  0  0  0  0  0
  -28.8847  -24.0095   19.9125 C   0  0  2  0  0  0
  -29.9002  -15.7341   20.4704 N   0  0  0  0  0  0
  -29.8442  -21.8473   21.0515 N   0  0  0  0  0  0
  -30.7653  -23.8918   21.3526 O   0  0  0  0  0  0
  -31.4673  -12.4675   19.1396 H   0  0  0  0  0  0
  -30.3614  -11.3803   19.9314 H   0  0  0  0  0  0
  -29.7453  -11.6579   17.5080 H   0  0  0  0  0  0
  -29.6349  -13.3792   17.6944 H   0  0  0  0  0  0
  -27.8400  -11.2700   18.8891 H   0  0  0  0  0  0
  -27.3700  -12.5432   17.7937 H   0  0  0  0  0  0
  -27.6574  -14.2424   19.4757 H   0  0  0  0  0  0
  -28.6996  -12.1151   21.4150 H   0  0  0  0  0  0
  -28.4669  -13.8074   21.7894 H   0  0  0  0  0  0
  -25.2741   -9.5708   22.4731 H   0  0  0  0  0  0
  -24.0000   -7.4646   22.7455 H   0  0  0  0  0  0
  -21.0815   -8.8741   19.8940 H   0  0  0  0  0  0
  -22.3638  -10.9663   19.6138 H   0  0  0  0  0  0
  -21.2061   -7.6152   23.9709 H   0  0  0  0  0  0
  -21.1449   -6.0515   25.9057 H   0  0  0  0  0  0
  -22.0620   -2.7611   23.2817 H   0  0  0  0  0  0
  -22.4080  -11.9950   22.4816 H   0  0  0  0  0  0
  -21.1063  -13.1282   22.2575 H   0  0  0  0  0  0
  -24.6628  -15.8485   20.5204 H   0  0  0  0  0  0
  -26.2733  -15.6272   20.0652 H   0  0  0  0  0  0
  -26.7142  -32.5498   23.1124 H   0  0  0  0  0  0
  -25.0100  -33.9759   25.0477 H   0  0  0  0  0  0
  -22.7015  -31.3048   21.4073 H   0  0  0  0  0  0
  -23.3760  -35.9628   23.3306 H   0  0  0  0  0  0
  -24.3585  -36.8908   22.2045 H   0  0  0  0  0  0
  -23.7244  -37.6508   23.6646 H   0  0  0  0  0  0
  -26.0642  -31.5766   20.5961 H   0  0  0  0  0  0
  -26.8327  -30.8677   21.9871 H   0  0  0  0  0  0
  -28.1124  -29.0442   21.1695 H   0  0  0  0  0  0
  -26.0352  -25.9600   18.9864 H   0  0  0  0  0  0
  -23.9748  -27.3038   19.0159 H   0  0  0  0  0  0
  -23.7347  -30.5951   19.4042 H   0  0  0  0  0  0
  -22.7433  -29.2437   19.8656 H   0  0  0  0  0  0
  -25.1296  -36.1969   25.0823 H   0  0  0  0  0  0
  -20.9972  -28.3259   24.1433 H   0  0  0  0  0  0
  -20.5710  -26.2277   23.3611 H   0  0  0  0  0  0
  -21.6651  -26.7456   22.1200 H   0  0  0  0  0  0
  -19.6906  -25.6303   21.1245 H   0  0  0  0  0  0
  -19.6699  -27.3210   20.6762 H   0  0  0  0  0  0
  -17.4203  -26.6703   21.4025 H   0  0  0  0  0  0
  -18.0307  -26.0087   22.9025 H   0  0  0  0  0  0
  -19.7928  -30.7284   24.2278 H   0  0  0  0  0  0
  -17.5001  -31.6267   24.5176 H   0  0  0  0  0  0
  -15.5349  -30.2985   23.7644 H   0  0  0  0  0  0
  -15.8679  -28.0833   22.7032 H   0  0  0  0  0  0
  -24.5893  -30.7082   25.7781 H   0  0  0  0  0  0
  -24.8918  -32.2894   26.4873 H   0  0  0  0  0  0
  -25.8053  -30.8907   27.0214 H   0  0  0  0  0  0
  -26.2835  -29.6805   24.1144 H   0  0  0  0  0  0
  -27.4042  -29.7258   25.4566 H   0  0  0  0  0  0
  -27.8685  -30.4341   23.9266 H   0  0  0  0  0  0
  -27.2679  -33.3617   26.2058 H   0  0  0  0  0  0
  -28.3854  -32.6870   25.0289 H   0  0  0  0  0  0
  -28.0723  -31.8427   26.5378 H   0  0  0  0  0  0
  -28.2608  -38.0099   24.7509 H   0  0  0  0  0  0
  -28.1088  -36.2633   24.6296 H   0  0  0  0  0  0
  -27.2300  -37.1461   25.8861 H   0  0  0  0  0  0
  -20.9339  -29.8757   21.6932 H   0  0  0  0  0  0
  -26.0199  -38.2862   24.1402 H   0  0  0  0  0  0
  -31.3593  -18.6153   17.0698 H   0  0  0  0  0  0
  -29.0344  -18.1207   21.3975 H   0  0  0  0  0  0
  -31.2879  -22.2560   16.5152 H   0  0  0  0  0  0
  -32.1101  -20.6171   16.6886 H   0  0  0  0  0  0
  -29.6467  -21.6809   18.1536 H   0  0  0  0  0  0
  -31.3165  -16.3946   16.6605 H   0  0  0  0  0  0
  -30.6572  -15.2252   17.7595 H   0  0  0  0  0  0
  -32.3091  -15.8366   17.9946 H   0  0  0  0  0  0
  -30.2056  -23.7807   18.1610 H   0  0  0  0  0  0
  -30.3081  -25.3476   18.9226 H   0  0  0  0  0  0
  -28.9064  -24.9414   17.9371 H   0  0  0  0  0  0
  -30.8264  -21.9219   22.9439 H   0  0  0  0  0  0
  -31.7820  -21.2235   21.6287 H   0  0  0  0  0  0
  -30.4892  -20.3043   22.3906 H   0  0  0  0  0  0
  -28.3269  -20.4372   21.3382 H   0  0  0  0  0  0
  -28.2359  -21.1842   19.7968 H   0  0  0  0  0  0
  -28.5135  -25.2564   21.6887 H   0  0  0  0  0  0
  -27.1153  -24.9563   20.7503 H   0  0  0  0  0  0
  -28.1093  -23.3283   19.5701 H   0  0  0  0  0  0
  -28.9837  -15.5914   20.8681 H   0  0  0  0  0  0
  1 25  1  0  0  0
  1 30  2  0  0  0
  1 86  1  0  0  0
  2  3  1  0  0  0
  2 25  1  0  0  0
  2 89  1  0  0  0
  2 90  1  0  0  0
  3  4  1  0  0  0
  3 91  1  0  0  0
  3 92  1  0  0  0
  4  5  1  0  0  0
  4 93  1  0  0  0
  4 94  1  0  0  0
  5  6  1  0  0  0
  5 26  1  0  0  0
  5 95  1  0  0  0
  6 25  1  0  0  0
  6 96  1  0  0  0
  6 97  1  0  0  0
  7  8  2  0  0  0
  7 26  1  0  0  0
  7 29  1  0  0  0
  8  9  1  0  0  0
  8 22  1  0  0  0
  9 10  1  0  0  0
  9 27  2  0  0  0
 10 11  2  0  0  0
 10 15  1  0  0  0
 11 12  1  0  0  0
 11 98  1  0  0  0
 12 13  2  0  0  0
 12 99  1  0  0  0
 13 14  1  0  0  0
 13 31  1  0  0  0
 14 15  2  0  0  0
 14100  1  0  0  0
 15101  1  0  0  0
 16 17  2  0  0  0
 16 21  1  0  0  0
 16 31  1  0  0  0
 17 18  1  0  0  0
 17102  1  0  0  0
 18 19  2  0  0  0
 18103  1  0  0  0
 19 20  1  0  0  0
 19 24  1  0  0  0
 20 21  2  0  0  0
 20104  1  0  0  0
 21 23  1  0  0  0
 22 28  1  0  0  0
 22 32  2  0  0  0
 26 27  1  0  0  0
 28105  1  0  0  0
 28106  1  0  0  0
 29107  1  0  0  0
 29108  1  0  0  0
 33 34  1  0  0  0
 33 66  1  0  0  0
 33 70  2  0  0  0
 34 36  1  0  0  0
 34 59  1  0  0  0
 34109  1  0  0  0
 35 44  2  0  0  0
 35 45  1  0  0  0
 35 68  1  0  0  0
 36 56  1  0  0  0
 36110  1  0  0  0
 37 39  1  0  0  0
 37 47  1  0  0  0
 37 66  1  0  0  0
 37111  1  0  0  0
 38 43  2  0  0  0
 38 46  1  0  0  0
 38 47  1  0  0  0
 39 64  1  0  0  0
 39 67  2  0  0  0
 40 52  1  0  0  0
 40 53  2  0  0  0
 40 58  1  0  0  0
 41112  1  0  0  0
 41113  1  0  0  0
 41114  1  0  0  0
 41 48  1  0  0  0
 42 43  1  0  0  0
 42 66  1  0  0  0
 42115  1  0  0  0
 42116  1  0  0  0
 43 44  1  0  0  0
 44117  1  0  0  0
 45 46  2  0  0  0
 45118  1  0  0  0
 46119  1  0  0  0
 47120  1  0  0  0
 47121  1  0  0  0
 48 56  1  0  0  0
 48 65  1  0  0  0
 48122  1  0  0  0
 49 50  1  0  0  0
 49 53  1  0  0  0
 49 64  1  0  0  0
 49123  1  0  0  0
 50 51  1  0  0  0
 50124  1  0  0  0
 50125  1  0  0  0
 51 52  1  0  0  0
 51126  1  0  0  0
 51127  1  0  0  0
 52128  1  0  0  0
 52129  1  0  0  0
 53 54  1  0  0  0
 54 55  2  0  0  0
 54130  1  0  0  0
 55 57  1  0  0  0
 55131  1  0  0  0
 56 69  2  0  0  0
 57 58  2  0  0  0
 57132  1  0  0  0
 58133  1  0  0  0
 59 60  1  0  0  0
 59 61  1  0  0  0
 59 62  1  0  0  0
 60134  1  0  0  0
 60135  1  0  0  0
 60136  1  0  0  0
 61137  1  0  0  0
 61138  1  0  0  0
 61139  1  0  0  0
 62140  1  0  0  0
 62141  1  0  0  0
 62142  1  0  0  0
 63 65  1  0  0  0
 63143  1  0  0  0
 63144  1  0  0  0
 63145  1  0  0  0
 64146  1  0  0  0
 65147  1  0  0  0
 68 84  1  0  0  0
 71 73  2  0  0  0
 71 74  1  0  0  0
 71148  1  0  0  0
 72 75  2  0  0  0
 72 76  1  0  0  0
 72149  1  0  0  0
 73 75  1  0  0  0
 73 78  1  0  0  0
 74 76  2  0  0  0
 74 80  1  0  0  0
 75 83  1  0  0  0
 76 86  1  0  0  0
 77 78  2  0  0  0
 77150  1  0  0  0
 77151  1  0  0  0
 78152  1  0  0  0
 79 85  1  0  0  0
 79 87  1  0  0  0
 79 88  2  0  0  0
 80153  1  0  0  0
 80154  1  0  0  0
 80155  1  0  0  0
 81156  1  0  0  0
 81157  1  0  0  0
 81158  1  0  0  0
 81 85  1  0  0  0
 82 87  1  0  0  0
 82159  1  0  0  0
 82160  1  0  0  0
 82161  1  0  0  0
 83 87  1  0  0  0
 83162  1  0  0  0
 83163  1  0  0  0
 84 85  1  0  0  0
 84164  1  0  0  0
 84165  1  0  0  0
 85166  1  0  0  0
 86167  1  0  0  0
M  ISO  4   1 100  68 101  84 101  86 100
M  END
> <chiral flag>
0

> <version>
0

> <s_m_source_file>
/data/baiqing/PycharmProjects/Reinvent-master-3.2/result/LINK_invent/BTK/process_docking_weight1_custom_product_contain_oxygen_bond_distance_aromatic_linkinvent_7_9_3/rearranged_h_0033.sdf

> <i_m_source_file_index>
46

> <r_mmod_Potential_Energy-OPLS-2005>
85.1941452026367

> <r_mmod_Stretch_Energy-OPLS-2005>
71.5034255981445

> <r_mmod_Bend_Energy-OPLS-2005>
138.043304443359

> <r_mmod_Torsional_Energy-OPLS-2005>
291.855560302734

> <r_mmod_Improper_Torsional_Energy-OPLS-2005>
6.63562631607056

> <r_mmod_Van_der_Waal_Energy-OPLS-2005>
165.51042175293

> <r_mmod_Electrostatic_Energy-OPLS-2005>
-399.256866455078

> <r_mmod_Solvation_Energy-OPLS-2005>
-230.291213989258

> <b_mmod_Minimization_Converged-OPLS-2005>
0

> <r_mmod_RMS_Derivative-OPLS-2005>
2.36566400527954

$$$$
46
                    3D
 Structure written by MMmdl.
167176  0  0  1  0            999 V2000
  -30.7169  -14.4947   20.6084 C   0  0  0  0  0  0
  -30.4293  -12.3383   19.4277 C   0  0  0  0  0  0
  -29.4981  -12.5190   18.2113 C   0  0  0  0  0  0
  -28.0199  -12.3721   18.6221 C   0  0  0  0  0  0
  -27.6617  -13.2121   19.8760 C   0  0  2  0  0  0
  -28.7053  -13.0104   20.9991 C   0  0  0  0  0  0
  -25.2564  -13.8148   20.5660 C   0  0  0  0  0  0
  -24.1838  -13.0426   20.9201 C   0  0  0  0  0  0
  -24.6404  -11.6898   20.8753 C   0  0  0  0  0  0
  -23.9067  -10.4287   21.0416 C   0  0  0  0  0  0
  -24.3621   -9.4202   21.9195 C   0  0  0  0  0  0
  -23.6297   -8.2241   22.0757 C   0  0  0  0  0  0
  -22.4278   -8.0284   21.3548 C   0  0  0  0  0  0
  -21.9918   -9.0259   20.4641 C   0  0  0  0  0  0
  -22.7246  -10.2135   20.3056 C   0  0  0  0  0  0
  -21.6846   -6.0743   22.5282 C   0  0  0  0  0  0
  -21.4011   -6.5648   23.8217 C   0  0  0  0  0  0
  -21.3664   -5.6795   24.9183 C   0  0  0  0  0  0
  -21.6049   -4.3058   24.7225 C   0  0  0  0  0  0
  -21.8817   -3.8152   23.4345 C   0  0  0  0  0  0
  -21.9190   -4.6972   22.3401 C   0  0  0  0  0  0
  -22.7859  -13.5215   21.1864 C   0  0  0  0  0  0
  -22.1658   -4.2159   21.0978 F   0  0  0  0  0  0
  -21.5634   -3.4540   25.7740 F   0  0  0  0  0  0
  -30.0361  -13.3239   20.4479 N   0  0  0  0  0  0
  -26.3026  -12.9347   20.3364 N   0  0  0  0  0  0
  -25.9336  -11.6505   20.5783 N   0  0  0  0  0  0
  -22.0498  -12.8207   22.0412 N   0  0  0  0  0  0
  -25.4210  -15.1866   20.3992 N   0  0  0  0  0  0
  -31.8359  -14.6802   20.1204 O   0  0  0  0  0  0
  -21.6635   -6.8892   21.4244 O   0  0  0  0  0  0
  -22.3548  -14.5533   20.6723 O   0  0  0  0  0  0
  -24.6135  -31.8670   23.2078 C   0  0  0  0  0  0
  -25.9013  -32.4828   23.8383 C   0  0  1  0  0  0
  -27.2379  -27.4302   20.1022 C   0  0  0  0  0  0
  -25.5845  -33.8631   24.2296 N   0  0  0  0  0  0
  -23.4034  -30.4902   21.5481 C   0  0  2  0  0  0
  -24.8532  -28.9531   20.1161 C   0  0  0  0  0  0
  -22.7403  -29.4664   22.4971 C   0  0  0  0  0  0
  -18.0270  -28.1398   22.8508 C   0  0  0  0  0  0
  -24.1501  -36.7340   23.2645 C   0  0  0  0  0  0
  -25.9333  -30.8325   21.3622 C   0  0  0  0  0  0
  -26.0134  -29.4664   20.7093 C   0  0  0  0  0  0
  -27.2131  -28.7150   20.6945 C   0  0  0  0  0  0
  -26.0637  -26.9321   19.5012 C   0  0  0  0  0  0
  -24.8723  -27.6843   19.5091 C   0  0  0  0  0  0
  -23.6122  -29.8160   20.1660 C   0  0  0  0  0  0
  -25.4117  -36.3118   24.0331 C   0  0  1  0  0  0
  -20.5862  -28.3687   23.1320 C   0  0  2  0  0  0
  -20.6761  -26.9417   22.5428 C   0  0  0  0  0  0
  -19.5739  -26.6393   21.5230 C   0  0  0  0  0  0
  -18.1909  -26.7947   22.1633 C   0  0  0  0  0  0
  -19.1517  -28.8859   23.2915 C   0  0  0  0  0  0
  -18.9441  -30.1459   23.8931 C   0  0  0  0  0  0
  -17.6445  -30.6600   24.0582 C   0  0  0  0  0  0
  -25.9035  -34.9483   23.5121 C   0  0  0  0  0  0
  -16.5334  -29.9103   23.6335 C   0  0  0  0  0  0
  -16.7260  -28.6524   23.0360 C   0  0  0  0  0  0
  -26.4450  -31.6637   25.0722 C   0  0  0  0  0  0
  -25.3697  -31.3721   26.1449 C   0  0  0  0  0  0
  -27.0323  -30.3083   24.6140 C   0  0  0  0  0  0
  -27.6020  -32.4403   25.7455 C   0  0  0  0  0  0
  -27.5597  -37.1800   24.8454 C   0  0  0  0  0  0
  -21.4126  -29.3050   22.3717 N   0  0  0  0  0  0
  -26.4316  -37.3787   23.9391 N   0  0  0  0  0  0
  -24.6680  -31.0784   22.0971 N   0  0  0  0  0  0
  -23.4167  -28.8199   23.3020 O   0  0  0  0  0  0
  -28.3846  -26.6627   20.1061 O   0  0  0  0  0  0
  -26.5631  -34.8935   22.4703 O   0  0  0  0  0  0
  -23.5326  -32.1430   23.7457 O   0  0  0  0  0  0
  -31.0861  -19.5461   22.0088 C   0  0  0  0  0  0
  -31.6805  -17.1814   21.9345 C   0  0  0  0  0  0
  -32.0204  -18.5164   22.2314 C   0  0  0  0  0  0
  -29.8159  -19.2736   21.4575 C   0  0  0  0  0  0
  -29.4763  -17.9154   21.1626 C   0  0  0  0  0  0
  -30.4082  -16.8596   21.4094 C   0  0  0  0  0  0
  -28.4026  -22.8250   20.8431 C   0  0  0  0  0  0
  -30.4275  -22.8636   18.7729 C   0  0  0  0  0  0
  -30.0856  -24.1897   19.4615 C   0  0  0  0  0  0
  -30.3717  -21.7058   19.7806 C   0  0  0  0  0  0
  -28.6607  -24.1390   20.0404 C   0  0  2  0  0  0
  -33.3863  -18.8431   22.8069 C   0  0  0  0  0  0
  -28.1034  -17.5921   20.5852 C   0  0  0  0  0  0
  -28.7990  -20.4377   21.3173 C   0  0  0  0  0  0
  -28.2871  -25.4238   20.8457 C   0  0  0  0  0  0
  -29.1892  -21.7194   20.6619 N   0  0  0  0  0  0
  -30.0327  -15.4851   21.2229 N   0  0  0  0  0  0
  -27.4320  -22.7974   21.6073 O   0  0  0  0  0  0
  -31.4704  -12.4506   19.1199 H   0  0  0  0  0  0
  -30.3457  -11.3301   19.8345 H   0  0  0  0  0  0
  -29.7433  -11.7922   17.4365 H   0  0  0  0  0  0
  -29.6592  -13.5026   17.7676 H   0  0  0  0  0  0
  -27.8319  -11.3153   18.8170 H   0  0  0  0  0  0
  -27.3707  -12.6480   17.7907 H   0  0  0  0  0  0
  -27.6977  -14.2570   19.5706 H   0  0  0  0  0  0
  -28.6912  -11.9778   21.3515 H   0  0  0  0  0  0
  -28.4539  -13.6161   21.8703 H   0  0  0  0  0  0
  -25.2767   -9.5684   22.4767 H   0  0  0  0  0  0
  -24.0010   -7.4631   22.7471 H   0  0  0  0  0  0
  -21.0861   -8.8787   19.8935 H   0  0  0  0  0  0
  -22.3724  -10.9685   19.6165 H   0  0  0  0  0  0
  -21.2000   -7.6155   23.9723 H   0  0  0  0  0  0
  -21.1492   -6.0529   25.9086 H   0  0  0  0  0  0
  -22.0591   -2.7609   23.2843 H   0  0  0  0  0  0
  -22.4114  -11.9852   22.4768 H   0  0  0  0  0  0
  -21.1115  -13.1233   22.2627 H   0  0  0  0  0  0
  -24.6397  -15.8294   20.4765 H   0  0  0  0  0  0
  -26.2491  -15.6128   20.0062 H   0  0  0  0  0  0
  -26.7073  -32.5538   23.1147 H   0  0  0  0  0  0
  -24.9926  -33.9817   25.0387 H   0  0  0  0  0  0
  -22.6911  -31.3050   21.4041 H   0  0  0  0  0  0
  -23.3768  -35.9667   23.3294 H   0  0  0  0  0  0
  -24.3594  -36.8996   22.2064 H   0  0  0  0  0  0
  -23.7265  -37.6529   23.6703 H   0  0  0  0  0  0
  -26.0477  -31.5974   20.5923 H   0  0  0  0  0  0
  -26.8198  -30.8869   21.9824 H   0  0  0  0  0  0
  -28.1108  -29.1081   21.1537 H   0  0  0  0  0  0
  -26.0717  -25.9596   19.0306 H   0  0  0  0  0  0
  -23.9794  -27.2830   19.0498 H   0  0  0  0  0  0
  -23.7099  -30.5851   19.3991 H   0  0  0  0  0  0
  -22.7380  -29.2277   19.8813 H   0  0  0  0  0  0
  -25.1294  -36.1989   25.0827 H   0  0  0  0  0  0
  -20.9974  -28.3296   24.1435 H   0  0  0  0  0  0
  -20.5694  -26.2292   23.3610 H   0  0  0  0  0  0
  -21.6622  -26.7471   22.1203 H   0  0  0  0  0  0
  -19.6896  -25.6314   21.1246 H   0  0  0  0  0  0
  -19.6690  -27.3212   20.6765 H   0  0  0  0  0  0
  -17.4181  -26.6732   21.4026 H   0  0  0  0  0  0
  -18.0278  -26.0079   22.9006 H   0  0  0  0  0  0
  -19.7916  -30.7262   24.2316 H   0  0  0  0  0  0
  -17.5000  -31.6285   24.5184 H   0  0  0  0  0  0
  -15.5334  -30.3014   23.7650 H   0  0  0  0  0  0
  -15.8659  -28.0849   22.7061 H   0  0  0  0  0  0
  -24.5880  -30.7083   25.7751 H   0  0  0  0  0  0
  -24.8867  -32.2858   26.4915 H   0  0  0  0  0  0
  -25.8021  -30.8852   27.0199 H   0  0  0  0  0  0
  -26.2897  -29.6779   24.1232 H   0  0  0  0  0  0
  -27.4133  -29.7385   25.4626 H   0  0  0  0  0  0
  -27.8697  -30.4416   23.9291 H   0  0  0  0  0  0
  -27.2633  -33.3704   26.2047 H   0  0  0  0  0  0
  -28.3773  -32.6996   25.0229 H   0  0  0  0  0  0
  -28.0760  -31.8544   26.5342 H   0  0  0  0  0  0
  -28.2581  -38.0132   24.7540 H   0  0  0  0  0  0
  -28.1133  -36.2654   24.6248 H   0  0  0  0  0  0
  -27.2303  -37.1405   25.8856 H   0  0  0  0  0  0
  -20.9269  -29.8757   21.6937 H   0  0  0  0  0  0
  -26.0215  -38.2870   24.1397 H   0  0  0  0  0  0
  -31.3412  -20.5606   22.2833 H   0  0  0  0  0  0
  -32.3967  -16.3967   22.1390 H   0  0  0  0  0  0
  -31.4166  -22.9045   18.3140 H   0  0  0  0  0  0
  -29.7252  -22.6806   17.9572 H   0  0  0  0  0  0
  -30.1635  -25.0044   18.7402 H   0  0  0  0  0  0
  -30.8066  -24.4076   20.2505 H   0  0  0  0  0  0
  -31.2655  -21.7618   20.4008 H   0  0  0  0  0  0
  -30.4244  -20.7587   19.2417 H   0  0  0  0  0  0
  -27.9742  -24.0864   19.1947 H   0  0  0  0  0  0
  -33.4198  -19.8563   23.2096 H   0  0  0  0  0  0
  -34.1520  -18.7623   22.0347 H   0  0  0  0  0  0
  -33.6439  -18.1556   23.6130 H   0  0  0  0  0  0
  -27.9056  -18.2101   19.7094 H   0  0  0  0  0  0
  -27.3263  -17.7791   21.3276 H   0  0  0  0  0  0
  -28.0052  -16.5625   20.2506 H   0  0  0  0  0  0
  -28.5014  -20.6569   22.3448 H   0  0  0  0  0  0
  -27.8842  -20.1131   20.8270 H   0  0  0  0  0  0
  -28.9442  -25.5086   21.7121 H   0  0  0  0  0  0
  -27.2837  -25.3076   21.2626 H   0  0  0  0  0  0
  -29.0844  -15.2472   21.4712 H   0  0  0  0  0  0
  1 25  1  0  0  0
  1 30  2  0  0  0
  1 87  1  0  0  0
  2  3  1  0  0  0
  2 25  1  0  0  0
  2 89  1  0  0  0
  2 90  1  0  0  0
  3  4  1  0  0  0
  3 91  1  0  0  0
  3 92  1  0  0  0
  4  5  1  0  0  0
  4 93  1  0  0  0
  4 94  1  0  0  0
  5  6  1  0  0  0
  5 26  1  0  0  0
  5 95  1  0  0  0
  6 25  1  0  0  0
  6 96  1  0  0  0
  6 97  1  0  0  0
  7  8  2  0  0  0
  7 26  1  0  0  0
  7 29  1  0  0  0
  8  9  1  0  0  0
  8 22  1  0  0  0
  9 10  1  0  0  0
  9 27  2  0  0  0
 10 11  2  0  0  0
 10 15  1  0  0  0
 11 12  1  0  0  0
 11 98  1  0  0  0
 12 13  2  0  0  0
 12 99  1  0  0  0
 13 14  1  0  0  0
 13 31  1  0  0  0
 14 15  2  0  0  0
 14100  1  0  0  0
 15101  1  0  0  0
 16 17  2  0  0  0
 16 21  1  0  0  0
 16 31  1  0  0  0
 17 18  1  0  0  0
 17102  1  0  0  0
 18 19  2  0  0  0
 18103  1  0  0  0
 19 20  1  0  0  0
 19 24  1  0  0  0
 20 21  2  0  0  0
 20104  1  0  0  0
 21 23  1  0  0  0
 22 28  1  0  0  0
 22 32  2  0  0  0
 26 27  1  0  0  0
 28105  1  0  0  0
 28106  1  0  0  0
 29107  1  0  0  0
 29108  1  0  0  0
 33 34  1  0  0  0
 33 66  1  0  0  0
 33 70  2  0  0  0
 34 36  1  0  0  0
 34 59  1  0  0  0
 34109  1  0  0  0
 35 44  2  0  0  0
 35 45  1  0  0  0
 35 68  1  0  0  0
 36 56  1  0  0  0
 36110  1  0  0  0
 37 39  1  0  0  0
 37 47  1  0  0  0
 37 66  1  0  0  0
 37111  1  0  0  0
 38 43  2  0  0  0
 38 46  1  0  0  0
 38 47  1  0  0  0
 39 64  1  0  0  0
 39 67  2  0  0  0
 40 52  1  0  0  0
 40 53  2  0  0  0
 40 58  1  0  0  0
 41112  1  0  0  0
 41113  1  0  0  0
 41114  1  0  0  0
 41 48  1  0  0  0
 42 43  1  0  0  0
 42 66  1  0  0  0
 42115  1  0  0  0
 42116  1  0  0  0
 43 44  1  0  0  0
 44117  1  0  0  0
 45 46  2  0  0  0
 45118  1  0  0  0
 46119  1  0  0  0
 47120  1  0  0  0
 47121  1  0  0  0
 48 56  1  0  0  0
 48 65  1  0  0  0
 48122  1  0  0  0
 49 50  1  0  0  0
 49 53  1  0  0  0
 49 64  1  0  0  0
 49123  1  0  0  0
 50 51  1  0  0  0
 50124  1  0  0  0
 50125  1  0  0  0
 51 52  1  0  0  0
 51126  1  0  0  0
 51127  1  0  0  0
 52128  1  0  0  0
 52129  1  0  0  0
 53 54  1  0  0  0
 54 55  2  0  0  0
 54130  1  0  0  0
 55 57  1  0  0  0
 55131  1  0  0  0
 56 69  2  0  0  0
 57 58  2  0  0  0
 57132  1  0  0  0
 58133  1  0  0  0
 59 60  1  0  0  0
 59 61  1  0  0  0
 59 62  1  0  0  0
 60134  1  0  0  0
 60135  1  0  0  0
 60136  1  0  0  0
 61137  1  0  0  0
 61138  1  0  0  0
 61139  1  0  0  0
 62140  1  0  0  0
 62141  1  0  0  0
 62142  1  0  0  0
 63 65  1  0  0  0
 63143  1  0  0  0
 63144  1  0  0  0
 63145  1  0  0  0
 64146  1  0  0  0
 65147  1  0  0  0
 68 85  1  0  0  0
 71 73  2  0  0  0
 71 74  1  0  0  0
 71148  1  0  0  0
 72 73  1  0  0  0
 72 76  2  0  0  0
 72149  1  0  0  0
 73 82  1  0  0  0
 74 75  2  0  0  0
 74 84  1  0  0  0
 75 76  1  0  0  0
 75 83  1  0  0  0
 76 87  1  0  0  0
 77 81  1  0  0  0
 77 86  1  0  0  0
 77 88  2  0  0  0
 78 79  1  0  0  0
 78 80  1  0  0  0
 78150  1  0  0  0
 78151  1  0  0  0
 79 81  1  0  0  0
 79152  1  0  0  0
 79153  1  0  0  0
 80 86  1  0  0  0
 80154  1  0  0  0
 80155  1  0  0  0
 81 85  1  0  0  0
 81156  1  0  0  0
 82157  1  0  0  0
 82158  1  0  0  0
 82159  1  0  0  0
 83160  1  0  0  0
 83161  1  0  0  0
 83162  1  0  0  0
 84 86  1  0  0  0
 84163  1  0  0  0
 84164  1  0  0  0
 85165  1  0  0  0
 85166  1  0  0  0
 87167  1  0  0  0
M  ISO  4   1 100  68 101  85 101  87 100
M  END
> <chiral flag>
0

> <version>
0

> <s_m_source_file>
/data/baiqing/PycharmProjects/Reinvent-master-3.2/result/LINK_invent/BTK/process_docking_weight1_custom_product_contain_oxygen_bond_distance_aromatic_linkinvent_7_9_3/rearranged_h_0033.sdf

> <i_m_source_file_index>
47

> <r_mmod_Potential_Energy-OPLS-2005>
1.30529069900513

> <r_mmod_Stretch_Energy-OPLS-2005>
50.7823867797852

> <r_mmod_Bend_Energy-OPLS-2005>
107.35359954834

> <r_mmod_Torsional_Energy-OPLS-2005>
264.963714599609

> <r_mmod_Improper_Torsional_Energy-OPLS-2005>
4.22839546203613

> <r_mmod_Van_der_Waal_Energy-OPLS-2005>
168.949020385742

> <r_mmod_Electrostatic_Energy-OPLS-2005>
-387.855804443359

> <r_mmod_Solvation_Energy-OPLS-2005>
-221.496994018555

> <b_mmod_Minimization_Converged-OPLS-2005>
0

> <r_mmod_RMS_Derivative-OPLS-2005>
2.35592865943909

$$$$
47
                    3D
 Structure written by MMmdl.
157165  0  0  1  0            999 V2000
  -30.5843  -14.7556   20.4546 C   0  0  0  0  0  0
  -30.4361  -12.4608   19.4905 C   0  0  0  0  0  0
  -29.5193  -12.5145   18.2484 C   0  0  0  0  0  0
  -28.0419  -12.3419   18.6532 C   0  0  0  0  0  0
  -27.6443  -13.2335   19.8614 C   0  0  2  0  0  0
  -28.6838  -13.1581   21.0015 C   0  0  0  0  0  0
  -25.2499  -13.8209   20.5699 C   0  0  0  0  0  0
  -24.1794  -13.0456   20.9247 C   0  0  0  0  0  0
  -24.6388  -11.6933   20.8755 C   0  0  0  0  0  0
  -23.9057  -10.4298   21.0401 C   0  0  0  0  0  0
  -24.3613   -9.4203   21.9168 C   0  0  0  0  0  0
  -23.6289   -8.2231   22.0736 C   0  0  0  0  0  0
  -22.4267   -8.0267   21.3530 C   0  0  0  0  0  0
  -21.9904   -9.0244   20.4632 C   0  0  0  0  0  0
  -22.7233  -10.2129   20.3042 C   0  0  0  0  0  0
  -21.6862   -6.0723   22.5266 C   0  0  0  0  0  0
  -21.4017   -6.5627   23.8193 C   0  0  0  0  0  0
  -21.3667   -5.6779   24.9164 C   0  0  0  0  0  0
  -21.6041   -4.3042   24.7216 C   0  0  0  0  0  0
  -21.8821   -3.8141   23.4334 C   0  0  0  0  0  0
  -21.9192   -4.6948   22.3401 C   0  0  0  0  0  0
  -22.7796  -13.5206   21.1894 C   0  0  0  0  0  0
  -22.1659   -4.2135   21.0980 F   0  0  0  0  0  0
  -21.5637   -3.4532   25.7742 F   0  0  0  0  0  0
  -29.9841  -13.5165   20.4279 N   0  0  0  0  0  0
  -26.2941  -12.9417   20.3312 N   0  0  0  0  0  0
  -25.9326  -11.6556   20.5770 N   0  0  0  0  0  0
  -22.0440  -12.8200   22.0457 N   0  0  0  0  0  0
  -25.4186  -15.1929   20.4111 N   0  0  0  0  0  0
  -31.7616  -14.8674   20.0979 O   0  0  0  0  0  0
  -21.6638   -6.8865   21.4223 O   0  0  0  0  0  0
  -22.3470  -14.5499   20.6724 O   0  0  0  0  0  0
  -24.6314  -31.8547   23.1959 C   0  0  0  0  0  0
  -25.9132  -32.4753   23.8305 C   0  0  1  0  0  0
  -27.2197  -27.2563   20.1505 C   0  0  0  0  0  0
  -25.5938  -33.8559   24.2232 N   0  0  0  0  0  0
  -23.4290  -30.4761   21.5379 C   0  0  2  0  0  0
  -24.8789  -28.9186   20.1116 C   0  0  0  0  0  0
  -22.7504  -29.4600   22.4883 C   0  0  0  0  0  0
  -18.0292  -28.1427   22.8497 C   0  0  0  0  0  0
  -24.1491  -36.7260   23.2638 C   0  0  0  0  0  0
  -25.9736  -30.7698   21.3765 C   0  0  0  0  0  0
  -26.0473  -29.3890   20.7232 C   0  0  0  0  0  0
  -27.2225  -28.5719   20.7286 C   0  0  0  0  0  0
  -26.0305  -26.8485   19.5107 C   0  0  0  0  0  0
  -24.8750  -27.6570   19.4932 C   0  0  0  0  0  0
  -23.6499  -29.8070   20.1539 C   0  0  0  0  0  0
  -25.4133  -36.3066   24.0319 C   0  0  1  0  0  0
  -20.5897  -28.3716   23.1285 C   0  0  2  0  0  0
  -20.6795  -26.9433   22.5426 C   0  0  0  0  0  0
  -19.5767  -26.6414   21.5234 C   0  0  0  0  0  0
  -18.1936  -26.7974   22.1634 C   0  0  0  0  0  0
  -19.1544  -28.8888   23.2891 C   0  0  0  0  0  0
  -18.9470  -30.1489   23.8908 C   0  0  0  0  0  0
  -17.6468  -30.6620   24.0577 C   0  0  0  0  0  0
  -25.9067  -34.9441   23.5082 C   0  0  0  0  0  0
  -16.5360  -29.9119   23.6349 C   0  0  0  0  0  0
  -16.7275  -28.6543   23.0361 C   0  0  0  0  0  0
  -26.4515  -31.6600   25.0692 C   0  0  0  0  0  0
  -25.3737  -31.3755   26.1402 C   0  0  0  0  0  0
  -27.0373  -30.3024   24.6187 C   0  0  0  0  0  0
  -27.6062  -32.4348   25.7477 C   0  0  0  0  0  0
  -27.5580  -37.1792   24.8474 C   0  0  0  0  0  0
  -21.4204  -29.3060   22.3641 N   0  0  0  0  0  0
  -26.4296  -37.3772   23.9409 N   0  0  0  0  0  0
  -24.6970  -31.0521   22.0935 N   0  0  0  0  0  0
  -23.4193  -28.8132   23.2978 O   0  0  0  0  0  0
  -28.3271  -26.3804   20.1737 O   0  0  0  0  0  0
  -26.5632  -34.8923   22.4633 O   0  0  0  0  0  0
  -23.5467  -32.1347   23.7280 O   0  0  0  0  0  0
  -29.0021  -18.6748   22.0163 C   0  0  0  0  0  0
  -28.5854  -19.8950   22.5997 C   0  0  0  0  0  0
  -29.4134  -19.9015   19.9758 C   0  0  0  0  0  0
  -28.9854  -21.1819   20.5314 C   0  0  0  0  0  0
  -29.4448  -18.6321   20.6824 C   0  0  0  0  0  0
  -28.5762  -21.1251   21.8914 C   0  0  0  0  0  0
  -29.0231  -22.4507   19.6346 C   0  0  0  0  0  0
  -28.7466  -23.8255   19.5592 C   0  0  0  0  0  0
  -28.1440  -22.3618   22.6505 C   0  0  0  0  0  0
  -29.0577  -24.5039   18.2310 C   0  0  0  0  0  0
  -30.0000  -17.2773   20.0425 C   0  0  0  0  0  0
  -28.1561  -24.9226   20.5407 C   0  0  0  0  0  0
  -29.7883  -15.8786   20.6337 N   0  0  0  0  0  0
  -31.4772  -12.5889   19.1901 H   0  0  0  0  0  0
  -30.3872  -11.4822   19.9692 H   0  0  0  0  0  0
  -29.8070  -11.7412   17.5340 H   0  0  0  0  0  0
  -29.6511  -13.4698   17.7380 H   0  0  0  0  0  0
  -27.8924  -11.2921   18.9079 H   0  0  0  0  0  0
  -27.3887  -12.5429   17.8022 H   0  0  0  0  0  0
  -27.6435  -14.2605   19.4948 H   0  0  0  0  0  0
  -28.7185  -12.1571   21.4343 H   0  0  0  0  0  0
  -28.4164  -13.8317   21.8183 H   0  0  0  0  0  0
  -25.2752   -9.5687   22.4749 H   0  0  0  0  0  0
  -24.0008   -7.4615   22.7443 H   0  0  0  0  0  0
  -21.0838   -8.8763   19.8924 H   0  0  0  0  0  0
  -22.3684  -10.9670   19.6156 H   0  0  0  0  0  0
  -21.2004   -7.6138   23.9705 H   0  0  0  0  0  0
  -21.1491   -6.0514   25.9074 H   0  0  0  0  0  0
  -22.0598   -2.7603   23.2849 H   0  0  0  0  0  0
  -22.4077  -11.9887   22.4890 H   0  0  0  0  0  0
  -21.1020  -13.1153   22.2597 H   0  0  0  0  0  0
  -24.6565  -15.8495   20.5361 H   0  0  0  0  0  0
  -26.2617  -15.6312   20.0641 H   0  0  0  0  0  0
  -26.7197  -32.5413   23.1048 H   0  0  0  0  0  0
  -25.0122  -33.9712   25.0403 H   0  0  0  0  0  0
  -22.7248  -31.2975   21.3885 H   0  0  0  0  0  0
  -23.3769  -35.9574   23.3321 H   0  0  0  0  0  0
  -24.3561  -36.8862   22.2047 H   0  0  0  0  0  0
  -23.7253  -37.6460   23.6659 H   0  0  0  0  0  0
  -26.1134  -31.5325   20.6085 H   0  0  0  0  0  0
  -26.8505  -30.8188   22.0106 H   0  0  0  0  0  0
  -28.1198  -28.9241   21.2167 H   0  0  0  0  0  0
  -25.9848  -25.8827   19.0287 H   0  0  0  0  0  0
  -23.9811  -27.2955   19.0033 H   0  0  0  0  0  0
  -23.7738  -30.5818   19.3964 H   0  0  0  0  0  0
  -22.7691  -29.2387   19.8483 H   0  0  0  0  0  0
  -25.1333  -36.1891   25.0816 H   0  0  0  0  0  0
  -21.0000  -28.3315   24.1401 H   0  0  0  0  0  0
  -20.5749  -26.2303   23.3620 H   0  0  0  0  0  0
  -21.6655  -26.7503   22.1181 H   0  0  0  0  0  0
  -19.6931  -25.6326   21.1261 H   0  0  0  0  0  0
  -19.6736  -27.3228   20.6770 H   0  0  0  0  0  0
  -17.4217  -26.6726   21.4025 H   0  0  0  0  0  0
  -18.0325  -26.0126   22.9042 H   0  0  0  0  0  0
  -19.7941  -30.7311   24.2276 H   0  0  0  0  0  0
  -17.5027  -31.6301   24.5180 H   0  0  0  0  0  0
  -15.5362  -30.3031   23.7700 H   0  0  0  0  0  0
  -15.8667  -28.0882   22.7076 H   0  0  0  0  0  0
  -24.5900  -30.7128   25.7715 H   0  0  0  0  0  0
  -24.8940  -32.2934   26.4824 H   0  0  0  0  0  0
  -25.8038  -30.8919   27.0185 H   0  0  0  0  0  0
  -26.2961  -29.6755   24.1213 H   0  0  0  0  0  0
  -27.4065  -29.7310   25.4718 H   0  0  0  0  0  0
  -27.8837  -30.4302   23.9427 H   0  0  0  0  0  0
  -27.2658  -33.3652   26.2046 H   0  0  0  0  0  0
  -28.3886  -32.6913   25.0315 H   0  0  0  0  0  0
  -28.0719  -31.8476   26.5409 H   0  0  0  0  0  0
  -28.2615  -38.0068   24.7497 H   0  0  0  0  0  0
  -28.1050  -36.2602   24.6340 H   0  0  0  0  0  0
  -27.2268  -37.1480   25.8863 H   0  0  0  0  0  0
  -20.9369  -29.8725   21.6815 H   0  0  0  0  0  0
  -26.0166  -38.2832   24.1417 H   0  0  0  0  0  0
  -29.0022  -17.7770   22.6159 H   0  0  0  0  0  0
  -28.2718  -19.8781   23.6342 H   0  0  0  0  0  0
  -29.7468  -19.8931   18.9484 H   0  0  0  0  0  0
  -29.4257  -22.1149   18.6910 H   0  0  0  0  0  0
  -27.7608  -22.1148   23.6408 H   0  0  0  0  0  0
  -27.3520  -22.8864   22.1212 H   0  0  0  0  0  0
  -29.0035  -23.0162   22.7908 H   0  0  0  0  0  0
  -29.8466  -25.2453   18.3622 H   0  0  0  0  0  0
  -28.1737  -25.0159   17.8502 H   0  0  0  0  0  0
  -29.3877  -23.8119   17.4571 H   0  0  0  0  0  0
  -31.0690  -17.4274   19.8893 H   0  0  0  0  0  0
  -29.5811  -17.2279   19.0359 H   0  0  0  0  0  0
  -27.1025  -24.6898   20.6979 H   0  0  0  0  0  0
  -28.6368  -24.7998   21.5091 H   0  0  0  0  0  0
  -28.8505  -15.6886   20.9525 H   0  0  0  0  0  0
  1 25  1  0  0  0
  1 30  2  0  0  0
  1 83  1  0  0  0
  2  3  1  0  0  0
  2 25  1  0  0  0
  2 84  1  0  0  0
  2 85  1  0  0  0
  3  4  1  0  0  0
  3 86  1  0  0  0
  3 87  1  0  0  0
  4  5  1  0  0  0
  4 88  1  0  0  0
  4 89  1  0  0  0
  5  6  1  0  0  0
  5 26  1  0  0  0
  5 90  1  0  0  0
  6 25  1  0  0  0
  6 91  1  0  0  0
  6 92  1  0  0  0
  7  8  2  0  0  0
  7 26  1  0  0  0
  7 29  1  0  0  0
  8  9  1  0  0  0
  8 22  1  0  0  0
  9 10  1  0  0  0
  9 27  2  0  0  0
 10 11  2  0  0  0
 10 15  1  0  0  0
 11 12  1  0  0  0
 11 93  1  0  0  0
 12 13  2  0  0  0
 12 94  1  0  0  0
 13 14  1  0  0  0
 13 31  1  0  0  0
 14 15  2  0  0  0
 14 95  1  0  0  0
 15 96  1  0  0  0
 16 17  2  0  0  0
 16 21  1  0  0  0
 16 31  1  0  0  0
 17 18  1  0  0  0
 17 97  1  0  0  0
 18 19  2  0  0  0
 18 98  1  0  0  0
 19 20  1  0  0  0
 19 24  1  0  0  0
 20 21  2  0  0  0
 20 99  1  0  0  0
 21 23  1  0  0  0
 22 28  1  0  0  0
 22 32  2  0  0  0
 26 27  1  0  0  0
 28100  1  0  0  0
 28101  1  0  0  0
 29102  1  0  0  0
 29103  1  0  0  0
 33 34  1  0  0  0
 33 66  1  0  0  0
 33 70  2  0  0  0
 34 36  1  0  0  0
 34 59  1  0  0  0
 34104  1  0  0  0
 35 44  2  0  0  0
 35 45  1  0  0  0
 35 68  1  0  0  0
 36 56  1  0  0  0
 36105  1  0  0  0
 37 39  1  0  0  0
 37 47  1  0  0  0
 37 66  1  0  0  0
 37106  1  0  0  0
 38 43  2  0  0  0
 38 46  1  0  0  0
 38 47  1  0  0  0
 39 64  1  0  0  0
 39 67  2  0  0  0
 40 52  1  0  0  0
 40 53  2  0  0  0
 40 58  1  0  0  0
 41107  1  0  0  0
 41108  1  0  0  0
 41109  1  0  0  0
 41 48  1  0  0  0
 42 43  1  0  0  0
 42 66  1  0  0  0
 42110  1  0  0  0
 42111  1  0  0  0
 43 44  1  0  0  0
 44112  1  0  0  0
 45 46  2  0  0  0
 45113  1  0  0  0
 46114  1  0  0  0
 47115  1  0  0  0
 47116  1  0  0  0
 48 56  1  0  0  0
 48 65  1  0  0  0
 48117  1  0  0  0
 49 50  1  0  0  0
 49 53  1  0  0  0
 49 64  1  0  0  0
 49118  1  0  0  0
 50 51  1  0  0  0
 50119  1  0  0  0
 50120  1  0  0  0
 51 52  1  0  0  0
 51121  1  0  0  0
 51122  1  0  0  0
 52123  1  0  0  0
 52124  1  0  0  0
 53 54  1  0  0  0
 54 55  2  0  0  0
 54125  1  0  0  0
 55 57  1  0  0  0
 55126  1  0  0  0
 56 69  2  0  0  0
 57 58  2  0  0  0
 57127  1  0  0  0
 58128  1  0  0  0
 59 60  1  0  0  0
 59 61  1  0  0  0
 59 62  1  0  0  0
 60129  1  0  0  0
 60130  1  0  0  0
 60131  1  0  0  0
 61132  1  0  0  0
 61133  1  0  0  0
 61134  1  0  0  0
 62135  1  0  0  0
 62136  1  0  0  0
 62137  1  0  0  0
 63 65  1  0  0  0
 63138  1  0  0  0
 63139  1  0  0  0
 63140  1  0  0  0
 64141  1  0  0  0
 65142  1  0  0  0
 68 82  1  0  0  0
 71 72  2  0  0  0
 71 75  1  0  0  0
 71143  1  0  0  0
 72 76  1  0  0  0
 72144  1  0  0  0
 73 74  1  0  0  0
 73 75  2  0  0  0
 73145  1  0  0  0
 74 76  2  0  0  0
 74 77  1  0  0  0
 75 81  1  0  0  0
 76 79  1  0  0  0
 77 78  2  0  0  0
 77146  1  0  0  0
 78 80  1  0  0  0
 78 82  1  0  0  0
 79147  1  0  0  0
 79148  1  0  0  0
 79149  1  0  0  0
 80150  1  0  0  0
 80151  1  0  0  0
 80152  1  0  0  0
 81 83  1  0  0  0
 81153  1  0  0  0
 81154  1  0  0  0
 82155  1  0  0  0
 82156  1  0  0  0
 83157  1  0  0  0
M  ISO  4   1 100  68 101  82 101  83 100
M  END
> <chiral flag>
0

> <version>
0

> <s_m_source_file>
/data/baiqing/PycharmProjects/Reinvent-master-3.2/result/LINK_invent/BTK/process_docking_weight1_custom_product_contain_oxygen_bond_distance_aromatic_linkinvent_7_9_3/rearranged_h_0033.sdf

> <i_m_source_file_index>
48

> <r_mmod_Potential_Energy-OPLS-2005>
186.005126953125

> <r_mmod_Stretch_Energy-OPLS-2005>
126.606056213379

> <r_mmod_Bend_Energy-OPLS-2005>
216.46125793457

> <r_mmod_Torsional_Energy-OPLS-2005>
220.591247558594

> <r_mmod_Improper_Torsional_Energy-OPLS-2005>
7.01800107955933

> <r_mmod_Van_der_Waal_Energy-OPLS-2005>
141.759613037109

> <r_mmod_Electrostatic_Energy-OPLS-2005>
-409.064422607422

> <r_mmod_Solvation_Energy-OPLS-2005>
-204.410507202148

> <b_mmod_Minimization_Converged-OPLS-2005>
0

> <r_mmod_RMS_Derivative-OPLS-2005>
3.21806287765503

$$$$
48
                    3D
 Structure written by MMmdl.
147155  0  0  1  0            999 V2000
  -30.4138  -15.3293   20.3540 C   0  0  0  0  0  0
  -30.4365  -12.8483   19.5445 C   0  0  0  0  0  0
  -29.5418  -12.5926   18.3034 C   0  0  0  0  0  0
  -28.0925  -12.3048   18.7276 C   0  0  0  0  0  0
  -27.6110  -13.2831   19.8270 C   0  0  2  0  0  0
  -28.6388  -13.4816   20.9638 C   0  0  0  0  0  0
  -25.2376  -13.8261   20.5757 C   0  0  0  0  0  0
  -24.1737  -13.0438   20.9261 C   0  0  0  0  0  0
  -24.6403  -11.6939   20.8761 C   0  0  0  0  0  0
  -23.9100  -10.4294   21.0404 C   0  0  0  0  0  0
  -24.3642   -9.4206   21.9183 C   0  0  0  0  0  0
  -23.6307   -8.2246   22.0755 C   0  0  0  0  0  0
  -22.4288   -8.0287   21.3546 C   0  0  0  0  0  0
  -21.9930   -9.0262   20.4647 C   0  0  0  0  0  0
  -22.7268  -10.2136   20.3054 C   0  0  0  0  0  0
  -21.6857   -6.0740   22.5279 C   0  0  0  0  0  0
  -21.4017   -6.5643   23.8212 C   0  0  0  0  0  0
  -21.3660   -5.6794   24.9174 C   0  0  0  0  0  0
  -21.6043   -4.3056   24.7224 C   0  0  0  0  0  0
  -21.8818   -3.8149   23.4345 C   0  0  0  0  0  0
  -21.9194   -4.6967   22.3401 C   0  0  0  0  0  0
  -22.7752  -13.5184   21.1906 C   0  0  0  0  0  0
  -22.1662   -4.2152   21.0979 F   0  0  0  0  0  0
  -21.5627   -3.4540   25.7736 F   0  0  0  0  0  0
  -29.8684  -14.0045   20.3431 N   0  0  0  0  0  0
  -26.2813  -12.9550   20.3235 N   0  0  0  0  0  0
  -25.9344  -11.6646   20.5723 N   0  0  0  0  0  0
  -22.0416  -12.8163   22.0461 N   0  0  0  0  0  0
  -25.3997  -15.1997   20.4197 N   0  0  0  0  0  0
  -31.6240  -15.3263   20.0821 O   0  0  0  0  0  0
  -21.6647   -6.8886   21.4243 O   0  0  0  0  0  0
  -22.3428  -14.5483   20.6744 O   0  0  0  0  0  0
  -24.6664  -31.8183   23.1666 C   0  0  0  0  0  0
  -25.9326  -32.4558   23.8147 C   0  0  1  0  0  0
  -27.2221  -26.8832   20.1874 C   0  0  0  0  0  0
  -25.5975  -33.8377   24.2045 N   0  0  0  0  0  0
  -23.4843  -30.4274   21.5157 C   0  0  2  0  0  0
  -24.9407  -28.8076   20.1078 C   0  0  0  0  0  0
  -22.7687  -29.4409   22.4758 C   0  0  0  0  0  0
  -18.0326  -28.1412   22.8463 C   0  0  0  0  0  0
  -24.1495  -36.7196   23.2649 C   0  0  0  0  0  0
  -26.0554  -30.6084   21.4067 C   0  0  0  0  0  0
  -26.1226  -29.1943   20.7508 C   0  0  0  0  0  0
  -27.2526  -28.2518   20.7700 C   0  0  0  0  0  0
  -26.0164  -26.6668   19.4799 C   0  0  0  0  0  0
  -24.9160  -27.5660   19.4516 C   0  0  0  0  0  0
  -23.7275  -29.7396   20.1428 C   0  0  0  0  0  0
  -25.4137  -36.2950   24.0294 C   0  0  1  0  0  0
  -20.5953  -28.3759   23.1175 C   0  0  2  0  0  0
  -20.6799  -26.9434   22.5403 C   0  0  0  0  0  0
  -19.5774  -26.6373   21.5215 C   0  0  0  0  0  0
  -18.1957  -26.7943   22.1622 C   0  0  0  0  0  0
  -19.1589  -28.8907   23.2805 C   0  0  0  0  0  0
  -18.9499  -30.1495   23.8844 C   0  0  0  0  0  0
  -17.6491  -30.6599   24.0554 C   0  0  0  0  0  0
  -25.9105  -34.9333   23.4996 C   0  0  0  0  0  0
  -16.5381  -29.9085   23.6345 C   0  0  0  0  0  0
  -16.7307  -28.6506   23.0363 C   0  0  0  0  0  0
  -26.4563  -31.6527   25.0700 C   0  0  0  0  0  0
  -25.3675  -31.3796   26.1347 C   0  0  0  0  0  0
  -27.0472  -30.2885   24.6483 C   0  0  0  0  0  0
  -27.6040  -32.4355   25.7506 C   0  0  0  0  0  0
  -27.5570  -37.1754   24.8465 C   0  0  0  0  0  0
  -21.4351  -29.3037   22.3512 N   0  0  0  0  0  0
  -26.4278  -37.3692   23.9407 N   0  0  0  0  0  0
  -24.7568  -30.9800   22.0828 N   0  0  0  0  0  0
  -23.4211  -28.7990   23.3025 O   0  0  0  0  0  0
  -28.2027  -25.7476   20.3186 O   0  0  0  0  0  0
  -26.5726  -34.8878   22.4600 O   0  0  0  0  0  0
  -23.5723  -32.1179   23.6728 O   0  0  0  0  0  0
  -29.1817  -19.9788   21.9870 C   0  0  0  0  0  0
  -28.8936  -21.2230   22.6185 C   0  0  0  0  0  0
  -28.9378  -21.1951   19.9217 C   0  0  0  0  0  0
  -29.2470  -19.8194   20.5879 C   0  0  0  0  0  0
  -28.6078  -22.5874   20.5436 C   0  0  0  0  0  0
  -28.6214  -22.4562   21.9552 C   0  0  0  0  0  0
  -29.7689  -18.2334   19.9946 C   0  0  0  0  0  0
  -28.0663  -24.1403   19.8756 C   0  0  0  0  0  0
  -29.6475  -16.6127   20.4709 N   0  0  0  0  0  0
  -28.2596  -23.8258   22.9444 Cl  0  0  0  0  0  0
  -31.4555  -13.0515   19.2130 H   0  0  0  0  0  0
  -30.5093  -11.9500   20.1597 H   0  0  0  0  0  0
  -29.9332  -11.7622   17.7143 H   0  0  0  0  0  0
  -29.5652  -13.4691   17.6539 H   0  0  0  0  0  0
  -28.0570  -11.2829   19.1070 H   0  0  0  0  0  0
  -27.4260  -12.3356   17.8648 H   0  0  0  0  0  0
  -27.5195  -14.2444   19.3200 H   0  0  0  0  0  0
  -28.8166  -12.5546   21.5108 H   0  0  0  0  0  0
  -28.2641  -14.2040   21.6906 H   0  0  0  0  0  0
  -25.2784   -9.5680   22.4763 H   0  0  0  0  0  0
  -24.0010   -7.4636   22.7476 H   0  0  0  0  0  0
  -21.0860   -8.8786   19.8953 H   0  0  0  0  0  0
  -22.3726  -10.9677   19.6166 H   0  0  0  0  0  0
  -21.2014   -7.6151   23.9716 H   0  0  0  0  0  0
  -21.1481   -6.0526   25.9076 H   0  0  0  0  0  0
  -22.0597   -2.7611   23.2845 H   0  0  0  0  0  0
  -22.4055  -11.9836   22.4852 H   0  0  0  0  0  0
  -21.1026  -13.1164   22.2667 H   0  0  0  0  0  0
  -24.6273  -15.8474   20.5328 H   0  0  0  0  0  0
  -26.2367  -15.6422   20.0635 H   0  0  0  0  0  0
  -26.7397  -32.5080   23.0861 H   0  0  0  0  0  0
  -25.0051  -33.9447   25.0148 H   0  0  0  0  0  0
  -22.8000  -31.2602   21.3409 H   0  0  0  0  0  0
  -23.3770  -35.9513   23.3272 H   0  0  0  0  0  0
  -24.3570  -36.8887   22.2072 H   0  0  0  0  0  0
  -23.7240  -37.6365   23.6737 H   0  0  0  0  0  0
  -26.2430  -31.3470   20.6262 H   0  0  0  0  0  0
  -26.9124  -30.6658   22.0657 H   0  0  0  0  0  0
  -28.1396  -28.5412   21.3158 H   0  0  0  0  0  0
  -25.8791  -25.7231   18.9738 H   0  0  0  0  0  0
  -24.0207  -27.2655   18.9247 H   0  0  0  0  0  0
  -23.8853  -30.5071   19.3843 H   0  0  0  0  0  0
  -22.8369  -29.1953   19.8242 H   0  0  0  0  0  0
  -25.1339  -36.1739   25.0786 H   0  0  0  0  0  0
  -21.0042  -28.3373   24.1298 H   0  0  0  0  0  0
  -20.5673  -26.2380   23.3649 H   0  0  0  0  0  0
  -21.6662  -26.7399   22.1214 H   0  0  0  0  0  0
  -19.6931  -25.6269   21.1281 H   0  0  0  0  0  0
  -19.6715  -27.3152   20.6719 H   0  0  0  0  0  0
  -17.4224  -26.6683   21.4028 H   0  0  0  0  0  0
  -18.0352  -26.0099   22.9033 H   0  0  0  0  0  0
  -19.7974  -30.7325   24.2189 H   0  0  0  0  0  0
  -17.5043  -31.6273   24.5166 H   0  0  0  0  0  0
  -15.5379  -30.2970   23.7699 H   0  0  0  0  0  0
  -15.8708  -28.0806   22.7109 H   0  0  0  0  0  0
  -24.5871  -30.7132   25.7653 H   0  0  0  0  0  0
  -24.8851  -32.3003   26.4636 H   0  0  0  0  0  0
  -25.7893  -30.9049   27.0216 H   0  0  0  0  0  0
  -26.3154  -29.6541   24.1471 H   0  0  0  0  0  0
  -27.3955  -29.7276   25.5167 H   0  0  0  0  0  0
  -27.9115  -30.4047   23.9942 H   0  0  0  0  0  0
  -27.2594  -33.3702   26.1944 H   0  0  0  0  0  0
  -28.3923  -32.6846   25.0389 H   0  0  0  0  0  0
  -28.0631  -31.8582   26.5541 H   0  0  0  0  0  0
  -28.2562  -38.0073   24.7514 H   0  0  0  0  0  0
  -28.1090  -36.2597   24.6291 H   0  0  0  0  0  0
  -27.2284  -37.1391   25.8867 H   0  0  0  0  0  0
  -20.9616  -29.8715   21.6624 H   0  0  0  0  0  0
  -26.0121  -38.2747   24.1417 H   0  0  0  0  0  0
  -29.3872  -19.1216   22.6135 H   0  0  0  0  0  0
  -28.8764  -21.2313   23.6990 H   0  0  0  0  0  0
  -28.9494  -21.1833   18.8411 H   0  0  0  0  0  0
  -30.8430  -18.3667   19.8610 H   0  0  0  0  0  0
  -29.3879  -18.2165   18.9732 H   0  0  0  0  0  0
  -26.9928  -23.9807   19.7888 H   0  0  0  0  0  0
  -28.4199  -24.1210   18.8449 H   0  0  0  0  0  0
  -28.7045  -16.4097   20.7682 H   0  0  0  0  0  0
  1 25  1  0  0  0
  1 30  2  0  0  0
  1 79  1  0  0  0
  2  3  1  0  0  0
  2 25  1  0  0  0
  2 81  1  0  0  0
  2 82  1  0  0  0
  3  4  1  0  0  0
  3 83  1  0  0  0
  3 84  1  0  0  0
  4  5  1  0  0  0
  4 85  1  0  0  0
  4 86  1  0  0  0
  5  6  1  0  0  0
  5 26  1  0  0  0
  5 87  1  0  0  0
  6 25  1  0  0  0
  6 88  1  0  0  0
  6 89  1  0  0  0
  7  8  2  0  0  0
  7 26  1  0  0  0
  7 29  1  0  0  0
  8  9  1  0  0  0
  8 22  1  0  0  0
  9 10  1  0  0  0
  9 27  2  0  0  0
 10 11  2  0  0  0
 10 15  1  0  0  0
 11 12  1  0  0  0
 11 90  1  0  0  0
 12 13  2  0  0  0
 12 91  1  0  0  0
 13 14  1  0  0  0
 13 31  1  0  0  0
 14 15  2  0  0  0
 14 92  1  0  0  0
 15 93  1  0  0  0
 16 17  2  0  0  0
 16 21  1  0  0  0
 16 31  1  0  0  0
 17 18  1  0  0  0
 17 94  1  0  0  0
 18 19  2  0  0  0
 18 95  1  0  0  0
 19 20  1  0  0  0
 19 24  1  0  0  0
 20 21  2  0  0  0
 20 96  1  0  0  0
 21 23  1  0  0  0
 22 28  1  0  0  0
 22 32  2  0  0  0
 26 27  1  0  0  0
 28 97  1  0  0  0
 28 98  1  0  0  0
 29 99  1  0  0  0
 29100  1  0  0  0
 33 34  1  0  0  0
 33 66  1  0  0  0
 33 70  2  0  0  0
 34 36  1  0  0  0
 34 59  1  0  0  0
 34101  1  0  0  0
 35 44  2  0  0  0
 35 45  1  0  0  0
 35 68  1  0  0  0
 36 56  1  0  0  0
 36102  1  0  0  0
 37 39  1  0  0  0
 37 47  1  0  0  0
 37 66  1  0  0  0
 37103  1  0  0  0
 38 43  2  0  0  0
 38 46  1  0  0  0
 38 47  1  0  0  0
 39 64  1  0  0  0
 39 67  2  0  0  0
 40 52  1  0  0  0
 40 53  2  0  0  0
 40 58  1  0  0  0
 41104  1  0  0  0
 41105  1  0  0  0
 41106  1  0  0  0
 41 48  1  0  0  0
 42 43  1  0  0  0
 42 66  1  0  0  0
 42107  1  0  0  0
 42108  1  0  0  0
 43 44  1  0  0  0
 44109  1  0  0  0
 45 46  2  0  0  0
 45110  1  0  0  0
 46111  1  0  0  0
 47112  1  0  0  0
 47113  1  0  0  0
 48 56  1  0  0  0
 48 65  1  0  0  0
 48114  1  0  0  0
 49 50  1  0  0  0
 49 53  1  0  0  0
 49 64  1  0  0  0
 49115  1  0  0  0
 50 51  1  0  0  0
 50116  1  0  0  0
 50117  1  0  0  0
 51 52  1  0  0  0
 51118  1  0  0  0
 51119  1  0  0  0
 52120  1  0  0  0
 52121  1  0  0  0
 53 54  1  0  0  0
 54 55  2  0  0  0
 54122  1  0  0  0
 55 57  1  0  0  0
 55123  1  0  0  0
 56 69  2  0  0  0
 57 58  2  0  0  0
 57124  1  0  0  0
 58125  1  0  0  0
 59 60  1  0  0  0
 59 61  1  0  0  0
 59 62  1  0  0  0
 60126  1  0  0  0
 60127  1  0  0  0
 60128  1  0  0  0
 61129  1  0  0  0
 61130  1  0  0  0
 61131  1  0  0  0
 62132  1  0  0  0
 62133  1  0  0  0
 62134  1  0  0  0
 63 65  1  0  0  0
 63135  1  0  0  0
 63136  1  0  0  0
 63137  1  0  0  0
 64138  1  0  0  0
 65139  1  0  0  0
 68 78  1  0  0  0
 71 72  2  0  0  0
 71 74  1  0  0  0
 71140  1  0  0  0
 72 76  1  0  0  0
 72141  1  0  0  0
 73 74  2  0  0  0
 73 75  1  0  0  0
 73142  1  0  0  0
 74 77  1  0  0  0
 75 76  2  0  0  0
 75 78  1  0  0  0
 76 80  1  0  0  0
 77 79  1  0  0  0
 77143  1  0  0  0
 77144  1  0  0  0
 78145  1  0  0  0
 78146  1  0  0  0
 79147  1  0  0  0
M  ISO  4   1 100  68 101  78 101  79 100
M  END
> <chiral flag>
0

> <version>
0

> <s_m_source_file>
/data/baiqing/PycharmProjects/Reinvent-master-3.2/result/LINK_invent/BTK/process_docking_weight1_custom_product_contain_oxygen_bond_distance_aromatic_linkinvent_7_9_3/rearranged_h_0033.sdf

> <i_m_source_file_index>
49

> <r_mmod_Potential_Energy-OPLS-2005>
1377.61840820312

> <r_mmod_Stretch_Energy-OPLS-2005>
646.9951171875

> <r_mmod_Bend_Energy-OPLS-2005>
440.964721679688

> <r_mmod_Torsional_Energy-OPLS-2005>
217.401611328125

> <r_mmod_Improper_Torsional_Energy-OPLS-2005>
5.84213066101074

> <r_mmod_Van_der_Waal_Energy-OPLS-2005>
123.581359863281

> <r_mmod_Electrostatic_Energy-OPLS-2005>
-370.092987060547

> <r_mmod_Solvation_Energy-OPLS-2005>
-218.558197021484

> <b_mmod_Minimization_Converged-OPLS-2005>
0

> <r_mmod_RMS_Derivative-OPLS-2005>
0.278008490800858

$$$$
49
                    3D
 Structure written by MMmdl.
159168  0  0  1  0            999 V2000
  -30.6343  -14.6594   20.4928 C   0  0  0  0  0  0
  -30.4270  -12.4083   19.4499 C   0  0  0  0  0  0
  -29.5003  -12.4983   18.2191 C   0  0  0  0  0  0
  -28.0249  -12.3356   18.6358 C   0  0  0  0  0  0
  -27.6435  -13.2223   19.8520 C   0  0  2  0  0  0
  -28.6884  -13.1134   20.9823 C   0  0  0  0  0  0
  -25.2521  -13.8181   20.5688 C   0  0  0  0  0  0
  -24.1802  -13.0438   20.9202 C   0  0  0  0  0  0
  -24.6377  -11.6911   20.8742 C   0  0  0  0  0  0
  -23.9053  -10.4290   21.0407 C   0  0  0  0  0  0
  -24.3612   -9.4207   21.9184 C   0  0  0  0  0  0
  -23.6291   -8.2240   22.0751 C   0  0  0  0  0  0
  -22.4274   -8.0276   21.3541 C   0  0  0  0  0  0
  -21.9906   -9.0247   20.4643 C   0  0  0  0  0  0
  -22.7229  -10.2130   20.3053 C   0  0  0  0  0  0
  -21.6853   -6.0731   22.5277 C   0  0  0  0  0  0
  -21.4014   -6.5638   23.8210 C   0  0  0  0  0  0
  -21.3660   -5.6792   24.9174 C   0  0  0  0  0  0
  -21.6045   -4.3054   24.7225 C   0  0  0  0  0  0
  -21.8820   -3.8143   23.4348 C   0  0  0  0  0  0
  -21.9194   -4.6959   22.3402 C   0  0  0  0  0  0
  -22.7826  -13.5226   21.1869 C   0  0  0  0  0  0
  -22.1662   -4.2143   21.0979 F   0  0  0  0  0  0
  -21.5631   -3.4537   25.7738 F   0  0  0  0  0  0
  -29.9931  -13.4516   20.4009 N   0  0  0  0  0  0
  -26.2938  -12.9371   20.3283 N   0  0  0  0  0  0
  -25.9303  -11.6522   20.5748 N   0  0  0  0  0  0
  -22.0475  -12.8211   22.0424 N   0  0  0  0  0  0
  -25.4223  -15.1902   20.4103 N   0  0  0  0  0  0
  -31.8217  -14.7653   20.1751 O   0  0  0  0  0  0
  -21.6639   -6.8874   21.4238 O   0  0  0  0  0  0
  -22.3508  -14.5529   20.6714 O   0  0  0  0  0  0
  -24.6262  -31.8575   23.1988 C   0  0  0  0  0  0
  -25.9108  -32.4766   23.8318 C   0  0  1  0  0  0
  -27.2289  -27.3117   20.1147 C   0  0  0  0  0  0
  -25.5927  -33.8567   24.2256 N   0  0  0  0  0  0
  -23.4187  -30.4790   21.5417 C   0  0  2  0  0  0
  -24.8619  -28.9243   20.1129 C   0  0  0  0  0  0
  -22.7468  -29.4610   22.4932 C   0  0  0  0  0  0
  -18.0284  -28.1385   22.8486 C   0  0  0  0  0  0
  -24.1490  -36.7277   23.2641 C   0  0  0  0  0  0
  -25.9579  -30.7889   21.3641 C   0  0  0  0  0  0
  -26.0295  -29.4140   20.7075 C   0  0  0  0  0  0
  -27.2113  -28.6202   20.6919 C   0  0  0  0  0  0
  -26.0266  -26.8532   19.5366 C   0  0  0  0  0  0
  -24.8618  -27.6493   19.5212 C   0  0  0  0  0  0
  -23.6311  -29.8068   20.1585 C   0  0  0  0  0  0
  -25.4116  -36.3074   24.0331 C   0  0  1  0  0  0
  -20.5886  -28.3678   23.1293 C   0  0  2  0  0  0
  -20.6773  -26.9401   22.5421 C   0  0  0  0  0  0
  -19.5754  -26.6382   21.5215 C   0  0  0  0  0  0
  -18.1929  -26.7930   22.1621 C   0  0  0  0  0  0
  -19.1539  -28.8848   23.2886 C   0  0  0  0  0  0
  -18.9461  -30.1450   23.8896 C   0  0  0  0  0  0
  -17.6461  -30.6590   24.0555 C   0  0  0  0  0  0
  -25.9053  -34.9446   23.5095 C   0  0  0  0  0  0
  -16.5349  -29.9087   23.6329 C   0  0  0  0  0  0
  -16.7273  -28.6507   23.0351 C   0  0  0  0  0  0
  -26.4496  -31.6590   25.0695 C   0  0  0  0  0  0
  -25.3732  -31.3727   26.1425 C   0  0  0  0  0  0
  -27.0333  -30.3019   24.6136 C   0  0  0  0  0  0
  -27.6055  -32.4324   25.7468 C   0  0  0  0  0  0
  -27.5579  -37.1793   24.8467 C   0  0  0  0  0  0
  -21.4183  -29.3031   22.3685 N   0  0  0  0  0  0
  -26.4289  -37.3773   23.9414 N   0  0  0  0  0  0
  -24.6868  -31.0590   22.0923 N   0  0  0  0  0  0
  -23.4197  -28.8157   23.3017 O   0  0  0  0  0  0
  -28.4067  -26.5528   20.1603 O   0  0  0  0  0  0
  -26.5618  -34.8919   22.4659 O   0  0  0  0  0  0
  -23.5429  -32.1367   23.7330 O   0  0  0  0  0  0
  -30.5502  -19.2613   19.6808 C   0  0  0  0  0  0
  -28.4338  -20.5823   20.9136 C   0  0  0  0  0  0
  -30.2704  -20.6267   19.3665 C   0  0  0  0  0  0
  -29.8195  -18.5161   20.6364 C   0  0  0  0  0  0
  -29.1853  -21.3436   19.9729 C   0  0  0  0  0  0
  -28.7341  -19.2169   21.2399 C   0  0  0  0  0  0
  -28.3165  -24.6843   18.2925 C   0  0  0  0  0  0
  -28.7347  -23.1912   18.2645 C   0  0  0  0  0  0
  -28.4237  -23.8298   20.5458 C   0  0  0  0  0  0
  -28.6454  -25.1532   19.7156 C   0  0  2  0  0  0
  -31.2485  -21.3015   18.4184 C   0  0  0  0  0  0
  -30.3992  -17.1378   21.1584 C   0  0  0  0  0  0
  -28.8699  -22.7233   19.6518 N   0  0  0  0  0  0
  -29.8805  -15.7725   20.7809 N   0  0  0  0  0  0
  -27.7763  -18.4302   22.4435 Cl  0  0  0  0  0  0
  -31.4681  -12.5293   19.1456 H   0  0  0  0  0  0
  -30.3623  -11.4220   19.9119 H   0  0  0  0  0  0
  -29.7682  -11.7349   17.4873 H   0  0  0  0  0  0
  -29.6382  -13.4605   17.7228 H   0  0  0  0  0  0
  -27.8683  -11.2848   18.8827 H   0  0  0  0  0  0
  -27.3675  -12.5487   17.7919 H   0  0  0  0  0  0
  -27.6511  -14.2515   19.4926 H   0  0  0  0  0  0
  -28.7081  -12.1039   21.3957 H   0  0  0  0  0  0
  -28.4358  -13.7760   21.8115 H   0  0  0  0  0  0
  -25.2760   -9.5685   22.4755 H   0  0  0  0  0  0
  -24.0002   -7.4631   22.7467 H   0  0  0  0  0  0
  -21.0841   -8.8761   19.8947 H   0  0  0  0  0  0
  -22.3686  -10.9666   19.6157 H   0  0  0  0  0  0
  -21.2003   -7.6145   23.9711 H   0  0  0  0  0  0
  -21.1484   -6.0522   25.9078 H   0  0  0  0  0  0
  -22.0599   -2.7603   23.2847 H   0  0  0  0  0  0
  -22.4102  -11.9873   22.4807 H   0  0  0  0  0  0
  -21.1088  -13.1224   22.2627 H   0  0  0  0  0  0
  -24.6574  -15.8447   20.5315 H   0  0  0  0  0  0
  -26.2711  -15.6333   20.0837 H   0  0  0  0  0  0
  -26.7170  -32.5420   23.1057 H   0  0  0  0  0  0
  -25.0104  -33.9708   25.0422 H   0  0  0  0  0  0
  -22.7128  -31.2992   21.3960 H   0  0  0  0  0  0
  -23.3760  -35.9604   23.3307 H   0  0  0  0  0  0
  -24.3588  -36.8890   22.2057 H   0  0  0  0  0  0
  -23.7231  -37.6475   23.6658 H   0  0  0  0  0  0
  -26.0872  -31.5517   20.5954 H   0  0  0  0  0  0
  -26.8402  -30.8386   21.9911 H   0  0  0  0  0  0
  -28.1135  -28.9996   21.1505 H   0  0  0  0  0  0
  -25.9455  -25.8641   19.1238 H   0  0  0  0  0  0
  -23.9581  -27.2585   19.0741 H   0  0  0  0  0  0
  -23.7514  -30.5798   19.3986 H   0  0  0  0  0  0
  -22.7505  -29.2361   19.8583 H   0  0  0  0  0  0
  -25.1303  -36.1919   25.0825 H   0  0  0  0  0  0
  -20.9978  -28.3247   24.1414 H   0  0  0  0  0  0
  -20.5666  -26.2282   23.3617 H   0  0  0  0  0  0
  -21.6640  -26.7435   22.1207 H   0  0  0  0  0  0
  -19.6912  -25.6295   21.1236 H   0  0  0  0  0  0
  -19.6700  -27.3193   20.6744 H   0  0  0  0  0  0
  -17.4205  -26.6685   21.4016 H   0  0  0  0  0  0
  -18.0320  -26.0072   22.9016 H   0  0  0  0  0  0
  -19.7936  -30.7262   24.2271 H   0  0  0  0  0  0
  -17.5018  -31.6266   24.5159 H   0  0  0  0  0  0
  -15.5347  -30.2986   23.7659 H   0  0  0  0  0  0
  -15.8674  -28.0822   22.7070 H   0  0  0  0  0  0
  -24.5921  -30.7056   25.7760 H   0  0  0  0  0  0
  -24.8902  -32.2889   26.4830 H   0  0  0  0  0  0
  -25.8067  -30.8929   27.0208 H   0  0  0  0  0  0
  -26.2892  -29.6769   24.1182 H   0  0  0  0  0  0
  -27.4069  -29.7280   25.4624 H   0  0  0  0  0  0
  -27.8748  -30.4322   23.9325 H   0  0  0  0  0  0
  -27.2674  -33.3632   26.2033 H   0  0  0  0  0  0
  -28.3873  -32.6866   25.0301 H   0  0  0  0  0  0
  -28.0709  -31.8450   26.5392 H   0  0  0  0  0  0
  -28.2598  -38.0088   24.7518 H   0  0  0  0  0  0
  -28.1073  -36.2620   24.6293 H   0  0  0  0  0  0
  -27.2300  -37.1434   25.8870 H   0  0  0  0  0  0
  -20.9356  -29.8752   21.6896 H   0  0  0  0  0  0
  -26.0169  -38.2848   24.1422 H   0  0  0  0  0  0
  -31.4103  -18.7901   19.2256 H   0  0  0  0  0  0
  -27.6013  -21.0534   21.4146 H   0  0  0  0  0  0
  -27.2583  -24.7425   18.0608 H   0  0  0  0  0  0
  -28.8433  -25.2691   17.5379 H   0  0  0  0  0  0
  -29.6752  -23.1264   17.7257 H   0  0  0  0  0  0
  -28.0062  -22.5886   17.7197 H   0  0  0  0  0  0
  -27.3704  -23.7032   20.8002 H   0  0  0  0  0  0
  -28.9964  -23.8411   21.4745 H   0  0  0  0  0  0
  -29.7354  -25.2098   19.6949 H   0  0  0  0  0  0
  -32.2017  -20.7727   18.3898 H   0  0  0  0  0  0
  -31.4681  -22.3201   18.7387 H   0  0  0  0  0  0
  -30.8534  -21.3143   17.4030 H   0  0  0  0  0  0
  -30.3478  -17.1784   22.2467 H   0  0  0  0  0  0
  -31.4706  -17.1621   20.9550 H   0  0  0  0  0  0
  -28.8965  -15.6128   20.9324 H   0  0  0  0  0  0
  1 25  1  0  0  0
  1 30  2  0  0  0
  1 84  1  0  0  0
  2  3  1  0  0  0
  2 25  1  0  0  0
  2 86  1  0  0  0
  2 87  1  0  0  0
  3  4  1  0  0  0
  3 88  1  0  0  0
  3 89  1  0  0  0
  4  5  1  0  0  0
  4 90  1  0  0  0
  4 91  1  0  0  0
  5  6  1  0  0  0
  5 26  1  0  0  0
  5 92  1  0  0  0
  6 25  1  0  0  0
  6 93  1  0  0  0
  6 94  1  0  0  0
  7  8  2  0  0  0
  7 26  1  0  0  0
  7 29  1  0  0  0
  8  9  1  0  0  0
  8 22  1  0  0  0
  9 10  1  0  0  0
  9 27  2  0  0  0
 10 11  2  0  0  0
 10 15  1  0  0  0
 11 12  1  0  0  0
 11 95  1  0  0  0
 12 13  2  0  0  0
 12 96  1  0  0  0
 13 14  1  0  0  0
 13 31  1  0  0  0
 14 15  2  0  0  0
 14 97  1  0  0  0
 15 98  1  0  0  0
 16 17  2  0  0  0
 16 21  1  0  0  0
 16 31  1  0  0  0
 17 18  1  0  0  0
 17 99  1  0  0  0
 18 19  2  0  0  0
 18100  1  0  0  0
 19 20  1  0  0  0
 19 24  1  0  0  0
 20 21  2  0  0  0
 20101  1  0  0  0
 21 23  1  0  0  0
 22 28  1  0  0  0
 22 32  2  0  0  0
 26 27  1  0  0  0
 28102  1  0  0  0
 28103  1  0  0  0
 29104  1  0  0  0
 29105  1  0  0  0
 33 34  1  0  0  0
 33 66  1  0  0  0
 33 70  2  0  0  0
 34 36  1  0  0  0
 34 59  1  0  0  0
 34106  1  0  0  0
 35 44  2  0  0  0
 35 45  1  0  0  0
 35 68  1  0  0  0
 36 56  1  0  0  0
 36107  1  0  0  0
 37 39  1  0  0  0
 37 47  1  0  0  0
 37 66  1  0  0  0
 37108  1  0  0  0
 38 43  2  0  0  0
 38 46  1  0  0  0
 38 47  1  0  0  0
 39 64  1  0  0  0
 39 67  2  0  0  0
 40 52  1  0  0  0
 40 53  2  0  0  0
 40 58  1  0  0  0
 41109  1  0  0  0
 41110  1  0  0  0
 41111  1  0  0  0
 41 48  1  0  0  0
 42 43  1  0  0  0
 42 66  1  0  0  0
 42112  1  0  0  0
 42113  1  0  0  0
 43 44  1  0  0  0
 44114  1  0  0  0
 45 46  2  0  0  0
 45115  1  0  0  0
 46116  1  0  0  0
 47117  1  0  0  0
 47118  1  0  0  0
 48 56  1  0  0  0
 48 65  1  0  0  0
 48119  1  0  0  0
 49 50  1  0  0  0
 49 53  1  0  0  0
 49 64  1  0  0  0
 49120  1  0  0  0
 50 51  1  0  0  0
 50121  1  0  0  0
 50122  1  0  0  0
 51 52  1  0  0  0
 51123  1  0  0  0
 51124  1  0  0  0
 52125  1  0  0  0
 52126  1  0  0  0
 53 54  1  0  0  0
 54 55  2  0  0  0
 54127  1  0  0  0
 55 57  1  0  0  0
 55128  1  0  0  0
 56 69  2  0  0  0
 57 58  2  0  0  0
 57129  1  0  0  0
 58130  1  0  0  0
 59 60  1  0  0  0
 59 61  1  0  0  0
 59 62  1  0  0  0
 60131  1  0  0  0
 60132  1  0  0  0
 60133  1  0  0  0
 61134  1  0  0  0
 61135  1  0  0  0
 61136  1  0  0  0
 62137  1  0  0  0
 62138  1  0  0  0
 62139  1  0  0  0
 63 65  1  0  0  0
 63140  1  0  0  0
 63141  1  0  0  0
 63142  1  0  0  0
 64143  1  0  0  0
 65144  1  0  0  0
 68 80  1  0  0  0
 71 73  2  0  0  0
 71 74  1  0  0  0
 71145  1  0  0  0
 72 75  2  0  0  0
 72 76  1  0  0  0
 72146  1  0  0  0
 73 75  1  0  0  0
 73 81  1  0  0  0
 74 76  2  0  0  0
 74 82  1  0  0  0
 75 83  1  0  0  0
 76 85  1  0  0  0
 77 78  1  0  0  0
 77 80  1  0  0  0
 77147  1  0  0  0
 77148  1  0  0  0
 78 83  1  0  0  0
 78149  1  0  0  0
 78150  1  0  0  0
 79 80  1  0  0  0
 79 83  1  0  0  0
 79151  1  0  0  0
 79152  1  0  0  0
 80153  1  0  0  0
 81154  1  0  0  0
 81155  1  0  0  0
 81156  1  0  0  0
 82 84  1  0  0  0
 82157  1  0  0  0
 82158  1  0  0  0
 84159  1  0  0  0
M  ISO  4   1 100  68 101  80 101  84 100
M  END
> <chiral flag>
0

> <version>
0

> <s_m_source_file>
/data/baiqing/PycharmProjects/Reinvent-master-3.2/result/LINK_invent/BTK/process_docking_weight1_custom_product_contain_oxygen_bond_distance_aromatic_linkinvent_7_9_3/rearranged_h_0033.sdf

> <i_m_source_file_index>
50

> <r_mmod_Potential_Energy-OPLS-2005>
174.289413452148

> <r_mmod_Stretch_Energy-OPLS-2005>
83.9022674560547

> <r_mmod_Bend_Energy-OPLS-2005>
255.782196044922

> <r_mmod_Torsional_Energy-OPLS-2005>
262.586181640625

> <r_mmod_Improper_Torsional_Energy-OPLS-2005>
6.09814691543579

> <r_mmod_Van_der_Waal_Energy-OPLS-2005>
140.12890625

> <r_mmod_Electrostatic_Energy-OPLS-2005>
-410.924621582031

> <r_mmod_Solvation_Energy-OPLS-2005>
-214.468185424805

> <b_mmod_Minimization_Converged-OPLS-2005>
0

> <r_mmod_RMS_Derivative-OPLS-2005>
0.769906103610992

$$$$
50
                    3D
 Structure written by MMmdl.
164173  0  0  1  0            999 V2000
  -30.7336  -14.4855   20.5932 C   0  0  0  0  0  0
  -30.4173  -12.3213   19.4299 C   0  0  0  0  0  0
  -29.4824  -12.4991   18.2131 C   0  0  0  0  0  0
  -28.0077  -12.3479   18.6291 C   0  0  0  0  0  0
  -27.6530  -13.2007   19.8753 C   0  0  2  0  0  0
  -28.7044  -13.0128   20.9959 C   0  0  0  0  0  0
  -25.2540  -13.8115   20.5733 C   0  0  0  0  0  0
  -24.1797  -13.0431   20.9248 C   0  0  0  0  0  0
  -24.6344  -11.6896   20.8797 C   0  0  0  0  0  0
  -23.9015  -10.4296   21.0440 C   0  0  0  0  0  0
  -24.3572   -9.4202   21.9197 C   0  0  0  0  0  0
  -23.6278   -8.2219   22.0748 C   0  0  0  0  0  0
  -22.4266   -8.0242   21.3514 C   0  0  0  0  0  0
  -21.9882   -9.0226   20.4630 C   0  0  0  0  0  0
  -22.7198  -10.2120   20.3072 C   0  0  0  0  0  0
  -21.6854   -6.0721   22.5269 C   0  0  0  0  0  0
  -21.4021   -6.5635   23.8204 C   0  0  0  0  0  0
  -21.3654   -5.6789   24.9170 C   0  0  0  0  0  0
  -21.6030   -4.3050   24.7218 C   0  0  0  0  0  0
  -21.8819   -3.8138   23.4342 C   0  0  0  0  0  0
  -21.9204   -4.6954   22.3398 C   0  0  0  0  0  0
  -22.7818  -13.5247   21.1855 C   0  0  0  0  0  0
  -22.1673   -4.2139   21.0976 F   0  0  0  0  0  0
  -21.5626   -3.4534   25.7729 F   0  0  0  0  0  0
  -30.0313  -13.3235   20.4398 N   0  0  0  0  0  0
  -26.2977  -12.9289   20.3444 N   0  0  0  0  0  0
  -25.9270  -11.6464   20.5817 N   0  0  0  0  0  0
  -22.0439  -12.8277   22.0423 N   0  0  0  0  0  0
  -25.4187  -15.1817   20.3990 N   0  0  0  0  0  0
  -31.8591  -14.6415   20.1205 O   0  0  0  0  0  0
  -21.6629   -6.8837   21.4219 O   0  0  0  0  0  0
  -22.3507  -14.5531   20.6635 O   0  0  0  0  0  0
  -24.6192  -31.8697   23.2095 C   0  0  0  0  0  0
  -25.9072  -32.4814   23.8422 C   0  0  1  0  0  0
  -27.2084  -27.3992   20.0857 C   0  0  0  0  0  0
  -25.5938  -33.8612   24.2353 N   0  0  0  0  0  0
  -23.4083  -30.4995   21.5521 C   0  0  2  0  0  0
  -24.8428  -28.9618   20.1150 C   0  0  0  0  0  0
  -22.7412  -29.4754   22.4989 C   0  0  0  0  0  0
  -18.0338  -28.1439   22.8450 C   0  0  0  0  0  0
  -24.1467  -36.7303   23.2646 C   0  0  0  0  0  0
  -25.9427  -30.8242   21.3672 C   0  0  0  0  0  0
  -26.0092  -29.4550   20.7139 C   0  0  0  0  0  0
  -27.1951  -28.6812   20.6933 C   0  0  0  0  0  0
  -26.0156  -26.9344   19.4804 C   0  0  0  0  0  0
  -24.8460  -27.7090   19.4898 C   0  0  0  0  0  0
  -23.6099  -29.8301   20.1692 C   0  0  0  0  0  0
  -25.4098  -36.3095   24.0339 C   0  0  1  0  0  0
  -20.5910  -28.3750   23.1291 C   0  0  2  0  0  0
  -20.6878  -26.9447   22.5510 C   0  0  0  0  0  0
  -19.5901  -26.6410   21.5270 C   0  0  0  0  0  0
  -18.2061  -26.7943   22.1666 C   0  0  0  0  0  0
  -19.1582  -28.8929   23.2854 C   0  0  0  0  0  0
  -18.9550  -30.1572   23.8770 C   0  0  0  0  0  0
  -17.6551  -30.6664   24.0516 C   0  0  0  0  0  0
  -25.9045  -34.9467   23.5136 C   0  0  0  0  0  0
  -16.5422  -29.9125   23.6369 C   0  0  0  0  0  0
  -16.7323  -28.6554   23.0344 C   0  0  0  0  0  0
  -26.4477  -31.6580   25.0752 C   0  0  0  0  0  0
  -25.3736  -31.3705   26.1508 C   0  0  0  0  0  0
  -27.0305  -30.3019   24.6100 C   0  0  0  0  0  0
  -27.6040  -32.4313   25.7529 C   0  0  0  0  0  0
  -27.5568  -37.1803   24.8481 C   0  0  0  0  0  0
  -21.4161  -29.3105   22.3653 N   0  0  0  0  0  0
  -26.4285  -37.3787   23.9413 N   0  0  0  0  0  0
  -24.6759  -31.0785   22.1007 N   0  0  0  0  0  0
  -23.4136  -28.8340   23.3130 O   0  0  0  0  0  0
  -28.3767  -26.6504   20.0977 O   0  0  0  0  0  0
  -26.5604  -34.8926   22.4697 O   0  0  0  0  0  0
  -23.5375  -32.1503   23.7483 O   0  0  0  0  0  0
  -27.6279  -18.3606   20.9883 C   0  0  0  0  0  0
  -29.8512  -19.9650   21.5100 C   0  0  0  0  0  0
  -27.4539  -19.7538   21.1577 C   0  0  0  0  0  0
  -28.8997  -17.7477   21.0808 C   0  0  0  0  0  0
  -28.5781  -20.5794   21.4176 C   0  0  0  0  0  0
  -30.0170  -18.5703   21.3371 C   0  0  0  0  0  0
  -29.5483  -23.1751   19.6511 C   0  0  0  0  0  0
  -30.2472  -22.2109   19.0304 C   0  0  0  0  0  0
  -29.7318  -24.6778   19.5299 C   0  0  0  0  0  0
  -27.7028  -24.2808   20.7064 C   0  0  0  0  0  0
  -28.3325  -25.2613   19.6939 C   0  0  1  0  0  0
  -26.0434  -20.3206   21.0812 C   0  0  0  0  0  0
  -28.9791  -16.2284   20.8547 C   0  0  0  0  0  0
  -28.4439  -22.0957   21.6632 C   0  0  0  0  0  0
  -30.1774  -15.4955   21.2931 N   0  0  0  0  0  0
  -28.3019  -22.9398   20.4381 N   0  3  2  0  0  0
  -31.2576  -18.0370   21.4197 F   0  0  0  0  0  0
  -31.4607  -12.4082   19.1256 H   0  0  0  0  0  0
  -30.3244  -11.3183   19.8489 H   0  0  0  0  0  0
  -29.7306  -11.7804   17.4313 H   0  0  0  0  0  0
  -29.6293  -13.4872   17.7759 H   0  0  0  0  0  0
  -27.8204  -11.2957   18.8445 H   0  0  0  0  0  0
  -27.3506  -12.6064   17.7957 H   0  0  0  0  0  0
  -27.6742  -14.2350   19.5425 H   0  0  0  0  0  0
  -28.6894  -11.9830   21.3537 H   0  0  0  0  0  0
  -28.4737  -13.6235   21.8700 H   0  0  0  0  0  0
  -25.2700   -9.5703   22.4775 H   0  0  0  0  0  0
  -23.9986   -7.4614   22.7485 H   0  0  0  0  0  0
  -21.0820   -8.8755   19.8946 H   0  0  0  0  0  0
  -22.3642  -10.9655   19.6189 H   0  0  0  0  0  0
  -21.2015   -7.6144   23.9706 H   0  0  0  0  0  0
  -21.1482   -6.0520   25.9073 H   0  0  0  0  0  0
  -22.0606   -2.7597   23.2838 H   0  0  0  0  0  0
  -22.4052  -11.9938   22.4817 H   0  0  0  0  0  0
  -21.1012  -13.1256   22.2564 H   0  0  0  0  0  0
  -24.6216  -15.8069   20.4583 H   0  0  0  0  0  0
  -26.2201  -15.5966   19.9474 H   0  0  0  0  0  0
  -26.7167  -32.5483   23.1213 H   0  0  0  0  0  0
  -25.0026  -33.9814   25.0449 H   0  0  0  0  0  0
  -22.7038  -31.3221   21.4152 H   0  0  0  0  0  0
  -23.3713  -35.9652   23.3320 H   0  0  0  0  0  0
  -24.3580  -36.8908   22.2066 H   0  0  0  0  0  0
  -23.7236  -37.6520   23.6651 H   0  0  0  0  0  0
  -26.0667  -31.5860   20.5969 H   0  0  0  0  0  0
  -26.8310  -30.8747   21.9849 H   0  0  0  0  0  0
  -28.1006  -29.0530   21.1544 H   0  0  0  0  0  0
  -25.9412  -25.9807   18.9823 H   0  0  0  0  0  0
  -23.9533  -27.3322   19.0110 H   0  0  0  0  0  0
  -23.7146  -30.5986   19.4035 H   0  0  0  0  0  0
  -22.7322  -29.2454   19.8851 H   0  0  0  0  0  0
  -25.1258  -36.1969   25.0830 H   0  0  0  0  0  0
  -21.0006  -28.3410   24.1427 H   0  0  0  0  0  0
  -20.5812  -26.2336   23.3708 H   0  0  0  0  0  0
  -21.6783  -26.7554   22.1299 H   0  0  0  0  0  0
  -19.7154  -25.6340   21.1251 H   0  0  0  0  0  0
  -19.6906  -27.3249   20.6826 H   0  0  0  0  0  0
  -17.4361  -26.6572   21.4063 H   0  0  0  0  0  0
  -18.0527  -26.0174   22.9172 H   0  0  0  0  0  0
  -19.8041  -30.7444   24.2059 H   0  0  0  0  0  0
  -17.5154  -31.6410   24.4995 H   0  0  0  0  0  0
  -15.5454  -30.3026   23.7787 H   0  0  0  0  0  0
  -15.8740  -28.0847   22.7069 H   0  0  0  0  0  0
  -24.5898  -30.7053   25.7874 H   0  0  0  0  0  0
  -24.8931  -32.2868   26.4940 H   0  0  0  0  0  0
  -25.8087  -30.8907   27.0279 H   0  0  0  0  0  0
  -26.2872  -29.6805   24.1085 H   0  0  0  0  0  0
  -27.4038  -29.7215   25.4543 H   0  0  0  0  0  0
  -27.8707  -30.4352   23.9282 H   0  0  0  0  0  0
  -27.2633  -33.3604   26.2112 H   0  0  0  0  0  0
  -28.3842  -32.6896   25.0357 H   0  0  0  0  0  0
  -28.0692  -31.8425   26.5444 H   0  0  0  0  0  0
  -28.2592  -38.0084   24.7495 H   0  0  0  0  0  0
  -28.1046  -36.2622   24.6316 H   0  0  0  0  0  0
  -27.2303  -37.1471   25.8891 H   0  0  0  0  0  0
  -20.9377  -29.8711   21.6733 H   0  0  0  0  0  0
  -26.0157  -38.2858   24.1402 H   0  0  0  0  0  0
  -26.7623  -17.7460   20.7924 H   0  0  0  0  0  0
  -30.7249  -20.5648   21.7140 H   0  0  0  0  0  0
  -31.1023  -22.4493   18.4166 H   0  0  0  0  0  0
  -29.9680  -21.1699   19.1013 H   0  0  0  0  0  0
  -30.1780  -24.9549   18.5735 H   0  0  0  0  0  0
  -30.3936  -25.0158   20.3272 H   0  0  0  0  0  0
  -26.6146  -24.2484   20.6417 H   0  0  0  0  0  0
  -27.9628  -24.6156   21.7124 H   0  0  0  0  0  0
  -27.8543  -25.1514   18.7199 H   0  0  0  0  0  0
  -25.9765  -21.1523   20.3775 H   0  0  0  0  0  0
  -25.7125  -20.6574   22.0630 H   0  0  0  0  0  0
  -25.3321  -19.5663   20.7437 H   0  0  0  0  0  0
  -28.8420  -16.0789   19.7826 H   0  0  0  0  0  0
  -28.1214  -15.7969   21.3659 H   0  0  0  0  0  0
  -29.3018  -22.4469   22.2384 H   0  0  0  0  0  0
  -27.5809  -22.2528   22.3068 H   0  0  0  0  0  0
  -30.8772  -16.1479   21.6167 H   0  0  0  0  0  0
  -27.6494  -22.4457   19.8451 H   0  0  0  0  0  0
  1 25  1  0  0  0
  1 30  2  0  0  0
  1 85  1  0  0  0
  2  3  1  0  0  0
  2 25  1  0  0  0
  2 88  1  0  0  0
  2 89  1  0  0  0
  3  4  1  0  0  0
  3 90  1  0  0  0
  3 91  1  0  0  0
  4  5  1  0  0  0
  4 92  1  0  0  0
  4 93  1  0  0  0
  5  6  1  0  0  0
  5 26  1  0  0  0
  5 94  1  0  0  0
  6 25  1  0  0  0
  6 95  1  0  0  0
  6 96  1  0  0  0
  7  8  2  0  0  0
  7 26  1  0  0  0
  7 29  1  0  0  0
  8  9  1  0  0  0
  8 22  1  0  0  0
  9 10  1  0  0  0
  9 27  2  0  0  0
 10 11  2  0  0  0
 10 15  1  0  0  0
 11 12  1  0  0  0
 11 97  1  0  0  0
 12 13  2  0  0  0
 12 98  1  0  0  0
 13 14  1  0  0  0
 13 31  1  0  0  0
 14 15  2  0  0  0
 14 99  1  0  0  0
 15100  1  0  0  0
 16 17  2  0  0  0
 16 21  1  0  0  0
 16 31  1  0  0  0
 17 18  1  0  0  0
 17101  1  0  0  0
 18 19  2  0  0  0
 18102  1  0  0  0
 19 20  1  0  0  0
 19 24  1  0  0  0
 20 21  2  0  0  0
 20103  1  0  0  0
 21 23  1  0  0  0
 22 28  1  0  0  0
 22 32  2  0  0  0
 26 27  1  0  0  0
 28104  1  0  0  0
 28105  1  0  0  0
 29106  1  0  0  0
 29107  1  0  0  0
 33 34  1  0  0  0
 33 66  1  0  0  0
 33 70  2  0  0  0
 34 36  1  0  0  0
 34 59  1  0  0  0
 34108  1  0  0  0
 35 44  2  0  0  0
 35 45  1  0  0  0
 35 68  1  0  0  0
 36 56  1  0  0  0
 36109  1  0  0  0
 37 39  1  0  0  0
 37 47  1  0  0  0
 37 66  1  0  0  0
 37110  1  0  0  0
 38 43  2  0  0  0
 38 46  1  0  0  0
 38 47  1  0  0  0
 39 64  1  0  0  0
 39 67  2  0  0  0
 40 52  1  0  0  0
 40 53  2  0  0  0
 40 58  1  0  0  0
 41111  1  0  0  0
 41112  1  0  0  0
 41113  1  0  0  0
 41 48  1  0  0  0
 42 43  1  0  0  0
 42 66  1  0  0  0
 42114  1  0  0  0
 42115  1  0  0  0
 43 44  1  0  0  0
 44116  1  0  0  0
 45 46  2  0  0  0
 45117  1  0  0  0
 46118  1  0  0  0
 47119  1  0  0  0
 47120  1  0  0  0
 48 56  1  0  0  0
 48 65  1  0  0  0
 48121  1  0  0  0
 49 50  1  0  0  0
 49 53  1  0  0  0
 49 64  1  0  0  0
 49122  1  0  0  0
 50 51  1  0  0  0
 50123  1  0  0  0
 50124  1  0  0  0
 51 52  1  0  0  0
 51125  1  0  0  0
 51126  1  0  0  0
 52127  1  0  0  0
 52128  1  0  0  0
 53 54  1  0  0  0
 54 55  2  0  0  0
 54129  1  0  0  0
 55 57  1  0  0  0
 55130  1  0  0  0
 56 69  2  0  0  0
 57 58  2  0  0  0
 57131  1  0  0  0
 58132  1  0  0  0
 59 60  1  0  0  0
 59 61  1  0  0  0
 59 62  1  0  0  0
 60133  1  0  0  0
 60134  1  0  0  0
 60135  1  0  0  0
 61136  1  0  0  0
 61137  1  0  0  0
 61138  1  0  0  0
 62139  1  0  0  0
 62140  1  0  0  0
 62141  1  0  0  0
 63 65  1  0  0  0
 63142  1  0  0  0
 63143  1  0  0  0
 63144  1  0  0  0
 64145  1  0  0  0
 65146  1  0  0  0
 68 81  1  0  0  0
 71 73  2  0  0  0
 71 74  1  0  0  0
 71147  1  0  0  0
 72 75  2  0  0  0
 72 76  1  0  0  0
 72148  1  0  0  0
 73 75  1  0  0  0
 73 82  1  0  0  0
 74 76  2  0  0  0
 74 83  1  0  0  0
 75 84  1  0  0  0
 76 87  1  0  0  0
 77 78  2  0  0  0
 77 79  1  0  0  0
 77 86  1  0  0  0
 78149  1  0  0  0
 78150  1  0  0  0
 79 81  1  0  0  0
 79151  1  0  0  0
 79152  1  0  0  0
 80 81  1  0  0  0
 80 86  1  0  0  0
 80153  1  0  0  0
 80154  1  0  0  0
 81155  1  0  0  0
 82156  1  0  0  0
 82157  1  0  0  0
 82158  1  0  0  0
 83 85  1  0  0  0
 83159  1  0  0  0
 83160  1  0  0  0
 84161  1  0  0  0
 84162  1  0  0  0
 84 86  1  0  0  0
 85163  1  0  0  0
 86164  1  0  0  0
M  CHG  1  86   1
M  ISO  4   1 100  68 101  81 101  85 100
M  END
> <chiral flag>
0

> <version>
0

> <s_m_source_file>
/data/baiqing/PycharmProjects/Reinvent-master-3.2/result/LINK_invent/BTK/process_docking_weight1_custom_product_contain_oxygen_bond_distance_aromatic_linkinvent_7_9_3/rearranged_h_0033.sdf

> <i_m_source_file_index>
51

> <r_mmod_Potential_Energy-OPLS-2005>
-105.36009979248

> <r_mmod_Stretch_Energy-OPLS-2005>
42.3459320068359

> <r_mmod_Bend_Energy-OPLS-2005>
144.18115234375

> <r_mmod_Torsional_Energy-OPLS-2005>
259.393707275391

> <r_mmod_Improper_Torsional_Energy-OPLS-2005>
7.14332723617554

> <r_mmod_Van_der_Waal_Energy-OPLS-2005>
146.006256103516

> <r_mmod_Electrostatic_Energy-OPLS-2005>
-294.144866943359

> <r_mmod_Solvation_Energy-OPLS-2005>
-428.250671386719

> <b_mmod_Minimization_Converged-OPLS-2005>
0

> <r_mmod_RMS_Derivative-OPLS-2005>
5.11980009078979

$$$$
51
                    3D
 Structure written by MMmdl.
161170  0  0  1  0            999 V2000
  -30.6112  -14.7730   20.4311 C   0  0  0  0  0  0
  -30.4252  -12.4672   19.4853 C   0  0  0  0  0  0
  -29.5101  -12.5068   18.2418 C   0  0  0  0  0  0
  -28.0367  -12.3298   18.6536 C   0  0  0  0  0  0
  -27.6372  -13.2385   19.8472 C   0  0  2  0  0  0
  -28.6796  -13.1972   20.9856 C   0  0  0  0  0  0
  -25.2489  -13.8212   20.5698 C   0  0  0  0  0  0
  -24.1793  -13.0445   20.9218 C   0  0  0  0  0  0
  -24.6392  -11.6926   20.8754 C   0  0  0  0  0  0
  -23.9078  -10.4295   21.0411 C   0  0  0  0  0  0
  -24.3627   -9.4208   21.9185 C   0  0  0  0  0  0
  -23.6299   -8.2246   22.0755 C   0  0  0  0  0  0
  -22.4282   -8.0283   21.3547 C   0  0  0  0  0  0
  -21.9919   -9.0258   20.4648 C   0  0  0  0  0  0
  -22.7251  -10.2136   20.3058 C   0  0  0  0  0  0
  -21.6856   -6.0738   22.5279 C   0  0  0  0  0  0
  -21.4014   -6.5641   23.8213 C   0  0  0  0  0  0
  -21.3658   -5.6793   24.9174 C   0  0  0  0  0  0
  -21.6043   -4.3055   24.7225 C   0  0  0  0  0  0
  -21.8819   -3.8147   23.4346 C   0  0  0  0  0  0
  -21.9193   -4.6964   22.3402 C   0  0  0  0  0  0
  -22.7812  -13.5219   21.1875 C   0  0  0  0  0  0
  -22.1662   -4.2150   21.0979 F   0  0  0  0  0  0
  -21.5628   -3.4538   25.7736 F   0  0  0  0  0  0
  -29.9781  -13.5471   20.3998 N   0  0  0  0  0  0
  -26.2914  -12.9431   20.3272 N   0  0  0  0  0  0
  -25.9323  -11.6567   20.5758 N   0  0  0  0  0  0
  -22.0464  -12.8203   22.0431 N   0  0  0  0  0  0
  -25.4168  -15.1936   20.4091 N   0  0  0  0  0  0
  -31.8142  -14.8123   20.1594 O   0  0  0  0  0  0
  -21.6644   -6.8882   21.4241 O   0  0  0  0  0  0
  -22.3492  -14.5525   20.6724 O   0  0  0  0  0  0
  -24.6326  -31.8536   23.1963 C   0  0  0  0  0  0
  -25.9145  -32.4749   23.8316 C   0  0  1  0  0  0
  -27.2119  -27.2363   20.1463 C   0  0  0  0  0  0
  -25.5939  -33.8552   24.2240 N   0  0  0  0  0  0
  -23.4300  -30.4756   21.5397 C   0  0  2  0  0  0
  -24.8769  -28.9170   20.1110 C   0  0  0  0  0  0
  -22.7507  -29.4601   22.4906 C   0  0  0  0  0  0
  -18.0296  -28.1400   22.8492 C   0  0  0  0  0  0
  -24.1483  -36.7269   23.2634 C   0  0  0  0  0  0
  -25.9772  -30.7601   21.3782 C   0  0  0  0  0  0
  -26.0488  -29.3794   20.7236 C   0  0  0  0  0  0
  -27.2208  -28.5533   20.7257 C   0  0  0  0  0  0
  -26.0229  -26.8519   19.4908 C   0  0  0  0  0  0
  -24.8711  -27.6631   19.4805 C   0  0  0  0  0  0
  -23.6489  -29.8070   20.1567 C   0  0  0  0  0  0
  -25.4107  -36.3060   24.0325 C   0  0  1  0  0  0
  -20.5901  -28.3705   23.1267 C   0  0  2  0  0  0
  -20.6785  -26.9421   22.5412 C   0  0  0  0  0  0
  -19.5756  -26.6387   21.5222 C   0  0  0  0  0  0
  -18.1935  -26.7945   22.1626 C   0  0  0  0  0  0
  -19.1551  -28.8870   23.2877 C   0  0  0  0  0  0
  -18.9473  -30.1474   23.8889 C   0  0  0  0  0  0
  -17.6470  -30.6600   24.0565 C   0  0  0  0  0  0
  -25.9061  -34.9439   23.5082 C   0  0  0  0  0  0
  -16.5361  -29.9096   23.6341 C   0  0  0  0  0  0
  -16.7282  -28.6515   23.0359 C   0  0  0  0  0  0
  -26.4499  -31.6586   25.0717 C   0  0  0  0  0  0
  -25.3709  -31.3753   26.1428 C   0  0  0  0  0  0
  -27.0350  -30.3002   24.6219 C   0  0  0  0  0  0
  -27.6048  -32.4333   25.7496 C   0  0  0  0  0  0
  -27.5590  -37.1760   24.8444 C   0  0  0  0  0  0
  -21.4212  -29.3049   22.3649 N   0  0  0  0  0  0
  -26.4266  -37.3778   23.9443 N   0  0  0  0  0  0
  -24.6992  -31.0488   22.0940 N   0  0  0  0  0  0
  -23.4200  -28.8152   23.3018 O   0  0  0  0  0  0
  -28.3024  -26.3311   20.1906 O   0  0  0  0  0  0
  -26.5640  -34.8923   22.4658 O   0  0  0  0  0  0
  -23.5473  -32.1365   23.7250 O   0  0  0  0  0  0
  -31.1920  -17.5952   19.2583 C   0  0  0  0  0  0
  -31.5262  -18.8818   18.8073 C   0  0  0  0  0  0
  -29.7149  -19.9300   20.1009 C   0  0  0  0  0  0
  -29.3887  -18.5692   20.5733 C   0  0  0  0  0  0
  -30.1393  -17.3655   20.1735 C   0  0  0  0  0  0
  -30.8254  -20.0258   19.2222 C   0  0  0  0  0  0
  -28.9535  -21.7145   21.7464 C   0  0  0  0  0  0
  -29.0379  -21.2986   20.4628 C   0  0  0  0  0  0
  -28.1996  -22.9590   22.2680 C   0  0  0  0  0  0
  -28.3566  -22.2533   19.4189 C   0  0  0  0  0  0
  -28.6315  -24.3895   21.7907 C   0  0  0  0  0  0
  -28.7106  -23.8257   19.3687 C   0  0  0  0  0  0
  -28.0808  -24.8435   20.4113 C   0  0  2  0  0  0
  -28.2149  -18.3834   21.5190 C   0  0  0  0  0  0
  -29.8580  -15.9453   20.5881 N   0  0  0  0  0  0
  -31.4125  -21.5473   18.6401 Cl  0  0  0  0  0  0
  -31.4684  -12.5788   19.1852 H   0  0  0  0  0  0
  -30.3617  -11.4972   19.9808 H   0  0  0  0  0  0
  -29.7974  -11.7272   17.5347 H   0  0  0  0  0  0
  -29.6359  -13.4568   17.7196 H   0  0  0  0  0  0
  -27.8970  -11.2826   18.9248 H   0  0  0  0  0  0
  -27.3794  -12.5121   17.8022 H   0  0  0  0  0  0
  -27.6248  -14.2560   19.4558 H   0  0  0  0  0  0
  -28.7191  -12.2079   21.4437 H   0  0  0  0  0  0
  -28.4116  -13.8942   21.7809 H   0  0  0  0  0  0
  -25.2772   -9.5683   22.4759 H   0  0  0  0  0  0
  -24.0007   -7.4636   22.7473 H   0  0  0  0  0  0
  -21.0852   -8.8779   19.8950 H   0  0  0  0  0  0
  -22.3711  -10.9675   19.6167 H   0  0  0  0  0  0
  -21.2005   -7.6150   23.9717 H   0  0  0  0  0  0
  -21.1478   -6.0522   25.9077 H   0  0  0  0  0  0
  -22.0598   -2.7608   23.2844 H   0  0  0  0  0  0
  -22.4089  -11.9863   22.4809 H   0  0  0  0  0  0
  -21.1081  -13.1216   22.2641 H   0  0  0  0  0  0
  -24.6427  -15.8419   20.5067 H   0  0  0  0  0  0
  -26.2513  -15.6283   20.0377 H   0  0  0  0  0  0
  -26.7211  -32.5387   23.1058 H   0  0  0  0  0  0
  -25.0087  -33.9689   25.0385 H   0  0  0  0  0  0
  -22.7275  -31.2985   21.3921 H   0  0  0  0  0  0
  -23.3775  -35.9567   23.3234 H   0  0  0  0  0  0
  -24.3591  -36.8956   22.2063 H   0  0  0  0  0  0
  -23.7193  -37.6431   23.6699 H   0  0  0  0  0  0
  -26.1180  -31.5178   20.6059 H   0  0  0  0  0  0
  -26.8543  -30.8108   22.0119 H   0  0  0  0  0  0
  -28.1181  -28.9020   21.2171 H   0  0  0  0  0  0
  -25.9663  -25.8975   18.9877 H   0  0  0  0  0  0
  -23.9770  -27.3076   18.9865 H   0  0  0  0  0  0
  -23.7753  -30.5813   19.3993 H   0  0  0  0  0  0
  -22.7661  -29.2420   19.8517 H   0  0  0  0  0  0
  -25.1282  -36.1878   25.0812 H   0  0  0  0  0  0
  -21.0000  -28.3287   24.1384 H   0  0  0  0  0  0
  -20.5692  -26.2319   23.3622 H   0  0  0  0  0  0
  -21.6651  -26.7452   22.1195 H   0  0  0  0  0  0
  -19.6913  -25.6296   21.1258 H   0  0  0  0  0  0
  -19.6693  -27.3192   20.6749 H   0  0  0  0  0  0
  -17.4209  -26.6708   21.4024 H   0  0  0  0  0  0
  -18.0322  -26.0089   22.9021 H   0  0  0  0  0  0
  -19.7948  -30.7300   24.2243 H   0  0  0  0  0  0
  -17.5025  -31.6277   24.5175 H   0  0  0  0  0  0
  -15.5362  -30.2994   23.7678 H   0  0  0  0  0  0
  -15.8682  -28.0833   22.7075 H   0  0  0  0  0  0
  -24.5898  -30.7085   25.7763 H   0  0  0  0  0  0
  -24.8884  -32.2929   26.4805 H   0  0  0  0  0  0
  -25.8011  -30.8970   27.0235 H   0  0  0  0  0  0
  -26.2941  -29.6749   24.1223 H   0  0  0  0  0  0
  -27.4010  -29.7267   25.4744 H   0  0  0  0  0  0
  -27.8826  -30.4282   23.9483 H   0  0  0  0  0  0
  -27.2653  -33.3646   26.2041 H   0  0  0  0  0  0
  -28.3872  -32.6869   25.0332 H   0  0  0  0  0  0
  -28.0696  -31.8478   26.5436 H   0  0  0  0  0  0
  -28.2511  -38.0154   24.7635 H   0  0  0  0  0  0
  -28.1182  -36.2697   24.6072 H   0  0  0  0  0  0
  -27.2342  -37.1161   25.8847 H   0  0  0  0  0  0
  -20.9402  -29.8759   21.6840 H   0  0  0  0  0  0
  -26.0129  -38.2822   24.1546 H   0  0  0  0  0  0
  -31.7823  -16.7858   18.8595 H   0  0  0  0  0  0
  -32.3553  -18.9957   18.1244 H   0  0  0  0  0  0
  -29.3831  -21.0848   22.5137 H   0  0  0  0  0  0
  -28.3100  -22.9323   23.3529 H   0  0  0  0  0  0
  -27.1326  -22.8155   22.0929 H   0  0  0  0  0  0
  -27.2767  -22.1213   19.4958 H   0  0  0  0  0  0
  -28.6046  -21.8468   18.4387 H   0  0  0  0  0  0
  -29.7182  -24.4766   21.8126 H   0  0  0  0  0  0
  -28.2689  -25.1040   22.5311 H   0  0  0  0  0  0
  -28.4031  -24.1791   18.3843 H   0  0  0  0  0  0
  -29.7947  -23.9391   19.3756 H   0  0  0  0  0  0
  -27.0093  -24.6503   20.4380 H   0  0  0  0  0  0
  -27.5411  -19.2394   21.5062 H   0  0  0  0  0  0
  -28.5716  -18.2443   22.5397 H   0  0  0  0  0  0
  -27.6257  -17.5100   21.2391 H   0  0  0  0  0  0
  -28.9274  -15.7805   20.9391 H   0  0  0  0  0  0
  1 25  1  0  0  0
  1 30  2  0  0  0
  1 85  1  0  0  0
  2  3  1  0  0  0
  2 25  1  0  0  0
  2 87  1  0  0  0
  2 88  1  0  0  0
  3  4  1  0  0  0
  3 89  1  0  0  0
  3 90  1  0  0  0
  4  5  1  0  0  0
  4 91  1  0  0  0
  4 92  1  0  0  0
  5  6  1  0  0  0
  5 26  1  0  0  0
  5 93  1  0  0  0
  6 25  1  0  0  0
  6 94  1  0  0  0
  6 95  1  0  0  0
  7  8  2  0  0  0
  7 26  1  0  0  0
  7 29  1  0  0  0
  8  9  1  0  0  0
  8 22  1  0  0  0
  9 10  1  0  0  0
  9 27  2  0  0  0
 10 11  2  0  0  0
 10 15  1  0  0  0
 11 12  1  0  0  0
 11 96  1  0  0  0
 12 13  2  0  0  0
 12 97  1  0  0  0
 13 14  1  0  0  0
 13 31  1  0  0  0
 14 15  2  0  0  0
 14 98  1  0  0  0
 15 99  1  0  0  0
 16 17  2  0  0  0
 16 21  1  0  0  0
 16 31  1  0  0  0
 17 18  1  0  0  0
 17100  1  0  0  0
 18 19  2  0  0  0
 18101  1  0  0  0
 19 20  1  0  0  0
 19 24  1  0  0  0
 20 21  2  0  0  0
 20102  1  0  0  0
 21 23  1  0  0  0
 22 28  1  0  0  0
 22 32  2  0  0  0
 26 27  1  0  0  0
 28103  1  0  0  0
 28104  1  0  0  0
 29105  1  0  0  0
 29106  1  0  0  0
 33 34  1  0  0  0
 33 66  1  0  0  0
 33 70  2  0  0  0
 34 36  1  0  0  0
 34 59  1  0  0  0
 34107  1  0  0  0
 35 44  2  0  0  0
 35 45  1  0  0  0
 35 68  1  0  0  0
 36 56  1  0  0  0
 36108  1  0  0  0
 37 39  1  0  0  0
 37 47  1  0  0  0
 37 66  1  0  0  0
 37109  1  0  0  0
 38 43  2  0  0  0
 38 46  1  0  0  0
 38 47  1  0  0  0
 39 64  1  0  0  0
 39 67  2  0  0  0
 40 52  1  0  0  0
 40 53  2  0  0  0
 40 58  1  0  0  0
 41110  1  0  0  0
 41111  1  0  0  0
 41112  1  0  0  0
 41 48  1  0  0  0
 42 43  1  0  0  0
 42 66  1  0  0  0
 42113  1  0  0  0
 42114  1  0  0  0
 43 44  1  0  0  0
 44115  1  0  0  0
 45 46  2  0  0  0
 45116  1  0  0  0
 46117  1  0  0  0
 47118  1  0  0  0
 47119  1  0  0  0
 48 56  1  0  0  0
 48 65  1  0  0  0
 48120  1  0  0  0
 49 50  1  0  0  0
 49 53  1  0  0  0
 49 64  1  0  0  0
 49121  1  0  0  0
 50 51  1  0  0  0
 50122  1  0  0  0
 50123  1  0  0  0
 51 52  1  0  0  0
 51124  1  0  0  0
 51125  1  0  0  0
 52126  1  0  0  0
 52127  1  0  0  0
 53 54  1  0  0  0
 54 55  2  0  0  0
 54128  1  0  0  0
 55 57  1  0  0  0
 55129  1  0  0  0
 56 69  2  0  0  0
 57 58  2  0  0  0
 57130  1  0  0  0
 58131  1  0  0  0
 59 60  1  0  0  0
 59 61  1  0  0  0
 59 62  1  0  0  0
 60132  1  0  0  0
 60133  1  0  0  0
 60134  1  0  0  0
 61135  1  0  0  0
 61136  1  0  0  0
 61137  1  0  0  0
 62138  1  0  0  0
 62139  1  0  0  0
 62140  1  0  0  0
 63 65  1  0  0  0
 63141  1  0  0  0
 63142  1  0  0  0
 63143  1  0  0  0
 64144  1  0  0  0
 65145  1  0  0  0
 68 83  1  0  0  0
 71 72  2  0  0  0
 71 75  1  0  0  0
 71146  1  0  0  0
 72 76  1  0  0  0
 72147  1  0  0  0
 73 74  1  0  0  0
 73 76  2  0  0  0
 73 78  1  0  0  0
 74 75  2  0  0  0
 74 84  1  0  0  0
 75 85  1  0  0  0
 76 86  1  0  0  0
 77 78  2  0  0  0
 77 79  1  0  0  0
 77148  1  0  0  0
 78 80  1  0  0  0
 79 81  1  0  0  0
 79149  1  0  0  0
 79150  1  0  0  0
 80 82  1  0  0  0
 80151  1  0  0  0
 80152  1  0  0  0
 81 83  1  0  0  0
 81153  1  0  0  0
 81154  1  0  0  0
 82 83  1  0  0  0
 82155  1  0  0  0
 82156  1  0  0  0
 83157  1  0  0  0
 84158  1  0  0  0
 84159  1  0  0  0
 84160  1  0  0  0
 85161  1  0  0  0
M  ISO  4   1 100  68 101  83 101  85 100
M  END
> <chiral flag>
0

> <version>
0

> <s_m_source_file>
/data/baiqing/PycharmProjects/Reinvent-master-3.2/result/LINK_invent/BTK/process_docking_weight1_custom_product_contain_oxygen_bond_distance_aromatic_linkinvent_7_9_3/rearranged_h_0033.sdf

> <i_m_source_file_index>
52

> <r_mmod_Potential_Energy-OPLS-2005>
269.954376220703

> <r_mmod_Stretch_Energy-OPLS-2005>
146.408340454102

> <r_mmod_Bend_Energy-OPLS-2005>
183.052764892578

> <r_mmod_Torsional_Energy-OPLS-2005>
268.490051269531

> <r_mmod_Improper_Torsional_Energy-OPLS-2005>
4.37916040420532

> <r_mmod_Van_der_Waal_Energy-OPLS-2005>
142.134078979492

> <r_mmod_Electrostatic_Energy-OPLS-2005>
-374.962615966797

> <r_mmod_Solvation_Energy-OPLS-2005>
-199.018218994141

> <b_mmod_Minimization_Converged-OPLS-2005>
0

> <r_mmod_RMS_Derivative-OPLS-2005>
0.740684866905212

$$$$
52
                    3D
 Structure written by MMmdl.
170179  0  0  1  0            999 V2000
  -30.7603  -14.4386   20.6173 C   0  0  0  0  0  0
  -30.4105  -12.3091   19.4163 C   0  0  0  0  0  0
  -29.4849  -12.5130   18.2019 C   0  0  0  0  0  0
  -28.0096  -12.3705   18.6182 C   0  0  0  0  0  0
  -27.6600  -13.2135   19.8739 C   0  0  2  0  0  0
  -28.7030  -13.0089   20.9959 C   0  0  0  0  0  0
  -25.2573  -13.8184   20.5699 C   0  0  0  0  0  0
  -24.1829  -13.0448   20.9183 C   0  0  0  0  0  0
  -24.6397  -11.6915   20.8736 C   0  0  0  0  0  0
  -23.9067  -10.4295   21.0400 C   0  0  0  0  0  0
  -24.3622   -9.4214   21.9176 C   0  0  0  0  0  0
  -23.6298   -8.2247   22.0748 C   0  0  0  0  0  0
  -22.4277   -8.0286   21.3544 C   0  0  0  0  0  0
  -21.9912   -9.0258   20.4645 C   0  0  0  0  0  0
  -22.7239  -10.2133   20.3051 C   0  0  0  0  0  0
  -21.6853   -6.0739   22.5282 C   0  0  0  0  0  0
  -21.4013   -6.5641   23.8219 C   0  0  0  0  0  0
  -21.3659   -5.6789   24.9179 C   0  0  0  0  0  0
  -21.6042   -4.3053   24.7223 C   0  0  0  0  0  0
  -21.8817   -3.8149   23.4347 C   0  0  0  0  0  0
  -21.9193   -4.6966   22.3404 C   0  0  0  0  0  0
  -22.7851  -13.5236   21.1851 C   0  0  0  0  0  0
  -22.1661   -4.2156   21.0979 F   0  0  0  0  0  0
  -21.5629   -3.4537   25.7736 F   0  0  0  0  0  0
  -30.0372  -13.2982   20.4418 N   0  0  0  0  0  0
  -26.3019  -12.9368   20.3381 N   0  0  0  0  0  0
  -25.9329  -11.6517   20.5775 N   0  0  0  0  0  0
  -22.0497  -12.8218   22.0406 N   0  0  0  0  0  0
  -25.4296  -15.1903   20.4124 N   0  0  0  0  0  0
  -31.8411  -14.6282   20.0538 O   0  0  0  0  0  0
  -21.6641   -6.8882   21.4244 O   0  0  0  0  0  0
  -22.3534  -14.5544   20.6712 O   0  0  0  0  0  0
  -24.6138  -31.8690   23.2117 C   0  0  0  0  0  0
  -25.9039  -32.4822   23.8396 C   0  0  1  0  0  0
  -27.2196  -27.4207   20.1093 C   0  0  0  0  0  0
  -25.5918  -33.8622   24.2329 N   0  0  0  0  0  0
  -23.4028  -30.4930   21.5519 C   0  0  2  0  0  0
  -24.8524  -28.9674   20.1073 C   0  0  0  0  0  0
  -22.7417  -29.4648   22.4993 C   0  0  0  0  0  0
  -18.0275  -28.1378   22.8478 C   0  0  0  0  0  0
  -24.1502  -36.7310   23.2631 C   0  0  0  0  0  0
  -25.9342  -30.8258   21.3756 C   0  0  0  0  0  0
  -26.0108  -29.4616   20.7215 C   0  0  0  0  0  0
  -27.1993  -28.6915   20.7302 C   0  0  0  0  0  0
  -26.0646  -26.9779   19.4313 C   0  0  0  0  0  0
  -24.8740  -27.7231   19.4580 C   0  0  0  0  0  0
  -23.6129  -29.8305   20.1642 C   0  0  0  0  0  0
  -25.4113  -36.3098   24.0339 C   0  0  1  0  0  0
  -20.5861  -28.3659   23.1324 C   0  0  2  0  0  0
  -20.6770  -26.9401   22.5423 C   0  0  0  0  0  0
  -19.5755  -26.6378   21.5213 C   0  0  0  0  0  0
  -18.1922  -26.7926   22.1601 C   0  0  0  0  0  0
  -19.1523  -28.8836   23.2897 C   0  0  0  0  0  0
  -18.9454  -30.1438   23.8911 C   0  0  0  0  0  0
  -17.6459  -30.6587   24.0557 C   0  0  0  0  0  0
  -25.9046  -34.9470   23.5120 C   0  0  0  0  0  0
  -16.5350  -29.9087   23.6333 C   0  0  0  0  0  0
  -16.7265  -28.6505   23.0343 C   0  0  0  0  0  0
  -26.4476  -31.6593   25.0719 C   0  0  0  0  0  0
  -25.3744  -31.3735   26.1478 C   0  0  0  0  0  0
  -27.0269  -30.3009   24.6098 C   0  0  0  0  0  0
  -27.6068  -32.4306   25.7456 C   0  0  0  0  0  0
  -27.5606  -37.1781   24.8446 C   0  0  0  0  0  0
  -21.4146  -29.3022   22.3740 N   0  0  0  0  0  0
  -26.4294  -37.3789   23.9428 N   0  0  0  0  0  0
  -24.6678  -31.0771   22.1035 N   0  0  0  0  0  0
  -23.4192  -28.8194   23.3032 O   0  0  0  0  0  0
  -28.3349  -26.6056   20.1300 O   0  0  0  0  0  0
  -26.5591  -34.8922   22.4672 O   0  0  0  0  0  0
  -23.5331  -32.1469   23.7495 O   0  0  0  0  0  0
  -30.6793  -18.5368   20.3926 C   0  0  0  0  0  0
  -29.2740  -19.9936   22.3226 C   0  0  0  0  0  0
  -30.2743  -19.8650   20.1092 C   0  0  0  0  0  0
  -29.6600  -18.6615   22.5951 C   0  0  0  0  0  0
  -30.3940  -17.9247   21.6328 C   0  0  0  0  0  0
  -29.5707  -20.6169   21.0877 C   0  0  0  0  0  0
  -26.7713  -23.3397   20.9703 C   0  0  0  0  0  0
  -27.0519  -24.6603   21.0935 C   0  0  0  0  0  0
  -25.3592  -22.8165   20.7800 C   0  0  0  0  0  0
  -25.4676  -21.5307   19.9466 C   0  0  0  0  0  0
  -26.9683  -21.3010   19.7546 C   0  0  0  0  0  0
  -30.6291  -20.4618   18.7562 C   0  0  0  0  0  0
  -29.2882  -18.0536   23.9379 C   0  0  0  0  0  0
  -30.9794  -16.5378   21.9448 C   0  0  0  0  0  0
  -29.0810  -22.0633   20.8517 C   0  0  0  0  0  0
  -28.3337  -25.5035   21.0825 C   0  0  0  0  0  0
  -30.2400  -15.3728   21.4326 N   0  0  0  0  0  0
  -27.6010  -22.0981   20.8204 N   0  3  2  0  0  0
  -31.4556  -12.3896   19.1113 H   0  0  0  0  0  0
  -30.2996  -11.2998   19.8159 H   0  0  0  0  0  0
  -29.7237  -11.7907   17.4199 H   0  0  0  0  0  0
  -29.6521  -13.5014   17.7702 H   0  0  0  0  0  0
  -27.8221  -11.3146   18.8158 H   0  0  0  0  0  0
  -27.3568  -12.6440   17.7886 H   0  0  0  0  0  0
  -27.7012  -14.2608   19.5721 H   0  0  0  0  0  0
  -28.6753  -11.9796   21.3559 H   0  0  0  0  0  0
  -28.4592  -13.6271   21.8603 H   0  0  0  0  0  0
  -25.2770   -9.5688   22.4747 H   0  0  0  0  0  0
  -24.0017   -7.4633   22.7462 H   0  0  0  0  0  0
  -21.0850   -8.8771   19.8949 H   0  0  0  0  0  0
  -22.3704  -10.9670   19.6159 H   0  0  0  0  0  0
  -21.1999   -7.6147   23.9725 H   0  0  0  0  0  0
  -21.1481   -6.0518   25.9081 H   0  0  0  0  0  0
  -22.0592   -2.7613   23.2842 H   0  0  0  0  0  0
  -22.4116  -11.9876   22.4785 H   0  0  0  0  0  0
  -21.1112  -13.1233   22.2613 H   0  0  0  0  0  0
  -24.6669  -15.8489   20.5273 H   0  0  0  0  0  0
  -26.2920  -15.6303   20.1155 H   0  0  0  0  0  0
  -26.7099  -32.5528   23.1150 H   0  0  0  0  0  0
  -25.0116  -33.9800   25.0500 H   0  0  0  0  0  0
  -22.6898  -31.3083   21.4145 H   0  0  0  0  0  0
  -23.3788  -35.9616   23.3232 H   0  0  0  0  0  0
  -24.3628  -36.8980   22.2061 H   0  0  0  0  0  0
  -23.7222  -37.6482   23.6684 H   0  0  0  0  0  0
  -26.0569  -31.5920   20.6093 H   0  0  0  0  0  0
  -26.8180  -30.8726   21.9999 H   0  0  0  0  0  0
  -28.0860  -29.0585   21.2266 H   0  0  0  0  0  0
  -26.0740  -26.0298   18.9129 H   0  0  0  0  0  0
  -23.9899  -27.3445   18.9650 H   0  0  0  0  0  0
  -23.7171  -30.6084   19.4076 H   0  0  0  0  0  0
  -22.7380  -29.2497   19.8666 H   0  0  0  0  0  0
  -25.1280  -36.1952   25.0830 H   0  0  0  0  0  0
  -20.9937  -28.3229   24.1448 H   0  0  0  0  0  0
  -20.5676  -26.2272   23.3612 H   0  0  0  0  0  0
  -21.6644  -26.7453   22.1212 H   0  0  0  0  0  0
  -19.6927  -25.6288   21.1246 H   0  0  0  0  0  0
  -19.6711  -27.3187   20.6745 H   0  0  0  0  0  0
  -17.4206  -26.6689   21.3991 H   0  0  0  0  0  0
  -18.0309  -26.0062   22.8987 H   0  0  0  0  0  0
  -19.7936  -30.7239   24.2299 H   0  0  0  0  0  0
  -17.5021  -31.6278   24.5140 H   0  0  0  0  0  0
  -15.5354  -30.2986   23.7667 H   0  0  0  0  0  0
  -15.8656  -28.0830   22.7051 H   0  0  0  0  0  0
  -24.5903  -30.7091   25.7838 H   0  0  0  0  0  0
  -24.8962  -32.2910   26.4917 H   0  0  0  0  0  0
  -25.8093  -30.8915   27.0239 H   0  0  0  0  0  0
  -26.2784  -29.6798   24.1163 H   0  0  0  0  0  0
  -27.4030  -29.7224   25.4545 H   0  0  0  0  0  0
  -27.8643  -30.4294   23.9234 H   0  0  0  0  0  0
  -27.2707  -33.3622   26.2020 H   0  0  0  0  0  0
  -28.3872  -32.6836   25.0268 H   0  0  0  0  0  0
  -28.0733  -31.8434   26.5375 H   0  0  0  0  0  0
  -28.2554  -38.0146   24.7587 H   0  0  0  0  0  0
  -28.1169  -36.2685   24.6132 H   0  0  0  0  0  0
  -27.2350  -37.1253   25.8849 H   0  0  0  0  0  0
  -20.9319  -29.8756   21.6958 H   0  0  0  0  0  0
  -26.0183  -38.2861   24.1466 H   0  0  0  0  0  0
  -31.2478  -17.9825   19.6569 H   0  0  0  0  0  0
  -28.7369  -20.5465   23.0824 H   0  0  0  0  0  0
  -26.1669  -25.2624   21.2262 H   0  0  0  0  0  0
  -24.7427  -23.5562   20.2673 H   0  0  0  0  0  0
  -24.9044  -22.6221   21.7528 H   0  0  0  0  0  0
  -24.9611  -21.6244   18.9846 H   0  0  0  0  0  0
  -25.0092  -20.6934   20.4746 H   0  0  0  0  0  0
  -27.2900  -21.6752   18.7818 H   0  0  0  0  0  0
  -27.2216  -20.2411   19.8079 H   0  0  0  0  0  0
  -31.0805  -19.7183   18.0984 H   0  0  0  0  0  0
  -31.3460  -21.2753   18.8710 H   0  0  0  0  0  0
  -29.7437  -20.8486   18.2516 H   0  0  0  0  0  0
  -28.5797  -18.6805   24.4796 H   0  0  0  0  0  0
  -30.1699  -17.9291   24.5668 H   0  0  0  0  0  0
  -28.8203  -17.0787   23.8005 H   0  0  0  0  0  0
  -31.0894  -16.4052   23.0202 H   0  0  0  0  0  0
  -32.0088  -16.5416   21.5813 H   0  0  0  0  0  0
  -29.4871  -22.5085   19.9441 H   0  0  0  0  0  0
  -29.4332  -22.6747   21.6825 H   0  0  0  0  0  0
  -29.1985  -24.8746   20.8791 H   0  0  0  0  0  0
  -28.4748  -25.9127   22.0838 H   0  0  0  0  0  0
  -29.3369  -15.1811   21.8378 H   0  0  0  0  0  0
  -27.3923  -21.5564   21.6446 H   0  0  0  0  0  0
  1 25  1  0  0  0
  1 30  2  0  0  0
  1 87  1  0  0  0
  2  3  1  0  0  0
  2 25  1  0  0  0
  2 89  1  0  0  0
  2 90  1  0  0  0
  3  4  1  0  0  0
  3 91  1  0  0  0
  3 92  1  0  0  0
  4  5  1  0  0  0
  4 93  1  0  0  0
  4 94  1  0  0  0
  5  6  1  0  0  0
  5 26  1  0  0  0
  5 95  1  0  0  0
  6 25  1  0  0  0
  6 96  1  0  0  0
  6 97  1  0  0  0
  7  8  2  0  0  0
  7 26  1  0  0  0
  7 29  1  0  0  0
  8  9  1  0  0  0
  8 22  1  0  0  0
  9 10  1  0  0  0
  9 27  2  0  0  0
 10 11  2  0  0  0
 10 15  1  0  0  0
 11 12  1  0  0  0
 11 98  1  0  0  0
 12 13  2  0  0  0
 12 99  1  0  0  0
 13 14  1  0  0  0
 13 31  1  0  0  0
 14 15  2  0  0  0
 14100  1  0  0  0
 15101  1  0  0  0
 16 17  2  0  0  0
 16 21  1  0  0  0
 16 31  1  0  0  0
 17 18  1  0  0  0
 17102  1  0  0  0
 18 19  2  0  0  0
 18103  1  0  0  0
 19 20  1  0  0  0
 19 24  1  0  0  0
 20 21  2  0  0  0
 20104  1  0  0  0
 21 23  1  0  0  0
 22 28  1  0  0  0
 22 32  2  0  0  0
 26 27  1  0  0  0
 28105  1  0  0  0
 28106  1  0  0  0
 29107  1  0  0  0
 29108  1  0  0  0
 33 34  1  0  0  0
 33 66  1  0  0  0
 33 70  2  0  0  0
 34 36  1  0  0  0
 34 59  1  0  0  0
 34109  1  0  0  0
 35 44  2  0  0  0
 35 45  1  0  0  0
 35 68  1  0  0  0
 36 56  1  0  0  0
 36110  1  0  0  0
 37 39  1  0  0  0
 37 47  1  0  0  0
 37 66  1  0  0  0
 37111  1  0  0  0
 38 43  2  0  0  0
 38 46  1  0  0  0
 38 47  1  0  0  0
 39 64  1  0  0  0
 39 67  2  0  0  0
 40 52  1  0  0  0
 40 53  2  0  0  0
 40 58  1  0  0  0
 41112  1  0  0  0
 41113  1  0  0  0
 41114  1  0  0  0
 41 48  1  0  0  0
 42 43  1  0  0  0
 42 66  1  0  0  0
 42115  1  0  0  0
 42116  1  0  0  0
 43 44  1  0  0  0
 44117  1  0  0  0
 45 46  2  0  0  0
 45118  1  0  0  0
 46119  1  0  0  0
 47120  1  0  0  0
 47121  1  0  0  0
 48 56  1  0  0  0
 48 65  1  0  0  0
 48122  1  0  0  0
 49 50  1  0  0  0
 49 53  1  0  0  0
 49 64  1  0  0  0
 49123  1  0  0  0
 50 51  1  0  0  0
 50124  1  0  0  0
 50125  1  0  0  0
 51 52  1  0  0  0
 51126  1  0  0  0
 51127  1  0  0  0
 52128  1  0  0  0
 52129  1  0  0  0
 53 54  1  0  0  0
 54 55  2  0  0  0
 54130  1  0  0  0
 55 57  1  0  0  0
 55131  1  0  0  0
 56 69  2  0  0  0
 57 58  2  0  0  0
 57132  1  0  0  0
 58133  1  0  0  0
 59 60  1  0  0  0
 59 61  1  0  0  0
 59 62  1  0  0  0
 60134  1  0  0  0
 60135  1  0  0  0
 60136  1  0  0  0
 61137  1  0  0  0
 61138  1  0  0  0
 61139  1  0  0  0
 62140  1  0  0  0
 62141  1  0  0  0
 62142  1  0  0  0
 63 65  1  0  0  0
 63143  1  0  0  0
 63144  1  0  0  0
 63145  1  0  0  0
 64146  1  0  0  0
 65147  1  0  0  0
 68 86  1  0  0  0
 71 73  2  0  0  0
 71 75  1  0  0  0
 71148  1  0  0  0
 72 74  1  0  0  0
 72 76  2  0  0  0
 72149  1  0  0  0
 73 76  1  0  0  0
 73 82  1  0  0  0
 74 75  2  0  0  0
 74 83  1  0  0  0
 75 84  1  0  0  0
 76 85  1  0  0  0
 77 78  2  0  0  0
 77 79  1  0  0  0
 77 88  1  0  0  0
 78 86  1  0  0  0
 78150  1  0  0  0
 79 80  1  0  0  0
 79151  1  0  0  0
 79152  1  0  0  0
 80 81  1  0  0  0
 80153  1  0  0  0
 80154  1  0  0  0
 81 88  1  0  0  0
 81155  1  0  0  0
 81156  1  0  0  0
 82157  1  0  0  0
 82158  1  0  0  0
 82159  1  0  0  0
 83160  1  0  0  0
 83161  1  0  0  0
 83162  1  0  0  0
 84 87  1  0  0  0
 84163  1  0  0  0
 84164  1  0  0  0
 85165  1  0  0  0
 85166  1  0  0  0
 85 88  1  0  0  0
 86167  1  0  0  0
 86168  1  0  0  0
 87169  1  0  0  0
 88170  1  0  0  0
M  CHG  1  88   1
M  ISO  4   1 100  68 101  86 101  87 100
M  END
> <chiral flag>
0

> <version>
0

> <s_m_source_file>
/data/baiqing/PycharmProjects/Reinvent-master-3.2/result/LINK_invent/BTK/process_docking_weight1_custom_product_contain_oxygen_bond_distance_aromatic_linkinvent_7_9_3/rearranged_h_0033.sdf

> <i_m_source_file_index>
53

> <r_mmod_Potential_Energy-OPLS-2005>
-122.620399475098

> <r_mmod_Stretch_Energy-OPLS-2005>
42.061279296875

> <r_mmod_Bend_Energy-OPLS-2005>
168.821472167969

> <r_mmod_Torsional_Energy-OPLS-2005>
248.8203125

> <r_mmod_Improper_Torsional_Energy-OPLS-2005>
2.32089924812317

> <r_mmod_Van_der_Waal_Energy-OPLS-2005>
151.382751464844

> <r_mmod_Electrostatic_Energy-OPLS-2005>
-330.257781982422

> <r_mmod_Solvation_Energy-OPLS-2005>
-421.025848388672

> <b_mmod_Minimization_Converged-OPLS-2005>
0

> <r_mmod_RMS_Derivative-OPLS-2005>
1.39151036739349

$$$$
53
                    3D
 Structure written by MMmdl.
172181  0  0  1  0            999 V2000
  -30.6019  -14.7419   20.4424 C   0  0  0  0  0  0
  -30.4314  -12.4482   19.4969 C   0  0  0  0  0  0
  -29.5257  -12.5179   18.2483 C   0  0  0  0  0  0
  -28.0485  -12.3372   18.6451 C   0  0  0  0  0  0
  -27.6418  -13.2329   19.8468 C   0  0  2  0  0  0
  -28.6736  -13.1835   20.9940 C   0  0  0  0  0  0
  -25.2522  -13.8194   20.5662 C   0  0  0  0  0  0
  -24.1818  -13.0449   20.9191 C   0  0  0  0  0  0
  -24.6402  -11.6933   20.8728 C   0  0  0  0  0  0
  -23.9079  -10.4316   21.0379 C   0  0  0  0  0  0
  -24.3636   -9.4234   21.9156 C   0  0  0  0  0  0
  -23.6323   -8.2260   22.0739 C   0  0  0  0  0  0
  -22.4297   -8.0286   21.3537 C   0  0  0  0  0  0
  -21.9930   -9.0254   20.4627 C   0  0  0  0  0  0
  -22.7252  -10.2141   20.3028 C   0  0  0  0  0  0
  -21.6858   -6.0750   22.5285 C   0  0  0  0  0  0
  -21.4017   -6.5653   23.8222 C   0  0  0  0  0  0
  -21.3666   -5.6805   24.9185 C   0  0  0  0  0  0
  -21.6027   -4.3065   24.7226 C   0  0  0  0  0  0
  -21.8822   -3.8159   23.4351 C   0  0  0  0  0  0
  -21.9203   -4.6978   22.3407 C   0  0  0  0  0  0
  -22.7853  -13.5237   21.1862 C   0  0  0  0  0  0
  -22.1665   -4.2170   21.0985 F   0  0  0  0  0  0
  -21.5630   -3.4543   25.7727 F   0  0  0  0  0  0
  -29.9894  -13.5104   20.4303 N   0  0  0  0  0  0
  -26.2931  -12.9392   20.3214 N   0  0  0  0  0  0
  -25.9325  -11.6545   20.5693 N   0  0  0  0  0  0
  -22.0493  -12.8221   22.0408 N   0  0  0  0  0  0
  -25.4250  -15.1919   20.4101 N   0  0  0  0  0  0
  -31.7791  -14.8475   20.0862 O   0  0  0  0  0  0
  -21.6662   -6.8879   21.4239 O   0  0  0  0  0  0
  -22.3545  -14.5539   20.6698 O   0  0  0  0  0  0
  -24.6319  -31.8550   23.1992 C   0  0  0  0  0  0
  -25.9165  -32.4749   23.8303 C   0  0  1  0  0  0
  -27.2195  -27.2814   20.1044 C   0  0  0  0  0  0
  -25.5977  -33.8562   24.2240 N   0  0  0  0  0  0
  -23.4253  -30.4811   21.5438 C   0  0  2  0  0  0
  -24.8642  -28.9276   20.1072 C   0  0  0  0  0  0
  -22.7466  -29.4634   22.4926 C   0  0  0  0  0  0
  -18.0287  -28.1414   22.8486 C   0  0  0  0  0  0
  -24.1515  -36.7274   23.2640 C   0  0  0  0  0  0
  -25.9697  -30.7709   21.3760 C   0  0  0  0  0  0
  -26.0372  -29.3981   20.7105 C   0  0  0  0  0  0
  -27.2126  -28.5855   20.6998 C   0  0  0  0  0  0
  -26.0153  -26.8629   19.4910 C   0  0  0  0  0  0
  -24.8567  -27.6670   19.4910 C   0  0  0  0  0  0
  -23.6362  -29.8167   20.1580 C   0  0  0  0  0  0
  -25.4140  -36.3089   24.0324 C   0  0  1  0  0  0
  -20.5879  -28.3714   23.1268 C   0  0  2  0  0  0
  -20.6808  -26.9433   22.5411 C   0  0  0  0  0  0
  -19.5783  -26.6398   21.5228 C   0  0  0  0  0  0
  -18.1948  -26.7967   22.1615 C   0  0  0  0  0  0
  -19.1541  -28.8874   23.2879 C   0  0  0  0  0  0
  -18.9465  -30.1473   23.8888 C   0  0  0  0  0  0
  -17.6464  -30.6598   24.0587 C   0  0  0  0  0  0
  -25.9072  -34.9446   23.5075 C   0  0  0  0  0  0
  -16.5345  -29.9096   23.6361 C   0  0  0  0  0  0
  -16.7272  -28.6529   23.0351 C   0  0  0  0  0  0
  -26.4522  -31.6588   25.0688 C   0  0  0  0  0  0
  -25.3724  -31.3749   26.1385 C   0  0  0  0  0  0
  -27.0377  -30.3012   24.6184 C   0  0  0  0  0  0
  -27.6074  -32.4335   25.7451 C   0  0  0  0  0  0
  -27.5590  -37.1802   24.8450 C   0  0  0  0  0  0
  -21.4175  -29.3061   22.3654 N   0  0  0  0  0  0
  -26.4309  -37.3792   23.9398 N   0  0  0  0  0  0
  -24.6958  -31.0518   22.0967 N   0  0  0  0  0  0
  -23.4159  -28.8157   23.3026 O   0  0  0  0  0  0
  -28.3517  -26.4427   20.1657 O   0  0  0  0  0  0
  -26.5610  -34.8913   22.4624 O   0  0  0  0  0  0
  -23.5483  -32.1357   23.7317 O   0  0  0  0  0  0
  -30.1980  -17.2199   18.6752 C   0  0  0  0  0  0
  -29.2589  -19.7120   19.7991 C   0  0  0  0  0  0
  -29.5773  -19.5953   18.4030 C   0  0  0  0  0  0
  -29.3932  -18.4790   20.5972 C   0  0  0  0  0  0
  -29.8339  -17.2002   20.0330 C   0  0  0  0  0  0
  -30.0665  -18.3686   17.8828 C   0  0  0  0  0  0
  -28.7590  -21.0798   20.3689 C   0  0  0  0  0  0
  -29.0689  -22.3933   20.0353 C   0  0  0  0  0  0
  -29.3490  -20.6816   17.4070 C   0  0  0  0  0  0
  -30.6927  -18.9842   25.3228 C   0  0  0  0  0  0
  -31.1436  -20.2708   24.6333 C   0  0  0  0  0  0
  -30.3538  -18.0221   24.1740 C   0  0  0  0  0  0
  -30.3571  -20.2607   23.3203 C   0  0  0  0  0  0
  -27.9034  -20.9956   17.0958 C   0  0  0  0  0  0
  -29.0503  -18.5049   22.0883 C   0  0  0  0  0  0
  -28.4974  -23.7660   20.5934 C   0  0  0  0  0  0
  -28.4204  -25.0494   19.6184 C   0  0  0  0  0  0
  -29.8333  -15.8701   20.7098 N   0  0  0  0  0  0
  -30.2268  -18.8343   22.9372 N   0  3  0  0  0  0
  -30.3575  -18.2446   16.5639 F   0  0  0  0  0  0
  -30.5961  -21.4962   16.6390 S   0  0  0  0  0  0
  -31.4783  -12.5627   19.2118 H   0  0  0  0  0  0
  -30.3554  -11.4675   19.9695 H   0  0  0  0  0  0
  -29.8189  -11.7507   17.5311 H   0  0  0  0  0  0
  -29.6625  -13.4799   17.7470 H   0  0  0  0  0  0
  -27.9123  -11.2846   18.8965 H   0  0  0  0  0  0
  -27.3980  -12.5265   17.7899 H   0  0  0  0  0  0
  -27.6318  -14.2535   19.4634 H   0  0  0  0  0  0
  -28.6877  -12.2029   21.4677 H   0  0  0  0  0  0
  -28.3943  -13.8927   21.7746 H   0  0  0  0  0  0
  -25.2779   -9.5724   22.4745 H   0  0  0  0  0  0
  -24.0042   -7.4648   22.7456 H   0  0  0  0  0  0
  -21.0871   -8.8753   19.8940 H   0  0  0  0  0  0
  -22.3684  -10.9671   19.6144 H   0  0  0  0  0  0
  -21.2002   -7.6161   23.9732 H   0  0  0  0  0  0
  -21.1483   -6.0536   25.9090 H   0  0  0  0  0  0
  -22.0594   -2.7623   23.2847 H   0  0  0  0  0  0
  -22.4114  -11.9896   22.4813 H   0  0  0  0  0  0
  -21.1066  -13.1194   22.2534 H   0  0  0  0  0  0
  -24.6504  -15.8414   20.4864 H   0  0  0  0  0  0
  -26.2685  -15.6261   20.0600 H   0  0  0  0  0  0
  -26.7222  -32.5374   23.1029 H   0  0  0  0  0  0
  -25.0198  -33.9707   25.0442 H   0  0  0  0  0  0
  -22.7262  -31.3078   21.4034 H   0  0  0  0  0  0
  -23.3792  -35.9591   23.3289 H   0  0  0  0  0  0
  -24.3616  -36.8899   22.2058 H   0  0  0  0  0  0
  -23.7244  -37.6460   23.6660 H   0  0  0  0  0  0
  -26.1117  -31.5395   20.6140 H   0  0  0  0  0  0
  -26.8472  -30.8040   22.0106 H   0  0  0  0  0  0
  -28.1074  -28.9448   21.1878 H   0  0  0  0  0  0
  -25.9180  -25.8956   19.0281 H   0  0  0  0  0  0
  -23.9522  -27.3000   19.0241 H   0  0  0  0  0  0
  -23.7579  -30.5951   19.4037 H   0  0  0  0  0  0
  -22.7504  -29.2559   19.8563 H   0  0  0  0  0  0
  -25.1357  -36.1942   25.0824 H   0  0  0  0  0  0
  -20.9998  -28.3336   24.1378 H   0  0  0  0  0  0
  -20.5782  -26.2312   23.3617 H   0  0  0  0  0  0
  -21.6672  -26.7527   22.1158 H   0  0  0  0  0  0
  -19.6949  -25.6310   21.1250 H   0  0  0  0  0  0
  -19.6746  -27.3224   20.6778 H   0  0  0  0  0  0
  -17.4245  -26.6725   21.3987 H   0  0  0  0  0  0
  -18.0311  -26.0120   22.9015 H   0  0  0  0  0  0
  -19.7933  -30.7324   24.2227 H   0  0  0  0  0  0
  -17.5017  -31.6286   24.5194 H   0  0  0  0  0  0
  -15.5344  -30.3006   23.7716 H   0  0  0  0  0  0
  -15.8672  -28.0875   22.7033 H   0  0  0  0  0  0
  -24.5860  -30.7161   25.7690 H   0  0  0  0  0  0
  -24.8928  -32.2922   26.4812 H   0  0  0  0  0  0
  -25.7974  -30.8876   27.0165 H   0  0  0  0  0  0
  -26.2944  -29.6726   24.1248 H   0  0  0  0  0  0
  -27.4124  -29.7323   25.4708 H   0  0  0  0  0  0
  -27.8815  -30.4294   23.9387 H   0  0  0  0  0  0
  -27.2671  -33.3643   26.2008 H   0  0  0  0  0  0
  -28.3876  -32.6888   25.0263 H   0  0  0  0  0  0
  -28.0754  -31.8463   26.5366 H   0  0  0  0  0  0
  -28.2626  -38.0095   24.7564 H   0  0  0  0  0  0
  -28.1074  -36.2630   24.6238 H   0  0  0  0  0  0
  -27.2278  -37.1417   25.8843 H   0  0  0  0  0  0
  -20.9336  -29.8735   21.6822 H   0  0  0  0  0  0
  -26.0180  -38.2862   24.1415 H   0  0  0  0  0  0
  -30.5265  -16.3198   18.1787 H   0  0  0  0  0  0
  -27.9948  -20.9848   21.1253 H   0  0  0  0  0  0
  -29.8404  -22.5551   19.3004 H   0  0  0  0  0  0
  -29.7972  -19.1721   25.9174 H   0  0  0  0  0  0
  -31.4492  -18.5772   25.9971 H   0  0  0  0  0  0
  -32.2146  -20.2329   24.4255 H   0  0  0  0  0  0
  -30.9559  -21.1624   25.2346 H   0  0  0  0  0  0
  -29.4514  -17.4568   24.4152 H   0  0  0  0  0  0
  -31.1539  -17.2952   24.0290 H   0  0  0  0  0  0
  -30.8447  -20.8541   22.5443 H   0  0  0  0  0  0
  -29.3710  -20.6927   23.4983 H   0  0  0  0  0  0
  -27.6755  -22.0314   17.3500 H   0  0  0  0  0  0
  -27.2267  -20.3487   17.6550 H   0  0  0  0  0  0
  -27.7159  -20.8410   16.0329 H   0  0  0  0  0  0
  -28.6826  -17.5137   22.3480 H   0  0  0  0  0  0
  -28.2050  -19.1556   22.3038 H   0  0  0  0  0  0
  -29.1504  -24.0410   21.4226 H   0  0  0  0  0  0
  -27.5188  -23.5893   21.0403 H   0  0  0  0  0  0
  -27.6794  -24.8648   18.8446 H   0  0  0  0  0  0
  -29.3523  -25.0477   19.0523 H   0  0  0  0  0  0
  -28.9812  -15.6490   21.2029 H   0  0  0  0  0  0
  -31.0436  -18.6052   22.3902 H   0  0  0  0  0  0
  1 25  1  0  0  0
  1 30  2  0  0  0
  1 88  1  0  0  0
  2  3  1  0  0  0
  2 25  1  0  0  0
  2 92  1  0  0  0
  2 93  1  0  0  0
  3  4  1  0  0  0
  3 94  1  0  0  0
  3 95  1  0  0  0
  4  5  1  0  0  0
  4 96  1  0  0  0
  4 97  1  0  0  0
  5  6  1  0  0  0
  5 26  1  0  0  0
  5 98  1  0  0  0
  6 25  1  0  0  0
  6 99  1  0  0  0
  6100  1  0  0  0
  7  8  2  0  0  0
  7 26  1  0  0  0
  7 29  1  0  0  0
  8  9  1  0  0  0
  8 22  1  0  0  0
  9 10  1  0  0  0
  9 27  2  0  0  0
 10 11  2  0  0  0
 10 15  1  0  0  0
 11 12  1  0  0  0
 11101  1  0  0  0
 12 13  2  0  0  0
 12102  1  0  0  0
 13 14  1  0  0  0
 13 31  1  0  0  0
 14 15  2  0  0  0
 14103  1  0  0  0
 15104  1  0  0  0
 16 17  2  0  0  0
 16 21  1  0  0  0
 16 31  1  0  0  0
 17 18  1  0  0  0
 17105  1  0  0  0
 18 19  2  0  0  0
 18106  1  0  0  0
 19 20  1  0  0  0
 19 24  1  0  0  0
 20 21  2  0  0  0
 20107  1  0  0  0
 21 23  1  0  0  0
 22 28  1  0  0  0
 22 32  2  0  0  0
 26 27  1  0  0  0
 28108  1  0  0  0
 28109  1  0  0  0
 29110  1  0  0  0
 29111  1  0  0  0
 33 34  1  0  0  0
 33 66  1  0  0  0
 33 70  2  0  0  0
 34 36  1  0  0  0
 34 59  1  0  0  0
 34112  1  0  0  0
 35 44  2  0  0  0
 35 45  1  0  0  0
 35 68  1  0  0  0
 36 56  1  0  0  0
 36113  1  0  0  0
 37 39  1  0  0  0
 37 47  1  0  0  0
 37 66  1  0  0  0
 37114  1  0  0  0
 38 43  2  0  0  0
 38 46  1  0  0  0
 38 47  1  0  0  0
 39 64  1  0  0  0
 39 67  2  0  0  0
 40 52  1  0  0  0
 40 53  2  0  0  0
 40 58  1  0  0  0
 41115  1  0  0  0
 41116  1  0  0  0
 41117  1  0  0  0
 41 48  1  0  0  0
 42 43  1  0  0  0
 42 66  1  0  0  0
 42118  1  0  0  0
 42119  1  0  0  0
 43 44  1  0  0  0
 44120  1  0  0  0
 45 46  2  0  0  0
 45121  1  0  0  0
 46122  1  0  0  0
 47123  1  0  0  0
 47124  1  0  0  0
 48 56  1  0  0  0
 48 65  1  0  0  0
 48125  1  0  0  0
 49 50  1  0  0  0
 49 53  1  0  0  0
 49 64  1  0  0  0
 49126  1  0  0  0
 50 51  1  0  0  0
 50127  1  0  0  0
 50128  1  0  0  0
 51 52  1  0  0  0
 51129  1  0  0  0
 51130  1  0  0  0
 52131  1  0  0  0
 52132  1  0  0  0
 53 54  1  0  0  0
 54 55  2  0  0  0
 54133  1  0  0  0
 55 57  1  0  0  0
 55134  1  0  0  0
 56 69  2  0  0  0
 57 58  2  0  0  0
 57135  1  0  0  0
 58136  1  0  0  0
 59 60  1  0  0  0
 59 61  1  0  0  0
 59 62  1  0  0  0
 60137  1  0  0  0
 60138  1  0  0  0
 60139  1  0  0  0
 61140  1  0  0  0
 61141  1  0  0  0
 61142  1  0  0  0
 62143  1  0  0  0
 62144  1  0  0  0
 62145  1  0  0  0
 63 65  1  0  0  0
 63146  1  0  0  0
 63147  1  0  0  0
 63148  1  0  0  0
 64149  1  0  0  0
 65150  1  0  0  0
 68 87  1  0  0  0
 71 75  2  0  0  0
 71 76  1  0  0  0
 71151  1  0  0  0
 72 73  1  0  0  0
 72 74  2  0  0  0
 72 77  1  0  0  0
 73 76  2  0  0  0
 73 79  1  0  0  0
 74 75  1  0  0  0
 74 85  1  0  0  0
 75 88  1  0  0  0
 76 90  1  0  0  0
 77 78  2  0  0  0
 77152  1  0  0  0
 78 86  1  0  0  0
 78153  1  0  0  0
 79 84  1  0  0  0
 79 91  2  0  0  0
 80 81  1  0  0  0
 80 82  1  0  0  0
 80154  1  0  0  0
 80155  1  0  0  0
 81 83  1  0  0  0
 81156  1  0  0  0
 81157  1  0  0  0
 82 89  1  0  0  0
 82158  1  0  0  0
 82159  1  0  0  0
 83 89  1  0  0  0
 83160  1  0  0  0
 83161  1  0  0  0
 84162  1  0  0  0
 84163  1  0  0  0
 84164  1  0  0  0
 85165  1  0  0  0
 85166  1  0  0  0
 85 89  1  0  0  0
 86 87  1  0  0  0
 86167  1  0  0  0
 86168  1  0  0  0
 87169  1  0  0  0
 87170  1  0  0  0
 88171  1  0  0  0
 89172  1  0  0  0
M  CHG  1  89   1
M  ISO  4   1 100  68 101  87 101  88 100
M  END
> <chiral flag>
0

> <version>
0

> <s_m_source_file>
/data/baiqing/PycharmProjects/Reinvent-master-3.2/result/LINK_invent/BTK/process_docking_weight1_custom_product_contain_oxygen_bond_distance_aromatic_linkinvent_7_9_3/rearranged_h_0033.sdf

> <i_m_source_file_index>
54

> <r_mmod_Potential_Energy-OPLS-2005>
235.739212036133

> <r_mmod_Stretch_Energy-OPLS-2005>
131.552703857422

> <r_mmod_Bend_Energy-OPLS-2005>
187.973220825195

> <r_mmod_Torsional_Energy-OPLS-2005>
352.887573242188

> <r_mmod_Improper_Torsional_Energy-OPLS-2005>
6.06309223175049

> <r_mmod_Van_der_Waal_Energy-OPLS-2005>
142.691848754883

> <r_mmod_Electrostatic_Energy-OPLS-2005>
-170.396545410156

> <r_mmod_Solvation_Energy-OPLS-2005>
-493.463256835938

> <b_mmod_Minimization_Converged-OPLS-2005>
0

> <r_mmod_RMS_Derivative-OPLS-2005>
3.77718663215637

$$$$
54
                    3D
 Structure written by MMmdl.
167176  0  0  1  0            999 V2000
  -30.6119  -14.6790   20.5330 C   0  0  0  0  0  0
  -30.4514  -12.4293   19.4631 C   0  0  0  0  0  0
  -29.5230  -12.5241   18.2308 C   0  0  0  0  0  0
  -28.0457  -12.3486   18.6367 C   0  0  0  0  0  0
  -27.6573  -13.2175   19.8638 C   0  0  2  0  0  0
  -28.6984  -13.0780   20.9962 C   0  0  0  0  0  0
  -25.2596  -13.8141   20.5661 C   0  0  0  0  0  0
  -24.1864  -13.0413   20.9165 C   0  0  0  0  0  0
  -24.6417  -11.6889   20.8716 C   0  0  0  0  0  0
  -23.9049  -10.4288   21.0368 C   0  0  0  0  0  0
  -24.3606   -9.4222   21.9148 C   0  0  0  0  0  0
  -23.6291   -8.2251   22.0732 C   0  0  0  0  0  0
  -22.4279   -8.0277   21.3534 C   0  0  0  0  0  0
  -21.9898   -9.0247   20.4636 C   0  0  0  0  0  0
  -22.7220  -10.2116   20.3040 C   0  0  0  0  0  0
  -21.6871   -6.0724   22.5270 C   0  0  0  0  0  0
  -21.4025   -6.5636   23.8209 C   0  0  0  0  0  0
  -21.3666   -5.6785   24.9161 C   0  0  0  0  0  0
  -21.6039   -4.3043   24.7213 C   0  0  0  0  0  0
  -21.8831   -3.8144   23.4337 C   0  0  0  0  0  0
  -21.9201   -4.6953   22.3394 C   0  0  0  0  0  0
  -22.7888  -13.5220   21.1822 C   0  0  0  0  0  0
  -22.1662   -4.2134   21.0967 F   0  0  0  0  0  0
  -21.5619   -3.4537   25.7720 F   0  0  0  0  0  0
  -30.0120  -13.4460   20.4422 N   0  0  0  0  0  0
  -26.3022  -12.9318   20.3290 N   0  0  0  0  0  0
  -25.9346  -11.6476   20.5735 N   0  0  0  0  0  0
  -22.0508  -12.8251   22.0390 N   0  0  0  0  0  0
  -25.4326  -15.1860   20.4075 N   0  0  0  0  0  0
  -31.7607  -14.8577   20.1187 O   0  0  0  0  0  0
  -21.6653   -6.8865   21.4238 O   0  0  0  0  0  0
  -22.3595  -14.5525   20.6657 O   0  0  0  0  0  0
  -24.6233  -31.8604   23.2010 C   0  0  0  0  0  0
  -25.9069  -32.4778   23.8348 C   0  0  1  0  0  0
  -27.2385  -27.3239   20.1351 C   0  0  0  0  0  0
  -25.5889  -33.8580   24.2268 N   0  0  0  0  0  0
  -23.4184  -30.4808   21.5418 C   0  0  2  0  0  0
  -24.8687  -28.9326   20.1144 C   0  0  0  0  0  0
  -22.7461  -29.4623   22.4923 C   0  0  0  0  0  0
  -18.0286  -28.1371   22.8480 C   0  0  0  0  0  0
  -24.1494  -36.7305   23.2638 C   0  0  0  0  0  0
  -25.9566  -30.7976   21.3666 C   0  0  0  0  0  0
  -26.0352  -29.4229   20.7139 C   0  0  0  0  0  0
  -27.2201  -28.6323   20.7096 C   0  0  0  0  0  0
  -26.0450  -26.8801   19.5180 C   0  0  0  0  0  0
  -24.8748  -27.6659   19.5092 C   0  0  0  0  0  0
  -23.6342  -29.8102   20.1595 C   0  0  0  0  0  0
  -25.4114  -36.3084   24.0329 C   0  0  1  0  0  0
  -20.5887  -28.3681   23.1285 C   0  0  2  0  0  0
  -20.6783  -26.9405   22.5414 C   0  0  0  0  0  0
  -19.5761  -26.6377   21.5214 C   0  0  0  0  0  0
  -18.1939  -26.7918   22.1616 C   0  0  0  0  0  0
  -19.1534  -28.8841   23.2880 C   0  0  0  0  0  0
  -18.9455  -30.1448   23.8896 C   0  0  0  0  0  0
  -17.6454  -30.6588   24.0543 C   0  0  0  0  0  0
  -25.9055  -34.9449   23.5103 C   0  0  0  0  0  0
  -16.5345  -29.9086   23.6317 C   0  0  0  0  0  0
  -16.7270  -28.6495   23.0348 C   0  0  0  0  0  0
  -26.4485  -31.6574   25.0704 C   0  0  0  0  0  0
  -25.3731  -31.3693   26.1437 C   0  0  0  0  0  0
  -27.0310  -30.2990   24.6135 C   0  0  0  0  0  0
  -27.6057  -32.4298   25.7466 C   0  0  0  0  0  0
  -27.5582  -37.1795   24.8454 C   0  0  0  0  0  0
  -21.4172  -29.3034   22.3662 N   0  0  0  0  0  0
  -26.4293  -37.3774   23.9408 N   0  0  0  0  0  0
  -24.6847  -31.0635   22.0937 N   0  0  0  0  0  0
  -23.4192  -28.8183   23.3012 O   0  0  0  0  0  0
  -28.3850  -26.5133   20.2167 O   0  0  0  0  0  0
  -26.5644  -34.8924   22.4683 O   0  0  0  0  0  0
  -23.5396  -32.1388   23.7341 O   0  0  0  0  0  0
  -28.4582  -19.2047   20.3090 C   0  0  0  0  0  0
  -28.6619  -17.7934   20.2884 C   0  0  0  0  0  0
  -30.5634  -19.4862   21.4148 C   0  0  0  0  0  0
  -29.3820  -20.0997   20.9062 C   0  0  0  0  0  0
  -30.7861  -18.0657   21.3793 C   0  0  0  0  0  0
  -29.8154  -17.1679   20.8335 C   0  0  0  0  0  0
  -29.8850  -22.6451   19.0301 C   0  0  0  0  0  0
  -31.0407  -22.2038   18.5013 C   0  0  0  0  0  0
  -28.7060  -23.2301   18.2720 C   0  0  0  0  0  0
  -28.5945  -24.7429   18.5380 C   0  0  0  0  0  0
  -29.3381  -24.2009   20.9229 C   0  0  0  0  0  0
  -28.3277  -25.0414   20.0254 C   0  0  1  0  0  0
  -32.0540  -17.5242   22.0116 C   0  0  0  0  0  0
  -32.2630  -21.7492   19.2782 C   0  0  0  0  0  0
  -28.9825  -21.6141   21.1753 C   0  0  0  0  0  0
  -29.8055  -15.7021   20.9794 N   0  0  0  0  0  0
  -29.6912  -22.7715   20.4930 N   0  3  1  0  0  0
  -31.4898  -12.5755   19.1629 H   0  0  0  0  0  0
  -30.4046  -11.4328   19.9071 H   0  0  0  0  0  0
  -29.8043  -11.7682   17.4966 H   0  0  0  0  0  0
  -29.6570  -13.4905   17.7410 H   0  0  0  0  0  0
  -27.8992  -11.2932   18.8745 H   0  0  0  0  0  0
  -27.3876  -12.5627   17.7926 H   0  0  0  0  0  0
  -27.6717  -14.2547   19.5292 H   0  0  0  0  0  0
  -28.7252  -12.0536   21.3692 H   0  0  0  0  0  0
  -28.4266  -13.6947   21.8521 H   0  0  0  0  0  0
  -25.2734   -9.5704   22.4720 H   0  0  0  0  0  0
  -24.0008   -7.4653   22.7459 H   0  0  0  0  0  0
  -21.0821   -8.8755   19.8965 H   0  0  0  0  0  0
  -22.3665  -10.9640   19.6161 H   0  0  0  0  0  0
  -21.2036   -7.6143   23.9718 H   0  0  0  0  0  0
  -21.1470   -6.0494   25.9062 H   0  0  0  0  0  0
  -22.0614   -2.7605   23.2831 H   0  0  0  0  0  0
  -22.4093  -11.9927   22.4831 H   0  0  0  0  0  0
  -21.1118  -13.1291   22.2517 H   0  0  0  0  0  0
  -24.6672  -15.8425   20.5138 H   0  0  0  0  0  0
  -26.2772  -15.6165   20.0566 H   0  0  0  0  0  0
  -26.7141  -32.5469   23.1112 H   0  0  0  0  0  0
  -24.9959  -33.9721   25.0354 H   0  0  0  0  0  0
  -22.7111  -31.3000   21.3956 H   0  0  0  0  0  0
  -23.3758  -35.9635   23.3285 H   0  0  0  0  0  0
  -24.3591  -36.8948   22.2059 H   0  0  0  0  0  0
  -23.7257  -37.6501   23.6681 H   0  0  0  0  0  0
  -26.0812  -31.5609   20.5977 H   0  0  0  0  0  0
  -26.8387  -30.8512   21.9939 H   0  0  0  0  0  0
  -28.1168  -29.0057   21.1859 H   0  0  0  0  0  0
  -25.9830  -25.9085   19.0549 H   0  0  0  0  0  0
  -23.9764  -27.2801   19.0485 H   0  0  0  0  0  0
  -23.7487  -30.5838   19.3985 H   0  0  0  0  0  0
  -22.7552  -29.2337   19.8619 H   0  0  0  0  0  0
  -25.1299  -36.1932   25.0825 H   0  0  0  0  0  0
  -20.9989  -28.3278   24.1400 H   0  0  0  0  0  0
  -20.5676  -26.2301   23.3616 H   0  0  0  0  0  0
  -21.6649  -26.7446   22.1204 H   0  0  0  0  0  0
  -19.6930  -25.6294   21.1232 H   0  0  0  0  0  0
  -19.6717  -27.3189   20.6754 H   0  0  0  0  0  0
  -17.4222  -26.6681   21.4005 H   0  0  0  0  0  0
  -18.0328  -26.0045   22.8999 H   0  0  0  0  0  0
  -19.7938  -30.7243   24.2280 H   0  0  0  0  0  0
  -17.5023  -31.6268   24.5141 H   0  0  0  0  0  0
  -15.5348  -30.2984   23.7645 H   0  0  0  0  0  0
  -15.8675  -28.0808   22.7074 H   0  0  0  0  0  0
  -24.5920  -30.7028   25.7769 H   0  0  0  0  0  0
  -24.8901  -32.2841   26.4864 H   0  0  0  0  0  0
  -25.8066  -30.8871   27.0202 H   0  0  0  0  0  0
  -26.2864  -29.6748   24.1182 H   0  0  0  0  0  0
  -27.4029  -29.7240   25.4623 H   0  0  0  0  0  0
  -27.8724  -30.4267   23.9327 H   0  0  0  0  0  0
  -27.2680  -33.3594   26.2055 H   0  0  0  0  0  0
  -28.3859  -32.6856   25.0288 H   0  0  0  0  0  0
  -28.0731  -31.8406   26.5363 H   0  0  0  0  0  0
  -28.2587  -38.0105   24.7509 H   0  0  0  0  0  0
  -28.1095  -36.2631   24.6269 H   0  0  0  0  0  0
  -27.2299  -37.1428   25.8857 H   0  0  0  0  0  0
  -20.9346  -29.8721   21.6844 H   0  0  0  0  0  0
  -26.0174  -38.2848   24.1417 H   0  0  0  0  0  0
  -27.5258  -19.5903   19.9217 H   0  0  0  0  0  0
  -27.8737  -17.1801   19.8780 H   0  0  0  0  0  0
  -31.2942  -20.1139   21.9069 H   0  0  0  0  0  0
  -31.1499  -22.1829   17.4262 H   0  0  0  0  0  0
  -27.7873  -22.7189   18.5678 H   0  0  0  0  0  0
  -28.8338  -23.0446   17.2061 H   0  0  0  0  0  0
  -27.8128  -25.1709   17.9132 H   0  0  0  0  0  0
  -29.5245  -25.2275   18.2392 H   0  0  0  0  0  0
  -29.0204  -24.2188   21.9664 H   0  0  0  0  0  0
  -30.2828  -24.7447   20.9033 H   0  0  0  0  0  0
  -27.3346  -24.6785   20.2857 H   0  0  0  0  0  0
  -32.5949  -18.3019   22.5541 H   0  0  0  0  0  0
  -32.7152  -17.1327   21.2393 H   0  0  0  0  0  0
  -31.8255  -16.7221   22.7134 H   0  0  0  0  0  0
  -32.1492  -21.8572   20.3555 H   0  0  0  0  0  0
  -33.1324  -22.3360   18.9778 H   0  0  0  0  0  0
  -32.4742  -20.7024   19.0635 H   0  0  0  0  0  0
  -29.0820  -21.7704   22.2500 H   0  0  0  0  0  0
  -27.9173  -21.7215   20.9746 H   0  0  0  0  0  0
  -28.9086  -15.3367   21.2612 H   0  0  0  0  0  0
  -30.6161  -22.6630   20.8821 H   0  0  0  0  0  0
  1 25  1  0  0  0
  1 30  2  0  0  0
  1 86  1  0  0  0
  2  3  1  0  0  0
  2 25  1  0  0  0
  2 88  1  0  0  0
  2 89  1  0  0  0
  3  4  1  0  0  0
  3 90  1  0  0  0
  3 91  1  0  0  0
  4  5  1  0  0  0
  4 92  1  0  0  0
  4 93  1  0  0  0
  5  6  1  0  0  0
  5 26  1  0  0  0
  5 94  1  0  0  0
  6 25  1  0  0  0
  6 95  1  0  0  0
  6 96  1  0  0  0
  7  8  2  0  0  0
  7 26  1  0  0  0
  7 29  1  0  0  0
  8  9  1  0  0  0
  8 22  1  0  0  0
  9 10  1  0  0  0
  9 27  2  0  0  0
 10 11  2  0  0  0
 10 15  1  0  0  0
 11 12  1  0  0  0
 11 97  1  0  0  0
 12 13  2  0  0  0
 12 98  1  0  0  0
 13 14  1  0  0  0
 13 31  1  0  0  0
 14 15  2  0  0  0
 14 99  1  0  0  0
 15100  1  0  0  0
 16 17  2  0  0  0
 16 21  1  0  0  0
 16 31  1  0  0  0
 17 18  1  0  0  0
 17101  1  0  0  0
 18 19  2  0  0  0
 18102  1  0  0  0
 19 20  1  0  0  0
 19 24  1  0  0  0
 20 21  2  0  0  0
 20103  1  0  0  0
 21 23  1  0  0  0
 22 28  1  0  0  0
 22 32  2  0  0  0
 26 27  1  0  0  0
 28104  1  0  0  0
 28105  1  0  0  0
 29106  1  0  0  0
 29107  1  0  0  0
 33 34  1  0  0  0
 33 66  1  0  0  0
 33 70  2  0  0  0
 34 36  1  0  0  0
 34 59  1  0  0  0
 34108  1  0  0  0
 35 44  2  0  0  0
 35 45  1  0  0  0
 35 68  1  0  0  0
 36 56  1  0  0  0
 36109  1  0  0  0
 37 39  1  0  0  0
 37 47  1  0  0  0
 37 66  1  0  0  0
 37110  1  0  0  0
 38 43  2  0  0  0
 38 46  1  0  0  0
 38 47  1  0  0  0
 39 64  1  0  0  0
 39 67  2  0  0  0
 40 52  1  0  0  0
 40 53  2  0  0  0
 40 58  1  0  0  0
 41111  1  0  0  0
 41112  1  0  0  0
 41113  1  0  0  0
 41 48  1  0  0  0
 42 43  1  0  0  0
 42 66  1  0  0  0
 42114  1  0  0  0
 42115  1  0  0  0
 43 44  1  0  0  0
 44116  1  0  0  0
 45 46  2  0  0  0
 45117  1  0  0  0
 46118  1  0  0  0
 47119  1  0  0  0
 47120  1  0  0  0
 48 56  1  0  0  0
 48 65  1  0  0  0
 48121  1  0  0  0
 49 50  1  0  0  0
 49 53  1  0  0  0
 49 64  1  0  0  0
 49122  1  0  0  0
 50 51  1  0  0  0
 50123  1  0  0  0
 50124  1  0  0  0
 51 52  1  0  0  0
 51125  1  0  0  0
 51126  1  0  0  0
 52127  1  0  0  0
 52128  1  0  0  0
 53 54  1  0  0  0
 54 55  2  0  0  0
 54129  1  0  0  0
 55 57  1  0  0  0
 55130  1  0  0  0
 56 69  2  0  0  0
 57 58  2  0  0  0
 57131  1  0  0  0
 58132  1  0  0  0
 59 60  1  0  0  0
 59 61  1  0  0  0
 59 62  1  0  0  0
 60133  1  0  0  0
 60134  1  0  0  0
 60135  1  0  0  0
 61136  1  0  0  0
 61137  1  0  0  0
 61138  1  0  0  0
 62139  1  0  0  0
 62140  1  0  0  0
 62141  1  0  0  0
 63 65  1  0  0  0
 63142  1  0  0  0
 63143  1  0  0  0
 63144  1  0  0  0
 64145  1  0  0  0
 65146  1  0  0  0
 68 82  1  0  0  0
 71 72  2  0  0  0
 71 74  1  0  0  0
 71147  1  0  0  0
 72 76  1  0  0  0
 72148  1  0  0  0
 73 74  2  0  0  0
 73 75  1  0  0  0
 73149  1  0  0  0
 74 85  1  0  0  0
 75 76  2  0  0  0
 75 83  1  0  0  0
 76 86  1  0  0  0
 77 78  2  0  0  0
 77 79  1  0  0  0
 77 87  1  0  0  0
 78 84  1  0  0  0
 78150  1  0  0  0
 79 80  1  0  0  0
 79151  1  0  0  0
 79152  1  0  0  0
 80 82  1  0  0  0
 80153  1  0  0  0
 80154  1  0  0  0
 81 82  1  0  0  0
 81 87  1  0  0  0
 81155  1  0  0  0
 81156  1  0  0  0
 82157  1  0  0  0
 83158  1  0  0  0
 83159  1  0  0  0
 83160  1  0  0  0
 84161  1  0  0  0
 84162  1  0  0  0
 84163  1  0  0  0
 85164  1  0  0  0
 85165  1  0  0  0
 85 87  1  0  0  0
 86166  1  0  0  0
 87167  1  0  0  0
M  CHG  1  87   1
M  ISO  4   1 100  68 101  82 101  86 100
M  END
> <chiral flag>
0

> <version>
0

> <s_m_source_file>
/data/baiqing/PycharmProjects/Reinvent-master-3.2/result/LINK_invent/BTK/process_docking_weight1_custom_product_contain_oxygen_bond_distance_aromatic_linkinvent_7_9_3/rearranged_h_0033.sdf

> <i_m_source_file_index>
55

> <r_mmod_Potential_Energy-OPLS-2005>
-9.71750164031982

> <r_mmod_Stretch_Energy-OPLS-2005>
88.6456909179688

> <r_mmod_Bend_Energy-OPLS-2005>
167.783050537109

> <r_mmod_Torsional_Energy-OPLS-2005>
252.019927978516

> <r_mmod_Improper_Torsional_Energy-OPLS-2005>
6.62956619262695

> <r_mmod_Van_der_Waal_Energy-OPLS-2005>
132.729797363281

> <r_mmod_Electrostatic_Energy-OPLS-2005>
-291.367553710938

> <r_mmod_Solvation_Energy-OPLS-2005>
-419.893310546875

> <b_mmod_Minimization_Converged-OPLS-2005>
0

> <r_mmod_RMS_Derivative-OPLS-2005>
3.4313759803772

$$$$
55
                    3D
 Structure written by MMmdl.
170179  0  0  1  0            999 V2000
  -30.5774  -14.7447   20.3801 C   0  0  0  0  0  0
  -30.4357  -12.4209   19.4834 C   0  0  0  0  0  0
  -29.5117  -12.4307   18.2438 C   0  0  0  0  0  0
  -28.0254  -12.3252   18.6475 C   0  0  0  0  0  0
  -27.6402  -13.2227   19.8569 C   0  0  2  0  0  0
  -28.6924  -13.1407   20.9837 C   0  0  0  0  0  0
  -25.2508  -13.8199   20.5712 C   0  0  0  0  0  0
  -24.1783  -13.0444   20.9216 C   0  0  0  0  0  0
  -24.6364  -11.6919   20.8783 C   0  0  0  0  0  0
  -23.9055  -10.4296   21.0423 C   0  0  0  0  0  0
  -24.3621   -9.4204   21.9183 C   0  0  0  0  0  0
  -23.6300   -8.2235   22.0755 C   0  0  0  0  0  0
  -22.4283   -8.0282   21.3545 C   0  0  0  0  0  0
  -21.9924   -9.0244   20.4640 C   0  0  0  0  0  0
  -22.7243  -10.2123   20.3048 C   0  0  0  0  0  0
  -21.6850   -6.0739   22.5284 C   0  0  0  0  0  0
  -21.4009   -6.5639   23.8217 C   0  0  0  0  0  0
  -21.3646   -5.6793   24.9174 C   0  0  0  0  0  0
  -21.6047   -4.3060   24.7230 C   0  0  0  0  0  0
  -21.8820   -3.8151   23.4349 C   0  0  0  0  0  0
  -21.9187   -4.6967   22.3404 C   0  0  0  0  0  0
  -22.7791  -13.5200   21.1880 C   0  0  0  0  0  0
  -22.1658   -4.2157   21.0986 F   0  0  0  0  0  0
  -21.5623   -3.4544   25.7743 F   0  0  0  0  0  0
  -29.9908  -13.4971   20.3966 N   0  0  0  0  0  0
  -26.2932  -12.9368   20.3349 N   0  0  0  0  0  0
  -25.9296  -11.6526   20.5831 N   0  0  0  0  0  0
  -22.0462  -12.8162   22.0428 N   0  0  0  0  0  0
  -25.4209  -15.1938   20.4122 N   0  0  0  0  0  0
  -31.7590  -14.8631   20.0411 O   0  0  0  0  0  0
  -21.6634   -6.8889   21.4244 O   0  0  0  0  0  0
  -22.3462  -14.5501   20.6728 O   0  0  0  0  0  0
  -24.6283  -31.8531   23.1999 C   0  0  0  0  0  0
  -25.9114  -32.4731   23.8333 C   0  0  1  0  0  0
  -27.2088  -27.2726   20.1277 C   0  0  0  0  0  0
  -25.5922  -33.8528   24.2255 N   0  0  0  0  0  0
  -23.4281  -30.4762   21.5433 C   0  0  2  0  0  0
  -24.8730  -28.9375   20.1017 C   0  0  0  0  0  0
  -22.7503  -29.4547   22.4871 C   0  0  0  0  0  0
  -18.0301  -28.1371   22.8441 C   0  0  0  0  0  0
  -24.1496  -36.7298   23.2646 C   0  0  0  0  0  0
  -25.9719  -30.7718   21.3792 C   0  0  0  0  0  0
  -26.0434  -29.3997   20.7155 C   0  0  0  0  0  0
  -27.2146  -28.5774   20.7224 C   0  0  0  0  0  0
  -26.0245  -26.8900   19.4601 C   0  0  0  0  0  0
  -24.8661  -27.6886   19.4611 C   0  0  0  0  0  0
  -23.6434  -29.8225   20.1553 C   0  0  0  0  0  0
  -25.4120  -36.3032   24.0312 C   0  0  1  0  0  0
  -20.5904  -28.3663   23.1239 C   0  0  2  0  0  0
  -20.6785  -26.9376   22.5384 C   0  0  0  0  0  0
  -19.5754  -26.6367   21.5193 C   0  0  0  0  0  0
  -18.1927  -26.7908   22.1601 C   0  0  0  0  0  0
  -19.1548  -28.8828   23.2826 C   0  0  0  0  0  0
  -18.9487  -30.1426   23.8853 C   0  0  0  0  0  0
  -17.6482  -30.6560   24.0528 C   0  0  0  0  0  0
  -25.9082  -34.9405   23.5083 C   0  0  0  0  0  0
  -16.5364  -29.9062   23.6312 C   0  0  0  0  0  0
  -16.7288  -28.6491   23.0312 C   0  0  0  0  0  0
  -26.4495  -31.6559   25.0733 C   0  0  0  0  0  0
  -25.3724  -31.3696   26.1442 C   0  0  0  0  0  0
  -27.0351  -30.2983   24.6219 C   0  0  0  0  0  0
  -27.6019  -32.4320   25.7533 C   0  0  0  0  0  0
  -27.5575  -37.1784   24.8460 C   0  0  0  0  0  0
  -21.4223  -29.3010   22.3634 N   0  0  0  0  0  0
  -26.4284  -37.3746   23.9421 N   0  0  0  0  0  0
  -24.6946  -31.0515   22.0963 N   0  0  0  0  0  0
  -23.4206  -28.8056   23.2927 O   0  0  0  0  0  0
  -28.2962  -26.3713   20.1860 O   0  0  0  0  0  0
  -26.5640  -34.8883   22.4656 O   0  0  0  0  0  0
  -23.5434  -32.1322   23.7334 O   0  0  0  0  0  0
  -29.1511  -18.4559   17.8810 C   0  0  0  0  0  0
  -29.4372  -17.2351   18.5212 C   0  0  0  0  0  0
  -29.6865  -18.4689   20.6200 C   0  0  0  0  0  0
  -29.4305  -19.7482   19.9455 C   0  0  0  0  0  0
  -29.6949  -17.1817   19.9232 C   0  0  0  0  0  0
  -29.1431  -19.6800   18.5642 C   0  0  0  0  0  0
  -27.5538  -22.3144   21.5690 C   0  0  0  0  0  0
  -26.4750  -21.5094   21.6350 C   0  0  0  0  0  0
  -27.9186  -23.3876   22.5923 C   0  0  0  0  0  0
  -27.7349  -24.8213   22.0352 C   0  0  0  0  0  0
  -29.0290  -23.7477   20.1232 C   0  0  0  0  0  0
  -28.0103  -24.9287   20.5157 C   0  0  2  0  0  0
  -29.4270  -15.9991   17.6396 C   0  0  0  0  0  0
  -29.9859  -18.4714   22.1110 C   0  0  0  0  0  0
  -26.0274  -20.4733   20.6260 C   0  0  0  0  0  0
  -29.6022  -21.2127   20.5664 C   0  0  0  0  0  0
  -29.7702  -15.8536   20.5969 N   0  0  0  0  0  0
  -28.5340  -22.3151   20.4287 N   0  3  1  0  0  0
  -28.7839  -21.1009   17.6449 Cl  0  0  0  0  0  0
  -31.4755  -12.5424   19.1755 H   0  0  0  0  0  0
  -30.3940  -11.4529   19.9885 H   0  0  0  0  0  0
  -29.7680  -11.6027   17.5843 H   0  0  0  0  0  0
  -29.6863  -13.3256   17.6559 H   0  0  0  0  0  0
  -27.8396  -11.2807   18.9003 H   0  0  0  0  0  0
  -27.3837  -12.5438   17.7921 H   0  0  0  0  0  0
  -27.6247  -14.2477   19.4967 H   0  0  0  0  0  0
  -28.7268  -12.1292   21.3968 H   0  0  0  0  0  0
  -28.4368  -13.8054   21.8102 H   0  0  0  0  0  0
  -25.2763   -9.5667   22.4763 H   0  0  0  0  0  0
  -24.0001   -7.4623   22.7477 H   0  0  0  0  0  0
  -21.0854   -8.8748   19.8943 H   0  0  0  0  0  0
  -22.3706  -10.9649   19.6159 H   0  0  0  0  0  0
  -21.2006   -7.6150   23.9718 H   0  0  0  0  0  0
  -21.1463   -6.0529   25.9076 H   0  0  0  0  0  0
  -22.0613   -2.7619   23.2848 H   0  0  0  0  0  0
  -22.4103  -11.9802   22.4742 H   0  0  0  0  0  0
  -21.1079  -13.1123   22.2676 H   0  0  0  0  0  0
  -24.6591  -15.8533   20.5350 H   0  0  0  0  0  0
  -26.2690  -15.6299   20.0767 H   0  0  0  0  0  0
  -26.7171  -32.5348   23.1050 H   0  0  0  0  0  0
  -24.9982  -33.9681   25.0327 H   0  0  0  0  0  0
  -22.7278  -31.3028   21.3993 H   0  0  0  0  0  0
  -23.3728  -35.9656   23.3292 H   0  0  0  0  0  0
  -24.3569  -36.8957   22.2060 H   0  0  0  0  0  0
  -23.7279  -37.6504   23.6686 H   0  0  0  0  0  0
  -26.1061  -31.5396   20.6194 H   0  0  0  0  0  0
  -26.8514  -30.8163   22.0098 H   0  0  0  0  0  0
  -28.1023  -28.9128   21.2365 H   0  0  0  0  0  0
  -25.9593  -25.9556   18.9198 H   0  0  0  0  0  0
  -23.9742  -27.3354   18.9630 H   0  0  0  0  0  0
  -23.7603  -30.6042   19.4049 H   0  0  0  0  0  0
  -22.7610  -29.2578   19.8485 H   0  0  0  0  0  0
  -25.1292  -36.1873   25.0813 H   0  0  0  0  0  0
  -20.9972  -28.3229   24.1368 H   0  0  0  0  0  0
  -20.5709  -26.2281   23.3591 H   0  0  0  0  0  0
  -21.6644  -26.7414   22.1130 H   0  0  0  0  0  0
  -19.6951  -25.6303   21.1184 H   0  0  0  0  0  0
  -19.6684  -27.3201   20.6739 H   0  0  0  0  0  0
  -17.4200  -26.6621   21.3999 H   0  0  0  0  0  0
  -18.0280  -26.0109   22.9054 H   0  0  0  0  0  0
  -19.7989  -30.7186   24.2243 H   0  0  0  0  0  0
  -17.5074  -31.6246   24.5116 H   0  0  0  0  0  0
  -15.5377  -30.2922   23.7698 H   0  0  0  0  0  0
  -15.8695  -28.0793   22.7029 H   0  0  0  0  0  0
  -24.5909  -30.7045   25.7739 H   0  0  0  0  0  0
  -24.8889  -32.2860   26.4829 H   0  0  0  0  0  0
  -25.8012  -30.8863   27.0238 H   0  0  0  0  0  0
  -26.2928  -29.6734   24.1235 H   0  0  0  0  0  0
  -27.4032  -29.7235   25.4728 H   0  0  0  0  0  0
  -27.8809  -30.4270   23.9459 H   0  0  0  0  0  0
  -27.2595  -33.3642   26.2047 H   0  0  0  0  0  0
  -28.3860  -32.6875   25.0391 H   0  0  0  0  0  0
  -28.0661  -31.8512   26.5507 H   0  0  0  0  0  0
  -28.2492  -38.0153   24.7496 H   0  0  0  0  0  0
  -28.1138  -36.2663   24.6263 H   0  0  0  0  0  0
  -27.2271  -37.1402   25.8849 H   0  0  0  0  0  0
  -20.9422  -29.8813   21.6894 H   0  0  0  0  0  0
  -26.0149  -38.2808   24.1458 H   0  0  0  0  0  0
  -28.9253  -18.4706   16.8251 H   0  0  0  0  0  0
  -25.8313  -21.5962   22.4977 H   0  0  0  0  0  0
  -28.9651  -23.2434   22.8662 H   0  0  0  0  0  0
  -27.3489  -23.2506   23.5139 H   0  0  0  0  0  0
  -28.3943  -25.5009   22.5809 H   0  0  0  0  0  0
  -26.7208  -25.1660   22.2361 H   0  0  0  0  0  0
  -29.9695  -23.9157   20.6513 H   0  0  0  0  0  0
  -29.2601  -23.8101   19.0601 H   0  0  0  0  0  0
  -27.0953  -24.6311   20.0120 H   0  0  0  0  0  0
  -29.1044  -16.2098   16.6196 H   0  0  0  0  0  0
  -28.7348  -15.2638   18.0299 H   0  0  0  0  0  0
  -30.4228  -15.5632   17.5725 H   0  0  0  0  0  0
  -29.0888  -18.7224   22.6781 H   0  0  0  0  0  0
  -30.7717  -19.1874   22.3542 H   0  0  0  0  0  0
  -30.3375  -17.5023   22.4622 H   0  0  0  0  0  0
  -26.6279  -20.4581   19.7195 H   0  0  0  0  0  0
  -24.9968  -20.6735   20.3312 H   0  0  0  0  0  0
  -26.0577  -19.4806   21.0730 H   0  0  0  0  0  0
  -30.4992  -21.5978   20.0814 H   0  0  0  0  0  0
  -29.8711  -21.1379   21.6181 H   0  0  0  0  0  0
  -28.9266  -15.6188   21.0976 H   0  0  0  0  0  0
  -28.0255  -22.0571   19.5929 H   0  0  0  0  0  0
  1 25  1  0  0  0
  1 30  2  0  0  0
  1 87  1  0  0  0
  2  3  1  0  0  0
  2 25  1  0  0  0
  2 90  1  0  0  0
  2 91  1  0  0  0
  3  4  1  0  0  0
  3 92  1  0  0  0
  3 93  1  0  0  0
  4  5  1  0  0  0
  4 94  1  0  0  0
  4 95  1  0  0  0
  5  6  1  0  0  0
  5 26  1  0  0  0
  5 96  1  0  0  0
  6 25  1  0  0  0
  6 97  1  0  0  0
  6 98  1  0  0  0
  7  8  2  0  0  0
  7 26  1  0  0  0
  7 29  1  0  0  0
  8  9  1  0  0  0
  8 22  1  0  0  0
  9 10  1  0  0  0
  9 27  2  0  0  0
 10 11  2  0  0  0
 10 15  1  0  0  0
 11 12  1  0  0  0
 11 99  1  0  0  0
 12 13  2  0  0  0
 12100  1  0  0  0
 13 14  1  0  0  0
 13 31  1  0  0  0
 14 15  2  0  0  0
 14101  1  0  0  0
 15102  1  0  0  0
 16 17  2  0  0  0
 16 21  1  0  0  0
 16 31  1  0  0  0
 17 18  1  0  0  0
 17103  1  0  0  0
 18 19  2  0  0  0
 18104  1  0  0  0
 19 20  1  0  0  0
 19 24  1  0  0  0
 20 21  2  0  0  0
 20105  1  0  0  0
 21 23  1  0  0  0
 22 28  1  0  0  0
 22 32  2  0  0  0
 26 27  1  0  0  0
 28106  1  0  0  0
 28107  1  0  0  0
 29108  1  0  0  0
 29109  1  0  0  0
 33 34  1  0  0  0
 33 66  1  0  0  0
 33 70  2  0  0  0
 34 36  1  0  0  0
 34 59  1  0  0  0
 34110  1  0  0  0
 35 44  2  0  0  0
 35 45  1  0  0  0
 35 68  1  0  0  0
 36 56  1  0  0  0
 36111  1  0  0  0
 37 39  1  0  0  0
 37 47  1  0  0  0
 37 66  1  0  0  0
 37112  1  0  0  0
 38 43  2  0  0  0
 38 46  1  0  0  0
 38 47  1  0  0  0
 39 64  1  0  0  0
 39 67  2  0  0  0
 40 52  1  0  0  0
 40 53  2  0  0  0
 40 58  1  0  0  0
 41113  1  0  0  0
 41114  1  0  0  0
 41115  1  0  0  0
 41 48  1  0  0  0
 42 43  1  0  0  0
 42 66  1  0  0  0
 42116  1  0  0  0
 42117  1  0  0  0
 43 44  1  0  0  0
 44118  1  0  0  0
 45 46  2  0  0  0
 45119  1  0  0  0
 46120  1  0  0  0
 47121  1  0  0  0
 47122  1  0  0  0
 48 56  1  0  0  0
 48 65  1  0  0  0
 48123  1  0  0  0
 49 50  1  0  0  0
 49 53  1  0  0  0
 49 64  1  0  0  0
 49124  1  0  0  0
 50 51  1  0  0  0
 50125  1  0  0  0
 50126  1  0  0  0
 51 52  1  0  0  0
 51127  1  0  0  0
 51128  1  0  0  0
 52129  1  0  0  0
 52130  1  0  0  0
 53 54  1  0  0  0
 54 55  2  0  0  0
 54131  1  0  0  0
 55 57  1  0  0  0
 55132  1  0  0  0
 56 69  2  0  0  0
 57 58  2  0  0  0
 57133  1  0  0  0
 58134  1  0  0  0
 59 60  1  0  0  0
 59 61  1  0  0  0
 59 62  1  0  0  0
 60135  1  0  0  0
 60136  1  0  0  0
 60137  1  0  0  0
 61138  1  0  0  0
 61139  1  0  0  0
 61140  1  0  0  0
 62141  1  0  0  0
 62142  1  0  0  0
 62143  1  0  0  0
 63 65  1  0  0  0
 63144  1  0  0  0
 63145  1  0  0  0
 63146  1  0  0  0
 64147  1  0  0  0
 65148  1  0  0  0
 68 82  1  0  0  0
 71 72  2  0  0  0
 71 76  1  0  0  0
 71149  1  0  0  0
 72 75  1  0  0  0
 72 83  1  0  0  0
 73 74  1  0  0  0
 73 75  2  0  0  0
 73 84  1  0  0  0
 74 76  2  0  0  0
 74 86  1  0  0  0
 75 87  1  0  0  0
 76 89  1  0  0  0
 77 78  2  0  0  0
 77 79  1  0  0  0
 77 88  1  0  0  0
 78 85  1  0  0  0
 78150  1  0  0  0
 79 80  1  0  0  0
 79151  1  0  0  0
 79152  1  0  0  0
 80 82  1  0  0  0
 80153  1  0  0  0
 80154  1  0  0  0
 81 82  1  0  0  0
 81 88  1  0  0  0
 81155  1  0  0  0
 81156  1  0  0  0
 82157  1  0  0  0
 83158  1  0  0  0
 83159  1  0  0  0
 83160  1  0  0  0
 84161  1  0  0  0
 84162  1  0  0  0
 84163  1  0  0  0
 85164  1  0  0  0
 85165  1  0  0  0
 85166  1  0  0  0
 86167  1  0  0  0
 86168  1  0  0  0
 86 88  1  0  0  0
 87169  1  0  0  0
 88170  1  0  0  0
M  CHG  1  88   1
M  ISO  4   1 100  68 101  82 101  87 100
M  END
> <chiral flag>
0

> <version>
0

> <s_m_source_file>
/data/baiqing/PycharmProjects/Reinvent-master-3.2/result/LINK_invent/BTK/process_docking_weight1_custom_product_contain_oxygen_bond_distance_aromatic_linkinvent_7_9_3/rearranged_h_0033.sdf

> <i_m_source_file_index>
56

> <r_mmod_Potential_Energy-OPLS-2005>
81.6078491210938

> <r_mmod_Stretch_Energy-OPLS-2005>
127.509201049805

> <r_mmod_Bend_Energy-OPLS-2005>
171.888778686523

> <r_mmod_Torsional_Energy-OPLS-2005>
291.894012451172

> <r_mmod_Improper_Torsional_Energy-OPLS-2005>
5.95163297653198

> <r_mmod_Van_der_Waal_Energy-OPLS-2005>
148.126052856445

> <r_mmod_Electrostatic_Energy-OPLS-2005>
-345.520690917969

> <r_mmod_Solvation_Energy-OPLS-2005>
-405.387023925781

> <b_mmod_Minimization_Converged-OPLS-2005>
0

> <r_mmod_RMS_Derivative-OPLS-2005>
4.77643442153931

$$$$
56
                    3D
 Structure written by MMmdl.
164173  0  0  1  0            999 V2000
  -30.5524  -14.6931   20.5493 C   0  0  0  0  0  0
  -30.4424  -12.4423   19.4639 C   0  0  0  0  0  0
  -29.5100  -12.5531   18.2344 C   0  0  0  0  0  0
  -28.0347  -12.3597   18.6396 C   0  0  0  0  0  0
  -27.6522  -13.2170   19.8750 C   0  0  2  0  0  0
  -28.6889  -13.0538   21.0096 C   0  0  0  0  0  0
  -25.2532  -13.8171   20.5663 C   0  0  0  0  0  0
  -24.1811  -13.0426   20.9122 C   0  0  0  0  0  0
  -24.6373  -11.6898   20.8696 C   0  0  0  0  0  0
  -23.9052  -10.4272   21.0375 C   0  0  0  0  0  0
  -24.3629   -9.4202   21.9156 C   0  0  0  0  0  0
  -23.6281   -8.2265   22.0758 C   0  0  0  0  0  0
  -22.4267   -8.0290   21.3545 C   0  0  0  0  0  0
  -21.9898   -9.0260   20.4654 C   0  0  0  0  0  0
  -22.7225  -10.2122   20.3024 C   0  0  0  0  0  0
  -21.6862   -6.0743   22.5263 C   0  0  0  0  0  0
  -21.4028   -6.5643   23.8185 C   0  0  0  0  0  0
  -21.3617   -5.6791   24.9142 C   0  0  0  0  0  0
  -21.6033   -4.3063   24.7203 C   0  0  0  0  0  0
  -21.8842   -3.8156   23.4328 C   0  0  0  0  0  0
  -21.9200   -4.6971   22.3378 C   0  0  0  0  0  0
  -22.7837  -13.5212   21.1800 C   0  0  0  0  0  0
  -22.1666   -4.2159   21.0954 F   0  0  0  0  0  0
  -21.5608   -3.4533   25.7706 F   0  0  0  0  0  0
  -29.9997  -13.4375   20.4667 N   0  0  0  0  0  0
  -26.2961  -12.9354   20.3330 N   0  0  0  0  0  0
  -25.9305  -11.6496   20.5763 N   0  0  0  0  0  0
  -22.0520  -12.8186   22.0368 N   0  0  0  0  0  0
  -25.4213  -15.1918   20.4097 N   0  0  0  0  0  0
  -31.6766  -14.9100   20.0839 O   0  0  0  0  0  0
  -21.6636   -6.8903   21.4231 O   0  0  0  0  0  0
  -22.3487  -14.5495   20.6627 O   0  0  0  0  0  0
  -24.6244  -31.8603   23.2041 C   0  0  0  0  0  0
  -25.9104  -32.4773   23.8347 C   0  0  1  0  0  0
  -27.2073  -27.3105   20.1195 C   0  0  0  0  0  0
  -25.5961  -33.8565   24.2339 N   0  0  0  0  0  0
  -23.4175  -30.4862   21.5469 C   0  0  2  0  0  0
  -24.8599  -28.9396   20.1092 C   0  0  0  0  0  0
  -22.7480  -29.4593   22.4923 C   0  0  0  0  0  0
  -18.0295  -28.1370   22.8475 C   0  0  0  0  0  0
  -24.1475  -36.7241   23.2633 C   0  0  0  0  0  0
  -25.9572  -30.7855   21.3771 C   0  0  0  0  0  0
  -26.0267  -29.4137   20.7178 C   0  0  0  0  0  0
  -27.2028  -28.6091   20.7161 C   0  0  0  0  0  0
  -26.0191  -26.8842   19.4853 C   0  0  0  0  0  0
  -24.8580  -27.6838   19.4830 C   0  0  0  0  0  0
  -23.6333  -29.8285   20.1588 C   0  0  0  0  0  0
  -25.4106  -36.3057   24.0351 C   0  0  1  0  0  0
  -20.5892  -28.3659   23.1274 C   0  0  2  0  0  0
  -20.6793  -26.9392   22.5406 C   0  0  0  0  0  0
  -19.5768  -26.6372   21.5196 C   0  0  0  0  0  0
  -18.1932  -26.7920   22.1586 C   0  0  0  0  0  0
  -19.1546  -28.8843   23.2866 C   0  0  0  0  0  0
  -18.9465  -30.1438   23.8889 C   0  0  0  0  0  0
  -17.6472  -30.6583   24.0545 C   0  0  0  0  0  0
  -25.9052  -34.9427   23.5143 C   0  0  0  0  0  0
  -16.5364  -29.9077   23.6326 C   0  0  0  0  0  0
  -16.7274  -28.6487   23.0356 C   0  0  0  0  0  0
  -26.4547  -31.6551   25.0669 C   0  0  0  0  0  0
  -25.3810  -31.3613   26.1406 C   0  0  0  0  0  0
  -27.0414  -30.2988   24.6061 C   0  0  0  0  0  0
  -27.6078  -32.4311   25.7448 C   0  0  0  0  0  0
  -27.5606  -37.1742   24.8482 C   0  0  0  0  0  0
  -21.4202  -29.3009   22.3656 N   0  0  0  0  0  0
  -26.4287  -37.3761   23.9460 N   0  0  0  0  0  0
  -24.6850  -31.0584   22.1017 N   0  0  0  0  0  0
  -23.4195  -28.8126   23.3007 O   0  0  0  0  0  0
  -28.3406  -26.4903   20.1887 O   0  0  0  0  0  0
  -26.5584  -34.8895   22.4675 O   0  0  0  0  0  0
  -23.5416  -32.1443   23.7342 O   0  0  0  0  0  0
  -29.1333  -19.1537   19.5333 C   0  0  0  0  0  0
  -29.1501  -17.9367   22.0179 C   0  0  0  0  0  0
  -28.6909  -19.9562   20.6275 C   0  0  0  0  0  0
  -29.5185  -17.7773   19.6497 C   0  0  0  0  0  0
  -28.7177  -19.3012   21.8987 C   0  0  0  0  0  0
  -29.5557  -17.1203   20.9170 C   0  0  0  0  0  0
  -29.8911  -23.1190   20.0223 C   0  0  0  0  0  0
  -30.9477  -22.3115   19.8375 C   0  0  0  0  0  0
  -29.7963  -24.5966   19.6492 C   0  0  0  0  0  0
  -27.7274  -23.9348   20.6874 C   0  0  0  0  0  0
  -28.3435  -25.0631   19.7808 C   0  0  1  0  0  0
  -29.7625  -16.9929   18.3688 C   0  0  0  0  0  0
  -28.2201  -19.9915   23.1689 C   0  0  0  0  0  0
  -28.0055  -21.3703   20.3414 C   0  0  0  0  0  0
  -29.7655  -15.6714   21.1314 N   0  0  0  0  0  0
  -28.6348  -22.7139   20.7181 N   0  3  2  0  0  0
  -31.4798  -12.6022   19.1644 H   0  0  0  0  0  0
  -30.4023  -11.4390   19.8902 H   0  0  0  0  0  0
  -29.7956  -11.8290   17.4697 H   0  0  0  0  0  0
  -29.6277  -13.5413   17.7841 H   0  0  0  0  0  0
  -27.8845  -11.3031   18.8604 H   0  0  0  0  0  0
  -27.3795  -12.5961   17.8009 H   0  0  0  0  0  0
  -27.6699  -14.2570   19.5484 H   0  0  0  0  0  0
  -28.7210  -12.0196   21.3559 H   0  0  0  0  0  0
  -28.4115  -13.6459   21.8830 H   0  0  0  0  0  0
  -25.2820   -9.5673   22.4674 H   0  0  0  0  0  0
  -23.9990   -7.4674   22.7499 H   0  0  0  0  0  0
  -21.0824   -8.8789   19.8975 H   0  0  0  0  0  0
  -22.3714  -10.9650   19.6107 H   0  0  0  0  0  0
  -21.2051   -7.6154   23.9678 H   0  0  0  0  0  0
  -21.1386   -6.0524   25.9031 H   0  0  0  0  0  0
  -22.0663   -2.7617   23.2812 H   0  0  0  0  0  0
  -22.4150  -11.9821   22.4714 H   0  0  0  0  0  0
  -21.1142  -13.1205   22.2617 H   0  0  0  0  0  0
  -24.6511  -15.8464   20.4996 H   0  0  0  0  0  0
  -26.2862  -15.6419   20.1391 H   0  0  0  0  0  0
  -26.7119  -32.5448   23.1035 H   0  0  0  0  0  0
  -25.0177  -33.9742   25.0539 H   0  0  0  0  0  0
  -22.7022  -31.2997   21.4082 H   0  0  0  0  0  0
  -23.3785  -35.9508   23.3239 H   0  0  0  0  0  0
  -24.3551  -36.8945   22.2055 H   0  0  0  0  0  0
  -23.7163  -37.6392   23.6707 H   0  0  0  0  0  0
  -26.0909  -31.5435   20.6042 H   0  0  0  0  0  0
  -26.8365  -30.8325   22.0075 H   0  0  0  0  0  0
  -28.0995  -28.9691   21.1987 H   0  0  0  0  0  0
  -25.9524  -25.9224   18.9974 H   0  0  0  0  0  0
  -23.9614  -27.3213   18.9970 H   0  0  0  0  0  0
  -23.7584  -30.6149   19.4132 H   0  0  0  0  0  0
  -22.7488  -29.2687   19.8545 H   0  0  0  0  0  0
  -25.1236  -36.1892   25.0840 H   0  0  0  0  0  0
  -20.9967  -28.3255   24.1408 H   0  0  0  0  0  0
  -20.5702  -26.2259   23.3594 H   0  0  0  0  0  0
  -21.6645  -26.7436   22.1199 H   0  0  0  0  0  0
  -19.6936  -25.6278   21.1242 H   0  0  0  0  0  0
  -19.6745  -27.3173   20.6711 H   0  0  0  0  0  0
  -17.4227  -26.6696   21.3971 H   0  0  0  0  0  0
  -18.0303  -26.0047   22.8964 H   0  0  0  0  0  0
  -19.7948  -30.7247   24.2283 H   0  0  0  0  0  0
  -17.5034  -31.6261   24.5137 H   0  0  0  0  0  0
  -15.5366  -30.2973   23.7668 H   0  0  0  0  0  0
  -15.8671  -28.0806   22.7097 H   0  0  0  0  0  0
  -24.6073  -30.6856   25.7764 H   0  0  0  0  0  0
  -24.8864  -32.2730   26.4752 H   0  0  0  0  0  0
  -25.8179  -30.8899   27.0226 H   0  0  0  0  0  0
  -26.2978  -29.6648   24.1222 H   0  0  0  0  0  0
  -27.4368  -29.7266   25.4469 H   0  0  0  0  0  0
  -27.8721  -30.4319   23.9120 H   0  0  0  0  0  0
  -27.2726  -33.3698   26.1867 H   0  0  0  0  0  0
  -28.3964  -32.6760   25.0323 H   0  0  0  0  0  0
  -28.0657  -31.8536   26.5502 H   0  0  0  0  0  0
  -28.2531  -38.0127   24.7615 H   0  0  0  0  0  0
  -28.1206  -36.2648   24.6198 H   0  0  0  0  0  0
  -27.2326  -37.1252   25.8884 H   0  0  0  0  0  0
  -20.9369  -29.8683   21.6846 H   0  0  0  0  0  0
  -26.0165  -38.2820   24.1518 H   0  0  0  0  0  0
  -29.0935  -19.5902   18.5459 H   0  0  0  0  0  0
  -29.1105  -17.4845   22.9982 H   0  0  0  0  0  0
  -31.8372  -22.6813   19.3524 H   0  0  0  0  0  0
  -30.9586  -21.2822   20.1680 H   0  0  0  0  0  0
  -30.1696  -24.7692   18.6397 H   0  0  0  0  0  0
  -30.4287  -25.1659   20.3314 H   0  0  0  0  0  0
  -26.7204  -23.6877   20.3484 H   0  0  0  0  0  0
  -27.6368  -24.3083   21.7081 H   0  0  0  0  0  0
  -27.9068  -24.9776   18.7848 H   0  0  0  0  0  0
  -29.5828  -17.5999   17.4809 H   0  0  0  0  0  0
  -29.0872  -16.1365   18.3189 H   0  0  0  0  0  0
  -30.7882  -16.6343   18.3206 H   0  0  0  0  0  0
  -27.4819  -19.3658   23.6730 H   0  0  0  0  0  0
  -27.7415  -20.9543   22.9906 H   0  0  0  0  0  0
  -29.0418  -20.1600   23.8705 H   0  0  0  0  0  0
  -27.0239  -21.3306   20.8140 H   0  0  0  0  0  0
  -27.7804  -21.4174   19.2758 H   0  0  0  0  0  0
  -29.0774  -15.2663   21.7461 H   0  0  0  0  0  0
  -28.8520  -22.6100   21.6974 H   0  0  0  0  0  0
  1 25  1  0  0  0
  1 30  2  0  0  0
  1 85  1  0  0  0
  2  3  1  0  0  0
  2 25  1  0  0  0
  2 87  1  0  0  0
  2 88  1  0  0  0
  3  4  1  0  0  0
  3 89  1  0  0  0
  3 90  1  0  0  0
  4  5  1  0  0  0
  4 91  1  0  0  0
  4 92  1  0  0  0
  5  6  1  0  0  0
  5 26  1  0  0  0
  5 93  1  0  0  0
  6 25  1  0  0  0
  6 94  1  0  0  0
  6 95  1  0  0  0
  7  8  2  0  0  0
  7 26  1  0  0  0
  7 29  1  0  0  0
  8  9  1  0  0  0
  8 22  1  0  0  0
  9 10  1  0  0  0
  9 27  2  0  0  0
 10 11  2  0  0  0
 10 15  1  0  0  0
 11 12  1  0  0  0
 11 96  1  0  0  0
 12 13  2  0  0  0
 12 97  1  0  0  0
 13 14  1  0  0  0
 13 31  1  0  0  0
 14 15  2  0  0  0
 14 98  1  0  0  0
 15 99  1  0  0  0
 16 17  2  0  0  0
 16 21  1  0  0  0
 16 31  1  0  0  0
 17 18  1  0  0  0
 17100  1  0  0  0
 18 19  2  0  0  0
 18101  1  0  0  0
 19 20  1  0  0  0
 19 24  1  0  0  0
 20 21  2  0  0  0
 20102  1  0  0  0
 21 23  1  0  0  0
 22 28  1  0  0  0
 22 32  2  0  0  0
 26 27  1  0  0  0
 28103  1  0  0  0
 28104  1  0  0  0
 29105  1  0  0  0
 29106  1  0  0  0
 33 34  1  0  0  0
 33 66  1  0  0  0
 33 70  2  0  0  0
 34 36  1  0  0  0
 34 59  1  0  0  0
 34107  1  0  0  0
 35 44  2  0  0  0
 35 45  1  0  0  0
 35 68  1  0  0  0
 36 56  1  0  0  0
 36108  1  0  0  0
 37 39  1  0  0  0
 37 47  1  0  0  0
 37 66  1  0  0  0
 37109  1  0  0  0
 38 43  2  0  0  0
 38 46  1  0  0  0
 38 47  1  0  0  0
 39 64  1  0  0  0
 39 67  2  0  0  0
 40 52  1  0  0  0
 40 53  2  0  0  0
 40 58  1  0  0  0
 41110  1  0  0  0
 41111  1  0  0  0
 41112  1  0  0  0
 41 48  1  0  0  0
 42 43  1  0  0  0
 42 66  1  0  0  0
 42113  1  0  0  0
 42114  1  0  0  0
 43 44  1  0  0  0
 44115  1  0  0  0
 45 46  2  0  0  0
 45116  1  0  0  0
 46117  1  0  0  0
 47118  1  0  0  0
 47119  1  0  0  0
 48 56  1  0  0  0
 48 65  1  0  0  0
 48120  1  0  0  0
 49 50  1  0  0  0
 49 53  1  0  0  0
 49 64  1  0  0  0
 49121  1  0  0  0
 50 51  1  0  0  0
 50122  1  0  0  0
 50123  1  0  0  0
 51 52  1  0  0  0
 51124  1  0  0  0
 51125  1  0  0  0
 52126  1  0  0  0
 52127  1  0  0  0
 53 54  1  0  0  0
 54 55  2  0  0  0
 54128  1  0  0  0
 55 57  1  0  0  0
 55129  1  0  0  0
 56 69  2  0  0  0
 57 58  2  0  0  0
 57130  1  0  0  0
 58131  1  0  0  0
 59 60  1  0  0  0
 59 61  1  0  0  0
 59 62  1  0  0  0
 60132  1  0  0  0
 60133  1  0  0  0
 60134  1  0  0  0
 61135  1  0  0  0
 61136  1  0  0  0
 61137  1  0  0  0
 62138  1  0  0  0
 62139  1  0  0  0
 62140  1  0  0  0
 63 65  1  0  0  0
 63141  1  0  0  0
 63142  1  0  0  0
 63143  1  0  0  0
 64144  1  0  0  0
 65145  1  0  0  0
 68 81  1  0  0  0
 71 73  2  0  0  0
 71 74  1  0  0  0
 71146  1  0  0  0
 72 75  2  0  0  0
 72 76  1  0  0  0
 72147  1  0  0  0
 73 75  1  0  0  0
 73 84  1  0  0  0
 74 76  2  0  0  0
 74 82  1  0  0  0
 75 83  1  0  0  0
 76 85  1  0  0  0
 77 78  2  0  0  0
 77 79  1  0  0  0
 77 86  1  0  0  0
 78148  1  0  0  0
 78149  1  0  0  0
 79 81  1  0  0  0
 79150  1  0  0  0
 79151  1  0  0  0
 80 81  1  0  0  0
 80 86  1  0  0  0
 80152  1  0  0  0
 80153  1  0  0  0
 81154  1  0  0  0
 82155  1  0  0  0
 82156  1  0  0  0
 82157  1  0  0  0
 83158  1  0  0  0
 83159  1  0  0  0
 83160  1  0  0  0
 84161  1  0  0  0
 84162  1  0  0  0
 84 86  1  0  0  0
 85163  1  0  0  0
 86164  1  0  0  0
M  CHG  1  86   1
M  ISO  4   1 100  68 101  81 101  85 100
M  END
> <chiral flag>
0

> <version>
0

> <s_m_source_file>
/data/baiqing/PycharmProjects/Reinvent-master-3.2/result/LINK_invent/BTK/process_docking_weight1_custom_product_contain_oxygen_bond_distance_aromatic_linkinvent_7_9_3/rearranged_h_0033.sdf

> <i_m_source_file_index>
57

> <r_mmod_Potential_Energy-OPLS-2005>
26.8851528167725

> <r_mmod_Stretch_Energy-OPLS-2005>
92.8145446777344

> <r_mmod_Bend_Energy-OPLS-2005>
189.250076293945

> <r_mmod_Torsional_Energy-OPLS-2005>
259.294311523438

> <r_mmod_Improper_Torsional_Energy-OPLS-2005>
5.29140663146973

> <r_mmod_Van_der_Waal_Energy-OPLS-2005>
132.039428710938

> <r_mmod_Electrostatic_Energy-OPLS-2005>
-285.930297851562

> <r_mmod_Solvation_Energy-OPLS-2005>
-427.174926757812

> <b_mmod_Minimization_Converged-OPLS-2005>
0

> <r_mmod_RMS_Derivative-OPLS-2005>
4.9837965965271

$$$$
57
                    3D
 Structure written by MMmdl.
161170  0  0  1  0            999 V2000
  -30.6106  -14.7351   20.4570 C   0  0  0  0  0  0
  -30.4345  -12.4391   19.4911 C   0  0  0  0  0  0
  -29.5170  -12.4963   18.2486 C   0  0  0  0  0  0
  -28.0412  -12.3307   18.6580 C   0  0  0  0  0  0
  -27.6483  -13.2313   19.8596 C   0  0  2  0  0  0
  -28.6882  -13.1551   21.0002 C   0  0  0  0  0  0
  -25.2539  -13.8194   20.5698 C   0  0  0  0  0  0
  -24.1820  -13.0445   20.9186 C   0  0  0  0  0  0
  -24.6408  -11.6922   20.8737 C   0  0  0  0  0  0
  -23.9085  -10.4295   21.0398 C   0  0  0  0  0  0
  -24.3628   -9.4211   21.9185 C   0  0  0  0  0  0
  -23.6295   -8.2250   22.0765 C   0  0  0  0  0  0
  -22.4284   -8.0279   21.3548 C   0  0  0  0  0  0
  -21.9920   -9.0257   20.4654 C   0  0  0  0  0  0
  -22.7253  -10.2133   20.3055 C   0  0  0  0  0  0
  -21.6856   -6.0738   22.5275 C   0  0  0  0  0  0
  -21.4018   -6.5640   23.8207 C   0  0  0  0  0  0
  -21.3657   -5.6794   24.9168 C   0  0  0  0  0  0
  -21.6045   -4.3058   24.7220 C   0  0  0  0  0  0
  -21.8819   -3.8150   23.4342 C   0  0  0  0  0  0
  -21.9196   -4.6967   22.3400 C   0  0  0  0  0  0
  -22.7845  -13.5224   21.1852 C   0  0  0  0  0  0
  -22.1665   -4.2155   21.0978 F   0  0  0  0  0  0
  -21.5629   -3.4541   25.7732 F   0  0  0  0  0  0
  -29.9983  -13.5000   20.4313 N   0  0  0  0  0  0
  -26.2974  -12.9405   20.3309 N   0  0  0  0  0  0
  -25.9338  -11.6548   20.5767 N   0  0  0  0  0  0
  -22.0496  -12.8199   22.0404 N   0  0  0  0  0  0
  -25.4238  -15.1912   20.4129 N   0  0  0  0  0  0
  -31.7813  -14.8466   20.0799 O   0  0  0  0  0  0
  -21.6645   -6.8881   21.4239 O   0  0  0  0  0  0
  -22.3530  -14.5537   20.6714 O   0  0  0  0  0  0
  -24.6313  -31.8535   23.1974 C   0  0  0  0  0  0
  -25.9132  -32.4739   23.8323 C   0  0  1  0  0  0
  -27.2215  -27.2485   20.1285 C   0  0  0  0  0  0
  -25.5917  -33.8547   24.2239 N   0  0  0  0  0  0
  -23.4294  -30.4755   21.5419 C   0  0  2  0  0  0
  -24.8776  -28.9226   20.1094 C   0  0  0  0  0  0
  -22.7512  -29.4590   22.4920 C   0  0  0  0  0  0
  -18.0291  -28.1384   22.8472 C   0  0  0  0  0  0
  -24.1503  -36.7274   23.2642 C   0  0  0  0  0  0
  -25.9770  -30.7612   21.3824 C   0  0  0  0  0  0
  -26.0484  -29.3837   20.7230 C   0  0  0  0  0  0
  -27.2194  -28.5572   20.7253 C   0  0  0  0  0  0
  -26.0298  -26.8694   19.4692 C   0  0  0  0  0  0
  -24.8732  -27.6717   19.4762 C   0  0  0  0  0  0
  -23.6478  -29.8078   20.1590 C   0  0  0  0  0  0
  -25.4132  -36.3061   24.0325 C   0  0  1  0  0  0
  -20.5899  -28.3696   23.1269 C   0  0  2  0  0  0
  -20.6789  -26.9416   22.5412 C   0  0  0  0  0  0
  -19.5765  -26.6375   21.5220 C   0  0  0  0  0  0
  -18.1937  -26.7924   22.1617 C   0  0  0  0  0  0
  -19.1547  -28.8858   23.2858 C   0  0  0  0  0  0
  -18.9475  -30.1451   23.8878 C   0  0  0  0  0  0
  -17.6479  -30.6580   24.0560 C   0  0  0  0  0  0
  -25.9075  -34.9431   23.5098 C   0  0  0  0  0  0
  -16.5359  -29.9083   23.6342 C   0  0  0  0  0  0
  -16.7278  -28.6501   23.0355 C   0  0  0  0  0  0
  -26.4499  -31.6563   25.0723 C   0  0  0  0  0  0
  -25.3708  -31.3706   26.1429 C   0  0  0  0  0  0
  -27.0364  -30.2978   24.6230 C   0  0  0  0  0  0
  -27.6049  -32.4319   25.7492 C   0  0  0  0  0  0
  -27.5587  -37.1793   24.8469 C   0  0  0  0  0  0
  -21.4220  -29.3021   22.3645 N   0  0  0  0  0  0
  -26.4298  -37.3765   23.9418 N   0  0  0  0  0  0
  -24.6980  -31.0495   22.0956 N   0  0  0  0  0  0
  -23.4207  -28.8141   23.3030 O   0  0  0  0  0  0
  -28.3155  -26.3478   20.2120 O   0  0  0  0  0  0
  -26.5657  -34.8900   22.4673 O   0  0  0  0  0  0
  -23.5459  -32.1358   23.7257 O   0  0  0  0  0  0
  -29.5067  -19.6499   18.6596 C   0  0  0  0  0  0
  -29.5773  -18.4013   18.0100 C   0  0  0  0  0  0
  -29.5714  -19.7560   20.0650 C   0  0  0  0  0  0
  -29.7149  -18.4919   20.7993 C   0  0  0  0  0  0
  -29.8112  -17.1867   20.1368 C   0  0  0  0  0  0
  -29.7243  -17.1977   18.7240 C   0  0  0  0  0  0
  -27.4077  -22.5973   20.7025 C   0  0  0  0  0  0
  -26.5864  -21.5876   21.0370 C   0  0  0  0  0  0
  -27.1172  -24.1072   20.7972 C   0  0  0  0  0  0
  -29.3439  -23.8220   20.1219 C   0  0  0  0  0  0
  -28.1539  -24.8645   19.9380 C   0  0  2  0  0  0
  -29.8039  -18.5487   22.3160 C   0  0  0  0  0  0
  -29.6211  -21.2421   20.6822 C   0  0  0  0  0  0
  -29.8659  -15.8539   20.8002 N   0  0  0  0  0  0
  -28.7713  -22.4052   20.1163 N   0  3  1  0  0  0
  -29.7358  -16.0367   18.0252 F   0  0  0  0  0  0
  -31.4775  -12.5511   19.1921 H   0  0  0  0  0  0
  -30.3697  -11.4610   19.9687 H   0  0  0  0  0  0
  -29.7950  -11.7132   17.5407 H   0  0  0  0  0  0
  -29.6536  -13.4434   17.7268 H   0  0  0  0  0  0
  -27.8951  -11.2831   18.9220 H   0  0  0  0  0  0
  -27.3857  -12.5236   17.8080 H   0  0  0  0  0  0
  -27.6499  -14.2553   19.4853 H   0  0  0  0  0  0
  -28.7131  -12.1556   21.4375 H   0  0  0  0  0  0
  -28.4190  -13.8330   21.8116 H   0  0  0  0  0  0
  -25.2774   -9.5687   22.4762 H   0  0  0  0  0  0
  -24.0002   -7.4648   22.7489 H   0  0  0  0  0  0
  -21.0855   -8.8770   19.8958 H   0  0  0  0  0  0
  -22.3707  -10.9671   19.6162 H   0  0  0  0  0  0
  -21.2010   -7.6148   23.9709 H   0  0  0  0  0  0
  -21.1481   -6.0527   25.9071 H   0  0  0  0  0  0
  -22.0603   -2.7614   23.2838 H   0  0  0  0  0  0
  -22.4126  -11.9843   22.4748 H   0  0  0  0  0  0
  -21.1123  -13.1223   22.2639 H   0  0  0  0  0  0
  -24.6549  -15.8435   20.5229 H   0  0  0  0  0  0
  -26.2713  -15.6326   20.0791 H   0  0  0  0  0  0
  -26.7203  -32.5378   23.1062 H   0  0  0  0  0  0
  -25.0046  -33.9691   25.0372 H   0  0  0  0  0  0
  -22.7262  -31.2978   21.3933 H   0  0  0  0  0  0
  -23.3767  -35.9601   23.3296 H   0  0  0  0  0  0
  -24.3588  -36.8910   22.2056 H   0  0  0  0  0  0
  -23.7255  -37.6472   23.6674 H   0  0  0  0  0  0
  -26.1263  -31.5229   20.6154 H   0  0  0  0  0  0
  -26.8494  -30.8044   22.0220 H   0  0  0  0  0  0
  -28.1094  -28.8988   21.2366 H   0  0  0  0  0  0
  -25.9553  -25.9262   18.9530 H   0  0  0  0  0  0
  -23.9776  -27.3128   18.9886 H   0  0  0  0  0  0
  -23.7654  -30.5816   19.3996 H   0  0  0  0  0  0
  -22.7669  -29.2372   19.8592 H   0  0  0  0  0  0
  -25.1315  -36.1904   25.0816 H   0  0  0  0  0  0
  -20.9983  -28.3275   24.1397 H   0  0  0  0  0  0
  -20.5747  -26.2295   23.3610 H   0  0  0  0  0  0
  -21.6648  -26.7478   22.1167 H   0  0  0  0  0  0
  -19.6960  -25.6299   21.1230 H   0  0  0  0  0  0
  -19.6710  -27.3192   20.6764 H   0  0  0  0  0  0
  -17.4226  -26.6666   21.4003 H   0  0  0  0  0  0
  -18.0323  -26.0064   22.9019 H   0  0  0  0  0  0
  -19.7958  -30.7263   24.2231 H   0  0  0  0  0  0
  -17.5039  -31.6266   24.5156 H   0  0  0  0  0  0
  -15.5364  -30.2984   23.7683 H   0  0  0  0  0  0
  -15.8670  -28.0819   22.7093 H   0  0  0  0  0  0
  -24.5905  -30.7043   25.7740 H   0  0  0  0  0  0
  -24.8863  -32.2859   26.4833 H   0  0  0  0  0  0
  -25.7987  -30.8891   27.0230 H   0  0  0  0  0  0
  -26.2959  -29.6704   24.1255 H   0  0  0  0  0  0
  -27.4050  -29.7269   25.4764 H   0  0  0  0  0  0
  -27.8832  -30.4260   23.9486 H   0  0  0  0  0  0
  -27.2667  -33.3647   26.2016 H   0  0  0  0  0  0
  -28.3863  -32.6831   25.0310 H   0  0  0  0  0  0
  -28.0702  -31.8473   26.5438 H   0  0  0  0  0  0
  -28.2588  -38.0106   24.7527 H   0  0  0  0  0  0
  -28.1094  -36.2630   24.6280 H   0  0  0  0  0  0
  -27.2293  -37.1430   25.8867 H   0  0  0  0  0  0
  -20.9421  -29.8721   21.6817 H   0  0  0  0  0  0
  -26.0173  -38.2845   24.1393 H   0  0  0  0  0  0
  -29.4214  -20.5373   18.0486 H   0  0  0  0  0  0
  -29.5159  -18.3614   16.9321 H   0  0  0  0  0  0
  -25.6063  -21.7864   21.4437 H   0  0  0  0  0  0
  -26.8710  -20.5513   20.9166 H   0  0  0  0  0  0
  -27.2100  -24.4094   21.8407 H   0  0  0  0  0  0
  -26.0913  -24.3071   20.4926 H   0  0  0  0  0  0
  -29.8197  -23.9983   21.0869 H   0  0  0  0  0  0
  -30.1124  -23.9426   19.3577 H   0  0  0  0  0  0
  -27.8599  -24.7833   18.8905 H   0  0  0  0  0  0
  -30.6729  -19.1317   22.6214 H   0  0  0  0  0  0
  -29.9047  -17.5617   22.7663 H   0  0  0  0  0  0
  -28.9125  -19.0146   22.7387 H   0  0  0  0  0  0
  -30.6622  -21.5470   20.5780 H   0  0  0  0  0  0
  -29.4488  -21.1974   21.7567 H   0  0  0  0  0  0
  -29.0418  -15.6349   21.3381 H   0  0  0  0  0  0
  -28.6551  -22.1814   19.1399 H   0  0  0  0  0  0
  1 25  1  0  0  0
  1 30  2  0  0  0
  1 84  1  0  0  0
  2  3  1  0  0  0
  2 25  1  0  0  0
  2 87  1  0  0  0
  2 88  1  0  0  0
  3  4  1  0  0  0
  3 89  1  0  0  0
  3 90  1  0  0  0
  4  5  1  0  0  0
  4 91  1  0  0  0
  4 92  1  0  0  0
  5  6  1  0  0  0
  5 26  1  0  0  0
  5 93  1  0  0  0
  6 25  1  0  0  0
  6 94  1  0  0  0
  6 95  1  0  0  0
  7  8  2  0  0  0
  7 26  1  0  0  0
  7 29  1  0  0  0
  8  9  1  0  0  0
  8 22  1  0  0  0
  9 10  1  0  0  0
  9 27  2  0  0  0
 10 11  2  0  0  0
 10 15  1  0  0  0
 11 12  1  0  0  0
 11 96  1  0  0  0
 12 13  2  0  0  0
 12 97  1  0  0  0
 13 14  1  0  0  0
 13 31  1  0  0  0
 14 15  2  0  0  0
 14 98  1  0  0  0
 15 99  1  0  0  0
 16 17  2  0  0  0
 16 21  1  0  0  0
 16 31  1  0  0  0
 17 18  1  0  0  0
 17100  1  0  0  0
 18 19  2  0  0  0
 18101  1  0  0  0
 19 20  1  0  0  0
 19 24  1  0  0  0
 20 21  2  0  0  0
 20102  1  0  0  0
 21 23  1  0  0  0
 22 28  1  0  0  0
 22 32  2  0  0  0
 26 27  1  0  0  0
 28103  1  0  0  0
 28104  1  0  0  0
 29105  1  0  0  0
 29106  1  0  0  0
 33 34  1  0  0  0
 33 66  1  0  0  0
 33 70  2  0  0  0
 34 36  1  0  0  0
 34 59  1  0  0  0
 34107  1  0  0  0
 35 44  2  0  0  0
 35 45  1  0  0  0
 35 68  1  0  0  0
 36 56  1  0  0  0
 36108  1  0  0  0
 37 39  1  0  0  0
 37 47  1  0  0  0
 37 66  1  0  0  0
 37109  1  0  0  0
 38 43  2  0  0  0
 38 46  1  0  0  0
 38 47  1  0  0  0
 39 64  1  0  0  0
 39 67  2  0  0  0
 40 52  1  0  0  0
 40 53  2  0  0  0
 40 58  1  0  0  0
 41110  1  0  0  0
 41111  1  0  0  0
 41112  1  0  0  0
 41 48  1  0  0  0
 42 43  1  0  0  0
 42 66  1  0  0  0
 42113  1  0  0  0
 42114  1  0  0  0
 43 44  1  0  0  0
 44115  1  0  0  0
 45 46  2  0  0  0
 45116  1  0  0  0
 46117  1  0  0  0
 47118  1  0  0  0
 47119  1  0  0  0
 48 56  1  0  0  0
 48 65  1  0  0  0
 48120  1  0  0  0
 49 50  1  0  0  0
 49 53  1  0  0  0
 49 64  1  0  0  0
 49121  1  0  0  0
 50 51  1  0  0  0
 50122  1  0  0  0
 50123  1  0  0  0
 51 52  1  0  0  0
 51124  1  0  0  0
 51125  1  0  0  0
 52126  1  0  0  0
 52127  1  0  0  0
 53 54  1  0  0  0
 54 55  2  0  0  0
 54128  1  0  0  0
 55 57  1  0  0  0
 55129  1  0  0  0
 56 69  2  0  0  0
 57 58  2  0  0  0
 57130  1  0  0  0
 58131  1  0  0  0
 59 60  1  0  0  0
 59 61  1  0  0  0
 59 62  1  0  0  0
 60132  1  0  0  0
 60133  1  0  0  0
 60134  1  0  0  0
 61135  1  0  0  0
 61136  1  0  0  0
 61137  1  0  0  0
 62138  1  0  0  0
 62139  1  0  0  0
 62140  1  0  0  0
 63 65  1  0  0  0
 63141  1  0  0  0
 63142  1  0  0  0
 63143  1  0  0  0
 64144  1  0  0  0
 65145  1  0  0  0
 68 81  1  0  0  0
 71 72  2  0  0  0
 71 73  1  0  0  0
 71146  1  0  0  0
 72 76  1  0  0  0
 72147  1  0  0  0
 73 74  2  0  0  0
 73 83  1  0  0  0
 74 75  1  0  0  0
 74 82  1  0  0  0
 75 76  2  0  0  0
 75 84  1  0  0  0
 76 86  1  0  0  0
 77 78  2  0  0  0
 77 79  1  0  0  0
 77 85  1  0  0  0
 78148  1  0  0  0
 78149  1  0  0  0
 79 81  1  0  0  0
 79150  1  0  0  0
 79151  1  0  0  0
 80 81  1  0  0  0
 80 85  1  0  0  0
 80152  1  0  0  0
 80153  1  0  0  0
 81154  1  0  0  0
 82155  1  0  0  0
 82156  1  0  0  0
 82157  1  0  0  0
 83158  1  0  0  0
 83159  1  0  0  0
 83 85  1  0  0  0
 84160  1  0  0  0
 85161  1  0  0  0
M  CHG  1  85   1
M  ISO  4   1 100  68 101  81 101  84 100
M  END
> <chiral flag>
0

> <version>
0

> <s_m_source_file>
/data/baiqing/PycharmProjects/Reinvent-master-3.2/result/LINK_invent/BTK/process_docking_weight1_custom_product_contain_oxygen_bond_distance_aromatic_linkinvent_7_9_3/rearranged_h_0033.sdf

> <i_m_source_file_index>
58

> <r_mmod_Potential_Energy-OPLS-2005>
72.4757308959961

> <r_mmod_Stretch_Energy-OPLS-2005>
129.93083190918

> <r_mmod_Bend_Energy-OPLS-2005>
200.005447387695

> <r_mmod_Torsional_Energy-OPLS-2005>
256.351470947266

> <r_mmod_Improper_Torsional_Energy-OPLS-2005>
5.02080249786377

> <r_mmod_Van_der_Waal_Energy-OPLS-2005>
132.540908813477

> <r_mmod_Electrostatic_Energy-OPLS-2005>
-286.529724121094

> <r_mmod_Solvation_Energy-OPLS-2005>
-451.316314697266

> <b_mmod_Minimization_Converged-OPLS-2005>
0

> <r_mmod_RMS_Derivative-OPLS-2005>
1.96908521652222

$$$$
58
                    3D
 Structure written by MMmdl.
167176  0  0  1  0            999 V2000
  -30.6624  -14.6231   20.6289 C   0  0  0  0  0  0
  -30.4348  -12.4167   19.4813 C   0  0  0  0  0  0
  -29.5156  -12.5438   18.2463 C   0  0  0  0  0  0
  -28.0377  -12.3723   18.6467 C   0  0  0  0  0  0
  -27.6588  -13.2280   19.8829 C   0  0  2  0  0  0
  -28.6875  -13.0636   21.0267 C   0  0  0  0  0  0
  -25.2439  -13.8137   20.5472 C   0  0  0  0  0  0
  -24.1751  -13.0373   20.9142 C   0  0  0  0  0  0
  -24.6385  -11.6886   20.8732 C   0  0  0  0  0  0
  -23.9045  -10.4285   21.0438 C   0  0  0  0  0  0
  -24.3598   -9.4217   21.9218 C   0  0  0  0  0  0
  -23.6271   -8.2252   22.0772 C   0  0  0  0  0  0
  -22.4237   -8.0320   21.3569 C   0  0  0  0  0  0
  -21.9885   -9.0285   20.4650 C   0  0  0  0  0  0
  -22.7223  -10.2164   20.3072 C   0  0  0  0  0  0
  -21.6856   -6.0742   22.5263 C   0  0  0  0  0  0
  -21.4018   -6.5635   23.8205 C   0  0  0  0  0  0
  -21.3653   -5.6793   24.9165 C   0  0  0  0  0  0
  -21.6038   -4.3051   24.7227 C   0  0  0  0  0  0
  -21.8815   -3.8146   23.4344 C   0  0  0  0  0  0
  -21.9194   -4.6962   22.3402 C   0  0  0  0  0  0
  -22.7768  -13.5163   21.1846 C   0  0  0  0  0  0
  -22.1654   -4.2136   21.0984 F   0  0  0  0  0  0
  -21.5638   -3.4542   25.7751 F   0  0  0  0  0  0
  -30.0175  -13.4144   20.5025 N   0  0  0  0  0  0
  -26.2964  -12.9376   20.3288 N   0  0  0  0  0  0
  -25.9348  -11.6507   20.5804 N   0  0  0  0  0  0
  -22.0390  -12.8174   22.0459 N   0  0  0  0  0  0
  -25.3960  -15.1807   20.3672 N   0  0  0  0  0  0
  -31.7212  -14.7968   20.0243 O   0  0  0  0  0  0
  -21.6632   -6.8883   21.4232 O   0  0  0  0  0  0
  -22.3431  -14.5437   20.6706 O   0  0  0  0  0  0
  -24.6305  -31.8571   23.1964 C   0  0  0  0  0  0
  -25.9153  -32.4766   23.8324 C   0  0  1  0  0  0
  -27.2503  -27.2914   20.1378 C   0  0  0  0  0  0
  -25.5970  -33.8550   24.2273 N   0  0  0  0  0  0
  -23.4268  -30.4763   21.5366 C   0  0  2  0  0  0
  -24.8830  -28.9272   20.1064 C   0  0  0  0  0  0
  -22.7566  -29.4582   22.4910 C   0  0  0  0  0  0
  -18.0259  -28.1410   22.8425 C   0  0  0  0  0  0
  -24.1485  -36.7287   23.2643 C   0  0  0  0  0  0
  -25.9689  -30.7836   21.3691 C   0  0  0  0  0  0
  -26.0499  -29.4075   20.7143 C   0  0  0  0  0  0
  -27.2342  -28.6053   20.7124 C   0  0  0  0  0  0
  -26.0626  -26.8810   19.4859 C   0  0  0  0  0  0
  -24.8976  -27.6741   19.4755 C   0  0  0  0  0  0
  -23.6465  -29.8038   20.1536 C   0  0  0  0  0  0
  -25.4106  -36.3041   24.0309 C   0  0  1  0  0  0
  -20.5920  -28.3628   23.1317 C   0  0  2  0  0  0
  -20.6827  -26.9453   22.5278 C   0  0  0  0  0  0
  -19.5704  -26.6346   21.5158 C   0  0  0  0  0  0
  -18.1841  -26.7981   22.1517 C   0  0  0  0  0  0
  -19.1555  -28.8786   23.2885 C   0  0  0  0  0  0
  -18.9535  -30.1373   23.8967 C   0  0  0  0  0  0
  -17.6569  -30.6601   24.0626 C   0  0  0  0  0  0
  -25.9056  -34.9420   23.5078 C   0  0  0  0  0  0
  -16.5406  -29.9202   23.6330 C   0  0  0  0  0  0
  -16.7283  -28.6637   23.0308 C   0  0  0  0  0  0
  -26.4522  -31.6539   25.0686 C   0  0  0  0  0  0
  -25.3754  -31.3694   26.1426 C   0  0  0  0  0  0
  -27.0392  -30.2950   24.6150 C   0  0  0  0  0  0
  -27.6039  -32.4292   25.7498 C   0  0  0  0  0  0
  -27.5560  -37.1800   24.8475 C   0  0  0  0  0  0
  -21.4242  -29.3123   22.3846 N   0  0  0  0  0  0
  -26.4297  -37.3746   23.9399 N   0  0  0  0  0  0
  -24.6943  -31.0554   22.0913 N   0  0  0  0  0  0
  -23.4331  -28.8010   23.2891 O   0  0  0  0  0  0
  -28.3639  -26.4244   20.2354 O   0  0  0  0  0  0
  -26.5630  -34.8901   22.4649 O   0  0  0  0  0  0
  -23.5446  -32.1352   23.7262 O   0  0  0  0  0  0
  -28.7086  -19.1205   21.7733 C   0  0  0  0  0  0
  -29.7323  -20.0265   21.3980 C   0  0  0  0  0  0
  -30.9958  -19.4036   21.0708 C   0  0  0  0  0  0
  -31.1721  -17.9618   21.1190 C   0  0  0  0  0  0
  -30.0790  -17.0701   21.3860 C   0  0  0  0  0  0
  -28.8658  -17.7081   21.7546 C   0  0  0  0  0  0
  -27.2981  -22.8941   21.1175 C   0  0  0  0  0  0
  -26.1733  -22.1522   21.0429 C   0  0  0  0  0  0
  -27.2920  -24.4038   21.3266 C   0  0  0  0  0  0
  -29.3169  -23.8540   20.3229 C   0  0  0  0  0  0
  -28.1626  -24.9389   20.1968 C   0  0  1  0  0  0
  -32.1904  -20.2779   20.6869 C   0  0  0  0  0  0
  -32.5676  -17.3519   20.9756 C   0  0  0  0  0  0
  -25.9887  -20.7394   20.5348 C   0  0  0  0  0  0
  -29.4829  -21.5907   21.6314 C   0  0  0  0  0  0
  -30.1028  -15.5868   21.4387 N   0  0  0  0  0  0
  -28.6934  -22.5020   20.6697 N   0  3  1  0  0  0
  -27.5301  -16.7381   22.2564 Cl  0  0  0  0  0  0
  -31.4731  -12.5478   19.1779 H   0  0  0  0  0  0
  -30.3809  -11.4118   19.8997 H   0  0  0  0  0  0
  -29.7820  -11.8034   17.4877 H   0  0  0  0  0  0
  -29.6641  -13.5225   17.7873 H   0  0  0  0  0  0
  -27.8756  -11.3173   18.8707 H   0  0  0  0  0  0
  -27.3801  -12.6093   17.8083 H   0  0  0  0  0  0
  -27.6922  -14.2694   19.5602 H   0  0  0  0  0  0
  -28.6926  -12.0285   21.3694 H   0  0  0  0  0  0
  -28.4072  -13.6648   21.8939 H   0  0  0  0  0  0
  -25.2758   -9.5678   22.4761 H   0  0  0  0  0  0
  -24.0018   -7.4598   22.7411 H   0  0  0  0  0  0
  -21.0869   -8.8770   19.8889 H   0  0  0  0  0  0
  -22.3690  -10.9701   19.6148 H   0  0  0  0  0  0
  -21.1992   -7.6130   23.9734 H   0  0  0  0  0  0
  -21.1474   -6.0492   25.9078 H   0  0  0  0  0  0
  -22.0595   -2.7610   23.2833 H   0  0  0  0  0  0
  -22.4057  -11.9951   22.4987 H   0  0  0  0  0  0
  -21.0981  -13.1186   22.2596 H   0  0  0  0  0  0
  -24.6301  -15.8311   20.5008 H   0  0  0  0  0  0
  -26.2684  -15.6387   20.1398 H   0  0  0  0  0  0
  -26.7221  -32.5447   23.1079 H   0  0  0  0  0  0
  -25.0111  -33.9705   25.0397 H   0  0  0  0  0  0
  -22.7218  -31.2944   21.3852 H   0  0  0  0  0  0
  -23.3723  -35.9663   23.3309 H   0  0  0  0  0  0
  -24.3580  -36.8901   22.2066 H   0  0  0  0  0  0
  -23.7290  -37.6502   23.6671 H   0  0  0  0  0  0
  -26.0944  -31.5445   20.5966 H   0  0  0  0  0  0
  -26.8484  -30.8426   21.9995 H   0  0  0  0  0  0
  -28.1287  -28.9729   21.1901 H   0  0  0  0  0  0
  -26.0028  -25.9319   18.9774 H   0  0  0  0  0  0
  -24.0133  -27.3121   18.9723 H   0  0  0  0  0  0
  -23.7564  -30.5721   19.3897 H   0  0  0  0  0  0
  -22.7729  -29.2176   19.8600 H   0  0  0  0  0  0
  -25.1286  -36.1886   25.0806 H   0  0  0  0  0  0
  -21.0048  -28.3050   24.1431 H   0  0  0  0  0  0
  -20.5929  -26.2245   23.3396 H   0  0  0  0  0  0
  -21.6656  -26.7589   22.0919 H   0  0  0  0  0  0
  -19.6863  -25.6201   21.1319 H   0  0  0  0  0  0
  -19.6722  -27.2989   20.6563 H   0  0  0  0  0  0
  -18.0166  -26.0148   22.8919 H   0  0  0  0  0  0
  -17.4123  -26.6827   21.3884 H   0  0  0  0  0  0
  -19.8003  -30.7129   24.2404 H   0  0  0  0  0  0
  -17.5215  -31.6285   24.5286 H   0  0  0  0  0  0
  -15.5409  -30.3226   23.7606 H   0  0  0  0  0  0
  -15.8664  -28.1007   22.6967 H   0  0  0  0  0  0
  -24.5936  -30.7041   25.7775 H   0  0  0  0  0  0
  -24.8971  -32.2863   26.4847 H   0  0  0  0  0  0
  -25.8107  -30.8893   27.0195 H   0  0  0  0  0  0
  -26.2995  -29.6681   24.1185 H   0  0  0  0  0  0
  -27.4087  -29.7246   25.4680 H   0  0  0  0  0  0
  -27.8835  -30.4222   23.9389 H   0  0  0  0  0  0
  -27.2606  -33.3587   26.2052 H   0  0  0  0  0  0
  -28.3881  -32.6853   25.0367 H   0  0  0  0  0  0
  -28.0659  -31.8441   26.5449 H   0  0  0  0  0  0
  -28.2576  -38.0093   24.7457 H   0  0  0  0  0  0
  -28.1039  -36.2603   24.6348 H   0  0  0  0  0  0
  -27.2280  -37.1507   25.8888 H   0  0  0  0  0  0
  -20.9377  -29.9138   21.7368 H   0  0  0  0  0  0
  -26.0137  -38.2822   24.1393 H   0  0  0  0  0  0
  -27.7738  -19.5291   22.1314 H   0  0  0  0  0  0
  -25.2410  -22.6305   21.3062 H   0  0  0  0  0  0
  -27.7190  -24.6691   22.2976 H   0  0  0  0  0  0
  -26.2808  -24.8060   21.2941 H   0  0  0  0  0  0
  -30.0120  -24.1573   21.1060 H   0  0  0  0  0  0
  -29.8790  -23.7682   19.3934 H   0  0  0  0  0  0
  -27.6858  -24.7183   19.2416 H   0  0  0  0  0  0
  -32.0259  -21.3443   20.8190 H   0  0  0  0  0  0
  -32.4361  -20.1121   19.6366 H   0  0  0  0  0  0
  -33.0743  -20.0568   21.2825 H   0  0  0  0  0  0
  -32.7289  -17.0165   19.9493 H   0  0  0  0  0  0
  -32.6896  -16.5021   21.6552 H   0  0  0  0  0  0
  -33.3930  -18.0065   21.2345 H   0  0  0  0  0  0
  -26.8750  -20.3189   20.0593 H   0  0  0  0  0  0
  -25.1939  -20.7401   19.7882 H   0  0  0  0  0  0
  -25.6611  -20.0871   21.3420 H   0  0  0  0  0  0
  -30.4029  -22.0860   21.9339 H   0  0  0  0  0  0
  -28.9202  -21.6135   22.5671 H   0  0  0  0  0  0
  -29.3528  -15.2174   22.0060 H   0  0  0  0  0  0
  -28.6203  -21.9871   19.8030 H   0  0  0  0  0  0
  1 25  1  0  0  0
  1 30  2  0  0  0
  1 86  1  0  0  0
  2  3  1  0  0  0
  2 25  1  0  0  0
  2 89  1  0  0  0
  2 90  1  0  0  0
  3  4  1  0  0  0
  3 91  1  0  0  0
  3 92  1  0  0  0
  4  5  1  0  0  0
  4 93  1  0  0  0
  4 94  1  0  0  0
  5  6  1  0  0  0
  5 26  1  0  0  0
  5 95  1  0  0  0
  6 25  1  0  0  0
  6 96  1  0  0  0
  6 97  1  0  0  0
  7  8  2  0  0  0
  7 26  1  0  0  0
  7 29  1  0  0  0
  8  9  1  0  0  0
  8 22  1  0  0  0
  9 10  1  0  0  0
  9 27  2  0  0  0
 10 11  2  0  0  0
 10 15  1  0  0  0
 11 12  1  0  0  0
 11 98  1  0  0  0
 12 13  2  0  0  0
 12 99  1  0  0  0
 13 14  1  0  0  0
 13 31  1  0  0  0
 14 15  2  0  0  0
 14100  1  0  0  0
 15101  1  0  0  0
 16 17  2  0  0  0
 16 21  1  0  0  0
 16 31  1  0  0  0
 17 18  1  0  0  0
 17102  1  0  0  0
 18 19  2  0  0  0
 18103  1  0  0  0
 19 20  1  0  0  0
 19 24  1  0  0  0
 20 21  2  0  0  0
 20104  1  0  0  0
 21 23  1  0  0  0
 22 28  1  0  0  0
 22 32  2  0  0  0
 26 27  1  0  0  0
 28105  1  0  0  0
 28106  1  0  0  0
 29107  1  0  0  0
 29108  1  0  0  0
 33 34  1  0  0  0
 33 66  1  0  0  0
 33 70  2  0  0  0
 34 36  1  0  0  0
 34 59  1  0  0  0
 34109  1  0  0  0
 35 44  2  0  0  0
 35 45  1  0  0  0
 35 68  1  0  0  0
 36 56  1  0  0  0
 36110  1  0  0  0
 37 39  1  0  0  0
 37 47  1  0  0  0
 37 66  1  0  0  0
 37111  1  0  0  0
 38 43  2  0  0  0
 38 46  1  0  0  0
 38 47  1  0  0  0
 39 64  1  0  0  0
 39 67  2  0  0  0
 40 52  1  0  0  0
 40 53  2  0  0  0
 40 58  1  0  0  0
 41112  1  0  0  0
 41113  1  0  0  0
 41114  1  0  0  0
 41 48  1  0  0  0
 42 43  1  0  0  0
 42 66  1  0  0  0
 42115  1  0  0  0
 42116  1  0  0  0
 43 44  1  0  0  0
 44117  1  0  0  0
 45 46  2  0  0  0
 45118  1  0  0  0
 46119  1  0  0  0
 47120  1  0  0  0
 47121  1  0  0  0
 48 56  1  0  0  0
 48 65  1  0  0  0
 48122  1  0  0  0
 49 50  1  0  0  0
 49 53  1  0  0  0
 49 64  1  0  0  0
 49123  1  0  0  0
 50 51  1  0  0  0
 50124  1  0  0  0
 50125  1  0  0  0
 51 52  1  0  0  0
 51126  1  0  0  0
 51127  1  0  0  0
 52128  1  0  0  0
 52129  1  0  0  0
 53 54  1  0  0  0
 54 55  2  0  0  0
 54130  1  0  0  0
 55 57  1  0  0  0
 55131  1  0  0  0
 56 69  2  0  0  0
 57 58  2  0  0  0
 57132  1  0  0  0
 58133  1  0  0  0
 59 60  1  0  0  0
 59 61  1  0  0  0
 59 62  1  0  0  0
 60134  1  0  0  0
 60135  1  0  0  0
 60136  1  0  0  0
 61137  1  0  0  0
 61138  1  0  0  0
 61139  1  0  0  0
 62140  1  0  0  0
 62141  1  0  0  0
 62142  1  0  0  0
 63 65  1  0  0  0
 63143  1  0  0  0
 63144  1  0  0  0
 63145  1  0  0  0
 64146  1  0  0  0
 65147  1  0  0  0
 68 81  1  0  0  0
 71 72  2  0  0  0
 71 76  1  0  0  0
 71148  1  0  0  0
 72 73  1  0  0  0
 72 85  1  0  0  0
 73 74  2  0  0  0
 73 82  1  0  0  0
 74 75  1  0  0  0
 74 83  1  0  0  0
 75 76  2  0  0  0
 75 86  1  0  0  0
 76 88  1  0  0  0
 77 78  2  0  0  0
 77 79  1  0  0  0
 77 87  1  0  0  0
 78 84  1  0  0  0
 78149  1  0  0  0
 79 81  1  0  0  0
 79150  1  0  0  0
 79151  1  0  0  0
 80 81  1  0  0  0
 80 87  1  0  0  0
 80152  1  0  0  0
 80153  1  0  0  0
 81154  1  0  0  0
 82155  1  0  0  0
 82156  1  0  0  0
 82157  1  0  0  0
 83158  1  0  0  0
 83159  1  0  0  0
 83160  1  0  0  0
 84161  1  0  0  0
 84162  1  0  0  0
 84163  1  0  0  0
 85164  1  0  0  0
 85165  1  0  0  0
 85 87  1  0  0  0
 86166  1  0  0  0
 87167  1  0  0  0
M  CHG  1  87   1
M  ISO  4   1 100  68 101  81 101  86 100
M  END
> <chiral flag>
0

> <version>
0

> <s_m_source_file>
/data/baiqing/PycharmProjects/Reinvent-master-3.2/result/LINK_invent/BTK/process_docking_weight1_custom_product_contain_oxygen_bond_distance_aromatic_linkinvent_7_9_3/rearranged_h_0033.sdf

> <i_m_source_file_index>
59

> <r_mmod_Potential_Energy-OPLS-2005>
52.9936790466309

> <r_mmod_Stretch_Energy-OPLS-2005>
114.461143493652

> <r_mmod_Bend_Energy-OPLS-2005>
230.052749633789

> <r_mmod_Torsional_Energy-OPLS-2005>
251.133865356445

> <r_mmod_Improper_Torsional_Energy-OPLS-2005>
5.87259864807129

> <r_mmod_Van_der_Waal_Energy-OPLS-2005>
149.350402832031

> <r_mmod_Electrostatic_Energy-OPLS-2005>
-330.945922851562

> <r_mmod_Solvation_Energy-OPLS-2005>
-420.819030761719

> <b_mmod_Minimization_Converged-OPLS-2005>
0

> <r_mmod_RMS_Derivative-OPLS-2005>
7.88248252868652

$$$$
59
                    3D
 Structure written by MMmdl.
164173  0  0  1  0            999 V2000
  -30.5065  -13.3964   21.4516 C   0  0  0  0  0  0
  -30.0105  -14.0452   19.3655 C   0  0  0  0  0  0
  -28.6231  -14.4045   19.9422 C   0  0  0  0  0  0
  -27.9031  -12.9569   20.5279 C   0  0  0  0  0  0
  -27.2761  -12.3042   19.2759 C   0  0  2  0  0  0
  -28.9163  -12.2762   19.0572 C   0  0  0  0  0  0
  -25.0698  -13.6808   20.3412 C   0  0  0  0  0  0
  -23.9871  -13.0407   20.9279 C   0  0  0  0  0  0
  -24.3842  -11.7008   20.9647 C   0  0  0  0  0  0
  -23.7763  -10.4074   21.0581 C   0  0  0  0  0  0
  -24.3959   -9.3180   21.6948 C   0  0  0  0  0  0
  -23.6992   -8.1000   21.8836 C   0  0  0  0  0  0
  -22.3893   -7.9855   21.3682 C   0  0  0  0  0  0
  -21.8443   -9.0546   20.6163 C   0  0  0  0  0  0
  -22.5366  -10.2522   20.4635 C   0  0  0  0  0  0
  -21.7083   -6.0152   22.5081 C   0  0  0  0  0  0
  -21.4576   -6.5573   23.7942 C   0  0  0  0  0  0
  -21.3977   -5.6902   24.8911 C   0  0  0  0  0  0
  -21.6086   -4.3186   24.7126 C   0  0  0  0  0  0
  -21.9022   -3.7929   23.4472 C   0  0  0  0  0  0
  -21.9418   -4.6347   22.3325 C   0  0  0  0  0  0
  -22.5901  -13.5336   21.2700 C   0  0  0  0  0  0
  -22.1692   -4.1668   21.0784 F   0  0  0  0  0  0
  -21.5590   -3.4720   25.7702 F   0  0  0  0  0  0
  -30.1418  -12.8306   20.0799 N   0  0  0  0  0  0
  -26.0733  -12.7281   20.0375 N   0  0  0  0  0  0
  -25.6378  -11.5988   20.6208 N   0  0  0  0  0  0
  -21.9263  -12.7756   22.1317 N   0  0  0  0  0  0
  -25.0248  -15.0134   19.9855 N   0  0  0  0  0  0
  -31.6284  -13.9676   21.5093 O   0  0  0  0  0  0
  -21.6971   -6.8241   21.3953 O   0  0  0  0  0  0
  -22.1594  -14.5433   20.7264 O   0  0  0  0  0  0
  -24.6772  -31.8158   23.1935 C   0  0  0  0  0  0
  -25.9374  -32.4485   23.8597 C   0  0  1  0  0  0
  -27.0132  -26.6902   20.7123 C   0  0  0  0  0  0
  -25.5909  -33.8387   24.2087 N   0  0  0  0  0  0
  -23.5150  -30.4019   21.5196 C   0  0  2  0  0  0
  -24.9895  -28.7685   20.1566 C   0  0  0  0  0  0
  -22.7816  -29.4248   22.4630 C   0  0  0  0  0  0
  -18.0283  -28.1502   22.8421 C   0  0  0  0  0  0
  -24.1355  -36.7276   23.2689 C   0  0  0  0  0  0
  -26.0827  -30.5279   21.5447 C   0  0  0  0  0  0
  -26.1048  -29.1210   20.9142 C   0  0  0  0  0  0
  -27.1070  -28.0887   21.1708 C   0  0  0  0  0  0
  -25.9752  -26.5305   19.7616 C   0  0  0  0  0  0
  -24.9670  -27.5129   19.5163 C   0  0  0  0  0  0
  -23.8301  -29.7398   20.1332 C   0  0  0  0  0  0
  -25.4008  -36.2962   24.0304 C   0  0  1  0  0  0
  -20.5981  -28.3936   23.1121 C   0  0  2  0  0  0
  -20.6787  -26.9539   22.5524 C   0  0  0  0  0  0
  -19.5855  -26.6323   21.5255 C   0  0  0  0  0  0
  -18.1934  -26.8009   22.1512 C   0  0  0  0  0  0
  -19.1595  -28.9001   23.2700 C   0  0  0  0  0  0
  -18.9473  -30.1504   23.8808 C   0  0  0  0  0  0
  -17.6495  -30.6675   24.0502 C   0  0  0  0  0  0
  -25.9016  -34.9344   23.4988 C   0  0  0  0  0  0
  -16.5348  -29.9187   23.6359 C   0  0  0  0  0  0
  -16.7221  -28.6608   23.0356 C   0  0  0  0  0  0
  -26.4630  -31.6952   25.1453 C   0  0  0  0  0  0
  -25.3718  -31.4460   26.2071 C   0  0  0  0  0  0
  -27.0971  -30.3318   24.8195 C   0  0  0  0  0  0
  -27.5851  -32.5290   25.8026 C   0  0  0  0  0  0
  -27.5430  -37.1890   24.8421 C   0  0  0  0  0  0
  -21.4516  -29.3155   22.3574 N   0  0  0  0  0  0
  -26.4034  -37.3772   23.9485 N   0  0  0  0  0  0
  -24.7691  -30.9730   22.1167 N   0  0  0  0  0  0
  -23.4216  -28.7731   23.2795 O   0  0  0  0  0  0
  -27.7491  -25.4830   21.2086 O   0  0  0  0  0  0
  -26.5623  -34.8898   22.4577 O   0  0  0  0  0  0
  -23.5767  -32.1127   23.6785 O   0  0  0  0  0  0
  -27.2754  -15.8207   22.3381 C   0  0  0  0  0  0
  -26.8210  -17.2161   22.1952 C   0  0  0  0  0  0
  -27.6350  -16.1227   24.5834 C   0  0  0  0  0  0
  -28.0203  -15.2998   23.4416 C   0  0  0  0  0  0
  -27.1226  -18.2287   23.2896 C   0  0  0  0  0  0
  -27.1464  -17.4246   24.5379 C   0  0  0  0  0  0
  -26.2847  -22.1695   23.5252 C   0  0  0  0  0  0
  -25.0717  -21.6201   23.7970 C   0  0  0  0  0  0
  -26.5941  -23.7167   23.3917 C   0  0  0  0  0  0
  -27.6763  -22.2661   21.8368 C   0  0  0  0  0  0
  -27.1994  -24.0009   21.9046 C   0  0  2  0  0  0
  -26.6492  -18.0170   25.8551 C   0  0  0  0  0  0
  -28.6910  -13.8596   23.6367 C   0  0  0  0  0  0
  -27.1530  -19.7896   23.4718 C   0  0  0  0  0  0
  -29.7732  -13.1803   22.6763 N   0  0  0  0  0  0
  -27.4385  -21.3650   23.0496 N   0  3  2  0  0  0
  -30.8402  -14.7500   19.6598 H   0  0  0  0  0  0
  -30.3751  -13.7800   18.3490 H   0  0  0  0  0  0
  -28.2564  -15.3645   19.2805 H   0  0  0  0  0  0
  -28.8891  -14.8242   20.8714 H   0  0  0  0  0  0
  -27.4972  -12.8264   21.7051 H   0  0  0  0  0  0
  -28.3771  -11.9091   20.9351 H   0  0  0  0  0  0
  -26.9863  -11.2394   19.0150 H   0  0  0  0  0  0
  -28.4005  -13.0596   18.3614 H   0  0  0  0  0  0
  -29.0526  -11.8685   17.8543 H   0  0  0  0  0  0
  -25.4547   -9.3643   21.9253 H   0  0  0  0  0  0
  -24.2278   -7.2898   22.3796 H   0  0  0  0  0  0
  -20.8385   -8.9760   20.2671 H   0  0  0  0  0  0
  -22.0922  -11.0304   19.8629 H   0  0  0  0  0  0
  -21.3006   -7.6257   23.8959 H   0  0  0  0  0  0
  -21.1614   -6.0830   25.8653 H   0  0  0  0  0  0
  -22.0559   -2.7393   23.2994 H   0  0  0  0  0  0
  -22.4023  -11.8919   22.3560 H   0  0  0  0  0  0
  -21.0773  -13.0463   22.6110 H   0  0  0  0  0  0
  -24.3293  -15.6387   20.4778 H   0  0  0  0  0  0
  -25.6754  -15.5552   19.3924 H   0  0  0  0  0  0
  -26.7442  -32.4789   23.1337 H   0  0  0  0  0  0
  -25.0316  -33.9548   25.0410 H   0  0  0  0  0  0
  -22.8396  -31.2414   21.3174 H   0  0  0  0  0  0
  -23.3545  -35.9626   23.3210 H   0  0  0  0  0  0
  -24.3379  -36.9146   22.2109 H   0  0  0  0  0  0
  -23.7081  -37.6426   23.6882 H   0  0  0  0  0  0
  -26.4986  -31.2553   20.8521 H   0  0  0  0  0  0
  -26.8122  -30.4375   22.3351 H   0  0  0  0  0  0
  -27.8679  -28.2736   21.9091 H   0  0  0  0  0  0
  -25.8225  -25.5617   19.2933 H   0  0  0  0  0  0
  -24.1348  -27.2487   18.8695 H   0  0  0  0  0  0
  -24.1109  -30.5205   19.4092 H   0  0  0  0  0  0
  -22.9530  -29.2416   19.7238 H   0  0  0  0  0  0
  -25.1125  -36.1744   25.0755 H   0  0  0  0  0  0
  -20.9813  -28.3474   24.1304 H   0  0  0  0  0  0
  -20.5612  -26.2457   23.3777 H   0  0  0  0  0  0
  -21.6653  -26.7467   22.1372 H   0  0  0  0  0  0
  -19.7032  -25.6119   21.1566 H   0  0  0  0  0  0
  -19.6882  -27.2893   20.6610 H   0  0  0  0  0  0
  -17.4251  -26.6676   21.3824 H   0  0  0  0  0  0
  -18.0212  -26.0155   22.8941 H   0  0  0  0  0  0
  -19.7911  -30.7306   24.2163 H   0  0  0  0  0  0
  -17.5061  -31.6365   24.5162 H   0  0  0  0  0  0
  -15.5382  -30.3107   23.7798 H   0  0  0  0  0  0
  -15.8535  -28.0910   22.7231 H   0  0  0  0  0  0
  -24.5726  -30.7937   25.8581 H   0  0  0  0  0  0
  -24.9100  -32.3775   26.5430 H   0  0  0  0  0  0
  -25.7867  -30.9794   27.1026 H   0  0  0  0  0  0
  -26.3603  -29.5752   24.5490 H   0  0  0  0  0  0
  -27.6121  -29.9439   25.7036 H   0  0  0  0  0  0
  -27.8801  -30.3965   24.0666 H   0  0  0  0  0  0
  -27.2206  -33.4758   26.2060 H   0  0  0  0  0  0
  -28.3801  -32.7750   25.0980 H   0  0  0  0  0  0
  -28.0504  -32.0200   26.6475 H   0  0  0  0  0  0
  -28.2343  -38.0311   24.7406 H   0  0  0  0  0  0
  -28.1030  -36.2782   24.6146 H   0  0  0  0  0  0
  -27.2276  -37.1500   25.8893 H   0  0  0  0  0  0
  -20.9780  -29.9008   21.6934 H   0  0  0  0  0  0
  -25.9809  -38.2733   24.1748 H   0  0  0  0  0  0
  -26.6865  -15.1426   21.7341 H   0  0  0  0  0  0
  -26.0188  -17.4181   21.4888 H   0  0  0  0  0  0
  -27.8973  -15.5768   25.5686 H   0  0  0  0  0  0
  -24.8196  -20.5797   23.6831 H   0  0  0  0  0  0
  -24.2434  -22.1597   24.2244 H   0  0  0  0  0  0
  -27.2713  -23.9131   24.2360 H   0  0  0  0  0  0
  -25.6148  -24.1853   23.5920 H   0  0  0  0  0  0
  -28.5277  -21.9576   21.2033 H   0  0  0  0  0  0
  -26.8559  -21.8143   21.2366 H   0  0  0  0  0  0
  -26.3068  -23.8774   21.2969 H   0  0  0  0  0  0
  -25.6755  -17.6398   25.8106 H   0  0  0  0  0  0
  -26.3690  -18.9808   25.8090 H   0  0  0  0  0  0
  -26.9983  -17.7109   26.8237 H   0  0  0  0  0  0
  -28.0578  -13.0107   23.9934 H   0  0  0  0  0  0
  -29.1110  -13.8446   24.7090 H   0  0  0  0  0  0
  -28.1778  -19.7151   23.0854 H   0  0  0  0  0  0
  -27.4033  -19.9493   24.5055 H   0  0  0  0  0  0
  -29.9807  -12.2930   23.1199 H   0  0  0  0  0  0
  -28.2345  -21.6383   23.6567 H   0  0  0  0  0  0
  1 25  1  0  0  0
  1 30  2  0  0  0
  1 85  1  0  0  0
  2  3  1  0  0  0
  2 25  1  0  0  0
  2 87  1  0  0  0
  2 88  1  0  0  0
  3  4  1  0  0  0
  3 89  1  0  0  0
  3 90  1  0  0  0
  4  5  1  0  0  0
  4 91  1  0  0  0
  4 92  1  0  0  0
  5  6  1  0  0  0
  5 26  1  0  0  0
  5 93  1  0  0  0
  6 25  1  0  0  0
  6 94  1  0  0  0
  6 95  1  0  0  0
  7  8  2  0  0  0
  7 26  1  0  0  0
  7 29  1  0  0  0
  8  9  1  0  0  0
  8 22  1  0  0  0
  9 10  1  0  0  0
  9 27  2  0  0  0
 10 11  2  0  0  0
 10 15  1  0  0  0
 11 12  1  0  0  0
 11 96  1  0  0  0
 12 13  2  0  0  0
 12 97  1  0  0  0
 13 14  1  0  0  0
 13 31  1  0  0  0
 14 15  2  0  0  0
 14 98  1  0  0  0
 15 99  1  0  0  0
 16 17  2  0  0  0
 16 21  1  0  0  0
 16 31  1  0  0  0
 17 18  1  0  0  0
 17100  1  0  0  0
 18 19  2  0  0  0
 18101  1  0  0  0
 19 20  1  0  0  0
 19 24  1  0  0  0
 20 21  2  0  0  0
 20102  1  0  0  0
 21 23  1  0  0  0
 22 28  1  0  0  0
 22 32  2  0  0  0
 26 27  1  0  0  0
 28103  1  0  0  0
 28104  1  0  0  0
 29105  1  0  0  0
 29106  1  0  0  0
 33 34  1  0  0  0
 33 66  1  0  0  0
 33 70  2  0  0  0
 34 36  1  0  0  0
 34 59  1  0  0  0
 34107  1  0  0  0
 35 44  2  0  0  0
 35 45  1  0  0  0
 35 68  1  0  0  0
 36 56  1  0  0  0
 36108  1  0  0  0
 37 39  1  0  0  0
 37 47  1  0  0  0
 37 66  1  0  0  0
 37109  1  0  0  0
 38 43  2  0  0  0
 38 46  1  0  0  0
 38 47  1  0  0  0
 39 64  1  0  0  0
 39 67  2  0  0  0
 40 52  1  0  0  0
 40 53  2  0  0  0
 40 58  1  0  0  0
 41110  1  0  0  0
 41111  1  0  0  0
 41112  1  0  0  0
 41 48  1  0  0  0
 42 43  1  0  0  0
 42 66  1  0  0  0
 42113  1  0  0  0
 42114  1  0  0  0
 43 44  1  0  0  0
 44115  1  0  0  0
 45 46  2  0  0  0
 45116  1  0  0  0
 46117  1  0  0  0
 47118  1  0  0  0
 47119  1  0  0  0
 48 56  1  0  0  0
 48 65  1  0  0  0
 48120  1  0  0  0
 49 50  1  0  0  0
 49 53  1  0  0  0
 49 64  1  0  0  0
 49121  1  0  0  0
 50 51  1  0  0  0
 50122  1  0  0  0
 50123  1  0  0  0
 51 52  1  0  0  0
 51124  1  0  0  0
 51125  1  0  0  0
 52126  1  0  0  0
 52127  1  0  0  0
 53 54  1  0  0  0
 54 55  2  0  0  0
 54128  1  0  0  0
 55 57  1  0  0  0
 55129  1  0  0  0
 56 69  2  0  0  0
 57 58  2  0  0  0
 57130  1  0  0  0
 58131  1  0  0  0
 59 60  1  0  0  0
 59 61  1  0  0  0
 59 62  1  0  0  0
 60132  1  0  0  0
 60133  1  0  0  0
 60134  1  0  0  0
 61135  1  0  0  0
 61136  1  0  0  0
 61137  1  0  0  0
 62138  1  0  0  0
 62139  1  0  0  0
 62140  1  0  0  0
 63 65  1  0  0  0
 63141  1  0  0  0
 63142  1  0  0  0
 63143  1  0  0  0
 64144  1  0  0  0
 65145  1  0  0  0
 68 81  1  0  0  0
 71 72  2  0  0  0
 71 74  1  0  0  0
 71146  1  0  0  0
 72 75  1  0  0  0
 72147  1  0  0  0
 73 74  2  0  0  0
 73 76  1  0  0  0
 73148  1  0  0  0
 74 83  1  0  0  0
 75 76  2  0  0  0
 75 84  1  0  0  0
 76 82  1  0  0  0
 77 78  2  0  0  0
 77 79  1  0  0  0
 77 86  1  0  0  0
 78149  1  0  0  0
 78150  1  0  0  0
 79 81  1  0  0  0
 79151  1  0  0  0
 79152  1  0  0  0
 80 81  1  0  0  0
 80 86  1  0  0  0
 80153  1  0  0  0
 80154  1  0  0  0
 81155  1  0  0  0
 82156  1  0  0  0
 82157  1  0  0  0
 82158  1  0  0  0
 83 85  1  0  0  0
 83159  1  0  0  0
 83160  1  0  0  0
 84161  1  0  0  0
 84162  1  0  0  0
 84 86  1  0  0  0
 85163  1  0  0  0
 86164  1  0  0  0
M  CHG  1  86   1
M  ISO  4   1 100  68 101  81 101  85 100
M  END
> <chiral flag>
0

> <version>
0

> <s_m_source_file>
/data/baiqing/PycharmProjects/Reinvent-master-3.2/result/LINK_invent/BTK/process_docking_weight1_custom_product_contain_oxygen_bond_distance_aromatic_linkinvent_7_9_3/rearranged_h_0033.sdf

> <i_m_source_file_index>
60

> <r_mmod_Potential_Energy-OPLS-2005>
6699.33740234375

> <r_mmod_Stretch_Energy-OPLS-2005>
936.267456054688

> <r_mmod_Bend_Energy-OPLS-2005>
2037.47412109375

> <r_mmod_Torsional_Energy-OPLS-2005>
558.5595703125

> <r_mmod_Improper_Torsional_Energy-OPLS-2005>
27.9843692779541

> <r_mmod_Van_der_Waal_Energy-OPLS-2005>
642.295959472656

> <r_mmod_Electrostatic_Energy-OPLS-2005>
-297.572784423828

> <r_mmod_Solvation_Energy-OPLS-2005>
-450.867950439453

> <b_mmod_Minimization_Converged-OPLS-2005>
0

> <r_mmod_RMS_Derivative-OPLS-2005>
99.9990005493164

$$$$
60
                    3D
 Structure written by MMmdl.
154162  0  0  1  0            999 V2000
  -31.6560  -14.7860   20.2672 C   0  0  0  0  0  0
  -30.6826  -12.5540   19.6258 C   0  0  0  0  0  0
  -29.3205  -12.1395   18.4743 C   0  0  0  0  0  0
  -27.6207  -12.7825   18.3846 C   0  0  0  0  0  0
  -26.9563  -14.1771   19.5162 C   0  0  2  0  0  0
  -29.6020  -14.8496   21.3668 C   0  0  0  0  0  0
  -24.7891  -14.0169   20.5221 C   0  0  0  0  0  0
  -23.9243  -13.0883   20.9501 C   0  0  0  0  0  0
  -24.5263  -11.7980   20.8273 C   0  0  0  0  0  0
  -23.9034  -10.4661   21.0060 C   0  0  0  0  0  0
  -24.3767   -9.4664   21.8910 C   0  0  0  0  0  0
  -23.6540   -8.2584   22.0651 C   0  0  0  0  0  0
  -22.4481   -8.0388   21.3539 C   0  0  0  0  0  0
  -22.0011   -9.0212   20.4559 C   0  0  0  0  0  0
  -22.7214  -10.2132   20.2815 C   0  0  0  0  0  0
  -21.7010   -6.0790   22.5302 C   0  0  0  0  0  0
  -21.4124   -6.5680   23.8226 C   0  0  0  0  0  0
  -21.3697   -5.6821   24.9177 C   0  0  0  0  0  0
  -21.6039   -4.3076   24.7225 C   0  0  0  0  0  0
  -21.8808   -3.8166   23.4345 C   0  0  0  0  0  0
  -21.9239   -4.6995   22.3411 C   0  0  0  0  0  0
  -22.5389  -13.4620   21.2713 C   0  0  0  0  0  0
  -22.1676   -4.2170   21.0986 F   0  0  0  0  0  0
  -21.5603   -3.4556   25.7737 F   0  0  0  0  0  0
  -30.8115  -13.8582   20.7420 N   0  0  0  0  0  0
  -25.8199  -13.3451   20.0445 N   0  0  0  0  0  0
  -25.7509  -11.9744   20.3359 N   0  0  0  0  0  0
  -21.8989  -12.7217   22.1548 N   0  0  0  0  0  0
  -24.7764  -15.4009   20.4308 N   0  0  0  0  0  0
  -32.7980  -14.4831   20.1273 O   0  0  0  0  0  0
  -21.6884   -6.8944   21.4273 O   0  0  0  0  0  0
  -22.0490  -14.4727   20.7684 O   0  0  0  0  0  0
  -24.6882  -31.7962   23.1519 C   0  0  0  0  0  0
  -25.9458  -32.4441   23.8061 C   0  0  1  0  0  0
  -27.0588  -26.5991   20.2339 C   0  0  0  0  0  0
  -25.6024  -33.8277   24.1938 N   0  0  0  0  0  0
  -23.5077  -30.4107   21.5068 C   0  0  2  0  0  0
  -24.9356  -28.7512   20.0992 C   0  0  0  0  0  0
  -22.7760  -29.4315   22.4651 C   0  0  0  0  0  0
  -18.0329  -28.1425   22.8443 C   0  0  0  0  0  0
  -24.1487  -36.7143   23.2654 C   0  0  0  0  0  0
  -26.0910  -30.4909   21.4325 C   0  0  0  0  0  0
  -26.1223  -29.0534   20.7753 C   0  0  0  0  0  0
  -27.1806  -27.9988   20.8154 C   0  0  0  0  0  0
  -25.8844  -26.5441   19.4583 C   0  0  0  0  0  0
  -24.8638  -27.5322   19.4098 C   0  0  0  0  0  0
  -23.7559  -29.7307   20.1313 C   0  0  0  0  0  0
  -25.4143  -36.2892   24.0281 C   0  0  1  0  0  0
  -20.5968  -28.3786   23.1118 C   0  0  2  0  0  0
  -20.6793  -26.9439   22.5394 C   0  0  0  0  0  0
  -19.5775  -26.6363   21.5206 C   0  0  0  0  0  0
  -18.1956  -26.7947   22.1606 C   0  0  0  0  0  0
  -19.1600  -28.8927   23.2764 C   0  0  0  0  0  0
  -18.9508  -30.1505   23.8821 C   0  0  0  0  0  0
  -17.6500  -30.6606   24.0552 C   0  0  0  0  0  0
  -25.9133  -34.9278   23.4949 C   0  0  0  0  0  0
  -16.5386  -29.9093   23.6353 C   0  0  0  0  0  0
  -16.7307  -28.6517   23.0366 C   0  0  0  0  0  0
  -26.4606  -31.6516   25.0723 C   0  0  0  0  0  0
  -25.3646  -31.3873   26.1325 C   0  0  0  0  0  0
  -27.0565  -30.2845   24.6718 C   0  0  0  0  0  0
  -27.6040  -32.4400   25.7542 C   0  0  0  0  0  0
  -27.5561  -37.1737   24.8466 C   0  0  0  0  0  0
  -21.4402  -29.3039   22.3426 N   0  0  0  0  0  0
  -26.4266  -37.3662   23.9408 N   0  0  0  0  0  0
  -24.7881  -30.9358   22.0810 N   0  0  0  0  0  0
  -23.4206  -28.7884   23.2973 O   0  0  0  0  0  0
  -27.8484  -25.2660   20.3745 O   0  0  0  0  0  0
  -26.5772  -34.8862   22.4567 O   0  0  0  0  0  0
  -23.5897  -32.1085   23.6439 O   0  0  0  0  0  0
  -27.3081  -15.7149   21.5635 C   0  0  0  0  0  0
  -27.4804  -14.0828   21.8214 C   0  0  0  0  0  0
  -29.0907  -14.4842   19.2458 C   0  0  0  0  0  0
  -27.9069  -16.7862   20.5014 C   0  0  0  0  0  0
  -28.7835  -16.0420   19.4174 C   0  0  0  0  0  0
  -28.4205  -13.1370   20.7426 C   0  0  0  0  0  0
  -27.8989  -21.8442   20.6461 C   0  0  0  0  0  0
  -27.9214  -18.6589   20.8518 C   0  0  0  0  0  0
  -30.1220  -16.6831   19.0780 C   0  0  0  0  0  0
  -27.4363  -23.5661   20.0121 C   0  0  0  0  0  0
  -27.6975  -20.3370   20.2326 N   0  0  0  0  0  0
  -31.3145  -16.0220   19.7384 N   0  0  0  0  0  0
  -28.5102  -21.9331   21.7130 O   0  0  0  0  0  0
  -28.5844  -11.4354   21.1824 Cl  0  0  0  0  0  0
  -31.5495  -12.6187   18.9661 H   0  0  0  0  0  0
  -30.9449  -11.6604   20.1912 H   0  0  0  0  0  0
  -29.2213  -11.0538   18.5105 H   0  0  0  0  0  0
  -29.7314  -12.2811   17.4726 H   0  0  0  0  0  0
  -26.9430  -11.9395   18.2595 H   0  0  0  0  0  0
  -27.5516  -13.2156   17.3858 H   0  0  0  0  0  0
  -26.5874  -14.9676   18.8537 H   0  0  0  0  0  0
  -29.6508  -14.4981   22.4098 H   0  0  0  0  0  0
  -29.8711  -15.8821   21.6201 H   0  0  0  0  0  0
  -25.2861   -9.6359   22.4501 H   0  0  0  0  0  0
  -24.0331   -7.5094   22.7450 H   0  0  0  0  0  0
  -21.0929   -8.8595   19.8928 H   0  0  0  0  0  0
  -22.3453  -10.9562   19.5925 H   0  0  0  0  0  0
  -21.2160   -7.6191   23.9739 H   0  0  0  0  0  0
  -21.1514   -6.0546   25.9080 H   0  0  0  0  0  0
  -22.0535   -2.7622   23.2839 H   0  0  0  0  0  0
  -22.3367  -11.9132   22.5710 H   0  0  0  0  0  0
  -20.9540  -12.9616   22.4191 H   0  0  0  0  0  0
  -23.9838  -15.9607   20.7239 H   0  0  0  0  0  0
  -25.5884  -15.9459   20.1668 H   0  0  0  0  0  0
  -26.7539  -32.4859   23.0756 H   0  0  0  0  0  0
  -25.0081  -33.9321   25.0032 H   0  0  0  0  0  0
  -22.8352  -31.2528   21.3308 H   0  0  0  0  0  0
  -23.3779  -35.9441   23.3265 H   0  0  0  0  0  0
  -24.3544  -36.8859   22.2077 H   0  0  0  0  0  0
  -23.7206  -37.6293   23.6763 H   0  0  0  0  0  0
  -26.3176  -31.2101   20.6447 H   0  0  0  0  0  0
  -26.9371  -30.5411   22.1058 H   0  0  0  0  0  0
  -28.0635  -28.2120   21.4011 H   0  0  0  0  0  0
  -25.6804  -25.6238   18.9295 H   0  0  0  0  0  0
  -23.9720  -27.3083   18.8414 H   0  0  0  0  0  0
  -23.9552  -30.5008   19.3857 H   0  0  0  0  0  0
  -22.8502  -29.2246   19.7935 H   0  0  0  0  0  0
  -25.1347  -36.1657   25.0770 H   0  0  0  0  0  0
  -21.0054  -28.3421   24.1243 H   0  0  0  0  0  0
  -20.5650  -26.2410   23.3663 H   0  0  0  0  0  0
  -21.6652  -26.7372   22.1218 H   0  0  0  0  0  0
  -19.6933  -25.6252   21.1293 H   0  0  0  0  0  0
  -19.6727  -27.3120   20.6699 H   0  0  0  0  0  0
  -17.4221  -26.6673   21.4016 H   0  0  0  0  0  0
  -18.0354  -26.0118   22.9035 H   0  0  0  0  0  0
  -19.7986  -30.7334   24.2162 H   0  0  0  0  0  0
  -17.5057  -31.6281   24.5163 H   0  0  0  0  0  0
  -15.5386  -30.2978   23.7725 H   0  0  0  0  0  0
  -15.8703  -28.0818   22.7128 H   0  0  0  0  0  0
  -24.5843  -30.7211   25.7632 H   0  0  0  0  0  0
  -24.8821  -32.3111   26.4531 H   0  0  0  0  0  0
  -25.7793  -30.9179   27.0254 H   0  0  0  0  0  0
  -26.3301  -29.6400   24.1764 H   0  0  0  0  0  0
  -27.3997  -29.7377   25.5513 H   0  0  0  0  0  0
  -27.9280  -30.3954   24.0263 H   0  0  0  0  0  0
  -27.2572  -33.3777   26.1899 H   0  0  0  0  0  0
  -28.3962  -32.6845   25.0455 H   0  0  0  0  0  0
  -28.0590  -31.8687   26.5644 H   0  0  0  0  0  0
  -28.2547  -38.0064   24.7526 H   0  0  0  0  0  0
  -28.1091  -36.2589   24.6277 H   0  0  0  0  0  0
  -27.2281  -37.1348   25.8870 H   0  0  0  0  0  0
  -20.9690  -29.8747   21.6554 H   0  0  0  0  0  0
  -26.0093  -38.2712   24.1422 H   0  0  0  0  0  0
  -26.7401  -16.1871   22.3530 H   0  0  0  0  0  0
  -27.0150  -13.6159   22.6770 H   0  0  0  0  0  0
  -29.7487  -14.3405   18.3962 H   0  0  0  0  0  0
  -28.8994  -18.7564   21.3233 H   0  0  0  0  0  0
  -27.2383  -18.6862   21.7013 H   0  0  0  0  0  0
  -30.2595  -16.6645   17.9965 H   0  0  0  0  0  0
  -30.1124  -17.7344   19.3651 H   0  0  0  0  0  0
  -26.3480  -23.5545   20.0644 H   0  0  0  0  0  0
  -27.6429  -23.4905   18.9440 H   0  0  0  0  0  0
  -27.2146  -20.3077   19.3433 H   0  0  0  0  0  0
  -32.1585  -16.5393   19.5391 H   0  0  0  0  0  0
  1 25  1  0  0  0
  1 30  2  0  0  0
  1 82  1  0  0  0
  2  3  1  0  0  0
  2 25  1  0  0  0
  2 85  1  0  0  0
  2 86  1  0  0  0
  3  4  1  0  0  0
  3 87  1  0  0  0
  3 88  1  0  0  0
  4  5  1  0  0  0
  4 89  1  0  0  0
  4 90  1  0  0  0
  5  6  1  0  0  0
  5 26  1  0  0  0
  5 91  1  0  0  0
  6 25  1  0  0  0
  6 92  1  0  0  0
  6 93  1  0  0  0
  7  8  2  0  0  0
  7 26  1  0  0  0
  7 29  1  0  0  0
  8  9  1  0  0  0
  8 22  1  0  0  0
  9 10  1  0  0  0
  9 27  2  0  0  0
 10 11  2  0  0  0
 10 15  1  0  0  0
 11 12  1  0  0  0
 11 94  1  0  0  0
 12 13  2  0  0  0
 12 95  1  0  0  0
 13 14  1  0  0  0
 13 31  1  0  0  0
 14 15  2  0  0  0
 14 96  1  0  0  0
 15 97  1  0  0  0
 16 17  2  0  0  0
 16 21  1  0  0  0
 16 31  1  0  0  0
 17 18  1  0  0  0
 17 98  1  0  0  0
 18 19  2  0  0  0
 18 99  1  0  0  0
 19 20  1  0  0  0
 19 24  1  0  0  0
 20 21  2  0  0  0
 20100  1  0  0  0
 21 23  1  0  0  0
 22 28  1  0  0  0
 22 32  2  0  0  0
 26 27  1  0  0  0
 28101  1  0  0  0
 28102  1  0  0  0
 29103  1  0  0  0
 29104  1  0  0  0
 33 34  1  0  0  0
 33 66  1  0  0  0
 33 70  2  0  0  0
 34 36  1  0  0  0
 34 59  1  0  0  0
 34105  1  0  0  0
 35 44  2  0  0  0
 35 45  1  0  0  0
 35 68  1  0  0  0
 36 56  1  0  0  0
 36106  1  0  0  0
 37 39  1  0  0  0
 37 47  1  0  0  0
 37 66  1  0  0  0
 37107  1  0  0  0
 38 43  2  0  0  0
 38 46  1  0  0  0
 38 47  1  0  0  0
 39 64  1  0  0  0
 39 67  2  0  0  0
 40 52  1  0  0  0
 40 53  2  0  0  0
 40 58  1  0  0  0
 41108  1  0  0  0
 41109  1  0  0  0
 41110  1  0  0  0
 41 48  1  0  0  0
 42 43  1  0  0  0
 42 66  1  0  0  0
 42111  1  0  0  0
 42112  1  0  0  0
 43 44  1  0  0  0
 44113  1  0  0  0
 45 46  2  0  0  0
 45114  1  0  0  0
 46115  1  0  0  0
 47116  1  0  0  0
 47117  1  0  0  0
 48 56  1  0  0  0
 48 65  1  0  0  0
 48118  1  0  0  0
 49 50  1  0  0  0
 49 53  1  0  0  0
 49 64  1  0  0  0
 49119  1  0  0  0
 50 51  1  0  0  0
 50120  1  0  0  0
 50121  1  0  0  0
 51 52  1  0  0  0
 51122  1  0  0  0
 51123  1  0  0  0
 52124  1  0  0  0
 52125  1  0  0  0
 53 54  1  0  0  0
 54 55  2  0  0  0
 54126  1  0  0  0
 55 57  1  0  0  0
 55127  1  0  0  0
 56 69  2  0  0  0
 57 58  2  0  0  0
 57128  1  0  0  0
 58129  1  0  0  0
 59 60  1  0  0  0
 59 61  1  0  0  0
 59 62  1  0  0  0
 60130  1  0  0  0
 60131  1  0  0  0
 60132  1  0  0  0
 61133  1  0  0  0
 61134  1  0  0  0
 61135  1  0  0  0
 62136  1  0  0  0
 62137  1  0  0  0
 62138  1  0  0  0
 63 65  1  0  0  0
 63139  1  0  0  0
 63140  1  0  0  0
 63141  1  0  0  0
 64142  1  0  0  0
 65143  1  0  0  0
 68 80  1  0  0  0
 71 72  2  0  0  0
 71 74  1  0  0  0
 71144  1  0  0  0
 72 76  1  0  0  0
 72145  1  0  0  0
 73 75  1  0  0  0
 73 76  2  0  0  0
 73146  1  0  0  0
 74 75  2  0  0  0
 74 78  1  0  0  0
 75 79  1  0  0  0
 76 84  1  0  0  0
 77 80  1  0  0  0
 77 81  1  0  0  0
 77 83  2  0  0  0
 78 81  1  0  0  0
 78147  1  0  0  0
 78148  1  0  0  0
 79 82  1  0  0  0
 79149  1  0  0  0
 79150  1  0  0  0
 80151  1  0  0  0
 80152  1  0  0  0
 81153  1  0  0  0
 82154  1  0  0  0
M  ISO  4   1 100  68 101  80 101  82 100
M  END
> <chiral flag>
0

> <version>
0

> <s_m_source_file>
/data/baiqing/PycharmProjects/Reinvent-master-3.2/result/LINK_invent/BTK/process_docking_weight1_custom_product_contain_oxygen_bond_distance_aromatic_linkinvent_7_9_3/rearranged_h_0033.sdf

> <i_m_source_file_index>
61

> <r_mmod_Potential_Energy-OPLS-2005>
11921.837890625

> <r_mmod_Stretch_Energy-OPLS-2005>
6716.16845703125

> <r_mmod_Bend_Energy-OPLS-2005>
969.716430664062

> <r_mmod_Torsional_Energy-OPLS-2005>
396.706909179688

> <r_mmod_Improper_Torsional_Energy-OPLS-2005>
25.4566974639893

> <r_mmod_Van_der_Waal_Energy-OPLS-2005>
2824.86157226562

> <r_mmod_Electrostatic_Energy-OPLS-2005>
-445.973602294922

> <r_mmod_Solvation_Energy-OPLS-2005>
-264.423248291016

> <b_mmod_Minimization_Converged-OPLS-2005>
0

> <r_mmod_RMS_Derivative-OPLS-2005>
3.31154441833496

$$$$
61
                    3D
 Structure written by MMmdl.
166175  0  0  1  0            999 V2000
  -30.7061  -14.4527   20.6311 C   0  0  0  0  0  0
  -30.4255  -12.3175   19.4144 C   0  0  0  0  0  0
  -29.4942  -12.5234   18.2030 C   0  0  0  0  0  0
  -28.0147  -12.3770   18.6132 C   0  0  0  0  0  0
  -27.6617  -13.2053   19.8776 C   0  0  2  0  0  0
  -28.6999  -12.9660   20.9948 C   0  0  0  0  0  0
  -25.2583  -13.8158   20.5671 C   0  0  0  0  0  0
  -24.1833  -13.0437   20.9165 C   0  0  0  0  0  0
  -24.6383  -11.6902   20.8721 C   0  0  0  0  0  0
  -23.9050  -10.4289   21.0394 C   0  0  0  0  0  0
  -24.3604   -9.4210   21.9174 C   0  0  0  0  0  0
  -23.6284   -8.2244   22.0750 C   0  0  0  0  0  0
  -22.4270   -8.0275   21.3541 C   0  0  0  0  0  0
  -21.9898   -9.0244   20.4641 C   0  0  0  0  0  0
  -22.7221  -10.2123   20.3044 C   0  0  0  0  0  0
  -21.6852   -6.0731   22.5280 C   0  0  0  0  0  0
  -21.4014   -6.5634   23.8212 C   0  0  0  0  0  0
  -21.3660   -5.6789   24.9176 C   0  0  0  0  0  0
  -21.6045   -4.3053   24.7228 C   0  0  0  0  0  0
  -21.8820   -3.8140   23.4349 C   0  0  0  0  0  0
  -21.9192   -4.6957   22.3406 C   0  0  0  0  0  0
  -22.7857  -13.5235   21.1842 C   0  0  0  0  0  0
  -22.1661   -4.2143   21.0985 F   0  0  0  0  0  0
  -21.5628   -3.4538   25.7739 F   0  0  0  0  0  0
  -30.0307  -13.2853   20.4499 N   0  0  0  0  0  0
  -26.3016  -12.9323   20.3361 N   0  0  0  0  0  0
  -25.9306  -11.6481   20.5749 N   0  0  0  0  0  0
  -22.0499  -12.8220   22.0399 N   0  0  0  0  0  0
  -25.4312  -15.1877   20.4083 N   0  0  0  0  0  0
  -31.8034  -14.6768   20.1101 O   0  0  0  0  0  0
  -21.6638   -6.8870   21.4241 O   0  0  0  0  0  0
  -22.3534  -14.5546   20.6707 O   0  0  0  0  0  0
  -24.6136  -31.8683   23.2067 C   0  0  0  0  0  0
  -25.9028  -32.4826   23.8380 C   0  0  1  0  0  0
  -27.2294  -27.4253   20.1090 C   0  0  0  0  0  0
  -25.5879  -33.8620   24.2314 N   0  0  0  0  0  0
  -23.4028  -30.4903   21.5476 C   0  0  2  0  0  0
  -24.8507  -28.9501   20.1192 C   0  0  0  0  0  0
  -22.7405  -29.4668   22.4977 C   0  0  0  0  0  0
  -18.0279  -28.1401   22.8502 C   0  0  0  0  0  0
  -24.1492  -36.7304   23.2640 C   0  0  0  0  0  0
  -25.9313  -30.8327   21.3586 C   0  0  0  0  0  0
  -26.0099  -29.4632   20.7128 C   0  0  0  0  0  0
  -27.2068  -28.7097   20.7008 C   0  0  0  0  0  0
  -26.0546  -26.9226   19.5135 C   0  0  0  0  0  0
  -24.8670  -27.6798   19.5161 C   0  0  0  0  0  0
  -23.6129  -29.8179   20.1641 C   0  0  0  0  0  0
  -25.4108  -36.3105   24.0347 C   0  0  1  0  0  0
  -20.5869  -28.3672   23.1333 C   0  0  2  0  0  0
  -20.6775  -26.9418   22.5417 C   0  0  0  0  0  0
  -19.5750  -26.6400   21.5232 C   0  0  0  0  0  0
  -18.1930  -26.7955   22.1627 C   0  0  0  0  0  0
  -19.1533  -28.8849   23.2919 C   0  0  0  0  0  0
  -18.9456  -30.1459   23.8920 C   0  0  0  0  0  0
  -17.6462  -30.6604   24.0575 C   0  0  0  0  0  0
  -25.9030  -34.9478   23.5124 C   0  0  0  0  0  0
  -16.5351  -29.9111   23.6333 C   0  0  0  0  0  0
  -16.7270  -28.6530   23.0350 C   0  0  0  0  0  0
  -26.4453  -31.6592   25.0694 C   0  0  0  0  0  0
  -25.3712  -31.3707   26.1432 C   0  0  0  0  0  0
  -27.0271  -30.3041   24.6036 C   0  0  0  0  0  0
  -27.6028  -32.4298   25.7468 C   0  0  0  0  0  0
  -27.5588  -37.1799   24.8467 C   0  0  0  0  0  0
  -21.4127  -29.3038   22.3721 N   0  0  0  0  0  0
  -26.4292  -37.3788   23.9418 N   0  0  0  0  0  0
  -24.6684  -31.0783   22.0968 N   0  0  0  0  0  0
  -23.4182  -28.8205   23.3012 O   0  0  0  0  0  0
  -28.3909  -26.6874   20.0628 O   0  0  0  0  0  0
  -26.5599  -34.8922   22.4696 O   0  0  0  0  0  0
  -23.5328  -32.1436   23.7451 O   0  0  0  0  0  0
  -29.8669  -18.3773   20.1550 C   0  0  0  0  0  0
  -28.6469  -19.9637   22.1102 C   0  0  0  0  0  0
  -29.3018  -19.6267   19.7956 C   0  0  0  0  0  0
  -29.8656  -17.9239   21.4917 C   0  0  0  0  0  0
  -28.7078  -20.4550   20.7859 C   0  0  0  0  0  0
  -29.2212  -18.7242   22.4694 C   0  0  0  0  0  0
  -30.2834  -24.4538   22.2774 C   0  0  0  0  0  0
  -29.4233  -25.6875   21.9610 C   0  0  0  0  0  0
  -29.4991  -23.1526   22.0726 C   0  0  0  0  0  0
  -28.7775  -24.2429   19.9172 C   0  0  0  0  0  0
  -28.4094  -25.4602   20.8180 C   0  0  2  0  0  0
  -29.3462  -20.0463   18.3361 C   0  0  0  0  0  0
  -30.6416  -16.6475   21.8582 C   0  0  0  0  0  0
  -28.1194  -21.8473   20.4656 C   0  0  0  0  0  0
  -30.0761  -15.3783   21.3781 N   0  0  0  0  0  0
  -29.0956  -22.9646   20.6522 N   0  3  2  0  0  0
  -29.1338  -18.2373   24.1254 Cl  0  0  0  0  0  0
  -31.4686  -12.4312   19.1139 H   0  0  0  0  0  0
  -30.3365  -11.3010   19.8008 H   0  0  0  0  0  0
  -29.7381  -11.8104   17.4145 H   0  0  0  0  0  0
  -29.6585  -13.5159   17.7800 H   0  0  0  0  0  0
  -27.8234  -11.3195   18.7978 H   0  0  0  0  0  0
  -27.3657  -12.6626   17.7845 H   0  0  0  0  0  0
  -27.7123  -14.2576   19.5960 H   0  0  0  0  0  0
  -28.6792  -11.9216   21.3088 H   0  0  0  0  0  0
  -28.4499  -13.5362   21.8895 H   0  0  0  0  0  0
  -25.2749   -9.5691   22.4745 H   0  0  0  0  0  0
  -24.0001   -7.4634   22.7465 H   0  0  0  0  0  0
  -21.0832   -8.8753   19.8943 H   0  0  0  0  0  0
  -22.3678  -10.9655   19.6150 H   0  0  0  0  0  0
  -21.2006   -7.6144   23.9717 H   0  0  0  0  0  0
  -21.1480   -6.0519   25.9078 H   0  0  0  0  0  0
  -22.0599   -2.7606   23.2853 H   0  0  0  0  0  0
  -22.4105  -11.9870   22.4773 H   0  0  0  0  0  0
  -21.1115  -13.1237   22.2609 H   0  0  0  0  0  0
  -24.6677  -15.8466   20.5165 H   0  0  0  0  0  0
  -26.2910  -15.6253   20.0997 H   0  0  0  0  0  0
  -26.7089  -32.5537   23.1135 H   0  0  0  0  0  0
  -25.0053  -33.9794   25.0474 H   0  0  0  0  0  0
  -22.6916  -31.3057   21.4027 H   0  0  0  0  0  0
  -23.3761  -35.9629   23.3306 H   0  0  0  0  0  0
  -24.3596  -36.8910   22.2053 H   0  0  0  0  0  0
  -23.7248  -37.6514   23.6642 H   0  0  0  0  0  0
  -26.0407  -31.5936   20.5854 H   0  0  0  0  0  0
  -26.8213  -30.8933   21.9730 H   0  0  0  0  0  0
  -28.1074  -29.1078   21.1464 H   0  0  0  0  0  0
  -26.0603  -25.9510   19.0398 H   0  0  0  0  0  0
  -23.9733  -27.2813   19.0565 H   0  0  0  0  0  0
  -23.7200  -30.5882   19.3995 H   0  0  0  0  0  0
  -22.7369  -29.2353   19.8728 H   0  0  0  0  0  0
  -25.1290  -36.1958   25.0843 H   0  0  0  0  0  0
  -20.9963  -28.3222   24.1452 H   0  0  0  0  0  0
  -20.5728  -26.2267   23.3590 H   0  0  0  0  0  0
  -21.6639  -26.7490   22.1183 H   0  0  0  0  0  0
  -19.6916  -25.6324   21.1242 H   0  0  0  0  0  0
  -19.6701  -27.3213   20.6779 H   0  0  0  0  0  0
  -17.4208  -26.6720   21.4017 H   0  0  0  0  0  0
  -18.0307  -26.0104   22.9019 H   0  0  0  0  0  0
  -19.7937  -30.7279   24.2282 H   0  0  0  0  0  0
  -17.5025  -31.6290   24.5165 H   0  0  0  0  0  0
  -15.5357  -30.3024   23.7661 H   0  0  0  0  0  0
  -15.8667  -28.0864   22.7049 H   0  0  0  0  0  0
  -24.5884  -30.7056   25.7766 H   0  0  0  0  0  0
  -24.8903  -32.2870   26.4858 H   0  0  0  0  0  0
  -25.8048  -30.8885   27.0202 H   0  0  0  0  0  0
  -26.2805  -29.6819   24.1082 H   0  0  0  0  0  0
  -27.4076  -29.7240   25.4457 H   0  0  0  0  0  0
  -27.8618  -30.4396   23.9155 H   0  0  0  0  0  0
  -27.2652  -33.3589   26.2070 H   0  0  0  0  0  0
  -28.3827  -32.6869   25.0289 H   0  0  0  0  0  0
  -28.0700  -31.8404   26.5367 H   0  0  0  0  0  0
  -28.2580  -38.0118   24.7531 H   0  0  0  0  0  0
  -28.1110  -36.2648   24.6265 H   0  0  0  0  0  0
  -27.2310  -37.1414   25.8870 H   0  0  0  0  0  0
  -20.9266  -29.8742   21.6942 H   0  0  0  0  0  0
  -26.0182  -38.2864   24.1427 H   0  0  0  0  0  0
  -30.3426  -17.7644   19.4011 H   0  0  0  0  0  0
  -28.1730  -20.5540   22.8818 H   0  0  0  0  0  0
  -30.6521  -24.5120   23.3024 H   0  0  0  0  0  0
  -31.1692  -24.4469   21.6410 H   0  0  0  0  0  0
  -30.0903  -26.5156   21.7199 H   0  0  0  0  0  0
  -28.8808  -25.9987   22.8547 H   0  0  0  0  0  0
  -28.6177  -23.1521   22.7177 H   0  0  0  0  0  0
  -30.1135  -22.3079   22.3864 H   0  0  0  0  0  0
  -29.6715  -24.5047   19.3501 H   0  0  0  0  0  0
  -27.9972  -24.0865   19.1711 H   0  0  0  0  0  0
  -27.4337  -25.2522   21.2626 H   0  0  0  0  0  0
  -29.9532  -19.3615   17.7433 H   0  0  0  0  0  0
  -29.7682  -21.0443   18.2175 H   0  0  0  0  0  0
  -28.3421  -20.0416   17.9107 H   0  0  0  0  0  0
  -30.7642  -16.5624   22.9371 H   0  0  0  0  0  0
  -31.6577  -16.7796   21.4837 H   0  0  0  0  0  0
  -27.2389  -22.0268   21.0859 H   0  0  0  0  0  0
  -27.7491  -21.8459   19.4412 H   0  0  0  0  0  0
  -29.1693  -15.1203   21.7377 H   0  0  0  0  0  0
  -29.9254  -22.6256   20.1896 H   0  0  0  0  0  0
  1 25  1  0  0  0
  1 30  2  0  0  0
  1 85  1  0  0  0
  2  3  1  0  0  0
  2 25  1  0  0  0
  2 88  1  0  0  0
  2 89  1  0  0  0
  3  4  1  0  0  0
  3 90  1  0  0  0
  3 91  1  0  0  0
  4  5  1  0  0  0
  4 92  1  0  0  0
  4 93  1  0  0  0
  5  6  1  0  0  0
  5 26  1  0  0  0
  5 94  1  0  0  0
  6 25  1  0  0  0
  6 95  1  0  0  0
  6 96  1  0  0  0
  7  8  2  0  0  0
  7 26  1  0  0  0
  7 29  1  0  0  0
  8  9  1  0  0  0
  8 22  1  0  0  0
  9 10  1  0  0  0
  9 27  2  0  0  0
 10 11  2  0  0  0
 10 15  1  0  0  0
 11 12  1  0  0  0
 11 97  1  0  0  0
 12 13  2  0  0  0
 12 98  1  0  0  0
 13 14  1  0  0  0
 13 31  1  0  0  0
 14 15  2  0  0  0
 14 99  1  0  0  0
 15100  1  0  0  0
 16 17  2  0  0  0
 16 21  1  0  0  0
 16 31  1  0  0  0
 17 18  1  0  0  0
 17101  1  0  0  0
 18 19  2  0  0  0
 18102  1  0  0  0
 19 20  1  0  0  0
 19 24  1  0  0  0
 20 21  2  0  0  0
 20103  1  0  0  0
 21 23  1  0  0  0
 22 28  1  0  0  0
 22 32  2  0  0  0
 26 27  1  0  0  0
 28104  1  0  0  0
 28105  1  0  0  0
 29106  1  0  0  0
 29107  1  0  0  0
 33 34  1  0  0  0
 33 66  1  0  0  0
 33 70  2  0  0  0
 34 36  1  0  0  0
 34 59  1  0  0  0
 34108  1  0  0  0
 35 44  2  0  0  0
 35 45  1  0  0  0
 35 68  1  0  0  0
 36 56  1  0  0  0
 36109  1  0  0  0
 37 39  1  0  0  0
 37 47  1  0  0  0
 37 66  1  0  0  0
 37110  1  0  0  0
 38 43  2  0  0  0
 38 46  1  0  0  0
 38 47  1  0  0  0
 39 64  1  0  0  0
 39 67  2  0  0  0
 40 52  1  0  0  0
 40 53  2  0  0  0
 40 58  1  0  0  0
 41111  1  0  0  0
 41112  1  0  0  0
 41113  1  0  0  0
 41 48  1  0  0  0
 42 43  1  0  0  0
 42 66  1  0  0  0
 42114  1  0  0  0
 42115  1  0  0  0
 43 44  1  0  0  0
 44116  1  0  0  0
 45 46  2  0  0  0
 45117  1  0  0  0
 46118  1  0  0  0
 47119  1  0  0  0
 47120  1  0  0  0
 48 56  1  0  0  0
 48 65  1  0  0  0
 48121  1  0  0  0
 49 50  1  0  0  0
 49 53  1  0  0  0
 49 64  1  0  0  0
 49122  1  0  0  0
 50 51  1  0  0  0
 50123  1  0  0  0
 50124  1  0  0  0
 51 52  1  0  0  0
 51125  1  0  0  0
 51126  1  0  0  0
 52127  1  0  0  0
 52128  1  0  0  0
 53 54  1  0  0  0
 54 55  2  0  0  0
 54129  1  0  0  0
 55 57  1  0  0  0
 55130  1  0  0  0
 56 69  2  0  0  0
 57 58  2  0  0  0
 57131  1  0  0  0
 58132  1  0  0  0
 59 60  1  0  0  0
 59 61  1  0  0  0
 59 62  1  0  0  0
 60133  1  0  0  0
 60134  1  0  0  0
 60135  1  0  0  0
 61136  1  0  0  0
 61137  1  0  0  0
 61138  1  0  0  0
 62139  1  0  0  0
 62140  1  0  0  0
 62141  1  0  0  0
 63 65  1  0  0  0
 63142  1  0  0  0
 63143  1  0  0  0
 63144  1  0  0  0
 64145  1  0  0  0
 65146  1  0  0  0
 68 81  1  0  0  0
 71 73  2  0  0  0
 71 74  1  0  0  0
 71147  1  0  0  0
 72 75  2  0  0  0
 72 76  1  0  0  0
 72148  1  0  0  0
 73 75  1  0  0  0
 73 82  1  0  0  0
 74 76  2  0  0  0
 74 83  1  0  0  0
 75 84  1  0  0  0
 76 87  1  0  0  0
 77 78  1  0  0  0
 77 79  1  0  0  0
 77149  1  0  0  0
 77150  1  0  0  0
 78 81  1  0  0  0
 78151  1  0  0  0
 78152  1  0  0  0
 79 86  1  0  0  0
 79153  1  0  0  0
 79154  1  0  0  0
 80 81  1  0  0  0
 80 86  1  0  0  0
 80155  1  0  0  0
 80156  1  0  0  0
 81157  1  0  0  0
 82158  1  0  0  0
 82159  1  0  0  0
 82160  1  0  0  0
 83 85  1  0  0  0
 83161  1  0  0  0
 83162  1  0  0  0
 84163  1  0  0  0
 84164  1  0  0  0
 84 86  1  0  0  0
 85165  1  0  0  0
 86166  1  0  0  0
M  CHG  1  86   1
M  ISO  4   1 100  68 101  81 101  85 100
M  END
> <chiral flag>
0

> <version>
0

> <s_m_source_file>
/data/baiqing/PycharmProjects/Reinvent-master-3.2/result/LINK_invent/BTK/process_docking_weight1_custom_product_contain_oxygen_bond_distance_aromatic_linkinvent_7_9_3/rearranged_h_0033.sdf

> <i_m_source_file_index>
62

> <r_mmod_Potential_Energy-OPLS-2005>
-131.200576782227

> <r_mmod_Stretch_Energy-OPLS-2005>
42.3736724853516

> <r_mmod_Bend_Energy-OPLS-2005>
100.851371765137

> <r_mmod_Torsional_Energy-OPLS-2005>
268.277740478516

> <r_mmod_Improper_Torsional_Energy-OPLS-2005>
2.33751964569092

> <r_mmod_Van_der_Waal_Energy-OPLS-2005>
154.201446533203

> <r_mmod_Electrostatic_Energy-OPLS-2005>
-290.288269042969

> <r_mmod_Solvation_Energy-OPLS-2005>
-419.679931640625

> <b_mmod_Minimization_Converged-OPLS-2005>
0

> <r_mmod_RMS_Derivative-OPLS-2005>
1.88134145736694

$$$$
62
                    3D
 Structure written by MMmdl.
167176  0  0  1  0            999 V2000
  -30.7377  -14.5071   20.5652 C   0  0  0  0  0  0
  -30.4148  -12.3270   19.4291 C   0  0  0  0  0  0
  -29.5046  -12.5142   18.2015 C   0  0  0  0  0  0
  -28.0261  -12.3709   18.6142 C   0  0  0  0  0  0
  -27.6603  -13.2225   19.8627 C   0  0  2  0  0  0
  -28.7079  -13.0422   20.9851 C   0  0  0  0  0  0
  -25.2606  -13.8146   20.5699 C   0  0  0  0  0  0
  -24.1871  -13.0405   20.9173 C   0  0  0  0  0  0
  -24.6435  -11.6883   20.8706 C   0  0  0  0  0  0
  -23.9112  -10.4260   21.0366 C   0  0  0  0  0  0
  -24.3646   -9.4186   21.9151 C   0  0  0  0  0  0
  -23.6297   -8.2235   22.0749 C   0  0  0  0  0  0
  -22.4287   -8.0265   21.3518 C   0  0  0  0  0  0
  -21.9928   -9.0259   20.4637 C   0  0  0  0  0  0
  -22.7287  -10.2112   20.3030 C   0  0  0  0  0  0
  -21.6850   -6.0735   22.5276 C   0  0  0  0  0  0
  -21.4023   -6.5637   23.8214 C   0  0  0  0  0  0
  -21.3666   -5.6786   24.9173 C   0  0  0  0  0  0
  -21.6046   -4.3041   24.7205 C   0  0  0  0  0  0
  -21.8825   -3.8143   23.4323 C   0  0  0  0  0  0
  -21.9203   -4.6970   22.3384 C   0  0  0  0  0  0
  -22.7885  -13.5180   21.1809 C   0  0  0  0  0  0
  -22.1668   -4.2155   21.0956 F   0  0  0  0  0  0
  -21.5630   -3.4527   25.7713 F   0  0  0  0  0  0
  -30.0316  -13.3451   20.4227 N   0  0  0  0  0  0
  -26.3050  -12.9360   20.3310 N   0  0  0  0  0  0
  -25.9364  -11.6504   20.5701 N   0  0  0  0  0  0
  -22.0532  -12.8169   22.0370 N   0  0  0  0  0  0
  -25.4246  -15.1876   20.4137 N   0  0  0  0  0  0
  -31.8711  -14.6416   20.1003 O   0  0  0  0  0  0
  -21.6620   -6.8876   21.4238 O   0  0  0  0  0  0
  -22.3579  -14.5499   20.6678 O   0  0  0  0  0  0
  -24.6172  -31.8621   23.2027 C   0  0  0  0  0  0
  -25.9063  -32.4780   23.8303 C   0  0  1  0  0  0
  -27.1997  -27.3610   20.1108 C   0  0  0  0  0  0
  -25.5910  -33.8579   24.2241 N   0  0  0  0  0  0
  -23.4081  -30.4966   21.5385 C   0  0  2  0  0  0
  -24.8465  -28.9662   20.0963 C   0  0  0  0  0  0
  -22.7434  -29.4679   22.4847 C   0  0  0  0  0  0
  -18.0318  -28.1394   22.8544 C   0  0  0  0  0  0
  -24.1485  -36.7316   23.2643 C   0  0  0  0  0  0
  -25.9430  -30.8088   21.3596 C   0  0  0  0  0  0
  -26.0097  -29.4389   20.7100 C   0  0  0  0  0  0
  -27.1938  -28.6488   20.7147 C   0  0  0  0  0  0
  -26.0228  -26.9471   19.4428 C   0  0  0  0  0  0
  -24.8496  -27.7212   19.4534 C   0  0  0  0  0  0
  -23.6194  -29.8509   20.1449 C   0  0  0  0  0  0
  -25.4108  -36.3060   24.0316 C   0  0  1  0  0  0
  -20.5930  -28.3658   23.1320 C   0  0  2  0  0  0
  -20.6865  -26.9404   22.5393 C   0  0  0  0  0  0
  -19.5784  -26.6395   21.5240 C   0  0  0  0  0  0
  -18.1960  -26.7952   22.1643 C   0  0  0  0  0  0
  -19.1576  -28.8846   23.2936 C   0  0  0  0  0  0
  -18.9486  -30.1508   23.8868 C   0  0  0  0  0  0
  -17.6480  -30.6607   24.0606 C   0  0  0  0  0  0
  -25.9058  -34.9456   23.5061 C   0  0  0  0  0  0
  -16.5381  -29.9116   23.6347 C   0  0  0  0  0  0
  -16.7305  -28.6550   23.0318 C   0  0  0  0  0  0
  -26.4493  -31.6572   25.0656 C   0  0  0  0  0  0
  -25.3790  -31.3726   26.1436 C   0  0  0  0  0  0
  -27.0307  -30.3011   24.6015 C   0  0  0  0  0  0
  -27.6006  -32.4288   25.7496 C   0  0  0  0  0  0
  -27.5559  -37.1842   24.8459 C   0  0  0  0  0  0
  -21.4143  -29.3058   22.3688 N   0  0  0  0  0  0
  -26.4262  -37.3787   23.9413 N   0  0  0  0  0  0
  -24.6745  -31.0729   22.0906 N   0  0  0  0  0  0
  -23.4217  -28.8194   23.2875 O   0  0  0  0  0  0
  -28.3184  -26.5297   20.2090 O   0  0  0  0  0  0
  -26.5591  -34.8933   22.4616 O   0  0  0  0  0  0
  -23.5352  -32.1357   23.7446 O   0  0  0  0  0  0
  -31.3925  -18.1928   19.6441 C   0  0  0  0  0  0
  -30.9270  -20.5825   19.4862 C   0  0  0  0  0  0
  -31.5341  -19.4201   18.9668 C   0  0  0  0  0  0
  -30.6451  -18.1020   20.8413 C   0  0  0  0  0  0
  -30.1523  -20.5421   20.6656 C   0  0  0  0  0  0
  -29.9815  -19.2802   21.3285 C   0  0  0  0  0  0
  -27.4350  -22.8604   20.4946 C   0  0  0  0  0  0
  -26.5802  -21.8442   20.2922 C   0  0  0  0  0  0
  -27.1022  -24.3244   20.7160 C   0  0  0  0  0  0
  -29.4034  -24.2077   20.2442 C   0  0  0  0  0  0
  -28.1753  -25.0975   19.9213 C   0  0  2  0  0  0
  -32.3925  -19.4923   17.7171 C   0  0  0  0  0  0
  -29.1292  -19.2194   22.5950 C   0  0  0  0  0  0
  -30.7838  -16.7840   21.6461 C   0  0  0  0  0  0
  -29.6532  -21.8949   21.2574 C   0  0  0  0  0  0
  -30.1162  -15.5493   21.1604 N   0  0  0  0  0  0
  -28.9128  -22.7881   20.3049 N   0  3  1  0  0  0
  -31.4665  -12.3845   19.1535 H   0  0  0  0  0  0
  -30.2749  -11.3282   19.8449 H   0  0  0  0  0  0
  -29.7514  -11.7848   17.4286 H   0  0  0  0  0  0
  -29.6751  -13.4953   17.7601 H   0  0  0  0  0  0
  -27.8535  -11.3151   18.8265 H   0  0  0  0  0  0
  -27.3727  -12.6243   17.7791 H   0  0  0  0  0  0
  -27.6916  -14.2644   19.5444 H   0  0  0  0  0  0
  -28.6942  -12.0145   21.3536 H   0  0  0  0  0  0
  -28.4750  -13.6666   21.8483 H   0  0  0  0  0  0
  -25.2812   -9.5638   22.4712 H   0  0  0  0  0  0
  -24.0008   -7.4624   22.7456 H   0  0  0  0  0  0
  -21.0878   -8.8781   19.8929 H   0  0  0  0  0  0
  -22.3775  -10.9643   19.6110 H   0  0  0  0  0  0
  -21.2018   -7.6146   23.9714 H   0  0  0  0  0  0
  -21.1483   -6.0503   25.9063 H   0  0  0  0  0  0
  -22.0598   -2.7615   23.2806 H   0  0  0  0  0  0
  -22.4178  -11.9848   22.4777 H   0  0  0  0  0  0
  -21.1116  -13.1136   22.2487 H   0  0  0  0  0  0
  -24.6506  -15.8306   20.5364 H   0  0  0  0  0  0
  -26.2637  -15.6396   20.0731 H   0  0  0  0  0  0
  -26.7138  -32.5445   23.1051 H   0  0  0  0  0  0
  -25.0175  -33.9691   25.0467 H   0  0  0  0  0  0
  -22.7015  -31.3180   21.4118 H   0  0  0  0  0  0
  -23.3704  -35.9705   23.3271 H   0  0  0  0  0  0
  -24.3605  -36.8930   22.2064 H   0  0  0  0  0  0
  -23.7312  -37.6548   23.6686 H   0  0  0  0  0  0
  -26.0559  -31.5579   20.5759 H   0  0  0  0  0  0
  -26.8375  -30.8608   21.9684 H   0  0  0  0  0  0
  -28.0870  -29.0182   21.1994 H   0  0  0  0  0  0
  -25.9696  -26.0145   18.9014 H   0  0  0  0  0  0
  -23.9623  -27.3641   18.9513 H   0  0  0  0  0  0
  -23.7525  -30.6402   19.4011 H   0  0  0  0  0  0
  -22.7358  -29.2957   19.8270 H   0  0  0  0  0  0
  -25.1309  -36.1844   25.0810 H   0  0  0  0  0  0
  -21.0085  -28.3203   24.1406 H   0  0  0  0  0  0
  -20.5827  -26.2255   23.3555 H   0  0  0  0  0  0
  -21.6747  -26.7462   22.1131 H   0  0  0  0  0  0
  -19.6895  -25.6296   21.1248 H   0  0  0  0  0  0
  -19.6744  -27.3294   20.6830 H   0  0  0  0  0  0
  -17.4264  -26.6781   21.3978 H   0  0  0  0  0  0
  -18.0272  -26.0083   22.8976 H   0  0  0  0  0  0
  -19.7947  -30.7426   24.2112 H   0  0  0  0  0  0
  -17.4997  -31.6243   24.5270 H   0  0  0  0  0  0
  -15.5384  -30.2989   23.7696 H   0  0  0  0  0  0
  -15.8694  -28.0912   22.6915 H   0  0  0  0  0  0
  -24.6010  -30.6961   25.7889 H   0  0  0  0  0  0
  -24.8971  -32.2919   26.4751 H   0  0  0  0  0  0
  -25.8218  -30.9079   27.0254 H   0  0  0  0  0  0
  -26.2835  -29.6782   24.1101 H   0  0  0  0  0  0
  -27.4124  -29.7207   25.4415 H   0  0  0  0  0  0
  -27.8639  -30.4331   23.9134 H   0  0  0  0  0  0
  -27.2572  -33.3608   26.2006 H   0  0  0  0  0  0
  -28.3964  -32.6766   25.0464 H   0  0  0  0  0  0
  -28.0514  -31.8424   26.5508 H   0  0  0  0  0  0
  -28.2591  -38.0134   24.7502 H   0  0  0  0  0  0
  -28.1020  -36.2659   24.6270 H   0  0  0  0  0  0
  -27.2261  -37.1469   25.8858 H   0  0  0  0  0  0
  -20.9178  -29.8761   21.6981 H   0  0  0  0  0  0
  -26.0048  -38.2817   24.1454 H   0  0  0  0  0  0
  -31.9235  -17.3256   19.2794 H   0  0  0  0  0  0
  -31.0997  -21.5270   18.9815 H   0  0  0  0  0  0
  -25.5105  -22.0069   20.3384 H   0  0  0  0  0  0
  -26.9162  -20.8455   20.0503 H   0  0  0  0  0  0
  -27.1742  -24.5337   21.7838 H   0  0  0  0  0  0
  -26.0751  -24.5171   20.4124 H   0  0  0  0  0  0
  -29.8084  -24.5115   21.2100 H   0  0  0  0  0  0
  -30.2066  -24.3091   19.5166 H   0  0  0  0  0  0
  -27.9702  -24.9907   18.8539 H   0  0  0  0  0  0
  -32.3397  -18.5584   17.1565 H   0  0  0  0  0  0
  -33.4380  -19.6659   17.9737 H   0  0  0  0  0  0
  -32.0715  -20.2912   17.0476 H   0  0  0  0  0  0
  -28.8118  -18.2053   22.8294 H   0  0  0  0  0  0
  -28.2051  -19.7876   22.4781 H   0  0  0  0  0  0
  -29.6741  -19.6259   23.4482 H   0  0  0  0  0  0
  -30.5213  -16.9357   22.6902 H   0  0  0  0  0  0
  -31.8560  -16.5920   21.7092 H   0  0  0  0  0  0
  -30.5420  -22.4083   21.6240 H   0  0  0  0  0  0
  -29.0461  -21.7648   22.1531 H   0  0  0  0  0  0
  -29.1637  -15.4068   21.4536 H   0  0  0  0  0  0
  -29.0759  -22.3768   19.3969 H   0  0  0  0  0  0
  1 25  1  0  0  0
  1 30  2  0  0  0
  1 86  1  0  0  0
  2  3  1  0  0  0
  2 25  1  0  0  0
  2 88  1  0  0  0
  2 89  1  0  0  0
  3  4  1  0  0  0
  3 90  1  0  0  0
  3 91  1  0  0  0
  4  5  1  0  0  0
  4 92  1  0  0  0
  4 93  1  0  0  0
  5  6  1  0  0  0
  5 26  1  0  0  0
  5 94  1  0  0  0
  6 25  1  0  0  0
  6 95  1  0  0  0
  6 96  1  0  0  0
  7  8  2  0  0  0
  7 26  1  0  0  0
  7 29  1  0  0  0
  8  9  1  0  0  0
  8 22  1  0  0  0
  9 10  1  0  0  0
  9 27  2  0  0  0
 10 11  2  0  0  0
 10 15  1  0  0  0
 11 12  1  0  0  0
 11 97  1  0  0  0
 12 13  2  0  0  0
 12 98  1  0  0  0
 13 14  1  0  0  0
 13 31  1  0  0  0
 14 15  2  0  0  0
 14 99  1  0  0  0
 15100  1  0  0  0
 16 17  2  0  0  0
 16 21  1  0  0  0
 16 31  1  0  0  0
 17 18  1  0  0  0
 17101  1  0  0  0
 18 19  2  0  0  0
 18102  1  0  0  0
 19 20  1  0  0  0
 19 24  1  0  0  0
 20 21  2  0  0  0
 20103  1  0  0  0
 21 23  1  0  0  0
 22 28  1  0  0  0
 22 32  2  0  0  0
 26 27  1  0  0  0
 28104  1  0  0  0
 28105  1  0  0  0
 29106  1  0  0  0
 29107  1  0  0  0
 33 34  1  0  0  0
 33 66  1  0  0  0
 33 70  2  0  0  0
 34 36  1  0  0  0
 34 59  1  0  0  0
 34108  1  0  0  0
 35 44  2  0  0  0
 35 45  1  0  0  0
 35 68  1  0  0  0
 36 56  1  0  0  0
 36109  1  0  0  0
 37 39  1  0  0  0
 37 47  1  0  0  0
 37 66  1  0  0  0
 37110  1  0  0  0
 38 43  2  0  0  0
 38 46  1  0  0  0
 38 47  1  0  0  0
 39 64  1  0  0  0
 39 67  2  0  0  0
 40 52  1  0  0  0
 40 53  2  0  0  0
 40 58  1  0  0  0
 41111  1  0  0  0
 41112  1  0  0  0
 41113  1  0  0  0
 41 48  1  0  0  0
 42 43  1  0  0  0
 42 66  1  0  0  0
 42114  1  0  0  0
 42115  1  0  0  0
 43 44  1  0  0  0
 44116  1  0  0  0
 45 46  2  0  0  0
 45117  1  0  0  0
 46118  1  0  0  0
 47119  1  0  0  0
 47120  1  0  0  0
 48 56  1  0  0  0
 48 65  1  0  0  0
 48121  1  0  0  0
 49 50  1  0  0  0
 49 53  1  0  0  0
 49 64  1  0  0  0
 49122  1  0  0  0
 50 51  1  0  0  0
 50123  1  0  0  0
 50124  1  0  0  0
 51 52  1  0  0  0
 51125  1  0  0  0
 51126  1  0  0  0
 52127  1  0  0  0
 52128  1  0  0  0
 53 54  1  0  0  0
 54 55  2  0  0  0
 54129  1  0  0  0
 55 57  1  0  0  0
 55130  1  0  0  0
 56 69  2  0  0  0
 57 58  2  0  0  0
 57131  1  0  0  0
 58132  1  0  0  0
 59 60  1  0  0  0
 59 61  1  0  0  0
 59 62  1  0  0  0
 60133  1  0  0  0
 60134  1  0  0  0
 60135  1  0  0  0
 61136  1  0  0  0
 61137  1  0  0  0
 61138  1  0  0  0
 62139  1  0  0  0
 62140  1  0  0  0
 62141  1  0  0  0
 63 65  1  0  0  0
 63142  1  0  0  0
 63143  1  0  0  0
 63144  1  0  0  0
 64145  1  0  0  0
 65146  1  0  0  0
 68 81  1  0  0  0
 71 73  2  0  0  0
 71 74  1  0  0  0
 71147  1  0  0  0
 72 73  1  0  0  0
 72 75  2  0  0  0
 72148  1  0  0  0
 73 82  1  0  0  0
 74 76  2  0  0  0
 74 84  1  0  0  0
 75 76  1  0  0  0
 75 85  1  0  0  0
 76 83  1  0  0  0
 77 78  2  0  0  0
 77 79  1  0  0  0
 77 87  1  0  0  0
 78149  1  0  0  0
 78150  1  0  0  0
 79 81  1  0  0  0
 79151  1  0  0  0
 79152  1  0  0  0
 80 81  1  0  0  0
 80 87  1  0  0  0
 80153  1  0  0  0
 80154  1  0  0  0
 81155  1  0  0  0
 82156  1  0  0  0
 82157  1  0  0  0
 82158  1  0  0  0
 83159  1  0  0  0
 83160  1  0  0  0
 83161  1  0  0  0
 84 86  1  0  0  0
 84162  1  0  0  0
 84163  1  0  0  0
 85164  1  0  0  0
 85165  1  0  0  0
 85 87  1  0  0  0
 86166  1  0  0  0
 87167  1  0  0  0
M  CHG  1  87   1
M  ISO  4   1 100  68 101  81 101  86 100
M  END
> <chiral flag>
0

> <version>
0

> <s_m_source_file>
/data/baiqing/PycharmProjects/Reinvent-master-3.2/result/LINK_invent/BTK/process_docking_weight1_custom_product_contain_oxygen_bond_distance_aromatic_linkinvent_7_9_3/rearranged_h_0033.sdf

> <i_m_source_file_index>
63

> <r_mmod_Potential_Energy-OPLS-2005>
-119.71558380127

> <r_mmod_Stretch_Energy-OPLS-2005>
57.6657524108887

> <r_mmod_Bend_Energy-OPLS-2005>
153.323944091797

> <r_mmod_Torsional_Energy-OPLS-2005>
226.354583740234

> <r_mmod_Improper_Torsional_Energy-OPLS-2005>
4.40501165390015

> <r_mmod_Van_der_Waal_Energy-OPLS-2005>
152.140670776367

> <r_mmod_Electrostatic_Energy-OPLS-2005>
-322.669738769531

> <r_mmod_Solvation_Energy-OPLS-2005>
-420.638366699219

> <b_mmod_Minimization_Converged-OPLS-2005>
0

> <r_mmod_RMS_Derivative-OPLS-2005>
7.06940937042236

$$$$
63
                    3D
 Structure written by MMmdl.
164173  0  0  1  0            999 V2000
  -30.5973  -14.7530   20.4555 C   0  0  0  0  0  0
  -30.4339  -12.4596   19.4674 C   0  0  0  0  0  0
  -29.5080  -12.5032   18.2320 C   0  0  0  0  0  0
  -28.0342  -12.3253   18.6482 C   0  0  0  0  0  0
  -27.6386  -13.2286   19.8468 C   0  0  2  0  0  0
  -28.6848  -13.1656   20.9804 C   0  0  0  0  0  0
  -25.2498  -13.8186   20.5691 C   0  0  0  0  0  0
  -24.1795  -13.0434   20.9215 C   0  0  0  0  0  0
  -24.6387  -11.6912   20.8757 C   0  0  0  0  0  0
  -23.9065  -10.4290   21.0415 C   0  0  0  0  0  0
  -24.3618   -9.4204   21.9189 C   0  0  0  0  0  0
  -23.6293   -8.2239   22.0755 C   0  0  0  0  0  0
  -22.4275   -8.0280   21.3546 C   0  0  0  0  0  0
  -21.9913   -9.0252   20.4646 C   0  0  0  0  0  0
  -22.7242  -10.2131   20.3059 C   0  0  0  0  0  0
  -21.6851   -6.0736   22.5281 C   0  0  0  0  0  0
  -21.4011   -6.5638   23.8214 C   0  0  0  0  0  0
  -21.3658   -5.6791   24.9175 C   0  0  0  0  0  0
  -21.6046   -4.3055   24.7226 C   0  0  0  0  0  0
  -21.8818   -3.8145   23.4346 C   0  0  0  0  0  0
  -21.9193   -4.6964   22.3404 C   0  0  0  0  0  0
  -22.7816  -13.5219   21.1875 C   0  0  0  0  0  0
  -22.1661   -4.2149   21.0982 F   0  0  0  0  0  0
  -21.5629   -3.4539   25.7739 F   0  0  0  0  0  0
  -29.9813  -13.5230   20.3924 N   0  0  0  0  0  0
  -26.2918  -12.9387   20.3269 N   0  0  0  0  0  0
  -25.9313  -11.6533   20.5753 N   0  0  0  0  0  0
  -22.0464  -12.8204   22.0426 N   0  0  0  0  0  0
  -25.4167  -15.1910   20.4085 N   0  0  0  0  0  0
  -31.7959  -14.8444   20.1739 O   0  0  0  0  0  0
  -21.6639   -6.8878   21.4241 O   0  0  0  0  0  0
  -22.3504  -14.5531   20.6728 O   0  0  0  0  0  0
  -24.6300  -31.8529   23.1957 C   0  0  0  0  0  0
  -25.9123  -32.4742   23.8306 C   0  0  1  0  0  0
  -27.2277  -27.2572   20.1465 C   0  0  0  0  0  0
  -25.5920  -33.8544   24.2235 N   0  0  0  0  0  0
  -23.4269  -30.4712   21.5393 C   0  0  2  0  0  0
  -24.8742  -28.9024   20.1212 C   0  0  0  0  0  0
  -22.7490  -29.4584   22.4929 C   0  0  0  0  0  0
  -18.0285  -28.1381   22.8482 C   0  0  0  0  0  0
  -24.1488  -36.7279   23.2645 C   0  0  0  0  0  0
  -25.9695  -30.7653   21.3723 C   0  0  0  0  0  0
  -26.0432  -29.3823   20.7248 C   0  0  0  0  0  0
  -27.2229  -28.5744   20.7175 C   0  0  0  0  0  0
  -26.0365  -26.8312   19.5258 C   0  0  0  0  0  0
  -24.8749  -27.6345   19.5125 C   0  0  0  0  0  0
  -23.6459  -29.7930   20.1598 C   0  0  0  0  0  0
  -25.4113  -36.3059   24.0328 C   0  0  1  0  0  0
  -20.5886  -28.3683   23.1282 C   0  0  2  0  0  0
  -20.6775  -26.9403   22.5413 C   0  0  0  0  0  0
  -19.5753  -26.6378   21.5212 C   0  0  0  0  0  0
  -18.1931  -26.7922   22.1619 C   0  0  0  0  0  0
  -19.1539  -28.8849   23.2875 C   0  0  0  0  0  0
  -18.9464  -30.1454   23.8886 C   0  0  0  0  0  0
  -17.6465  -30.6585   24.0560 C   0  0  0  0  0  0
  -25.9052  -34.9432   23.5088 C   0  0  0  0  0  0
  -16.5355  -29.9082   23.6336 C   0  0  0  0  0  0
  -16.7272  -28.6501   23.0351 C   0  0  0  0  0  0
  -26.4495  -31.6574   25.0701 C   0  0  0  0  0  0
  -25.3726  -31.3721   26.1429 C   0  0  0  0  0  0
  -27.0348  -30.2995   24.6180 C   0  0  0  0  0  0
  -27.6033  -32.4329   25.7481 C   0  0  0  0  0  0
  -27.5574  -37.1792   24.8465 C   0  0  0  0  0  0
  -21.4197  -29.3034   22.3674 N   0  0  0  0  0  0
  -26.4282  -37.3762   23.9411 N   0  0  0  0  0  0
  -24.6948  -31.0487   22.0930 N   0  0  0  0  0  0
  -23.4190  -28.8140   23.3040 O   0  0  0  0  0  0
  -28.3770  -26.4420   20.0997 O   0  0  0  0  0  0
  -26.5633  -34.8914   22.4661 O   0  0  0  0  0  0
  -23.5453  -32.1347   23.7258 O   0  0  0  0  0  0
  -30.8277  -20.1128   21.0335 C   0  0  0  0  0  0
  -31.3288  -17.7165   21.2785 C   0  0  0  0  0  0
  -31.6825  -19.0713   21.4536 C   0  0  0  0  0  0
  -29.5776  -19.8527   20.4326 C   0  0  0  0  0  0
  -29.2318  -18.4347   20.2644 C   0  0  0  0  0  0
  -30.1082  -17.3360   20.6798 C   0  0  0  0  0  0
  -27.7980  -22.8640   21.6000 C   0  0  0  0  0  0
  -27.3781  -22.0011   22.5412 C   0  0  0  0  0  0
  -27.4103  -24.3547   21.4626 C   0  0  0  0  0  0
  -28.8420  -23.7571   19.6636 C   0  0  0  0  0  0
  -28.4702  -25.0071   20.5661 C   0  0  1  0  0  0
  -33.0145  -19.4141   22.0923 C   0  0  0  0  0  0
  -27.9129  -18.0806   19.5955 C   0  0  0  0  0  0
  -28.7334  -21.1144   19.8955 C   0  0  0  0  0  0
  -29.7888  -15.8819   20.5787 N   0  0  0  0  0  0
  -28.8221  -22.5164   20.5512 N   0  3  2  0  0  0
  -31.4733  -12.5925   19.1623 H   0  0  0  0  0  0
  -30.3865  -11.4845   19.9549 H   0  0  0  0  0  0
  -29.7917  -11.7271   17.5199 H   0  0  0  0  0  0
  -29.6299  -13.4549   17.7121 H   0  0  0  0  0  0
  -27.8938  -11.2772   18.9153 H   0  0  0  0  0  0
  -27.3755  -12.5117   17.7990 H   0  0  0  0  0  0
  -27.6290  -14.2481   19.4611 H   0  0  0  0  0  0
  -28.7240  -12.1677   21.4197 H   0  0  0  0  0  0
  -28.4206  -13.8475   21.7906 H   0  0  0  0  0  0
  -25.2762   -9.5681   22.4765 H   0  0  0  0  0  0
  -24.0003   -7.4628   22.7471 H   0  0  0  0  0  0
  -21.0847   -8.8771   19.8945 H   0  0  0  0  0  0
  -22.3705  -10.9670   19.6168 H   0  0  0  0  0  0
  -21.1998   -7.6146   23.9719 H   0  0  0  0  0  0
  -21.1483   -6.0520   25.9080 H   0  0  0  0  0  0
  -22.0598   -2.7608   23.2848 H   0  0  0  0  0  0
  -22.4081  -11.9863   22.4806 H   0  0  0  0  0  0
  -21.1080  -13.1221   22.2632 H   0  0  0  0  0  0
  -24.6421  -15.8372   20.5123 H   0  0  0  0  0  0
  -26.2505  -15.6296   20.0439 H   0  0  0  0  0  0
  -26.7181  -32.5386   23.1037 H   0  0  0  0  0  0
  -25.0062  -33.9680   25.0379 H   0  0  0  0  0  0
  -22.7238  -31.2925   21.3871 H   0  0  0  0  0  0
  -23.3755  -35.9608   23.3298 H   0  0  0  0  0  0
  -24.3576  -36.8911   22.2061 H   0  0  0  0  0  0
  -23.7241  -37.6477   23.6675 H   0  0  0  0  0  0
  -26.1025  -31.5209   20.5966 H   0  0  0  0  0  0
  -26.8494  -30.8207   22.0020 H   0  0  0  0  0  0
  -28.1277  -28.9490   21.1751 H   0  0  0  0  0  0
  -26.0030  -25.8650   19.0423 H   0  0  0  0  0  0
  -23.9792  -27.2624   19.0350 H   0  0  0  0  0  0
  -23.7743  -30.5633   19.3984 H   0  0  0  0  0  0
  -22.7638  -29.2263   19.8564 H   0  0  0  0  0  0
  -25.1299  -36.1896   25.0821 H   0  0  0  0  0  0
  -20.9966  -28.3248   24.1403 H   0  0  0  0  0  0
  -20.5677  -26.2287   23.3611 H   0  0  0  0  0  0
  -21.6641  -26.7428   22.1204 H   0  0  0  0  0  0
  -19.6923  -25.6292   21.1238 H   0  0  0  0  0  0
  -19.6699  -27.3191   20.6747 H   0  0  0  0  0  0
  -17.4203  -26.6671   21.4019 H   0  0  0  0  0  0
  -18.0328  -26.0062   22.9013 H   0  0  0  0  0  0
  -19.7945  -30.7274   24.2244 H   0  0  0  0  0  0
  -17.5023  -31.6266   24.5161 H   0  0  0  0  0  0
  -15.5357  -30.2983   23.7674 H   0  0  0  0  0  0
  -15.8667  -28.0824   22.7064 H   0  0  0  0  0  0
  -24.5897  -30.7071   25.7766 H   0  0  0  0  0  0
  -24.8930  -32.2896   26.4850 H   0  0  0  0  0  0
  -25.8055  -30.8905   27.0207 H   0  0  0  0  0  0
  -26.2930  -29.6738   24.1205 H   0  0  0  0  0  0
  -27.4047  -29.7254   25.4687 H   0  0  0  0  0  0
  -27.8794  -30.4283   23.9407 H   0  0  0  0  0  0
  -27.2617  -33.3634   26.2028 H   0  0  0  0  0  0
  -28.3860  -32.6884   25.0325 H   0  0  0  0  0  0
  -28.0682  -31.8482   26.5428 H   0  0  0  0  0  0
  -28.2577  -38.0103   24.7511 H   0  0  0  0  0  0
  -28.1083  -36.2629   24.6284 H   0  0  0  0  0  0
  -27.2292  -37.1430   25.8869 H   0  0  0  0  0  0
  -20.9380  -29.8749   21.6872 H   0  0  0  0  0  0
  -26.0158  -38.2834   24.1419 H   0  0  0  0  0  0
  -31.1621  -21.1328   21.1618 H   0  0  0  0  0  0
  -32.0161  -16.9581   21.6267 H   0  0  0  0  0  0
  -26.6683  -22.3082   23.2956 H   0  0  0  0  0  0
  -27.7334  -20.9812   22.5843 H   0  0  0  0  0  0
  -27.3632  -24.8395   22.4378 H   0  0  0  0  0  0
  -26.4211  -24.4168   21.0107 H   0  0  0  0  0  0
  -29.8150  -23.8768   19.1865 H   0  0  0  0  0  0
  -28.0999  -23.6487   18.8718 H   0  0  0  0  0  0
  -29.3379  -25.1005   21.2213 H   0  0  0  0  0  0
  -32.9481  -20.3385   22.6667 H   0  0  0  0  0  0
  -33.7794  -19.5430   21.3260 H   0  0  0  0  0  0
  -33.3424  -18.6259   22.7711 H   0  0  0  0  0  0
  -27.1019  -18.0984   20.3238 H   0  0  0  0  0  0
  -27.9415  -17.0907   19.1407 H   0  0  0  0  0  0
  -27.6731  -18.7782   18.7937 H   0  0  0  0  0  0
  -27.6784  -20.8451   19.8498 H   0  0  0  0  0  0
  -29.0366  -21.2363   18.8551 H   0  0  0  0  0  0
  -28.8061  -15.6624   20.6022 H   0  0  0  0  0  0
  -29.7245  -22.5143   21.0026 H   0  0  0  0  0  0
  1 25  1  0  0  0
  1 30  2  0  0  0
  1 85  1  0  0  0
  2  3  1  0  0  0
  2 25  1  0  0  0
  2 87  1  0  0  0
  2 88  1  0  0  0
  3  4  1  0  0  0
  3 89  1  0  0  0
  3 90  1  0  0  0
  4  5  1  0  0  0
  4 91  1  0  0  0
  4 92  1  0  0  0
  5  6  1  0  0  0
  5 26  1  0  0  0
  5 93  1  0  0  0
  6 25  1  0  0  0
  6 94  1  0  0  0
  6 95  1  0  0  0
  7  8  2  0  0  0
  7 26  1  0  0  0
  7 29  1  0  0  0
  8  9  1  0  0  0
  8 22  1  0  0  0
  9 10  1  0  0  0
  9 27  2  0  0  0
 10 11  2  0  0  0
 10 15  1  0  0  0
 11 12  1  0  0  0
 11 96  1  0  0  0
 12 13  2  0  0  0
 12 97  1  0  0  0
 13 14  1  0  0  0
 13 31  1  0  0  0
 14 15  2  0  0  0
 14 98  1  0  0  0
 15 99  1  0  0  0
 16 17  2  0  0  0
 16 21  1  0  0  0
 16 31  1  0  0  0
 17 18  1  0  0  0
 17100  1  0  0  0
 18 19  2  0  0  0
 18101  1  0  0  0
 19 20  1  0  0  0
 19 24  1  0  0  0
 20 21  2  0  0  0
 20102  1  0  0  0
 21 23  1  0  0  0
 22 28  1  0  0  0
 22 32  2  0  0  0
 26 27  1  0  0  0
 28103  1  0  0  0
 28104  1  0  0  0
 29105  1  0  0  0
 29106  1  0  0  0
 33 34  1  0  0  0
 33 66  1  0  0  0
 33 70  2  0  0  0
 34 36  1  0  0  0
 34 59  1  0  0  0
 34107  1  0  0  0
 35 44  2  0  0  0
 35 45  1  0  0  0
 35 68  1  0  0  0
 36 56  1  0  0  0
 36108  1  0  0  0
 37 39  1  0  0  0
 37 47  1  0  0  0
 37 66  1  0  0  0
 37109  1  0  0  0
 38 43  2  0  0  0
 38 46  1  0  0  0
 38 47  1  0  0  0
 39 64  1  0  0  0
 39 67  2  0  0  0
 40 52  1  0  0  0
 40 53  2  0  0  0
 40 58  1  0  0  0
 41110  1  0  0  0
 41111  1  0  0  0
 41112  1  0  0  0
 41 48  1  0  0  0
 42 43  1  0  0  0
 42 66  1  0  0  0
 42113  1  0  0  0
 42114  1  0  0  0
 43 44  1  0  0  0
 44115  1  0  0  0
 45 46  2  0  0  0
 45116  1  0  0  0
 46117  1  0  0  0
 47118  1  0  0  0
 47119  1  0  0  0
 48 56  1  0  0  0
 48 65  1  0  0  0
 48120  1  0  0  0
 49 50  1  0  0  0
 49 53  1  0  0  0
 49 64  1  0  0  0
 49121  1  0  0  0
 50 51  1  0  0  0
 50122  1  0  0  0
 50123  1  0  0  0
 51 52  1  0  0  0
 51124  1  0  0  0
 51125  1  0  0  0
 52126  1  0  0  0
 52127  1  0  0  0
 53 54  1  0  0  0
 54 55  2  0  0  0
 54128  1  0  0  0
 55 57  1  0  0  0
 55129  1  0  0  0
 56 69  2  0  0  0
 57 58  2  0  0  0
 57130  1  0  0  0
 58131  1  0  0  0
 59 60  1  0  0  0
 59 61  1  0  0  0
 59 62  1  0  0  0
 60132  1  0  0  0
 60133  1  0  0  0
 60134  1  0  0  0
 61135  1  0  0  0
 61136  1  0  0  0
 61137  1  0  0  0
 62138  1  0  0  0
 62139  1  0  0  0
 62140  1  0  0  0
 63 65  1  0  0  0
 63141  1  0  0  0
 63142  1  0  0  0
 63143  1  0  0  0
 64144  1  0  0  0
 65145  1  0  0  0
 68 81  1  0  0  0
 71 73  2  0  0  0
 71 74  1  0  0  0
 71146  1  0  0  0
 72 73  1  0  0  0
 72 76  2  0  0  0
 72147  1  0  0  0
 73 82  1  0  0  0
 74 75  2  0  0  0
 74 84  1  0  0  0
 75 76  1  0  0  0
 75 83  1  0  0  0
 76 85  1  0  0  0
 77 78  2  0  0  0
 77 79  1  0  0  0
 77 86  1  0  0  0
 78148  1  0  0  0
 78149  1  0  0  0
 79 81  1  0  0  0
 79150  1  0  0  0
 79151  1  0  0  0
 80 81  1  0  0  0
 80 86  1  0  0  0
 80152  1  0  0  0
 80153  1  0  0  0
 81154  1  0  0  0
 82155  1  0  0  0
 82156  1  0  0  0
 82157  1  0  0  0
 83158  1  0  0  0
 83159  1  0  0  0
 83160  1  0  0  0
 84161  1  0  0  0
 84162  1  0  0  0
 84 86  1  0  0  0
 85163  1  0  0  0
 86164  1  0  0  0
M  CHG  1  86   1
M  ISO  4   1 100  68 101  81 101  85 100
M  END
> <chiral flag>
0

> <version>
0

> <s_m_source_file>
/data/baiqing/PycharmProjects/Reinvent-master-3.2/result/LINK_invent/BTK/process_docking_weight1_custom_product_contain_oxygen_bond_distance_aromatic_linkinvent_7_9_3/rearranged_h_0033.sdf

> <i_m_source_file_index>
64

> <r_mmod_Potential_Energy-OPLS-2005>
113.179130554199

> <r_mmod_Stretch_Energy-OPLS-2005>
127.531829833984

> <r_mmod_Bend_Energy-OPLS-2005>
227.310485839844

> <r_mmod_Torsional_Energy-OPLS-2005>
255.620590209961

> <r_mmod_Improper_Torsional_Energy-OPLS-2005>
6.72194719314575

> <r_mmod_Van_der_Waal_Energy-OPLS-2005>
124.340911865234

> <r_mmod_Electrostatic_Energy-OPLS-2005>
-277.056121826172

> <r_mmod_Solvation_Energy-OPLS-2005>
-432.759552001953

> <b_mmod_Minimization_Converged-OPLS-2005>
0

> <r_mmod_RMS_Derivative-OPLS-2005>
0.741275131702423

$$$$
64
                    3D
 Structure written by MMmdl.
159167  0  0  1  0            999 V2000
  -30.7077  -14.4604   20.5204 C   0  0  0  0  0  0
  -30.4174  -12.2822   19.4326 C   0  0  0  0  0  0
  -29.4944  -12.4858   18.2124 C   0  0  0  0  0  0
  -28.0148  -12.3546   18.6247 C   0  0  0  0  0  0
  -27.6605  -13.2065   19.8731 C   0  0  2  0  0  0
  -28.7036  -13.0103   20.9996 C   0  0  0  0  0  0
  -25.2592  -13.8170   20.5707 C   0  0  0  0  0  0
  -24.1844  -13.0443   20.9192 C   0  0  0  0  0  0
  -24.6401  -11.6915   20.8753 C   0  0  0  0  0  0
  -23.9070  -10.4296   21.0422 C   0  0  0  0  0  0
  -24.3615   -9.4202   21.9194 C   0  0  0  0  0  0
  -23.6289   -8.2236   22.0755 C   0  0  0  0  0  0
  -22.4271   -8.0280   21.3543 C   0  0  0  0  0  0
  -21.9911   -9.0261   20.4649 C   0  0  0  0  0  0
  -22.7245  -10.2143   20.3065 C   0  0  0  0  0  0
  -21.6849   -6.0740   22.5283 C   0  0  0  0  0  0
  -21.4015   -6.5643   23.8217 C   0  0  0  0  0  0
  -21.3657   -5.6795   24.9178 C   0  0  0  0  0  0
  -21.6039   -4.3055   24.7231 C   0  0  0  0  0  0
  -21.8817   -3.8148   23.4350 C   0  0  0  0  0  0
  -21.9195   -4.6965   22.3408 C   0  0  0  0  0  0
  -22.7862  -13.5236   21.1856 C   0  0  0  0  0  0
  -22.1663   -4.2154   21.0984 F   0  0  0  0  0  0
  -21.5626   -3.4538   25.7741 F   0  0  0  0  0  0
  -30.0376  -13.2813   20.4419 N   0  0  0  0  0  0
  -26.3022  -12.9339   20.3374 N   0  0  0  0  0  0
  -25.9322  -11.6502   20.5781 N   0  0  0  0  0  0
  -22.0506  -12.8226   22.0415 N   0  0  0  0  0  0
  -25.4322  -15.1889   20.4104 N   0  0  0  0  0  0
  -31.8664  -14.6016   20.1233 O   0  0  0  0  0  0
  -21.6631   -6.8881   21.4244 O   0  0  0  0  0  0
  -22.3550  -14.5550   20.6710 O   0  0  0  0  0  0
  -24.6129  -31.8691   23.2115 C   0  0  0  0  0  0
  -25.9022  -32.4829   23.8407 C   0  0  1  0  0  0
  -27.2362  -27.4525   20.0976 C   0  0  0  0  0  0
  -25.5876  -33.8624   24.2346 N   0  0  0  0  0  0
  -23.3992  -30.4931   21.5524 C   0  0  2  0  0  0
  -24.8450  -28.9587   20.1189 C   0  0  0  0  0  0
  -22.7389  -29.4668   22.5003 C   0  0  0  0  0  0
  -18.0263  -28.1356   22.8496 C   0  0  0  0  0  0
  -24.1485  -36.7328   23.2640 C   0  0  0  0  0  0
  -25.9262  -30.8422   21.3597 C   0  0  0  0  0  0
  -26.0045  -29.4784   20.7071 C   0  0  0  0  0  0
  -27.2044  -28.7352   20.6861 C   0  0  0  0  0  0
  -26.0576  -26.9397   19.5082 C   0  0  0  0  0  0
  -24.8654  -27.6889   19.5161 C   0  0  0  0  0  0
  -23.6057  -29.8226   20.1679 C   0  0  0  0  0  0
  -25.4102  -36.3126   24.0344 C   0  0  1  0  0  0
  -20.5846  -28.3643   23.1323 C   0  0  2  0  0  0
  -20.6749  -26.9382   22.5415 C   0  0  0  0  0  0
  -19.5733  -26.6374   21.5204 C   0  0  0  0  0  0
  -18.1911  -26.7901   22.1619 C   0  0  0  0  0  0
  -19.1510  -28.8817   23.2906 C   0  0  0  0  0  0
  -18.9441  -30.1425   23.8917 C   0  0  0  0  0  0
  -17.6446  -30.6568   24.0566 C   0  0  0  0  0  0
  -25.9026  -34.9481   23.5151 C   0  0  0  0  0  0
  -16.5337  -29.9074   23.6318 C   0  0  0  0  0  0
  -16.7253  -28.6483   23.0351 C   0  0  0  0  0  0
  -26.4462  -31.6597   25.0723 C   0  0  0  0  0  0
  -25.3740  -31.3676   26.1486 C   0  0  0  0  0  0
  -27.0293  -30.3047   24.6074 C   0  0  0  0  0  0
  -27.6051  -32.4302   25.7474 C   0  0  0  0  0  0
  -27.5583  -37.1820   24.8465 C   0  0  0  0  0  0
  -21.4117  -29.3024   22.3742 N   0  0  0  0  0  0
  -26.4299  -37.3807   23.9407 N   0  0  0  0  0  0
  -24.6646  -31.0809   22.1009 N   0  0  0  0  0  0
  -23.4172  -28.8206   23.3032 O   0  0  0  0  0  0
  -28.4200  -26.7493   20.0963 O   0  0  0  0  0  0
  -26.5592  -34.8925   22.4717 O   0  0  0  0  0  0
  -23.5323  -32.1421   23.7526 O   0  0  0  0  0  0
  -29.2891  -18.0781   22.2646 C   0  0  0  0  0  0
  -29.2102  -19.2387   23.0607 C   0  0  0  0  0  0
  -30.8373  -19.2294   20.7798 C   0  0  0  0  0  0
  -30.7671  -20.3980   21.5746 C   0  0  0  0  0  0
  -30.1077  -18.0653   21.1154 C   0  0  0  0  0  0
  -29.9452  -20.3940   22.7258 C   0  0  0  0  0  0
  -31.6127  -21.5482   21.2168 C   0  0  0  0  0  0
  -30.1917  -16.8550   20.1898 C   0  0  0  0  0  0
  -29.7486  -24.7820   20.5518 C   0  0  0  0  0  0
  -29.7808  -23.3031   20.9877 C   0  0  0  0  0  0
  -28.3327  -25.3450   20.3458 C   0  0  0  0  0  0
  -32.9184  -21.3451   21.0411 N   0  0  0  0  0  0
  -29.9384  -15.5310   20.7807 N   0  0  0  0  0  0
  -31.1692  -22.8035   21.0124 N   0  3  0  0  0  0
  -29.8752  -21.4764   23.5391 F   0  0  0  0  0  0
  -31.4641  -12.3593   19.1331 H   0  0  0  0  0  0
  -30.3014  -11.2768   19.8393 H   0  0  0  0  0  0
  -29.7279  -11.7555   17.4365 H   0  0  0  0  0  0
  -29.6715  -13.4686   17.7726 H   0  0  0  0  0  0
  -27.8216  -11.3008   18.8294 H   0  0  0  0  0  0
  -27.3648  -12.6213   17.7907 H   0  0  0  0  0  0
  -27.6974  -14.2494   19.5573 H   0  0  0  0  0  0
  -28.6694  -11.9875   21.3791 H   0  0  0  0  0  0
  -28.4821  -13.6524   21.8541 H   0  0  0  0  0  0
  -25.2764   -9.5667   22.4764 H   0  0  0  0  0  0
  -24.0002   -7.4622   22.7461 H   0  0  0  0  0  0
  -21.0846   -8.8776   19.8949 H   0  0  0  0  0  0
  -22.3707  -10.9678   19.6163 H   0  0  0  0  0  0
  -21.2005   -7.6150   23.9725 H   0  0  0  0  0  0
  -21.1479   -6.0522   25.9083 H   0  0  0  0  0  0
  -22.0600   -2.7612   23.2850 H   0  0  0  0  0  0
  -22.4116  -11.9871   22.4778 H   0  0  0  0  0  0
  -21.1126  -13.1247   22.2642 H   0  0  0  0  0  0
  -24.6614  -15.8408   20.5097 H   0  0  0  0  0  0
  -26.2754  -15.6255   20.0609 H   0  0  0  0  0  0
  -26.7103  -32.5550   23.1181 H   0  0  0  0  0  0
  -25.0017  -33.9786   25.0485 H   0  0  0  0  0  0
  -22.6890  -31.3106   21.4137 H   0  0  0  0  0  0
  -23.3739  -35.9670   23.3315 H   0  0  0  0  0  0
  -24.3594  -36.8928   22.2056 H   0  0  0  0  0  0
  -23.7235  -37.6538   23.6643 H   0  0  0  0  0  0
  -26.0323  -31.6097   20.5918 H   0  0  0  0  0  0
  -26.8177  -30.8987   21.9734 H   0  0  0  0  0  0
  -28.1046  -29.1365   21.1309 H   0  0  0  0  0  0
  -26.0490  -25.9723   19.0273 H   0  0  0  0  0  0
  -23.9731  -27.2854   19.0560 H   0  0  0  0  0  0
  -23.7105  -30.5953   19.4058 H   0  0  0  0  0  0
  -22.7317  -29.2380   19.8747 H   0  0  0  0  0  0
  -25.1280  -36.2017   25.0838 H   0  0  0  0  0  0
  -20.9940  -28.3200   24.1442 H   0  0  0  0  0  0
  -20.5624  -26.2252   23.3597 H   0  0  0  0  0  0
  -21.6623  -26.7411   22.1230 H   0  0  0  0  0  0
  -19.6896  -25.6291   21.1215 H   0  0  0  0  0  0
  -19.6668  -27.3201   20.6746 H   0  0  0  0  0  0
  -17.4179  -26.6644   21.4026 H   0  0  0  0  0  0
  -18.0328  -26.0031   22.9003 H   0  0  0  0  0  0
  -19.7924  -30.7230   24.2291 H   0  0  0  0  0  0
  -17.5007  -31.6252   24.5161 H   0  0  0  0  0  0
  -15.5341  -30.2993   23.7617 H   0  0  0  0  0  0
  -15.8649  -28.0813   22.7061 H   0  0  0  0  0  0
  -24.5908  -30.7034   25.7819 H   0  0  0  0  0  0
  -24.8930  -32.2819   26.4976 H   0  0  0  0  0  0
  -25.8099  -30.8814   27.0221 H   0  0  0  0  0  0
  -26.2834  -29.6805   24.1141 H   0  0  0  0  0  0
  -27.4105  -29.7280   25.4509 H   0  0  0  0  0  0
  -27.8645  -30.4392   23.9190 H   0  0  0  0  0  0
  -27.2696  -33.3587   26.2105 H   0  0  0  0  0  0
  -28.3823  -32.6883   25.0267 H   0  0  0  0  0  0
  -28.0765  -31.8387   26.5339 H   0  0  0  0  0  0
  -28.2616  -38.0103   24.7514 H   0  0  0  0  0  0
  -28.1058  -36.2636   24.6292 H   0  0  0  0  0  0
  -27.2299  -37.1484   25.8867 H   0  0  0  0  0  0
  -20.9262  -29.8772   21.6996 H   0  0  0  0  0  0
  -26.0192  -38.2888   24.1394 H   0  0  0  0  0  0
  -28.7137  -17.2068   22.5407 H   0  0  0  0  0  0
  -28.5880  -19.2406   23.9420 H   0  0  0  0  0  0
  -31.4622  -19.2281   19.8965 H   0  0  0  0  0  0
  -31.1598  -16.8885   19.6872 H   0  0  0  0  0  0
  -29.4598  -17.0017   19.3944 H   0  0  0  0  0  0
  -30.3119  -24.9093   19.6267 H   0  0  0  0  0  0
  -30.2572  -25.3813   21.3079 H   0  0  0  0  0  0
  -29.1910  -22.6996   20.2955 H   0  0  0  0  0  0
  -29.3218  -23.2043   21.9719 H   0  0  0  0  0  0
  -27.7271  -25.1653   21.2367 H   0  0  0  0  0  0
  -27.8622  -24.8272   19.5097 H   0  0  0  0  0  0
  -33.2941  -20.4222   21.2048 H   0  0  0  0  0  0
  -33.5629  -22.0683   20.7640 H   0  0  0  0  0  0
  -28.9947  -15.3341   21.0735 H   0  0  0  0  0  0
  -31.8627  -23.5208   20.8587 H   0  0  0  0  0  0
  1 25  1  0  0  0
  1 30  2  0  0  0
  1 83  1  0  0  0
  2  3  1  0  0  0
  2 25  1  0  0  0
  2 86  1  0  0  0
  2 87  1  0  0  0
  3  4  1  0  0  0
  3 88  1  0  0  0
  3 89  1  0  0  0
  4  5  1  0  0  0
  4 90  1  0  0  0
  4 91  1  0  0  0
  5  6  1  0  0  0
  5 26  1  0  0  0
  5 92  1  0  0  0
  6 25  1  0  0  0
  6 93  1  0  0  0
  6 94  1  0  0  0
  7  8  2  0  0  0
  7 26  1  0  0  0
  7 29  1  0  0  0
  8  9  1  0  0  0
  8 22  1  0  0  0
  9 10  1  0  0  0
  9 27  2  0  0  0
 10 11  2  0  0  0
 10 15  1  0  0  0
 11 12  1  0  0  0
 11 95  1  0  0  0
 12 13  2  0  0  0
 12 96  1  0  0  0
 13 14  1  0  0  0
 13 31  1  0  0  0
 14 15  2  0  0  0
 14 97  1  0  0  0
 15 98  1  0  0  0
 16 17  2  0  0  0
 16 21  1  0  0  0
 16 31  1  0  0  0
 17 18  1  0  0  0
 17 99  1  0  0  0
 18 19  2  0  0  0
 18100  1  0  0  0
 19 20  1  0  0  0
 19 24  1  0  0  0
 20 21  2  0  0  0
 20101  1  0  0  0
 21 23  1  0  0  0
 22 28  1  0  0  0
 22 32  2  0  0  0
 26 27  1  0  0  0
 28102  1  0  0  0
 28103  1  0  0  0
 29104  1  0  0  0
 29105  1  0  0  0
 33 34  1  0  0  0
 33 66  1  0  0  0
 33 70  2  0  0  0
 34 36  1  0  0  0
 34 59  1  0  0  0
 34106  1  0  0  0
 35 44  2  0  0  0
 35 45  1  0  0  0
 35 68  1  0  0  0
 36 56  1  0  0  0
 36107  1  0  0  0
 37 39  1  0  0  0
 37 47  1  0  0  0
 37 66  1  0  0  0
 37108  1  0  0  0
 38 43  2  0  0  0
 38 46  1  0  0  0
 38 47  1  0  0  0
 39 64  1  0  0  0
 39 67  2  0  0  0
 40 52  1  0  0  0
 40 53  2  0  0  0
 40 58  1  0  0  0
 41109  1  0  0  0
 41110  1  0  0  0
 41111  1  0  0  0
 41 48  1  0  0  0
 42 43  1  0  0  0
 42 66  1  0  0  0
 42112  1  0  0  0
 42113  1  0  0  0
 43 44  1  0  0  0
 44114  1  0  0  0
 45 46  2  0  0  0
 45115  1  0  0  0
 46116  1  0  0  0
 47117  1  0  0  0
 47118  1  0  0  0
 48 56  1  0  0  0
 48 65  1  0  0  0
 48119  1  0  0  0
 49 50  1  0  0  0
 49 53  1  0  0  0
 49 64  1  0  0  0
 49120  1  0  0  0
 50 51  1  0  0  0
 50121  1  0  0  0
 50122  1  0  0  0
 51 52  1  0  0  0
 51123  1  0  0  0
 51124  1  0  0  0
 52125  1  0  0  0
 52126  1  0  0  0
 53 54  1  0  0  0
 54 55  2  0  0  0
 54127  1  0  0  0
 55 57  1  0  0  0
 55128  1  0  0  0
 56 69  2  0  0  0
 57 58  2  0  0  0
 57129  1  0  0  0
 58130  1  0  0  0
 59 60  1  0  0  0
 59 61  1  0  0  0
 59 62  1  0  0  0
 60131  1  0  0  0
 60132  1  0  0  0
 60133  1  0  0  0
 61134  1  0  0  0
 61135  1  0  0  0
 61136  1  0  0  0
 62137  1  0  0  0
 62138  1  0  0  0
 62139  1  0  0  0
 63 65  1  0  0  0
 63140  1  0  0  0
 63141  1  0  0  0
 63142  1  0  0  0
 64143  1  0  0  0
 65144  1  0  0  0
 68 81  1  0  0  0
 71 72  2  0  0  0
 71 75  1  0  0  0
 71145  1  0  0  0
 72 76  1  0  0  0
 72146  1  0  0  0
 73 74  1  0  0  0
 73 75  2  0  0  0
 73147  1  0  0  0
 74 76  2  0  0  0
 74 77  1  0  0  0
 75 78  1  0  0  0
 76 85  1  0  0  0
 77 82  1  0  0  0
 77 84  2  0  0  0
 78 83  1  0  0  0
 78148  1  0  0  0
 78149  1  0  0  0
 79 80  1  0  0  0
 79 81  1  0  0  0
 79150  1  0  0  0
 79151  1  0  0  0
 80 84  1  0  0  0
 80152  1  0  0  0
 80153  1  0  0  0
 81154  1  0  0  0
 81155  1  0  0  0
 82156  1  0  0  0
 82157  1  0  0  0
 83158  1  0  0  0
 84159  1  0  0  0
M  CHG  1  84   1
M  ISO  4   1 100  68 101  81 101  83 100
M  END
> <chiral flag>
0

> <version>
0

> <s_m_source_file>
/data/baiqing/PycharmProjects/Reinvent-master-3.2/result/LINK_invent/BTK/process_docking_weight1_custom_product_contain_oxygen_bond_distance_aromatic_linkinvent_7_9_3/rearranged_h_0033.sdf

> <i_m_source_file_index>
65

> <r_mmod_Potential_Energy-OPLS-2005>
-246.549453735352

> <r_mmod_Stretch_Energy-OPLS-2005>
33.7459907531738

> <r_mmod_Bend_Energy-OPLS-2005>
94.82373046875

> <r_mmod_Torsional_Energy-OPLS-2005>
219.602340698242

> <r_mmod_Improper_Torsional_Energy-OPLS-2005>
8.95941543579102

> <r_mmod_Van_der_Waal_Energy-OPLS-2005>
154.568954467773

> <r_mmod_Electrostatic_Energy-OPLS-2005>
-352.338989257812

> <r_mmod_Solvation_Energy-OPLS-2005>
-419.677551269531

> <b_mmod_Minimization_Converged-OPLS-2005>
0

> <r_mmod_RMS_Derivative-OPLS-2005>
1.43457102775574

$$$$
65
                    3D
 Structure written by MMmdl.
166175  0  0  1  0            999 V2000
  -30.5817  -14.6462   20.4685 C   0  0  0  0  0  0
  -30.4443  -12.3833   19.4483 C   0  0  0  0  0  0
  -29.5100  -12.5043   18.2218 C   0  0  0  0  0  0
  -28.0308  -12.3414   18.6326 C   0  0  0  0  0  0
  -27.6530  -13.2102   19.8603 C   0  0  2  0  0  0
  -28.6978  -13.0404   20.9861 C   0  0  0  0  0  0
  -25.2558  -13.8174   20.5684 C   0  0  0  0  0  0
  -24.1823  -13.0455   20.9215 C   0  0  0  0  0  0
  -24.6367  -11.6911   20.8753 C   0  0  0  0  0  0
  -23.9037  -10.4301   21.0410 C   0  0  0  0  0  0
  -24.3591   -9.4205   21.9174 C   0  0  0  0  0  0
  -23.6277   -8.2233   22.0734 C   0  0  0  0  0  0
  -22.4257   -8.0273   21.3537 C   0  0  0  0  0  0
  -21.9889   -9.0244   20.4638 C   0  0  0  0  0  0
  -22.7215  -10.2125   20.3047 C   0  0  0  0  0  0
  -21.6847   -6.0732   22.5279 C   0  0  0  0  0  0
  -21.4023   -6.5632   23.8218 C   0  0  0  0  0  0
  -21.3656   -5.6777   24.9175 C   0  0  0  0  0  0
  -21.6033   -4.3044   24.7218 C   0  0  0  0  0  0
  -21.8818   -3.8138   23.4344 C   0  0  0  0  0  0
  -21.9195   -4.6961   22.3404 C   0  0  0  0  0  0
  -22.7837  -13.5231   21.1886 C   0  0  0  0  0  0
  -22.1659   -4.2148   21.0979 F   0  0  0  0  0  0
  -21.5625   -3.4521   25.7731 F   0  0  0  0  0  0
  -30.0160  -13.3964   20.4320 N   0  0  0  0  0  0
  -26.2972  -12.9332   20.3288 N   0  0  0  0  0  0
  -25.9287  -11.6502   20.5743 N   0  0  0  0  0  0
  -22.0450  -12.8233   22.0435 N   0  0  0  0  0  0
  -25.4334  -15.1882   20.4084 N   0  0  0  0  0  0
  -31.7385  -14.8428   20.0825 O   0  0  0  0  0  0
  -21.6633   -6.8859   21.4236 O   0  0  0  0  0  0
  -22.3518  -14.5521   20.6696 O   0  0  0  0  0  0
  -24.6212  -31.8610   23.2024 C   0  0  0  0  0  0
  -25.9062  -32.4769   23.8345 C   0  0  1  0  0  0
  -27.2331  -27.3458   20.1367 C   0  0  0  0  0  0
  -25.5873  -33.8571   24.2275 N   0  0  0  0  0  0
  -23.4126  -30.4809   21.5447 C   0  0  2  0  0  0
  -24.8620  -28.9277   20.1215 C   0  0  0  0  0  0
  -22.7432  -29.4628   22.4956 C   0  0  0  0  0  0
  -18.0278  -28.1393   22.8490 C   0  0  0  0  0  0
  -24.1480  -36.7310   23.2652 C   0  0  0  0  0  0
  -25.9484  -30.8009   21.3696 C   0  0  0  0  0  0
  -26.0253  -29.4253   20.7238 C   0  0  0  0  0  0
  -27.2161  -28.6470   20.7170 C   0  0  0  0  0  0
  -26.0499  -26.8762   19.5319 C   0  0  0  0  0  0
  -24.8745  -27.6560   19.5186 C   0  0  0  0  0  0
  -23.6262  -29.8037   20.1631 C   0  0  0  0  0  0
  -25.4113  -36.3081   24.0333 C   0  0  1  0  0  0
  -20.5871  -28.3673   23.1301 C   0  0  2  0  0  0
  -20.6770  -26.9399   22.5422 C   0  0  0  0  0  0
  -19.5741  -26.6385   21.5227 C   0  0  0  0  0  0
  -18.1916  -26.7932   22.1631 C   0  0  0  0  0  0
  -19.1526  -28.8851   23.2888 C   0  0  0  0  0  0
  -18.9462  -30.1461   23.8885 C   0  0  0  0  0  0
  -17.6461  -30.6591   24.0572 C   0  0  0  0  0  0
  -25.9032  -34.9437   23.5107 C   0  0  0  0  0  0
  -16.5355  -29.9090   23.6342 C   0  0  0  0  0  0
  -16.7261  -28.6521   23.0343 C   0  0  0  0  0  0
  -26.4452  -31.6580   25.0708 C   0  0  0  0  0  0
  -25.3704  -31.3739   26.1447 C   0  0  0  0  0  0
  -27.0357  -30.3022   24.6165 C   0  0  0  0  0  0
  -27.5982  -32.4340   25.7489 C   0  0  0  0  0  0
  -27.5578  -37.1803   24.8451 C   0  0  0  0  0  0
  -21.4153  -29.3028   22.3701 N   0  0  0  0  0  0
  -26.4289  -37.3769   23.9391 N   0  0  0  0  0  0
  -24.6789  -31.0638   22.0968 N   0  0  0  0  0  0
  -23.4177  -28.8199   23.3041 O   0  0  0  0  0  0
  -28.3900  -26.5752   20.0602 O   0  0  0  0  0  0
  -26.5614  -34.8904   22.4679 O   0  0  0  0  0  0
  -23.5380  -32.1383   23.7375 O   0  0  0  0  0  0
  -29.6193  -19.3091   19.5120 C   0  0  0  0  0  0
  -28.5934  -19.1478   21.6700 C   0  0  0  0  0  0
  -28.9226  -19.9676   20.5640 C   0  0  0  0  0  0
  -29.9583  -17.9124   19.5489 C   0  0  0  0  0  0
  -29.6326  -17.1042   20.6913 C   0  0  0  0  0  0
  -28.9391  -17.7720   21.7372 C   0  0  0  0  0  0
  -29.9075  -25.4415   21.4510 C   0  0  0  0  0  0
  -30.2847  -24.2318   22.3174 C   0  0  0  0  0  0
  -28.4233  -23.9429   20.0555 C   0  0  0  0  0  0
  -28.5137  -25.3321   20.8314 C   0  0  2  0  0  0
  -29.4001  -22.9696   22.1495 C   0  0  2  0  0  0
  -30.5755  -17.3352   18.2838 C   0  0  0  0  0  0
  -30.1222  -21.8143   22.8675 C   0  0  0  0  0  0
  -28.3035  -21.4164   20.4178 C   0  0  0  0  0  0
  -29.7226  -15.6455   20.8313 N   0  0  0  0  0  0
  -29.0654  -22.7081   20.7094 N   0  3  1  0  0  0
  -28.3999  -16.8723   23.1147 Cl  0  0  0  0  0  0
  -31.4852  -12.5192   19.1473 H   0  0  0  0  0  0
  -30.3855  -11.3815   19.8775 H   0  0  0  0  0  0
  -29.7704  -11.7542   17.4731 H   0  0  0  0  0  0
  -29.6544  -13.4767   17.7468 H   0  0  0  0  0  0
  -27.8681  -11.2902   18.8729 H   0  0  0  0  0  0
  -27.3754  -12.5637   17.7901 H   0  0  0  0  0  0
  -27.6764  -14.2465   19.5245 H   0  0  0  0  0  0
  -28.7050  -12.0089   21.3386 H   0  0  0  0  0  0
  -28.4399  -13.6450   21.8557 H   0  0  0  0  0  0
  -25.2727   -9.5694   22.4761 H   0  0  0  0  0  0
  -24.0003   -7.4609   22.7425 H   0  0  0  0  0  0
  -21.0827   -8.8751   19.8928 H   0  0  0  0  0  0
  -22.3663  -10.9664   19.6160 H   0  0  0  0  0  0
  -21.2018   -7.6141   23.9731 H   0  0  0  0  0  0
  -21.1481   -6.0502   25.9082 H   0  0  0  0  0  0
  -22.0603   -2.7601   23.2842 H   0  0  0  0  0  0
  -22.4040  -11.9921   22.4904 H   0  0  0  0  0  0
  -21.1045  -13.1266   22.2566 H   0  0  0  0  0  0
  -24.6758  -15.8530   20.5220 H   0  0  0  0  0  0
  -26.2851  -15.6156   20.0673 H   0  0  0  0  0  0
  -26.7142  -32.5451   23.1118 H   0  0  0  0  0  0
  -24.9975  -33.9718   25.0383 H   0  0  0  0  0  0
  -22.7040  -31.3001   21.4011 H   0  0  0  0  0  0
  -23.3721  -35.9661   23.3313 H   0  0  0  0  0  0
  -24.3560  -36.8925   22.2061 H   0  0  0  0  0  0
  -23.7255  -37.6523   23.6669 H   0  0  0  0  0  0
  -26.0733  -31.5645   20.5998 H   0  0  0  0  0  0
  -26.8319  -30.8537   21.9945 H   0  0  0  0  0  0
  -28.1188  -29.0361   21.1675 H   0  0  0  0  0  0
  -26.0384  -25.9043   19.0576 H   0  0  0  0  0  0
  -23.9818  -27.2684   19.0454 H   0  0  0  0  0  0
  -23.7351  -30.5738   19.3993 H   0  0  0  0  0  0
  -22.7481  -29.2261   19.8702 H   0  0  0  0  0  0
  -25.1306  -36.1935   25.0834 H   0  0  0  0  0  0
  -20.9962  -28.3248   24.1424 H   0  0  0  0  0  0
  -20.5686  -26.2272   23.3617 H   0  0  0  0  0  0
  -21.6639  -26.7454   22.1212 H   0  0  0  0  0  0
  -19.6897  -25.6299   21.1246 H   0  0  0  0  0  0
  -19.6686  -27.3205   20.6770 H   0  0  0  0  0  0
  -17.4201  -26.6677   21.4026 H   0  0  0  0  0  0
  -18.0312  -26.0084   22.9036 H   0  0  0  0  0  0
  -19.7943  -30.7284   24.2229 H   0  0  0  0  0  0
  -17.5028  -31.6264   24.5183 H   0  0  0  0  0  0
  -15.5357  -30.2997   23.7681 H   0  0  0  0  0  0
  -15.8663  -28.0854   22.7042 H   0  0  0  0  0  0
  -24.5772  -30.7236   25.7758 H   0  0  0  0  0  0
  -24.9043  -32.2951   26.4969 H   0  0  0  0  0  0
  -25.8007  -30.8798   27.0164 H   0  0  0  0  0  0
  -26.2935  -29.6694   24.1277 H   0  0  0  0  0  0
  -27.4176  -29.7338   25.4658 H   0  0  0  0  0  0
  -27.8730  -30.4336   23.9314 H   0  0  0  0  0  0
  -27.2548  -33.3613   26.2091 H   0  0  0  0  0  0
  -28.3767  -32.6955   25.0309 H   0  0  0  0  0  0
  -28.0674  -31.8482   26.5401 H   0  0  0  0  0  0
  -28.2602  -38.0093   24.7480 H   0  0  0  0  0  0
  -28.1064  -36.2620   24.6296 H   0  0  0  0  0  0
  -27.2285  -37.1482   25.8850 H   0  0  0  0  0  0
  -20.9314  -29.8720   21.6897 H   0  0  0  0  0  0
  -26.0173  -38.2843   24.1381 H   0  0  0  0  0  0
  -29.8203  -19.8676   18.6076 H   0  0  0  0  0  0
  -27.9984  -19.5565   22.4735 H   0  0  0  0  0  0
  -30.6314  -25.5448   20.6415 H   0  0  0  0  0  0
  -29.9905  -26.3542   22.0446 H   0  0  0  0  0  0
  -30.2448  -24.5353   23.3646 H   0  0  0  0  0  0
  -31.3323  -23.9849   22.1317 H   0  0  0  0  0  0
  -28.8878  -24.0544   19.0767 H   0  0  0  0  0  0
  -27.3678  -23.7513   19.8588 H   0  0  0  0  0  0
  -27.7749  -25.3440   21.6343 H   0  0  0  0  0  0
  -28.4587  -23.1416   22.6755 H   0  0  0  0  0  0
  -31.6213  -17.6378   18.2010 H   0  0  0  0  0  0
  -30.0492  -17.7247   17.4094 H   0  0  0  0  0  0
  -30.5216  -16.2496   18.2244 H   0  0  0  0  0  0
  -30.8855  -21.3476   22.2436 H   0  0  0  0  0  0
  -29.4246  -21.0593   23.2122 H   0  0  0  0  0  0
  -30.6225  -22.1700   23.7699 H   0  0  0  0  0  0
  -27.3950  -21.4441   21.0222 H   0  0  0  0  0  0
  -27.9511  -21.4734   19.3863 H   0  0  0  0  0  0
  -28.9360  -15.2719   21.3414 H   0  0  0  0  0  0
  -29.9525  -22.5904   20.2415 H   0  0  0  0  0  0
  1 25  1  0  0  0
  1 30  2  0  0  0
  1 85  1  0  0  0
  2  3  1  0  0  0
  2 25  1  0  0  0
  2 88  1  0  0  0
  2 89  1  0  0  0
  3  4  1  0  0  0
  3 90  1  0  0  0
  3 91  1  0  0  0
  4  5  1  0  0  0
  4 92  1  0  0  0
  4 93  1  0  0  0
  5  6  1  0  0  0
  5 26  1  0  0  0
  5 94  1  0  0  0
  6 25  1  0  0  0
  6 95  1  0  0  0
  6 96  1  0  0  0
  7  8  2  0  0  0
  7 26  1  0  0  0
  7 29  1  0  0  0
  8  9  1  0  0  0
  8 22  1  0  0  0
  9 10  1  0  0  0
  9 27  2  0  0  0
 10 11  2  0  0  0
 10 15  1  0  0  0
 11 12  1  0  0  0
 11 97  1  0  0  0
 12 13  2  0  0  0
 12 98  1  0  0  0
 13 14  1  0  0  0
 13 31  1  0  0  0
 14 15  2  0  0  0
 14 99  1  0  0  0
 15100  1  0  0  0
 16 17  2  0  0  0
 16 21  1  0  0  0
 16 31  1  0  0  0
 17 18  1  0  0  0
 17101  1  0  0  0
 18 19  2  0  0  0
 18102  1  0  0  0
 19 20  1  0  0  0
 19 24  1  0  0  0
 20 21  2  0  0  0
 20103  1  0  0  0
 21 23  1  0  0  0
 22 28  1  0  0  0
 22 32  2  0  0  0
 26 27  1  0  0  0
 28104  1  0  0  0
 28105  1  0  0  0
 29106  1  0  0  0
 29107  1  0  0  0
 33 34  1  0  0  0
 33 66  1  0  0  0
 33 70  2  0  0  0
 34 36  1  0  0  0
 34 59  1  0  0  0
 34108  1  0  0  0
 35 44  2  0  0  0
 35 45  1  0  0  0
 35 68  1  0  0  0
 36 56  1  0  0  0
 36109  1  0  0  0
 37 39  1  0  0  0
 37 47  1  0  0  0
 37 66  1  0  0  0
 37110  1  0  0  0
 38 43  2  0  0  0
 38 46  1  0  0  0
 38 47  1  0  0  0
 39 64  1  0  0  0
 39 67  2  0  0  0
 40 52  1  0  0  0
 40 53  2  0  0  0
 40 58  1  0  0  0
 41111  1  0  0  0
 41112  1  0  0  0
 41113  1  0  0  0
 41 48  1  0  0  0
 42 43  1  0  0  0
 42 66  1  0  0  0
 42114  1  0  0  0
 42115  1  0  0  0
 43 44  1  0  0  0
 44116  1  0  0  0
 45 46  2  0  0  0
 45117  1  0  0  0
 46118  1  0  0  0
 47119  1  0  0  0
 47120  1  0  0  0
 48 56  1  0  0  0
 48 65  1  0  0  0
 48121  1  0  0  0
 49 50  1  0  0  0
 49 53  1  0  0  0
 49 64  1  0  0  0
 49122  1  0  0  0
 50 51  1  0  0  0
 50123  1  0  0  0
 50124  1  0  0  0
 51 52  1  0  0  0
 51125  1  0  0  0
 51126  1  0  0  0
 52127  1  0  0  0
 52128  1  0  0  0
 53 54  1  0  0  0
 54 55  2  0  0  0
 54129  1  0  0  0
 55 57  1  0  0  0
 55130  1  0  0  0
 56 69  2  0  0  0
 57 58  2  0  0  0
 57131  1  0  0  0
 58132  1  0  0  0
 59 60  1  0  0  0
 59 61  1  0  0  0
 59 62  1  0  0  0
 60133  1  0  0  0
 60134  1  0  0  0
 60135  1  0  0  0
 61136  1  0  0  0
 61137  1  0  0  0
 61138  1  0  0  0
 62139  1  0  0  0
 62140  1  0  0  0
 62141  1  0  0  0
 63 65  1  0  0  0
 63142  1  0  0  0
 63143  1  0  0  0
 63144  1  0  0  0
 64145  1  0  0  0
 65146  1  0  0  0
 68 80  1  0  0  0
 71 73  2  0  0  0
 71 74  1  0  0  0
 71147  1  0  0  0
 72 73  1  0  0  0
 72 76  2  0  0  0
 72148  1  0  0  0
 73 84  1  0  0  0
 74 75  2  0  0  0
 74 82  1  0  0  0
 75 76  1  0  0  0
 75 85  1  0  0  0
 76 87  1  0  0  0
 77 78  1  0  0  0
 77 80  1  0  0  0
 77149  1  0  0  0
 77150  1  0  0  0
 78 81  1  0  0  0
 78151  1  0  0  0
 78152  1  0  0  0
 79 80  1  0  0  0
 79 86  1  0  0  0
 79153  1  0  0  0
 79154  1  0  0  0
 80155  1  0  0  0
 81 83  1  0  0  0
 81 86  1  0  0  0
 81156  1  0  0  0
 82157  1  0  0  0
 82158  1  0  0  0
 82159  1  0  0  0
 83160  1  0  0  0
 83161  1  0  0  0
 83162  1  0  0  0
 84163  1  0  0  0
 84164  1  0  0  0
 84 86  1  0  0  0
 85165  1  0  0  0
 86166  1  0  0  0
M  CHG  1  86   1
M  ISO  4   1 100  68 101  80 101  85 100
M  END
> <chiral flag>
0

> <version>
0

> <s_m_source_file>
/data/baiqing/PycharmProjects/Reinvent-master-3.2/result/LINK_invent/BTK/process_docking_weight1_custom_product_contain_oxygen_bond_distance_aromatic_linkinvent_7_9_3/rearranged_h_0033.sdf

> <i_m_source_file_index>
66

> <r_mmod_Potential_Energy-OPLS-2005>
42.4897613525391

> <r_mmod_Stretch_Energy-OPLS-2005>
82.0941314697266

> <r_mmod_Bend_Energy-OPLS-2005>
179.11540222168

> <r_mmod_Torsional_Energy-OPLS-2005>
306.323425292969

> <r_mmod_Improper_Torsional_Energy-OPLS-2005>
6.84373331069946

> <r_mmod_Van_der_Waal_Energy-OPLS-2005>
142.972778320312

> <r_mmod_Electrostatic_Energy-OPLS-2005>
-293.768127441406

> <r_mmod_Solvation_Energy-OPLS-2005>
-422.883544921875

> <b_mmod_Minimization_Converged-OPLS-2005>
0

> <r_mmod_RMS_Derivative-OPLS-2005>
3.36577081680298

$$$$
66
                    3D
 Structure written by MMmdl.
167176  0  0  1  0            999 V2000
  -30.7598  -14.4287   20.5606 C   0  0  0  0  0  0
  -30.3883  -12.2627   19.4663 C   0  0  0  0  0  0
  -29.5030  -12.5125   18.2282 C   0  0  0  0  0  0
  -28.0225  -12.3751   18.6288 C   0  0  0  0  0  0
  -27.6589  -13.2225   19.8801 C   0  0  2  0  0  0
  -28.6951  -13.0472   21.0186 C   0  0  0  0  0  0
  -25.2547  -13.8230   20.5716 C   0  0  0  0  0  0
  -24.1807  -13.0492   20.9202 C   0  0  0  0  0  0
  -24.6387  -11.6962   20.8752 C   0  0  0  0  0  0
  -23.9089  -10.4332   21.0419 C   0  0  0  0  0  0
  -24.3652   -9.4230   21.9212 C   0  0  0  0  0  0
  -23.6290   -8.2271   22.0798 C   0  0  0  0  0  0
  -22.4271   -8.0332   21.3588 C   0  0  0  0  0  0
  -21.9926   -9.0307   20.4682 C   0  0  0  0  0  0
  -22.7272  -10.2167   20.3052 C   0  0  0  0  0  0
  -21.6852   -6.0774   22.5296 C   0  0  0  0  0  0
  -21.4061   -6.5677   23.8235 C   0  0  0  0  0  0
  -21.3642   -5.6807   24.9180 C   0  0  0  0  0  0
  -21.6001   -4.3062   24.7221 C   0  0  0  0  0  0
  -21.8804   -3.8180   23.4328 C   0  0  0  0  0  0
  -21.9171   -4.7011   22.3387 C   0  0  0  0  0  0
  -22.7810  -13.5282   21.1811 C   0  0  0  0  0  0
  -22.1630   -4.2207   21.0966 F   0  0  0  0  0  0
  -21.5603   -3.4523   25.7730 F   0  0  0  0  0  0
  -30.0306  -13.2906   20.4593 N   0  0  0  0  0  0
  -26.2999  -12.9421   20.3402 N   0  0  0  0  0  0
  -25.9334  -11.6566   20.5784 N   0  0  0  0  0  0
  -22.0361  -12.8348   22.0354 N   0  0  0  0  0  0
  -25.4237  -15.1942   20.4134 N   0  0  0  0  0  0
  -31.9062  -14.5127   20.1041 O   0  0  0  0  0  0
  -21.6623   -6.8926   21.4267 O   0  0  0  0  0  0
  -22.3513  -14.5558   20.6604 O   0  0  0  0  0  0
  -24.6095  -31.8721   23.2142 C   0  0  0  0  0  0
  -25.8994  -32.4804   23.8413 C   0  0  1  0  0  0
  -27.2113  -27.4689   20.0859 C   0  0  0  0  0  0
  -25.5843  -33.8608   24.2317 N   0  0  0  0  0  0
  -23.3968  -30.4971   21.5548 C   0  0  2  0  0  0
  -24.8440  -28.9839   20.1023 C   0  0  0  0  0  0
  -22.7388  -29.4677   22.4996 C   0  0  0  0  0  0
  -18.0265  -28.1370   22.8530 C   0  0  0  0  0  0
  -24.1502  -36.7375   23.2651 C   0  0  0  0  0  0
  -25.9265  -30.8459   21.3726 C   0  0  0  0  0  0
  -26.0038  -29.4973   20.6960 C   0  0  0  0  0  0
  -27.2012  -28.7483   20.6818 C   0  0  0  0  0  0
  -26.0491  -26.9722   19.4661 C   0  0  0  0  0  0
  -24.8604  -27.7218   19.4847 C   0  0  0  0  0  0
  -23.6021  -29.8447   20.1633 C   0  0  0  0  0  0
  -25.4109  -36.3101   24.0342 C   0  0  1  0  0  0
  -20.5857  -28.3668   23.1338 C   0  0  2  0  0  0
  -20.6754  -26.9397   22.5444 C   0  0  0  0  0  0
  -19.5723  -26.6380   21.5239 C   0  0  0  0  0  0
  -18.1894  -26.7927   22.1632 C   0  0  0  0  0  0
  -19.1510  -28.8833   23.2916 C   0  0  0  0  0  0
  -18.9437  -30.1439   23.8940 C   0  0  0  0  0  0
  -17.6440  -30.6579   24.0591 C   0  0  0  0  0  0
  -25.9041  -34.9460   23.5133 C   0  0  0  0  0  0
  -16.5337  -29.9092   23.6334 C   0  0  0  0  0  0
  -16.7255  -28.6496   23.0375 C   0  0  0  0  0  0
  -26.4433  -31.6563   25.0740 C   0  0  0  0  0  0
  -25.3724  -31.3641   26.1504 C   0  0  0  0  0  0
  -27.0233  -30.2972   24.6145 C   0  0  0  0  0  0
  -27.6010  -32.4308   25.7472 C   0  0  0  0  0  0
  -27.5584  -37.1829   24.8441 C   0  0  0  0  0  0
  -21.4126  -29.3031   22.3746 N   0  0  0  0  0  0
  -26.4284  -37.3787   23.9405 N   0  0  0  0  0  0
  -24.6609  -31.0843   22.1010 N   0  0  0  0  0  0
  -23.4194  -28.8221   23.3037 O   0  0  0  0  0  0
  -28.2880  -26.6363   20.2033 O   0  0  0  0  0  0
  -26.5638  -34.8923   22.4713 O   0  0  0  0  0  0
  -23.5306  -32.1461   23.7497 O   0  0  0  0  0  0
  -30.2205  -19.2047   20.2082 C   0  0  0  0  0  0
  -28.9356  -19.7619   22.6058 C   0  0  0  0  0  0
  -29.7517  -20.5201   20.4440 C   0  0  0  0  0  0
  -30.0877  -18.1654   21.1574 C   0  0  0  0  0  0
  -29.1186  -20.8315   21.6861 C   0  0  0  0  0  0
  -29.4152  -18.4521   22.3658 C   0  0  0  0  0  0
  -29.9253  -24.4391   22.0997 C   0  0  0  0  0  0
  -31.2585  -24.4027   22.2689 C   0  0  0  0  0  0
  -29.0705  -25.6696   22.2747 C   0  0  0  0  0  0
  -28.0766  -24.1847   20.6099 C   0  0  0  0  0  0
  -28.0212  -25.6077   21.1844 C   0  0  2  0  0  0
  -29.9736  -21.5233   19.3216 C   0  0  0  0  0  0
  -32.1891  -23.2721   21.9089 C   0  0  0  0  0  0
  -30.8239  -16.8448   20.8774 C   0  0  0  0  0  0
  -28.5888  -22.2303   22.1159 C   0  0  0  0  0  0
  -30.1458  -15.5406   21.0097 N   0  0  0  0  0  0
  -29.1115  -23.4238   21.3657 N   0  3  2  0  0  0
  -29.2012  -17.2474   23.5875 Cl  0  0  0  0  0  0
  -31.4488  -12.2546   19.2146 H   0  0  0  0  0  0
  -30.1964  -11.2692   19.8755 H   0  0  0  0  0  0
  -29.7519  -11.8112   17.4305 H   0  0  0  0  0  0
  -29.6936  -13.5095   17.8277 H   0  0  0  0  0  0
  -27.8381  -11.3211   18.8398 H   0  0  0  0  0  0
  -27.3763  -12.6308   17.7881 H   0  0  0  0  0  0
  -27.6948  -14.2658   19.5682 H   0  0  0  0  0  0
  -28.6495  -12.0407   21.4358 H   0  0  0  0  0  0
  -28.4759  -13.7189   21.8494 H   0  0  0  0  0  0
  -25.2777   -9.5685   22.4823 H   0  0  0  0  0  0
  -23.9994   -7.4634   22.7523 H   0  0  0  0  0  0
  -21.0865   -8.8848   19.8942 H   0  0  0  0  0  0
  -22.3781  -10.9743   19.6157 H   0  0  0  0  0  0
  -21.2132   -7.6203   23.9773 H   0  0  0  0  0  0
  -21.1457   -6.0536   25.9093 H   0  0  0  0  0  0
  -22.0591   -2.7662   23.2784 H   0  0  0  0  0  0
  -22.3875  -12.0069   22.4928 H   0  0  0  0  0  0
  -21.0995  -13.1461   22.2457 H   0  0  0  0  0  0
  -24.6674  -15.8595   20.5307 H   0  0  0  0  0  0
  -26.2798  -15.6296   20.0959 H   0  0  0  0  0  0
  -26.7076  -32.5518   23.1184 H   0  0  0  0  0  0
  -24.9778  -33.9770   25.0298 H   0  0  0  0  0  0
  -22.6838  -31.3131   21.4210 H   0  0  0  0  0  0
  -23.3700  -35.9769   23.3292 H   0  0  0  0  0  0
  -24.3594  -36.9031   22.2071 H   0  0  0  0  0  0
  -23.7332  -37.6604   23.6702 H   0  0  0  0  0  0
  -26.0662  -31.6335   20.6310 H   0  0  0  0  0  0
  -26.8020  -30.8629   22.0101 H   0  0  0  0  0  0
  -28.0929  -29.1313   21.1617 H   0  0  0  0  0  0
  -26.0610  -25.9936   19.0101 H   0  0  0  0  0  0
  -23.9696  -27.3209   19.0242 H   0  0  0  0  0  0
  -23.7025  -30.6295   19.4126 H   0  0  0  0  0  0
  -22.7284  -29.2646   19.8629 H   0  0  0  0  0  0
  -25.1258  -36.1966   25.0833 H   0  0  0  0  0  0
  -20.9948  -28.3234   24.1452 H   0  0  0  0  0  0
  -20.5690  -26.2257   23.3625 H   0  0  0  0  0  0
  -21.6614  -26.7460   22.1197 H   0  0  0  0  0  0
  -19.6882  -25.6290   21.1252 H   0  0  0  0  0  0
  -19.6658  -27.3205   20.6779 H   0  0  0  0  0  0
  -17.4179  -26.6755   21.4001 H   0  0  0  0  0  0
  -18.0236  -26.0035   22.8985 H   0  0  0  0  0  0
  -19.7906  -30.7232   24.2341 H   0  0  0  0  0  0
  -17.4998  -31.6280   24.5145 H   0  0  0  0  0  0
  -15.5342  -30.3006   23.7609 H   0  0  0  0  0  0
  -15.8660  -28.0814   22.7090 H   0  0  0  0  0  0
  -24.5842  -30.7066   25.7810 H   0  0  0  0  0  0
  -24.8988  -32.2783   26.5098 H   0  0  0  0  0  0
  -25.8100  -30.8667   27.0167 H   0  0  0  0  0  0
  -26.2744  -29.6740   24.1249 H   0  0  0  0  0  0
  -27.3961  -29.7205   25.4612 H   0  0  0  0  0  0
  -27.8626  -30.4188   23.9301 H   0  0  0  0  0  0
  -27.2579  -33.3548   26.2141 H   0  0  0  0  0  0
  -28.3733  -32.6992   25.0251 H   0  0  0  0  0  0
  -28.0797  -31.8420   26.5302 H   0  0  0  0  0  0
  -28.2558  -38.0163   24.7450 H   0  0  0  0  0  0
  -28.1107  -36.2668   24.6244 H   0  0  0  0  0  0
  -27.2306  -37.1477   25.8848 H   0  0  0  0  0  0
  -20.9262  -29.8794   21.7008 H   0  0  0  0  0  0
  -26.0159  -38.2870   24.1356 H   0  0  0  0  0  0
  -30.7283  -18.9922   19.2770 H   0  0  0  0  0  0
  -28.4246  -19.9406   23.5411 H   0  0  0  0  0  0
  -31.7395  -25.2985   22.6408 H   0  0  0  0  0  0
  -29.6496  -26.5926   22.2092 H   0  0  0  0  0  0
  -28.5910  -25.6534   23.2517 H   0  0  0  0  0  0
  -28.3595  -24.2307   19.5595 H   0  0  0  0  0  0
  -27.0915  -23.7257   20.6669 H   0  0  0  0  0  0
  -27.0498  -25.7415   21.6676 H   0  0  0  0  0  0
  -30.4275  -21.0419   18.4537 H   0  0  0  0  0  0
  -30.6611  -22.3123   19.6221 H   0  0  0  0  0  0
  -29.0273  -21.9456   18.9811 H   0  0  0  0  0  0
  -33.1049  -23.4086   22.4818 H   0  0  0  0  0  0
  -32.4701  -23.2752   20.8535 H   0  0  0  0  0  0
  -31.7567  -22.3075   22.1706 H   0  0  0  0  0  0
  -31.7189  -16.8321   21.5023 H   0  0  0  0  0  0
  -31.1882  -16.9034   19.8497 H   0  0  0  0  0  0
  -28.7895  -22.3699   23.1848 H   0  0  0  0  0  0
  -27.4994  -22.1727   22.0490 H   0  0  0  0  0  0
  -29.1949  -15.4907   21.3454 H   0  0  0  0  0  0
  -29.7048  -23.0076   20.6657 H   0  0  0  0  0  0
  1 25  1  0  0  0
  1 30  2  0  0  0
  1 86  1  0  0  0
  2  3  1  0  0  0
  2 25  1  0  0  0
  2 89  1  0  0  0
  2 90  1  0  0  0
  3  4  1  0  0  0
  3 91  1  0  0  0
  3 92  1  0  0  0
  4  5  1  0  0  0
  4 93  1  0  0  0
  4 94  1  0  0  0
  5  6  1  0  0  0
  5 26  1  0  0  0
  5 95  1  0  0  0
  6 25  1  0  0  0
  6 96  1  0  0  0
  6 97  1  0  0  0
  7  8  2  0  0  0
  7 26  1  0  0  0
  7 29  1  0  0  0
  8  9  1  0  0  0
  8 22  1  0  0  0
  9 10  1  0  0  0
  9 27  2  0  0  0
 10 11  2  0  0  0
 10 15  1  0  0  0
 11 12  1  0  0  0
 11 98  1  0  0  0
 12 13  2  0  0  0
 12 99  1  0  0  0
 13 14  1  0  0  0
 13 31  1  0  0  0
 14 15  2  0  0  0
 14100  1  0  0  0
 15101  1  0  0  0
 16 17  2  0  0  0
 16 21  1  0  0  0
 16 31  1  0  0  0
 17 18  1  0  0  0
 17102  1  0  0  0
 18 19  2  0  0  0
 18103  1  0  0  0
 19 20  1  0  0  0
 19 24  1  0  0  0
 20 21  2  0  0  0
 20104  1  0  0  0
 21 23  1  0  0  0
 22 28  1  0  0  0
 22 32  2  0  0  0
 26 27  1  0  0  0
 28105  1  0  0  0
 28106  1  0  0  0
 29107  1  0  0  0
 29108  1  0  0  0
 33 34  1  0  0  0
 33 66  1  0  0  0
 33 70  2  0  0  0
 34 36  1  0  0  0
 34 59  1  0  0  0
 34109  1  0  0  0
 35 44  2  0  0  0
 35 45  1  0  0  0
 35 68  1  0  0  0
 36 56  1  0  0  0
 36110  1  0  0  0
 37 39  1  0  0  0
 37 47  1  0  0  0
 37 66  1  0  0  0
 37111  1  0  0  0
 38 43  2  0  0  0
 38 46  1  0  0  0
 38 47  1  0  0  0
 39 64  1  0  0  0
 39 67  2  0  0  0
 40 52  1  0  0  0
 40 53  2  0  0  0
 40 58  1  0  0  0
 41112  1  0  0  0
 41113  1  0  0  0
 41114  1  0  0  0
 41 48  1  0  0  0
 42 43  1  0  0  0
 42 66  1  0  0  0
 42115  1  0  0  0
 42116  1  0  0  0
 43 44  1  0  0  0
 44117  1  0  0  0
 45 46  2  0  0  0
 45118  1  0  0  0
 46119  1  0  0  0
 47120  1  0  0  0
 47121  1  0  0  0
 48 56  1  0  0  0
 48 65  1  0  0  0
 48122  1  0  0  0
 49 50  1  0  0  0
 49 53  1  0  0  0
 49 64  1  0  0  0
 49123  1  0  0  0
 50 51  1  0  0  0
 50124  1  0  0  0
 50125  1  0  0  0
 51 52  1  0  0  0
 51126  1  0  0  0
 51127  1  0  0  0
 52128  1  0  0  0
 52129  1  0  0  0
 53 54  1  0  0  0
 54 55  2  0  0  0
 54130  1  0  0  0
 55 57  1  0  0  0
 55131  1  0  0  0
 56 69  2  0  0  0
 57 58  2  0  0  0
 57132  1  0  0  0
 58133  1  0  0  0
 59 60  1  0  0  0
 59 61  1  0  0  0
 59 62  1  0  0  0
 60134  1  0  0  0
 60135  1  0  0  0
 60136  1  0  0  0
 61137  1  0  0  0
 61138  1  0  0  0
 61139  1  0  0  0
 62140  1  0  0  0
 62141  1  0  0  0
 62142  1  0  0  0
 63 65  1  0  0  0
 63143  1  0  0  0
 63144  1  0  0  0
 63145  1  0  0  0
 64146  1  0  0  0
 65147  1  0  0  0
 68 81  1  0  0  0
 71 73  2  0  0  0
 71 74  1  0  0  0
 71148  1  0  0  0
 72 75  2  0  0  0
 72 76  1  0  0  0
 72149  1  0  0  0
 73 75  1  0  0  0
 73 82  1  0  0  0
 74 76  2  0  0  0
 74 84  1  0  0  0
 75 85  1  0  0  0
 76 88  1  0  0  0
 77 78  2  0  0  0
 77 79  1  0  0  0
 77 87  1  0  0  0
 78 83  1  0  0  0
 78150  1  0  0  0
 79 81  1  0  0  0
 79151  1  0  0  0
 79152  1  0  0  0
 80 81  1  0  0  0
 80 87  1  0  0  0
 80153  1  0  0  0
 80154  1  0  0  0
 81155  1  0  0  0
 82156  1  0  0  0
 82157  1  0  0  0
 82158  1  0  0  0
 83159  1  0  0  0
 83160  1  0  0  0
 83161  1  0  0  0
 84 86  1  0  0  0
 84162  1  0  0  0
 84163  1  0  0  0
 85164  1  0  0  0
 85165  1  0  0  0
 85 87  1  0  0  0
 86166  1  0  0  0
 87167  1  0  0  0
M  CHG  1  87   1
M  ISO  4   1 100  68 101  81 101  86 100
M  END
> <chiral flag>
0

> <version>
0

> <s_m_source_file>
/data/baiqing/PycharmProjects/Reinvent-master-3.2/result/LINK_invent/BTK/process_docking_weight1_custom_product_contain_oxygen_bond_distance_aromatic_linkinvent_7_9_3/rearranged_h_0033.sdf

> <i_m_source_file_index>
67

> <r_mmod_Potential_Energy-OPLS-2005>
-75.2540130615234

> <r_mmod_Stretch_Energy-OPLS-2005>
42.3863525390625

> <r_mmod_Bend_Energy-OPLS-2005>
140.953247070312

> <r_mmod_Torsional_Energy-OPLS-2005>
293.822296142578

> <r_mmod_Improper_Torsional_Energy-OPLS-2005>
5.70401382446289

> <r_mmod_Van_der_Waal_Energy-OPLS-2005>
153.924377441406

> <r_mmod_Electrostatic_Energy-OPLS-2005>
-318.424346923828

> <r_mmod_Solvation_Energy-OPLS-2005>
-415.213470458984

> <b_mmod_Minimization_Converged-OPLS-2005>
0

> <r_mmod_RMS_Derivative-OPLS-2005>
7.27606105804443

$$$$
67
                    3D
 Structure written by MMmdl.
173182  0  0  1  0            999 V2000
  -30.7604  -14.4113   20.6385 C   0  0  0  0  0  0
  -30.4016  -12.2973   19.4094 C   0  0  0  0  0  0
  -29.4805  -12.5241   18.1960 C   0  0  0  0  0  0
  -28.0048  -12.3818   18.6119 C   0  0  0  0  0  0
  -27.6607  -13.2097   19.8795 C   0  0  2  0  0  0
  -28.7013  -12.9822   20.9985 C   0  0  0  0  0  0
  -25.2577  -13.8161   20.5704 C   0  0  0  0  0  0
  -24.1828  -13.0430   20.9178 C   0  0  0  0  0  0
  -24.6386  -11.6902   20.8728 C   0  0  0  0  0  0
  -23.9050  -10.4296   21.0398 C   0  0  0  0  0  0
  -24.3607   -9.4220   21.9186 C   0  0  0  0  0  0
  -23.6293   -8.2254   22.0758 C   0  0  0  0  0  0
  -22.4282   -8.0283   21.3543 C   0  0  0  0  0  0
  -21.9907   -9.0251   20.4644 C   0  0  0  0  0  0
  -22.7221  -10.2136   20.3056 C   0  0  0  0  0  0
  -21.6852   -6.0738   22.5276 C   0  0  0  0  0  0
  -21.4017   -6.5644   23.8210 C   0  0  0  0  0  0
  -21.3662   -5.6796   24.9172 C   0  0  0  0  0  0
  -21.6045   -4.3060   24.7218 C   0  0  0  0  0  0
  -21.8818   -3.8151   23.4342 C   0  0  0  0  0  0
  -21.9192   -4.6965   22.3401 C   0  0  0  0  0  0
  -22.7860  -13.5241   21.1841 C   0  0  0  0  0  0
  -22.1662   -4.2160   21.0974 F   0  0  0  0  0  0
  -21.5629   -3.4542   25.7734 F   0  0  0  0  0  0
  -30.0351  -13.2745   20.4489 N   0  0  0  0  0  0
  -26.3022  -12.9337   20.3407 N   0  0  0  0  0  0
  -25.9315  -11.6490   20.5773 N   0  0  0  0  0  0
  -22.0502  -12.8234   22.0392 N   0  0  0  0  0  0
  -25.4302  -15.1883   20.4123 N   0  0  0  0  0  0
  -31.8218  -14.6195   20.0454 O   0  0  0  0  0  0
  -21.6645   -6.8885   21.4245 O   0  0  0  0  0  0
  -22.3562  -14.5558   20.6708 O   0  0  0  0  0  0
  -24.6176  -31.8663   23.2139 C   0  0  0  0  0  0
  -25.9057  -32.4803   23.8428 C   0  0  1  0  0  0
  -27.2213  -27.4117   20.0987 C   0  0  0  0  0  0
  -25.5921  -33.8607   24.2325 N   0  0  0  0  0  0
  -23.4041  -30.4946   21.5547 C   0  0  2  0  0  0
  -24.8526  -28.9708   20.1058 C   0  0  0  0  0  0
  -22.7407  -29.4669   22.4990 C   0  0  0  0  0  0
  -18.0249  -28.1354   22.8454 C   0  0  0  0  0  0
  -24.1490  -36.7324   23.2636 C   0  0  0  0  0  0
  -25.9411  -30.8236   21.3752 C   0  0  0  0  0  0
  -26.0164  -29.4638   20.7091 C   0  0  0  0  0  0
  -27.2067  -28.6923   20.7028 C   0  0  0  0  0  0
  -26.0482  -26.9644   19.4451 C   0  0  0  0  0  0
  -24.8659  -27.7222   19.4668 C   0  0  0  0  0  0
  -23.6137  -29.8354   20.1666 C   0  0  0  0  0  0
  -25.4104  -36.3090   24.0330 C   0  0  1  0  0  0
  -20.5845  -28.3662   23.1298 C   0  0  2  0  0  0
  -20.6768  -26.9403   22.5403 C   0  0  0  0  0  0
  -19.5761  -26.6363   21.5191 C   0  0  0  0  0  0
  -18.1922  -26.7887   22.1586 C   0  0  0  0  0  0
  -19.1503  -28.8817   23.2852 C   0  0  0  0  0  0
  -18.9444  -30.1423   23.8872 C   0  0  0  0  0  0
  -17.6447  -30.6569   24.0552 C   0  0  0  0  0  0
  -25.9044  -34.9459   23.5111 C   0  0  0  0  0  0
  -16.5337  -29.9060   23.6338 C   0  0  0  0  0  0
  -16.7241  -28.6484   23.0351 C   0  0  0  0  0  0
  -26.4468  -31.6584   25.0767 C   0  0  0  0  0  0
  -25.3717  -31.3696   26.1512 C   0  0  0  0  0  0
  -27.0336  -30.3017   24.6198 C   0  0  0  0  0  0
  -27.6019  -32.4342   25.7525 C   0  0  0  0  0  0
  -27.5567  -37.1798   24.8437 C   0  0  0  0  0  0
  -21.4122  -29.3043   22.3724 N   0  0  0  0  0  0
  -26.4273  -37.3782   23.9406 N   0  0  0  0  0  0
  -24.6732  -31.0754   22.1046 N   0  0  0  0  0  0
  -23.4166  -28.8181   23.3019 O   0  0  0  0  0  0
  -28.3276  -26.5820   20.2177 O   0  0  0  0  0  0
  -26.5603  -34.8907   22.4675 O   0  0  0  0  0  0
  -23.5368  -32.1447   23.7526 O   0  0  0  0  0  0
  -30.8330  -19.9810   20.7955 C   0  0  0  0  0  0
  -30.2025  -20.6716   21.8532 C   0  0  0  0  0  0
  -29.6589  -19.9072   22.9309 C   0  0  0  0  0  0
  -29.8175  -18.4882   22.9566 C   0  0  0  0  0  0
  -30.5746  -17.8342   21.9465 C   0  0  0  0  0  0
  -31.0299  -18.5889   20.8445 C   0  0  0  0  0  0
  -29.2043  -24.2388   20.5275 C   0  0  0  0  0  0
  -30.2209  -24.4060   19.6588 C   0  0  0  0  0  0
  -26.7985  -23.9416   22.6679 C   0  0  0  0  0  0
  -26.5275  -22.8540   21.6052 C   0  0  0  0  0  0
  -27.3909  -25.2632   22.1133 C   0  0  0  0  0  0
  -27.8093  -22.1989   21.0347 C   0  0  0  0  0  0
  -28.0323  -25.2302   20.6873 C   0  0  1  0  0  0
  -28.9349  -20.5784   24.0971 C   0  0  0  0  0  0
  -29.2205  -17.6773   24.1064 C   0  0  0  0  0  0
  -31.0784  -16.3890   22.1095 C   0  0  0  0  0  0
  -30.2406  -22.2209   21.8242 C   0  0  0  0  0  0
  -30.2791  -15.2957   21.5301 N   0  0  0  0  0  0
  -29.0219  -22.9911   21.3819 N   0  3  1  0  0  0
  -31.7238  -17.9887   19.8486 F   0  0  0  0  0  0
  -31.4501  -12.3652   19.1150 H   0  0  0  0  0  0
  -30.2709  -11.2845   19.7940 H   0  0  0  0  0  0
  -29.7157  -11.8128   17.4023 H   0  0  0  0  0  0
  -29.6526  -13.5191   17.7779 H   0  0  0  0  0  0
  -27.8127  -11.3232   18.7952 H   0  0  0  0  0  0
  -27.3515  -12.6708   17.7875 H   0  0  0  0  0  0
  -27.7093  -14.2610   19.5949 H   0  0  0  0  0  0
  -28.6732  -11.9448   21.3356 H   0  0  0  0  0  0
  -28.4591  -13.5794   21.8773 H   0  0  0  0  0  0
  -25.2744   -9.5703   22.4766 H   0  0  0  0  0  0
  -23.9993   -7.4648   22.7482 H   0  0  0  0  0  0
  -21.0839   -8.8762   19.8950 H   0  0  0  0  0  0
  -22.3670  -10.9680   19.6168 H   0  0  0  0  0  0
  -21.2018   -7.6149   23.9713 H   0  0  0  0  0  0
  -21.1489   -6.0530   25.9074 H   0  0  0  0  0  0
  -22.0597   -2.7615   23.2836 H   0  0  0  0  0  0
  -22.4107  -11.9864   22.4738 H   0  0  0  0  0  0
  -21.1134  -13.1277   22.2622 H   0  0  0  0  0  0
  -24.6641  -15.8435   20.5225 H   0  0  0  0  0  0
  -26.2898  -15.6298   20.1098 H   0  0  0  0  0  0
  -26.7118  -32.5489   23.1185 H   0  0  0  0  0  0
  -25.0085  -33.9779   25.0476 H   0  0  0  0  0  0
  -22.6961  -31.3150   21.4170 H   0  0  0  0  0  0
  -23.3741  -35.9662   23.3282 H   0  0  0  0  0  0
  -24.3580  -36.8998   22.2054 H   0  0  0  0  0  0
  -23.7292  -37.6540   23.6686 H   0  0  0  0  0  0
  -26.0715  -31.5970   20.6169 H   0  0  0  0  0  0
  -26.8222  -30.8607   22.0049 H   0  0  0  0  0  0
  -28.0942  -29.0503   21.2049 H   0  0  0  0  0  0
  -26.0209  -26.0240   18.9172 H   0  0  0  0  0  0
  -23.9765  -27.3433   18.9832 H   0  0  0  0  0  0
  -23.7174  -30.6168   19.4118 H   0  0  0  0  0  0
  -22.7367  -29.2566   19.8721 H   0  0  0  0  0  0
  -25.1288  -36.1928   25.0824 H   0  0  0  0  0  0
  -20.9897  -28.3240   24.1432 H   0  0  0  0  0  0
  -20.5670  -26.2276   23.3589 H   0  0  0  0  0  0
  -21.6637  -26.7457   22.1201 H   0  0  0  0  0  0
  -19.6961  -25.6273   21.1230 H   0  0  0  0  0  0
  -19.6717  -27.3161   20.6709 H   0  0  0  0  0  0
  -17.4201  -26.6608   21.3981 H   0  0  0  0  0  0
  -18.0324  -26.0013   22.8969 H   0  0  0  0  0  0
  -19.7932  -30.7219   24.2236 H   0  0  0  0  0  0
  -17.5027  -31.6239   24.5163 H   0  0  0  0  0  0
  -15.5346  -30.2974   23.7699 H   0  0  0  0  0  0
  -15.8619  -28.0815   22.7097 H   0  0  0  0  0  0
  -24.5862  -30.7081   25.7851 H   0  0  0  0  0  0
  -24.8930  -32.2847   26.4986 H   0  0  0  0  0  0
  -25.8039  -30.8834   27.0259 H   0  0  0  0  0  0
  -26.2922  -29.6732   24.1253 H   0  0  0  0  0  0
  -27.4114  -29.7293   25.4681 H   0  0  0  0  0  0
  -27.8732  -30.4336   23.9375 H   0  0  0  0  0  0
  -27.2609  -33.3644   26.2073 H   0  0  0  0  0  0
  -28.3816  -32.6920   25.0342 H   0  0  0  0  0  0
  -28.0675  -31.8498   26.5472 H   0  0  0  0  0  0
  -28.2539  -38.0133   24.7549 H   0  0  0  0  0  0
  -28.1114  -36.2676   24.6182 H   0  0  0  0  0  0
  -27.2295  -37.1370   25.8838 H   0  0  0  0  0  0
  -20.9290  -29.8785   21.6963 H   0  0  0  0  0  0
  -26.0154  -38.2853   24.1420 H   0  0  0  0  0  0
  -31.2520  -20.5240   19.9598 H   0  0  0  0  0  0
  -30.2638  -25.2974   19.0514 H   0  0  0  0  0  0
  -31.0063  -23.6822   19.5016 H   0  0  0  0  0  0
  -27.4366  -23.5426   23.4575 H   0  0  0  0  0  0
  -25.8609  -24.1732   23.1769 H   0  0  0  0  0  0
  -25.9107  -23.2563   20.8000 H   0  0  0  0  0  0
  -25.9111  -22.0717   22.0512 H   0  0  0  0  0  0
  -28.0940  -25.6856   22.8323 H   0  0  0  0  0  0
  -26.5564  -25.9647   22.1031 H   0  0  0  0  0  0
  -27.7458  -22.0802   19.9519 H   0  0  0  0  0  0
  -27.8314  -21.1880   21.4313 H   0  0  0  0  0  0
  -27.3079  -24.8058   19.9984 H   0  0  0  0  0  0
  -28.9510  -21.6651   24.0713 H   0  0  0  0  0  0
  -29.3918  -20.2817   25.0425 H   0  0  0  0  0  0
  -27.8871  -20.2765   24.1205 H   0  0  0  0  0  0
  -28.2107  -18.0100   24.3436 H   0  0  0  0  0  0
  -29.8359  -17.7651   25.0017 H   0  0  0  0  0  0
  -29.1278  -16.6186   23.8730 H   0  0  0  0  0  0
  -31.2235  -16.1703   23.1664 H   0  0  0  0  0  0
  -32.0962  -16.3695   21.7153 H   0  0  0  0  0  0
  -31.1121  -22.5006   21.2385 H   0  0  0  0  0  0
  -30.5114  -22.5762   22.8183 H   0  0  0  0  0  0
  -29.3965  -15.0762   21.9652 H   0  0  0  0  0  0
  -28.7276  -23.3551   22.2765 H   0  0  0  0  0  0
  1 25  1  0  0  0
  1 30  2  0  0  0
  1 88  1  0  0  0
  2  3  1  0  0  0
  2 25  1  0  0  0
  2 91  1  0  0  0
  2 92  1  0  0  0
  3  4  1  0  0  0
  3 93  1  0  0  0
  3 94  1  0  0  0
  4  5  1  0  0  0
  4 95  1  0  0  0
  4 96  1  0  0  0
  5  6  1  0  0  0
  5 26  1  0  0  0
  5 97  1  0  0  0
  6 25  1  0  0  0
  6 98  1  0  0  0
  6 99  1  0  0  0
  7  8  2  0  0  0
  7 26  1  0  0  0
  7 29  1  0  0  0
  8  9  1  0  0  0
  8 22  1  0  0  0
  9 10  1  0  0  0
  9 27  2  0  0  0
 10 11  2  0  0  0
 10 15  1  0  0  0
 11 12  1  0  0  0
 11100  1  0  0  0
 12 13  2  0  0  0
 12101  1  0  0  0
 13 14  1  0  0  0
 13 31  1  0  0  0
 14 15  2  0  0  0
 14102  1  0  0  0
 15103  1  0  0  0
 16 17  2  0  0  0
 16 21  1  0  0  0
 16 31  1  0  0  0
 17 18  1  0  0  0
 17104  1  0  0  0
 18 19  2  0  0  0
 18105  1  0  0  0
 19 20  1  0  0  0
 19 24  1  0  0  0
 20 21  2  0  0  0
 20106  1  0  0  0
 21 23  1  0  0  0
 22 28  1  0  0  0
 22 32  2  0  0  0
 26 27  1  0  0  0
 28107  1  0  0  0
 28108  1  0  0  0
 29109  1  0  0  0
 29110  1  0  0  0
 33 34  1  0  0  0
 33 66  1  0  0  0
 33 70  2  0  0  0
 34 36  1  0  0  0
 34 59  1  0  0  0
 34111  1  0  0  0
 35 44  2  0  0  0
 35 45  1  0  0  0
 35 68  1  0  0  0
 36 56  1  0  0  0
 36112  1  0  0  0
 37 39  1  0  0  0
 37 47  1  0  0  0
 37 66  1  0  0  0
 37113  1  0  0  0
 38 43  2  0  0  0
 38 46  1  0  0  0
 38 47  1  0  0  0
 39 64  1  0  0  0
 39 67  2  0  0  0
 40 52  1  0  0  0
 40 53  2  0  0  0
 40 58  1  0  0  0
 41114  1  0  0  0
 41115  1  0  0  0
 41116  1  0  0  0
 41 48  1  0  0  0
 42 43  1  0  0  0
 42 66  1  0  0  0
 42117  1  0  0  0
 42118  1  0  0  0
 43 44  1  0  0  0
 44119  1  0  0  0
 45 46  2  0  0  0
 45120  1  0  0  0
 46121  1  0  0  0
 47122  1  0  0  0
 47123  1  0  0  0
 48 56  1  0  0  0
 48 65  1  0  0  0
 48124  1  0  0  0
 49 50  1  0  0  0
 49 53  1  0  0  0
 49 64  1  0  0  0
 49125  1  0  0  0
 50 51  1  0  0  0
 50126  1  0  0  0
 50127  1  0  0  0
 51 52  1  0  0  0
 51128  1  0  0  0
 51129  1  0  0  0
 52130  1  0  0  0
 52131  1  0  0  0
 53 54  1  0  0  0
 54 55  2  0  0  0
 54132  1  0  0  0
 55 57  1  0  0  0
 55133  1  0  0  0
 56 69  2  0  0  0
 57 58  2  0  0  0
 57134  1  0  0  0
 58135  1  0  0  0
 59 60  1  0  0  0
 59 61  1  0  0  0
 59 62  1  0  0  0
 60136  1  0  0  0
 60137  1  0  0  0
 60138  1  0  0  0
 61139  1  0  0  0
 61140  1  0  0  0
 61141  1  0  0  0
 62142  1  0  0  0
 62143  1  0  0  0
 62144  1  0  0  0
 63 65  1  0  0  0
 63145  1  0  0  0
 63146  1  0  0  0
 63147  1  0  0  0
 64148  1  0  0  0
 65149  1  0  0  0
 68 83  1  0  0  0
 71 72  2  0  0  0
 71 76  1  0  0  0
 71150  1  0  0  0
 72 73  1  0  0  0
 72 87  1  0  0  0
 73 74  2  0  0  0
 73 84  1  0  0  0
 74 75  1  0  0  0
 74 85  1  0  0  0
 75 76  2  0  0  0
 75 86  1  0  0  0
 76 90  1  0  0  0
 77 78  2  0  0  0
 77 83  1  0  0  0
 77 89  1  0  0  0
 78151  1  0  0  0
 78152  1  0  0  0
 79 80  1  0  0  0
 79 81  1  0  0  0
 79153  1  0  0  0
 79154  1  0  0  0
 80 82  1  0  0  0
 80155  1  0  0  0
 80156  1  0  0  0
 81 83  1  0  0  0
 81157  1  0  0  0
 81158  1  0  0  0
 82 89  1  0  0  0
 82159  1  0  0  0
 82160  1  0  0  0
 83161  1  0  0  0
 84162  1  0  0  0
 84163  1  0  0  0
 84164  1  0  0  0
 85165  1  0  0  0
 85166  1  0  0  0
 85167  1  0  0  0
 86 88  1  0  0  0
 86168  1  0  0  0
 86169  1  0  0  0
 87170  1  0  0  0
 87171  1  0  0  0
 87 89  1  0  0  0
 88172  1  0  0  0
 89173  1  0  0  0
M  CHG  1  89   1
M  ISO  4   1 100  68 101  83 101  88 100
M  END
> <chiral flag>
0

> <version>
0

> <s_m_source_file>
/data/baiqing/PycharmProjects/Reinvent-master-3.2/result/LINK_invent/BTK/process_docking_weight1_custom_product_contain_oxygen_bond_distance_aromatic_linkinvent_7_9_3/rearranged_h_0033.sdf

> <i_m_source_file_index>
68

> <r_mmod_Potential_Energy-OPLS-2005>
-63.1426887512207

> <r_mmod_Stretch_Energy-OPLS-2005>
53.9607200622559

> <r_mmod_Bend_Energy-OPLS-2005>
136.527038574219

> <r_mmod_Torsional_Energy-OPLS-2005>
263.354278564453

> <r_mmod_Improper_Torsional_Energy-OPLS-2005>
3.65189528465271

> <r_mmod_Van_der_Waal_Energy-OPLS-2005>
184.785202026367

> <r_mmod_Electrostatic_Energy-OPLS-2005>
-300.521545410156

> <r_mmod_Solvation_Energy-OPLS-2005>
-422.554168701172

> <b_mmod_Minimization_Converged-OPLS-2005>
0

> <r_mmod_RMS_Derivative-OPLS-2005>
2.82669854164124

$$$$
68
                    3D
 Structure written by MMmdl.
167176  0  0  1  0            999 V2000
  -30.6821  -14.5129   20.5641 C   0  0  0  0  0  0
  -30.4263  -12.3342   19.4238 C   0  0  0  0  0  0
  -29.4942  -12.5027   18.2060 C   0  0  0  0  0  0
  -28.0162  -12.3598   18.6204 C   0  0  0  0  0  0
  -27.6576  -13.2083   19.8699 C   0  0  2  0  0  0
  -28.7004  -13.0067   20.9914 C   0  0  0  0  0  0
  -25.2568  -13.8158   20.5683 C   0  0  0  0  0  0
  -24.1822  -13.0437   20.9183 C   0  0  0  0  0  0
  -24.6375  -11.6903   20.8731 C   0  0  0  0  0  0
  -23.9042  -10.4291   21.0402 C   0  0  0  0  0  0
  -24.3601   -9.4211   21.9183 C   0  0  0  0  0  0
  -23.6284   -8.2243   22.0756 C   0  0  0  0  0  0
  -22.4269   -8.0272   21.3544 C   0  0  0  0  0  0
  -21.9890   -9.0244   20.4649 C   0  0  0  0  0  0
  -22.7212  -10.2128   20.3055 C   0  0  0  0  0  0
  -21.6851   -6.0724   22.5281 C   0  0  0  0  0  0
  -21.4010   -6.5630   23.8212 C   0  0  0  0  0  0
  -21.3656   -5.6790   24.9178 C   0  0  0  0  0  0
  -21.6044   -4.3052   24.7235 C   0  0  0  0  0  0
  -21.8821   -3.8136   23.4359 C   0  0  0  0  0  0
  -21.9193   -4.6950   22.3410 C   0  0  0  0  0  0
  -22.7848  -13.5244   21.1850 C   0  0  0  0  0  0
  -22.1664   -4.2132   21.0988 F   0  0  0  0  0  0
  -21.5629   -3.4537   25.7749 F   0  0  0  0  0  0
  -30.0247  -13.3267   20.4350 N   0  0  0  0  0  0
  -26.2999  -12.9331   20.3341 N   0  0  0  0  0  0
  -25.9302  -11.6492   20.5754 N   0  0  0  0  0  0
  -22.0482  -12.8237   22.0403 N   0  0  0  0  0  0
  -25.4284  -15.1872   20.4094 N   0  0  0  0  0  0
  -31.8186  -14.6885   20.1166 O   0  0  0  0  0  0
  -21.6639   -6.8866   21.4244 O   0  0  0  0  0  0
  -22.3537  -14.5553   20.6699 O   0  0  0  0  0  0
  -24.6181  -31.8656   23.2064 C   0  0  0  0  0  0
  -25.9062  -32.4811   23.8373 C   0  0  1  0  0  0
  -27.2422  -27.3967   20.1141 C   0  0  0  0  0  0
  -25.5897  -33.8608   24.2287 N   0  0  0  0  0  0
  -23.4082  -30.4866   21.5474 C   0  0  2  0  0  0
  -24.8563  -28.9361   20.1242 C   0  0  0  0  0  0
  -22.7439  -29.4661   22.4998 C   0  0  0  0  0  0
  -18.0288  -28.1401   22.8509 C   0  0  0  0  0  0
  -24.1468  -36.7306   23.2636 C   0  0  0  0  0  0
  -25.9385  -30.8193   21.3640 C   0  0  0  0  0  0
  -26.0173  -29.4475   20.7179 C   0  0  0  0  0  0
  -27.2117  -28.6862   20.7037 C   0  0  0  0  0  0
  -26.0620  -26.9053   19.5145 C   0  0  0  0  0  0
  -24.8751  -27.6660   19.5203 C   0  0  0  0  0  0
  -23.6209  -29.8095   20.1660 C   0  0  0  0  0  0
  -25.4096  -36.3116   24.0333 C   0  0  1  0  0  0
  -20.5876  -28.3694   23.1315 C   0  0  2  0  0  0
  -20.6763  -26.9426   22.5430 C   0  0  0  0  0  0
  -19.5743  -26.6406   21.5227 C   0  0  0  0  0  0
  -18.1925  -26.7947   22.1636 C   0  0  0  0  0  0
  -19.1532  -28.8871   23.2908 C   0  0  0  0  0  0
  -18.9456  -30.1469   23.8932 C   0  0  0  0  0  0
  -17.6456  -30.6604   24.0581 C   0  0  0  0  0  0
  -25.9031  -34.9476   23.5113 C   0  0  0  0  0  0
  -16.5351  -29.9117   23.6329 C   0  0  0  0  0  0
  -16.7275  -28.6532   23.0360 C   0  0  0  0  0  0
  -26.4478  -31.6606   25.0718 C   0  0  0  0  0  0
  -25.3732  -31.3716   26.1463 C   0  0  0  0  0  0
  -27.0287  -30.3033   24.6113 C   0  0  0  0  0  0
  -27.6051  -32.4331   25.7484 C   0  0  0  0  0  0
  -27.5571  -37.1813   24.8472 C   0  0  0  0  0  0
  -21.4166  -29.3045   22.3706 N   0  0  0  0  0  0
  -26.4279  -37.3809   23.9418 N   0  0  0  0  0  0
  -24.6731  -31.0743   22.0973 N   0  0  0  0  0  0
  -23.4196  -28.8213   23.3047 O   0  0  0  0  0  0
  -28.4327  -26.6906   20.0612 O   0  0  0  0  0  0
  -26.5615  -34.8942   22.4685 O   0  0  0  0  0  0
  -23.5371  -32.1414   23.7450 O   0  0  0  0  0  0
  -28.6104  -17.8011   19.7556 C   0  0  0  0  0  0
  -28.1385  -20.1812   19.4713 C   0  0  0  0  0  0
  -29.6323  -18.0884   20.6863 C   0  0  0  0  0  0
  -29.1392  -20.5288   20.4062 C   0  0  0  0  0  0
  -29.9066  -19.4645   20.9974 C   0  0  0  0  0  0
  -27.8776  -18.8361   19.1507 C   0  0  0  0  0  0
  -27.7728  -23.5231   22.0185 C   0  0  0  0  0  0
  -27.3165  -22.8310   23.0818 C   0  0  0  0  0  0
  -27.8883  -25.0415   21.9309 C   0  0  0  0  0  0
  -28.2663  -24.0948   19.7401 C   0  0  0  0  0  0
  -28.5683  -25.3435   20.5977 C   0  0  1  0  0  0
  -31.0446  -19.7946   21.9602 C   0  0  0  0  0  0
  -27.1287  -21.3315   23.1998 C   0  0  0  0  0  0
  -30.4323  -16.9224   21.3271 C   0  0  0  0  0  0
  -29.3925  -22.0375   20.7084 C   0  0  0  0  0  0
  -29.9682  -15.5337   21.0922 N   0  0  0  0  0  0
  -28.1843  -22.9425   20.6934 N   0  3  1  0  0  0
  -26.6481  -18.4541   18.0023 Cl  0  0  0  0  0  0
  -31.4677  -12.4476   19.1176 H   0  0  0  0  0  0
  -30.3462  -11.3267   19.8348 H   0  0  0  0  0  0
  -29.7395  -11.7644   17.4414 H   0  0  0  0  0  0
  -29.6546  -13.4812   17.7505 H   0  0  0  0  0  0
  -27.8326  -11.3043   18.8263 H   0  0  0  0  0  0
  -27.3640  -12.6238   17.7872 H   0  0  0  0  0  0
  -27.6963  -14.2540   19.5640 H   0  0  0  0  0  0
  -28.6873  -11.9715   21.3363 H   0  0  0  0  0  0
  -28.4581  -13.6099   21.8671 H   0  0  0  0  0  0
  -25.2750   -9.5689   22.4756 H   0  0  0  0  0  0
  -23.9992   -7.4635   22.7475 H   0  0  0  0  0  0
  -21.0818   -8.8759   19.8961 H   0  0  0  0  0  0
  -22.3666  -10.9664   19.6161 H   0  0  0  0  0  0
  -21.1997   -7.6137   23.9709 H   0  0  0  0  0  0
  -21.1477   -6.0522   25.9079 H   0  0  0  0  0  0
  -22.0601   -2.7597   23.2870 H   0  0  0  0  0  0
  -22.4089  -11.9897   22.4800 H   0  0  0  0  0  0
  -21.1101  -13.1269   22.2608 H   0  0  0  0  0  0
  -24.6599  -15.8397   20.5159 H   0  0  0  0  0  0
  -26.2711  -15.6240   20.0619 H   0  0  0  0  0  0
  -26.7146  -32.5536   23.1147 H   0  0  0  0  0  0
  -25.0024  -33.9740   25.0422 H   0  0  0  0  0  0
  -22.6979  -31.3030   21.4017 H   0  0  0  0  0  0
  -23.3737  -35.9636   23.3323 H   0  0  0  0  0  0
  -24.3541  -36.8899   22.2047 H   0  0  0  0  0  0
  -23.7219  -37.6505   23.6641 H   0  0  0  0  0  0
  -26.0510  -31.5809   20.5913 H   0  0  0  0  0  0
  -26.8260  -30.8794   21.9825 H   0  0  0  0  0  0
  -28.1133  -29.0832   21.1490 H   0  0  0  0  0  0
  -26.0547  -25.9477   19.0201 H   0  0  0  0  0  0
  -23.9845  -27.2687   19.0527 H   0  0  0  0  0  0
  -23.7388  -30.5790   19.4016 H   0  0  0  0  0  0
  -22.7436  -29.2345   19.8662 H   0  0  0  0  0  0
  -25.1278  -36.1972   25.0830 H   0  0  0  0  0  0
  -20.9975  -28.3283   24.1432 H   0  0  0  0  0  0
  -20.5672  -26.2315   23.3629 H   0  0  0  0  0  0
  -21.6630  -26.7468   22.1212 H   0  0  0  0  0  0
  -19.6887  -25.6327   21.1243 H   0  0  0  0  0  0
  -19.6663  -27.3230   20.6764 H   0  0  0  0  0  0
  -17.4183  -26.6726   21.4043 H   0  0  0  0  0  0
  -18.0312  -26.0086   22.9025 H   0  0  0  0  0  0
  -19.7928  -30.7279   24.2320 H   0  0  0  0  0  0
  -17.5011  -31.6282   24.5182 H   0  0  0  0  0  0
  -15.5350  -30.3032   23.7624 H   0  0  0  0  0  0
  -15.8673  -28.0853   22.7066 H   0  0  0  0  0  0
  -24.5917  -30.7050   25.7810 H   0  0  0  0  0  0
  -24.8910  -32.2868   26.4914 H   0  0  0  0  0  0
  -25.8096  -30.8896   27.0224 H   0  0  0  0  0  0
  -26.2816  -29.6817   24.1165 H   0  0  0  0  0  0
  -27.4012  -29.7275   25.4596 H   0  0  0  0  0  0
  -27.8691  -30.4308   23.9278 H   0  0  0  0  0  0
  -27.2659  -33.3623   26.2075 H   0  0  0  0  0  0
  -28.3857  -32.6908   25.0315 H   0  0  0  0  0  0
  -28.0720  -31.8445   26.5387 H   0  0  0  0  0  0
  -28.2624  -38.0075   24.7511 H   0  0  0  0  0  0
  -28.1030  -36.2623   24.6315 H   0  0  0  0  0  0
  -27.2287  -37.1481   25.8869 H   0  0  0  0  0  0
  -20.9358  -29.8749   21.6891 H   0  0  0  0  0  0
  -26.0170  -38.2881   24.1443 H   0  0  0  0  0  0
  -28.3851  -16.7819   19.4805 H   0  0  0  0  0  0
  -27.5553  -20.9419   18.9716 H   0  0  0  0  0  0
  -27.0529  -23.3912   23.9676 H   0  0  0  0  0  0
  -28.4562  -25.4470   22.7694 H   0  0  0  0  0  0
  -26.8840  -25.4621   21.9760 H   0  0  0  0  0  0
  -28.9954  -23.9530   18.9423 H   0  0  0  0  0  0
  -27.2953  -24.1848   19.2570 H   0  0  0  0  0  0
  -29.6392  -25.2780   20.8027 H   0  0  0  0  0  0
  -31.8328  -19.0437   21.9515 H   0  0  0  0  0  0
  -30.6688  -19.8741   22.9813 H   0  0  0  0  0  0
  -31.5432  -20.7278   21.7008 H   0  0  0  0  0  0
  -27.2235  -20.8115   22.2506 H   0  0  0  0  0  0
  -26.1330  -21.1154   23.5903 H   0  0  0  0  0  0
  -27.8557  -20.9171   23.8993 H   0  0  0  0  0  0
  -30.4247  -17.0699   22.4079 H   0  0  0  0  0  0
  -31.4747  -17.0176   21.0191 H   0  0  0  0  0  0
  -30.1368  -22.3858   19.9918 H   0  0  0  0  0  0
  -29.8657  -22.1485   21.6832 H   0  0  0  0  0  0
  -29.0399  -15.3081   21.4147 H   0  0  0  0  0  0
  -27.4365  -22.3524   20.3642 H   0  0  0  0  0  0
  1 25  1  0  0  0
  1 30  2  0  0  0
  1 86  1  0  0  0
  2  3  1  0  0  0
  2 25  1  0  0  0
  2 89  1  0  0  0
  2 90  1  0  0  0
  3  4  1  0  0  0
  3 91  1  0  0  0
  3 92  1  0  0  0
  4  5  1  0  0  0
  4 93  1  0  0  0
  4 94  1  0  0  0
  5  6  1  0  0  0
  5 26  1  0  0  0
  5 95  1  0  0  0
  6 25  1  0  0  0
  6 96  1  0  0  0
  6 97  1  0  0  0
  7  8  2  0  0  0
  7 26  1  0  0  0
  7 29  1  0  0  0
  8  9  1  0  0  0
  8 22  1  0  0  0
  9 10  1  0  0  0
  9 27  2  0  0  0
 10 11  2  0  0  0
 10 15  1  0  0  0
 11 12  1  0  0  0
 11 98  1  0  0  0
 12 13  2  0  0  0
 12 99  1  0  0  0
 13 14  1  0  0  0
 13 31  1  0  0  0
 14 15  2  0  0  0
 14100  1  0  0  0
 15101  1  0  0  0
 16 17  2  0  0  0
 16 21  1  0  0  0
 16 31  1  0  0  0
 17 18  1  0  0  0
 17102  1  0  0  0
 18 19  2  0  0  0
 18103  1  0  0  0
 19 20  1  0  0  0
 19 24  1  0  0  0
 20 21  2  0  0  0
 20104  1  0  0  0
 21 23  1  0  0  0
 22 28  1  0  0  0
 22 32  2  0  0  0
 26 27  1  0  0  0
 28105  1  0  0  0
 28106  1  0  0  0
 29107  1  0  0  0
 29108  1  0  0  0
 33 34  1  0  0  0
 33 66  1  0  0  0
 33 70  2  0  0  0
 34 36  1  0  0  0
 34 59  1  0  0  0
 34109  1  0  0  0
 35 44  2  0  0  0
 35 45  1  0  0  0
 35 68  1  0  0  0
 36 56  1  0  0  0
 36110  1  0  0  0
 37 39  1  0  0  0
 37 47  1  0  0  0
 37 66  1  0  0  0
 37111  1  0  0  0
 38 43  2  0  0  0
 38 46  1  0  0  0
 38 47  1  0  0  0
 39 64  1  0  0  0
 39 67  2  0  0  0
 40 52  1  0  0  0
 40 53  2  0  0  0
 40 58  1  0  0  0
 41112  1  0  0  0
 41113  1  0  0  0
 41114  1  0  0  0
 41 48  1  0  0  0
 42 43  1  0  0  0
 42 66  1  0  0  0
 42115  1  0  0  0
 42116  1  0  0  0
 43 44  1  0  0  0
 44117  1  0  0  0
 45 46  2  0  0  0
 45118  1  0  0  0
 46119  1  0  0  0
 47120  1  0  0  0
 47121  1  0  0  0
 48 56  1  0  0  0
 48 65  1  0  0  0
 48122  1  0  0  0
 49 50  1  0  0  0
 49 53  1  0  0  0
 49 64  1  0  0  0
 49123  1  0  0  0
 50 51  1  0  0  0
 50124  1  0  0  0
 50125  1  0  0  0
 51 52  1  0  0  0
 51126  1  0  0  0
 51127  1  0  0  0
 52128  1  0  0  0
 52129  1  0  0  0
 53 54  1  0  0  0
 54 55  2  0  0  0
 54130  1  0  0  0
 55 57  1  0  0  0
 55131  1  0  0  0
 56 69  2  0  0  0
 57 58  2  0  0  0
 57132  1  0  0  0
 58133  1  0  0  0
 59 60  1  0  0  0
 59 61  1  0  0  0
 59 62  1  0  0  0
 60134  1  0  0  0
 60135  1  0  0  0
 60136  1  0  0  0
 61137  1  0  0  0
 61138  1  0  0  0
 61139  1  0  0  0
 62140  1  0  0  0
 62141  1  0  0  0
 62142  1  0  0  0
 63 65  1  0  0  0
 63143  1  0  0  0
 63144  1  0  0  0
 63145  1  0  0  0
 64146  1  0  0  0
 65147  1  0  0  0
 68 81  1  0  0  0
 71 73  2  0  0  0
 71 76  1  0  0  0
 71148  1  0  0  0
 72 74  1  0  0  0
 72 76  2  0  0  0
 72149  1  0  0  0
 73 75  1  0  0  0
 73 84  1  0  0  0
 74 75  2  0  0  0
 74 85  1  0  0  0
 75 82  1  0  0  0
 76 88  1  0  0  0
 77 78  2  0  0  0
 77 79  1  0  0  0
 77 87  1  0  0  0
 78 83  1  0  0  0
 78150  1  0  0  0
 79 81  1  0  0  0
 79151  1  0  0  0
 79152  1  0  0  0
 80 81  1  0  0  0
 80 87  1  0  0  0
 80153  1  0  0  0
 80154  1  0  0  0
 81155  1  0  0  0
 82156  1  0  0  0
 82157  1  0  0  0
 82158  1  0  0  0
 83159  1  0  0  0
 83160  1  0  0  0
 83161  1  0  0  0
 84 86  1  0  0  0
 84162  1  0  0  0
 84163  1  0  0  0
 85164  1  0  0  0
 85165  1  0  0  0
 85 87  1  0  0  0
 86166  1  0  0  0
 87167  1  0  0  0
M  CHG  1  87   1
M  ISO  4   1 100  68 101  81 101  86 100
M  END
> <chiral flag>
0

> <version>
0

> <s_m_source_file>
/data/baiqing/PycharmProjects/Reinvent-master-3.2/result/LINK_invent/BTK/process_docking_weight1_custom_product_contain_oxygen_bond_distance_aromatic_linkinvent_7_9_3/rearranged_h_0033.sdf

> <i_m_source_file_index>
69

> <r_mmod_Potential_Energy-OPLS-2005>
-149.987335205078

> <r_mmod_Stretch_Energy-OPLS-2005>
54.0568885803223

> <r_mmod_Bend_Energy-OPLS-2005>
155.239288330078

> <r_mmod_Torsional_Energy-OPLS-2005>
235.743835449219

> <r_mmod_Improper_Torsional_Energy-OPLS-2005>
3.32024621963501

> <r_mmod_Van_der_Waal_Energy-OPLS-2005>
137.596740722656

> <r_mmod_Electrostatic_Energy-OPLS-2005>
-325.015502929688

> <r_mmod_Solvation_Energy-OPLS-2005>
-427.886505126953

> <b_mmod_Minimization_Converged-OPLS-2005>
0

> <r_mmod_RMS_Derivative-OPLS-2005>
2.4276168346405

$$$$
69
                    3D
 Structure written by MMmdl.
150158  0  0  1  0            999 V2000
  -30.4803  -15.1835   20.3788 C   0  0  0  0  0  0
  -30.4358  -12.7513   19.5198 C   0  0  0  0  0  0
  -29.5297  -12.5630   18.2790 C   0  0  0  0  0  0
  -28.0740  -12.3050   18.7049 C   0  0  0  0  0  0
  -27.6143  -13.2718   19.8257 C   0  0  2  0  0  0
  -28.6512  -13.4178   20.9597 C   0  0  0  0  0  0
  -25.2395  -13.8246   20.5746 C   0  0  0  0  0  0
  -24.1742  -13.0435   20.9246 C   0  0  0  0  0  0
  -24.6396  -11.6933   20.8757 C   0  0  0  0  0  0
  -23.9091  -10.4293   21.0403 C   0  0  0  0  0  0
  -24.3636   -9.4207   21.9183 C   0  0  0  0  0  0
  -23.6304   -8.2244   22.0753 C   0  0  0  0  0  0
  -22.4285   -8.0283   21.3544 C   0  0  0  0  0  0
  -21.9926   -9.0257   20.4645 C   0  0  0  0  0  0
  -22.7261  -10.2133   20.3053 C   0  0  0  0  0  0
  -21.6857   -6.0738   22.5279 C   0  0  0  0  0  0
  -21.4017   -6.5641   23.8212 C   0  0  0  0  0  0
  -21.3660   -5.6793   24.9174 C   0  0  0  0  0  0
  -21.6044   -4.3056   24.7224 C   0  0  0  0  0  0
  -21.8819   -3.8148   23.4345 C   0  0  0  0  0  0
  -21.9194   -4.6965   22.3402 C   0  0  0  0  0  0
  -22.7760  -13.5189   21.1898 C   0  0  0  0  0  0
  -22.1662   -4.2150   21.0979 F   0  0  0  0  0  0
  -21.5628   -3.4539   25.7737 F   0  0  0  0  0  0
  -29.8946  -13.8945   20.3357 N   0  0  0  0  0  0
  -26.2827  -12.9520   20.3233 N   0  0  0  0  0  0
  -25.9334  -11.6625   20.5728 N   0  0  0  0  0  0
  -22.0424  -12.8167   22.0456 N   0  0  0  0  0  0
  -25.4016  -15.1980   20.4205 N   0  0  0  0  0  0
  -31.6989  -15.1802   20.1612 O   0  0  0  0  0  0
  -21.6645   -6.8883   21.4241 O   0  0  0  0  0  0
  -22.3432  -14.5488   20.6741 O   0  0  0  0  0  0
  -24.6591  -31.8287   23.1757 C   0  0  0  0  0  0
  -25.9293  -32.4615   23.8201 C   0  0  1  0  0  0
  -27.2140  -26.9732   20.1729 C   0  0  0  0  0  0
  -25.5977  -33.8428   24.2106 N   0  0  0  0  0  0
  -23.4713  -30.4437   21.5241 C   0  0  2  0  0  0
  -24.9243  -28.8442   20.1099 C   0  0  0  0  0  0
  -22.7649  -29.4469   22.4796 C   0  0  0  0  0  0
  -18.0320  -28.1407   22.8469 C   0  0  0  0  0  0
  -24.1493  -36.7216   23.2646 C   0  0  0  0  0  0
  -26.0391  -30.6494   21.4010 C   0  0  0  0  0  0
  -26.1077  -29.2451   20.7428 C   0  0  0  0  0  0
  -27.2492  -28.3294   20.7536 C   0  0  0  0  0  0
  -26.0038  -26.7219   19.4860 C   0  0  0  0  0  0
  -24.8954  -27.6015   19.4618 C   0  0  0  0  0  0
  -23.7086  -29.7660   20.1477 C   0  0  0  0  0  0
  -25.4132  -36.2982   24.0303 C   0  0  1  0  0  0
  -20.5943  -28.3749   23.1195 C   0  0  2  0  0  0
  -20.6798  -26.9435   22.5401 C   0  0  0  0  0  0
  -19.5770  -26.6379   21.5213 C   0  0  0  0  0  0
  -18.1954  -26.7941   22.1624 C   0  0  0  0  0  0
  -19.1581  -28.8898   23.2821 C   0  0  0  0  0  0
  -18.9492  -30.1488   23.8855 C   0  0  0  0  0  0
  -17.6485  -30.6598   24.0556 C   0  0  0  0  0  0
  -25.9095  -34.9364   23.5022 C   0  0  0  0  0  0
  -16.5376  -29.9085   23.6342 C   0  0  0  0  0  0
  -16.7303  -28.6505   23.0363 C   0  0  0  0  0  0
  -26.4556  -31.6543   25.0711 C   0  0  0  0  0  0
  -25.3692  -31.3782   26.1373 C   0  0  0  0  0  0
  -27.0448  -30.2914   24.6420 C   0  0  0  0  0  0
  -27.6052  -32.4346   25.7513 C   0  0  0  0  0  0
  -27.5570  -37.1767   24.8466 C   0  0  0  0  0  0
  -21.4323  -29.3047   22.3547 N   0  0  0  0  0  0
  -26.4281  -37.3714   23.9408 N   0  0  0  0  0  0
  -24.7441  -30.9993   22.0873 N   0  0  0  0  0  0
  -23.4217  -28.8030   23.3015 O   0  0  0  0  0  0
  -28.1998  -25.8667   20.2616 O   0  0  0  0  0  0
  -26.5698  -34.8890   22.4613 O   0  0  0  0  0  0
  -23.5671  -32.1238   23.6876 O   0  0  0  0  0  0
  -29.7474  -22.1889   19.6881 C   0  0  0  0  0  0
  -30.1716  -20.7690   19.7283 C   0  0  0  0  0  0
  -27.8432  -21.5954   20.8335 C   0  0  0  0  0  0
  -28.5352  -22.7479   20.2507 C   0  0  0  0  0  0
  -29.4791  -19.6177   20.3040 C   0  0  0  0  0  0
  -28.2536  -20.1593   20.8753 C   0  0  0  0  0  0
  -30.1925  -18.0317   20.3406 C   0  0  0  0  0  0
  -27.8085  -24.3087   20.0197 C   0  0  0  0  0  0
  -27.3365  -19.1613   21.5773 C   0  0  0  0  0  0
  -29.7442  -16.4541   20.4578 N   0  0  0  0  0  0
  -26.1364  -19.6764   21.8474 F   0  0  0  0  0  0
  -27.1578  -18.0815   20.8137 F   0  0  0  0  0  0
  -27.8970  -18.7784   22.7243 F   0  0  0  0  0  0
  -31.4602  -12.9360   19.1937 H   0  0  0  0  0  0
  -30.4780  -11.8361   20.1127 H   0  0  0  0  0  0
  -29.8930  -11.7401   17.6620 H   0  0  0  0  0  0
  -29.5753  -13.4579   17.6564 H   0  0  0  0  0  0
  -28.0144  -11.2763   19.0620 H   0  0  0  0  0  0
  -27.4063  -12.3694   17.8448 H   0  0  0  0  0  0
  -27.5384  -14.2466   19.3425 H   0  0  0  0  0  0
  -28.7981  -12.4767   21.4917 H   0  0  0  0  0  0
  -28.3071  -14.1437   21.6981 H   0  0  0  0  0  0
  -25.2778   -9.5683   22.4762 H   0  0  0  0  0  0
  -24.0011   -7.4636   22.7475 H   0  0  0  0  0  0
  -21.0857   -8.8780   19.8950 H   0  0  0  0  0  0
  -22.3718  -10.9674   19.6164 H   0  0  0  0  0  0
  -21.2010   -7.6149   23.9716 H   0  0  0  0  0  0
  -21.1483   -6.0524   25.9077 H   0  0  0  0  0  0
  -22.0597   -2.7610   23.2845 H   0  0  0  0  0  0
  -22.4064  -11.9839   22.4844 H   0  0  0  0  0  0
  -21.1036  -13.1169   22.2663 H   0  0  0  0  0  0
  -24.6345  -15.8470   20.5558 H   0  0  0  0  0  0
  -26.2506  -15.6542   20.1152 H   0  0  0  0  0  0
  -26.7361  -32.5167   23.0918 H   0  0  0  0  0  0
  -25.0081  -33.9515   25.0226 H   0  0  0  0  0  0
  -22.7822  -31.2745   21.3585 H   0  0  0  0  0  0
  -23.3766  -35.9536   23.3283 H   0  0  0  0  0  0
  -24.3570  -36.8885   22.2065 H   0  0  0  0  0  0
  -23.7240  -37.6396   23.6713 H   0  0  0  0  0  0
  -26.2160  -31.3947   20.6244 H   0  0  0  0  0  0
  -26.9006  -30.7029   22.0547 H   0  0  0  0  0  0
  -28.1424  -28.6308   21.2826 H   0  0  0  0  0  0
  -25.8679  -25.7771   18.9825 H   0  0  0  0  0  0
  -23.9970  -27.2899   18.9468 H   0  0  0  0  0  0
  -23.8605  -30.5376   19.3921 H   0  0  0  0  0  0
  -22.8192  -29.2189   19.8301 H   0  0  0  0  0  0
  -25.1329  -36.1784   25.0794 H   0  0  0  0  0  0
  -21.0033  -28.3353   24.1318 H   0  0  0  0  0  0
  -20.5682  -26.2367   23.3638 H   0  0  0  0  0  0
  -21.6662  -26.7417   22.1205 H   0  0  0  0  0  0
  -19.6930  -25.6279   21.1271 H   0  0  0  0  0  0
  -19.6706  -27.3165   20.6723 H   0  0  0  0  0  0
  -17.4221  -26.6683   21.4029 H   0  0  0  0  0  0
  -18.0351  -26.0094   22.9032 H   0  0  0  0  0  0
  -19.7967  -30.7317   24.2206 H   0  0  0  0  0  0
  -17.5037  -31.6273   24.5166 H   0  0  0  0  0  0
  -15.5374  -30.2974   23.7691 H   0  0  0  0  0  0
  -15.8703  -28.0808   22.7104 H   0  0  0  0  0  0
  -24.5889  -30.7115   25.7686 H   0  0  0  0  0  0
  -24.8865  -32.2980   26.4685 H   0  0  0  0  0  0
  -25.7934  -30.9028   27.0226 H   0  0  0  0  0  0
  -26.3109  -29.6598   24.1402 H   0  0  0  0  0  0
  -27.3966  -29.7268   25.5065 H   0  0  0  0  0  0
  -27.9057  -30.4103   23.9838 H   0  0  0  0  0  0
  -27.2622  -33.3687   26.1975 H   0  0  0  0  0  0
  -28.3925  -32.6843   25.0387 H   0  0  0  0  0  0
  -28.0651  -31.8549   26.5526 H   0  0  0  0  0  0
  -28.2573  -38.0076   24.7513 H   0  0  0  0  0  0
  -28.1082  -36.2604   24.6296 H   0  0  0  0  0  0
  -27.2286  -37.1413   25.8868 H   0  0  0  0  0  0
  -20.9566  -29.8744   21.6689 H   0  0  0  0  0  0
  -26.0132  -38.2774   24.1415 H   0  0  0  0  0  0
  -30.3936  -22.8750   19.1579 H   0  0  0  0  0  0
  -31.1235  -20.5569   19.2615 H   0  0  0  0  0  0
  -26.8828  -21.8240   21.2706 H   0  0  0  0  0  0
  -30.9238  -18.1260   21.1437 H   0  0  0  0  0  0
  -30.8070  -18.0285   19.4397 H   0  0  0  0  0  0
  -26.8535  -24.2060   20.5357 H   0  0  0  0  0  0
  -27.5481  -24.2781   18.9618 H   0  0  0  0  0  0
  -28.7508  -16.3311   20.5872 H   0  0  0  0  0  0
  1 25  1  0  0  0
  1 30  2  0  0  0
  1 80  1  0  0  0
  2  3  1  0  0  0
  2 25  1  0  0  0
  2 84  1  0  0  0
  2 85  1  0  0  0
  3  4  1  0  0  0
  3 86  1  0  0  0
  3 87  1  0  0  0
  4  5  1  0  0  0
  4 88  1  0  0  0
  4 89  1  0  0  0
  5  6  1  0  0  0
  5 26  1  0  0  0
  5 90  1  0  0  0
  6 25  1  0  0  0
  6 91  1  0  0  0
  6 92  1  0  0  0
  7  8  2  0  0  0
  7 26  1  0  0  0
  7 29  1  0  0  0
  8  9  1  0  0  0
  8 22  1  0  0  0
  9 10  1  0  0  0
  9 27  2  0  0  0
 10 11  2  0  0  0
 10 15  1  0  0  0
 11 12  1  0  0  0
 11 93  1  0  0  0
 12 13  2  0  0  0
 12 94  1  0  0  0
 13 14  1  0  0  0
 13 31  1  0  0  0
 14 15  2  0  0  0
 14 95  1  0  0  0
 15 96  1  0  0  0
 16 17  2  0  0  0
 16 21  1  0  0  0
 16 31  1  0  0  0
 17 18  1  0  0  0
 17 97  1  0  0  0
 18 19  2  0  0  0
 18 98  1  0  0  0
 19 20  1  0  0  0
 19 24  1  0  0  0
 20 21  2  0  0  0
 20 99  1  0  0  0
 21 23  1  0  0  0
 22 28  1  0  0  0
 22 32  2  0  0  0
 26 27  1  0  0  0
 28100  1  0  0  0
 28101  1  0  0  0
 29102  1  0  0  0
 29103  1  0  0  0
 33 34  1  0  0  0
 33 66  1  0  0  0
 33 70  2  0  0  0
 34 36  1  0  0  0
 34 59  1  0  0  0
 34104  1  0  0  0
 35 44  2  0  0  0
 35 45  1  0  0  0
 35 68  1  0  0  0
 36 56  1  0  0  0
 36105  1  0  0  0
 37 39  1  0  0  0
 37 47  1  0  0  0
 37 66  1  0  0  0
 37106  1  0  0  0
 38 43  2  0  0  0
 38 46  1  0  0  0
 38 47  1  0  0  0
 39 64  1  0  0  0
 39 67  2  0  0  0
 40 52  1  0  0  0
 40 53  2  0  0  0
 40 58  1  0  0  0
 41107  1  0  0  0
 41108  1  0  0  0
 41109  1  0  0  0
 41 48  1  0  0  0
 42 43  1  0  0  0
 42 66  1  0  0  0
 42110  1  0  0  0
 42111  1  0  0  0
 43 44  1  0  0  0
 44112  1  0  0  0
 45 46  2  0  0  0
 45113  1  0  0  0
 46114  1  0  0  0
 47115  1  0  0  0
 47116  1  0  0  0
 48 56  1  0  0  0
 48 65  1  0  0  0
 48117  1  0  0  0
 49 50  1  0  0  0
 49 53  1  0  0  0
 49 64  1  0  0  0
 49118  1  0  0  0
 50 51  1  0  0  0
 50119  1  0  0  0
 50120  1  0  0  0
 51 52  1  0  0  0
 51121  1  0  0  0
 51122  1  0  0  0
 52123  1  0  0  0
 52124  1  0  0  0
 53 54  1  0  0  0
 54 55  2  0  0  0
 54125  1  0  0  0
 55 57  1  0  0  0
 55126  1  0  0  0
 56 69  2  0  0  0
 57 58  2  0  0  0
 57127  1  0  0  0
 58128  1  0  0  0
 59 60  1  0  0  0
 59 61  1  0  0  0
 59 62  1  0  0  0
 60129  1  0  0  0
 60130  1  0  0  0
 60131  1  0  0  0
 61132  1  0  0  0
 61133  1  0  0  0
 61134  1  0  0  0
 62135  1  0  0  0
 62136  1  0  0  0
 62137  1  0  0  0
 63 65  1  0  0  0
 63138  1  0  0  0
 63139  1  0  0  0
 63140  1  0  0  0
 64141  1  0  0  0
 65142  1  0  0  0
 68 78  1  0  0  0
 71 72  2  0  0  0
 71 74  1  0  0  0
 71143  1  0  0  0
 72 75  1  0  0  0
 72144  1  0  0  0
 73 74  2  0  0  0
 73 76  1  0  0  0
 73145  1  0  0  0
 74 78  1  0  0  0
 75 76  2  0  0  0
 75 77  1  0  0  0
 76 79  1  0  0  0
 77 80  1  0  0  0
 77146  1  0  0  0
 77147  1  0  0  0
 78148  1  0  0  0
 78149  1  0  0  0
 79 81  1  0  0  0
 79 82  1  0  0  0
 79 83  1  0  0  0
 80150  1  0  0  0
M  ISO  4   1 100  68 101  78 101  80 100
M  END
> <chiral flag>
0

> <version>
0

> <s_m_source_file>
/data/baiqing/PycharmProjects/Reinvent-master-3.2/result/LINK_invent/BTK/process_docking_weight1_custom_product_contain_oxygen_bond_distance_aromatic_linkinvent_7_9_3/rearranged_h_0033.sdf

> <i_m_source_file_index>
70

> <r_mmod_Potential_Energy-OPLS-2005>
1047.45080566406

> <r_mmod_Stretch_Energy-OPLS-2005>
448.15673828125

> <r_mmod_Bend_Energy-OPLS-2005>
421.278533935547

> <r_mmod_Torsional_Energy-OPLS-2005>
214.467346191406

> <r_mmod_Improper_Torsional_Energy-OPLS-2005>
6.84847688674927

> <r_mmod_Van_der_Waal_Energy-OPLS-2005>
132.552993774414

> <r_mmod_Electrostatic_Energy-OPLS-2005>
-364.867309570312

> <r_mmod_Solvation_Energy-OPLS-2005>
-198.957244873047

> <b_mmod_Minimization_Converged-OPLS-2005>
0

> <r_mmod_RMS_Derivative-OPLS-2005>
0.12190131098032

$$$$
70
                    3D
 Structure written by MMmdl.
151159  0  0  1  0            999 V2000
  -30.5993  -14.1065   21.0248 C   0  0  0  0  0  0
  -30.7372  -12.4080   19.1437 C   0  0  0  0  0  0
  -29.8115  -12.7278   17.8915 C   0  0  0  0  0  0
  -28.3202  -13.1471   18.1286 C   0  0  0  0  0  0
  -28.2406  -13.9530   19.4810 C   0  0  2  0  0  0
  -28.8711  -12.6996   20.3321 C   0  0  0  0  0  0
  -25.1259  -14.8912   20.8117 C   0  0  0  0  0  0
  -24.0255  -13.8359   21.1676 C   0  0  0  0  0  0
  -24.5765  -12.6489   21.5624 C   0  0  0  0  0  0
  -23.9754  -11.0687   21.2577 C   0  0  0  0  0  0
  -24.3993   -9.8957   22.0235 C   0  0  0  0  0  0
  -23.7547   -8.5915   22.0904 C   0  0  0  0  0  0
  -22.5764   -8.2869   21.3637 C   0  0  0  0  0  0
  -22.1920   -9.3361   20.4848 C   0  0  0  0  0  0
  -22.8614  -10.6275   20.4250 C   0  0  0  0  0  0
  -21.7895   -6.1950   22.4963 C   0  0  0  0  0  0
  -21.4741   -6.6408   23.8021 C   0  0  0  0  0  0
  -21.3858   -5.7325   24.8840 C   0  0  0  0  0  0
  -21.6005   -4.3562   24.6812 C   0  0  0  0  0  0
  -21.8720   -3.8883   23.3850 C   0  0  0  0  0  0
  -21.9515   -4.7932   22.3033 C   0  0  0  0  0  0
  -22.4963  -13.9188   21.2133 C   0  0  0  0  0  0
  -22.1835   -4.2943   21.0654 F   0  0  0  0  0  0
  -21.5435   -3.4893   25.7238 F   0  0  0  0  0  0
  -30.2299  -12.9762   20.3973 N   0  0  0  0  0  0
  -26.5028  -14.9001   20.0746 N   0  0  0  0  0  0
  -24.9919  -14.1004   21.0988 N   0  0  0  0  0  0
  -21.8390  -13.0682   22.0094 N   0  0  0  0  0  0
  -26.5878  -15.3032   19.9498 N   0  0  0  0  0  0
  -31.5723  -14.7525   20.5904 O   0  0  0  0  0  0
  -21.8527   -7.0720   21.4064 O   0  0  0  0  0  0
  -21.9444  -14.7701   20.5455 O   0  0  0  0  0  0
  -24.7635  -31.6707   23.0851 C   0  0  0  0  0  0
  -25.9819  -32.3793   23.7642 C   0  0  1  0  0  0
  -26.4792  -25.4605   20.3785 C   0  0  0  0  0  0
  -25.6034  -33.7722   24.1367 N   0  0  0  0  0  0
  -23.5878  -30.2757   21.4664 C   0  0  2  0  0  0
  -24.9047  -28.3877   20.1043 C   0  0  0  0  0  0
  -22.7893  -29.3713   22.4461 C   0  0  0  0  0  0
  -18.0325  -28.1441   22.8413 C   0  0  0  0  0  0
  -24.1503  -36.6874   23.2683 C   0  0  0  0  0  0
  -26.1485  -29.9423   21.5437 C   0  0  0  0  0  0
  -26.0412  -28.3987   20.9027 C   0  0  0  0  0  0
  -26.7994  -26.9874   20.9922 C   0  0  0  0  0  0
  -25.5447  -25.9852   19.4076 C   0  0  0  0  0  0
  -24.7879  -27.2293   19.3112 C   0  0  0  0  0  0
  -23.8530  -29.5425   20.1059 C   0  0  0  0  0  0
  -25.4195  -36.2526   24.0204 C   0  0  1  0  0  0
  -20.5962  -28.3787   23.1032 C   0  0  2  0  0  0
  -20.6734  -26.9384   22.5440 C   0  0  0  0  0  0
  -19.5748  -26.6319   21.5221 C   0  0  0  0  0  0
  -18.1924  -26.7957   22.1588 C   0  0  0  0  0  0
  -19.1604  -28.8956   23.2690 C   0  0  0  0  0  0
  -18.9526  -30.1528   23.8763 C   0  0  0  0  0  0
  -17.6519  -30.6615   24.0537 C   0  0  0  0  0  0
  -25.9230  -34.8933   23.4706 C   0  0  0  0  0  0
  -16.5397  -29.9097   23.6365 C   0  0  0  0  0  0
  -16.7310  -28.6522   23.0373 C   0  0  0  0  0  0
  -26.4742  -31.6376   25.0705 C   0  0  0  0  0  0
  -25.3583  -31.3981   26.1165 C   0  0  0  0  0  0
  -27.0862  -30.2647   24.7400 C   0  0  0  0  0  0
  -27.6002  -32.4536   25.7498 C   0  0  0  0  0  0
  -27.5521  -37.1602   24.8475 C   0  0  0  0  0  0
  -21.4500  -29.2872   22.3230 N   0  0  0  0  0  0
  -26.4235  -37.3397   23.9388 N   0  0  0  0  0  0
  -24.8840  -30.7025   22.0753 N   0  0  0  0  0  0
  -23.3992  -28.7427   23.3143 O   0  0  0  0  0  0
  -26.8090  -23.6333   20.4925 O   0  0  0  0  0  0
  -26.6025  -34.8713   22.4432 O   0  0  0  0  0  0
  -23.6533  -32.0433   23.5194 O   0  0  0  0  0  0
  -26.3133  -12.7504   19.9456 C   0  0  0  0  0  0
  -25.0841  -14.0739   18.5893 C   0  0  0  0  0  0
  -26.7349  -16.1504   22.0411 C   0  0  0  0  0  0
  -25.8061  -17.4288   20.5476 C   0  0  0  0  0  0
  -27.1632  -13.9722   21.9064 C   0  0  0  0  0  0
  -24.8468  -16.2724   18.9495 C   0  0  0  0  0  0
  -26.1662  -19.8166   20.5530 C   0  0  0  0  0  0
  -26.1825  -21.6965   20.3379 C   0  0  0  0  0  0
  -24.0827  -17.0509   17.9062 C   0  0  0  0  0  0
  -28.5181  -13.8137   22.7349 C   0  0  0  0  0  0
  -29.7999  -14.4273   22.1183 N   0  0  0  0  0  0
  -31.7528  -12.7576   18.9498 H   0  0  0  0  0  0
  -30.8359  -11.3279   19.2684 H   0  0  0  0  0  0
  -29.8604  -11.9084   17.1732 H   0  0  0  0  0  0
  -30.2819  -13.5689   17.3793 H   0  0  0  0  0  0
  -27.6929  -12.2636   18.0224 H   0  0  0  0  0  0
  -27.9999  -13.7995   17.3154 H   0  0  0  0  0  0
  -28.9347  -14.7785   19.3014 H   0  0  0  0  0  0
  -28.7219  -11.7344   19.8340 H   0  0  0  0  0  0
  -28.4398  -12.1728   21.1687 H   0  0  0  0  0  0
  -25.2397  -10.0431   22.6874 H   0  0  0  0  0  0
  -24.1668   -7.8443   22.7538 H   0  0  0  0  0  0
  -21.3317   -9.1787   19.8496 H   0  0  0  0  0  0
  -22.4254  -11.3652   19.7668 H   0  0  0  0  0  0
  -21.3078   -7.6931   23.9797 H   0  0  0  0  0  0
  -21.1615   -6.0976   25.8758 H   0  0  0  0  0  0
  -22.0177   -2.8327   23.2143 H   0  0  0  0  0  0
  -22.3283  -12.3800   22.5599 H   0  0  0  0  0  0
  -20.8319  -13.1132   22.0666 H   0  0  0  0  0  0
  -26.1951  -15.4360   19.0241 H   0  0  0  0  0  0
  -26.8095  -16.2283   20.2897 H   0  0  0  0  0  0
  -26.7986  -32.4029   23.0406 H   0  0  0  0  0  0
  -24.9907  -33.8615   24.9338 H   0  0  0  0  0  0
  -22.9766  -31.1535   21.2448 H   0  0  0  0  0  0
  -23.3795  -35.9169   23.3247 H   0  0  0  0  0  0
  -24.3518  -36.8698   22.2115 H   0  0  0  0  0  0
  -23.7255  -37.5981   23.6916 H   0  0  0  0  0  0
  -26.5410  -30.5688   20.7417 H   0  0  0  0  0  0
  -26.9551  -29.9303   22.2585 H   0  0  0  0  0  0
  -27.6075  -26.9924   21.7100 H   0  0  0  0  0  0
  -25.1930  -25.2305   18.7181 H   0  0  0  0  0  0
  -23.9920  -27.2316   18.5786 H   0  0  0  0  0  0
  -24.1822  -30.2773   19.3702 H   0  0  0  0  0  0
  -22.9105  -29.1515   19.7189 H   0  0  0  0  0  0
  -25.1464  -36.1148   25.0691 H   0  0  0  0  0  0
  -21.0024  -28.3486   24.1168 H   0  0  0  0  0  0
  -20.5500  -26.2434   23.3759 H   0  0  0  0  0  0
  -21.6596  -26.7201   22.1326 H   0  0  0  0  0  0
  -19.6887  -25.6194   21.1335 H   0  0  0  0  0  0
  -19.6743  -27.3059   20.6700 H   0  0  0  0  0  0
  -17.4207  -26.6718   21.3976 H   0  0  0  0  0  0
  -18.0269  -26.0128   22.9002 H   0  0  0  0  0  0
  -19.8014  -30.7357   24.2079 H   0  0  0  0  0  0
  -17.5081  -31.6282   24.5166 H   0  0  0  0  0  0
  -15.5397  -30.2973   23.7769 H   0  0  0  0  0  0
  -15.8699  -28.0812   22.7165 H   0  0  0  0  0  0
  -24.5851  -30.7232   25.7476 H   0  0  0  0  0  0
  -24.8694  -32.3285   26.4057 H   0  0  0  0  0  0
  -25.7566  -30.9505   27.0280 H   0  0  0  0  0  0
  -26.3572  -29.5735   24.3168 H   0  0  0  0  0  0
  -27.4563  -29.7796   25.6444 H   0  0  0  0  0  0
  -27.9479  -30.3545   24.0784 H   0  0  0  0  0  0
  -27.2417  -33.4047   26.1447 H   0  0  0  0  0  0
  -28.4075  -32.6755   25.0505 H   0  0  0  0  0  0
  -28.0387  -31.9141   26.5904 H   0  0  0  0  0  0
  -28.2485  -37.9936   24.7460 H   0  0  0  0  0  0
  -28.1069  -36.2440   24.6397 H   0  0  0  0  0  0
  -27.2215  -37.1320   25.8872 H   0  0  0  0  0  0
  -20.9952  -29.8441   21.6130 H   0  0  0  0  0  0
  -25.9971  -38.2406   24.1377 H   0  0  0  0  0  0
  -26.4962  -11.7035   19.7453 H   0  0  0  0  0  0
  -24.6249  -13.6351   17.7156 H   0  0  0  0  0  0
  -27.2675  -16.6730   22.8220 H   0  0  0  0  0  0
  -25.2517  -19.8557   19.9789 H   0  0  0  0  0  0
  -25.3111  -21.8786   19.7237 H   0  0  0  0  0  0
  -24.4856  -16.8522   16.9134 H   0  0  0  0  0  0
  -24.1524  -18.1208   18.1018 H   0  0  0  0  0  0
  -23.0311  -16.7638   17.9178 H   0  0  0  0  0  0
  -28.6847  -12.7978   23.0960 H   0  0  0  0  0  0
  -28.3505  -14.3712   23.6562 H   0  0  0  0  0  0
  -30.1013  -15.2690   22.5865 H   0  0  0  0  0  0
  1 25  1  0  0  0
  1 30  2  0  0  0
  1 81  1  0  0  0
  2  3  1  0  0  0
  2 25  1  0  0  0
  2 82  1  0  0  0
  2 83  1  0  0  0
  3  4  1  0  0  0
  3 84  1  0  0  0
  3 85  1  0  0  0
  4  5  1  0  0  0
  4 86  1  0  0  0
  4 87  1  0  0  0
  5  6  1  0  0  0
  5 26  1  0  0  0
  5 88  1  0  0  0
  6 25  1  0  0  0
  6 89  1  0  0  0
  6 90  1  0  0  0
  7  8  2  0  0  0
  7 26  1  0  0  0
  7 29  1  0  0  0
  8  9  1  0  0  0
  8 22  1  0  0  0
  9 10  1  0  0  0
  9 27  2  0  0  0
 10 11  2  0  0  0
 10 15  1  0  0  0
 11 12  1  0  0  0
 11 91  1  0  0  0
 12 13  2  0  0  0
 12 92  1  0  0  0
 13 14  1  0  0  0
 13 31  1  0  0  0
 14 15  2  0  0  0
 14 93  1  0  0  0
 15 94  1  0  0  0
 16 17  2  0  0  0
 16 21  1  0  0  0
 16 31  1  0  0  0
 17 18  1  0  0  0
 17 95  1  0  0  0
 18 19  2  0  0  0
 18 96  1  0  0  0
 19 20  1  0  0  0
 19 24  1  0  0  0
 20 21  2  0  0  0
 20 97  1  0  0  0
 21 23  1  0  0  0
 22 28  1  0  0  0
 22 32  2  0  0  0
 26 27  1  0  0  0
 28 98  1  0  0  0
 28 99  1  0  0  0
 29100  1  0  0  0
 29101  1  0  0  0
 33 34  1  0  0  0
 33 66  1  0  0  0
 33 70  2  0  0  0
 34 36  1  0  0  0
 34 59  1  0  0  0
 34102  1  0  0  0
 35 44  2  0  0  0
 35 45  1  0  0  0
 35 68  1  0  0  0
 36 56  1  0  0  0
 36103  1  0  0  0
 37 39  1  0  0  0
 37 47  1  0  0  0
 37 66  1  0  0  0
 37104  1  0  0  0
 38 43  2  0  0  0
 38 46  1  0  0  0
 38 47  1  0  0  0
 39 64  1  0  0  0
 39 67  2  0  0  0
 40 52  1  0  0  0
 40 53  2  0  0  0
 40 58  1  0  0  0
 41105  1  0  0  0
 41106  1  0  0  0
 41107  1  0  0  0
 41 48  1  0  0  0
 42 43  1  0  0  0
 42 66  1  0  0  0
 42108  1  0  0  0
 42109  1  0  0  0
 43 44  1  0  0  0
 44110  1  0  0  0
 45 46  2  0  0  0
 45111  1  0  0  0
 46112  1  0  0  0
 47113  1  0  0  0
 47114  1  0  0  0
 48 56  1  0  0  0
 48 65  1  0  0  0
 48115  1  0  0  0
 49 50  1  0  0  0
 49 53  1  0  0  0
 49 64  1  0  0  0
 49116  1  0  0  0
 50 51  1  0  0  0
 50117  1  0  0  0
 50118  1  0  0  0
 51 52  1  0  0  0
 51119  1  0  0  0
 51120  1  0  0  0
 52121  1  0  0  0
 52122  1  0  0  0
 53 54  1  0  0  0
 54 55  2  0  0  0
 54123  1  0  0  0
 55 57  1  0  0  0
 55124  1  0  0  0
 56 69  2  0  0  0
 57 58  2  0  0  0
 57125  1  0  0  0
 58126  1  0  0  0
 59 60  1  0  0  0
 59 61  1  0  0  0
 59 62  1  0  0  0
 60127  1  0  0  0
 60128  1  0  0  0
 60129  1  0  0  0
 61130  1  0  0  0
 61131  1  0  0  0
 61132  1  0  0  0
 62133  1  0  0  0
 62134  1  0  0  0
 62135  1  0  0  0
 63 65  1  0  0  0
 63136  1  0  0  0
 63137  1  0  0  0
 63138  1  0  0  0
 64139  1  0  0  0
 65140  1  0  0  0
 68 78  1  0  0  0
 71 72  2  0  0  0
 71 75  1  0  0  0
 71141  1  0  0  0
 72 76  1  0  0  0
 72142  1  0  0  0
 73 74  1  0  0  0
 73 75  2  0  0  0
 73143  1  0  0  0
 74 76  2  0  0  0
 74 77  1  0  0  0
 75 80  1  0  0  0
 76 79  1  0  0  0
 77 78  2  0  0  0
 77144  1  0  0  0
 78145  1  0  0  0
 79146  1  0  0  0
 79147  1  0  0  0
 79148  1  0  0  0
 80 81  1  0  0  0
 80149  1  0  0  0
 80150  1  0  0  0
 81151  1  0  0  0
M  ISO  4   1 100  68 101  78 101  81 100
M  END
> <chiral flag>
0

> <version>
0

> <s_m_source_file>
/data/baiqing/PycharmProjects/Reinvent-master-3.2/result/LINK_invent/BTK/process_docking_weight1_custom_product_contain_oxygen_bond_distance_aromatic_linkinvent_7_9_3/rearranged_h_0033.sdf

> <i_m_source_file_index>
71

> <r_mmod_Potential_Energy-OPLS-2005>
26969.083984375

> <r_mmod_Stretch_Energy-OPLS-2005>
14271.1689453125

> <r_mmod_Bend_Energy-OPLS-2005>
3653.42163085938

> <r_mmod_Torsional_Energy-OPLS-2005>
494.820465087891

> <r_mmod_Improper_Torsional_Energy-OPLS-2005>
64.3305435180664

> <r_mmod_Van_der_Waal_Energy-OPLS-2005>
4351.31396484375

> <r_mmod_Electrostatic_Energy-OPLS-2005>
-364.089599609375

> <r_mmod_Solvation_Energy-OPLS-2005>
-210.90625

> <b_mmod_Minimization_Converged-OPLS-2005>
0

> <r_mmod_RMS_Derivative-OPLS-2005>
1.03114879131317

$$$$
71
                    3D
 Structure written by MMmdl.
170179  0  0  1  0            999 V2000
  -30.6537  -14.6565   20.5093 C   0  0  0  0  0  0
  -30.4422  -12.4039   19.4674 C   0  0  0  0  0  0
  -29.5143  -12.5147   18.2365 C   0  0  0  0  0  0
  -28.0398  -12.3451   18.6499 C   0  0  0  0  0  0
  -27.6599  -13.2224   19.8730 C   0  0  2  0  0  0
  -28.7071  -13.0949   21.0047 C   0  0  0  0  0  0
  -25.2578  -13.8181   20.5714 C   0  0  0  0  0  0
  -24.1843  -13.0438   20.9187 C   0  0  0  0  0  0
  -24.6415  -11.6912   20.8735 C   0  0  0  0  0  0
  -23.9078  -10.4292   21.0392 C   0  0  0  0  0  0
  -24.3620   -9.4213   21.9176 C   0  0  0  0  0  0
  -23.6294   -8.2246   22.0757 C   0  0  0  0  0  0
  -22.4274   -8.0279   21.3545 C   0  0  0  0  0  0
  -21.9912   -9.0247   20.4648 C   0  0  0  0  0  0
  -22.7242  -10.2128   20.3053 C   0  0  0  0  0  0
  -21.6852   -6.0733   22.5275 C   0  0  0  0  0  0
  -21.4010   -6.5635   23.8209 C   0  0  0  0  0  0
  -21.3666   -5.6789   24.9168 C   0  0  0  0  0  0
  -21.6049   -4.3053   24.7222 C   0  0  0  0  0  0
  -21.8816   -3.8147   23.4342 C   0  0  0  0  0  0
  -21.9192   -4.6962   22.3399 C   0  0  0  0  0  0
  -22.7857  -13.5237   21.1836 C   0  0  0  0  0  0
  -22.1660   -4.2151   21.0976 F   0  0  0  0  0  0
  -21.5634   -3.4541   25.7735 F   0  0  0  0  0  0
  -30.0266  -13.4352   20.4429 N   0  0  0  0  0  0
  -26.3034  -12.9377   20.3389 N   0  0  0  0  0  0
  -25.9360  -11.6523   20.5794 N   0  0  0  0  0  0
  -22.0505  -12.8230   22.0396 N   0  0  0  0  0  0
  -25.4263  -15.1908   20.4141 N   0  0  0  0  0  0
  -31.7928  -14.8101   20.0598 O   0  0  0  0  0  0
  -21.6643   -6.8872   21.4240 O   0  0  0  0  0  0
  -22.3549  -14.5547   20.6691 O   0  0  0  0  0  0
  -24.6273  -31.8569   23.1981 C   0  0  0  0  0  0
  -25.9113  -32.4767   23.8317 C   0  0  1  0  0  0
  -27.2326  -27.3066   20.1043 C   0  0  0  0  0  0
  -25.5924  -33.8566   24.2245 N   0  0  0  0  0  0
  -23.4218  -30.4803   21.5411 C   0  0  2  0  0  0
  -24.8697  -28.9301   20.1120 C   0  0  0  0  0  0
  -22.7477  -29.4610   22.4902 C   0  0  0  0  0  0
  -18.0291  -28.1392   22.8463 C   0  0  0  0  0  0
  -24.1501  -36.7279   23.2639 C   0  0  0  0  0  0
  -25.9662  -30.7809   21.3740 C   0  0  0  0  0  0
  -26.0398  -29.4079   20.7138 C   0  0  0  0  0  0
  -27.2237  -28.6085   20.6993 C   0  0  0  0  0  0
  -26.0351  -26.8853   19.4812 C   0  0  0  0  0  0
  -24.8694  -27.6733   19.4902 C   0  0  0  0  0  0
  -23.6380  -29.8111   20.1586 C   0  0  0  0  0  0
  -25.4120  -36.3060   24.0329 C   0  0  1  0  0  0
  -20.5887  -28.3690   23.1274 C   0  0  2  0  0  0
  -20.6783  -26.9408   22.5402 C   0  0  0  0  0  0
  -19.5767  -26.6371   21.5205 C   0  0  0  0  0  0
  -18.1935  -26.7934   22.1598 C   0  0  0  0  0  0
  -19.1542  -28.8854   23.2872 C   0  0  0  0  0  0
  -18.9470  -30.1455   23.8896 C   0  0  0  0  0  0
  -17.6470  -30.6594   24.0562 C   0  0  0  0  0  0
  -25.9054  -34.9443   23.5082 C   0  0  0  0  0  0
  -16.5363  -29.9094   23.6340 C   0  0  0  0  0  0
  -16.7278  -28.6512   23.0353 C   0  0  0  0  0  0
  -26.4495  -31.6593   25.0703 C   0  0  0  0  0  0
  -25.3718  -31.3755   26.1423 C   0  0  0  0  0  0
  -27.0344  -30.3016   24.6170 C   0  0  0  0  0  0
  -27.6038  -32.4353   25.7473 C   0  0  0  0  0  0
  -27.5594  -37.1776   24.8452 C   0  0  0  0  0  0
  -21.4181  -29.3057   22.3672 N   0  0  0  0  0  0
  -26.4280  -37.3768   23.9430 N   0  0  0  0  0  0
  -24.6910  -31.0566   22.0942 N   0  0  0  0  0  0
  -23.4212  -28.8140   23.2968 O   0  0  0  0  0  0
  -28.3597  -26.4620   20.1471 O   0  0  0  0  0  0
  -26.5616  -34.8923   22.4646 O   0  0  0  0  0  0
  -23.5435  -32.1367   23.7297 O   0  0  0  0  0  0
  -30.5476  -17.8228   19.7357 C   0  0  0  0  0  0
  -30.5510  -19.2461   19.5930 C   0  0  0  0  0  0
  -29.5621  -19.4640   21.7951 C   0  0  0  0  0  0
  -30.0380  -20.1158   20.6103 C   0  0  0  0  0  0
  -29.5752  -18.0253   21.9297 C   0  0  0  0  0  0
  -30.0534  -17.1680   20.8919 C   0  0  0  0  0  0
  -28.4739  -22.8270   18.9347 C   0  0  0  0  0  0
  -28.1083  -21.8219   18.1216 C   0  0  0  0  0  0
  -28.2892  -24.3323   18.7017 C   0  0  0  0  0  0
  -29.1709  -24.0389   20.8550 C   0  0  0  0  0  0
  -28.1769  -24.9817   20.0924 C   0  0  1  0  0  0
  -31.1821  -19.8044   18.3233 C   0  0  0  0  0  0
  -29.0939  -17.3826   23.2316 C   0  0  0  0  0  0
  -30.1818  -20.6924   23.9574 C   0  0  0  0  0  0
  -29.0650  -20.3220   22.9651 C   0  0  0  0  0  0
  -30.1872  -21.7035   20.5125 C   0  0  0  0  0  0
  -29.9224  -15.7064   21.0042 N   0  0  0  0  0  0
  -28.9910  -22.6311   20.3251 N   0  3  2  0  0  0
  -31.4854  -12.5182   19.1673 H   0  0  0  0  0  0
  -30.3729  -11.4113   19.9150 H   0  0  0  0  0  0
  -29.7832  -11.7617   17.4943 H   0  0  0  0  0  0
  -29.6518  -13.4843   17.7548 H   0  0  0  0  0  0
  -27.8884  -11.2926   18.8930 H   0  0  0  0  0  0
  -27.3817  -12.5624   17.8080 H   0  0  0  0  0  0
  -27.6757  -14.2561   19.5281 H   0  0  0  0  0  0
  -28.7204  -12.0797   21.4034 H   0  0  0  0  0  0
  -28.4464  -13.7374   21.8464 H   0  0  0  0  0  0
  -25.2761   -9.5688   22.4756 H   0  0  0  0  0  0
  -24.0001   -7.4641   22.7479 H   0  0  0  0  0  0
  -21.0846   -8.8761   19.8949 H   0  0  0  0  0  0
  -22.3697  -10.9663   19.6166 H   0  0  0  0  0  0
  -21.1997   -7.6142   23.9714 H   0  0  0  0  0  0
  -21.1497   -6.0519   25.9074 H   0  0  0  0  0  0
  -22.0593   -2.7606   23.2843 H   0  0  0  0  0  0
  -22.4092  -11.9882   22.4780 H   0  0  0  0  0  0
  -21.1133  -13.1283   22.2619 H   0  0  0  0  0  0
  -24.6549  -15.8412   20.5200 H   0  0  0  0  0  0
  -26.2787  -15.6379   20.1008 H   0  0  0  0  0  0
  -26.7181  -32.5438   23.1064 H   0  0  0  0  0  0
  -25.0129  -33.9718   25.0428 H   0  0  0  0  0  0
  -22.7163  -31.2997   21.3925 H   0  0  0  0  0  0
  -23.3785  -35.9587   23.3243 H   0  0  0  0  0  0
  -24.3595  -36.8952   22.2061 H   0  0  0  0  0  0
  -23.7238  -37.6452   23.6707 H   0  0  0  0  0  0
  -26.1028  -31.5426   20.6056 H   0  0  0  0  0  0
  -26.8451  -30.8262   22.0045 H   0  0  0  0  0  0
  -28.1217  -28.9669   21.1811 H   0  0  0  0  0  0
  -25.9676  -25.9304   18.9865 H   0  0  0  0  0  0
  -23.9708  -27.2967   19.0215 H   0  0  0  0  0  0
  -23.7635  -30.5847   19.4009 H   0  0  0  0  0  0
  -22.7575  -29.2414   19.8544 H   0  0  0  0  0  0
  -25.1311  -36.1872   25.0815 H   0  0  0  0  0  0
  -20.9984  -28.3271   24.1395 H   0  0  0  0  0  0
  -20.5666  -26.2305   23.3604 H   0  0  0  0  0  0
  -21.6660  -26.7433   22.1202 H   0  0  0  0  0  0
  -19.6930  -25.6274   21.1252 H   0  0  0  0  0  0
  -19.6733  -27.3174   20.6726 H   0  0  0  0  0  0
  -17.4211  -26.6694   21.3992 H   0  0  0  0  0  0
  -18.0324  -26.0080   22.8987 H   0  0  0  0  0  0
  -19.7949  -30.7265   24.2270 H   0  0  0  0  0  0
  -17.5034  -31.6280   24.5155 H   0  0  0  0  0  0
  -15.5367  -30.3004   23.7671 H   0  0  0  0  0  0
  -15.8672  -28.0842   22.7081 H   0  0  0  0  0  0
  -24.5893  -30.7106   25.7757 H   0  0  0  0  0  0
  -24.8926  -32.2942   26.4822 H   0  0  0  0  0  0
  -25.8017  -30.8949   27.0217 H   0  0  0  0  0  0
  -26.2924  -29.6751   24.1208 H   0  0  0  0  0  0
  -27.4064  -29.7288   25.4672 H   0  0  0  0  0  0
  -27.8783  -30.4312   23.9387 H   0  0  0  0  0  0
  -27.2636  -33.3669   26.2012 H   0  0  0  0  0  0
  -28.3865  -32.6882   25.0310 H   0  0  0  0  0  0
  -28.0694  -31.8514   26.5420 H   0  0  0  0  0  0
  -28.2538  -38.0143   24.7575 H   0  0  0  0  0  0
  -28.1163  -36.2671   24.6174 H   0  0  0  0  0  0
  -27.2324  -37.1295   25.8854 H   0  0  0  0  0  0
  -20.9341  -29.8820   21.6927 H   0  0  0  0  0  0
  -26.0144  -38.2820   24.1495 H   0  0  0  0  0  0
  -30.9344  -17.2175   18.9282 H   0  0  0  0  0  0
  -27.6814  -22.0241   17.1498 H   0  0  0  0  0  0
  -28.2151  -20.7863   18.4111 H   0  0  0  0  0  0
  -27.4280  -24.5291   18.0647 H   0  0  0  0  0  0
  -29.1704  -24.7058   18.1790 H   0  0  0  0  0  0
  -29.0305  -24.0775   21.9352 H   0  0  0  0  0  0
  -30.1911  -24.3650   20.6478 H   0  0  0  0  0  0
  -27.1930  -24.7496   20.5026 H   0  0  0  0  0  0
  -31.1760  -19.0658   17.5218 H   0  0  0  0  0  0
  -32.2221  -20.0799   18.5074 H   0  0  0  0  0  0
  -30.6565  -20.6783   17.9428 H   0  0  0  0  0  0
  -29.4575  -17.9270   24.1007 H   0  0  0  0  0  0
  -29.4560  -16.3653   23.3706 H   0  0  0  0  0  0
  -28.0053  -17.3598   23.2649 H   0  0  0  0  0  0
  -29.7827  -21.2758   24.7875 H   0  0  0  0  0  0
  -30.9700  -21.2852   23.4962 H   0  0  0  0  0  0
  -30.6587  -19.8100   24.3811 H   0  0  0  0  0  0
  -28.2588  -19.8160   23.4946 H   0  0  0  0  0  0
  -28.5912  -21.2313   22.6016 H   0  0  0  0  0  0
  -30.9249  -21.9686   19.7570 H   0  0  0  0  0  0
  -30.6742  -22.0094   21.4351 H   0  0  0  0  0  0
  -29.0962  -15.4059   21.4974 H   0  0  0  0  0  0
  -28.2478  -22.2216   20.8707 H   0  0  0  0  0  0
  1 25  1  0  0  0
  1 30  2  0  0  0
  1 87  1  0  0  0
  2  3  1  0  0  0
  2 25  1  0  0  0
  2 89  1  0  0  0
  2 90  1  0  0  0
  3  4  1  0  0  0
  3 91  1  0  0  0
  3 92  1  0  0  0
  4  5  1  0  0  0
  4 93  1  0  0  0
  4 94  1  0  0  0
  5  6  1  0  0  0
  5 26  1  0  0  0
  5 95  1  0  0  0
  6 25  1  0  0  0
  6 96  1  0  0  0
  6 97  1  0  0  0
  7  8  2  0  0  0
  7 26  1  0  0  0
  7 29  1  0  0  0
  8  9  1  0  0  0
  8 22  1  0  0  0
  9 10  1  0  0  0
  9 27  2  0  0  0
 10 11  2  0  0  0
 10 15  1  0  0  0
 11 12  1  0  0  0
 11 98  1  0  0  0
 12 13  2  0  0  0
 12 99  1  0  0  0
 13 14  1  0  0  0
 13 31  1  0  0  0
 14 15  2  0  0  0
 14100  1  0  0  0
 15101  1  0  0  0
 16 17  2  0  0  0
 16 21  1  0  0  0
 16 31  1  0  0  0
 17 18  1  0  0  0
 17102  1  0  0  0
 18 19  2  0  0  0
 18103  1  0  0  0
 19 20  1  0  0  0
 19 24  1  0  0  0
 20 21  2  0  0  0
 20104  1  0  0  0
 21 23  1  0  0  0
 22 28  1  0  0  0
 22 32  2  0  0  0
 26 27  1  0  0  0
 28105  1  0  0  0
 28106  1  0  0  0
 29107  1  0  0  0
 29108  1  0  0  0
 33 34  1  0  0  0
 33 66  1  0  0  0
 33 70  2  0  0  0
 34 36  1  0  0  0
 34 59  1  0  0  0
 34109  1  0  0  0
 35 44  2  0  0  0
 35 45  1  0  0  0
 35 68  1  0  0  0
 36 56  1  0  0  0
 36110  1  0  0  0
 37 39  1  0  0  0
 37 47  1  0  0  0
 37 66  1  0  0  0
 37111  1  0  0  0
 38 43  2  0  0  0
 38 46  1  0  0  0
 38 47  1  0  0  0
 39 64  1  0  0  0
 39 67  2  0  0  0
 40 52  1  0  0  0
 40 53  2  0  0  0
 40 58  1  0  0  0
 41112  1  0  0  0
 41113  1  0  0  0
 41114  1  0  0  0
 41 48  1  0  0  0
 42 43  1  0  0  0
 42 66  1  0  0  0
 42115  1  0  0  0
 42116  1  0  0  0
 43 44  1  0  0  0
 44117  1  0  0  0
 45 46  2  0  0  0
 45118  1  0  0  0
 46119  1  0  0  0
 47120  1  0  0  0
 47121  1  0  0  0
 48 56  1  0  0  0
 48 65  1  0  0  0
 48122  1  0  0  0
 49 50  1  0  0  0
 49 53  1  0  0  0
 49 64  1  0  0  0
 49123  1  0  0  0
 50 51  1  0  0  0
 50124  1  0  0  0
 50125  1  0  0  0
 51 52  1  0  0  0
 51126  1  0  0  0
 51127  1  0  0  0
 52128  1  0  0  0
 52129  1  0  0  0
 53 54  1  0  0  0
 54 55  2  0  0  0
 54130  1  0  0  0
 55 57  1  0  0  0
 55131  1  0  0  0
 56 69  2  0  0  0
 57 58  2  0  0  0
 57132  1  0  0  0
 58133  1  0  0  0
 59 60  1  0  0  0
 59 61  1  0  0  0
 59 62  1  0  0  0
 60134  1  0  0  0
 60135  1  0  0  0
 60136  1  0  0  0
 61137  1  0  0  0
 61138  1  0  0  0
 61139  1  0  0  0
 62140  1  0  0  0
 62141  1  0  0  0
 62142  1  0  0  0
 63 65  1  0  0  0
 63143  1  0  0  0
 63144  1  0  0  0
 63145  1  0  0  0
 64146  1  0  0  0
 65147  1  0  0  0
 68 81  1  0  0  0
 71 72  2  0  0  0
 71 76  1  0  0  0
 71148  1  0  0  0
 72 74  1  0  0  0
 72 82  1  0  0  0
 73 74  2  0  0  0
 73 75  1  0  0  0
 73 85  1  0  0  0
 74 86  1  0  0  0
 75 76  2  0  0  0
 75 83  1  0  0  0
 76 87  1  0  0  0
 77 78  2  0  0  0
 77 79  1  0  0  0
 77 88  1  0  0  0
 78149  1  0  0  0
 78150  1  0  0  0
 79 81  1  0  0  0
 79151  1  0  0  0
 79152  1  0  0  0
 80 81  1  0  0  0
 80 88  1  0  0  0
 80153  1  0  0  0
 80154  1  0  0  0
 81155  1  0  0  0
 82156  1  0  0  0
 82157  1  0  0  0
 82158  1  0  0  0
 83159  1  0  0  0
 83160  1  0  0  0
 83161  1  0  0  0
 84 85  1  0  0  0
 84162  1  0  0  0
 84163  1  0  0  0
 84164  1  0  0  0
 85165  1  0  0  0
 85166  1  0  0  0
 86167  1  0  0  0
 86168  1  0  0  0
 86 88  1  0  0  0
 87169  1  0  0  0
 88170  1  0  0  0
M  CHG  1  88   1
M  ISO  4   1 100  68 101  81 101  87 100
M  END
> <chiral flag>
0

> <version>
0

> <s_m_source_file>
/data/baiqing/PycharmProjects/Reinvent-master-3.2/result/LINK_invent/BTK/process_docking_weight1_custom_product_contain_oxygen_bond_distance_aromatic_linkinvent_7_9_3/rearranged_h_0033.sdf

> <i_m_source_file_index>
72

> <r_mmod_Potential_Energy-OPLS-2005>
-2.93860173225403

> <r_mmod_Stretch_Energy-OPLS-2005>
93.9814224243164

> <r_mmod_Bend_Energy-OPLS-2005>
181.732650756836

> <r_mmod_Torsional_Energy-OPLS-2005>
236.39958190918

> <r_mmod_Improper_Torsional_Energy-OPLS-2005>
3.92167329788208

> <r_mmod_Van_der_Waal_Energy-OPLS-2005>
144.397079467773

> <r_mmod_Electrostatic_Energy-OPLS-2005>
-294.246490478516

> <r_mmod_Solvation_Energy-OPLS-2005>
-421.273773193359

> <b_mmod_Minimization_Converged-OPLS-2005>
0

> <r_mmod_RMS_Derivative-OPLS-2005>
2.3350989818573

$$$$
72
                    3D
 Structure written by MMmdl.
170179  0  0  1  0            999 V2000
  -30.5650  -14.7920   20.4492 C   0  0  0  0  0  0
  -30.4311  -12.4772   19.4954 C   0  0  0  0  0  0
  -29.5133  -12.4980   18.2510 C   0  0  0  0  0  0
  -28.0425  -12.2939   18.6638 C   0  0  0  0  0  0
  -27.6312  -13.2256   19.8384 C   0  0  2  0  0  0
  -28.6657  -13.1910   20.9811 C   0  0  0  0  0  0
  -25.2546  -13.8110   20.5777 C   0  0  0  0  0  0
  -24.1830  -13.0381   20.9322 C   0  0  0  0  0  0
  -24.6405  -11.6856   20.8842 C   0  0  0  0  0  0
  -23.9064  -10.4257   21.0482 C   0  0  0  0  0  0
  -24.3587   -9.4162   21.9222 C   0  0  0  0  0  0
  -23.6263   -8.2203   22.0761 C   0  0  0  0  0  0
  -22.4254   -8.0266   21.3550 C   0  0  0  0  0  0
  -21.9900   -9.0259   20.4658 C   0  0  0  0  0  0
  -22.7243  -10.2130   20.3125 C   0  0  0  0  0  0
  -21.6837   -6.0754   22.5313 C   0  0  0  0  0  0
  -21.3987   -6.5640   23.8251 C   0  0  0  0  0  0
  -21.3655   -5.6808   24.9212 C   0  0  0  0  0  0
  -21.6043   -4.3081   24.7273 C   0  0  0  0  0  0
  -21.8771   -3.8144   23.4404 C   0  0  0  0  0  0
  -21.9165   -4.6963   22.3454 C   0  0  0  0  0  0
  -22.7864  -13.5210   21.1919 C   0  0  0  0  0  0
  -22.1638   -4.2124   21.1038 F   0  0  0  0  0  0
  -21.5645   -3.4568   25.7802 F   0  0  0  0  0  0
  -29.9653  -13.5486   20.4097 N   0  0  0  0  0  0
  -26.2891  -12.9289   20.3207 N   0  0  0  0  0  0
  -25.9287  -11.6447   20.5672 N   0  0  0  0  0  0
  -22.0462  -12.8295   22.0481 N   0  0  0  0  0  0
  -25.4314  -15.1795   20.4237 N   0  0  0  0  0  0
  -31.7627  -14.8754   20.1590 O   0  0  0  0  0  0
  -21.6607   -6.8880   21.4286 O   0  0  0  0  0  0
  -22.3594  -14.5493   20.6714 O   0  0  0  0  0  0
  -24.6369  -31.8505   23.1918 C   0  0  0  0  0  0
  -25.9185  -32.4704   23.8277 C   0  0  1  0  0  0
  -27.2117  -27.2026   20.1816 C   0  0  0  0  0  0
  -25.5936  -33.8502   24.2203 N   0  0  0  0  0  0
  -23.4406  -30.4697   21.5351 C   0  0  2  0  0  0
  -24.8865  -28.8971   20.1148 C   0  0  0  0  0  0
  -22.7547  -29.4630   22.4892 C   0  0  0  0  0  0
  -18.0297  -28.1295   22.8631 C   0  0  0  0  0  0
  -24.1498  -36.7273   23.2645 C   0  0  0  0  0  0
  -25.9852  -30.7463   21.3783 C   0  0  0  0  0  0
  -26.0541  -29.3584   20.7337 C   0  0  0  0  0  0
  -27.2197  -28.5244   20.7492 C   0  0  0  0  0  0
  -26.0282  -26.8178   19.5190 C   0  0  0  0  0  0
  -24.8786  -27.6382   19.4887 C   0  0  0  0  0  0
  -23.6624  -29.7947   20.1543 C   0  0  0  0  0  0
  -25.4124  -36.3040   24.0324 C   0  0  1  0  0  0
  -20.5952  -28.3693   23.1185 C   0  0  2  0  0  0
  -20.6927  -26.9512   22.5083 C   0  0  0  0  0  0
  -19.5588  -26.6377   21.5212 C   0  0  0  0  0  0
  -18.1955  -26.7725   22.2012 C   0  0  0  0  0  0
  -19.1577  -28.8800   23.2850 C   0  0  0  0  0  0
  -18.9499  -30.1484   23.8738 C   0  0  0  0  0  0
  -17.6504  -30.6625   24.0380 C   0  0  0  0  0  0
  -25.9058  -34.9398   23.5071 C   0  0  0  0  0  0
  -16.5364  -29.9045   23.6353 C   0  0  0  0  0  0
  -16.7282  -28.6396   23.0498 C   0  0  0  0  0  0
  -26.4537  -31.6553   25.0685 C   0  0  0  0  0  0
  -25.3728  -31.3763   26.1375 C   0  0  0  0  0  0
  -27.0387  -30.2959   24.6206 C   0  0  0  0  0  0
  -27.6095  -32.4303   25.7450 C   0  0  0  0  0  0
  -27.5575  -37.1779   24.8455 C   0  0  0  0  0  0
  -21.4245  -29.3184   22.3677 N   0  0  0  0  0  0
  -26.4289  -37.3756   23.9416 N   0  0  0  0  0  0
  -24.7083  -31.0434   22.0896 N   0  0  0  0  0  0
  -23.4219  -28.8146   23.2989 O   0  0  0  0  0  0
  -28.3175  -26.3143   20.2112 O   0  0  0  0  0  0
  -26.5659  -34.8898   22.4649 O   0  0  0  0  0  0
  -23.5496  -32.1325   23.7136 O   0  0  0  0  0  0
  -31.3972  -19.1641   19.4429 C   0  0  0  0  0  0
  -30.5487  -20.1892   19.8906 C   0  0  0  0  0  0
  -31.1297  -17.8079   19.7203 C   0  0  0  0  0  0
  -29.3675  -19.9129   20.6088 C   0  0  0  0  0  0
  -29.0438  -18.4778   20.7901 C   0  0  0  0  0  0
  -29.9642  -17.3906   20.4031 C   0  0  0  0  0  0
  -26.8189  -22.9807   21.4483 C   0  0  0  0  0  0
  -25.5851  -22.4660   21.6761 C   0  0  0  0  0  0
  -27.1915  -24.4460   21.7400 C   0  0  0  0  0  0
  -28.6390  -23.5337   19.9937 C   0  0  0  0  0  0
  -28.2914  -24.8927   20.7741 C   0  0  1  0  0  0
  -25.0620  -21.1765   21.0681 C   0  0  0  0  0  0
  -24.5273  -23.2094   22.4855 C   0  0  0  0  0  0
  -27.6917  -17.3678   22.7015 C   0  0  0  0  0  0
  -27.6777  -18.0862   21.3403 C   0  0  0  0  0  0
  -28.7316  -21.2186   21.3129 C   0  0  0  0  0  0
  -29.7560  -15.9206   20.6546 N   0  0  0  0  0  0
  -27.9138  -22.3372   20.6098 N   0  3  1  0  0  0
  -31.4696  -12.6165   19.1929 H   0  0  0  0  0  0
  -30.3821  -11.5040   19.9936 H   0  0  0  0  0  0
  -29.8141  -11.7137   17.5503 H   0  0  0  0  0  0
  -29.6182  -13.4469   17.7212 H   0  0  0  0  0  0
  -27.9305  -11.2549   18.9780 H   0  0  0  0  0  0
  -27.3770  -12.4244   17.8068 H   0  0  0  0  0  0
  -27.6115  -14.2345   19.4280 H   0  0  0  0  0  0
  -28.7090  -12.1957   21.4260 H   0  0  0  0  0  0
  -28.3851  -13.8724   21.7881 H   0  0  0  0  0  0
  -25.2692   -9.5649   22.4846 H   0  0  0  0  0  0
  -23.9934   -7.4624   22.7517 H   0  0  0  0  0  0
  -21.0785   -8.8818   19.9042 H   0  0  0  0  0  0
  -22.3643  -10.9707   19.6318 H   0  0  0  0  0  0
  -21.1970   -7.6145   23.9744 H   0  0  0  0  0  0
  -21.1529   -6.0558   25.9111 H   0  0  0  0  0  0
  -22.0543   -2.7611   23.2939 H   0  0  0  0  0  0
  -22.3947  -11.9933   22.4908 H   0  0  0  0  0  0
  -21.1167  -13.1503   22.2671 H   0  0  0  0  0  0
  -24.6795  -15.8370   20.5939 H   0  0  0  0  0  0
  -26.2748  -15.6173   20.0751 H   0  0  0  0  0  0
  -26.7254  -32.5318   23.1022 H   0  0  0  0  0  0
  -25.0048  -33.9634   25.0316 H   0  0  0  0  0  0
  -22.7434  -31.2916   21.3752 H   0  0  0  0  0  0
  -23.3747  -35.9614   23.3287 H   0  0  0  0  0  0
  -24.3579  -36.8914   22.2055 H   0  0  0  0  0  0
  -23.7244  -37.6470   23.6676 H   0  0  0  0  0  0
  -26.1240  -31.4975   20.5999 H   0  0  0  0  0  0
  -26.8699  -30.8056   22.0019 H   0  0  0  0  0  0
  -28.1187  -28.8633   21.2439 H   0  0  0  0  0  0
  -25.9723  -25.8499   19.0384 H   0  0  0  0  0  0
  -23.9853  -27.2886   18.9925 H   0  0  0  0  0  0
  -23.7991  -30.5682   19.3978 H   0  0  0  0  0  0
  -22.7816  -29.2337   19.8434 H   0  0  0  0  0  0
  -25.1294  -36.1873   25.0814 H   0  0  0  0  0  0
  -21.0024  -28.3145   24.1285 H   0  0  0  0  0  0
  -20.6387  -26.2271   23.3242 H   0  0  0  0  0  0
  -21.6662  -26.7872   22.0405 H   0  0  0  0  0  0
  -19.6789  -25.6289   21.1264 H   0  0  0  0  0  0
  -19.6182  -27.3255   20.6742 H   0  0  0  0  0  0
  -17.3955  -26.5928   21.4820 H   0  0  0  0  0  0
  -18.0966  -26.0137   22.9775 H   0  0  0  0  0  0
  -19.8011  -30.7357   24.1877 H   0  0  0  0  0  0
  -17.5090  -31.6443   24.4741 H   0  0  0  0  0  0
  -15.5321  -30.2926   23.7661 H   0  0  0  0  0  0
  -15.8691  -28.0625   22.7344 H   0  0  0  0  0  0
  -24.5852  -30.7220   25.7648 H   0  0  0  0  0  0
  -24.9013  -32.2976   26.4776 H   0  0  0  0  0  0
  -25.7957  -30.8872   27.0149 H   0  0  0  0  0  0
  -26.2987  -29.6689   24.1238 H   0  0  0  0  0  0
  -27.4080  -29.7239   25.4723 H   0  0  0  0  0  0
  -27.8844  -30.4248   23.9468 H   0  0  0  0  0  0
  -27.2721  -33.3571   26.2095 H   0  0  0  0  0  0
  -28.3862  -32.6915   25.0258 H   0  0  0  0  0  0
  -28.0845  -31.8403   26.5294 H   0  0  0  0  0  0
  -28.2587  -38.0083   24.7499 H   0  0  0  0  0  0
  -28.1083  -36.2603   24.6280 H   0  0  0  0  0  0
  -27.2301  -37.1431   25.8866 H   0  0  0  0  0  0
  -20.9405  -29.8987   21.6984 H   0  0  0  0  0  0
  -26.0138  -38.2816   24.1444 H   0  0  0  0  0  0
  -32.2965  -19.4276   18.9039 H   0  0  0  0  0  0
  -30.8546  -21.2161   19.7269 H   0  0  0  0  0  0
  -31.8583  -17.0979   19.3588 H   0  0  0  0  0  0
  -27.4979  -24.5708   22.7828 H   0  0  0  0  0  0
  -26.3057  -25.0585   21.5992 H   0  0  0  0  0  0
  -29.7191  -23.3803   19.9679 H   0  0  0  0  0  0
  -28.3092  -23.5867   18.9558 H   0  0  0  0  0  0
  -29.1542  -24.9722   21.4322 H   0  0  0  0  0  0
  -25.2041  -21.1700   19.9867 H   0  0  0  0  0  0
  -23.9909  -21.0773   21.2580 H   0  0  0  0  0  0
  -25.5163  -20.2991   21.5052 H   0  0  0  0  0  0
  -24.9105  -24.0760   23.0254 H   0  0  0  0  0  0
  -24.0848  -22.5615   23.2477 H   0  0  0  0  0  0
  -23.7344  -23.5472   21.8188 H   0  0  0  0  0  0
  -26.7942  -17.6009   23.2748 H   0  0  0  0  0  0
  -28.5544  -17.6649   23.2934 H   0  0  0  0  0  0
  -27.7209  -16.2840   22.5841 H   0  0  0  0  0  0
  -27.2062  -17.4376   20.6009 H   0  0  0  0  0  0
  -27.0431  -18.9616   21.3832 H   0  0  0  0  0  0
  -29.6049  -21.7460   21.7106 H   0  0  0  0  0  0
  -28.2047  -20.8995   22.2187 H   0  0  0  0  0  0
  -28.8291  -15.6792   20.9727 H   0  0  0  0  0  0
  -27.4692  -21.8469   19.8492 H   0  0  0  0  0  0
  1 25  1  0  0  0
  1 30  2  0  0  0
  1 87  1  0  0  0
  2  3  1  0  0  0
  2 25  1  0  0  0
  2 89  1  0  0  0
  2 90  1  0  0  0
  3  4  1  0  0  0
  3 91  1  0  0  0
  3 92  1  0  0  0
  4  5  1  0  0  0
  4 93  1  0  0  0
  4 94  1  0  0  0
  5  6  1  0  0  0
  5 26  1  0  0  0
  5 95  1  0  0  0
  6 25  1  0  0  0
  6 96  1  0  0  0
  6 97  1  0  0  0
  7  8  2  0  0  0
  7 26  1  0  0  0
  7 29  1  0  0  0
  8  9  1  0  0  0
  8 22  1  0  0  0
  9 10  1  0  0  0
  9 27  2  0  0  0
 10 11  2  0  0  0
 10 15  1  0  0  0
 11 12  1  0  0  0
 11 98  1  0  0  0
 12 13  2  0  0  0
 12 99  1  0  0  0
 13 14  1  0  0  0
 13 31  1  0  0  0
 14 15  2  0  0  0
 14100  1  0  0  0
 15101  1  0  0  0
 16 17  2  0  0  0
 16 21  1  0  0  0
 16 31  1  0  0  0
 17 18  1  0  0  0
 17102  1  0  0  0
 18 19  2  0  0  0
 18103  1  0  0  0
 19 20  1  0  0  0
 19 24  1  0  0  0
 20 21  2  0  0  0
 20104  1  0  0  0
 21 23  1  0  0  0
 22 28  1  0  0  0
 22 32  2  0  0  0
 26 27  1  0  0  0
 28105  1  0  0  0
 28106  1  0  0  0
 29107  1  0  0  0
 29108  1  0  0  0
 33 34  1  0  0  0
 33 66  1  0  0  0
 33 70  2  0  0  0
 34 36  1  0  0  0
 34 59  1  0  0  0
 34109  1  0  0  0
 35 44  2  0  0  0
 35 45  1  0  0  0
 35 68  1  0  0  0
 36 56  1  0  0  0
 36110  1  0  0  0
 37 39  1  0  0  0
 37 47  1  0  0  0
 37 66  1  0  0  0
 37111  1  0  0  0
 38 43  2  0  0  0
 38 46  1  0  0  0
 38 47  1  0  0  0
 39 64  1  0  0  0
 39 67  2  0  0  0
 40 52  1  0  0  0
 40 53  2  0  0  0
 40 58  1  0  0  0
 41112  1  0  0  0
 41113  1  0  0  0
 41114  1  0  0  0
 41 48  1  0  0  0
 42 43  1  0  0  0
 42 66  1  0  0  0
 42115  1  0  0  0
 42116  1  0  0  0
 43 44  1  0  0  0
 44117  1  0  0  0
 45 46  2  0  0  0
 45118  1  0  0  0
 46119  1  0  0  0
 47120  1  0  0  0
 47121  1  0  0  0
 48 56  1  0  0  0
 48 65  1  0  0  0
 48122  1  0  0  0
 49 50  1  0  0  0
 49 53  1  0  0  0
 49 64  1  0  0  0
 49123  1  0  0  0
 50 51  1  0  0  0
 50124  1  0  0  0
 50125  1  0  0  0
 51 52  1  0  0  0
 51126  1  0  0  0
 51127  1  0  0  0
 52128  1  0  0  0
 52129  1  0  0  0
 53 54  1  0  0  0
 54 55  2  0  0  0
 54130  1  0  0  0
 55 57  1  0  0  0
 55131  1  0  0  0
 56 69  2  0  0  0
 57 58  2  0  0  0
 57132  1  0  0  0
 58133  1  0  0  0
 59 60  1  0  0  0
 59 61  1  0  0  0
 59 62  1  0  0  0
 60134  1  0  0  0
 60135  1  0  0  0
 60136  1  0  0  0
 61137  1  0  0  0
 61138  1  0  0  0
 61139  1  0  0  0
 62140  1  0  0  0
 62141  1  0  0  0
 62142  1  0  0  0
 63 65  1  0  0  0
 63143  1  0  0  0
 63144  1  0  0  0
 63145  1  0  0  0
 64146  1  0  0  0
 65147  1  0  0  0
 68 81  1  0  0  0
 71 72  2  0  0  0
 71 73  1  0  0  0
 71148  1  0  0  0
 72 74  1  0  0  0
 72149  1  0  0  0
 73 76  2  0  0  0
 73150  1  0  0  0
 74 75  2  0  0  0
 74 86  1  0  0  0
 75 76  1  0  0  0
 75 85  1  0  0  0
 76 87  1  0  0  0
 77 78  2  0  0  0
 77 79  1  0  0  0
 77 88  1  0  0  0
 78 82  1  0  0  0
 78 83  1  0  0  0
 79 81  1  0  0  0
 79151  1  0  0  0
 79152  1  0  0  0
 80 81  1  0  0  0
 80 88  1  0  0  0
 80153  1  0  0  0
 80154  1  0  0  0
 81155  1  0  0  0
 82156  1  0  0  0
 82157  1  0  0  0
 82158  1  0  0  0
 83159  1  0  0  0
 83160  1  0  0  0
 83161  1  0  0  0
 84 85  1  0  0  0
 84162  1  0  0  0
 84163  1  0  0  0
 84164  1  0  0  0
 85165  1  0  0  0
 85166  1  0  0  0
 86167  1  0  0  0
 86168  1  0  0  0
 86 88  1  0  0  0
 87169  1  0  0  0
 88170  1  0  0  0
M  CHG  1  88   1
M  ISO  4   1 100  68 101  81 101  87 100
M  END
> <chiral flag>
0

> <version>
0

> <s_m_source_file>
/data/baiqing/PycharmProjects/Reinvent-master-3.2/result/LINK_invent/BTK/process_docking_weight1_custom_product_contain_oxygen_bond_distance_aromatic_linkinvent_7_9_3/rearranged_h_0033.sdf

> <i_m_source_file_index>
73

> <r_mmod_Potential_Energy-OPLS-2005>
231.401000976562

> <r_mmod_Stretch_Energy-OPLS-2005>
156.966064453125

> <r_mmod_Bend_Energy-OPLS-2005>
254.698226928711

> <r_mmod_Torsional_Energy-OPLS-2005>
309.479217529297

> <r_mmod_Improper_Torsional_Energy-OPLS-2005>
5.78465795516968

> <r_mmod_Van_der_Waal_Energy-OPLS-2005>
126.431350708008

> <r_mmod_Electrostatic_Energy-OPLS-2005>
-309.892150878906

> <r_mmod_Solvation_Energy-OPLS-2005>
-426.480651855469

> <b_mmod_Minimization_Converged-OPLS-2005>
0

> <r_mmod_RMS_Derivative-OPLS-2005>
9.19651317596436

$$$$
73
                    3D
 Structure written by MMmdl.
163172  0  0  1  0            999 V2000
  -30.7160  -14.4513   20.6325 C   0  0  0  0  0  0
  -30.4230  -12.3220   19.4086 C   0  0  0  0  0  0
  -29.4925  -12.5333   18.1979 C   0  0  0  0  0  0
  -28.0128  -12.3896   18.6078 C   0  0  0  0  0  0
  -27.6619  -13.2102   19.8781 C   0  0  2  0  0  0
  -28.7022  -12.9715   20.9934 C   0  0  0  0  0  0
  -25.2586  -13.8165   20.5685 C   0  0  0  0  0  0
  -24.1843  -13.0438   20.9170 C   0  0  0  0  0  0
  -24.6398  -11.6904   20.8717 C   0  0  0  0  0  0
  -23.9063  -10.4289   21.0390 C   0  0  0  0  0  0
  -24.3615   -9.4210   21.9172 C   0  0  0  0  0  0
  -23.6291   -8.2246   22.0749 C   0  0  0  0  0  0
  -22.4274   -8.0279   21.3538 C   0  0  0  0  0  0
  -21.9907   -9.0251   20.4639 C   0  0  0  0  0  0
  -22.7236  -10.2125   20.3043 C   0  0  0  0  0  0
  -21.6853   -6.0734   22.5277 C   0  0  0  0  0  0
  -21.4013   -6.5636   23.8210 C   0  0  0  0  0  0
  -21.3663   -5.6790   24.9173 C   0  0  0  0  0  0
  -21.6046   -4.3055   24.7222 C   0  0  0  0  0  0
  -21.8820   -3.8143   23.4346 C   0  0  0  0  0  0
  -21.9193   -4.6960   22.3403 C   0  0  0  0  0  0
  -22.7866  -13.5234   21.1845 C   0  0  0  0  0  0
  -22.1662   -4.2146   21.0981 F   0  0  0  0  0  0
  -21.5630   -3.4540   25.7735 F   0  0  0  0  0  0
  -30.0324  -13.2895   20.4465 N   0  0  0  0  0  0
  -26.3025  -12.9341   20.3366 N   0  0  0  0  0  0
  -25.9322  -11.6493   20.5742 N   0  0  0  0  0  0
  -22.0505  -12.8211   22.0396 N   0  0  0  0  0  0
  -25.4307  -15.1885   20.4107 N   0  0  0  0  0  0
  -31.8118  -14.6730   20.1091 O   0  0  0  0  0  0
  -21.6641   -6.8875   21.4239 O   0  0  0  0  0  0
  -22.3538  -14.5544   20.6711 O   0  0  0  0  0  0
  -24.6136  -31.8681   23.2071 C   0  0  0  0  0  0
  -25.9028  -32.4818   23.8382 C   0  0  1  0  0  0
  -27.2326  -27.4285   20.1054 C   0  0  0  0  0  0
  -25.5882  -33.8619   24.2312 N   0  0  0  0  0  0
  -23.4027  -30.4897   21.5478 C   0  0  2  0  0  0
  -24.8503  -28.9496   20.1190 C   0  0  0  0  0  0
  -22.7405  -29.4656   22.4978 C   0  0  0  0  0  0
  -18.0281  -28.1399   22.8497 C   0  0  0  0  0  0
  -24.1494  -36.7305   23.2641 C   0  0  0  0  0  0
  -25.9308  -30.8334   21.3586 C   0  0  0  0  0  0
  -26.0101  -29.4640   20.7123 C   0  0  0  0  0  0
  -27.2067  -28.7119   20.6989 C   0  0  0  0  0  0
  -26.0564  -26.9238   19.5116 C   0  0  0  0  0  0
  -24.8687  -27.6794   19.5164 C   0  0  0  0  0  0
  -23.6127  -29.8174   20.1641 C   0  0  0  0  0  0
  -25.4104  -36.3098   24.0347 C   0  0  1  0  0  0
  -20.5865  -28.3666   23.1337 C   0  0  2  0  0  0
  -20.6769  -26.9409   22.5421 C   0  0  0  0  0  0
  -19.5744  -26.6393   21.5236 C   0  0  0  0  0  0
  -18.1924  -26.7956   22.1629 C   0  0  0  0  0  0
  -19.1530  -28.8847   23.2921 C   0  0  0  0  0  0
  -18.9458  -30.1454   23.8916 C   0  0  0  0  0  0
  -17.6461  -30.6602   24.0571 C   0  0  0  0  0  0
  -25.9027  -34.9472   23.5126 C   0  0  0  0  0  0
  -16.5352  -29.9107   23.6333 C   0  0  0  0  0  0
  -16.7269  -28.6532   23.0346 C   0  0  0  0  0  0
  -26.4450  -31.6589   25.0702 C   0  0  0  0  0  0
  -25.3711  -31.3717   26.1440 C   0  0  0  0  0  0
  -27.0263  -30.3033   24.6052 C   0  0  0  0  0  0
  -27.6014  -32.4295   25.7483 C   0  0  0  0  0  0
  -27.5585  -37.1794   24.8462 C   0  0  0  0  0  0
  -21.4128  -29.3035   22.3729 N   0  0  0  0  0  0
  -26.4285  -37.3780   23.9420 N   0  0  0  0  0  0
  -24.6681  -31.0778   22.0968 N   0  0  0  0  0  0
  -23.4185  -28.8191   23.3006 O   0  0  0  0  0  0
  -28.3999  -26.7011   20.0484 O   0  0  0  0  0  0
  -26.5595  -34.8918   22.4693 O   0  0  0  0  0  0
  -23.5327  -32.1428   23.7455 O   0  0  0  0  0  0
  -30.2620  -18.4663   20.1668 C   0  0  0  0  0  0
  -28.5745  -19.8926   21.8884 C   0  0  0  0  0  0
  -29.9723  -17.9233   21.4378 C   0  0  0  0  0  0
  -28.9018  -20.4602   20.6347 C   0  0  0  0  0  0
  -29.1014  -18.6454   22.2942 C   0  0  0  0  0  0
  -29.7418  -19.7182   19.7663 C   0  0  0  0  0  0
  -30.1978  -24.4355   22.3509 C   0  0  0  0  0  0
  -29.3942  -25.6863   21.9583 C   0  0  0  0  0  0
  -29.4336  -23.1441   22.0360 C   0  0  0  0  0  0
  -28.8785  -24.2792   19.8581 C   0  0  0  0  0  0
  -28.4319  -25.4579   20.7732 C   0  0  2  0  0  0
  -30.6783  -16.6336   21.8824 C   0  0  0  0  0  0
  -28.3248  -21.8327   20.2337 C   0  0  0  0  0  0
  -30.0980  -15.3758   21.3913 N   0  0  0  0  0  0
  -29.2047  -22.9933   20.5738 N   0  3  2  0  0  0
  -28.6749  -18.0436   23.8572 Cl  0  0  0  0  0  0
  -30.1729  -20.3318   18.2100 Cl  0  0  0  0  0  0
  -31.4667  -12.4312   19.1087 H   0  0  0  0  0  0
  -30.3274  -11.3051   19.7925 H   0  0  0  0  0  0
  -29.7342  -11.8219   17.4072 H   0  0  0  0  0  0
  -29.6590  -13.5261   17.7754 H   0  0  0  0  0  0
  -27.8164  -11.3317   18.7814 H   0  0  0  0  0  0
  -27.3655  -12.6872   17.7816 H   0  0  0  0  0  0
  -27.7109  -14.2637   19.6018 H   0  0  0  0  0  0
  -28.6814  -11.9279   21.3100 H   0  0  0  0  0  0
  -28.4539  -13.5445   21.8872 H   0  0  0  0  0  0
  -25.2760   -9.5687   22.4744 H   0  0  0  0  0  0
  -24.0006   -7.4634   22.7463 H   0  0  0  0  0  0
  -21.0845   -8.8763   19.8942 H   0  0  0  0  0  0
  -22.3698  -10.9660   19.6150 H   0  0  0  0  0  0
  -21.2004   -7.6144   23.9712 H   0  0  0  0  0  0
  -21.1484   -6.0521   25.9073 H   0  0  0  0  0  0
  -22.0598   -2.7609   23.2846 H   0  0  0  0  0  0
  -22.4117  -11.9865   22.4776 H   0  0  0  0  0  0
  -21.1115  -13.1217   22.2594 H   0  0  0  0  0  0
  -24.6675  -15.8473   20.5203 H   0  0  0  0  0  0
  -26.2917  -15.6270   20.1066 H   0  0  0  0  0  0
  -26.7091  -32.5529   23.1135 H   0  0  0  0  0  0
  -25.0058  -33.9790   25.0475 H   0  0  0  0  0  0
  -22.6914  -31.3043   21.4023 H   0  0  0  0  0  0
  -23.3760  -35.9634   23.3294 H   0  0  0  0  0  0
  -24.3601  -36.8927   22.2057 H   0  0  0  0  0  0
  -23.7253  -37.6515   23.6649 H   0  0  0  0  0  0
  -26.0406  -31.5952   20.5866 H   0  0  0  0  0  0
  -26.8206  -30.8927   21.9733 H   0  0  0  0  0  0
  -28.1076  -29.1111   21.1432 H   0  0  0  0  0  0
  -26.0634  -25.9527   19.0361 H   0  0  0  0  0  0
  -23.9747  -27.2802   19.0574 H   0  0  0  0  0  0
  -23.7190  -30.5884   19.3996 H   0  0  0  0  0  0
  -22.7360  -29.2357   19.8730 H   0  0  0  0  0  0
  -25.1285  -36.1946   25.0842 H   0  0  0  0  0  0
  -20.9958  -28.3212   24.1455 H   0  0  0  0  0  0
  -20.5722  -26.2260   23.3595 H   0  0  0  0  0  0
  -21.6631  -26.7476   22.1183 H   0  0  0  0  0  0
  -19.6912  -25.6321   21.1243 H   0  0  0  0  0  0
  -19.6700  -27.3209   20.6784 H   0  0  0  0  0  0
  -17.4205  -26.6724   21.4017 H   0  0  0  0  0  0
  -18.0290  -26.0108   22.9018 H   0  0  0  0  0  0
  -19.7939  -30.7273   24.2276 H   0  0  0  0  0  0
  -17.5027  -31.6286   24.5161 H   0  0  0  0  0  0
  -15.5357  -30.3017   23.7663 H   0  0  0  0  0  0
  -15.8668  -28.0862   22.7040 H   0  0  0  0  0  0
  -24.5894  -30.7041   25.7795 H   0  0  0  0  0  0
  -24.8885  -32.2886   26.4830 H   0  0  0  0  0  0
  -25.8054  -30.8938   27.0232 H   0  0  0  0  0  0
  -26.2802  -29.6820   24.1077 H   0  0  0  0  0  0
  -27.4037  -29.7217   25.4478 H   0  0  0  0  0  0
  -27.8627  -30.4375   23.9189 H   0  0  0  0  0  0
  -27.2629  -33.3596   26.2061 H   0  0  0  0  0  0
  -28.3834  -32.6859   25.0321 H   0  0  0  0  0  0
  -28.0663  -31.8423   26.5409 H   0  0  0  0  0  0
  -28.2560  -38.0125   24.7522 H   0  0  0  0  0  0
  -28.1121  -36.2652   24.6257 H   0  0  0  0  0  0
  -27.2309  -37.1402   25.8866 H   0  0  0  0  0  0
  -20.9262  -29.8761   21.6968 H   0  0  0  0  0  0
  -26.0176  -38.2858   24.1434 H   0  0  0  0  0  0
  -30.9223  -17.9307   19.4993 H   0  0  0  0  0  0
  -27.9206  -20.4244   22.5645 H   0  0  0  0  0  0
  -30.4517  -24.4735   23.4108 H   0  0  0  0  0  0
  -31.1489  -24.4291   21.8171 H   0  0  0  0  0  0
  -30.1005  -26.4834   21.7238 H   0  0  0  0  0  0
  -28.8212  -26.0431   22.8149 H   0  0  0  0  0  0
  -28.4796  -23.1351   22.5681 H   0  0  0  0  0  0
  -30.0020  -22.2901   22.4060 H   0  0  0  0  0  0
  -29.7844  -24.5821   19.3309 H   0  0  0  0  0  0
  -28.1308  -24.1173   19.0802 H   0  0  0  0  0  0
  -27.4473  -25.2058   21.1724 H   0  0  0  0  0  0
  -30.7164  -16.5775   22.9701 H   0  0  0  0  0  0
  -31.7254  -16.7153   21.5857 H   0  0  0  0  0  0
  -27.3506  -21.9710   20.7063 H   0  0  0  0  0  0
  -28.1236  -21.8227   19.1624 H   0  0  0  0  0  0
  -29.1872  -15.1278   21.7460 H   0  0  0  0  0  0
  -30.1049  -22.7384   20.1956 H   0  0  0  0  0  0
  1 25  1  0  0  0
  1 30  2  0  0  0
  1 84  1  0  0  0
  2  3  1  0  0  0
  2 25  1  0  0  0
  2 88  1  0  0  0
  2 89  1  0  0  0
  3  4  1  0  0  0
  3 90  1  0  0  0
  3 91  1  0  0  0
  4  5  1  0  0  0
  4 92  1  0  0  0
  4 93  1  0  0  0
  5  6  1  0  0  0
  5 26  1  0  0  0
  5 94  1  0  0  0
  6 25  1  0  0  0
  6 95  1  0  0  0
  6 96  1  0  0  0
  7  8  2  0  0  0
  7 26  1  0  0  0
  7 29  1  0  0  0
  8  9  1  0  0  0
  8 22  1  0  0  0
  9 10  1  0  0  0
  9 27  2  0  0  0
 10 11  2  0  0  0
 10 15  1  0  0  0
 11 12  1  0  0  0
 11 97  1  0  0  0
 12 13  2  0  0  0
 12 98  1  0  0  0
 13 14  1  0  0  0
 13 31  1  0  0  0
 14 15  2  0  0  0
 14 99  1  0  0  0
 15100  1  0  0  0
 16 17  2  0  0  0
 16 21  1  0  0  0
 16 31  1  0  0  0
 17 18  1  0  0  0
 17101  1  0  0  0
 18 19  2  0  0  0
 18102  1  0  0  0
 19 20  1  0  0  0
 19 24  1  0  0  0
 20 21  2  0  0  0
 20103  1  0  0  0
 21 23  1  0  0  0
 22 28  1  0  0  0
 22 32  2  0  0  0
 26 27  1  0  0  0
 28104  1  0  0  0
 28105  1  0  0  0
 29106  1  0  0  0
 29107  1  0  0  0
 33 34  1  0  0  0
 33 66  1  0  0  0
 33 70  2  0  0  0
 34 36  1  0  0  0
 34 59  1  0  0  0
 34108  1  0  0  0
 35 44  2  0  0  0
 35 45  1  0  0  0
 35 68  1  0  0  0
 36 56  1  0  0  0
 36109  1  0  0  0
 37 39  1  0  0  0
 37 47  1  0  0  0
 37 66  1  0  0  0
 37110  1  0  0  0
 38 43  2  0  0  0
 38 46  1  0  0  0
 38 47  1  0  0  0
 39 64  1  0  0  0
 39 67  2  0  0  0
 40 52  1  0  0  0
 40 53  2  0  0  0
 40 58  1  0  0  0
 41111  1  0  0  0
 41112  1  0  0  0
 41113  1  0  0  0
 41 48  1  0  0  0
 42 43  1  0  0  0
 42 66  1  0  0  0
 42114  1  0  0  0
 42115  1  0  0  0
 43 44  1  0  0  0
 44116  1  0  0  0
 45 46  2  0  0  0
 45117  1  0  0  0
 46118  1  0  0  0
 47119  1  0  0  0
 47120  1  0  0  0
 48 56  1  0  0  0
 48 65  1  0  0  0
 48121  1  0  0  0
 49 50  1  0  0  0
 49 53  1  0  0  0
 49 64  1  0  0  0
 49122  1  0  0  0
 50 51  1  0  0  0
 50123  1  0  0  0
 50124  1  0  0  0
 51 52  1  0  0  0
 51125  1  0  0  0
 51126  1  0  0  0
 52127  1  0  0  0
 52128  1  0  0  0
 53 54  1  0  0  0
 54 55  2  0  0  0
 54129  1  0  0  0
 55 57  1  0  0  0
 55130  1  0  0  0
 56 69  2  0  0  0
 57 58  2  0  0  0
 57131  1  0  0  0
 58132  1  0  0  0
 59 60  1  0  0  0
 59 61  1  0  0  0
 59 62  1  0  0  0
 60133  1  0  0  0
 60134  1  0  0  0
 60135  1  0  0  0
 61136  1  0  0  0
 61137  1  0  0  0
 61138  1  0  0  0
 62139  1  0  0  0
 62140  1  0  0  0
 62141  1  0  0  0
 63 65  1  0  0  0
 63142  1  0  0  0
 63143  1  0  0  0
 63144  1  0  0  0
 64145  1  0  0  0
 65146  1  0  0  0
 68 81  1  0  0  0
 71 73  2  0  0  0
 71 76  1  0  0  0
 71147  1  0  0  0
 72 74  1  0  0  0
 72 75  2  0  0  0
 72148  1  0  0  0
 73 75  1  0  0  0
 73 82  1  0  0  0
 74 76  2  0  0  0
 74 83  1  0  0  0
 75 86  1  0  0  0
 76 87  1  0  0  0
 77 78  1  0  0  0
 77 79  1  0  0  0
 77149  1  0  0  0
 77150  1  0  0  0
 78 81  1  0  0  0
 78151  1  0  0  0
 78152  1  0  0  0
 79 85  1  0  0  0
 79153  1  0  0  0
 79154  1  0  0  0
 80 81  1  0  0  0
 80 85  1  0  0  0
 80155  1  0  0  0
 80156  1  0  0  0
 81157  1  0  0  0
 82 84  1  0  0  0
 82158  1  0  0  0
 82159  1  0  0  0
 83160  1  0  0  0
 83161  1  0  0  0
 83 85  1  0  0  0
 84162  1  0  0  0
 85163  1  0  0  0
M  CHG  1  85   1
M  ISO  4   1 100  68 101  81 101  84 100
M  END
> <chiral flag>
0

> <version>
0

> <s_m_source_file>
/data/baiqing/PycharmProjects/Reinvent-master-3.2/result/LINK_invent/BTK/process_docking_weight1_custom_product_contain_oxygen_bond_distance_aromatic_linkinvent_7_9_3/rearranged_h_0033.sdf

> <i_m_source_file_index>
74

> <r_mmod_Potential_Energy-OPLS-2005>
-164.407180786133

> <r_mmod_Stretch_Energy-OPLS-2005>
40.9719047546387

> <r_mmod_Bend_Energy-OPLS-2005>
99.2382431030273

> <r_mmod_Torsional_Energy-OPLS-2005>
266.395141601562

> <r_mmod_Improper_Torsional_Energy-OPLS-2005>
2.2672815322876

> <r_mmod_Van_der_Waal_Energy-OPLS-2005>
151.610061645508

> <r_mmod_Electrostatic_Energy-OPLS-2005>
-308.64208984375

> <r_mmod_Solvation_Energy-OPLS-2005>
-426.548645019531

> <b_mmod_Minimization_Converged-OPLS-2005>
0

> <r_mmod_RMS_Derivative-OPLS-2005>
2.15961503982544

$$$$
74
                    3D
 Structure written by MMmdl.
158167  0  0  1  0            999 V2000
  -30.5737  -14.7471   20.4323 C   0  0  0  0  0  0
  -30.4528  -12.4517   19.4445 C   0  0  0  0  0  0
  -29.5153  -12.4963   18.2170 C   0  0  0  0  0  0
  -28.0409  -12.3128   18.6396 C   0  0  0  0  0  0
  -27.6453  -13.2134   19.8397 C   0  0  2  0  0  0
  -28.6985  -13.1289   20.9640 C   0  0  0  0  0  0
  -25.2558  -13.8150   20.5686 C   0  0  0  0  0  0
  -24.1830  -13.0428   20.9206 C   0  0  0  0  0  0
  -24.6387  -11.6886   20.8738 C   0  0  0  0  0  0
  -23.9049  -10.4283   21.0400 C   0  0  0  0  0  0
  -24.3605   -9.4198   21.9182 C   0  0  0  0  0  0
  -23.6280   -8.2234   22.0751 C   0  0  0  0  0  0
  -22.4269   -8.0263   21.3542 C   0  0  0  0  0  0
  -21.9909   -9.0233   20.4649 C   0  0  0  0  0  0
  -22.7221  -10.2114   20.3053 C   0  0  0  0  0  0
  -21.6844   -6.0723   22.5290 C   0  0  0  0  0  0
  -21.3997   -6.5624   23.8218 C   0  0  0  0  0  0
  -21.3668   -5.6785   24.9184 C   0  0  0  0  0  0
  -21.6048   -4.3051   24.7239 C   0  0  0  0  0  0
  -21.8817   -3.8130   23.4365 C   0  0  0  0  0  0
  -21.9184   -4.6948   22.3412 C   0  0  0  0  0  0
  -22.7841  -13.5214   21.1850 C   0  0  0  0  0  0
  -22.1650   -4.2130   21.0990 F   0  0  0  0  0  0
  -21.5651   -3.4537   25.7757 F   0  0  0  0  0  0
  -29.9930  -13.5017   20.3761 N   0  0  0  0  0  0
  -26.2963  -12.9315   20.3237 N   0  0  0  0  0  0
  -25.9314  -11.6480   20.5719 N   0  0  0  0  0  0
  -22.0478  -12.8233   22.0403 N   0  0  0  0  0  0
  -25.4288  -15.1885   20.4094 N   0  0  0  0  0  0
  -31.7824  -14.8873   20.2260 O   0  0  0  0  0  0
  -21.6627   -6.8864   21.4246 O   0  0  0  0  0  0
  -22.3540  -14.5526   20.6675 O   0  0  0  0  0  0
  -24.6328  -31.8588   23.2055 C   0  0  0  0  0  0
  -25.9147  -32.4796   23.8391 C   0  0  1  0  0  0
  -27.1915  -27.2514   20.1409 C   0  0  0  0  0  0
  -25.5948  -33.8603   24.2297 N   0  0  0  0  0  0
  -23.4266  -30.4901   21.5520 C   0  0  2  0  0  0
  -24.8652  -28.9511   20.1138 C   0  0  0  0  0  0
  -22.7530  -29.4614   22.4940 C   0  0  0  0  0  0
  -18.0310  -28.1402   22.8503 C   0  0  0  0  0  0
  -24.1456  -36.7274   23.2637 C   0  0  0  0  0  0
  -25.9775  -30.7764   21.3817 C   0  0  0  0  0  0
  -26.0458  -29.4023   20.7171 C   0  0  0  0  0  0
  -27.2136  -28.5707   20.7103 C   0  0  0  0  0  0
  -25.9624  -26.8640   19.5473 C   0  0  0  0  0  0
  -24.8299  -27.6910   19.5139 C   0  0  0  0  0  0
  -23.6415  -29.8430   20.1626 C   0  0  0  0  0  0
  -25.4098  -36.3096   24.0323 C   0  0  1  0  0  0
  -20.5921  -28.3689   23.1310 C   0  0  2  0  0  0
  -20.6794  -26.9408   22.5428 C   0  0  0  0  0  0
  -19.5757  -26.6387   21.5246 C   0  0  0  0  0  0
  -18.1940  -26.7957   22.1647 C   0  0  0  0  0  0
  -19.1566  -28.8869   23.2891 C   0  0  0  0  0  0
  -18.9484  -30.1479   23.8888 C   0  0  0  0  0  0
  -17.6473  -30.6594   24.0576 C   0  0  0  0  0  0
  -25.9045  -34.9462   23.5105 C   0  0  0  0  0  0
  -16.5364  -29.9086   23.6356 C   0  0  0  0  0  0
  -16.7299  -28.6513   23.0364 C   0  0  0  0  0  0
  -26.4509  -31.6651   25.0794 C   0  0  0  0  0  0
  -25.3720  -31.3800   26.1511 C   0  0  0  0  0  0
  -27.0352  -30.3081   24.6269 C   0  0  0  0  0  0
  -27.6068  -32.4392   25.7552 C   0  0  0  0  0  0
  -27.5564  -37.1790   24.8478 C   0  0  0  0  0  0
  -21.4246  -29.3025   22.3676 N   0  0  0  0  0  0
  -26.4277  -37.3788   23.9425 N   0  0  0  0  0  0
  -24.6996  -31.0568   22.1029 N   0  0  0  0  0  0
  -23.4250  -28.8147   23.3013 O   0  0  0  0  0  0
  -28.2887  -26.3456   20.1913 O   0  0  0  0  0  0
  -26.5604  -34.8936   22.4672 O   0  0  0  0  0  0
  -23.5473  -32.1417   23.7340 O   0  0  0  0  0  0
  -29.1056  -19.8450   21.8640 C   0  0  0  0  0  0
  -28.9582  -18.6930   22.6573 C   0  0  0  0  0  0
  -29.5786  -19.7600   20.5450 C   0  0  0  0  0  0
  -29.7001  -17.2098   20.8348 C   0  0  0  0  0  0
  -29.2446  -17.4061   22.1643 C   0  0  0  0  0  0
  -29.8628  -18.4176   20.0312 C   0  0  0  0  0  0
  -27.9616  -22.1483   18.6795 C   0  0  0  0  0  0
  -27.2009  -23.3676   18.1450 C   0  0  0  0  0  0
  -27.9359  -24.6864   18.3999 C   0  0  0  0  0  0
  -29.0089  -23.6561   20.3950 C   0  0  0  0  0  0
  -28.0568  -24.8814   19.9118 C   0  0  1  0  0  0
  -29.8715  -21.1527   19.8255 C   0  0  0  0  0  0
  -28.8422  -22.2859   19.7046 N   0  0  0  0  0  0
  -29.6967  -15.8112   20.3411 N   0  0  0  0  0  0
  -27.7778  -21.0753   18.0972 O   0  0  0  0  0  0
  -28.9652  -16.0696   23.2250 Cl  0  0  0  0  0  0
  -30.4027  -18.2386   18.3991 Cl  0  0  0  0  0  0
  -31.4903  -12.6035   19.1377 H   0  0  0  0  0  0
  -30.4154  -11.4717   19.9230 H   0  0  0  0  0  0
  -29.7925  -11.7236   17.4986 H   0  0  0  0  0  0
  -29.6355  -13.4494   17.6995 H   0  0  0  0  0  0
  -27.9114  -11.2642   18.9103 H   0  0  0  0  0  0
  -27.3759  -12.4905   17.7934 H   0  0  0  0  0  0
  -27.6376  -14.2319   19.4531 H   0  0  0  0  0  0
  -28.7466  -12.1201   21.3737 H   0  0  0  0  0  0
  -28.4341  -13.7842   21.7930 H   0  0  0  0  0  0
  -25.2762   -9.5658   22.4743 H   0  0  0  0  0  0
  -23.9983   -7.4622   22.7478 H   0  0  0  0  0  0
  -21.0839   -8.8742   19.8958 H   0  0  0  0  0  0
  -22.3689  -10.9638   19.6145 H   0  0  0  0  0  0
  -21.1972   -7.6136   23.9713 H   0  0  0  0  0  0
  -21.1500   -6.0525   25.9093 H   0  0  0  0  0  0
  -22.0590   -2.7592   23.2876 H   0  0  0  0  0  0
  -22.4078  -11.9920   22.4845 H   0  0  0  0  0  0
  -21.1076  -13.1251   22.2549 H   0  0  0  0  0  0
  -24.6649  -15.8433   20.5336 H   0  0  0  0  0  0
  -26.2762  -15.6331   20.0867 H   0  0  0  0  0  0
  -26.7224  -32.5426   23.1140 H   0  0  0  0  0  0
  -25.0132  -33.9751   25.0473 H   0  0  0  0  0  0
  -22.7203  -31.3121   21.4174 H   0  0  0  0  0  0
  -23.3732  -35.9590   23.3323 H   0  0  0  0  0  0
  -24.3548  -36.8869   22.2047 H   0  0  0  0  0  0
  -23.7188  -37.6474   23.6651 H   0  0  0  0  0  0
  -26.1175  -31.5399   20.6158 H   0  0  0  0  0  0
  -26.8552  -30.8210   22.0161 H   0  0  0  0  0  0
  -28.1207  -28.9114   21.1898 H   0  0  0  0  0  0
  -25.7962  -25.8872   19.1248 H   0  0  0  0  0  0
  -23.9172  -27.3348   19.0551 H   0  0  0  0  0  0
  -23.7739  -30.6277   19.4181 H   0  0  0  0  0  0
  -22.7532  -29.2897   19.8516 H   0  0  0  0  0  0
  -25.1268  -36.1947   25.0809 H   0  0  0  0  0  0
  -21.0023  -28.3243   24.1435 H   0  0  0  0  0  0
  -20.5770  -26.2262   23.3613 H   0  0  0  0  0  0
  -21.6649  -26.7465   22.1166 H   0  0  0  0  0  0
  -19.6903  -25.6303   21.1263 H   0  0  0  0  0  0
  -19.6708  -27.3209   20.6794 H   0  0  0  0  0  0
  -17.4217  -26.6763   21.4025 H   0  0  0  0  0  0
  -18.0281  -26.0097   22.9038 H   0  0  0  0  0  0
  -19.7942  -30.7328   24.2228 H   0  0  0  0  0  0
  -17.5014  -31.6287   24.5167 H   0  0  0  0  0  0
  -15.5360  -30.2978   23.7689 H   0  0  0  0  0  0
  -15.8708  -28.0840   22.7070 H   0  0  0  0  0  0
  -24.5887  -30.7163   25.7834 H   0  0  0  0  0  0
  -24.8914  -32.2955   26.4957 H   0  0  0  0  0  0
  -25.8016  -30.8969   27.0292 H   0  0  0  0  0  0
  -26.2942  -29.6853   24.1250 H   0  0  0  0  0  0
  -27.3993  -29.7341   25.4797 H   0  0  0  0  0  0
  -27.8830  -30.4379   23.9546 H   0  0  0  0  0  0
  -27.2712  -33.3704   26.2132 H   0  0  0  0  0  0
  -28.3880  -32.6950   25.0381 H   0  0  0  0  0  0
  -28.0756  -31.8535   26.5471 H   0  0  0  0  0  0
  -28.2601  -38.0063   24.7527 H   0  0  0  0  0  0
  -28.1027  -36.2606   24.6297 H   0  0  0  0  0  0
  -27.2287  -37.1435   25.8878 H   0  0  0  0  0  0
  -20.9422  -29.8720   21.6871 H   0  0  0  0  0  0
  -26.0148  -38.2842   24.1491 H   0  0  0  0  0  0
  -28.8826  -20.8128   22.2932 H   0  0  0  0  0  0
  -28.5978  -18.7995   23.6686 H   0  0  0  0  0  0
  -26.2139  -23.3928   18.6072 H   0  0  0  0  0  0
  -27.0468  -23.2413   17.0730 H   0  0  0  0  0  0
  -28.9285  -24.6752   17.9523 H   0  0  0  0  0  0
  -27.4215  -25.4966   17.8929 H   0  0  0  0  0  0
  -30.0524  -23.9575   20.3050 H   0  0  0  0  0  0
  -28.8421  -23.4895   21.4608 H   0  0  0  0  0  0
  -27.1033  -24.6516   20.3938 H   0  0  0  0  0  0
  -30.2428  -20.9395   18.8210 H   0  0  0  0  0  0
  -30.7443  -21.5723   20.3261 H   0  0  0  0  0  0
  -28.7587  -15.4592   20.2525 H   0  0  0  0  0  0
  1 25  1  0  0  0
  1 30  2  0  0  0
  1 84  1  0  0  0
  2  3  1  0  0  0
  2 25  1  0  0  0
  2 88  1  0  0  0
  2 89  1  0  0  0
  3  4  1  0  0  0
  3 90  1  0  0  0
  3 91  1  0  0  0
  4  5  1  0  0  0
  4 92  1  0  0  0
  4 93  1  0  0  0
  5  6  1  0  0  0
  5 26  1  0  0  0
  5 94  1  0  0  0
  6 25  1  0  0  0
  6 95  1  0  0  0
  6 96  1  0  0  0
  7  8  2  0  0  0
  7 26  1  0  0  0
  7 29  1  0  0  0
  8  9  1  0  0  0
  8 22  1  0  0  0
  9 10  1  0  0  0
  9 27  2  0  0  0
 10 11  2  0  0  0
 10 15  1  0  0  0
 11 12  1  0  0  0
 11 97  1  0  0  0
 12 13  2  0  0  0
 12 98  1  0  0  0
 13 14  1  0  0  0
 13 31  1  0  0  0
 14 15  2  0  0  0
 14 99  1  0  0  0
 15100  1  0  0  0
 16 17  2  0  0  0
 16 21  1  0  0  0
 16 31  1  0  0  0
 17 18  1  0  0  0
 17101  1  0  0  0
 18 19  2  0  0  0
 18102  1  0  0  0
 19 20  1  0  0  0
 19 24  1  0  0  0
 20 21  2  0  0  0
 20103  1  0  0  0
 21 23  1  0  0  0
 22 28  1  0  0  0
 22 32  2  0  0  0
 26 27  1  0  0  0
 28104  1  0  0  0
 28105  1  0  0  0
 29106  1  0  0  0
 29107  1  0  0  0
 33 34  1  0  0  0
 33 66  1  0  0  0
 33 70  2  0  0  0
 34 36  1  0  0  0
 34 59  1  0  0  0
 34108  1  0  0  0
 35 44  2  0  0  0
 35 45  1  0  0  0
 35 68  1  0  0  0
 36 56  1  0  0  0
 36109  1  0  0  0
 37 39  1  0  0  0
 37 47  1  0  0  0
 37 66  1  0  0  0
 37110  1  0  0  0
 38 43  2  0  0  0
 38 46  1  0  0  0
 38 47  1  0  0  0
 39 64  1  0  0  0
 39 67  2  0  0  0
 40 52  1  0  0  0
 40 53  2  0  0  0
 40 58  1  0  0  0
 41111  1  0  0  0
 41112  1  0  0  0
 41113  1  0  0  0
 41 48  1  0  0  0
 42 43  1  0  0  0
 42 66  1  0  0  0
 42114  1  0  0  0
 42115  1  0  0  0
 43 44  1  0  0  0
 44116  1  0  0  0
 45 46  2  0  0  0
 45117  1  0  0  0
 46118  1  0  0  0
 47119  1  0  0  0
 47120  1  0  0  0
 48 56  1  0  0  0
 48 65  1  0  0  0
 48121  1  0  0  0
 49 50  1  0  0  0
 49 53  1  0  0  0
 49 64  1  0  0  0
 49122  1  0  0  0
 50 51  1  0  0  0
 50123  1  0  0  0
 50124  1  0  0  0
 51 52  1  0  0  0
 51125  1  0  0  0
 51126  1  0  0  0
 52127  1  0  0  0
 52128  1  0  0  0
 53 54  1  0  0  0
 54 55  2  0  0  0
 54129  1  0  0  0
 55 57  1  0  0  0
 55130  1  0  0  0
 56 69  2  0  0  0
 57 58  2  0  0  0
 57131  1  0  0  0
 58132  1  0  0  0
 59 60  1  0  0  0
 59 61  1  0  0  0
 59 62  1  0  0  0
 60133  1  0  0  0
 60134  1  0  0  0
 60135  1  0  0  0
 61136  1  0  0  0
 61137  1  0  0  0
 61138  1  0  0  0
 62139  1  0  0  0
 62140  1  0  0  0
 62141  1  0  0  0
 63 65  1  0  0  0
 63142  1  0  0  0
 63143  1  0  0  0
 63144  1  0  0  0
 64145  1  0  0  0
 65146  1  0  0  0
 68 81  1  0  0  0
 71 72  2  0  0  0
 71 73  1  0  0  0
 71147  1  0  0  0
 72 75  1  0  0  0
 72148  1  0  0  0
 73 76  2  0  0  0
 73 82  1  0  0  0
 74 75  2  0  0  0
 74 76  1  0  0  0
 74 84  1  0  0  0
 75 86  1  0  0  0
 76 87  1  0  0  0
 77 78  1  0  0  0
 77 83  1  0  0  0
 77 85  2  0  0  0
 78 79  1  0  0  0
 78149  1  0  0  0
 78150  1  0  0  0
 79 81  1  0  0  0
 79151  1  0  0  0
 79152  1  0  0  0
 80 81  1  0  0  0
 80 83  1  0  0  0
 80153  1  0  0  0
 80154  1  0  0  0
 81155  1  0  0  0
 82 83  1  0  0  0
 82156  1  0  0  0
 82157  1  0  0  0
 84158  1  0  0  0
M  ISO  4   1 100  68 101  81 101  84 100
M  END
> <chiral flag>
0

> <version>
0

> <s_m_source_file>
/data/baiqing/PycharmProjects/Reinvent-master-3.2/result/LINK_invent/BTK/process_docking_weight1_custom_product_contain_oxygen_bond_distance_aromatic_linkinvent_7_9_3/rearranged_h_0033.sdf

> <i_m_source_file_index>
75

> <r_mmod_Potential_Energy-OPLS-2005>
173.516723632812

> <r_mmod_Stretch_Energy-OPLS-2005>
132.227951049805

> <r_mmod_Bend_Energy-OPLS-2005>
189.150680541992

> <r_mmod_Torsional_Energy-OPLS-2005>
274.482543945312

> <r_mmod_Improper_Torsional_Energy-OPLS-2005>
15.4117193222046

> <r_mmod_Van_der_Waal_Energy-OPLS-2005>
152.07080078125

> <r_mmod_Electrostatic_Energy-OPLS-2005>
-451.663116455078

> <r_mmod_Solvation_Energy-OPLS-2005>
-232.462829589844

> <b_mmod_Minimization_Converged-OPLS-2005>
0

> <r_mmod_RMS_Derivative-OPLS-2005>
4.30298948287964

$$$$
75
                    3D
 Structure written by MMmdl.
164173  0  0  1  0            999 V2000
  -30.5842  -14.6846   20.4539 C   0  0  0  0  0  0
  -30.4513  -12.4203   19.4326 C   0  0  0  0  0  0
  -29.5032  -12.5037   18.2142 C   0  0  0  0  0  0
  -28.0318  -12.3323   18.6373 C   0  0  0  0  0  0
  -27.6538  -13.2123   19.8578 C   0  0  2  0  0  0
  -28.7047  -13.0739   20.9825 C   0  0  0  0  0  0
  -25.2585  -13.8166   20.5646 C   0  0  0  0  0  0
  -24.1845  -13.0445   20.9194 C   0  0  0  0  0  0
  -24.6411  -11.6922   20.8771 C   0  0  0  0  0  0
  -23.9071  -10.4295   21.0418 C   0  0  0  0  0  0
  -24.3619   -9.4216   21.9201 C   0  0  0  0  0  0
  -23.6293   -8.2256   22.0760 C   0  0  0  0  0  0
  -22.4283   -8.0281   21.3546 C   0  0  0  0  0  0
  -21.9915   -9.0261   20.4665 C   0  0  0  0  0  0
  -22.7241  -10.2142   20.3076 C   0  0  0  0  0  0
  -21.6848   -6.0734   22.5264 C   0  0  0  0  0  0
  -21.4008   -6.5641   23.8194 C   0  0  0  0  0  0
  -21.3657   -5.6801   24.9164 C   0  0  0  0  0  0
  -21.6045   -4.3056   24.7221 C   0  0  0  0  0  0
  -21.8829   -3.8144   23.4337 C   0  0  0  0  0  0
  -21.9198   -4.6962   22.3393 C   0  0  0  0  0  0
  -22.7874  -13.5255   21.1861 C   0  0  0  0  0  0
  -22.1670   -4.2143   21.0971 F   0  0  0  0  0  0
  -21.5629   -3.4544   25.7734 F   0  0  0  0  0  0
  -30.0170  -13.4349   20.4133 N   0  0  0  0  0  0
  -26.3003  -12.9336   20.3310 N   0  0  0  0  0  0
  -25.9335  -11.6501   20.5792 N   0  0  0  0  0  0
  -22.0503  -12.8249   22.0407 N   0  0  0  0  0  0
  -25.4319  -15.1867   20.3955 N   0  0  0  0  0  0
  -31.7359  -14.8830   20.0545 O   0  0  0  0  0  0
  -21.6640   -6.8876   21.4231 O   0  0  0  0  0  0
  -22.3574  -14.5563   20.6710 O   0  0  0  0  0  0
  -24.6201  -31.8590   23.1941 C   0  0  0  0  0  0
  -25.9023  -32.4796   23.8287 C   0  0  1  0  0  0
  -27.2507  -27.3437   20.1181 C   0  0  0  0  0  0
  -25.5838  -33.8595   24.2232 N   0  0  0  0  0  0
  -23.4163  -30.4819   21.5265 C   0  0  2  0  0  0
  -24.8656  -28.9131   20.1196 C   0  0  0  0  0  0
  -22.7459  -29.4638   22.4795 C   0  0  0  0  0  0
  -18.0322  -28.1440   22.8496 C   0  0  0  0  0  0
  -24.1480  -36.7290   23.2666 C   0  0  0  0  0  0
  -25.9508  -30.8003   21.3536 C   0  0  0  0  0  0
  -26.0259  -29.4179   20.7165 C   0  0  0  0  0  0
  -27.2188  -28.6444   20.7009 C   0  0  0  0  0  0
  -26.0644  -26.8610   19.5265 C   0  0  0  0  0  0
  -24.8805  -27.6376   19.5261 C   0  0  0  0  0  0
  -23.6389  -29.8039   20.1466 C   0  0  0  0  0  0
  -25.4102  -36.3089   24.0351 C   0  0  1  0  0  0
  -20.5913  -28.3717   23.1241 C   0  0  2  0  0  0
  -20.6779  -26.9424   22.5384 C   0  0  0  0  0  0
  -19.5755  -26.6385   21.5190 C   0  0  0  0  0  0
  -18.1938  -26.7983   22.1605 C   0  0  0  0  0  0
  -19.1580  -28.8875   23.2899 C   0  0  0  0  0  0
  -18.9520  -30.1478   23.8904 C   0  0  0  0  0  0
  -17.6528  -30.6624   24.0592 C   0  0  0  0  0  0
  -25.9008  -34.9465   23.5094 C   0  0  0  0  0  0
  -16.5418  -29.9149   23.6337 C   0  0  0  0  0  0
  -16.7305  -28.6581   23.0321 C   0  0  0  0  0  0
  -26.4425  -31.6627   25.0664 C   0  0  0  0  0  0
  -25.3686  -31.3808   26.1442 C   0  0  0  0  0  0
  -27.0295  -30.3071   24.6067 C   0  0  0  0  0  0
  -27.5954  -32.4385   25.7450 C   0  0  0  0  0  0
  -27.5568  -37.1794   24.8484 C   0  0  0  0  0  0
  -21.4155  -29.3118   22.3613 N   0  0  0  0  0  0
  -26.4280  -37.3749   23.9437 N   0  0  0  0  0  0
  -24.6809  -31.0658   22.0842 N   0  0  0  0  0  0
  -23.4210  -28.8127   23.2822 O   0  0  0  0  0  0
  -28.4628  -26.6611   20.0231 O   0  0  0  0  0  0
  -26.5628  -34.8944   22.4684 O   0  0  0  0  0  0
  -23.5343  -32.1312   23.7295 O   0  0  0  0  0  0
  -29.8129  -19.2492   19.3418 C   0  0  0  0  0  0
  -30.1516  -17.8737   19.5684 C   0  0  0  0  0  0
  -28.9340  -19.9935   20.1894 C   0  0  0  0  0  0
  -28.4227  -19.2647   21.3110 C   0  0  0  0  0  0
  -28.7720  -17.8856   21.5472 C   0  0  0  0  0  0
  -29.6204  -17.1438   20.6658 C   0  0  0  0  0  0
  -29.0694  -23.2152   21.5759 C   0  0  0  0  0  0
  -29.6399  -22.4727   22.5398 C   0  0  0  0  0  0
  -28.7274  -24.7103   21.6899 C   0  0  0  0  0  0
  -28.2183  -23.9799   19.4865 C   0  0  0  0  0  0
  -28.7393  -25.2285   20.2579 C   0  0  1  0  0  0
  -27.3802  -19.9369   22.2091 C   0  0  0  0  0  0
  -28.1626  -17.1634   22.7496 C   0  0  0  0  0  0
  -28.3404  -21.4115   19.7417 C   0  0  0  0  0  0
  -29.7440  -15.6893   20.8625 N   0  0  0  0  0  0
  -28.9040  -22.7874   20.1349 N   0  3  2  0  0  0
  -31.4807  -12.5833   19.1060 H   0  0  0  0  0  0
  -30.4322  -11.4253   19.8771 H   0  0  0  0  0  0
  -29.7687  -11.7443   17.4785 H   0  0  0  0  0  0
  -29.6263  -13.4647   17.7117 H   0  0  0  0  0  0
  -27.8813  -11.2802   18.8826 H   0  0  0  0  0  0
  -27.3676  -12.5450   17.7984 H   0  0  0  0  0  0
  -27.6711  -14.2448   19.5108 H   0  0  0  0  0  0
  -28.7293  -12.0530   21.3650 H   0  0  0  0  0  0
  -28.4425  -13.6991   21.8370 H   0  0  0  0  0  0
  -25.2757   -9.5677   22.4785 H   0  0  0  0  0  0
  -23.9996   -7.4629   22.7461 H   0  0  0  0  0  0
  -21.0854   -8.8786   19.8955 H   0  0  0  0  0  0
  -22.3704  -10.9691   19.6191 H   0  0  0  0  0  0
  -21.1996   -7.6149   23.9696 H   0  0  0  0  0  0
  -21.1466   -6.0526   25.9060 H   0  0  0  0  0  0
  -22.0613   -2.7606   23.2838 H   0  0  0  0  0  0
  -22.4103  -11.9904   22.4792 H   0  0  0  0  0  0
  -21.1119  -13.1281   22.2602 H   0  0  0  0  0  0
  -24.6611  -15.8397   20.4746 H   0  0  0  0  0  0
  -26.2693  -15.6064   20.0122 H   0  0  0  0  0  0
  -26.7116  -32.5436   23.1043 H   0  0  0  0  0  0
  -24.9970  -33.9720   25.0371 H   0  0  0  0  0  0
  -22.7108  -31.2998   21.3709 H   0  0  0  0  0  0
  -23.3744  -35.9611   23.3314 H   0  0  0  0  0  0
  -24.3571  -36.8883   22.2075 H   0  0  0  0  0  0
  -23.7254  -37.6496   23.6685 H   0  0  0  0  0  0
  -26.0690  -31.5551   20.5738 H   0  0  0  0  0  0
  -26.8329  -30.8576   21.9787 H   0  0  0  0  0  0
  -28.1211  -29.0527   21.1323 H   0  0  0  0  0  0
  -26.0588  -25.8975   19.0398 H   0  0  0  0  0  0
  -23.9857  -27.2466   19.0628 H   0  0  0  0  0  0
  -23.7852  -30.5725   19.3839 H   0  0  0  0  0  0
  -22.7607  -29.2387   19.8296 H   0  0  0  0  0  0
  -25.1292  -36.1884   25.0833 H   0  0  0  0  0  0
  -21.0059  -28.3284   24.1327 H   0  0  0  0  0  0
  -20.5585  -26.2332   23.3604 H   0  0  0  0  0  0
  -21.6646  -26.7362   22.1219 H   0  0  0  0  0  0
  -19.6878  -25.6270   21.1248 H   0  0  0  0  0  0
  -19.6705  -27.3167   20.6714 H   0  0  0  0  0  0
  -17.4192  -26.6747   21.4034 H   0  0  0  0  0  0
  -18.0341  -26.0158   22.9033 H   0  0  0  0  0  0
  -19.8009  -30.7307   24.2213 H   0  0  0  0  0  0
  -17.5120  -31.6291   24.5220 H   0  0  0  0  0  0
  -15.5417  -30.3091   23.7676 H   0  0  0  0  0  0
  -15.8709  -28.0944   22.6972 H   0  0  0  0  0  0
  -24.5829  -30.7190   25.7811 H   0  0  0  0  0  0
  -24.8960  -32.3029   26.4834 H   0  0  0  0  0  0
  -25.8026  -30.9032   27.0231 H   0  0  0  0  0  0
  -26.2867  -29.6829   24.1106 H   0  0  0  0  0  0
  -27.4121  -29.7294   25.4479 H   0  0  0  0  0  0
  -27.8630  -30.4461   23.9191 H   0  0  0  0  0  0
  -27.2506  -33.3678   26.1999 H   0  0  0  0  0  0
  -28.3773  -32.6933   25.0303 H   0  0  0  0  0  0
  -28.0610  -31.8562   26.5416 H   0  0  0  0  0  0
  -28.2561  -38.0096   24.7481 H   0  0  0  0  0  0
  -28.1069  -36.2619   24.6332 H   0  0  0  0  0  0
  -27.2310  -37.1466   25.8890 H   0  0  0  0  0  0
  -20.9280  -29.8966   21.6982 H   0  0  0  0  0  0
  -26.0154  -38.2803   24.1452 H   0  0  0  0  0  0
  -30.1833  -19.7098   18.4357 H   0  0  0  0  0  0
  -30.7767  -17.3621   18.8484 H   0  0  0  0  0  0
  -29.7870  -22.8854   23.5252 H   0  0  0  0  0  0
  -29.9656  -21.4573   22.3756 H   0  0  0  0  0  0
  -29.4663  -25.2461   22.2925 H   0  0  0  0  0  0
  -27.7499  -24.8475   22.1545 H   0  0  0  0  0  0
  -28.4151  -24.0363   18.4152 H   0  0  0  0  0  0
  -27.1395  -23.8983   19.6322 H   0  0  0  0  0  0
  -29.7989  -25.2377   19.9918 H   0  0  0  0  0  0
  -27.5615  -20.9964   22.3542 H   0  0  0  0  0  0
  -27.3324  -19.5245   23.2137 H   0  0  0  0  0  0
  -26.3892  -19.8454   21.7650 H   0  0  0  0  0  0
  -27.0829  -17.0804   22.6209 H   0  0  0  0  0  0
  -28.3702  -17.7017   23.6728 H   0  0  0  0  0  0
  -28.5497  -16.1619   22.9245 H   0  0  0  0  0  0
  -27.2689  -21.4070   19.9475 H   0  0  0  0  0  0
  -28.3831  -21.3962   18.6513 H   0  0  0  0  0  0
  -28.9402  -15.3011   21.3318 H   0  0  0  0  0  0
  -29.8305  -22.7783   19.7358 H   0  0  0  0  0  0
  1 25  1  0  0  0
  1 30  2  0  0  0
  1 85  1  0  0  0
  2  3  1  0  0  0
  2 25  1  0  0  0
  2 87  1  0  0  0
  2 88  1  0  0  0
  3  4  1  0  0  0
  3 89  1  0  0  0
  3 90  1  0  0  0
  4  5  1  0  0  0
  4 91  1  0  0  0
  4 92  1  0  0  0
  5  6  1  0  0  0
  5 26  1  0  0  0
  5 93  1  0  0  0
  6 25  1  0  0  0
  6 94  1  0  0  0
  6 95  1  0  0  0
  7  8  2  0  0  0
  7 26  1  0  0  0
  7 29  1  0  0  0
  8  9  1  0  0  0
  8 22  1  0  0  0
  9 10  1  0  0  0
  9 27  2  0  0  0
 10 11  2  0  0  0
 10 15  1  0  0  0
 11 12  1  0  0  0
 11 96  1  0  0  0
 12 13  2  0  0  0
 12 97  1  0  0  0
 13 14  1  0  0  0
 13 31  1  0  0  0
 14 15  2  0  0  0
 14 98  1  0  0  0
 15 99  1  0  0  0
 16 17  2  0  0  0
 16 21  1  0  0  0
 16 31  1  0  0  0
 17 18  1  0  0  0
 17100  1  0  0  0
 18 19  2  0  0  0
 18101  1  0  0  0
 19 20  1  0  0  0
 19 24  1  0  0  0
 20 21  2  0  0  0
 20102  1  0  0  0
 21 23  1  0  0  0
 22 28  1  0  0  0
 22 32  2  0  0  0
 26 27  1  0  0  0
 28103  1  0  0  0
 28104  1  0  0  0
 29105  1  0  0  0
 29106  1  0  0  0
 33 34  1  0  0  0
 33 66  1  0  0  0
 33 70  2  0  0  0
 34 36  1  0  0  0
 34 59  1  0  0  0
 34107  1  0  0  0
 35 44  2  0  0  0
 35 45  1  0  0  0
 35 68  1  0  0  0
 36 56  1  0  0  0
 36108  1  0  0  0
 37 39  1  0  0  0
 37 47  1  0  0  0
 37 66  1  0  0  0
 37109  1  0  0  0
 38 43  2  0  0  0
 38 46  1  0  0  0
 38 47  1  0  0  0
 39 64  1  0  0  0
 39 67  2  0  0  0
 40 52  1  0  0  0
 40 53  2  0  0  0
 40 58  1  0  0  0
 41110  1  0  0  0
 41111  1  0  0  0
 41112  1  0  0  0
 41 48  1  0  0  0
 42 43  1  0  0  0
 42 66  1  0  0  0
 42113  1  0  0  0
 42114  1  0  0  0
 43 44  1  0  0  0
 44115  1  0  0  0
 45 46  2  0  0  0
 45116  1  0  0  0
 46117  1  0  0  0
 47118  1  0  0  0
 47119  1  0  0  0
 48 56  1  0  0  0
 48 65  1  0  0  0
 48120  1  0  0  0
 49 50  1  0  0  0
 49 53  1  0  0  0
 49 64  1  0  0  0
 49121  1  0  0  0
 50 51  1  0  0  0
 50122  1  0  0  0
 50123  1  0  0  0
 51 52  1  0  0  0
 51124  1  0  0  0
 51125  1  0  0  0
 52126  1  0  0  0
 52127  1  0  0  0
 53 54  1  0  0  0
 54 55  2  0  0  0
 54128  1  0  0  0
 55 57  1  0  0  0
 55129  1  0  0  0
 56 69  2  0  0  0
 57 58  2  0  0  0
 57130  1  0  0  0
 58131  1  0  0  0
 59 60  1  0  0  0
 59 61  1  0  0  0
 59 62  1  0  0  0
 60132  1  0  0  0
 60133  1  0  0  0
 60134  1  0  0  0
 61135  1  0  0  0
 61136  1  0  0  0
 61137  1  0  0  0
 62138  1  0  0  0
 62139  1  0  0  0
 62140  1  0  0  0
 63 65  1  0  0  0
 63141  1  0  0  0
 63142  1  0  0  0
 63143  1  0  0  0
 64144  1  0  0  0
 65145  1  0  0  0
 68 81  1  0  0  0
 71 72  2  0  0  0
 71 73  1  0  0  0
 71146  1  0  0  0
 72 76  1  0  0  0
 72147  1  0  0  0
 73 74  2  0  0  0
 73 84  1  0  0  0
 74 75  1  0  0  0
 74 82  1  0  0  0
 75 76  2  0  0  0
 75 83  1  0  0  0
 76 85  1  0  0  0
 77 78  2  0  0  0
 77 79  1  0  0  0
 77 86  1  0  0  0
 78148  1  0  0  0
 78149  1  0  0  0
 79 81  1  0  0  0
 79150  1  0  0  0
 79151  1  0  0  0
 80 81  1  0  0  0
 80 86  1  0  0  0
 80152  1  0  0  0
 80153  1  0  0  0
 81154  1  0  0  0
 82155  1  0  0  0
 82156  1  0  0  0
 82157  1  0  0  0
 83158  1  0  0  0
 83159  1  0  0  0
 83160  1  0  0  0
 84161  1  0  0  0
 84162  1  0  0  0
 84 86  1  0  0  0
 85163  1  0  0  0
 86164  1  0  0  0
M  CHG  1  86   1
M  ISO  4   1 100  68 101  81 101  85 100
M  END
> <chiral flag>
0

> <version>
0

> <s_m_source_file>
/data/baiqing/PycharmProjects/Reinvent-master-3.2/result/LINK_invent/BTK/process_docking_weight1_custom_product_contain_oxygen_bond_distance_aromatic_linkinvent_7_9_3/rearranged_h_0033.sdf

> <i_m_source_file_index>
76

> <r_mmod_Potential_Energy-OPLS-2005>
63.0893898010254

> <r_mmod_Stretch_Energy-OPLS-2005>
91.5276260375977

> <r_mmod_Bend_Energy-OPLS-2005>
259.856018066406

> <r_mmod_Torsional_Energy-OPLS-2005>
239.629928588867

> <r_mmod_Improper_Torsional_Energy-OPLS-2005>
7.03970241546631

> <r_mmod_Van_der_Waal_Energy-OPLS-2005>
138.806976318359

> <r_mmod_Electrostatic_Energy-OPLS-2005>
-291.683135986328

> <r_mmod_Solvation_Energy-OPLS-2005>
-431.223022460938

> <b_mmod_Minimization_Converged-OPLS-2005>
0

> <r_mmod_RMS_Derivative-OPLS-2005>
5.89579391479492

$$$$
76
                    3D
 Structure written by MMmdl.
166175  0  0  1  0            999 V2000
  -30.7257  -14.4801   20.5292 C   0  0  0  0  0  0
  -30.4170  -12.3060   19.4305 C   0  0  0  0  0  0
  -29.4918  -12.4999   18.2126 C   0  0  0  0  0  0
  -28.0149  -12.3680   18.6305 C   0  0  0  0  0  0
  -27.6627  -13.2196   19.8795 C   0  0  2  0  0  0
  -28.7101  -13.0365   21.0024 C   0  0  0  0  0  0
  -25.2591  -13.8192   20.5733 C   0  0  0  0  0  0
  -24.1866  -13.0441   20.9192 C   0  0  0  0  0  0
  -24.6430  -11.6919   20.8763 C   0  0  0  0  0  0
  -23.9096  -10.4300   21.0419 C   0  0  0  0  0  0
  -24.3644   -9.4215   21.9202 C   0  0  0  0  0  0
  -23.6324   -8.2245   22.0751 C   0  0  0  0  0  0
  -22.4300   -8.0293   21.3532 C   0  0  0  0  0  0
  -21.9942   -9.0276   20.4642 C   0  0  0  0  0  0
  -22.7267  -10.2157   20.3075 C   0  0  0  0  0  0
  -21.6854   -6.0768   22.5280 C   0  0  0  0  0  0
  -21.4017   -6.5669   23.8221 C   0  0  0  0  0  0
  -21.3646   -5.6815   24.9182 C   0  0  0  0  0  0
  -21.6052   -4.3074   24.7222 C   0  0  0  0  0  0
  -21.8825   -3.8165   23.4337 C   0  0  0  0  0  0
  -21.9197   -4.6993   22.3400 C   0  0  0  0  0  0
  -22.7865  -13.5213   21.1850 C   0  0  0  0  0  0
  -22.1664   -4.2177   21.0972 F   0  0  0  0  0  0
  -21.5620   -3.4547   25.7726 F   0  0  0  0  0  0
  -30.0375  -13.3122   20.4342 N   0  0  0  0  0  0
  -26.3059  -12.9405   20.3440 N   0  0  0  0  0  0
  -25.9375  -11.6550   20.5825 N   0  0  0  0  0  0
  -22.0534  -12.8222   22.0414 N   0  0  0  0  0  0
  -25.4280  -15.1907   20.4128 N   0  0  0  0  0  0
  -31.8784  -14.6071   20.1088 O   0  0  0  0  0  0
  -21.6655   -6.8894   21.4231 O   0  0  0  0  0  0
  -22.3539  -14.5517   20.6688 O   0  0  0  0  0  0
  -24.6199  -31.8700   23.2106 C   0  0  0  0  0  0
  -25.9078  -32.4832   23.8408 C   0  0  1  0  0  0
  -27.2140  -27.4125   20.0785 C   0  0  0  0  0  0
  -25.5922  -33.8628   24.2334 N   0  0  0  0  0  0
  -23.4039  -30.5003   21.5546 C   0  0  2  0  0  0
  -24.8397  -28.9727   20.1109 C   0  0  0  0  0  0
  -22.7429  -29.4691   22.4986 C   0  0  0  0  0  0
  -18.0280  -28.1391   22.8480 C   0  0  0  0  0  0
  -24.1486  -36.7324   23.2636 C   0  0  0  0  0  0
  -25.9378  -30.8288   21.3634 C   0  0  0  0  0  0
  -26.0086  -29.4658   20.7045 C   0  0  0  0  0  0
  -27.1986  -28.6966   20.6811 C   0  0  0  0  0  0
  -26.0127  -26.9467   19.4851 C   0  0  0  0  0  0
  -24.8390  -27.7141   19.4970 C   0  0  0  0  0  0
  -23.6066  -29.8442   20.1666 C   0  0  0  0  0  0
  -25.4105  -36.3113   24.0336 C   0  0  1  0  0  0
  -20.5879  -28.3684   23.1292 C   0  0  2  0  0  0
  -20.6775  -26.9417   22.5400 C   0  0  0  0  0  0
  -19.5740  -26.6387   21.5207 C   0  0  0  0  0  0
  -18.1924  -26.7930   22.1623 C   0  0  0  0  0  0
  -19.1538  -28.8850   23.2884 C   0  0  0  0  0  0
  -18.9458  -30.1453   23.8890 C   0  0  0  0  0  0
  -17.6460  -30.6585   24.0569 C   0  0  0  0  0  0
  -25.9048  -34.9482   23.5134 C   0  0  0  0  0  0
  -16.5349  -29.9092   23.6321 C   0  0  0  0  0  0
  -16.7269  -28.6522   23.0322 C   0  0  0  0  0  0
  -26.4474  -31.6606   25.0744 C   0  0  0  0  0  0
  -25.3726  -31.3708   26.1488 C   0  0  0  0  0  0
  -27.0308  -30.3051   24.6114 C   0  0  0  0  0  0
  -27.6056  -32.4324   25.7492 C   0  0  0  0  0  0
  -27.5585  -37.1811   24.8465 C   0  0  0  0  0  0
  -21.4163  -29.3063   22.3713 N   0  0  0  0  0  0
  -26.4292  -37.3800   23.9422 N   0  0  0  0  0  0
  -24.6735  -31.0805   22.1002 N   0  0  0  0  0  0
  -23.4203  -28.8215   23.3014 O   0  0  0  0  0  0
  -28.3778  -26.6516   20.0957 O   0  0  0  0  0  0
  -26.5601  -34.8933   22.4690 O   0  0  0  0  0  0
  -23.5381  -32.1456   23.7494 O   0  0  0  0  0  0
  -28.1413  -19.0864   22.7193 C   0  0  0  0  0  0
  -28.7518  -17.9675   22.1249 C   0  0  0  0  0  0
  -28.5366  -20.3956   22.3699 C   0  0  0  0  0  0
  -29.7576  -18.1372   21.1537 C   0  0  0  0  0  0
  -29.5361  -20.5978   21.3807 C   0  0  0  0  0  0
  -30.1264  -19.4569   20.7634 C   0  0  0  0  0  0
  -28.0335  -23.4439   18.0990 C   0  0  0  0  0  0
  -28.3341  -24.9343   18.3239 C   0  0  0  0  0  0
  -29.0289  -22.5503   18.8697 C   0  0  0  0  0  0
  -29.3227  -24.3618   20.5473 C   0  0  0  0  0  0
  -28.2572  -25.2326   19.8336 C   0  0  1  0  0  0
  -27.9041  -21.5659   23.1071 C   0  0  0  0  0  0
  -30.5009  -16.9288   20.5667 C   0  0  0  0  0  0
  -30.0418  -22.0270   21.0750 C   0  0  0  0  0  0
  -30.0224  -15.5700   20.8908 N   0  0  0  0  0  0
  -29.0896  -22.8930   20.3191 N   0  3  2  0  0  0
  -31.3433  -19.6666   19.5479 Cl  0  0  0  0  0  0
  -31.4623  -12.3865   19.1273 H   0  0  0  0  0  0
  -30.3041  -11.3030   19.8456 H   0  0  0  0  0  0
  -29.7270  -11.7687   17.4384 H   0  0  0  0  0  0
  -29.6589  -13.4808   17.7665 H   0  0  0  0  0  0
  -27.8229  -11.3144   18.8368 H   0  0  0  0  0  0
  -27.3624  -12.6400   17.7993 H   0  0  0  0  0  0
  -27.6960  -14.2632   19.5642 H   0  0  0  0  0  0
  -28.6850  -12.0191   21.3931 H   0  0  0  0  0  0
  -28.4877  -13.6859   21.8503 H   0  0  0  0  0  0
  -25.2788   -9.5711   22.4764 H   0  0  0  0  0  0
  -24.0050   -7.4648   22.7476 H   0  0  0  0  0  0
  -21.0872   -8.8829   19.8934 H   0  0  0  0  0  0
  -22.3746  -10.9728   19.6205 H   0  0  0  0  0  0
  -21.2016   -7.6184   23.9734 H   0  0  0  0  0  0
  -21.1449   -6.0538   25.9088 H   0  0  0  0  0  0
  -22.0601   -2.7620   23.2840 H   0  0  0  0  0  0
  -22.4163  -11.9875   22.4788 H   0  0  0  0  0  0
  -21.1149  -13.1205   22.2626 H   0  0  0  0  0  0
  -24.6471  -15.8316   20.4953 H   0  0  0  0  0  0
  -26.2696  -15.6256   20.0568 H   0  0  0  0  0  0
  -26.7150  -32.5523   23.1174 H   0  0  0  0  0  0
  -25.0084  -33.9783   25.0484 H   0  0  0  0  0  0
  -22.6924  -31.3197   21.4239 H   0  0  0  0  0  0
  -23.3748  -35.9664   23.3298 H   0  0  0  0  0  0
  -24.3588  -36.8943   22.2055 H   0  0  0  0  0  0
  -23.7241  -37.6525   23.6650 H   0  0  0  0  0  0
  -26.0543  -31.5922   20.5925 H   0  0  0  0  0  0
  -26.8265  -30.8791   21.9801 H   0  0  0  0  0  0
  -28.1006  -29.0782   21.1392 H   0  0  0  0  0  0
  -25.9301  -25.9867   19.0020 H   0  0  0  0  0  0
  -23.9412  -27.3317   19.0314 H   0  0  0  0  0  0
  -23.7135  -30.6242   19.4118 H   0  0  0  0  0  0
  -22.7260  -29.2716   19.8702 H   0  0  0  0  0  0
  -25.1274  -36.1985   25.0826 H   0  0  0  0  0  0
  -20.9964  -28.3264   24.1417 H   0  0  0  0  0  0
  -20.5682  -26.2306   23.3608 H   0  0  0  0  0  0
  -21.6648  -26.7469   22.1192 H   0  0  0  0  0  0
  -19.6914  -25.6302   21.1235 H   0  0  0  0  0  0
  -19.6673  -27.3199   20.6739 H   0  0  0  0  0  0
  -17.4198  -26.6664   21.4027 H   0  0  0  0  0  0
  -18.0332  -26.0077   22.9021 H   0  0  0  0  0  0
  -19.7936  -30.7270   24.2255 H   0  0  0  0  0  0
  -17.5019  -31.6255   24.5192 H   0  0  0  0  0  0
  -15.5353  -30.2997   23.7644 H   0  0  0  0  0  0
  -15.8672  -28.0856   22.7001 H   0  0  0  0  0  0
  -24.5899  -30.7054   25.7817 H   0  0  0  0  0  0
  -24.8913  -32.2857   26.4943 H   0  0  0  0  0  0
  -25.8071  -30.8865   27.0243 H   0  0  0  0  0  0
  -26.2853  -29.6808   24.1167 H   0  0  0  0  0  0
  -27.4085  -29.7287   25.4568 H   0  0  0  0  0  0
  -27.8684  -30.4383   23.9269 H   0  0  0  0  0  0
  -27.2685  -33.3629   26.2075 H   0  0  0  0  0  0
  -28.3841  -32.6880   25.0289 H   0  0  0  0  0  0
  -28.0749  -31.8450   26.5388 H   0  0  0  0  0  0
  -28.2590  -38.0118   24.7528 H   0  0  0  0  0  0
  -28.1085  -36.2649   24.6259 H   0  0  0  0  0  0
  -27.2310  -37.1435   25.8867 H   0  0  0  0  0  0
  -20.9330  -29.8814   21.6961 H   0  0  0  0  0  0
  -26.0179  -38.2884   24.1413 H   0  0  0  0  0  0
  -27.3825  -18.9287   23.4746 H   0  0  0  0  0  0
  -28.4552  -16.9802   22.4460 H   0  0  0  0  0  0
  -28.0682  -23.2094   17.0348 H   0  0  0  0  0  0
  -27.0122  -23.2255   18.4199 H   0  0  0  0  0  0
  -27.6355  -25.5381   17.7511 H   0  0  0  0  0  0
  -29.3240  -25.1884   17.9412 H   0  0  0  0  0  0
  -30.0217  -22.6498   18.4271 H   0  0  0  0  0  0
  -28.7413  -21.5057   18.7495 H   0  0  0  0  0  0
  -29.2919  -24.5737   21.6148 H   0  0  0  0  0  0
  -30.3225  -24.6345   20.2058 H   0  0  0  0  0  0
  -27.3043  -24.8803   20.2368 H   0  0  0  0  0  0
  -27.1668  -21.2315   23.8374 H   0  0  0  0  0  0
  -27.3970  -22.2373   22.4175 H   0  0  0  0  0  0
  -28.6610  -22.1343   23.6487 H   0  0  0  0  0  0
  -31.5426  -17.0259   20.8835 H   0  0  0  0  0  0
  -30.4982  -17.0202   19.4798 H   0  0  0  0  0  0
  -31.0042  -22.0199   20.5665 H   0  0  0  0  0  0
  -30.2700  -22.4899   22.0341 H   0  0  0  0  0  0
  -29.0670  -15.4535   21.1865 H   0  0  0  0  0  0
  -28.1807  -22.6812   20.7027 H   0  0  0  0  0  0
  1 25  1  0  0  0
  1 30  2  0  0  0
  1 85  1  0  0  0
  2  3  1  0  0  0
  2 25  1  0  0  0
  2 88  1  0  0  0
  2 89  1  0  0  0
  3  4  1  0  0  0
  3 90  1  0  0  0
  3 91  1  0  0  0
  4  5  1  0  0  0
  4 92  1  0  0  0
  4 93  1  0  0  0
  5  6  1  0  0  0
  5 26  1  0  0  0
  5 94  1  0  0  0
  6 25  1  0  0  0
  6 95  1  0  0  0
  6 96  1  0  0  0
  7  8  2  0  0  0
  7 26  1  0  0  0
  7 29  1  0  0  0
  8  9  1  0  0  0
  8 22  1  0  0  0
  9 10  1  0  0  0
  9 27  2  0  0  0
 10 11  2  0  0  0
 10 15  1  0  0  0
 11 12  1  0  0  0
 11 97  1  0  0  0
 12 13  2  0  0  0
 12 98  1  0  0  0
 13 14  1  0  0  0
 13 31  1  0  0  0
 14 15  2  0  0  0
 14 99  1  0  0  0
 15100  1  0  0  0
 16 17  2  0  0  0
 16 21  1  0  0  0
 16 31  1  0  0  0
 17 18  1  0  0  0
 17101  1  0  0  0
 18 19  2  0  0  0
 18102  1  0  0  0
 19 20  1  0  0  0
 19 24  1  0  0  0
 20 21  2  0  0  0
 20103  1  0  0  0
 21 23  1  0  0  0
 22 28  1  0  0  0
 22 32  2  0  0  0
 26 27  1  0  0  0
 28104  1  0  0  0
 28105  1  0  0  0
 29106  1  0  0  0
 29107  1  0  0  0
 33 34  1  0  0  0
 33 66  1  0  0  0
 33 70  2  0  0  0
 34 36  1  0  0  0
 34 59  1  0  0  0
 34108  1  0  0  0
 35 44  2  0  0  0
 35 45  1  0  0  0
 35 68  1  0  0  0
 36 56  1  0  0  0
 36109  1  0  0  0
 37 39  1  0  0  0
 37 47  1  0  0  0
 37 66  1  0  0  0
 37110  1  0  0  0
 38 43  2  0  0  0
 38 46  1  0  0  0
 38 47  1  0  0  0
 39 64  1  0  0  0
 39 67  2  0  0  0
 40 52  1  0  0  0
 40 53  2  0  0  0
 40 58  1  0  0  0
 41111  1  0  0  0
 41112  1  0  0  0
 41113  1  0  0  0
 41 48  1  0  0  0
 42 43  1  0  0  0
 42 66  1  0  0  0
 42114  1  0  0  0
 42115  1  0  0  0
 43 44  1  0  0  0
 44116  1  0  0  0
 45 46  2  0  0  0
 45117  1  0  0  0
 46118  1  0  0  0
 47119  1  0  0  0
 47120  1  0  0  0
 48 56  1  0  0  0
 48 65  1  0  0  0
 48121  1  0  0  0
 49 50  1  0  0  0
 49 53  1  0  0  0
 49 64  1  0  0  0
 49122  1  0  0  0
 50 51  1  0  0  0
 50123  1  0  0  0
 50124  1  0  0  0
 51 52  1  0  0  0
 51125  1  0  0  0
 51126  1  0  0  0
 52127  1  0  0  0
 52128  1  0  0  0
 53 54  1  0  0  0
 54 55  2  0  0  0
 54129  1  0  0  0
 55 57  1  0  0  0
 55130  1  0  0  0
 56 69  2  0  0  0
 57 58  2  0  0  0
 57131  1  0  0  0
 58132  1  0  0  0
 59 60  1  0  0  0
 59 61  1  0  0  0
 59 62  1  0  0  0
 60133  1  0  0  0
 60134  1  0  0  0
 60135  1  0  0  0
 61136  1  0  0  0
 61137  1  0  0  0
 61138  1  0  0  0
 62139  1  0  0  0
 62140  1  0  0  0
 62141  1  0  0  0
 63 65  1  0  0  0
 63142  1  0  0  0
 63143  1  0  0  0
 63144  1  0  0  0
 64145  1  0  0  0
 65146  1  0  0  0
 68 81  1  0  0  0
 71 72  2  0  0  0
 71 73  1  0  0  0
 71147  1  0  0  0
 72 74  1  0  0  0
 72148  1  0  0  0
 73 75  2  0  0  0
 73 82  1  0  0  0
 74 76  2  0  0  0
 74 83  1  0  0  0
 75 76  1  0  0  0
 75 84  1  0  0  0
 76 87  1  0  0  0
 77 78  1  0  0  0
 77 79  1  0  0  0
 77149  1  0  0  0
 77150  1  0  0  0
 78 81  1  0  0  0
 78151  1  0  0  0
 78152  1  0  0  0
 79 86  1  0  0  0
 79153  1  0  0  0
 79154  1  0  0  0
 80 81  1  0  0  0
 80 86  1  0  0  0
 80155  1  0  0  0
 80156  1  0  0  0
 81157  1  0  0  0
 82158  1  0  0  0
 82159  1  0  0  0
 82160  1  0  0  0
 83 85  1  0  0  0
 83161  1  0  0  0
 83162  1  0  0  0
 84163  1  0  0  0
 84164  1  0  0  0
 84 86  1  0  0  0
 85165  1  0  0  0
 86166  1  0  0  0
M  CHG  1  86   1
M  ISO  4   1 100  68 101  81 101  85 100
M  END
> <chiral flag>
0

> <version>
0

> <s_m_source_file>
/data/baiqing/PycharmProjects/Reinvent-master-3.2/result/LINK_invent/BTK/process_docking_weight1_custom_product_contain_oxygen_bond_distance_aromatic_linkinvent_7_9_3/rearranged_h_0033.sdf

> <i_m_source_file_index>
77

> <r_mmod_Potential_Energy-OPLS-2005>
-142.708587646484

> <r_mmod_Stretch_Energy-OPLS-2005>
44.9438400268555

> <r_mmod_Bend_Energy-OPLS-2005>
104.289077758789

> <r_mmod_Torsional_Energy-OPLS-2005>
217.515686035156

> <r_mmod_Improper_Torsional_Energy-OPLS-2005>
6.19337224960327

> <r_mmod_Van_der_Waal_Energy-OPLS-2005>
167.962203979492

> <r_mmod_Electrostatic_Energy-OPLS-2005>
-283.866058349609

> <r_mmod_Solvation_Energy-OPLS-2005>
-418.049926757812

> <b_mmod_Minimization_Converged-OPLS-2005>
0

> <r_mmod_RMS_Derivative-OPLS-2005>
3.00799489021301

$$$$
77
                    3D
 Structure written by MMmdl.
157165  0  0  1  0            999 V2000
  -30.6015  -14.7718   20.4274 C   0  0  0  0  0  0
  -30.4359  -12.4682   19.4776 C   0  0  0  0  0  0
  -29.5162  -12.5354   18.2373 C   0  0  0  0  0  0
  -28.0380  -12.3646   18.6412 C   0  0  0  0  0  0
  -27.6467  -13.2458   19.8589 C   0  0  2  0  0  0
  -28.6933  -13.1760   20.9939 C   0  0  0  0  0  0
  -25.2525  -13.8241   20.5702 C   0  0  0  0  0  0
  -24.1834  -13.0450   20.9225 C   0  0  0  0  0  0
  -24.6447  -11.6941   20.8745 C   0  0  0  0  0  0
  -23.9125  -10.4313   21.0397 C   0  0  0  0  0  0
  -24.3660   -9.4221   21.9172 C   0  0  0  0  0  0
  -23.6325   -8.2260   22.0750 C   0  0  0  0  0  0
  -22.4294   -8.0295   21.3550 C   0  0  0  0  0  0
  -21.9937   -9.0270   20.4645 C   0  0  0  0  0  0
  -22.7284  -10.2146   20.3040 C   0  0  0  0  0  0
  -21.6868   -6.0740   22.5281 C   0  0  0  0  0  0
  -21.4029   -6.5647   23.8208 C   0  0  0  0  0  0
  -21.3671   -5.6801   24.9177 C   0  0  0  0  0  0
  -21.6046   -4.3061   24.7222 C   0  0  0  0  0  0
  -21.8828   -3.8148   23.4348 C   0  0  0  0  0  0
  -21.9200   -4.6968   22.3405 C   0  0  0  0  0  0
  -22.7830  -13.5200   21.1876 C   0  0  0  0  0  0
  -22.1653   -4.2153   21.0978 F   0  0  0  0  0  0
  -21.5640   -3.4536   25.7735 F   0  0  0  0  0  0
  -29.9994  -13.5296   20.4212 N   0  0  0  0  0  0
  -26.2979  -12.9469   20.3319 N   0  0  0  0  0  0
  -25.9390  -11.6596   20.5759 N   0  0  0  0  0  0
  -22.0492  -12.8174   22.0426 N   0  0  0  0  0  0
  -25.4182  -15.1969   20.4128 N   0  0  0  0  0  0
  -31.7634  -14.8812   20.0264 O   0  0  0  0  0  0
  -21.6649   -6.8885   21.4244 O   0  0  0  0  0  0
  -22.3499  -14.5490   20.6704 O   0  0  0  0  0  0
  -24.6358  -31.8552   23.1996 C   0  0  0  0  0  0
  -25.9185  -32.4742   23.8323 C   0  0  1  0  0  0
  -27.2092  -27.2356   20.1137 C   0  0  0  0  0  0
  -25.5969  -33.8551   24.2230 N   0  0  0  0  0  0
  -23.4307  -30.4839   21.5453 C   0  0  2  0  0  0
  -24.8738  -28.9377   20.1124 C   0  0  0  0  0  0
  -22.7503  -29.4640   22.4902 C   0  0  0  0  0  0
  -18.0299  -28.1392   22.8484 C   0  0  0  0  0  0
  -24.1499  -36.7304   23.2634 C   0  0  0  0  0  0
  -25.9810  -30.7606   21.3856 C   0  0  0  0  0  0
  -26.0529  -29.3827   20.7249 C   0  0  0  0  0  0
  -27.2226  -28.5451   20.7207 C   0  0  0  0  0  0
  -26.0032  -26.8912   19.4524 C   0  0  0  0  0  0
  -24.8568  -27.6993   19.4672 C   0  0  0  0  0  0
  -23.6493  -29.8267   20.1605 C   0  0  0  0  0  0
  -25.4120  -36.3071   24.0305 C   0  0  1  0  0  0
  -20.5903  -28.3728   23.1240 C   0  0  2  0  0  0
  -20.6792  -26.9445   22.5394 C   0  0  0  0  0  0
  -19.5765  -26.6386   21.5207 C   0  0  0  0  0  0
  -18.1946  -26.7931   22.1630 C   0  0  0  0  0  0
  -19.1554  -28.8875   23.2859 C   0  0  0  0  0  0
  -18.9479  -30.1469   23.8890 C   0  0  0  0  0  0
  -17.6486  -30.6596   24.0573 C   0  0  0  0  0  0
  -25.9073  -34.9442   23.5060 C   0  0  0  0  0  0
  -16.5375  -29.9100   23.6333 C   0  0  0  0  0  0
  -16.7289  -28.6517   23.0344 C   0  0  0  0  0  0
  -26.4519  -31.6587   25.0730 C   0  0  0  0  0  0
  -25.3698  -31.3807   26.1413 C   0  0  0  0  0  0
  -27.0348  -30.2976   24.6254 C   0  0  0  0  0  0
  -27.6044  -32.4332   25.7532 C   0  0  0  0  0  0
  -27.5572  -37.1815   24.8450 C   0  0  0  0  0  0
  -21.4209  -29.3089   22.3629 N   0  0  0  0  0  0
  -26.4294  -37.3764   23.9398 N   0  0  0  0  0  0
  -24.7020  -31.0510   22.0992 N   0  0  0  0  0  0
  -23.4181  -28.8170   23.3012 O   0  0  0  0  0  0
  -28.2649  -26.2754   20.1673 O   0  0  0  0  0  0
  -26.5641  -34.8928   22.4621 O   0  0  0  0  0  0
  -23.5505  -32.1399   23.7268 O   0  0  0  0  0  0
  -29.8644  -18.6509   18.1164 C   0  0  0  0  0  0
  -30.1117  -17.4285   18.7777 C   0  0  0  0  0  0
  -29.1544  -19.7896   20.1885 C   0  0  0  0  0  0
  -29.3494  -19.7965   18.7740 C   0  0  0  0  0  0
  -29.8246  -17.2708   20.1492 C   0  0  0  0  0  0
  -29.3736  -18.4766   20.8336 C   0  0  0  0  0  0
  -28.5212  -21.0189   20.9581 C   0  0  0  0  0  0
  -28.7534  -23.4983   20.2291 C   0  0  0  0  0  0
  -28.9243  -20.9412   17.8617 C   0  0  0  0  0  0
  -30.0588  -23.5940   19.4738 C   0  0  0  0  0  0
  -27.8246  -24.8196   20.1734 C   0  0  0  0  0  0
  -28.3099  -22.4211   20.8505 N   0  0  0  0  0  0
  -29.8571  -15.8994   20.7573 N   0  0  0  0  0  0
  -27.9137  -20.6464   22.0346 N   0  3  0  0  0  0
  -29.0832  -18.3268   22.1539 F   0  0  0  0  0  0
  -31.4773  -12.5891   19.1733 H   0  0  0  0  0  0
  -30.3741  -11.4845   19.9459 H   0  0  0  0  0  0
  -29.7995  -11.7730   17.5090 H   0  0  0  0  0  0
  -29.6516  -13.4981   17.7409 H   0  0  0  0  0  0
  -27.8779  -11.3119   18.8737 H   0  0  0  0  0  0
  -27.3901  -12.5904   17.7927 H   0  0  0  0  0  0
  -27.6395  -14.2744   19.4958 H   0  0  0  0  0  0
  -28.7281  -12.1774   21.4299 H   0  0  0  0  0  0
  -28.4261  -13.8557   21.8040 H   0  0  0  0  0  0
  -25.2800   -9.5688   22.4741 H   0  0  0  0  0  0
  -24.0040   -7.4647   22.7460 H   0  0  0  0  0  0
  -21.0866   -8.8798   19.8942 H   0  0  0  0  0  0
  -22.3741  -10.9691   19.6148 H   0  0  0  0  0  0
  -21.1999   -7.6144   23.9720 H   0  0  0  0  0  0
  -21.1494   -6.0519   25.9089 H   0  0  0  0  0  0
  -22.0583   -2.7605   23.2841 H   0  0  0  0  0  0
  -22.4093  -11.9840   22.4832 H   0  0  0  0  0  0
  -21.1099  -13.1182   22.2610 H   0  0  0  0  0  0
  -24.6475  -15.8478   20.5203 H   0  0  0  0  0  0
  -26.2594  -15.6369   20.0634 H   0  0  0  0  0  0
  -26.7244  -32.5373   23.1057 H   0  0  0  0  0  0
  -25.0109  -33.9689   25.0362 H   0  0  0  0  0  0
  -22.7290  -31.3078   21.3988 H   0  0  0  0  0  0
  -23.3745  -35.9658   23.3289 H   0  0  0  0  0  0
  -24.3594  -36.8939   22.2057 H   0  0  0  0  0  0
  -23.7288  -37.6507   23.6672 H   0  0  0  0  0  0
  -26.1206  -31.5196   20.6154 H   0  0  0  0  0  0
  -26.8566  -30.8063   22.0208 H   0  0  0  0  0  0
  -28.1182  -28.8815   21.2270 H   0  0  0  0  0  0
  -25.8811  -25.9782   18.8963 H   0  0  0  0  0  0
  -23.9582  -27.3605   18.9701 H   0  0  0  0  0  0
  -23.7831  -30.6030   19.4072 H   0  0  0  0  0  0
  -22.7667  -29.2670   19.8490 H   0  0  0  0  0  0
  -25.1323  -36.1899   25.0800 H   0  0  0  0  0  0
  -21.0007  -28.3331   24.1355 H   0  0  0  0  0  0
  -20.5697  -26.2368   23.3618 H   0  0  0  0  0  0
  -21.6656  -26.7466   22.1189 H   0  0  0  0  0  0
  -19.6939  -25.6284   21.1261 H   0  0  0  0  0  0
  -19.6691  -27.3174   20.6717 H   0  0  0  0  0  0
  -17.4215  -26.6661   21.4035 H   0  0  0  0  0  0
  -18.0370  -26.0059   22.9026 H   0  0  0  0  0  0
  -19.7963  -30.7262   24.2260 H   0  0  0  0  0  0
  -17.5055  -31.6275   24.5173 H   0  0  0  0  0  0
  -15.5376  -30.3014   23.7647 H   0  0  0  0  0  0
  -15.8688  -28.0836   22.7062 H   0  0  0  0  0  0
  -24.5876  -30.7147   25.7750 H   0  0  0  0  0  0
  -24.8891  -32.3020   26.4720 H   0  0  0  0  0  0
  -25.7960  -30.9067   27.0259 H   0  0  0  0  0  0
  -26.2948  -29.6729   24.1234 H   0  0  0  0  0  0
  -27.3940  -29.7241   25.4808 H   0  0  0  0  0  0
  -27.8868  -30.4196   23.9560 H   0  0  0  0  0  0
  -27.2619  -33.3641   26.2054 H   0  0  0  0  0  0
  -28.3906  -32.6864   25.0414 H   0  0  0  0  0  0
  -28.0638  -31.8488   26.5507 H   0  0  0  0  0  0
  -28.2580  -38.0119   24.7485 H   0  0  0  0  0  0
  -28.1078  -36.2646   24.6287 H   0  0  0  0  0  0
  -27.2290  -37.1475   25.8851 H   0  0  0  0  0  0
  -20.9394  -29.8863   21.6867 H   0  0  0  0  0  0
  -26.0160  -38.2837   24.1368 H   0  0  0  0  0  0
  -30.0157  -18.6867   17.0460 H   0  0  0  0  0  0
  -30.4476  -16.5888   18.1843 H   0  0  0  0  0  0
  -28.5604  -20.5549   16.9067 H   0  0  0  0  0  0
  -29.7736  -21.5825   17.6407 H   0  0  0  0  0  0
  -28.1043  -21.5294   18.2683 H   0  0  0  0  0  0
  -30.6657  -24.4023   19.8810 H   0  0  0  0  0  0
  -29.8677  -23.8062   18.4216 H   0  0  0  0  0  0
  -30.6289  -22.6683   19.5460 H   0  0  0  0  0  0
  -27.1115  -24.7225   20.9952 H   0  0  0  0  0  0
  -27.2726  -24.6338   19.2574 H   0  0  0  0  0  0
  -29.0912  -15.7143   21.3898 H   0  0  0  0  0  0
  -27.9744  -19.6870   22.3868 H   0  0  0  0  0  0
  -27.4307  -21.3058   22.6364 H   0  0  0  0  0  0
  1 25  1  0  0  0
  1 30  2  0  0  0
  1 83  1  0  0  0
  2  3  1  0  0  0
  2 25  1  0  0  0
  2 86  1  0  0  0
  2 87  1  0  0  0
  3  4  1  0  0  0
  3 88  1  0  0  0
  3 89  1  0  0  0
  4  5  1  0  0  0
  4 90  1  0  0  0
  4 91  1  0  0  0
  5  6  1  0  0  0
  5 26  1  0  0  0
  5 92  1  0  0  0
  6 25  1  0  0  0
  6 93  1  0  0  0
  6 94  1  0  0  0
  7  8  2  0  0  0
  7 26  1  0  0  0
  7 29  1  0  0  0
  8  9  1  0  0  0
  8 22  1  0  0  0
  9 10  1  0  0  0
  9 27  2  0  0  0
 10 11  2  0  0  0
 10 15  1  0  0  0
 11 12  1  0  0  0
 11 95  1  0  0  0
 12 13  2  0  0  0
 12 96  1  0  0  0
 13 14  1  0  0  0
 13 31  1  0  0  0
 14 15  2  0  0  0
 14 97  1  0  0  0
 15 98  1  0  0  0
 16 17  2  0  0  0
 16 21  1  0  0  0
 16 31  1  0  0  0
 17 18  1  0  0  0
 17 99  1  0  0  0
 18 19  2  0  0  0
 18100  1  0  0  0
 19 20  1  0  0  0
 19 24  1  0  0  0
 20 21  2  0  0  0
 20101  1  0  0  0
 21 23  1  0  0  0
 22 28  1  0  0  0
 22 32  2  0  0  0
 26 27  1  0  0  0
 28102  1  0  0  0
 28103  1  0  0  0
 29104  1  0  0  0
 29105  1  0  0  0
 33 34  1  0  0  0
 33 66  1  0  0  0
 33 70  2  0  0  0
 34 36  1  0  0  0
 34 59  1  0  0  0
 34106  1  0  0  0
 35 44  2  0  0  0
 35 45  1  0  0  0
 35 68  1  0  0  0
 36 56  1  0  0  0
 36107  1  0  0  0
 37 39  1  0  0  0
 37 47  1  0  0  0
 37 66  1  0  0  0
 37108  1  0  0  0
 38 43  2  0  0  0
 38 46  1  0  0  0
 38 47  1  0  0  0
 39 64  1  0  0  0
 39 67  2  0  0  0
 40 52  1  0  0  0
 40 53  2  0  0  0
 40 58  1  0  0  0
 41109  1  0  0  0
 41110  1  0  0  0
 41111  1  0  0  0
 41 48  1  0  0  0
 42 43  1  0  0  0
 42 66  1  0  0  0
 42112  1  0  0  0
 42113  1  0  0  0
 43 44  1  0  0  0
 44114  1  0  0  0
 45 46  2  0  0  0
 45115  1  0  0  0
 46116  1  0  0  0
 47117  1  0  0  0
 47118  1  0  0  0
 48 56  1  0  0  0
 48 65  1  0  0  0
 48119  1  0  0  0
 49 50  1  0  0  0
 49 53  1  0  0  0
 49 64  1  0  0  0
 49120  1  0  0  0
 50 51  1  0  0  0
 50121  1  0  0  0
 50122  1  0  0  0
 51 52  1  0  0  0
 51123  1  0  0  0
 51124  1  0  0  0
 52125  1  0  0  0
 52126  1  0  0  0
 53 54  1  0  0  0
 54 55  2  0  0  0
 54127  1  0  0  0
 55 57  1  0  0  0
 55128  1  0  0  0
 56 69  2  0  0  0
 57 58  2  0  0  0
 57129  1  0  0  0
 58130  1  0  0  0
 59 60  1  0  0  0
 59 61  1  0  0  0
 59 62  1  0  0  0
 60131  1  0  0  0
 60132  1  0  0  0
 60133  1  0  0  0
 61134  1  0  0  0
 61135  1  0  0  0
 61136  1  0  0  0
 62137  1  0  0  0
 62138  1  0  0  0
 62139  1  0  0  0
 63 65  1  0  0  0
 63140  1  0  0  0
 63141  1  0  0  0
 63142  1  0  0  0
 64143  1  0  0  0
 65144  1  0  0  0
 68 81  1  0  0  0
 71 72  2  0  0  0
 71 74  1  0  0  0
 71145  1  0  0  0
 72 75  1  0  0  0
 72146  1  0  0  0
 73 74  2  0  0  0
 73 76  1  0  0  0
 73 77  1  0  0  0
 74 79  1  0  0  0
 75 76  2  0  0  0
 75 83  1  0  0  0
 76 85  1  0  0  0
 77 82  1  0  0  0
 77 84  2  0  0  0
 78 80  1  0  0  0
 78 81  1  0  0  0
 78 82  2  0  0  0
 79147  1  0  0  0
 79148  1  0  0  0
 79149  1  0  0  0
 80150  1  0  0  0
 80151  1  0  0  0
 80152  1  0  0  0
 81153  1  0  0  0
 81154  1  0  0  0
 83155  1  0  0  0
 84156  1  0  0  0
 84157  1  0  0  0
M  CHG  1  84   1
M  ISO  4   1 100  68 101  81 101  83 100
M  END
> <chiral flag>
0

> <version>
0

> <s_m_source_file>
/data/baiqing/PycharmProjects/Reinvent-master-3.2/result/LINK_invent/BTK/process_docking_weight1_custom_product_contain_oxygen_bond_distance_aromatic_linkinvent_7_9_3/rearranged_h_0033.sdf

> <i_m_source_file_index>
78

> <r_mmod_Potential_Energy-OPLS-2005>
465.481506347656

> <r_mmod_Stretch_Energy-OPLS-2005>
165.354598999023

> <r_mmod_Bend_Energy-OPLS-2005>
280.555389404297

> <r_mmod_Torsional_Energy-OPLS-2005>
263.66650390625

> <r_mmod_Improper_Torsional_Energy-OPLS-2005>
6.91508483886719

> <r_mmod_Van_der_Waal_Energy-OPLS-2005>
155.187942504883

> <r_mmod_Electrostatic_Energy-OPLS-2005>
-57.7947463989258

> <r_mmod_Solvation_Energy-OPLS-2005>
-451.511810302734

> <b_mmod_Minimization_Converged-OPLS-2005>
0

> <r_mmod_RMS_Derivative-OPLS-2005>
3.98608827590942

$$$$
78
                    3D
 Structure written by MMmdl.
155163  0  0  1  0            999 V2000
  -30.6905  -14.6148   20.4794 C   0  0  0  0  0  0
  -30.4160  -12.3772   19.4570 C   0  0  0  0  0  0
  -29.4981  -12.4873   18.2224 C   0  0  0  0  0  0
  -28.0227  -12.3380   18.6374 C   0  0  0  0  0  0
  -27.6458  -13.2284   19.8524 C   0  0  2  0  0  0
  -28.6925  -13.1322   20.9846 C   0  0  0  0  0  0
  -25.2525  -13.8205   20.5698 C   0  0  0  0  0  0
  -24.1806  -13.0449   20.9206 C   0  0  0  0  0  0
  -24.6397  -11.6925   20.8760 C   0  0  0  0  0  0
  -23.9076  -10.4300   21.0411 C   0  0  0  0  0  0
  -24.3623   -9.4215   21.9190 C   0  0  0  0  0  0
  -23.6297   -8.2249   22.0758 C   0  0  0  0  0  0
  -22.4279   -8.0287   21.3546 C   0  0  0  0  0  0
  -21.9918   -9.0263   20.4648 C   0  0  0  0  0  0
  -22.7249  -10.2142   20.3059 C   0  0  0  0  0  0
  -21.6850   -6.0741   22.5278 C   0  0  0  0  0  0
  -21.4013   -6.5643   23.8213 C   0  0  0  0  0  0
  -21.3660   -5.6797   24.9173 C   0  0  0  0  0  0
  -21.6039   -4.3057   24.7222 C   0  0  0  0  0  0
  -21.8821   -3.8151   23.4344 C   0  0  0  0  0  0
  -21.9192   -4.6971   22.3400 C   0  0  0  0  0  0
  -22.7823  -13.5230   21.1861 C   0  0  0  0  0  0
  -22.1658   -4.2156   21.0978 F   0  0  0  0  0  0
  -21.5630   -3.4541   25.7735 F   0  0  0  0  0  0
  -30.0044  -13.4339   20.4027 N   0  0  0  0  0  0
  -26.2957  -12.9408   20.3300 N   0  0  0  0  0  0
  -25.9329  -11.6551   20.5768 N   0  0  0  0  0  0
  -22.0469  -12.8217   22.0417 N   0  0  0  0  0  0
  -25.4217  -15.1929   20.4114 N   0  0  0  0  0  0
  -31.8765  -14.6734   20.1493 O   0  0  0  0  0  0
  -21.6637   -6.8885   21.4239 O   0  0  0  0  0  0
  -22.3506  -14.5535   20.6710 O   0  0  0  0  0  0
  -24.6249  -31.8631   23.2063 C   0  0  0  0  0  0
  -25.9110  -32.4790   23.8375 C   0  0  1  0  0  0
  -27.2094  -27.3311   20.1073 C   0  0  0  0  0  0
  -25.5936  -33.8590   24.2294 N   0  0  0  0  0  0
  -23.4166  -30.4907   21.5502 C   0  0  2  0  0  0
  -24.8589  -28.9562   20.1085 C   0  0  0  0  0  0
  -22.7458  -29.4640   22.4942 C   0  0  0  0  0  0
  -18.0280  -28.1378   22.8477 C   0  0  0  0  0  0
  -24.1492  -36.7301   23.2635 C   0  0  0  0  0  0
  -25.9589  -30.7968   21.3773 C   0  0  0  0  0  0
  -26.0302  -29.4284   20.7133 C   0  0  0  0  0  0
  -27.2111  -28.6276   20.7048 C   0  0  0  0  0  0
  -26.0132  -26.9196   19.4685 C   0  0  0  0  0  0
  -24.8513  -27.7059   19.4786 C   0  0  0  0  0  0
  -23.6283  -29.8357   20.1620 C   0  0  0  0  0  0
  -25.4113  -36.3086   24.0333 C   0  0  1  0  0  0
  -20.5881  -28.3678   23.1280 C   0  0  2  0  0  0
  -20.6776  -26.9404   22.5405 C   0  0  0  0  0  0
  -19.5754  -26.6381   21.5204 C   0  0  0  0  0  0
  -18.1924  -26.7914   22.1615 C   0  0  0  0  0  0
  -19.1533  -28.8843   23.2866 C   0  0  0  0  0  0
  -18.9468  -30.1446   23.8885 C   0  0  0  0  0  0
  -17.6468  -30.6581   24.0560 C   0  0  0  0  0  0
  -25.9054  -34.9458   23.5108 C   0  0  0  0  0  0
  -16.5357  -29.9084   23.6334 C   0  0  0  0  0  0
  -16.7270  -28.6501   23.0347 C   0  0  0  0  0  0
  -26.4493  -31.6591   25.0739 C   0  0  0  0  0  0
  -25.3733  -31.3737   26.1471 C   0  0  0  0  0  0
  -27.0333  -30.3015   24.6193 C   0  0  0  0  0  0
  -27.6052  -32.4324   25.7507 C   0  0  0  0  0  0
  -27.5584  -37.1794   24.8461 C   0  0  0  0  0  0
  -21.4180  -29.3038   22.3680 N   0  0  0  0  0  0
  -26.4287  -37.3786   23.9415 N   0  0  0  0  0  0
  -24.6858  -31.0655   22.1012 N   0  0  0  0  0  0
  -23.4195  -28.8161   23.2996 O   0  0  0  0  0  0
  -28.3096  -26.4609   20.1718 O   0  0  0  0  0  0
  -26.5623  -34.8921   22.4674 O   0  0  0  0  0  0
  -23.5420  -32.1433   23.7402 O   0  0  0  0  0  0
  -30.0625  -19.3898   19.4976 C   0  0  0  0  0  0
  -28.7172  -20.3514   21.7275 C   0  0  0  0  0  0
  -29.5868  -20.7360   19.5114 C   0  0  0  0  0  0
  -29.8963  -18.4950   20.5907 C   0  0  0  0  0  0
  -28.9169  -21.2595   20.6525 C   0  0  0  0  0  0
  -29.1966  -19.0090   21.7120 C   0  0  0  0  0  0
  -29.7806  -21.5760   18.2600 C   0  0  0  0  0  0
  -30.6607  -17.1238   20.5941 C   0  0  0  0  0  0
  -29.0166  -23.8859   20.4950 C   0  0  0  0  0  0
  -27.9939  -25.0204   20.0797 C   0  0  0  0  0  0
  -28.3495  -22.5718   20.7433 N   0  0  0  0  0  0
  -30.0027  -15.7766   20.7074 N   0  0  0  0  0  0
  -28.9558  -18.0221   23.1102 Cl  0  0  0  0  0  0
  -31.4618  -12.4610   19.1560 H   0  0  0  0  0  0
  -30.3197  -11.3957   19.9236 H   0  0  0  0  0  0
  -29.7582  -11.7228   17.4891 H   0  0  0  0  0  0
  -29.6490  -13.4486   17.7289 H   0  0  0  0  0  0
  -27.8587  -11.2886   18.8845 H   0  0  0  0  0  0
  -27.3681  -12.5540   17.7927 H   0  0  0  0  0  0
  -27.6513  -14.2556   19.4877 H   0  0  0  0  0  0
  -28.6978  -12.1337   21.4236 H   0  0  0  0  0  0
  -28.4531  -13.8220   21.7952 H   0  0  0  0  0  0
  -25.2767   -9.5681   22.4771 H   0  0  0  0  0  0
  -23.9998   -7.4636   22.7478 H   0  0  0  0  0  0
  -21.0850   -8.8787   19.8954 H   0  0  0  0  0  0
  -22.3712  -10.9682   19.6173 H   0  0  0  0  0  0
  -21.2007   -7.6152   23.9716 H   0  0  0  0  0  0
  -21.1478   -6.0526   25.9076 H   0  0  0  0  0  0
  -22.0600   -2.7614   23.2841 H   0  0  0  0  0  0
  -22.4070  -11.9870   22.4801 H   0  0  0  0  0  0
  -21.1094  -13.1246   22.2629 H   0  0  0  0  0  0
  -24.6562  -15.8485   20.5260 H   0  0  0  0  0  0
  -26.2738  -15.6339   20.0900 H   0  0  0  0  0  0
  -26.7179  -32.5470   23.1120 H   0  0  0  0  0  0
  -25.0081  -33.9745   25.0439 H   0  0  0  0  0  0
  -22.7101  -31.3122   21.4128 H   0  0  0  0  0  0
  -23.3760  -35.9629   23.3290 H   0  0  0  0  0  0
  -24.3582  -36.8936   22.2051 H   0  0  0  0  0  0
  -23.7239  -37.6498   23.6662 H   0  0  0  0  0  0
  -26.0896  -31.5632   20.6129 H   0  0  0  0  0  0
  -26.8394  -30.8405   22.0063 H   0  0  0  0  0  0
  -28.1079  -28.9799   21.1944 H   0  0  0  0  0  0
  -25.9325  -25.9711   18.9612 H   0  0  0  0  0  0
  -23.9534  -27.3376   18.9997 H   0  0  0  0  0  0
  -23.7470  -30.6174   19.4105 H   0  0  0  0  0  0
  -22.7467  -29.2686   19.8578 H   0  0  0  0  0  0
  -25.1278  -36.1937   25.0826 H   0  0  0  0  0  0
  -20.9962  -28.3257   24.1406 H   0  0  0  0  0  0
  -20.5686  -26.2293   23.3608 H   0  0  0  0  0  0
  -21.6648  -26.7451   22.1191 H   0  0  0  0  0  0
  -19.6938  -25.6293   21.1233 H   0  0  0  0  0  0
  -19.6697  -27.3199   20.6736 H   0  0  0  0  0  0
  -17.4198  -26.6658   21.4011 H   0  0  0  0  0  0
  -18.0319  -26.0061   22.9019 H   0  0  0  0  0  0
  -19.7955  -30.7239   24.2265 H   0  0  0  0  0  0
  -17.5040  -31.6265   24.5147 H   0  0  0  0  0  0
  -15.5356  -30.2983   23.7672 H   0  0  0  0  0  0
  -15.8666  -28.0819   22.7074 H   0  0  0  0  0  0
  -24.5920  -30.7063   25.7813 H   0  0  0  0  0  0
  -24.8908  -32.2909   26.4865 H   0  0  0  0  0  0
  -25.8066  -30.8950   27.0265 H   0  0  0  0  0  0
  -26.2907  -29.6768   24.1215 H   0  0  0  0  0  0
  -27.4026  -29.7257   25.4690 H   0  0  0  0  0  0
  -27.8779  -30.4293   23.9418 H   0  0  0  0  0  0
  -27.2667  -33.3638   26.2058 H   0  0  0  0  0  0
  -28.3873  -32.6869   25.0341 H   0  0  0  0  0  0
  -28.0707  -31.8473   26.5446 H   0  0  0  0  0  0
  -28.2570  -38.0119   24.7531 H   0  0  0  0  0  0
  -28.1104  -36.2648   24.6238 H   0  0  0  0  0  0
  -27.2306  -37.1383   25.8864 H   0  0  0  0  0  0
  -20.9349  -29.8783   21.6914 H   0  0  0  0  0  0
  -26.0173  -38.2858   24.1448 H   0  0  0  0  0  0
  -30.5973  -19.0432   18.6242 H   0  0  0  0  0  0
  -28.1921  -20.6875   22.6098 H   0  0  0  0  0  0
  -29.8594  -20.9465   17.3733 H   0  0  0  0  0  0
  -30.6903  -22.1716   18.3359 H   0  0  0  0  0  0
  -28.9366  -22.2480   18.1017 H   0  0  0  0  0  0
  -31.3878  -17.1863   21.4052 H   0  0  0  0  0  0
  -31.2654  -17.1116   19.6852 H   0  0  0  0  0  0
  -29.5046  -24.1818   21.4243 H   0  0  0  0  0  0
  -29.8091  -23.7999   19.7530 H   0  0  0  0  0  0
  -27.1049  -24.8564   20.6931 H   0  0  0  0  0  0
  -27.7088  -24.8019   19.0496 H   0  0  0  0  0  0
  -27.6431  -22.6499   21.4709 H   0  0  0  0  0  0
  -29.0169  -15.7301   20.9133 H   0  0  0  0  0  0
  1 25  1  0  0  0
  1 30  2  0  0  0
  1 82  1  0  0  0
  2  3  1  0  0  0
  2 25  1  0  0  0
  2 84  1  0  0  0
  2 85  1  0  0  0
  3  4  1  0  0  0
  3 86  1  0  0  0
  3 87  1  0  0  0
  4  5  1  0  0  0
  4 88  1  0  0  0
  4 89  1  0  0  0
  5  6  1  0  0  0
  5 26  1  0  0  0
  5 90  1  0  0  0
  6 25  1  0  0  0
  6 91  1  0  0  0
  6 92  1  0  0  0
  7  8  2  0  0  0
  7 26  1  0  0  0
  7 29  1  0  0  0
  8  9  1  0  0  0
  8 22  1  0  0  0
  9 10  1  0  0  0
  9 27  2  0  0  0
 10 11  2  0  0  0
 10 15  1  0  0  0
 11 12  1  0  0  0
 11 93  1  0  0  0
 12 13  2  0  0  0
 12 94  1  0  0  0
 13 14  1  0  0  0
 13 31  1  0  0  0
 14 15  2  0  0  0
 14 95  1  0  0  0
 15 96  1  0  0  0
 16 17  2  0  0  0
 16 21  1  0  0  0
 16 31  1  0  0  0
 17 18  1  0  0  0
 17 97  1  0  0  0
 18 19  2  0  0  0
 18 98  1  0  0  0
 19 20  1  0  0  0
 19 24  1  0  0  0
 20 21  2  0  0  0
 20 99  1  0  0  0
 21 23  1  0  0  0
 22 28  1  0  0  0
 22 32  2  0  0  0
 26 27  1  0  0  0
 28100  1  0  0  0
 28101  1  0  0  0
 29102  1  0  0  0
 29103  1  0  0  0
 33 34  1  0  0  0
 33 66  1  0  0  0
 33 70  2  0  0  0
 34 36  1  0  0  0
 34 59  1  0  0  0
 34104  1  0  0  0
 35 44  2  0  0  0
 35 45  1  0  0  0
 35 68  1  0  0  0
 36 56  1  0  0  0
 36105  1  0  0  0
 37 39  1  0  0  0
 37 47  1  0  0  0
 37 66  1  0  0  0
 37106  1  0  0  0
 38 43  2  0  0  0
 38 46  1  0  0  0
 38 47  1  0  0  0
 39 64  1  0  0  0
 39 67  2  0  0  0
 40 52  1  0  0  0
 40 53  2  0  0  0
 40 58  1  0  0  0
 41107  1  0  0  0
 41108  1  0  0  0
 41109  1  0  0  0
 41 48  1  0  0  0
 42 43  1  0  0  0
 42 66  1  0  0  0
 42110  1  0  0  0
 42111  1  0  0  0
 43 44  1  0  0  0
 44112  1  0  0  0
 45 46  2  0  0  0
 45113  1  0  0  0
 46114  1  0  0  0
 47115  1  0  0  0
 47116  1  0  0  0
 48 56  1  0  0  0
 48 65  1  0  0  0
 48117  1  0  0  0
 49 50  1  0  0  0
 49 53  1  0  0  0
 49 64  1  0  0  0
 49118  1  0  0  0
 50 51  1  0  0  0
 50119  1  0  0  0
 50120  1  0  0  0
 51 52  1  0  0  0
 51121  1  0  0  0
 51122  1  0  0  0
 52123  1  0  0  0
 52124  1  0  0  0
 53 54  1  0  0  0
 54 55  2  0  0  0
 54125  1  0  0  0
 55 57  1  0  0  0
 55126  1  0  0  0
 56 69  2  0  0  0
 57 58  2  0  0  0
 57127  1  0  0  0
 58128  1  0  0  0
 59 60  1  0  0  0
 59 61  1  0  0  0
 59 62  1  0  0  0
 60129  1  0  0  0
 60130  1  0  0  0
 60131  1  0  0  0
 61132  1  0  0  0
 61133  1  0  0  0
 61134  1  0  0  0
 62135  1  0  0  0
 62136  1  0  0  0
 62137  1  0  0  0
 63 65  1  0  0  0
 63138  1  0  0  0
 63139  1  0  0  0
 63140  1  0  0  0
 64141  1  0  0  0
 65142  1  0  0  0
 68 80  1  0  0  0
 71 73  2  0  0  0
 71 74  1  0  0  0
 71143  1  0  0  0
 72 75  2  0  0  0
 72 76  1  0  0  0
 72144  1  0  0  0
 73 75  1  0  0  0
 73 77  1  0  0  0
 74 76  2  0  0  0
 74 78  1  0  0  0
 75 81  1  0  0  0
 76 83  1  0  0  0
 77145  1  0  0  0
 77146  1  0  0  0
 77147  1  0  0  0
 78 82  1  0  0  0
 78148  1  0  0  0
 78149  1  0  0  0
 79 80  1  0  0  0
 79 81  1  0  0  0
 79150  1  0  0  0
 79151  1  0  0  0
 80152  1  0  0  0
 80153  1  0  0  0
 81154  1  0  0  0
 82155  1  0  0  0
M  ISO  4   1 100  68 101  80 101  82 100
M  END
> <chiral flag>
0

> <version>
0

> <s_m_source_file>
/data/baiqing/PycharmProjects/Reinvent-master-3.2/result/LINK_invent/BTK/process_docking_weight1_custom_product_contain_oxygen_bond_distance_aromatic_linkinvent_7_9_3/rearranged_h_0033.sdf

> <i_m_source_file_index>
79

> <r_mmod_Potential_Energy-OPLS-2005>
31.7349472045898

> <r_mmod_Stretch_Energy-OPLS-2005>
70.0263824462891

> <r_mmod_Bend_Energy-OPLS-2005>
152.33186340332

> <r_mmod_Torsional_Energy-OPLS-2005>
216.365417480469

> <r_mmod_Improper_Torsional_Energy-OPLS-2005>
8.78408432006836

> <r_mmod_Van_der_Waal_Energy-OPLS-2005>
153.055862426758

> <r_mmod_Electrostatic_Energy-OPLS-2005>
-407.186096191406

> <r_mmod_Solvation_Energy-OPLS-2005>
-211.200149536133

> <b_mmod_Minimization_Converged-OPLS-2005>
0

> <r_mmod_RMS_Derivative-OPLS-2005>
1.34405016899109

$$$$
79
                    3D
 Structure written by MMmdl.
156164  0  0  1  0            999 V2000
  -30.7144  -14.4953   20.5408 C   0  0  0  0  0  0
  -30.4144  -12.3147   19.4325 C   0  0  0  0  0  0
  -29.4866  -12.4959   18.2129 C   0  0  0  0  0  0
  -28.0119  -12.3478   18.6319 C   0  0  0  0  0  0
  -27.6557  -13.2017   19.8773 C   0  0  2  0  0  0
  -28.7040  -13.0309   21.0007 C   0  0  0  0  0  0
  -25.2587  -13.8152   20.5722 C   0  0  0  0  0  0
  -24.1842  -13.0426   20.9218 C   0  0  0  0  0  0
  -24.6384  -11.6891   20.8763 C   0  0  0  0  0  0
  -23.9050  -10.4274   21.0406 C   0  0  0  0  0  0
  -24.3599   -9.4197   21.9186 C   0  0  0  0  0  0
  -23.6287   -8.2228   22.0762 C   0  0  0  0  0  0
  -22.4271   -8.0265   21.3546 C   0  0  0  0  0  0
  -21.9894   -9.0237   20.4653 C   0  0  0  0  0  0
  -22.7218  -10.2123   20.3060 C   0  0  0  0  0  0
  -21.6854   -6.0721   22.5274 C   0  0  0  0  0  0
  -21.4010   -6.5634   23.8203 C   0  0  0  0  0  0
  -21.3673   -5.6802   24.9176 C   0  0  0  0  0  0
  -21.6045   -4.3062   24.7237 C   0  0  0  0  0  0
  -21.8821   -3.8145   23.4363 C   0  0  0  0  0  0
  -21.9192   -4.6947   22.3410 C   0  0  0  0  0  0
  -22.7864  -13.5216   21.1867 C   0  0  0  0  0  0
  -22.1656   -4.2134   21.0988 F   0  0  0  0  0  0
  -21.5633   -3.4546   25.7752 F   0  0  0  0  0  0
  -30.0300  -13.3236   20.4338 N   0  0  0  0  0  0
  -26.3003  -12.9301   20.3426 N   0  0  0  0  0  0
  -25.9311  -11.6465   20.5828 N   0  0  0  0  0  0
  -22.0507  -12.8191   22.0416 N   0  0  0  0  0  0
  -25.4307  -15.1868   20.4092 N   0  0  0  0  0  0
  -31.8619  -14.6286   20.1082 O   0  0  0  0  0  0
  -21.6647   -6.8853   21.4231 O   0  0  0  0  0  0
  -22.3542  -14.5509   20.6722 O   0  0  0  0  0  0
  -24.6165  -31.8678   23.2128 C   0  0  0  0  0  0
  -25.9046  -32.4823   23.8418 C   0  0  1  0  0  0
  -27.2212  -27.4092   20.0932 C   0  0  0  0  0  0
  -25.5907  -33.8622   24.2348 N   0  0  0  0  0  0
  -23.4053  -30.4953   21.5543 C   0  0  2  0  0  0
  -24.8479  -28.9671   20.1107 C   0  0  0  0  0  0
  -22.7434  -29.4655   22.4981 C   0  0  0  0  0  0
  -18.0286  -28.1368   22.8511 C   0  0  0  0  0  0
  -24.1490  -36.7321   23.2637 C   0  0  0  0  0  0
  -25.9370  -30.8256   21.3723 C   0  0  0  0  0  0
  -26.0102  -29.4600   20.7155 C   0  0  0  0  0  0
  -27.1976  -28.6874   20.7069 C   0  0  0  0  0  0
  -26.0412  -26.9562   19.4532 C   0  0  0  0  0  0
  -24.8601  -27.7168   19.4760 C   0  0  0  0  0  0
  -23.6147  -29.8394   20.1643 C   0  0  0  0  0  0
  -25.4112  -36.3121   24.0340 C   0  0  1  0  0  0
  -20.5894  -28.3637   23.1320 C   0  0  2  0  0  0
  -20.6794  -26.9398   22.5330 C   0  0  0  0  0  0
  -19.5717  -26.6397   21.5183 C   0  0  0  0  0  0
  -18.1926  -26.7917   22.1648 C   0  0  0  0  0  0
  -19.1545  -28.8800   23.2957 C   0  0  0  0  0  0
  -18.9475  -30.1366   23.9049 C   0  0  0  0  0  0
  -17.6474  -30.6502   24.0742 C   0  0  0  0  0  0
  -25.9037  -34.9477   23.5141 C   0  0  0  0  0  0
  -16.5364  -29.9072   23.6388 C   0  0  0  0  0  0
  -16.7277  -28.6530   23.0330 C   0  0  0  0  0  0
  -26.4465  -31.6602   25.0744 C   0  0  0  0  0  0
  -25.3736  -31.3686   26.1494 C   0  0  0  0  0  0
  -27.0285  -30.3044   24.6119 C   0  0  0  0  0  0
  -27.6054  -32.4302   25.7498 C   0  0  0  0  0  0
  -27.5583  -37.1824   24.8463 C   0  0  0  0  0  0
  -21.4162  -29.3038   22.3740 N   0  0  0  0  0  0
  -26.4298  -37.3804   23.9402 N   0  0  0  0  0  0
  -24.6722  -31.0754   22.1053 N   0  0  0  0  0  0
  -23.4218  -28.8178   23.2998 O   0  0  0  0  0  0
  -28.3770  -26.6429   20.1504 O   0  0  0  0  0  0
  -26.5593  -34.8914   22.4698 O   0  0  0  0  0  0
  -23.5348  -32.1445   23.7507 O   0  0  0  0  0  0
  -27.9372  -20.2090   19.4882 C   0  0  0  0  0  0
  -27.8697  -18.9409   18.8820 C   0  0  0  0  0  0
  -29.6661  -19.3773   20.9831 C   0  0  0  0  0  0
  -28.8663  -20.4588   20.5188 C   0  0  0  0  0  0
  -29.5816  -18.0743   20.4098 C   0  0  0  0  0  0
  -28.7064  -17.8910   19.3044 C   0  0  0  0  0  0
  -30.5131  -16.9645   20.9517 C   0  0  0  0  0  0
  -28.9519  -21.8686   21.1353 C   0  0  0  0  0  0
  -29.2770  -24.3472   20.6413 C   0  0  0  0  0  0
  -28.2812  -25.2304   19.8455 C   0  0  0  0  0  0
  -30.0234  -15.5656   20.9876 N   0  0  0  0  0  0
  -29.3099  -22.9305   20.1530 N   0  3  0  0  0  0
  -28.6547  -16.4318   18.3823 Cl  0  0  0  0  0  0
  -31.4581  -12.3992   19.1273 H   0  0  0  0  0  0
  -30.3094  -11.3120   19.8505 H   0  0  0  0  0  0
  -29.7285  -11.7630   17.4428 H   0  0  0  0  0  0
  -29.6483  -13.4787   17.7666 H   0  0  0  0  0  0
  -27.8396  -11.2929   18.8489 H   0  0  0  0  0  0
  -27.3510  -12.5976   17.8016 H   0  0  0  0  0  0
  -27.6793  -14.2394   19.5599 H   0  0  0  0  0  0
  -28.6869  -12.0109   21.3889 H   0  0  0  0  0  0
  -28.4725  -13.6756   21.8494 H   0  0  0  0  0  0
  -25.2730   -9.5694   22.4773 H   0  0  0  0  0  0
  -24.0010   -7.4625   22.7484 H   0  0  0  0  0  0
  -21.0825   -8.8747   19.8958 H   0  0  0  0  0  0
  -22.3655  -10.9665   19.6188 H   0  0  0  0  0  0
  -21.1985   -7.6140   23.9689 H   0  0  0  0  0  0
  -21.1499   -6.0546   25.9078 H   0  0  0  0  0  0
  -22.0586   -2.7605   23.2879 H   0  0  0  0  0  0
  -22.4133  -11.9864   22.4820 H   0  0  0  0  0  0
  -21.1124  -13.1239   22.2603 H   0  0  0  0  0  0
  -24.6671  -15.8437   20.5226 H   0  0  0  0  0  0
  -26.2734  -15.6200   20.0542 H   0  0  0  0  0  0
  -26.7128  -32.5523   23.1187 H   0  0  0  0  0  0
  -25.0059  -33.9799   25.0497 H   0  0  0  0  0  0
  -22.6968  -31.3164   21.4219 H   0  0  0  0  0  0
  -23.3749  -35.9659   23.3314 H   0  0  0  0  0  0
  -24.3590  -36.8914   22.2050 H   0  0  0  0  0  0
  -23.7245  -37.6530   23.6637 H   0  0  0  0  0  0
  -26.0534  -31.5951   20.6081 H   0  0  0  0  0  0
  -26.8238  -30.8752   21.9930 H   0  0  0  0  0  0
  -28.0904  -29.0611   21.1896 H   0  0  0  0  0  0
  -25.9986  -26.0210   18.9149 H   0  0  0  0  0  0
  -23.9700  -27.3435   18.9884 H   0  0  0  0  0  0
  -23.7329  -30.6225   19.4146 H   0  0  0  0  0  0
  -22.7352  -29.2708   19.8552 H   0  0  0  0  0  0
  -25.1295  -36.2000   25.0836 H   0  0  0  0  0  0
  -21.0061  -28.3139   24.1414 H   0  0  0  0  0  0
  -20.5773  -26.2185   23.3459 H   0  0  0  0  0  0
  -21.6637  -26.7504   22.1023 H   0  0  0  0  0  0
  -19.6848  -25.6317   21.1179 H   0  0  0  0  0  0
  -19.6620  -27.3233   20.6732 H   0  0  0  0  0  0
  -17.4164  -26.6634   21.4093 H   0  0  0  0  0  0
  -18.0367  -26.0051   22.9057 H   0  0  0  0  0  0
  -19.7955  -30.7112   24.2503 H   0  0  0  0  0  0
  -17.5022  -31.6107   24.5515 H   0  0  0  0  0  0
  -15.5366  -30.2990   23.7730 H   0  0  0  0  0  0
  -15.8669  -28.0905   22.6960 H   0  0  0  0  0  0
  -24.5936  -30.7000   25.7832 H   0  0  0  0  0  0
  -24.8890  -32.2817   26.4954 H   0  0  0  0  0  0
  -25.8102  -30.8860   27.0251 H   0  0  0  0  0  0
  -26.2822  -29.6824   24.1157 H   0  0  0  0  0  0
  -27.4036  -29.7259   25.4577 H   0  0  0  0  0  0
  -27.8677  -30.4364   23.9285 H   0  0  0  0  0  0
  -27.2702  -33.3604   26.2099 H   0  0  0  0  0  0
  -28.3845  -32.6848   25.0301 H   0  0  0  0  0  0
  -28.0737  -31.8399   26.5387 H   0  0  0  0  0  0
  -28.2617  -38.0109   24.7506 H   0  0  0  0  0  0
  -28.1066  -36.2639   24.6304 H   0  0  0  0  0  0
  -27.2294  -37.1496   25.8865 H   0  0  0  0  0  0
  -20.9323  -29.8823   21.7009 H   0  0  0  0  0  0
  -26.0191  -38.2884   24.1397 H   0  0  0  0  0  0
  -27.2792  -20.9921   19.1383 H   0  0  0  0  0  0
  -27.1799  -18.7746   18.0657 H   0  0  0  0  0  0
  -30.3655  -19.5492   21.7907 H   0  0  0  0  0  0
  -30.8088  -17.2206   21.9701 H   0  0  0  0  0  0
  -31.4261  -17.0359   20.3595 H   0  0  0  0  0  0
  -29.6803  -21.8692   21.9474 H   0  0  0  0  0  0
  -27.9834  -22.1037   21.5794 H   0  0  0  0  0  0
  -29.0289  -24.3833   21.7034 H   0  0  0  0  0  0
  -30.2797  -24.7652   20.5503 H   0  0  0  0  0  0
  -28.4458  -25.1141   18.7736 H   0  0  0  0  0  0
  -27.2927  -24.8297   20.0698 H   0  0  0  0  0  0
  -29.0839  -15.4079   21.3151 H   0  0  0  0  0  0
  -30.2407  -22.7323   19.8214 H   0  0  0  0  0  0
  -28.6967  -22.8448   19.3595 H   0  0  0  0  0  0
  1 25  1  0  0  0
  1 30  2  0  0  0
  1 81  1  0  0  0
  2  3  1  0  0  0
  2 25  1  0  0  0
  2 84  1  0  0  0
  2 85  1  0  0  0
  3  4  1  0  0  0
  3 86  1  0  0  0
  3 87  1  0  0  0
  4  5  1  0  0  0
  4 88  1  0  0  0
  4 89  1  0  0  0
  5  6  1  0  0  0
  5 26  1  0  0  0
  5 90  1  0  0  0
  6 25  1  0  0  0
  6 91  1  0  0  0
  6 92  1  0  0  0
  7  8  2  0  0  0
  7 26  1  0  0  0
  7 29  1  0  0  0
  8  9  1  0  0  0
  8 22  1  0  0  0
  9 10  1  0  0  0
  9 27  2  0  0  0
 10 11  2  0  0  0
 10 15  1  0  0  0
 11 12  1  0  0  0
 11 93  1  0  0  0
 12 13  2  0  0  0
 12 94  1  0  0  0
 13 14  1  0  0  0
 13 31  1  0  0  0
 14 15  2  0  0  0
 14 95  1  0  0  0
 15 96  1  0  0  0
 16 17  2  0  0  0
 16 21  1  0  0  0
 16 31  1  0  0  0
 17 18  1  0  0  0
 17 97  1  0  0  0
 18 19  2  0  0  0
 18 98  1  0  0  0
 19 20  1  0  0  0
 19 24  1  0  0  0
 20 21  2  0  0  0
 20 99  1  0  0  0
 21 23  1  0  0  0
 22 28  1  0  0  0
 22 32  2  0  0  0
 26 27  1  0  0  0
 28100  1  0  0  0
 28101  1  0  0  0
 29102  1  0  0  0
 29103  1  0  0  0
 33 34  1  0  0  0
 33 66  1  0  0  0
 33 70  2  0  0  0
 34 36  1  0  0  0
 34 59  1  0  0  0
 34104  1  0  0  0
 35 44  2  0  0  0
 35 45  1  0  0  0
 35 68  1  0  0  0
 36 56  1  0  0  0
 36105  1  0  0  0
 37 39  1  0  0  0
 37 47  1  0  0  0
 37 66  1  0  0  0
 37106  1  0  0  0
 38 43  2  0  0  0
 38 46  1  0  0  0
 38 47  1  0  0  0
 39 64  1  0  0  0
 39 67  2  0  0  0
 40 52  1  0  0  0
 40 53  2  0  0  0
 40 58  1  0  0  0
 41107  1  0  0  0
 41108  1  0  0  0
 41109  1  0  0  0
 41 48  1  0  0  0
 42 43  1  0  0  0
 42 66  1  0  0  0
 42110  1  0  0  0
 42111  1  0  0  0
 43 44  1  0  0  0
 44112  1  0  0  0
 45 46  2  0  0  0
 45113  1  0  0  0
 46114  1  0  0  0
 47115  1  0  0  0
 47116  1  0  0  0
 48 56  1  0  0  0
 48 65  1  0  0  0
 48117  1  0  0  0
 49 50  1  0  0  0
 49 53  1  0  0  0
 49 64  1  0  0  0
 49118  1  0  0  0
 50 51  1  0  0  0
 50119  1  0  0  0
 50120  1  0  0  0
 51 52  1  0  0  0
 51121  1  0  0  0
 51122  1  0  0  0
 52123  1  0  0  0
 52124  1  0  0  0
 53 54  1  0  0  0
 54 55  2  0  0  0
 54125  1  0  0  0
 55 57  1  0  0  0
 55126  1  0  0  0
 56 69  2  0  0  0
 57 58  2  0  0  0
 57127  1  0  0  0
 58128  1  0  0  0
 59 60  1  0  0  0
 59 61  1  0  0  0
 59 62  1  0  0  0
 60129  1  0  0  0
 60130  1  0  0  0
 60131  1  0  0  0
 61132  1  0  0  0
 61133  1  0  0  0
 61134  1  0  0  0
 62135  1  0  0  0
 62136  1  0  0  0
 62137  1  0  0  0
 63 65  1  0  0  0
 63138  1  0  0  0
 63139  1  0  0  0
 63140  1  0  0  0
 64141  1  0  0  0
 65142  1  0  0  0
 68 80  1  0  0  0
 71 72  2  0  0  0
 71 74  1  0  0  0
 71143  1  0  0  0
 72 76  1  0  0  0
 72144  1  0  0  0
 73 74  2  0  0  0
 73 75  1  0  0  0
 73145  1  0  0  0
 74 78  1  0  0  0
 75 76  2  0  0  0
 75 77  1  0  0  0
 76 83  1  0  0  0
 77 81  1  0  0  0
 77146  1  0  0  0
 77147  1  0  0  0
 78 82  1  0  0  0
 78148  1  0  0  0
 78149  1  0  0  0
 79 80  1  0  0  0
 79 82  1  0  0  0
 79150  1  0  0  0
 79151  1  0  0  0
 80152  1  0  0  0
 80153  1  0  0  0
 81154  1  0  0  0
 82155  1  0  0  0
 82156  1  0  0  0
M  CHG  1  82   1
M  ISO  4   1 100  68 101  80 101  81 100
M  END
> <chiral flag>
0

> <version>
0

> <s_m_source_file>
/data/baiqing/PycharmProjects/Reinvent-master-3.2/result/LINK_invent/BTK/process_docking_weight1_custom_product_contain_oxygen_bond_distance_aromatic_linkinvent_7_9_3/rearranged_h_0033.sdf

> <i_m_source_file_index>
80

> <r_mmod_Potential_Energy-OPLS-2005>
-238.615158081055

> <r_mmod_Stretch_Energy-OPLS-2005>
43.5742454528809

> <r_mmod_Bend_Energy-OPLS-2005>
102.861663818359

> <r_mmod_Torsional_Energy-OPLS-2005>
198.792861938477

> <r_mmod_Improper_Torsional_Energy-OPLS-2005>
4.0440239906311

> <r_mmod_Van_der_Waal_Energy-OPLS-2005>
151.634979248047

> <r_mmod_Electrostatic_Energy-OPLS-2005>
-287.303833007812

> <r_mmod_Solvation_Energy-OPLS-2005>
-471.904663085938

> <b_mmod_Minimization_Converged-OPLS-2005>
0

> <r_mmod_RMS_Derivative-OPLS-2005>
2.37212061882019

$$$$
80
                    3D
 Structure written by MMmdl.
164173  0  0  1  0            999 V2000
  -30.6086  -14.8274   20.4545 C   0  0  0  0  0  0
  -30.4181  -12.5080   19.4864 C   0  0  0  0  0  0
  -29.5014  -12.5096   18.2449 C   0  0  0  0  0  0
  -28.0375  -12.2924   18.6671 C   0  0  0  0  0  0
  -27.6273  -13.2061   19.8497 C   0  0  2  0  0  0
  -28.6734  -13.2218   20.9838 C   0  0  0  0  0  0
  -25.2489  -13.8121   20.5770 C   0  0  0  0  0  0
  -24.1751  -13.0399   20.9249 C   0  0  0  0  0  0
  -24.6316  -11.6865   20.8785 C   0  0  0  0  0  0
  -23.8993  -10.4260   21.0427 C   0  0  0  0  0  0
  -24.3557   -9.4169   21.9194 C   0  0  0  0  0  0
  -23.6243   -8.2201   22.0747 C   0  0  0  0  0  0
  -22.4227   -8.0256   21.3539 C   0  0  0  0  0  0
  -21.9863   -9.0229   20.4643 C   0  0  0  0  0  0
  -22.7182  -10.2106   20.3058 C   0  0  0  0  0  0
  -21.6831   -6.0715   22.5273 C   0  0  0  0  0  0
  -21.4011   -6.5622   23.8214 C   0  0  0  0  0  0
  -21.3666   -5.6778   24.9179 C   0  0  0  0  0  0
  -21.6049   -4.3042   24.7238 C   0  0  0  0  0  0
  -21.8812   -3.8128   23.4354 C   0  0  0  0  0  0
  -21.9180   -4.6945   22.3411 C   0  0  0  0  0  0
  -22.7790  -13.5209   21.1921 C   0  0  0  0  0  0
  -22.1647   -4.2122   21.0991 F   0  0  0  0  0  0
  -21.5626   -3.4536   25.7755 F   0  0  0  0  0  0
  -29.9646  -13.5989   20.3915 N   0  0  0  0  0  0
  -26.2850  -12.9250   20.3331 N   0  0  0  0  0  0
  -25.9236  -11.6426   20.5814 N   0  0  0  0  0  0
  -22.0410  -12.8203   22.0462 N   0  0  0  0  0  0
  -25.4231  -15.1854   20.4258 N   0  0  0  0  0  0
  -31.7675  -14.8986   20.0298 O   0  0  0  0  0  0
  -21.6590   -6.8860   21.4237 O   0  0  0  0  0  0
  -22.3501  -14.5533   20.6780 O   0  0  0  0  0  0
  -24.6293  -31.8507   23.1930 C   0  0  0  0  0  0
  -25.9111  -32.4737   23.8295 C   0  0  1  0  0  0
  -27.2354  -27.2467   20.1445 C   0  0  0  0  0  0
  -25.5900  -33.8543   24.2224 N   0  0  0  0  0  0
  -23.4292  -30.4667   21.5339 C   0  0  2  0  0  0
  -24.8825  -28.9023   20.1020 C   0  0  0  0  0  0
  -22.7500  -29.4558   22.4893 C   0  0  0  0  0  0
  -18.0289  -28.1383   22.8488 C   0  0  0  0  0  0
  -24.1491  -36.7272   23.2645 C   0  0  0  0  0  0
  -25.9705  -30.7613   21.3717 C   0  0  0  0  0  0
  -26.0446  -29.3798   20.7168 C   0  0  0  0  0  0
  -27.2164  -28.5616   20.7262 C   0  0  0  0  0  0
  -26.0562  -26.8285   19.4961 C   0  0  0  0  0  0
  -24.8946  -27.6384   19.4789 C   0  0  0  0  0  0
  -23.6491  -29.7881   20.1519 C   0  0  0  0  0  0
  -25.4120  -36.3059   24.0329 C   0  0  1  0  0  0
  -20.5888  -28.3685   23.1280 C   0  0  2  0  0  0
  -20.6768  -26.9404   22.5423 C   0  0  0  0  0  0
  -19.5749  -26.6377   21.5222 C   0  0  0  0  0  0
  -18.1927  -26.7925   22.1623 C   0  0  0  0  0  0
  -19.1539  -28.8853   23.2878 C   0  0  0  0  0  0
  -18.9460  -30.1457   23.8898 C   0  0  0  0  0  0
  -17.6457  -30.6588   24.0559 C   0  0  0  0  0  0
  -25.9054  -34.9433   23.5085 C   0  0  0  0  0  0
  -16.5350  -29.9086   23.6328 C   0  0  0  0  0  0
  -16.7274  -28.6499   23.0358 C   0  0  0  0  0  0
  -26.4490  -31.6574   25.0693 C   0  0  0  0  0  0
  -25.3708  -31.3729   26.1413 C   0  0  0  0  0  0
  -27.0343  -30.2991   24.6186 C   0  0  0  0  0  0
  -27.6043  -32.4326   25.7463 C   0  0  0  0  0  0
  -27.5582  -37.1789   24.8463 C   0  0  0  0  0  0
  -21.4201  -29.3022   22.3657 N   0  0  0  0  0  0
  -26.4289  -37.3763   23.9413 N   0  0  0  0  0  0
  -24.6949  -31.0463   22.0897 N   0  0  0  0  0  0
  -23.4198  -28.8120   23.3010 O   0  0  0  0  0  0
  -28.3633  -26.4106   20.3008 O   0  0  0  0  0  0
  -26.5643  -34.8913   22.4667 O   0  0  0  0  0  0
  -23.5440  -32.1334   23.7223 O   0  0  0  0  0  0
  -28.4512  -17.0181   19.3280 C   0  0  0  0  0  0
  -27.6844  -18.0698   18.7987 C   0  0  0  0  0  0
  -29.7779  -18.6537   20.5420 C   0  0  0  0  0  0
  -29.0366  -19.7857   19.9315 C   0  0  0  0  0  0
  -29.4688  -17.2259   20.2777 C   0  0  0  0  0  0
  -27.9487  -19.4162   19.1034 C   0  0  0  0  0  0
  -30.0743  -23.4265   21.1303 C   0  0  0  0  0  0
  -30.8705  -23.1281   22.1706 C   0  0  0  0  0  0
  -30.0678  -24.7184   20.3095 C   0  0  0  0  0  0
  -27.9525  -23.6040   20.1583 C   0  0  0  0  0  0
  -28.6446  -25.0118   19.7922 C   0  0  1  0  0  0
  -30.9675  -18.9633   21.4405 C   0  0  0  0  0  0
  -30.1920  -16.0986   22.4228 C   0  0  0  0  0  0
  -29.4645  -21.3522   19.8367 C   0  0  0  0  0  0
  -29.9890  -15.9825   20.9764 N   0  0  0  0  0  0
  -28.9514  -22.5554   20.6828 N   0  3  2  0  0  0
  -26.9502  -20.6068   18.3438 Cl  0  0  0  0  0  0
  -31.4590  -12.6227   19.1813 H   0  0  0  0  0  0
  -30.3672  -11.5441   19.9956 H   0  0  0  0  0  0
  -29.8083  -11.7303   17.5458 H   0  0  0  0  0  0
  -29.5965  -13.4581   17.7141 H   0  0  0  0  0  0
  -27.9330  -11.2468   18.9602 H   0  0  0  0  0  0
  -27.3678  -12.4402   17.8189 H   0  0  0  0  0  0
  -27.5843  -14.1970   19.4281 H   0  0  0  0  0  0
  -28.7393  -12.2504   21.4760 H   0  0  0  0  0  0
  -28.3721  -13.9318   21.7531 H   0  0  0  0  0  0
  -25.2710   -9.5631   22.4756 H   0  0  0  0  0  0
  -23.9950   -7.4579   22.7454 H   0  0  0  0  0  0
  -21.0800   -8.8744   19.8948 H   0  0  0  0  0  0
  -22.3655  -10.9639   19.6150 H   0  0  0  0  0  0
  -21.1987   -7.6126   23.9720 H   0  0  0  0  0  0
  -21.1512   -6.0505   25.9090 H   0  0  0  0  0  0
  -22.0583   -2.7586   23.2858 H   0  0  0  0  0  0
  -22.4013  -11.9858   22.4853 H   0  0  0  0  0  0
  -21.1035  -13.1243   22.2683 H   0  0  0  0  0  0
  -24.6649  -15.8423   20.5760 H   0  0  0  0  0  0
  -26.2932  -15.6363   20.1772 H   0  0  0  0  0  0
  -26.7171  -32.5394   23.1032 H   0  0  0  0  0  0
  -25.0031  -33.9669   25.0359 H   0  0  0  0  0  0
  -22.7255  -31.2873   21.3816 H   0  0  0  0  0  0
  -23.3762  -35.9592   23.3289 H   0  0  0  0  0  0
  -24.3581  -36.8914   22.2061 H   0  0  0  0  0  0
  -23.7224  -37.6462   23.6681 H   0  0  0  0  0  0
  -26.1067  -31.5218   20.6017 H   0  0  0  0  0  0
  -26.8477  -30.8156   22.0047 H   0  0  0  0  0  0
  -28.1040  -28.9174   21.2302 H   0  0  0  0  0  0
  -26.0125  -25.8507   19.0383 H   0  0  0  0  0  0
  -24.0016  -27.2688   18.9938 H   0  0  0  0  0  0
  -23.7669  -30.5590   19.3891 H   0  0  0  0  0  0
  -22.7697  -29.2143   19.8538 H   0  0  0  0  0  0
  -25.1302  -36.1906   25.0821 H   0  0  0  0  0  0
  -20.9986  -28.3271   24.1399 H   0  0  0  0  0  0
  -20.5655  -26.2301   23.3629 H   0  0  0  0  0  0
  -21.6638  -26.7417   22.1225 H   0  0  0  0  0  0
  -19.6906  -25.6286   21.1252 H   0  0  0  0  0  0
  -19.6691  -27.3182   20.6749 H   0  0  0  0  0  0
  -17.4203  -26.6685   21.4021 H   0  0  0  0  0  0
  -18.0313  -26.0069   22.9017 H   0  0  0  0  0  0
  -19.7937  -30.7267   24.2270 H   0  0  0  0  0  0
  -17.5014  -31.6268   24.5158 H   0  0  0  0  0  0
  -15.5349  -30.2984   23.7652 H   0  0  0  0  0  0
  -15.8674  -28.0812   22.7078 H   0  0  0  0  0  0
  -24.5889  -30.7075   25.7736 H   0  0  0  0  0  0
  -24.8891  -32.2898   26.4822 H   0  0  0  0  0  0
  -25.8018  -30.8916   27.0199 H   0  0  0  0  0  0
  -26.2922  -29.6731   24.1217 H   0  0  0  0  0  0
  -27.4029  -29.7272   25.4712 H   0  0  0  0  0  0
  -27.8798  -30.4270   23.9421 H   0  0  0  0  0  0
  -27.2654  -33.3643   26.2011 H   0  0  0  0  0  0
  -28.3866  -32.6861   25.0293 H   0  0  0  0  0  0
  -28.0698  -31.8468   26.5403 H   0  0  0  0  0  0
  -28.2591  -38.0098   24.7529 H   0  0  0  0  0  0
  -28.1088  -36.2629   24.6266 H   0  0  0  0  0  0
  -27.2302  -37.1410   25.8866 H   0  0  0  0  0  0
  -20.9391  -29.8738   21.6852 H   0  0  0  0  0  0
  -26.0168  -38.2836   24.1422 H   0  0  0  0  0  0
  -28.1976  -16.0294   19.0087 H   0  0  0  0  0  0
  -26.8754  -17.8377   18.1209 H   0  0  0  0  0  0
  -31.6412  -23.8146   22.4908 H   0  0  0  0  0  0
  -30.7649  -22.2075   22.7254 H   0  0  0  0  0  0
  -30.7602  -24.6079   19.4739 H   0  0  0  0  0  0
  -30.4447  -25.5370   20.9239 H   0  0  0  0  0  0
  -27.3834  -23.2147   19.3165 H   0  0  0  0  0  0
  -27.2288  -23.7826   20.9546 H   0  0  0  0  0  0
  -28.6805  -25.0876   18.7043 H   0  0  0  0  0  0
  -31.4233  -19.9284   21.2401 H   0  0  0  0  0  0
  -31.7547  -18.2217   21.2987 H   0  0  0  0  0  0
  -30.6688  -18.9550   22.4883 H   0  0  0  0  0  0
  -31.2389  -16.2894   22.6613 H   0  0  0  0  0  0
  -29.9009  -15.1833   22.9399 H   0  0  0  0  0  0
  -29.5921  -16.9017   22.8481 H   0  0  0  0  0  0
  -29.3546  -21.6597   18.7974 H   0  0  0  0  0  0
  -30.5482  -21.3502   19.9288 H   0  0  0  0  0  0
  -28.5260  -22.1396   21.4982 H   0  0  0  0  0  0
  1 25  1  0  0  0
  1 30  2  0  0  0
  1 85  1  0  0  0
  2  3  1  0  0  0
  2 25  1  0  0  0
  2 88  1  0  0  0
  2 89  1  0  0  0
  3  4  1  0  0  0
  3 90  1  0  0  0
  3 91  1  0  0  0
  4  5  1  0  0  0
  4 92  1  0  0  0
  4 93  1  0  0  0
  5  6  1  0  0  0
  5 26  1  0  0  0
  5 94  1  0  0  0
  6 25  1  0  0  0
  6 95  1  0  0  0
  6 96  1  0  0  0
  7  8  2  0  0  0
  7 26  1  0  0  0
  7 29  1  0  0  0
  8  9  1  0  0  0
  8 22  1  0  0  0
  9 10  1  0  0  0
  9 27  2  0  0  0
 10 11  2  0  0  0
 10 15  1  0  0  0
 11 12  1  0  0  0
 11 97  1  0  0  0
 12 13  2  0  0  0
 12 98  1  0  0  0
 13 14  1  0  0  0
 13 31  1  0  0  0
 14 15  2  0  0  0
 14 99  1  0  0  0
 15100  1  0  0  0
 16 17  2  0  0  0
 16 21  1  0  0  0
 16 31  1  0  0  0
 17 18  1  0  0  0
 17101  1  0  0  0
 18 19  2  0  0  0
 18102  1  0  0  0
 19 20  1  0  0  0
 19 24  1  0  0  0
 20 21  2  0  0  0
 20103  1  0  0  0
 21 23  1  0  0  0
 22 28  1  0  0  0
 22 32  2  0  0  0
 26 27  1  0  0  0
 28104  1  0  0  0
 28105  1  0  0  0
 29106  1  0  0  0
 29107  1  0  0  0
 33 34  1  0  0  0
 33 66  1  0  0  0
 33 70  2  0  0  0
 34 36  1  0  0  0
 34 59  1  0  0  0
 34108  1  0  0  0
 35 44  2  0  0  0
 35 45  1  0  0  0
 35 68  1  0  0  0
 36 56  1  0  0  0
 36109  1  0  0  0
 37 39  1  0  0  0
 37 47  1  0  0  0
 37 66  1  0  0  0
 37110  1  0  0  0
 38 43  2  0  0  0
 38 46  1  0  0  0
 38 47  1  0  0  0
 39 64  1  0  0  0
 39 67  2  0  0  0
 40 52  1  0  0  0
 40 53  2  0  0  0
 40 58  1  0  0  0
 41111  1  0  0  0
 41112  1  0  0  0
 41113  1  0  0  0
 41 48  1  0  0  0
 42 43  1  0  0  0
 42 66  1  0  0  0
 42114  1  0  0  0
 42115  1  0  0  0
 43 44  1  0  0  0
 44116  1  0  0  0
 45 46  2  0  0  0
 45117  1  0  0  0
 46118  1  0  0  0
 47119  1  0  0  0
 47120  1  0  0  0
 48 56  1  0  0  0
 48 65  1  0  0  0
 48121  1  0  0  0
 49 50  1  0  0  0
 49 53  1  0  0  0
 49 64  1  0  0  0
 49122  1  0  0  0
 50 51  1  0  0  0
 50123  1  0  0  0
 50124  1  0  0  0
 51 52  1  0  0  0
 51125  1  0  0  0
 51126  1  0  0  0
 52127  1  0  0  0
 52128  1  0  0  0
 53 54  1  0  0  0
 54 55  2  0  0  0
 54129  1  0  0  0
 55 57  1  0  0  0
 55130  1  0  0  0
 56 69  2  0  0  0
 57 58  2  0  0  0
 57131  1  0  0  0
 58132  1  0  0  0
 59 60  1  0  0  0
 59 61  1  0  0  0
 59 62  1  0  0  0
 60133  1  0  0  0
 60134  1  0  0  0
 60135  1  0  0  0
 61136  1  0  0  0
 61137  1  0  0  0
 61138  1  0  0  0
 62139  1  0  0  0
 62140  1  0  0  0
 62141  1  0  0  0
 63 65  1  0  0  0
 63142  1  0  0  0
 63143  1  0  0  0
 63144  1  0  0  0
 64145  1  0  0  0
 65146  1  0  0  0
 68 81  1  0  0  0
 71 72  2  0  0  0
 71 75  1  0  0  0
 71147  1  0  0  0
 72 76  1  0  0  0
 72148  1  0  0  0
 73 74  1  0  0  0
 73 75  2  0  0  0
 73 82  1  0  0  0
 74 76  2  0  0  0
 74 84  1  0  0  0
 75 85  1  0  0  0
 76 87  1  0  0  0
 77 78  2  0  0  0
 77 79  1  0  0  0
 77 86  1  0  0  0
 78149  1  0  0  0
 78150  1  0  0  0
 79 81  1  0  0  0
 79151  1  0  0  0
 79152  1  0  0  0
 80 81  1  0  0  0
 80 86  1  0  0  0
 80153  1  0  0  0
 80154  1  0  0  0
 81155  1  0  0  0
 82156  1  0  0  0
 82157  1  0  0  0
 82158  1  0  0  0
 83 85  1  0  0  0
 83159  1  0  0  0
 83160  1  0  0  0
 83161  1  0  0  0
 84162  1  0  0  0
 84163  1  0  0  0
 84 86  1  0  0  0
 86164  1  0  0  0
M  CHG  1  86   1
M  ISO  4   1 100  68 101  81 101  85 100
M  END
> <chiral flag>
0

> <version>
0

> <s_m_source_file>
/data/baiqing/PycharmProjects/Reinvent-master-3.2/result/LINK_invent/BTK/process_docking_weight1_custom_product_contain_oxygen_bond_distance_aromatic_linkinvent_7_9_3/rearranged_h_0033.sdf

> <i_m_source_file_index>
81

> <r_mmod_Potential_Energy-OPLS-2005>
414.934906005859

> <r_mmod_Stretch_Energy-OPLS-2005>
167.159713745117

> <r_mmod_Bend_Energy-OPLS-2005>
300.878509521484

> <r_mmod_Torsional_Energy-OPLS-2005>
345.118804931641

> <r_mmod_Improper_Torsional_Energy-OPLS-2005>
4.80418872833252

> <r_mmod_Van_der_Waal_Energy-OPLS-2005>
128.067733764648

> <r_mmod_Electrostatic_Energy-OPLS-2005>
-229.061721801758

> <r_mmod_Solvation_Energy-OPLS-2005>
-413.714050292969

> <b_mmod_Minimization_Converged-OPLS-2005>
0

> <r_mmod_RMS_Derivative-OPLS-2005>
2.09057450294495

$$$$
81
                    3D
 Structure written by MMmdl.
163172  0  0  1  0            999 V2000
  -30.7260  -14.5435   20.5615 C   0  0  0  0  0  0
  -30.4146  -12.3609   19.4388 C   0  0  0  0  0  0
  -29.4859  -12.4956   18.2154 C   0  0  0  0  0  0
  -28.0156  -12.3140   18.6342 C   0  0  0  0  0  0
  -27.6449  -13.1895   19.8559 C   0  0  2  0  0  0
  -28.6922  -13.0532   20.9872 C   0  0  0  0  0  0
  -25.2494  -13.8049   20.5534 C   0  0  0  0  0  0
  -24.1780  -13.0392   20.9209 C   0  0  0  0  0  0
  -24.6337  -11.6858   20.8817 C   0  0  0  0  0  0
  -23.9010  -10.4264   21.0477 C   0  0  0  0  0  0
  -24.3566   -9.4169   21.9241 C   0  0  0  0  0  0
  -23.6250   -8.2201   22.0765 C   0  0  0  0  0  0
  -22.4234   -8.0258   21.3549 C   0  0  0  0  0  0
  -21.9879   -9.0238   20.4660 C   0  0  0  0  0  0
  -22.7200  -10.2124   20.3103 C   0  0  0  0  0  0
  -21.6820   -6.0723   22.5293 C   0  0  0  0  0  0
  -21.3997   -6.5637   23.8230 C   0  0  0  0  0  0
  -21.3655   -5.6791   24.9193 C   0  0  0  0  0  0
  -21.6039   -4.3053   24.7238 C   0  0  0  0  0  0
  -21.8809   -3.8145   23.4362 C   0  0  0  0  0  0
  -21.9186   -4.6959   22.3420 C   0  0  0  0  0  0
  -22.7826  -13.5251   21.1861 C   0  0  0  0  0  0
  -22.1667   -4.2159   21.0996 F   0  0  0  0  0  0
  -21.5636   -3.4527   25.7744 F   0  0  0  0  0  0
  -30.0116  -13.3831   20.4278 N   0  0  0  0  0  0
  -26.2916  -12.9199   20.3287 N   0  0  0  0  0  0
  -25.9245  -11.6396   20.5833 N   0  0  0  0  0  0
  -22.0439  -12.8301   22.0443 N   0  0  0  0  0  0
  -25.4113  -15.1715   20.3588 N   0  0  0  0  0  0
  -31.8613  -14.6476   20.0985 O   0  0  0  0  0  0
  -21.6601   -6.8855   21.4245 O   0  0  0  0  0  0
  -22.3538  -14.5558   20.6692 O   0  0  0  0  0  0
  -24.6201  -31.8661   23.2047 C   0  0  0  0  0  0
  -25.9074  -32.4809   23.8366 C   0  0  1  0  0  0
  -27.2263  -27.3862   20.1000 C   0  0  0  0  0  0
  -25.5924  -33.8608   24.2299 N   0  0  0  0  0  0
  -23.4095  -30.4861   21.5486 C   0  0  2  0  0  0
  -24.8547  -28.9469   20.1142 C   0  0  0  0  0  0
  -22.7432  -29.4626   22.4971 C   0  0  0  0  0  0
  -18.0273  -28.1347   22.8496 C   0  0  0  0  0  0
  -24.1494  -36.7296   23.2632 C   0  0  0  0  0  0
  -25.9436  -30.8152   21.3643 C   0  0  0  0  0  0
  -26.0206  -29.4477   20.7102 C   0  0  0  0  0  0
  -27.2138  -28.6767   20.6910 C   0  0  0  0  0  0
  -26.0410  -26.9152   19.4958 C   0  0  0  0  0  0
  -24.8616  -27.6838   19.5010 C   0  0  0  0  0  0
  -23.6207  -29.8219   20.1621 C   0  0  0  0  0  0
  -25.4111  -36.3090   24.0327 C   0  0  1  0  0  0
  -20.5864  -28.3660   23.1329 C   0  0  2  0  0  0
  -20.6764  -26.9383   22.5434 C   0  0  0  0  0  0
  -19.5769  -26.6364   21.5220 C   0  0  0  0  0  0
  -18.1934  -26.7901   22.1607 C   0  0  0  0  0  0
  -19.1519  -28.8813   23.2911 C   0  0  0  0  0  0
  -18.9413  -30.1405   23.8932 C   0  0  0  0  0  0
  -17.6415  -30.6561   24.0544 C   0  0  0  0  0  0
  -25.9043  -34.9465   23.5101 C   0  0  0  0  0  0
  -16.5324  -29.9043   23.6306 C   0  0  0  0  0  0
  -16.7255  -28.6453   23.0348 C   0  0  0  0  0  0
  -26.4497  -31.6592   25.0703 C   0  0  0  0  0  0
  -25.3753  -31.3720   26.1441 C   0  0  0  0  0  0
  -27.0329  -30.3030   24.6099 C   0  0  0  0  0  0
  -27.6072  -32.4316   25.7478 C   0  0  0  0  0  0
  -27.5576  -37.1804   24.8468 C   0  0  0  0  0  0
  -21.4147  -29.3038   22.3734 N   0  0  0  0  0  0
  -26.4294  -37.3777   23.9403 N   0  0  0  0  0  0
  -24.6767  -31.0707   22.0966 N   0  0  0  0  0  0
  -23.4184  -28.8138   23.3003 O   0  0  0  0  0  0
  -28.3643  -26.5925   20.1151 O   0  0  0  0  0  0
  -26.5611  -34.8926   22.4660 O   0  0  0  0  0  0
  -23.5384  -32.1426   23.7410 O   0  0  0  0  0  0
  -29.5042  -20.1205   20.5232 C   0  0  0  0  0  0
  -28.4068  -20.7346   21.1746 C   0  0  0  0  0  0
  -27.4995  -19.8720   21.8573 C   0  0  0  0  0  0
  -27.6689  -18.4512   21.8457 C   0  0  0  0  0  0
  -28.7921  -17.8392   21.2023 C   0  0  0  0  0  0
  -29.6953  -18.7134   20.5280 C   0  0  0  0  0  0
  -28.0954  -24.0993   19.4380 C   0  0  0  0  0  0
  -29.4364  -24.4584   20.9379 C   0  0  0  0  0  0
  -28.1630  -25.2039   20.5124 C   0  0  1  0  0  0
  -26.3157  -20.4789   22.6210 C   0  0  0  0  0  0
  -26.6042  -17.5986   22.5465 C   0  0  0  0  0  0
  -28.9196  -16.2760   21.1637 C   0  0  0  0  0  0
  -28.1814  -22.2821   21.2259 C   0  0  0  0  0  0
  -30.2366  -15.6131   21.2392 N   0  0  0  0  0  0
  -28.9165  -23.2221   20.3072 N   0  3  1  0  0  0
  -31.0495  -18.1071   19.6423 Cl  0  0  0  0  0  0
  -31.4558  -12.4559   19.1249 H   0  0  0  0  0  0
  -30.3361  -11.3647   19.8757 H   0  0  0  0  0  0
  -29.7507  -11.7561   17.4598 H   0  0  0  0  0  0
  -29.6187  -13.4739   17.7505 H   0  0  0  0  0  0
  -27.8653  -11.2604   18.8724 H   0  0  0  0  0  0
  -27.3516  -12.5312   17.7960 H   0  0  0  0  0  0
  -27.6511  -14.2057   19.4778 H   0  0  0  0  0  0
  -28.6987  -12.0307   21.3655 H   0  0  0  0  0  0
  -28.4376  -13.6674   21.8487 H   0  0  0  0  0  0
  -25.2691   -9.5631   22.4840 H   0  0  0  0  0  0
  -23.9960   -7.4571   22.7462 H   0  0  0  0  0  0
  -21.0819   -8.8762   19.8944 H   0  0  0  0  0  0
  -22.3677  -10.9681   19.6231 H   0  0  0  0  0  0
  -21.1976   -7.6143   23.9742 H   0  0  0  0  0  0
  -21.1489   -6.0521   25.9104 H   0  0  0  0  0  0
  -22.0582   -2.7602   23.2863 H   0  0  0  0  0  0
  -22.3997  -11.9935   22.4822 H   0  0  0  0  0  0
  -21.1066  -13.1378   22.2626 H   0  0  0  0  0  0
  -24.6288  -15.8113   20.4380 H   0  0  0  0  0  0
  -26.2342  -15.5993   19.9586 H   0  0  0  0  0  0
  -26.7131  -32.5509   23.1116 H   0  0  0  0  0  0
  -25.0142  -33.9771   25.0497 H   0  0  0  0  0  0
  -22.6987  -31.3029   21.4102 H   0  0  0  0  0  0
  -23.3758  -35.9629   23.3321 H   0  0  0  0  0  0
  -24.3583  -36.8891   22.2041 H   0  0  0  0  0  0
  -23.7260  -37.6509   23.6645 H   0  0  0  0  0  0
  -26.0648  -31.5809   20.5963 H   0  0  0  0  0  0
  -26.8276  -30.8651   21.9878 H   0  0  0  0  0  0
  -28.1143  -29.0540   21.1555 H   0  0  0  0  0  0
  -26.0170  -25.9488   19.0156 H   0  0  0  0  0  0
  -23.9644  -27.2950   19.0350 H   0  0  0  0  0  0
  -23.7360  -30.6020   19.4079 H   0  0  0  0  0  0
  -22.7401  -29.2513   19.8603 H   0  0  0  0  0  0
  -25.1293  -36.1942   25.0823 H   0  0  0  0  0  0
  -20.9937  -28.3203   24.1453 H   0  0  0  0  0  0
  -20.5652  -26.2261   23.3624 H   0  0  0  0  0  0
  -21.6636  -26.7395   22.1243 H   0  0  0  0  0  0
  -19.6956  -25.6289   21.1234 H   0  0  0  0  0  0
  -19.6718  -27.3182   20.6773 H   0  0  0  0  0  0
  -17.4213  -26.6668   21.4001 H   0  0  0  0  0  0
  -18.0293  -26.0023   22.8973 H   0  0  0  0  0  0
  -19.7882  -30.7209   24.2343 H   0  0  0  0  0  0
  -17.4953  -31.6271   24.5097 H   0  0  0  0  0  0
  -15.5322  -30.2938   23.7591 H   0  0  0  0  0  0
  -15.8666  -28.0752   22.7049 H   0  0  0  0  0  0
  -24.5915  -30.7082   25.7779 H   0  0  0  0  0  0
  -24.8956  -32.2890   26.4880 H   0  0  0  0  0  0
  -25.8075  -30.8895   27.0215 H   0  0  0  0  0  0
  -26.2876  -29.6790   24.1152 H   0  0  0  0  0  0
  -27.4105  -29.7260   25.4554 H   0  0  0  0  0  0
  -27.8718  -30.4347   23.9254 H   0  0  0  0  0  0
  -27.2686  -33.3603   26.2087 H   0  0  0  0  0  0
  -28.3872  -32.6894   25.0300 H   0  0  0  0  0  0
  -28.0766  -31.8431   26.5373 H   0  0  0  0  0  0
  -28.2603  -38.0092   24.7494 H   0  0  0  0  0  0
  -28.1058  -36.2618   24.6317 H   0  0  0  0  0  0
  -27.2296  -37.1490   25.8875 H   0  0  0  0  0  0
  -20.9307  -29.8820   21.7009 H   0  0  0  0  0  0
  -26.0182  -38.2855   24.1404 H   0  0  0  0  0  0
  -30.2294  -20.7234   19.9966 H   0  0  0  0  0  0
  -28.6231  -24.3689   18.5225 H   0  0  0  0  0  0
  -27.0964  -23.7257   19.2085 H   0  0  0  0  0  0
  -29.5989  -24.4134   22.0143 H   0  0  0  0  0  0
  -30.3317  -24.8262   20.4317 H   0  0  0  0  0  0
  -27.3777  -25.0928   21.2640 H   0  0  0  0  0  0
  -26.5120  -21.4761   23.0089 H   0  0  0  0  0  0
  -26.0555  -19.9034   23.5082 H   0  0  0  0  0  0
  -25.4353  -20.5334   21.9797 H   0  0  0  0  0  0
  -25.6048  -18.0099   22.4167 H   0  0  0  0  0  0
  -26.8103  -17.5312   23.6152 H   0  0  0  0  0  0
  -26.5128  -16.5898   22.1660 H   0  0  0  0  0  0
  -28.4040  -15.9661   20.2617 H   0  0  0  0  0  0
  -28.4011  -15.8478   22.0152 H   0  0  0  0  0  0
  -28.3927  -22.5701   22.2555 H   0  0  0  0  0  0
  -27.1164  -22.4668   21.0821 H   0  0  0  0  0  0
  -30.9739  -16.2763   21.4228 H   0  0  0  0  0  0
  -29.6366  -22.7405   19.7928 H   0  0  0  0  0  0
  1 25  1  0  0  0
  1 30  2  0  0  0
  1 84  1  0  0  0
  2  3  1  0  0  0
  2 25  1  0  0  0
  2 87  1  0  0  0
  2 88  1  0  0  0
  3  4  1  0  0  0
  3 89  1  0  0  0
  3 90  1  0  0  0
  4  5  1  0  0  0
  4 91  1  0  0  0
  4 92  1  0  0  0
  5  6  1  0  0  0
  5 26  1  0  0  0
  5 93  1  0  0  0
  6 25  1  0  0  0
  6 94  1  0  0  0
  6 95  1  0  0  0
  7  8  2  0  0  0
  7 26  1  0  0  0
  7 29  1  0  0  0
  8  9  1  0  0  0
  8 22  1  0  0  0
  9 10  1  0  0  0
  9 27  2  0  0  0
 10 11  2  0  0  0
 10 15  1  0  0  0
 11 12  1  0  0  0
 11 96  1  0  0  0
 12 13  2  0  0  0
 12 97  1  0  0  0
 13 14  1  0  0  0
 13 31  1  0  0  0
 14 15  2  0  0  0
 14 98  1  0  0  0
 15 99  1  0  0  0
 16 17  2  0  0  0
 16 21  1  0  0  0
 16 31  1  0  0  0
 17 18  1  0  0  0
 17100  1  0  0  0
 18 19  2  0  0  0
 18101  1  0  0  0
 19 20  1  0  0  0
 19 24  1  0  0  0
 20 21  2  0  0  0
 20102  1  0  0  0
 21 23  1  0  0  0
 22 28  1  0  0  0
 22 32  2  0  0  0
 26 27  1  0  0  0
 28103  1  0  0  0
 28104  1  0  0  0
 29105  1  0  0  0
 29106  1  0  0  0
 33 34  1  0  0  0
 33 66  1  0  0  0
 33 70  2  0  0  0
 34 36  1  0  0  0
 34 59  1  0  0  0
 34107  1  0  0  0
 35 44  2  0  0  0
 35 45  1  0  0  0
 35 68  1  0  0  0
 36 56  1  0  0  0
 36108  1  0  0  0
 37 39  1  0  0  0
 37 47  1  0  0  0
 37 66  1  0  0  0
 37109  1  0  0  0
 38 43  2  0  0  0
 38 46  1  0  0  0
 38 47  1  0  0  0
 39 64  1  0  0  0
 39 67  2  0  0  0
 40 52  1  0  0  0
 40 53  2  0  0  0
 40 58  1  0  0  0
 41110  1  0  0  0
 41111  1  0  0  0
 41112  1  0  0  0
 41 48  1  0  0  0
 42 43  1  0  0  0
 42 66  1  0  0  0
 42113  1  0  0  0
 42114  1  0  0  0
 43 44  1  0  0  0
 44115  1  0  0  0
 45 46  2  0  0  0
 45116  1  0  0  0
 46117  1  0  0  0
 47118  1  0  0  0
 47119  1  0  0  0
 48 56  1  0  0  0
 48 65  1  0  0  0
 48120  1  0  0  0
 49 50  1  0  0  0
 49 53  1  0  0  0
 49 64  1  0  0  0
 49121  1  0  0  0
 50 51  1  0  0  0
 50122  1  0  0  0
 50123  1  0  0  0
 51 52  1  0  0  0
 51124  1  0  0  0
 51125  1  0  0  0
 52126  1  0  0  0
 52127  1  0  0  0
 53 54  1  0  0  0
 54 55  2  0  0  0
 54128  1  0  0  0
 55 57  1  0  0  0
 55129  1  0  0  0
 56 69  2  0  0  0
 57 58  2  0  0  0
 57130  1  0  0  0
 58131  1  0  0  0
 59 60  1  0  0  0
 59 61  1  0  0  0
 59 62  1  0  0  0
 60132  1  0  0  0
 60133  1  0  0  0
 60134  1  0  0  0
 61135  1  0  0  0
 61136  1  0  0  0
 61137  1  0  0  0
 62138  1  0  0  0
 62139  1  0  0  0
 62140  1  0  0  0
 63 65  1  0  0  0
 63141  1  0  0  0
 63142  1  0  0  0
 63143  1  0  0  0
 64144  1  0  0  0
 65145  1  0  0  0
 68 79  1  0  0  0
 71 72  2  0  0  0
 71 76  1  0  0  0
 71146  1  0  0  0
 72 73  1  0  0  0
 72 83  1  0  0  0
 73 74  2  0  0  0
 73 80  1  0  0  0
 74 75  1  0  0  0
 74 81  1  0  0  0
 75 76  2  0  0  0
 75 82  1  0  0  0
 76 86  1  0  0  0
 77 79  1  0  0  0
 77 85  1  0  0  0
 77147  1  0  0  0
 77148  1  0  0  0
 78 79  1  0  0  0
 78 85  1  0  0  0
 78149  1  0  0  0
 78150  1  0  0  0
 79151  1  0  0  0
 80152  1  0  0  0
 80153  1  0  0  0
 80154  1  0  0  0
 81155  1  0  0  0
 81156  1  0  0  0
 81157  1  0  0  0
 82 84  1  0  0  0
 82158  1  0  0  0
 82159  1  0  0  0
 83160  1  0  0  0
 83161  1  0  0  0
 83 85  1  0  0  0
 84162  1  0  0  0
 85163  1  0  0  0
M  CHG  1  85   1
M  ISO  4   1 100  68 101  79 101  84 100
M  END
> <chiral flag>
0

> <version>
0

> <s_m_source_file>
/data/baiqing/PycharmProjects/Reinvent-master-3.2/result/LINK_invent/BTK/process_docking_weight1_custom_product_contain_oxygen_bond_distance_aromatic_linkinvent_7_9_3/rearranged_h_0033.sdf

> <i_m_source_file_index>
82

> <r_mmod_Potential_Energy-OPLS-2005>
-105.899047851562

> <r_mmod_Stretch_Energy-OPLS-2005>
60.9833221435547

> <r_mmod_Bend_Energy-OPLS-2005>
168.255310058594

> <r_mmod_Torsional_Energy-OPLS-2005>
282.388732910156

> <r_mmod_Improper_Torsional_Energy-OPLS-2005>
5.03208923339844

> <r_mmod_Van_der_Waal_Energy-OPLS-2005>
167.320861816406

> <r_mmod_Electrostatic_Energy-OPLS-2005>
-349.288269042969

> <r_mmod_Solvation_Energy-OPLS-2005>
-466.511413574219

> <b_mmod_Minimization_Converged-OPLS-2005>
0

> <r_mmod_RMS_Derivative-OPLS-2005>
2.83969593048096

$$$$
82
                    3D
 Structure written by MMmdl.
164173  0  0  1  0            999 V2000
  -30.5760  -14.7618   20.4668 C   0  0  0  0  0  0
  -30.4436  -12.4704   19.4577 C   0  0  0  0  0  0
  -29.5104  -12.5113   18.2290 C   0  0  0  0  0  0
  -28.0394  -12.3258   18.6523 C   0  0  0  0  0  0
  -27.6426  -13.2223   19.8524 C   0  0  2  0  0  0
  -28.6935  -13.1579   20.9797 C   0  0  0  0  0  0
  -25.2541  -13.8152   20.5750 C   0  0  0  0  0  0
  -24.1826  -13.0427   20.9205 C   0  0  0  0  0  0
  -24.6402  -11.6890   20.8744 C   0  0  0  0  0  0
  -23.9067  -10.4280   21.0411 C   0  0  0  0  0  0
  -24.3607   -9.4195   21.9196 C   0  0  0  0  0  0
  -23.6285   -8.2237   22.0768 C   0  0  0  0  0  0
  -22.4272   -8.0271   21.3554 C   0  0  0  0  0  0
  -21.9906   -9.0244   20.4659 C   0  0  0  0  0  0
  -22.7233  -10.2119   20.3069 C   0  0  0  0  0  0
  -21.6845   -6.0730   22.5266 C   0  0  0  0  0  0
  -21.4019   -6.5640   23.8201 C   0  0  0  0  0  0
  -21.3674   -5.6797   24.9166 C   0  0  0  0  0  0
  -21.6056   -4.3061   24.7215 C   0  0  0  0  0  0
  -21.8815   -3.8143   23.4335 C   0  0  0  0  0  0
  -21.9191   -4.6960   22.3387 C   0  0  0  0  0  0
  -22.7845  -13.5225   21.1842 C   0  0  0  0  0  0
  -22.1662   -4.2148   21.0965 F   0  0  0  0  0  0
  -21.5633   -3.4548   25.7732 F   0  0  0  0  0  0
  -29.9814  -13.5248   20.3826 N   0  0  0  0  0  0
  -26.2962  -12.9345   20.3319 N   0  0  0  0  0  0
  -25.9329  -11.6486   20.5748 N   0  0  0  0  0  0
  -22.0492  -12.8244   22.0391 N   0  0  0  0  0  0
  -25.4258  -15.1908   20.4293 N   0  0  0  0  0  0
  -31.7831  -14.8854   20.2369 O   0  0  0  0  0  0
  -21.6643   -6.8865   21.4233 O   0  0  0  0  0  0
  -22.3540  -14.5541   20.6679 O   0  0  0  0  0  0
  -24.6315  -31.8509   23.1933 C   0  0  0  0  0  0
  -25.9144  -32.4711   23.8279 C   0  0  1  0  0  0
  -27.2275  -27.2327   20.1284 C   0  0  0  0  0  0
  -25.5940  -33.8514   24.2168 N   0  0  0  0  0  0
  -23.4283  -30.4714   21.5369 C   0  0  2  0  0  0
  -24.8754  -28.9104   20.1083 C   0  0  0  0  0  0
  -22.7491  -29.4525   22.4843 C   0  0  0  0  0  0
  -18.0299  -28.1381   22.8434 C   0  0  0  0  0  0
  -24.1510  -36.7266   23.2637 C   0  0  0  0  0  0
  -25.9737  -30.7580   21.3760 C   0  0  0  0  0  0
  -26.0475  -29.3761   20.7161 C   0  0  0  0  0  0
  -27.2184  -28.5493   20.7147 C   0  0  0  0  0  0
  -26.0238  -26.8311   19.5089 C   0  0  0  0  0  0
  -24.8688  -27.6423   19.5017 C   0  0  0  0  0  0
  -23.6511  -29.8111   20.1522 C   0  0  0  0  0  0
  -25.4129  -36.2992   24.0301 C   0  0  1  0  0  0
  -20.5899  -28.3692   23.1218 C   0  0  2  0  0  0
  -20.6794  -26.9407   22.5393 C   0  0  0  0  0  0
  -19.5791  -26.6352   21.5173 C   0  0  0  0  0  0
  -18.1956  -26.7911   22.1573 C   0  0  0  0  0  0
  -19.1548  -28.8843   23.2826 C   0  0  0  0  0  0
  -18.9482  -30.1447   23.8839 C   0  0  0  0  0  0
  -17.6484  -30.6577   24.0541 C   0  0  0  0  0  0
  -25.9068  -34.9388   23.5019 C   0  0  0  0  0  0
  -16.5369  -29.9097   23.6310 C   0  0  0  0  0  0
  -16.7282  -28.6523   23.0302 C   0  0  0  0  0  0
  -26.4531  -31.6563   25.0687 C   0  0  0  0  0  0
  -25.3719  -31.3766   26.1375 C   0  0  0  0  0  0
  -27.0407  -30.2966   24.6218 C   0  0  0  0  0  0
  -27.6040  -32.4345   25.7470 C   0  0  0  0  0  0
  -27.5578  -37.1758   24.8453 C   0  0  0  0  0  0
  -21.4192  -29.3025   22.3610 N   0  0  0  0  0  0
  -26.4276  -37.3713   23.9430 N   0  0  0  0  0  0
  -24.6966  -31.0439   22.0918 N   0  0  0  0  0  0
  -23.4173  -28.8011   23.2908 O   0  0  0  0  0  0
  -28.3542  -26.3676   20.1897 O   0  0  0  0  0  0
  -26.5645  -34.8873   22.4595 O   0  0  0  0  0  0
  -23.5458  -32.1365   23.7200 O   0  0  0  0  0  0
  -29.4191  -18.4508   20.3402 C   0  0  0  0  0  0
  -29.2746  -19.7667   20.9625 C   0  0  0  0  0  0
  -29.5400  -19.8001   22.3651 C   0  0  0  0  0  0
  -30.0334  -18.6490   23.0544 C   0  0  0  0  0  0
  -29.8326  -17.2366   21.0382 C   0  0  0  0  0  0
  -30.1413  -17.3864   22.4139 C   0  0  0  0  0  0
  -30.1918  -23.1085   19.5499 C   0  0  0  0  0  0
  -31.3185  -22.4679   19.1846 C   0  0  0  0  0  0
  -29.8322  -24.5703   19.2216 C   0  0  0  0  0  0
  -28.1266  -23.6506   20.6434 C   0  0  0  0  0  0
  -28.4106  -24.9222   19.7112 C   0  0  1  0  0  0
  -29.1972  -21.0431   23.1832 C   0  0  0  0  0  0
  -30.3909  -18.7154   24.5444 C   0  0  0  0  0  0
  -28.6682  -21.0605   20.1966 C   0  0  0  0  0  0
  -29.7240  -15.8615   20.4804 N   0  0  0  0  0  0
  -29.1485  -22.5225   20.4501 N   0  3  1  0  0  0
  -30.5141  -15.9966   23.3903 Cl  0  0  0  0  0  0
  -31.4808  -12.6202   19.1555 H   0  0  0  0  0  0
  -30.4060  -11.4932   19.9411 H   0  0  0  0  0  0
  -29.7921  -11.7445   17.5079 H   0  0  0  0  0  0
  -29.6249  -13.4668   17.7154 H   0  0  0  0  0  0
  -27.9037  -11.2766   18.9171 H   0  0  0  0  0  0
  -27.3742  -12.5123   17.8097 H   0  0  0  0  0  0
  -27.6322  -14.2403   19.4627 H   0  0  0  0  0  0
  -28.7431  -12.1623   21.4206 H   0  0  0  0  0  0
  -28.4362  -13.8388   21.7920 H   0  0  0  0  0  0
  -25.2737   -9.5695   22.4789 H   0  0  0  0  0  0
  -23.9988   -7.4650   22.7513 H   0  0  0  0  0  0
  -21.0818   -8.8774   19.8979 H   0  0  0  0  0  0
  -22.3674  -10.9676   19.6205 H   0  0  0  0  0  0
  -21.2014   -7.6154   23.9698 H   0  0  0  0  0  0
  -21.1512   -6.0537   25.9075 H   0  0  0  0  0  0
  -22.0579   -2.7611   23.2829 H   0  0  0  0  0  0
  -22.4091  -11.9870   22.4730 H   0  0  0  0  0  0
  -21.1142  -13.1320   22.2665 H   0  0  0  0  0  0
  -24.6577  -15.8382   20.5703 H   0  0  0  0  0  0
  -26.2830  -15.6495   20.1531 H   0  0  0  0  0  0
  -26.7204  -32.5356   23.1014 H   0  0  0  0  0  0
  -25.0041  -33.9658   25.0279 H   0  0  0  0  0  0
  -22.7175  -31.2883   21.3898 H   0  0  0  0  0  0
  -23.3724  -35.9634   23.3269 H   0  0  0  0  0  0
  -24.3600  -36.8955   22.2045 H   0  0  0  0  0  0
  -23.7343  -37.6473   23.6734 H   0  0  0  0  0  0
  -26.1090  -31.5260   20.6136 H   0  0  0  0  0  0
  -26.8441  -30.8044   22.0150 H   0  0  0  0  0  0
  -28.1210  -28.8990   21.1994 H   0  0  0  0  0  0
  -25.9410  -25.8648   19.0424 H   0  0  0  0  0  0
  -23.9692  -27.2687   19.0309 H   0  0  0  0  0  0
  -23.7846  -30.5996   19.4092 H   0  0  0  0  0  0
  -22.7595  -29.2672   19.8350 H   0  0  0  0  0  0
  -25.1315  -36.1745   25.0781 H   0  0  0  0  0  0
  -20.9986  -28.3321   24.1331 H   0  0  0  0  0  0
  -20.5657  -26.2332   23.3619 H   0  0  0  0  0  0
  -21.6677  -26.7433   22.1197 H   0  0  0  0  0  0
  -19.6980  -25.6240   21.1268 H   0  0  0  0  0  0
  -19.6742  -27.3106   20.6637 H   0  0  0  0  0  0
  -17.4222  -26.6572   21.3994 H   0  0  0  0  0  0
  -18.0402  -26.0057   22.8973 H   0  0  0  0  0  0
  -19.7966  -30.7256   24.2177 H   0  0  0  0  0  0
  -17.5063  -31.6258   24.5165 H   0  0  0  0  0  0
  -15.5385  -30.2991   23.7694 H   0  0  0  0  0  0
  -15.8655  -28.0894   22.6960 H   0  0  0  0  0  0
  -24.5882  -30.7129   25.7744 H   0  0  0  0  0  0
  -24.8910  -32.2948   26.4702 H   0  0  0  0  0  0
  -25.7950  -30.9013   27.0219 H   0  0  0  0  0  0
  -26.3035  -29.6633   24.1266 H   0  0  0  0  0  0
  -27.4110  -29.7285   25.4757 H   0  0  0  0  0  0
  -27.8887  -30.4221   23.9486 H   0  0  0  0  0  0
  -27.2625  -33.3683   26.1948 H   0  0  0  0  0  0
  -28.3902  -32.6847   25.0345 H   0  0  0  0  0  0
  -28.0652  -31.8552   26.5475 H   0  0  0  0  0  0
  -28.2482  -38.0141   24.7507 H   0  0  0  0  0  0
  -28.1150  -36.2640   24.6228 H   0  0  0  0  0  0
  -27.2298  -37.1371   25.8853 H   0  0  0  0  0  0
  -20.9337  -29.8831   21.6922 H   0  0  0  0  0  0
  -26.0079  -38.2738   24.1493 H   0  0  0  0  0  0
  -29.1327  -18.3594   19.3010 H   0  0  0  0  0  0
  -32.0563  -22.9688   18.5728 H   0  0  0  0  0  0
  -31.5501  -21.4590   19.4963 H   0  0  0  0  0  0
  -29.9197  -24.7386   18.1453 H   0  0  0  0  0  0
  -30.5631  -25.2160   19.7104 H   0  0  0  0  0  0
  -27.1100  -23.2844   20.5036 H   0  0  0  0  0  0
  -28.1942  -23.9663   21.6839 H   0  0  0  0  0  0
  -27.7843  -24.8294   18.8224 H   0  0  0  0  0  0
  -30.0660  -21.6880   23.3240 H   0  0  0  0  0  0
  -28.8111  -20.7678   24.1651 H   0  0  0  0  0  0
  -28.3840  -21.6186   22.7490 H   0  0  0  0  0  0
  -30.5986  -19.7159   24.9178 H   0  0  0  0  0  0
  -31.2993  -18.1482   24.7577 H   0  0  0  0  0  0
  -29.5773  -18.3002   25.1424 H   0  0  0  0  0  0
  -27.6027  -21.0305   20.4355 H   0  0  0  0  0  0
  -28.7151  -20.8670   19.1236 H   0  0  0  0  0  0
  -28.7706  -15.6063   20.2803 H   0  0  0  0  0  0
  -29.5726  -22.4363   21.3609 H   0  0  0  0  0  0
  1 25  1  0  0  0
  1 30  2  0  0  0
  1 85  1  0  0  0
  2  3  1  0  0  0
  2 25  1  0  0  0
  2 88  1  0  0  0
  2 89  1  0  0  0
  3  4  1  0  0  0
  3 90  1  0  0  0
  3 91  1  0  0  0
  4  5  1  0  0  0
  4 92  1  0  0  0
  4 93  1  0  0  0
  5  6  1  0  0  0
  5 26  1  0  0  0
  5 94  1  0  0  0
  6 25  1  0  0  0
  6 95  1  0  0  0
  6 96  1  0  0  0
  7  8  2  0  0  0
  7 26  1  0  0  0
  7 29  1  0  0  0
  8  9  1  0  0  0
  8 22  1  0  0  0
  9 10  1  0  0  0
  9 27  2  0  0  0
 10 11  2  0  0  0
 10 15  1  0  0  0
 11 12  1  0  0  0
 11 97  1  0  0  0
 12 13  2  0  0  0
 12 98  1  0  0  0
 13 14  1  0  0  0
 13 31  1  0  0  0
 14 15  2  0  0  0
 14 99  1  0  0  0
 15100  1  0  0  0
 16 17  2  0  0  0
 16 21  1  0  0  0
 16 31  1  0  0  0
 17 18  1  0  0  0
 17101  1  0  0  0
 18 19  2  0  0  0
 18102  1  0  0  0
 19 20  1  0  0  0
 19 24  1  0  0  0
 20 21  2  0  0  0
 20103  1  0  0  0
 21 23  1  0  0  0
 22 28  1  0  0  0
 22 32  2  0  0  0
 26 27  1  0  0  0
 28104  1  0  0  0
 28105  1  0  0  0
 29106  1  0  0  0
 29107  1  0  0  0
 33 34  1  0  0  0
 33 66  1  0  0  0
 33 70  2  0  0  0
 34 36  1  0  0  0
 34 59  1  0  0  0
 34108  1  0  0  0
 35 44  2  0  0  0
 35 45  1  0  0  0
 35 68  1  0  0  0
 36 56  1  0  0  0
 36109  1  0  0  0
 37 39  1  0  0  0
 37 47  1  0  0  0
 37 66  1  0  0  0
 37110  1  0  0  0
 38 43  2  0  0  0
 38 46  1  0  0  0
 38 47  1  0  0  0
 39 64  1  0  0  0
 39 67  2  0  0  0
 40 52  1  0  0  0
 40 53  2  0  0  0
 40 58  1  0  0  0
 41111  1  0  0  0
 41112  1  0  0  0
 41113  1  0  0  0
 41 48  1  0  0  0
 42 43  1  0  0  0
 42 66  1  0  0  0
 42114  1  0  0  0
 42115  1  0  0  0
 43 44  1  0  0  0
 44116  1  0  0  0
 45 46  2  0  0  0
 45117  1  0  0  0
 46118  1  0  0  0
 47119  1  0  0  0
 47120  1  0  0  0
 48 56  1  0  0  0
 48 65  1  0  0  0
 48121  1  0  0  0
 49 50  1  0  0  0
 49 53  1  0  0  0
 49 64  1  0  0  0
 49122  1  0  0  0
 50 51  1  0  0  0
 50123  1  0  0  0
 50124  1  0  0  0
 51 52  1  0  0  0
 51125  1  0  0  0
 51126  1  0  0  0
 52127  1  0  0  0
 52128  1  0  0  0
 53 54  1  0  0  0
 54 55  2  0  0  0
 54129  1  0  0  0
 55 57  1  0  0  0
 55130  1  0  0  0
 56 69  2  0  0  0
 57 58  2  0  0  0
 57131  1  0  0  0
 58132  1  0  0  0
 59 60  1  0  0  0
 59 61  1  0  0  0
 59 62  1  0  0  0
 60133  1  0  0  0
 60134  1  0  0  0
 60135  1  0  0  0
 61136  1  0  0  0
 61137  1  0  0  0
 61138  1  0  0  0
 62139  1  0  0  0
 62140  1  0  0  0
 62141  1  0  0  0
 63 65  1  0  0  0
 63142  1  0  0  0
 63143  1  0  0  0
 63144  1  0  0  0
 64145  1  0  0  0
 65146  1  0  0  0
 68 81  1  0  0  0
 71 72  2  0  0  0
 71 75  1  0  0  0
 71147  1  0  0  0
 72 73  1  0  0  0
 72 84  1  0  0  0
 73 74  2  0  0  0
 73 82  1  0  0  0
 74 76  1  0  0  0
 74 83  1  0  0  0
 75 76  2  0  0  0
 75 85  1  0  0  0
 76 87  1  0  0  0
 77 78  2  0  0  0
 77 79  1  0  0  0
 77 86  1  0  0  0
 78148  1  0  0  0
 78149  1  0  0  0
 79 81  1  0  0  0
 79150  1  0  0  0
 79151  1  0  0  0
 80 81  1  0  0  0
 80 86  1  0  0  0
 80152  1  0  0  0
 80153  1  0  0  0
 81154  1  0  0  0
 82155  1  0  0  0
 82156  1  0  0  0
 82157  1  0  0  0
 83158  1  0  0  0
 83159  1  0  0  0
 83160  1  0  0  0
 84161  1  0  0  0
 84162  1  0  0  0
 84 86  1  0  0  0
 85163  1  0  0  0
 86164  1  0  0  0
M  CHG  1  86   1
M  ISO  4   1 100  68 101  81 101  85 100
M  END
> <chiral flag>
0

> <version>
0

> <s_m_source_file>
/data/baiqing/PycharmProjects/Reinvent-master-3.2/result/LINK_invent/BTK/process_docking_weight1_custom_product_contain_oxygen_bond_distance_aromatic_linkinvent_7_9_3/rearranged_h_0033.sdf

> <i_m_source_file_index>
83

> <r_mmod_Potential_Energy-OPLS-2005>
173.367935180664

> <r_mmod_Stretch_Energy-OPLS-2005>
142.556747436523

> <r_mmod_Bend_Energy-OPLS-2005>
213.469055175781

> <r_mmod_Torsional_Energy-OPLS-2005>
286.809936523438

> <r_mmod_Improper_Torsional_Energy-OPLS-2005>
11.7200298309326

> <r_mmod_Van_der_Waal_Energy-OPLS-2005>
142.785690307617

> <r_mmod_Electrostatic_Energy-OPLS-2005>
-281.6806640625

> <r_mmod_Solvation_Energy-OPLS-2005>
-439.291351318359

> <b_mmod_Minimization_Converged-OPLS-2005>
0

> <r_mmod_RMS_Derivative-OPLS-2005>
5.41334342956543

$$$$
83
                    3D
 Structure written by MMmdl.
161170  0  0  1  0            999 V2000
  -30.5757  -14.6794   20.4165 C   0  0  0  0  0  0
  -30.4391  -12.4014   19.4307 C   0  0  0  0  0  0
  -29.5059  -12.5214   18.2051 C   0  0  0  0  0  0
  -28.0230  -12.3749   18.6086 C   0  0  0  0  0  0
  -27.6475  -13.2211   19.8564 C   0  0  2  0  0  0
  -28.7049  -13.0808   20.9745 C   0  0  0  0  0  0
  -25.2553  -13.8169   20.5736 C   0  0  0  0  0  0
  -24.1832  -13.0410   20.9184 C   0  0  0  0  0  0
  -24.6441  -11.6892   20.8731 C   0  0  0  0  0  0
  -23.9117  -10.4278   21.0397 C   0  0  0  0  0  0
  -24.3668   -9.4207   21.9190 C   0  0  0  0  0  0
  -23.6312   -8.2259   22.0771 C   0  0  0  0  0  0
  -22.4294   -8.0291   21.3550 C   0  0  0  0  0  0
  -21.9930   -9.0266   20.4660 C   0  0  0  0  0  0
  -22.7282  -10.2124   20.3054 C   0  0  0  0  0  0
  -21.6878   -6.0749   22.5269 C   0  0  0  0  0  0
  -21.4044   -6.5653   23.8207 C   0  0  0  0  0  0
  -21.3650   -5.6796   24.9150 C   0  0  0  0  0  0
  -21.6050   -4.3056   24.7208 C   0  0  0  0  0  0
  -21.8828   -3.8164   23.4336 C   0  0  0  0  0  0
  -21.9206   -4.6989   22.3391 C   0  0  0  0  0  0
  -22.7842  -13.5195   21.1841 C   0  0  0  0  0  0
  -22.1664   -4.2177   21.0974 F   0  0  0  0  0  0
  -21.5601   -3.4534   25.7724 F   0  0  0  0  0  0
  -30.0120  -13.4301   20.3970 N   0  0  0  0  0  0
  -26.2976  -12.9335   20.3315 N   0  0  0  0  0  0
  -25.9348  -11.6477   20.5722 N   0  0  0  0  0  0
  -22.0489  -12.8168   22.0390 N   0  0  0  0  0  0
  -25.4214  -15.1925   20.4286 N   0  0  0  0  0  0
  -31.7684  -14.8574   20.1460 O   0  0  0  0  0  0
  -21.6644   -6.8895   21.4245 O   0  0  0  0  0  0
  -22.3513  -14.5505   20.6693 O   0  0  0  0  0  0
  -24.6245  -31.8548   23.1967 C   0  0  0  0  0  0
  -25.9087  -32.4746   23.8317 C   0  0  1  0  0  0
  -27.2503  -27.3086   20.1375 C   0  0  0  0  0  0
  -25.5885  -33.8547   24.2258 N   0  0  0  0  0  0
  -23.4201  -30.4706   21.5373 C   0  0  2  0  0  0
  -24.8727  -28.9074   20.1086 C   0  0  0  0  0  0
  -22.7449  -29.4611   22.4945 C   0  0  0  0  0  0
  -18.0262  -28.1388   22.8491 C   0  0  0  0  0  0
  -24.1483  -36.7303   23.2644 C   0  0  0  0  0  0
  -25.9543  -30.7827   21.3643 C   0  0  0  0  0  0
  -26.0304  -29.4044   20.7162 C   0  0  0  0  0  0
  -27.2120  -28.6126   20.7251 C   0  0  0  0  0  0
  -26.0757  -26.8540   19.5022 C   0  0  0  0  0  0
  -24.8976  -27.6395   19.4930 C   0  0  0  0  0  0
  -23.6355  -29.7861   20.1572 C   0  0  0  0  0  0
  -25.4097  -36.3071   24.0334 C   0  0  1  0  0  0
  -20.5877  -28.3681   23.1301 C   0  0  2  0  0  0
  -20.6767  -26.9408   22.5420 C   0  0  0  0  0  0
  -19.5747  -26.6387   21.5226 C   0  0  0  0  0  0
  -18.1914  -26.7929   22.1629 C   0  0  0  0  0  0
  -19.1527  -28.8848   23.2891 C   0  0  0  0  0  0
  -18.9453  -30.1452   23.8896 C   0  0  0  0  0  0
  -17.6453  -30.6586   24.0563 C   0  0  0  0  0  0
  -25.9031  -34.9432   23.5113 C   0  0  0  0  0  0
  -16.5339  -29.9085   23.6328 C   0  0  0  0  0  0
  -16.7253  -28.6511   23.0347 C   0  0  0  0  0  0
  -26.4460  -31.6559   25.0697 C   0  0  0  0  0  0
  -25.3702  -31.3684   26.1429 C   0  0  0  0  0  0
  -27.0312  -30.2986   24.6156 C   0  0  0  0  0  0
  -27.6003  -32.4287   25.7486 C   0  0  0  0  0  0
  -27.5581  -37.1801   24.8449 C   0  0  0  0  0  0
  -21.4173  -29.3026   22.3691 N   0  0  0  0  0  0
  -26.4271  -37.3774   23.9422 N   0  0  0  0  0  0
  -24.6854  -31.0547   22.0907 N   0  0  0  0  0  0
  -23.4170  -28.8175   23.3058 O   0  0  0  0  0  0
  -28.4191  -26.5423   20.2545 O   0  0  0  0  0  0
  -26.5640  -34.8912   22.4709 O   0  0  0  0  0  0
  -23.5406  -32.1360   23.7283 O   0  0  0  0  0  0
  -30.1940  -19.5123   20.8638 C   0  0  0  0  0  0
  -30.3736  -18.0968   21.0240 C   0  0  0  0  0  0
  -28.6629  -19.0994   19.0747 C   0  0  0  0  0  0
  -29.3180  -20.0678   19.8841 C   0  0  0  0  0  0
  -28.8454  -17.6907   19.2098 C   0  0  0  0  0  0
  -29.6961  -17.1416   20.2148 C   0  0  0  0  0  0
  -30.3983  -23.5158   20.6234 C   0  0  0  0  0  0
  -31.5281  -23.0468   21.1820 C   0  0  0  0  0  0
  -30.1750  -24.9306   20.0916 C   0  0  0  0  0  0
  -28.0581  -23.8455   20.3752 C   0  0  0  0  0  0
  -28.6849  -25.1628   19.7686 C   0  0  1  0  0  0
  -28.1077  -16.8007   18.2171 C   0  0  0  0  0  0
  -29.1342  -21.6114   19.5179 C   0  0  0  0  0  0
  -29.6687  -15.7057   20.5166 N   0  0  0  0  0  0
  -29.1149  -22.7555   20.5307 N   0  3  1  0  0  0
  -31.4766  -12.5385   19.1245 H   0  0  0  0  0  0
  -30.3762  -11.4042   19.8713 H   0  0  0  0  0  0
  -29.7600  -11.7774   17.4495 H   0  0  0  0  0  0
  -29.6613  -13.4928   17.7321 H   0  0  0  0  0  0
  -27.8247  -11.3172   18.7889 H   0  0  0  0  0  0
  -27.3910  -12.6625   17.7689 H   0  0  0  0  0  0
  -27.6434  -14.2557   19.5208 H   0  0  0  0  0  0
  -28.7227  -12.0595   21.3573 H   0  0  0  0  0  0
  -28.4634  -13.7185   21.8265 H   0  0  0  0  0  0
  -25.2832   -9.5677   22.4741 H   0  0  0  0  0  0
  -24.0016   -7.4674   22.7512 H   0  0  0  0  0  0
  -21.0850   -8.8796   19.8978 H   0  0  0  0  0  0
  -22.3759  -10.9655   19.6158 H   0  0  0  0  0  0
  -21.2042   -7.6170   23.9711 H   0  0  0  0  0  0
  -21.1453   -6.0526   25.9050 H   0  0  0  0  0  0
  -22.0619   -2.7633   23.2827 H   0  0  0  0  0  0
  -22.4091  -11.9822   22.4789 H   0  0  0  0  0  0
  -21.1140  -13.1224   22.2622 H   0  0  0  0  0  0
  -24.6554  -15.8408   20.5755 H   0  0  0  0  0  0
  -26.2831  -15.6571   20.1802 H   0  0  0  0  0  0
  -26.7163  -32.5413   23.1069 H   0  0  0  0  0  0
  -24.9942  -33.9692   25.0337 H   0  0  0  0  0  0
  -22.7127  -31.2878   21.3844 H   0  0  0  0  0  0
  -23.3748  -35.9637   23.3260 H   0  0  0  0  0  0
  -24.3579  -36.8964   22.2068 H   0  0  0  0  0  0
  -23.7222  -37.6483   23.6695 H   0  0  0  0  0  0
  -26.0737  -31.5357   20.5856 H   0  0  0  0  0  0
  -26.8383  -30.8478   21.9857 H   0  0  0  0  0  0
  -28.0970  -28.9854   21.2232 H   0  0  0  0  0  0
  -26.0489  -25.8781   19.0399 H   0  0  0  0  0  0
  -24.0067  -27.2515   19.0209 H   0  0  0  0  0  0
  -23.7438  -30.5520   19.3882 H   0  0  0  0  0  0
  -22.7583  -29.2035   19.8695 H   0  0  0  0  0  0
  -25.1281  -36.1930   25.0827 H   0  0  0  0  0  0
  -20.9947  -28.3265   24.1442 H   0  0  0  0  0  0
  -20.5672  -26.2298   23.3634 H   0  0  0  0  0  0
  -21.6646  -26.7440   22.1226 H   0  0  0  0  0  0
  -19.6907  -25.6295   21.1262 H   0  0  0  0  0  0
  -19.6692  -27.3211   20.6769 H   0  0  0  0  0  0
  -17.4199  -26.6679   21.4021 H   0  0  0  0  0  0
  -18.0292  -26.0061   22.9021 H   0  0  0  0  0  0
  -19.7921  -30.7273   24.2279 H   0  0  0  0  0  0
  -17.4994  -31.6274   24.5164 H   0  0  0  0  0  0
  -15.5342  -30.2992   23.7634 H   0  0  0  0  0  0
  -15.8662  -28.0826   22.7061 H   0  0  0  0  0  0
  -24.5854  -30.7073   25.7744 H   0  0  0  0  0  0
  -24.8928  -32.2851   26.4896 H   0  0  0  0  0  0
  -25.8025  -30.8816   27.0181 H   0  0  0  0  0  0
  -26.2916  -29.6734   24.1158 H   0  0  0  0  0  0
  -27.3976  -29.7234   25.4662 H   0  0  0  0  0  0
  -27.8772  -30.4262   23.9408 H   0  0  0  0  0  0
  -27.2594  -33.3543   26.2132 H   0  0  0  0  0  0
  -28.3792  -32.6921   25.0326 H   0  0  0  0  0  0
  -28.0711  -31.8382   26.5350 H   0  0  0  0  0  0
  -28.2557  -38.0138   24.7536 H   0  0  0  0  0  0
  -28.1114  -36.2669   24.6213 H   0  0  0  0  0  0
  -27.2311  -37.1370   25.8850 H   0  0  0  0  0  0
  -20.9349  -29.8721   21.6873 H   0  0  0  0  0  0
  -26.0150  -38.2845   24.1439 H   0  0  0  0  0  0
  -30.7568  -20.1560   21.5209 H   0  0  0  0  0  0
  -31.0212  -17.7458   21.8157 H   0  0  0  0  0  0
  -28.0080  -19.4515   18.2894 H   0  0  0  0  0  0
  -32.4076  -23.6709   21.2586 H   0  0  0  0  0  0
  -31.6120  -22.0551   21.5917 H   0  0  0  0  0  0
  -30.8050  -25.1200   19.2236 H   0  0  0  0  0  0
  -30.5085  -25.6144   20.8737 H   0  0  0  0  0  0
  -27.1857  -23.5103   19.8151 H   0  0  0  0  0  0
  -27.6978  -24.0736   21.3790 H   0  0  0  0  0  0
  -28.5554  -25.1458   18.6859 H   0  0  0  0  0  0
  -28.0486  -17.2910   17.2439 H   0  0  0  0  0  0
  -27.0848  -16.6043   18.5398 H   0  0  0  0  0  0
  -28.6184  -15.8520   18.0554 H   0  0  0  0  0  0
  -28.2019  -21.6792   18.9624 H   0  0  0  0  0  0
  -29.8986  -21.8426   18.7744 H   0  0  0  0  0  0
  -28.7367  -15.3349   20.6156 H   0  0  0  0  0  0
  -28.9182  -22.3115   21.4151 H   0  0  0  0  0  0
  1 25  1  0  0  0
  1 30  2  0  0  0
  1 84  1  0  0  0
  2  3  1  0  0  0
  2 25  1  0  0  0
  2 86  1  0  0  0
  2 87  1  0  0  0
  3  4  1  0  0  0
  3 88  1  0  0  0
  3 89  1  0  0  0
  4  5  1  0  0  0
  4 90  1  0  0  0
  4 91  1  0  0  0
  5  6  1  0  0  0
  5 26  1  0  0  0
  5 92  1  0  0  0
  6 25  1  0  0  0
  6 93  1  0  0  0
  6 94  1  0  0  0
  7  8  2  0  0  0
  7 26  1  0  0  0
  7 29  1  0  0  0
  8  9  1  0  0  0
  8 22  1  0  0  0
  9 10  1  0  0  0
  9 27  2  0  0  0
 10 11  2  0  0  0
 10 15  1  0  0  0
 11 12  1  0  0  0
 11 95  1  0  0  0
 12 13  2  0  0  0
 12 96  1  0  0  0
 13 14  1  0  0  0
 13 31  1  0  0  0
 14 15  2  0  0  0
 14 97  1  0  0  0
 15 98  1  0  0  0
 16 17  2  0  0  0
 16 21  1  0  0  0
 16 31  1  0  0  0
 17 18  1  0  0  0
 17 99  1  0  0  0
 18 19  2  0  0  0
 18100  1  0  0  0
 19 20  1  0  0  0
 19 24  1  0  0  0
 20 21  2  0  0  0
 20101  1  0  0  0
 21 23  1  0  0  0
 22 28  1  0  0  0
 22 32  2  0  0  0
 26 27  1  0  0  0
 28102  1  0  0  0
 28103  1  0  0  0
 29104  1  0  0  0
 29105  1  0  0  0
 33 34  1  0  0  0
 33 66  1  0  0  0
 33 70  2  0  0  0
 34 36  1  0  0  0
 34 59  1  0  0  0
 34106  1  0  0  0
 35 44  2  0  0  0
 35 45  1  0  0  0
 35 68  1  0  0  0
 36 56  1  0  0  0
 36107  1  0  0  0
 37 39  1  0  0  0
 37 47  1  0  0  0
 37 66  1  0  0  0
 37108  1  0  0  0
 38 43  2  0  0  0
 38 46  1  0  0  0
 38 47  1  0  0  0
 39 64  1  0  0  0
 39 67  2  0  0  0
 40 52  1  0  0  0
 40 53  2  0  0  0
 40 58  1  0  0  0
 41109  1  0  0  0
 41110  1  0  0  0
 41111  1  0  0  0
 41 48  1  0  0  0
 42 43  1  0  0  0
 42 66  1  0  0  0
 42112  1  0  0  0
 42113  1  0  0  0
 43 44  1  0  0  0
 44114  1  0  0  0
 45 46  2  0  0  0
 45115  1  0  0  0
 46116  1  0  0  0
 47117  1  0  0  0
 47118  1  0  0  0
 48 56  1  0  0  0
 48 65  1  0  0  0
 48119  1  0  0  0
 49 50  1  0  0  0
 49 53  1  0  0  0
 49 64  1  0  0  0
 49120  1  0  0  0
 50 51  1  0  0  0
 50121  1  0  0  0
 50122  1  0  0  0
 51 52  1  0  0  0
 51123  1  0  0  0
 51124  1  0  0  0
 52125  1  0  0  0
 52126  1  0  0  0
 53 54  1  0  0  0
 54 55  2  0  0  0
 54127  1  0  0  0
 55 57  1  0  0  0
 55128  1  0  0  0
 56 69  2  0  0  0
 57 58  2  0  0  0
 57129  1  0  0  0
 58130  1  0  0  0
 59 60  1  0  0  0
 59 61  1  0  0  0
 59 62  1  0  0  0
 60131  1  0  0  0
 60132  1  0  0  0
 60133  1  0  0  0
 61134  1  0  0  0
 61135  1  0  0  0
 61136  1  0  0  0
 62137  1  0  0  0
 62138  1  0  0  0
 62139  1  0  0  0
 63 65  1  0  0  0
 63140  1  0  0  0
 63141  1  0  0  0
 63142  1  0  0  0
 64143  1  0  0  0
 65144  1  0  0  0
 68 81  1  0  0  0
 71 72  2  0  0  0
 71 74  1  0  0  0
 71145  1  0  0  0
 72 76  1  0  0  0
 72146  1  0  0  0
 73 74  2  0  0  0
 73 75  1  0  0  0
 73147  1  0  0  0
 74 83  1  0  0  0
 75 76  2  0  0  0
 75 82  1  0  0  0
 76 84  1  0  0  0
 77 78  2  0  0  0
 77 79  1  0  0  0
 77 85  1  0  0  0
 78148  1  0  0  0
 78149  1  0  0  0
 79 81  1  0  0  0
 79150  1  0  0  0
 79151  1  0  0  0
 80 81  1  0  0  0
 80 85  1  0  0  0
 80152  1  0  0  0
 80153  1  0  0  0
 81154  1  0  0  0
 82155  1  0  0  0
 82156  1  0  0  0
 82157  1  0  0  0
 83158  1  0  0  0
 83159  1  0  0  0
 83 85  1  0  0  0
 84160  1  0  0  0
 85161  1  0  0  0
M  CHG  1  85   1
M  ISO  4   1 100  68 101  81 101  84 100
M  END
> <chiral flag>
0

> <version>
0

> <s_m_source_file>
/data/baiqing/PycharmProjects/Reinvent-master-3.2/result/LINK_invent/BTK/process_docking_weight1_custom_product_contain_oxygen_bond_distance_aromatic_linkinvent_7_9_3/rearranged_h_0033.sdf

> <i_m_source_file_index>
84

> <r_mmod_Potential_Energy-OPLS-2005>
58.8600807189941

> <r_mmod_Stretch_Energy-OPLS-2005>
87.6289367675781

> <r_mmod_Bend_Energy-OPLS-2005>
219.845199584961

> <r_mmod_Torsional_Energy-OPLS-2005>
276.249694824219

> <r_mmod_Improper_Torsional_Energy-OPLS-2005>
8.1492280960083

> <r_mmod_Van_der_Waal_Energy-OPLS-2005>
125.254692077637

> <r_mmod_Electrostatic_Energy-OPLS-2005>
-281.502319335938

> <r_mmod_Solvation_Energy-OPLS-2005>
-437.618713378906

> <b_mmod_Minimization_Converged-OPLS-2005>
0

> <r_mmod_RMS_Derivative-OPLS-2005>
4.70870161056519

$$$$
84
                    3D
 Structure written by MMmdl.
164173  0  0  1  0            999 V2000
  -30.6730  -14.5545   20.4644 C   0  0  0  0  0  0
  -30.4357  -12.3091   19.4664 C   0  0  0  0  0  0
  -29.4993  -12.3850   18.2392 C   0  0  0  0  0  0
  -28.0175  -12.3119   18.6474 C   0  0  0  0  0  0
  -27.6593  -13.2060   19.8651 C   0  0  2  0  0  0
  -28.7050  -13.0556   20.9936 C   0  0  0  0  0  0
  -25.2573  -13.8170   20.5703 C   0  0  0  0  0  0
  -24.1820  -13.0445   20.9180 C   0  0  0  0  0  0
  -24.6374  -11.6909   20.8751 C   0  0  0  0  0  0
  -23.9054  -10.4287   21.0402 C   0  0  0  0  0  0
  -24.3589   -9.4187   21.9177 C   0  0  0  0  0  0
  -23.6262   -8.2224   22.0740 C   0  0  0  0  0  0
  -22.4251   -8.0267   21.3527 C   0  0  0  0  0  0
  -21.9887   -9.0250   20.4645 C   0  0  0  0  0  0
  -22.7220  -10.2125   20.3062 C   0  0  0  0  0  0
  -21.6847   -6.0721   22.5268 C   0  0  0  0  0  0
  -21.4017   -6.5623   23.8207 C   0  0  0  0  0  0
  -21.3658   -5.6778   24.9167 C   0  0  0  0  0  0
  -21.6053   -4.3045   24.7212 C   0  0  0  0  0  0
  -21.8822   -3.8138   23.4330 C   0  0  0  0  0  0
  -21.9185   -4.6951   22.3385 C   0  0  0  0  0  0
  -22.7843  -13.5245   21.1827 C   0  0  0  0  0  0
  -22.1645   -4.2139   21.0960 F   0  0  0  0  0  0
  -21.5628   -3.4525   25.7719 F   0  0  0  0  0  0
  -30.0295  -13.3518   20.4246 N   0  0  0  0  0  0
  -26.3019  -12.9350   20.3380 N   0  0  0  0  0  0
  -25.9310  -11.6518   20.5833 N   0  0  0  0  0  0
  -22.0492  -12.8262   22.0406 N   0  0  0  0  0  0
  -25.4315  -15.1890   20.4111 N   0  0  0  0  0  0
  -31.8449  -14.6937   20.1090 O   0  0  0  0  0  0
  -21.6604   -6.8868   21.4240 O   0  0  0  0  0  0
  -22.3538  -14.5558   20.6666 O   0  0  0  0  0  0
  -24.6148  -31.8668   23.2117 C   0  0  0  0  0  0
  -25.9041  -32.4815   23.8410 C   0  0  1  0  0  0
  -27.2242  -27.4037   20.1153 C   0  0  0  0  0  0
  -25.5906  -33.8619   24.2328 N   0  0  0  0  0  0
  -23.4035  -30.4912   21.5532 C   0  0  2  0  0  0
  -24.8496  -28.9620   20.1115 C   0  0  0  0  0  0
  -22.7411  -29.4640   22.4996 C   0  0  0  0  0  0
  -18.0272  -28.1350   22.8494 C   0  0  0  0  0  0
  -24.1489  -36.7301   23.2639 C   0  0  0  0  0  0
  -25.9356  -30.8242   21.3727 C   0  0  0  0  0  0
  -26.0106  -29.4589   20.7159 C   0  0  0  0  0  0
  -27.1976  -28.6869   20.7159 C   0  0  0  0  0  0
  -26.0496  -26.9501   19.4680 C   0  0  0  0  0  0
  -24.8662  -27.7083   19.4825 C   0  0  0  0  0  0
  -23.6125  -29.8293   20.1653 C   0  0  0  0  0  0
  -25.4113  -36.3114   24.0340 C   0  0  1  0  0  0
  -20.5864  -28.3640   23.1325 C   0  0  2  0  0  0
  -20.6765  -26.9378   22.5419 C   0  0  0  0  0  0
  -19.5747  -26.6369   21.5207 C   0  0  0  0  0  0
  -18.1923  -26.7902   22.1620 C   0  0  0  0  0  0
  -19.1519  -28.8811   23.2910 C   0  0  0  0  0  0
  -18.9450  -30.1418   23.8919 C   0  0  0  0  0  0
  -17.6452  -30.6571   24.0553 C   0  0  0  0  0  0
  -25.9032  -34.9474   23.5127 C   0  0  0  0  0  0
  -16.5339  -29.9061   23.6332 C   0  0  0  0  0  0
  -16.7262  -28.6468   23.0367 C   0  0  0  0  0  0
  -26.4477  -31.6606   25.0741 C   0  0  0  0  0  0
  -25.3747  -31.3692   26.1491 C   0  0  0  0  0  0
  -27.0300  -30.3047   24.6122 C   0  0  0  0  0  0
  -27.6051  -32.4332   25.7490 C   0  0  0  0  0  0
  -27.5582  -37.1814   24.8466 C   0  0  0  0  0  0
  -21.4138  -29.3018   22.3740 N   0  0  0  0  0  0
  -26.4296  -37.3800   23.9407 N   0  0  0  0  0  0
  -24.6695  -31.0747   22.1037 N   0  0  0  0  0  0
  -23.4183  -28.8177   23.3033 O   0  0  0  0  0  0
  -28.3815  -26.6395   20.1917 O   0  0  0  0  0  0
  -26.5580  -34.8925   22.4679 O   0  0  0  0  0  0
  -23.5337  -32.1426   23.7499 O   0  0  0  0  0  0
  -28.8432  -19.1763   18.6177 C   0  0  0  0  0  0
  -29.3263  -18.0704   17.9134 C   0  0  0  0  0  0
  -29.3806  -18.0632   20.7045 C   0  0  0  0  0  0
  -28.9665  -19.2523   20.0212 C   0  0  0  0  0  0
  -29.7608  -16.8701   20.0081 C   0  0  0  0  0  0
  -29.8175  -16.9408   18.5824 C   0  0  0  0  0  0
  -28.4229  -23.0054   21.3911 C   0  0  0  0  0  0
  -27.4562  -22.7676   22.3037 C   0  0  0  0  0  0
  -29.0033  -24.4229   21.1937 C   0  0  0  0  0  0
  -29.7190  -23.5685   18.6015 C   0  0  0  0  0  0
  -28.8220  -24.8225   18.6584 C   0  0  0  0  0  0
  -29.0683  -22.2381   19.0466 C   0  0  0  0  0  0
  -28.2923  -25.1979   20.0530 C   0  0  2  0  0  0
  -28.4722  -20.5190   20.7833 C   0  0  0  0  0  0
  -29.9016  -15.6309   20.7514 N   0  0  0  0  0  0
  -29.0412  -21.9081   20.5087 N   0  3  2  0  0  0
  -30.4047  -15.6982   17.5444 Cl  0  0  0  0  0  0
  -31.4764  -12.4146   19.1537 H   0  0  0  0  0  0
  -30.3656  -11.3284   19.9387 H   0  0  0  0  0  0
  -29.7299  -11.5677   17.5549 H   0  0  0  0  0  0
  -29.6734  -13.2867   17.6698 H   0  0  0  0  0  0
  -27.8126  -11.2688   18.8866 H   0  0  0  0  0  0
  -27.3781  -12.5561   17.7985 H   0  0  0  0  0  0
  -27.6886  -14.2384   19.5150 H   0  0  0  0  0  0
  -28.6909  -12.0399   21.3934 H   0  0  0  0  0  0
  -28.4712  -13.7100   21.8346 H   0  0  0  0  0  0
  -25.2728   -9.5659   22.4750 H   0  0  0  0  0  0
  -23.9979   -7.4628   22.7462 H   0  0  0  0  0  0
  -21.0819   -8.8783   19.8943 H   0  0  0  0  0  0
  -22.3699  -10.9661   19.6167 H   0  0  0  0  0  0
  -21.2013   -7.6140   23.9706 H   0  0  0  0  0  0
  -21.1485   -6.0501   25.9073 H   0  0  0  0  0  0
  -22.0611   -2.7600   23.2831 H   0  0  0  0  0  0
  -22.4111  -11.9911   22.4779 H   0  0  0  0  0  0
  -21.1133  -13.1330   22.2659 H   0  0  0  0  0  0
  -24.6690  -15.8460   20.5330 H   0  0  0  0  0  0
  -26.2813  -15.6257   20.0782 H   0  0  0  0  0  0
  -26.7112  -32.5518   23.1174 H   0  0  0  0  0  0
  -25.0129  -33.9785   25.0525 H   0  0  0  0  0  0
  -22.6930  -31.3088   21.4174 H   0  0  0  0  0  0
  -23.3756  -35.9629   23.3304 H   0  0  0  0  0  0
  -24.3586  -36.8898   22.2051 H   0  0  0  0  0  0
  -23.7228  -37.6506   23.6639 H   0  0  0  0  0  0
  -26.0572  -31.5934   20.6084 H   0  0  0  0  0  0
  -26.8195  -30.8697   21.9977 H   0  0  0  0  0  0
  -28.0870  -29.0596   21.2051 H   0  0  0  0  0  0
  -26.0183  -26.0097   18.9402 H   0  0  0  0  0  0
  -23.9781  -27.3246   18.9983 H   0  0  0  0  0  0
  -23.7204  -30.6056   19.4067 H   0  0  0  0  0  0
  -22.7370  -29.2485   19.8694 H   0  0  0  0  0  0
  -25.1295  -36.1992   25.0836 H   0  0  0  0  0  0
  -20.9952  -28.3187   24.1445 H   0  0  0  0  0  0
  -20.5653  -26.2233   23.3590 H   0  0  0  0  0  0
  -21.6639  -26.7410   22.1223 H   0  0  0  0  0  0
  -19.6905  -25.6285   21.1216 H   0  0  0  0  0  0
  -19.6700  -27.3194   20.6750 H   0  0  0  0  0  0
  -17.4199  -26.6652   21.4018 H   0  0  0  0  0  0
  -18.0326  -26.0028   22.9000 H   0  0  0  0  0  0
  -19.7924  -30.7220   24.2309 H   0  0  0  0  0  0
  -17.5011  -31.6263   24.5125 H   0  0  0  0  0  0
  -15.5342  -30.2968   23.7644 H   0  0  0  0  0  0
  -15.8659  -28.0780   22.7100 H   0  0  0  0  0  0
  -24.5935  -30.7024   25.7826 H   0  0  0  0  0  0
  -24.8925  -32.2833   26.4966 H   0  0  0  0  0  0
  -25.8123  -30.8854   27.0232 H   0  0  0  0  0  0
  -26.2846  -29.6828   24.1153 H   0  0  0  0  0  0
  -27.4032  -29.7279   25.4594 H   0  0  0  0  0  0
  -27.8709  -30.4353   23.9302 H   0  0  0  0  0  0
  -27.2671  -33.3630   26.2082 H   0  0  0  0  0  0
  -28.3846  -32.6894   25.0299 H   0  0  0  0  0  0
  -28.0737  -31.8450   26.5390 H   0  0  0  0  0  0
  -28.2612  -38.0101   24.7524 H   0  0  0  0  0  0
  -28.1071  -36.2636   24.6298 H   0  0  0  0  0  0
  -27.2292  -37.1466   25.8866 H   0  0  0  0  0  0
  -20.9277  -29.8765   21.6998 H   0  0  0  0  0  0
  -26.0186  -38.2880   24.1414 H   0  0  0  0  0  0
  -28.3876  -19.9621   18.0357 H   0  0  0  0  0  0
  -29.2913  -18.0770   16.8333 H   0  0  0  0  0  0
  -29.3532  -18.0455   21.7853 H   0  0  0  0  0  0
  -27.0714  -23.5823   22.9003 H   0  0  0  0  0  0
  -27.0188  -21.7995   22.4956 H   0  0  0  0  0  0
  -30.0881  -24.4170   21.0958 H   0  0  0  0  0  0
  -28.8296  -24.9680   22.1224 H   0  0  0  0  0  0
  -30.6686  -23.7295   19.1106 H   0  0  0  0  0  0
  -30.0026  -23.4506   17.5537 H   0  0  0  0  0  0
  -27.9820  -24.7177   17.9705 H   0  0  0  0  0  0
  -29.4043  -25.6578   18.2654 H   0  0  0  0  0  0
  -29.7104  -21.5036   18.5687 H   0  0  0  0  0  0
  -28.0685  -22.1470   18.6208 H   0  0  0  0  0  0
  -27.2600  -24.8621   20.1363 H   0  0  0  0  0  0
  -28.6059  -20.3139   21.8463 H   0  0  0  0  0  0
  -27.3956  -20.5608   20.6143 H   0  0  0  0  0  0
  -29.0952  -15.4005   21.3106 H   0  0  0  0  0  0
  -30.0111  -21.8234   20.7759 H   0  0  0  0  0  0
  1 25  1  0  0  0
  1 30  2  0  0  0
  1 85  1  0  0  0
  2  3  1  0  0  0
  2 25  1  0  0  0
  2 88  1  0  0  0
  2 89  1  0  0  0
  3  4  1  0  0  0
  3 90  1  0  0  0
  3 91  1  0  0  0
  4  5  1  0  0  0
  4 92  1  0  0  0
  4 93  1  0  0  0
  5  6  1  0  0  0
  5 26  1  0  0  0
  5 94  1  0  0  0
  6 25  1  0  0  0
  6 95  1  0  0  0
  6 96  1  0  0  0
  7  8  2  0  0  0
  7 26  1  0  0  0
  7 29  1  0  0  0
  8  9  1  0  0  0
  8 22  1  0  0  0
  9 10  1  0  0  0
  9 27  2  0  0  0
 10 11  2  0  0  0
 10 15  1  0  0  0
 11 12  1  0  0  0
 11 97  1  0  0  0
 12 13  2  0  0  0
 12 98  1  0  0  0
 13 14  1  0  0  0
 13 31  1  0  0  0
 14 15  2  0  0  0
 14 99  1  0  0  0
 15100  1  0  0  0
 16 17  2  0  0  0
 16 21  1  0  0  0
 16 31  1  0  0  0
 17 18  1  0  0  0
 17101  1  0  0  0
 18 19  2  0  0  0
 18102  1  0  0  0
 19 20  1  0  0  0
 19 24  1  0  0  0
 20 21  2  0  0  0
 20103  1  0  0  0
 21 23  1  0  0  0
 22 28  1  0  0  0
 22 32  2  0  0  0
 26 27  1  0  0  0
 28104  1  0  0  0
 28105  1  0  0  0
 29106  1  0  0  0
 29107  1  0  0  0
 33 34  1  0  0  0
 33 66  1  0  0  0
 33 70  2  0  0  0
 34 36  1  0  0  0
 34 59  1  0  0  0
 34108  1  0  0  0
 35 44  2  0  0  0
 35 45  1  0  0  0
 35 68  1  0  0  0
 36 56  1  0  0  0
 36109  1  0  0  0
 37 39  1  0  0  0
 37 47  1  0  0  0
 37 66  1  0  0  0
 37110  1  0  0  0
 38 43  2  0  0  0
 38 46  1  0  0  0
 38 47  1  0  0  0
 39 64  1  0  0  0
 39 67  2  0  0  0
 40 52  1  0  0  0
 40 53  2  0  0  0
 40 58  1  0  0  0
 41111  1  0  0  0
 41112  1  0  0  0
 41113  1  0  0  0
 41 48  1  0  0  0
 42 43  1  0  0  0
 42 66  1  0  0  0
 42114  1  0  0  0
 42115  1  0  0  0
 43 44  1  0  0  0
 44116  1  0  0  0
 45 46  2  0  0  0
 45117  1  0  0  0
 46118  1  0  0  0
 47119  1  0  0  0
 47120  1  0  0  0
 48 56  1  0  0  0
 48 65  1  0  0  0
 48121  1  0  0  0
 49 50  1  0  0  0
 49 53  1  0  0  0
 49 64  1  0  0  0
 49122  1  0  0  0
 50 51  1  0  0  0
 50123  1  0  0  0
 50124  1  0  0  0
 51 52  1  0  0  0
 51125  1  0  0  0
 51126  1  0  0  0
 52127  1  0  0  0
 52128  1  0  0  0
 53 54  1  0  0  0
 54 55  2  0  0  0
 54129  1  0  0  0
 55 57  1  0  0  0
 55130  1  0  0  0
 56 69  2  0  0  0
 57 58  2  0  0  0
 57131  1  0  0  0
 58132  1  0  0  0
 59 60  1  0  0  0
 59 61  1  0  0  0
 59 62  1  0  0  0
 60133  1  0  0  0
 60134  1  0  0  0
 60135  1  0  0  0
 61136  1  0  0  0
 61137  1  0  0  0
 61138  1  0  0  0
 62139  1  0  0  0
 62140  1  0  0  0
 62141  1  0  0  0
 63 65  1  0  0  0
 63142  1  0  0  0
 63143  1  0  0  0
 63144  1  0  0  0
 64145  1  0  0  0
 65146  1  0  0  0
 68 83  1  0  0  0
 71 72  2  0  0  0
 71 74  1  0  0  0
 71147  1  0  0  0
 72 76  1  0  0  0
 72148  1  0  0  0
 73 74  2  0  0  0
 73 75  1  0  0  0
 73149  1  0  0  0
 74 84  1  0  0  0
 75 76  2  0  0  0
 75 85  1  0  0  0
 76 87  1  0  0  0
 77 78  2  0  0  0
 77 79  1  0  0  0
 77 86  1  0  0  0
 78150  1  0  0  0
 78151  1  0  0  0
 79 83  1  0  0  0
 79152  1  0  0  0
 79153  1  0  0  0
 80 81  1  0  0  0
 80 82  1  0  0  0
 80154  1  0  0  0
 80155  1  0  0  0
 81 83  1  0  0  0
 81156  1  0  0  0
 81157  1  0  0  0
 82 86  1  0  0  0
 82158  1  0  0  0
 82159  1  0  0  0
 83160  1  0  0  0
 84161  1  0  0  0
 84162  1  0  0  0
 84 86  1  0  0  0
 85163  1  0  0  0
 86164  1  0  0  0
M  CHG  1  86   1
M  ISO  4   1 100  68 101  83 101  85 100
M  END
> <chiral flag>
0

> <version>
0

> <s_m_source_file>
/data/baiqing/PycharmProjects/Reinvent-master-3.2/result/LINK_invent/BTK/process_docking_weight1_custom_product_contain_oxygen_bond_distance_aromatic_linkinvent_7_9_3/rearranged_h_0033.sdf

> <i_m_source_file_index>
85

> <r_mmod_Potential_Energy-OPLS-2005>
-16.6998157501221

> <r_mmod_Stretch_Energy-OPLS-2005>
61.0026664733887

> <r_mmod_Bend_Energy-OPLS-2005>
151.357360839844

> <r_mmod_Torsional_Energy-OPLS-2005>
280.880249023438

> <r_mmod_Improper_Torsional_Energy-OPLS-2005>
6.93478012084961

> <r_mmod_Van_der_Waal_Energy-OPLS-2005>
180.275360107422

> <r_mmod_Electrostatic_Energy-OPLS-2005>
-261.358123779297

> <r_mmod_Solvation_Energy-OPLS-2005>
-465.427734375

> <b_mmod_Minimization_Converged-OPLS-2005>
0

> <r_mmod_RMS_Derivative-OPLS-2005>
2.11668848991394

$$$$
85
                    3D
 Structure written by MMmdl.
160169  0  0  1  0            999 V2000
  -30.5781  -14.7452   20.4529 C   0  0  0  0  0  0
  -30.4405  -12.4588   19.4579 C   0  0  0  0  0  0
  -29.5081  -12.5030   18.2274 C   0  0  0  0  0  0
  -28.0343  -12.3268   18.6469 C   0  0  0  0  0  0
  -27.6409  -13.2258   19.8490 C   0  0  2  0  0  0
  -28.6885  -13.1427   20.9803 C   0  0  0  0  0  0
  -25.2513  -13.8181   20.5688 C   0  0  0  0  0  0
  -24.1807  -13.0432   20.9221 C   0  0  0  0  0  0
  -24.6397  -11.6912   20.8751 C   0  0  0  0  0  0
  -23.9066  -10.4292   21.0407 C   0  0  0  0  0  0
  -24.3621   -9.4213   21.9178 C   0  0  0  0  0  0
  -23.6303   -8.2245   22.0745 C   0  0  0  0  0  0
  -22.4279   -8.0281   21.3546 C   0  0  0  0  0  0
  -21.9918   -9.0254   20.4643 C   0  0  0  0  0  0
  -22.7244  -10.2135   20.3054 C   0  0  0  0  0  0
  -21.6864   -6.0733   22.5276 C   0  0  0  0  0  0
  -21.4016   -6.5637   23.8205 C   0  0  0  0  0  0
  -21.3656   -5.6788   24.9163 C   0  0  0  0  0  0
  -21.6050   -4.3050   24.7222 C   0  0  0  0  0  0
  -21.8825   -3.8149   23.4341 C   0  0  0  0  0  0
  -21.9196   -4.6962   22.3395 C   0  0  0  0  0  0
  -22.7831  -13.5215   21.1893 C   0  0  0  0  0  0
  -22.1664   -4.2148   21.0969 F   0  0  0  0  0  0
  -21.5632   -3.4536   25.7734 F   0  0  0  0  0  0
  -29.9849  -13.5070   20.3947 N   0  0  0  0  0  0
  -26.2930  -12.9377   20.3258 N   0  0  0  0  0  0
  -25.9319  -11.6537   20.5760 N   0  0  0  0  0  0
  -22.0485  -12.8182   22.0436 N   0  0  0  0  0  0
  -25.4187  -15.1908   20.4064 N   0  0  0  0  0  0
  -31.7708  -14.8782   20.1678 O   0  0  0  0  0  0
  -21.6647   -6.8880   21.4238 O   0  0  0  0  0  0
  -22.3508  -14.5514   20.6742 O   0  0  0  0  0  0
  -24.6283  -31.8552   23.1988 C   0  0  0  0  0  0
  -25.9127  -32.4751   23.8337 C   0  0  1  0  0  0
  -27.2245  -27.2794   20.1438 C   0  0  0  0  0  0
  -25.5958  -33.8562   24.2271 N   0  0  0  0  0  0
  -23.4224  -30.4747   21.5426 C   0  0  2  0  0  0
  -24.8693  -28.9122   20.1180 C   0  0  0  0  0  0
  -22.7460  -29.4609   22.4963 C   0  0  0  0  0  0
  -18.0291  -28.1371   22.8501 C   0  0  0  0  0  0
  -24.1469  -36.7281   23.2642 C   0  0  0  0  0  0
  -25.9622  -30.7792   21.3665 C   0  0  0  0  0  0
  -26.0397  -29.3998   20.7147 C   0  0  0  0  0  0
  -27.2210  -28.5972   20.7085 C   0  0  0  0  0  0
  -26.0340  -26.8408   19.5322 C   0  0  0  0  0  0
  -24.8706  -27.6408   19.5169 C   0  0  0  0  0  0
  -23.6367  -29.7953   20.1636 C   0  0  0  0  0  0
  -25.4099  -36.3074   24.0330 C   0  0  1  0  0  0
  -20.5893  -28.3673   23.1299 C   0  0  2  0  0  0
  -20.6769  -26.9391   22.5426 C   0  0  0  0  0  0
  -19.5742  -26.6376   21.5225 C   0  0  0  0  0  0
  -18.1927  -26.7916   22.1639 C   0  0  0  0  0  0
  -19.1544  -28.8836   23.2890 C   0  0  0  0  0  0
  -18.9480  -30.1459   23.8868 C   0  0  0  0  0  0
  -17.6479  -30.6575   24.0558 C   0  0  0  0  0  0
  -25.9048  -34.9450   23.5106 C   0  0  0  0  0  0
  -16.5369  -29.9068   23.6340 C   0  0  0  0  0  0
  -16.7277  -28.6492   23.0342 C   0  0  0  0  0  0
  -26.4510  -31.6571   25.0717 C   0  0  0  0  0  0
  -25.3757  -31.3696   26.1450 C   0  0  0  0  0  0
  -27.0353  -30.2992   24.6173 C   0  0  0  0  0  0
  -27.6050  -32.4312   25.7512 C   0  0  0  0  0  0
  -27.5560  -37.1784   24.8468 C   0  0  0  0  0  0
  -21.4170  -29.3051   22.3711 N   0  0  0  0  0  0
  -26.4274  -37.3771   23.9410 N   0  0  0  0  0  0
  -24.6900  -31.0535   22.0943 N   0  0  0  0  0  0
  -23.4179  -28.8151   23.3045 O   0  0  0  0  0  0
  -28.3567  -26.4438   20.1354 O   0  0  0  0  0  0
  -26.5614  -34.8923   22.4673 O   0  0  0  0  0  0
  -23.5446  -32.1387   23.7302 O   0  0  0  0  0  0
  -27.9109  -20.9165   18.9254 C   0  0  0  0  0  0
  -27.9283  -19.6646   18.2761 C   0  0  0  0  0  0
  -29.2260  -19.9403   20.7016 C   0  0  0  0  0  0
  -29.2385  -18.6208   20.0816 C   0  0  0  0  0  0
  -28.5226  -21.1114   20.1830 C   0  0  0  0  0  0
  -28.5520  -18.5304   18.8387 C   0  0  0  0  0  0
  -27.8082  -22.4875   22.1598 C   0  0  0  0  0  0
  -27.8798  -21.5371   23.1111 C   0  0  0  0  0  0
  -27.0170  -23.7587   22.4809 C   0  0  0  0  0  0
  -27.7576  -25.0654   22.1695 C   0  0  0  0  0  0
  -28.1825  -23.6655   20.0063 C   0  0  0  0  0  0
  -28.3954  -25.0782   20.7673 C   0  0  1  0  0  0
  -29.9902  -17.3504   20.7202 C   0  0  0  0  0  0
  -28.3310  -22.4000   20.8510 N   0  0  0  0  0  0
  -29.7439  -15.8373   20.6333 N   0  0  0  0  0  0
  -28.4501  -17.0433   17.9628 Cl  0  0  0  0  0  0
  -31.4758  -12.6074   19.1475 H   0  0  0  0  0  0
  -30.4077  -11.4796   19.9371 H   0  0  0  0  0  0
  -29.7890  -11.7278   17.5125 H   0  0  0  0  0  0
  -29.6281  -13.4555   17.7088 H   0  0  0  0  0  0
  -27.8929  -11.2783   18.9074 H   0  0  0  0  0  0
  -27.3727  -12.5177   17.8010 H   0  0  0  0  0  0
  -27.6367  -14.2477   19.4711 H   0  0  0  0  0  0
  -28.7316  -12.1387   21.4035 H   0  0  0  0  0  0
  -28.4271  -13.8099   21.8044 H   0  0  0  0  0  0
  -25.2774   -9.5683   22.4749 H   0  0  0  0  0  0
  -24.0014   -7.4633   22.7469 H   0  0  0  0  0  0
  -21.0850   -8.8785   19.8946 H   0  0  0  0  0  0
  -22.3720  -10.9673   19.6159 H   0  0  0  0  0  0
  -21.2015   -7.6151   23.9712 H   0  0  0  0  0  0
  -21.1466   -6.0512   25.9063 H   0  0  0  0  0  0
  -22.0609   -2.7615   23.2838 H   0  0  0  0  0  0
  -22.4134  -11.9837   22.4793 H   0  0  0  0  0  0
  -21.1106  -13.1187   22.2670 H   0  0  0  0  0  0
  -24.6414  -15.8330   20.5105 H   0  0  0  0  0  0
  -26.2402  -15.6282   20.0079 H   0  0  0  0  0  0
  -26.7195  -32.5404   23.1092 H   0  0  0  0  0  0
  -25.0124  -33.9722   25.0426 H   0  0  0  0  0  0
  -22.7217  -31.2980   21.3930 H   0  0  0  0  0  0
  -23.3734  -35.9611   23.3311 H   0  0  0  0  0  0
  -24.3548  -36.8893   22.2052 H   0  0  0  0  0  0
  -23.7219  -37.6487   23.6653 H   0  0  0  0  0  0
  -26.0888  -31.5390   20.5927 H   0  0  0  0  0  0
  -26.8426  -30.8333   21.9960 H   0  0  0  0  0  0
  -28.1248  -28.9701   21.1711 H   0  0  0  0  0  0
  -26.0038  -25.8645   19.0689 H   0  0  0  0  0  0
  -23.9717  -27.2591   19.0501 H   0  0  0  0  0  0
  -23.7541  -30.5639   19.3981 H   0  0  0  0  0  0
  -22.7546  -29.2192   19.8738 H   0  0  0  0  0  0
  -25.1283  -36.1936   25.0818 H   0  0  0  0  0  0
  -20.9986  -28.3234   24.1427 H   0  0  0  0  0  0
  -20.5668  -26.2274   23.3618 H   0  0  0  0  0  0
  -21.6639  -26.7411   22.1227 H   0  0  0  0  0  0
  -19.6890  -25.6295   21.1244 H   0  0  0  0  0  0
  -19.6672  -27.3197   20.6773 H   0  0  0  0  0  0
  -17.4198  -26.6685   21.4033 H   0  0  0  0  0  0
  -18.0306  -26.0056   22.9033 H   0  0  0  0  0  0
  -19.7962  -30.7286   24.2190 H   0  0  0  0  0  0
  -17.5030  -31.6242   24.5188 H   0  0  0  0  0  0
  -15.5359  -30.2943   23.7667 H   0  0  0  0  0  0
  -15.8692  -28.0795   22.7041 H   0  0  0  0  0  0
  -24.5932  -30.7039   25.7782 H   0  0  0  0  0  0
  -24.8966  -32.2869   26.4887 H   0  0  0  0  0  0
  -25.8137  -30.8877   27.0209 H   0  0  0  0  0  0
  -26.2935  -29.6711   24.1211 H   0  0  0  0  0  0
  -27.4060  -29.7266   25.4683 H   0  0  0  0  0  0
  -27.8790  -30.4270   23.9383 H   0  0  0  0  0  0
  -27.2642  -33.3599   26.2093 H   0  0  0  0  0  0
  -28.3890  -32.6889   25.0377 H   0  0  0  0  0  0
  -28.0671  -31.8429   26.5445 H   0  0  0  0  0  0
  -28.2602  -38.0051   24.7494 H   0  0  0  0  0  0
  -28.1034  -36.2594   24.6323 H   0  0  0  0  0  0
  -27.2281  -37.1465   25.8870 H   0  0  0  0  0  0
  -20.9333  -29.8786   21.6954 H   0  0  0  0  0  0
  -26.0163  -38.2862   24.1370 H   0  0  0  0  0  0
  -27.3638  -21.7168   18.4494 H   0  0  0  0  0  0
  -27.4250  -19.5645   17.3254 H   0  0  0  0  0  0
  -29.7787  -20.0382   21.6226 H   0  0  0  0  0  0
  -27.4118  -21.6936   24.0722 H   0  0  0  0  0  0
  -28.3690  -20.5870   23.0004 H   0  0  0  0  0  0
  -26.7248  -23.7736   23.5328 H   0  0  0  0  0  0
  -26.0812  -23.7264   21.9206 H   0  0  0  0  0  0
  -28.5394  -25.2188   22.9140 H   0  0  0  0  0  0
  -27.0649  -25.8920   22.3130 H   0  0  0  0  0  0
  -28.8755  -23.6110   19.1660 H   0  0  0  0  0  0
  -27.1820  -23.6663   19.5744 H   0  0  0  0  0  0
  -29.4612  -25.0174   20.9893 H   0  0  0  0  0  0
  -30.4904  -17.2611   19.7554 H   0  0  0  0  0  0
  -28.9493  -17.2159   21.0212 H   0  0  0  0  0  0
  -28.7787  -15.5763   20.7612 H   0  0  0  0  0  0
  1 25  1  0  0  0
  1 30  2  0  0  0
  1 85  1  0  0  0
  2  3  1  0  0  0
  2 25  1  0  0  0
  2 87  1  0  0  0
  2 88  1  0  0  0
  3  4  1  0  0  0
  3 89  1  0  0  0
  3 90  1  0  0  0
  4  5  1  0  0  0
  4 91  1  0  0  0
  4 92  1  0  0  0
  5  6  1  0  0  0
  5 26  1  0  0  0
  5 93  1  0  0  0
  6 25  1  0  0  0
  6 94  1  0  0  0
  6 95  1  0  0  0
  7  8  2  0  0  0
  7 26  1  0  0  0
  7 29  1  0  0  0
  8  9  1  0  0  0
  8 22  1  0  0  0
  9 10  1  0  0  0
  9 27  2  0  0  0
 10 11  2  0  0  0
 10 15  1  0  0  0
 11 12  1  0  0  0
 11 96  1  0  0  0
 12 13  2  0  0  0
 12 97  1  0  0  0
 13 14  1  0  0  0
 13 31  1  0  0  0
 14 15  2  0  0  0
 14 98  1  0  0  0
 15 99  1  0  0  0
 16 17  2  0  0  0
 16 21  1  0  0  0
 16 31  1  0  0  0
 17 18  1  0  0  0
 17100  1  0  0  0
 18 19  2  0  0  0
 18101  1  0  0  0
 19 20  1  0  0  0
 19 24  1  0  0  0
 20 21  2  0  0  0
 20102  1  0  0  0
 21 23  1  0  0  0
 22 28  1  0  0  0
 22 32  2  0  0  0
 26 27  1  0  0  0
 28103  1  0  0  0
 28104  1  0  0  0
 29105  1  0  0  0
 29106  1  0  0  0
 33 34  1  0  0  0
 33 66  1  0  0  0
 33 70  2  0  0  0
 34 36  1  0  0  0
 34 59  1  0  0  0
 34107  1  0  0  0
 35 44  2  0  0  0
 35 45  1  0  0  0
 35 68  1  0  0  0
 36 56  1  0  0  0
 36108  1  0  0  0
 37 39  1  0  0  0
 37 47  1  0  0  0
 37 66  1  0  0  0
 37109  1  0  0  0
 38 43  2  0  0  0
 38 46  1  0  0  0
 38 47  1  0  0  0
 39 64  1  0  0  0
 39 67  2  0  0  0
 40 52  1  0  0  0
 40 53  2  0  0  0
 40 58  1  0  0  0
 41110  1  0  0  0
 41111  1  0  0  0
 41112  1  0  0  0
 41 48  1  0  0  0
 42 43  1  0  0  0
 42 66  1  0  0  0
 42113  1  0  0  0
 42114  1  0  0  0
 43 44  1  0  0  0
 44115  1  0  0  0
 45 46  2  0  0  0
 45116  1  0  0  0
 46117  1  0  0  0
 47118  1  0  0  0
 47119  1  0  0  0
 48 56  1  0  0  0
 48 65  1  0  0  0
 48120  1  0  0  0
 49 50  1  0  0  0
 49 53  1  0  0  0
 49 64  1  0  0  0
 49121  1  0  0  0
 50 51  1  0  0  0
 50122  1  0  0  0
 50123  1  0  0  0
 51 52  1  0  0  0
 51124  1  0  0  0
 51125  1  0  0  0
 52126  1  0  0  0
 52127  1  0  0  0
 53 54  1  0  0  0
 54 55  2  0  0  0
 54128  1  0  0  0
 55 57  1  0  0  0
 55129  1  0  0  0
 56 69  2  0  0  0
 57 58  2  0  0  0
 57130  1  0  0  0
 58131  1  0  0  0
 59 60  1  0  0  0
 59 61  1  0  0  0
 59 62  1  0  0  0
 60132  1  0  0  0
 60133  1  0  0  0
 60134  1  0  0  0
 61135  1  0  0  0
 61136  1  0  0  0
 61137  1  0  0  0
 62138  1  0  0  0
 62139  1  0  0  0
 62140  1  0  0  0
 63 65  1  0  0  0
 63141  1  0  0  0
 63142  1  0  0  0
 63143  1  0  0  0
 64144  1  0  0  0
 65145  1  0  0  0
 68 82  1  0  0  0
 71 72  2  0  0  0
 71 75  1  0  0  0
 71146  1  0  0  0
 72 76  1  0  0  0
 72147  1  0  0  0
 73 74  1  0  0  0
 73 75  2  0  0  0
 73148  1  0  0  0
 74 76  2  0  0  0
 74 83  1  0  0  0
 75 84  1  0  0  0
 76 86  1  0  0  0
 77 78  2  0  0  0
 77 79  1  0  0  0
 77 84  1  0  0  0
 78149  1  0  0  0
 78150  1  0  0  0
 79 80  1  0  0  0
 79151  1  0  0  0
 79152  1  0  0  0
 80 82  1  0  0  0
 80153  1  0  0  0
 80154  1  0  0  0
 81 82  1  0  0  0
 81 84  1  0  0  0
 81155  1  0  0  0
 81156  1  0  0  0
 82157  1  0  0  0
 83 85  1  0  0  0
 83158  1  0  0  0
 83159  1  0  0  0
 85160  1  0  0  0
M  ISO  4   1 100  68 101  82 101  85 100
M  END
> <chiral flag>
0

> <version>
0

> <s_m_source_file>
/data/baiqing/PycharmProjects/Reinvent-master-3.2/result/LINK_invent/BTK/process_docking_weight1_custom_product_contain_oxygen_bond_distance_aromatic_linkinvent_7_9_3/rearranged_h_0033.sdf

> <i_m_source_file_index>
86

> <r_mmod_Potential_Energy-OPLS-2005>
377.431121826172

> <r_mmod_Stretch_Energy-OPLS-2005>
128.664428710938

> <r_mmod_Bend_Energy-OPLS-2005>
392.640014648438

> <r_mmod_Torsional_Energy-OPLS-2005>
256.661956787109

> <r_mmod_Improper_Torsional_Energy-OPLS-2005>
6.23849868774414

> <r_mmod_Van_der_Waal_Energy-OPLS-2005>
151.558395385742

> <r_mmod_Electrostatic_Energy-OPLS-2005>
-430.917846679688

> <r_mmod_Solvation_Energy-OPLS-2005>
-205.284942626953

> <b_mmod_Minimization_Converged-OPLS-2005>
0

> <r_mmod_RMS_Derivative-OPLS-2005>
2.68370795249939

$$$$
86
                    3D
 Structure written by MMmdl.
164173  0  0  1  0            999 V2000
  -30.5571  -14.7755   20.5092 C   0  0  0  0  0  0
  -30.4475  -12.4848   19.4750 C   0  0  0  0  0  0
  -29.5217  -12.5370   18.2366 C   0  0  0  0  0  0
  -28.0435  -12.3524   18.6356 C   0  0  0  0  0  0
  -27.6430  -13.2295   19.8493 C   0  0  2  0  0  0
  -28.6804  -13.1186   20.9898 C   0  0  0  0  0  0
  -25.2308  -13.8039   20.5362 C   0  0  0  0  0  0
  -24.1712  -13.0308   20.9194 C   0  0  0  0  0  0
  -24.6371  -11.6839   20.8762 C   0  0  0  0  0  0
  -23.9033  -10.4230   21.0407 C   0  0  0  0  0  0
  -24.3580   -9.4147   21.9184 C   0  0  0  0  0  0
  -23.6249   -8.2190   22.0748 C   0  0  0  0  0  0
  -22.4233   -8.0223   21.3549 C   0  0  0  0  0  0
  -21.9864   -9.0185   20.4647 C   0  0  0  0  0  0
  -22.7198  -10.2066   20.3053 C   0  0  0  0  0  0
  -21.6842   -6.0678   22.5294 C   0  0  0  0  0  0
  -21.3990   -6.5585   23.8216 C   0  0  0  0  0  0
  -21.3650   -5.6750   24.9184 C   0  0  0  0  0  0
  -21.6057   -4.3014   24.7233 C   0  0  0  0  0  0
  -21.8812   -3.8108   23.4351 C   0  0  0  0  0  0
  -21.9184   -4.6916   22.3414 C   0  0  0  0  0  0
  -22.7769  -13.5142   21.1883 C   0  0  0  0  0  0
  -22.1658   -4.2109   21.0981 F   0  0  0  0  0  0
  -21.5637   -3.4501   25.7742 F   0  0  0  0  0  0
  -29.9907  -13.5144   20.4437 N   0  0  0  0  0  0
  -26.2882  -12.9359   20.3137 N   0  0  0  0  0  0
  -25.9307  -11.6502   20.5734 N   0  0  0  0  0  0
  -22.0404  -12.8189   22.0472 N   0  0  0  0  0  0
  -25.3446  -15.1639   20.3208 N   0  0  0  0  0  0
  -31.6840  -14.9579   20.0373 O   0  0  0  0  0  0
  -21.6600   -6.8812   21.4255 O   0  0  0  0  0  0
  -22.3470  -14.5477   20.6768 O   0  0  0  0  0  0
  -24.6397  -31.8525   23.1990 C   0  0  0  0  0  0
  -25.9247  -32.4715   23.8312 C   0  0  1  0  0  0
  -27.2087  -27.2430   20.0864 C   0  0  0  0  0  0
  -25.6076  -33.8512   24.2269 N   0  0  0  0  0  0
  -23.4323  -30.4805   21.5428 C   0  0  2  0  0  0
  -24.8715  -28.9359   20.1069 C   0  0  0  0  0  0
  -22.7535  -29.4585   22.4879 C   0  0  0  0  0  0
  -18.0307  -28.1414   22.8468 C   0  0  0  0  0  0
  -24.1487  -36.7159   23.2630 C   0  0  0  0  0  0
  -25.9849  -30.7563   21.3835 C   0  0  0  0  0  0
  -26.0512  -29.3805   20.7180 C   0  0  0  0  0  0
  -27.2200  -28.5466   20.7042 C   0  0  0  0  0  0
  -25.9951  -26.8819   19.4498 C   0  0  0  0  0  0
  -24.8512  -27.6926   19.4658 C   0  0  0  0  0  0
  -23.6481  -29.8267   20.1549 C   0  0  0  0  0  0
  -25.4137  -36.3015   24.0319 C   0  0  1  0  0  0
  -20.5925  -28.3713   23.1256 C   0  0  2  0  0  0
  -20.6793  -26.9429   22.5399 C   0  0  0  0  0  0
  -19.5775  -26.6417   21.5182 C   0  0  0  0  0  0
  -18.1945  -26.7960   22.1585 C   0  0  0  0  0  0
  -19.1567  -28.8872   23.2856 C   0  0  0  0  0  0
  -18.9488  -30.1462   23.8888 C   0  0  0  0  0  0
  -17.6484  -30.6612   24.0562 C   0  0  0  0  0  0
  -25.9091  -34.9406   23.5066 C   0  0  0  0  0  0
  -16.5369  -29.9113   23.6347 C   0  0  0  0  0  0
  -16.7286  -28.6534   23.0359 C   0  0  0  0  0  0
  -26.4620  -31.6544   25.0696 C   0  0  0  0  0  0
  -25.3823  -31.3671   26.1389 C   0  0  0  0  0  0
  -27.0469  -30.2974   24.6169 C   0  0  0  0  0  0
  -27.6229  -32.4220   25.7471 C   0  0  0  0  0  0
  -27.5561  -37.1755   24.8498 C   0  0  0  0  0  0
  -21.4235  -29.3041   22.3613 N   0  0  0  0  0  0
  -26.4300  -37.3736   23.9410 N   0  0  0  0  0  0
  -24.7040  -31.0507   22.0947 N   0  0  0  0  0  0
  -23.4224  -28.8070   23.2949 O   0  0  0  0  0  0
  -28.2984  -26.3273   20.1166 O   0  0  0  0  0  0
  -26.5604  -34.8917   22.4586 O   0  0  0  0  0  0
  -23.5549  -32.1335   23.7302 O   0  0  0  0  0  0
  -27.8497  -19.6039   20.2581 C   0  0  0  0  0  0
  -27.8997  -17.2062   20.7294 C   0  0  0  0  0  0
  -29.2518  -19.6902   20.3359 C   0  0  0  0  0  0
  -29.3125  -17.1383   20.7241 C   0  0  0  0  0  0
  -27.1804  -18.3905   20.4643 C   0  0  0  0  0  0
  -29.9828  -18.4266   20.5495 C   0  0  0  0  0  0
  -28.5974  -22.1611   18.2030 C   0  0  0  0  0  0
  -28.8571  -21.0567   17.4637 C   0  0  0  0  0  0
  -27.7649  -23.3541   17.7139 C   0  0  0  0  0  0
  -28.2490  -24.7369   18.1772 C   0  0  0  0  0  0
  -28.8821  -23.6380   20.3887 C   0  0  0  0  0  0
  -28.1124  -24.8788   19.6970 C   0  0  2  0  0  0
  -28.3039  -20.7024   16.0894 C   0  0  0  0  0  0
  -29.8796  -21.1662   20.2977 C   0  0  0  0  0  0
  -29.8285  -15.7862   21.1207 N   0  0  0  0  0  0
  -29.2804  -22.3969   19.5453 N   0  3  2  0  0  0
  -25.4520  -18.3988   20.4446 Cl  0  0  0  0  0  0
  -31.7020  -18.4681   20.6849 Cl  0  0  0  0  0  0
  -31.4853  -12.6414   19.1732 H   0  0  0  0  0  0
  -30.4253  -11.4941   19.9294 H   0  0  0  0  0  0
  -29.8135  -11.7694   17.5192 H   0  0  0  0  0  0
  -29.6432  -13.4924   17.7276 H   0  0  0  0  0  0
  -27.8973  -11.3008   18.8746 H   0  0  0  0  0  0
  -27.3943  -12.5625   17.7847 H   0  0  0  0  0  0
  -27.6465  -14.2608   19.4969 H   0  0  0  0  0  0
  -28.7111  -12.0973   21.3736 H   0  0  0  0  0  0
  -28.3852  -13.7434   21.8339 H   0  0  0  0  0  0
  -25.2688   -9.5662   22.4793 H   0  0  0  0  0  0
  -23.9950   -7.4586   22.7465 H   0  0  0  0  0  0
  -21.0798   -8.8666   19.8963 H   0  0  0  0  0  0
  -22.3600  -10.9588   19.6178 H   0  0  0  0  0  0
  -21.1954   -7.6085   23.9718 H   0  0  0  0  0  0
  -21.1507   -6.0466   25.9090 H   0  0  0  0  0  0
  -22.0610   -2.7575   23.2857 H   0  0  0  0  0  0
  -22.3934  -11.9841   22.4910 H   0  0  0  0  0  0
  -21.1037  -13.1285   22.2604 H   0  0  0  0  0  0
  -24.4971  -15.7207   20.3454 H   0  0  0  0  0  0
  -26.0424  -15.5529   19.6996 H   0  0  0  0  0  0
  -26.7295  -32.5348   23.1020 H   0  0  0  0  0  0
  -25.0469  -33.9641   25.0591 H   0  0  0  0  0  0
  -22.7337  -31.3076   21.4008 H   0  0  0  0  0  0
  -23.3793  -35.9448   23.3368 H   0  0  0  0  0  0
  -24.3550  -36.8663   22.2024 H   0  0  0  0  0  0
  -23.7212  -37.6381   23.6566 H   0  0  0  0  0  0
  -26.1568  -31.5216   20.6249 H   0  0  0  0  0  0
  -26.8506  -30.7826   22.0328 H   0  0  0  0  0  0
  -28.1213  -28.8793   21.2005 H   0  0  0  0  0  0
  -25.8669  -25.9485   18.9270 H   0  0  0  0  0  0
  -23.9509  -27.3467   18.9776 H   0  0  0  0  0  0
  -23.7898  -30.6028   19.4013 H   0  0  0  0  0  0
  -22.7605  -29.2736   19.8395 H   0  0  0  0  0  0
  -25.1330  -36.1843   25.0816 H   0  0  0  0  0  0
  -21.0039  -28.3289   24.1372 H   0  0  0  0  0  0
  -20.5681  -26.2305   23.3583 H   0  0  0  0  0  0
  -21.6657  -26.7444   22.1190 H   0  0  0  0  0  0
  -19.6920  -25.6332   21.1195 H   0  0  0  0  0  0
  -19.6728  -27.3234   20.6714 H   0  0  0  0  0  0
  -17.4210  -26.6701   21.3985 H   0  0  0  0  0  0
  -18.0359  -26.0118   22.9005 H   0  0  0  0  0  0
  -19.7961  -30.7271   24.2278 H   0  0  0  0  0  0
  -17.5051  -31.6298   24.5155 H   0  0  0  0  0  0
  -15.5371  -30.3004   23.7724 H   0  0  0  0  0  0
  -15.8677  -28.0843   22.7119 H   0  0  0  0  0  0
  -24.6140  -30.6846   25.7722 H   0  0  0  0  0  0
  -24.8858  -32.2811   26.4690 H   0  0  0  0  0  0
  -25.8194  -30.9002   27.0230 H   0  0  0  0  0  0
  -26.3046  -29.6713   24.1204 H   0  0  0  0  0  0
  -27.4203  -29.7263   25.4687 H   0  0  0  0  0  0
  -27.8922  -30.4297   23.9393 H   0  0  0  0  0  0
  -27.2967  -33.3600   26.2004 H   0  0  0  0  0  0
  -28.4134  -32.6597   25.0312 H   0  0  0  0  0  0
  -28.0790  -31.8290   26.5427 H   0  0  0  0  0  0
  -28.2658  -37.9989   24.7542 H   0  0  0  0  0  0
  -28.0977  -36.2531   24.6362 H   0  0  0  0  0  0
  -27.2238  -37.1451   25.8893 H   0  0  0  0  0  0
  -20.9420  -29.8781   21.6827 H   0  0  0  0  0  0
  -26.0148  -38.2776   24.1493 H   0  0  0  0  0  0
  -27.2613  -20.4908   20.0795 H   0  0  0  0  0  0
  -27.3507  -16.3210   20.9839 H   0  0  0  0  0  0
  -29.5293  -20.3018   17.8404 H   0  0  0  0  0  0
  -26.7240  -23.1994   17.9960 H   0  0  0  0  0  0
  -27.7830  -23.3677   16.6246 H   0  0  0  0  0  0
  -27.6532  -25.4962   17.6729 H   0  0  0  0  0  0
  -29.2757  -24.9076   17.8580 H   0  0  0  0  0  0
  -28.2555  -23.2861   21.2095 H   0  0  0  0  0  0
  -29.7870  -24.0161   20.8651 H   0  0  0  0  0  0
  -27.0827  -24.6288   19.9450 H   0  0  0  0  0  0
  -27.6071  -21.4335   15.6880 H   0  0  0  0  0  0
  -27.7838  -19.7458   16.1547 H   0  0  0  0  0  0
  -29.1106  -20.5854   15.3633 H   0  0  0  0  0  0
  -30.8819  -21.0509   19.8870 H   0  0  0  0  0  0
  -30.0494  -21.4680   21.3315 H   0  0  0  0  0  0
  -29.1446  -15.3189   21.6977 H   0  0  0  0  0  0
  -30.1618  -22.7737   19.2298 H   0  0  0  0  0  0
  1 25  1  0  0  0
  1 30  2  0  0  0
  1 85  1  0  0  0
  2  3  1  0  0  0
  2 25  1  0  0  0
  2 89  1  0  0  0
  2 90  1  0  0  0
  3  4  1  0  0  0
  3 91  1  0  0  0
  3 92  1  0  0  0
  4  5  1  0  0  0
  4 93  1  0  0  0
  4 94  1  0  0  0
  5  6  1  0  0  0
  5 26  1  0  0  0
  5 95  1  0  0  0
  6 25  1  0  0  0
  6 96  1  0  0  0
  6 97  1  0  0  0
  7  8  2  0  0  0
  7 26  1  0  0  0
  7 29  1  0  0  0
  8  9  1  0  0  0
  8 22  1  0  0  0
  9 10  1  0  0  0
  9 27  2  0  0  0
 10 11  2  0  0  0
 10 15  1  0  0  0
 11 12  1  0  0  0
 11 98  1  0  0  0
 12 13  2  0  0  0
 12 99  1  0  0  0
 13 14  1  0  0  0
 13 31  1  0  0  0
 14 15  2  0  0  0
 14100  1  0  0  0
 15101  1  0  0  0
 16 17  2  0  0  0
 16 21  1  0  0  0
 16 31  1  0  0  0
 17 18  1  0  0  0
 17102  1  0  0  0
 18 19  2  0  0  0
 18103  1  0  0  0
 19 20  1  0  0  0
 19 24  1  0  0  0
 20 21  2  0  0  0
 20104  1  0  0  0
 21 23  1  0  0  0
 22 28  1  0  0  0
 22 32  2  0  0  0
 26 27  1  0  0  0
 28105  1  0  0  0
 28106  1  0  0  0
 29107  1  0  0  0
 29108  1  0  0  0
 33 34  1  0  0  0
 33 66  1  0  0  0
 33 70  2  0  0  0
 34 36  1  0  0  0
 34 59  1  0  0  0
 34109  1  0  0  0
 35 44  2  0  0  0
 35 45  1  0  0  0
 35 68  1  0  0  0
 36 56  1  0  0  0
 36110  1  0  0  0
 37 39  1  0  0  0
 37 47  1  0  0  0
 37 66  1  0  0  0
 37111  1  0  0  0
 38 43  2  0  0  0
 38 46  1  0  0  0
 38 47  1  0  0  0
 39 64  1  0  0  0
 39 67  2  0  0  0
 40 52  1  0  0  0
 40 53  2  0  0  0
 40 58  1  0  0  0
 41112  1  0  0  0
 41113  1  0  0  0
 41114  1  0  0  0
 41 48  1  0  0  0
 42 43  1  0  0  0
 42 66  1  0  0  0
 42115  1  0  0  0
 42116  1  0  0  0
 43 44  1  0  0  0
 44117  1  0  0  0
 45 46  2  0  0  0
 45118  1  0  0  0
 46119  1  0  0  0
 47120  1  0  0  0
 47121  1  0  0  0
 48 56  1  0  0  0
 48 65  1  0  0  0
 48122  1  0  0  0
 49 50  1  0  0  0
 49 53  1  0  0  0
 49 64  1  0  0  0
 49123  1  0  0  0
 50 51  1  0  0  0
 50124  1  0  0  0
 50125  1  0  0  0
 51 52  1  0  0  0
 51126  1  0  0  0
 51127  1  0  0  0
 52128  1  0  0  0
 52129  1  0  0  0
 53 54  1  0  0  0
 54 55  2  0  0  0
 54130  1  0  0  0
 55 57  1  0  0  0
 55131  1  0  0  0
 56 69  2  0  0  0
 57 58  2  0  0  0
 57132  1  0  0  0
 58133  1  0  0  0
 59 60  1  0  0  0
 59 61  1  0  0  0
 59 62  1  0  0  0
 60134  1  0  0  0
 60135  1  0  0  0
 60136  1  0  0  0
 61137  1  0  0  0
 61138  1  0  0  0
 61139  1  0  0  0
 62140  1  0  0  0
 62141  1  0  0  0
 62142  1  0  0  0
 63 65  1  0  0  0
 63143  1  0  0  0
 63144  1  0  0  0
 63145  1  0  0  0
 64146  1  0  0  0
 65147  1  0  0  0
 68 82  1  0  0  0
 71 73  2  0  0  0
 71 75  1  0  0  0
 71148  1  0  0  0
 72 74  1  0  0  0
 72 75  2  0  0  0
 72149  1  0  0  0
 73 76  1  0  0  0
 73 84  1  0  0  0
 74 76  2  0  0  0
 74 85  1  0  0  0
 75 87  1  0  0  0
 76 88  1  0  0  0
 77 78  2  0  0  0
 77 79  1  0  0  0
 77 86  1  0  0  0
 78 83  1  0  0  0
 78150  1  0  0  0
 79 80  1  0  0  0
 79151  1  0  0  0
 79152  1  0  0  0
 80 82  1  0  0  0
 80153  1  0  0  0
 80154  1  0  0  0
 81 82  1  0  0  0
 81 86  1  0  0  0
 81155  1  0  0  0
 81156  1  0  0  0
 82157  1  0  0  0
 83158  1  0  0  0
 83159  1  0  0  0
 83160  1  0  0  0
 84161  1  0  0  0
 84162  1  0  0  0
 84 86  1  0  0  0
 85163  1  0  0  0
 86164  1  0  0  0
M  CHG  1  86   1
M  ISO  4   1 100  68 101  82 101  85 100
M  END
> <chiral flag>
0

> <version>
0

> <s_m_source_file>
/data/baiqing/PycharmProjects/Reinvent-master-3.2/result/LINK_invent/BTK/process_docking_weight1_custom_product_contain_oxygen_bond_distance_aromatic_linkinvent_7_9_3/rearranged_h_0033.sdf

> <i_m_source_file_index>
87

> <r_mmod_Potential_Energy-OPLS-2005>
181.517990112305

> <r_mmod_Stretch_Energy-OPLS-2005>
152.1767578125

> <r_mmod_Bend_Energy-OPLS-2005>
248.534576416016

> <r_mmod_Torsional_Energy-OPLS-2005>
275.294281005859

> <r_mmod_Improper_Torsional_Energy-OPLS-2005>
9.74649810791016

> <r_mmod_Van_der_Waal_Energy-OPLS-2005>
144.868301391602

> <r_mmod_Electrostatic_Energy-OPLS-2005>
-304.256561279297

> <r_mmod_Solvation_Energy-OPLS-2005>
-444.818572998047

> <b_mmod_Minimization_Converged-OPLS-2005>
0

> <r_mmod_RMS_Derivative-OPLS-2005>
5.63690805435181

$$$$
87
                    3D
 Structure written by MMmdl.
163172  0  0  1  0            999 V2000
  -30.5580  -14.7711   20.3797 C   0  0  0  0  0  0
  -30.4470  -12.4305   19.5113 C   0  0  0  0  0  0
  -29.5257  -12.3970   18.2699 C   0  0  0  0  0  0
  -28.0306  -12.3336   18.6483 C   0  0  0  0  0  0
  -27.6432  -13.2113   19.8717 C   0  0  2  0  0  0
  -28.6916  -13.1513   20.9997 C   0  0  0  0  0  0
  -25.2489  -13.8156   20.5687 C   0  0  0  0  0  0
  -24.1765  -13.0451   20.9194 C   0  0  0  0  0  0
  -24.6349  -11.6905   20.8830 C   0  0  0  0  0  0
  -23.9050  -10.4279   21.0450 C   0  0  0  0  0  0
  -24.3620   -9.4165   21.9194 C   0  0  0  0  0  0
  -23.6293   -8.2199   22.0763 C   0  0  0  0  0  0
  -22.4281   -8.0243   21.3535 C   0  0  0  0  0  0
  -21.9931   -9.0224   20.4629 C   0  0  0  0  0  0
  -22.7251  -10.2110   20.3051 C   0  0  0  0  0  0
  -21.6826   -6.0736   22.5293 C   0  0  0  0  0  0
  -21.3979   -6.5645   23.8221 C   0  0  0  0  0  0
  -21.3683   -5.6804   24.9193 C   0  0  0  0  0  0
  -21.6067   -4.3067   24.7231 C   0  0  0  0  0  0
  -21.8826   -3.8155   23.4355 C   0  0  0  0  0  0
  -21.9172   -4.6972   22.3418 C   0  0  0  0  0  0
  -22.7763  -13.5241   21.1857 C   0  0  0  0  0  0
  -22.1643   -4.2172   21.0995 F   0  0  0  0  0  0
  -21.5664   -3.4548   25.7738 F   0  0  0  0  0  0
  -29.9855  -13.5164   20.4048 N   0  0  0  0  0  0
  -26.2933  -12.9318   20.3401 N   0  0  0  0  0  0
  -25.9289  -11.6492   20.5907 N   0  0  0  0  0  0
  -22.0425  -12.8208   22.0398 N   0  0  0  0  0  0
  -25.4245  -15.1889   20.4033 N   0  0  0  0  0  0
  -31.7385  -14.9033   20.0454 O   0  0  0  0  0  0
  -21.6622   -6.8862   21.4247 O   0  0  0  0  0  0
  -22.3452  -14.5569   20.6716 O   0  0  0  0  0  0
  -24.6298  -31.8535   23.1978 C   0  0  0  0  0  0
  -25.9124  -32.4738   23.8332 C   0  0  1  0  0  0
  -27.2450  -27.2799   20.1013 C   0  0  0  0  0  0
  -25.5920  -33.8551   24.2238 N   0  0  0  0  0  0
  -23.4265  -30.4751   21.5419 C   0  0  2  0  0  0
  -24.8746  -28.9190   20.1139 C   0  0  0  0  0  0
  -22.7476  -29.4603   22.4926 C   0  0  0  0  0  0
  -18.0279  -28.1413   22.8483 C   0  0  0  0  0  0
  -24.1497  -36.7277   23.2637 C   0  0  0  0  0  0
  -25.9708  -30.7675   21.3788 C   0  0  0  0  0  0
  -26.0450  -29.3933   20.7169 C   0  0  0  0  0  0
  -27.2255  -28.5849   20.7024 C   0  0  0  0  0  0
  -26.0407  -26.8613   19.4877 C   0  0  0  0  0  0
  -24.8758  -27.6575   19.4966 C   0  0  0  0  0  0
  -23.6408  -29.8015   20.1615 C   0  0  0  0  0  0
  -25.4116  -36.3050   24.0319 C   0  0  1  0  0  0
  -20.5873  -28.3714   23.1282 C   0  0  2  0  0  0
  -20.6782  -26.9441   22.5415 C   0  0  0  0  0  0
  -19.5747  -26.6402   21.5231 C   0  0  0  0  0  0
  -18.1923  -26.7949   22.1632 C   0  0  0  0  0  0
  -19.1530  -28.8887   23.2872 C   0  0  0  0  0  0
  -18.9446  -30.1491   23.8890 C   0  0  0  0  0  0
  -17.6443  -30.6612   24.0565 C   0  0  0  0  0  0
  -25.9061  -34.9430   23.5079 C   0  0  0  0  0  0
  -16.5333  -29.9099   23.6357 C   0  0  0  0  0  0
  -16.7266  -28.6523   23.0368 C   0  0  0  0  0  0
  -26.4488  -31.6575   25.0735 C   0  0  0  0  0  0
  -25.3684  -31.3720   26.1424 C   0  0  0  0  0  0
  -27.0372  -30.2982   24.6283 C   0  0  0  0  0  0
  -27.6018  -32.4326   25.7545 C   0  0  0  0  0  0
  -27.5574  -37.1796   24.8444 C   0  0  0  0  0  0
  -21.4181  -29.3051   22.3662 N   0  0  0  0  0  0
  -26.4280  -37.3753   23.9401 N   0  0  0  0  0  0
  -24.6945  -31.0499   22.0954 N   0  0  0  0  0  0
  -23.4166  -28.8153   23.3044 O   0  0  0  0  0  0
  -28.3916  -26.4528   20.1698 O   0  0  0  0  0  0
  -26.5648  -34.8904   22.4658 O   0  0  0  0  0  0
  -23.5452  -32.1383   23.7272 O   0  0  0  0  0  0
  -28.9393  -19.6704   18.5460 C   0  0  0  0  0  0
  -28.8815  -18.4365   17.8837 C   0  0  0  0  0  0
  -29.6378  -18.4843   20.5568 C   0  0  0  0  0  0
  -29.3220  -19.7509   19.8986 C   0  0  0  0  0  0
  -29.1986  -17.2193   18.5233 C   0  0  0  0  0  0
  -29.6006  -17.1836   19.8930 C   0  0  0  0  0  0
  -30.0806  -23.8880   17.9103 C   0  0  0  0  0  0
  -29.7695  -25.2125   18.6376 C   0  0  0  0  0  0
  -30.3307  -22.7286   18.8983 C   0  0  0  0  0  0
  -28.7405  -23.7805   20.4742 C   0  0  0  0  0  0
  -28.5335  -25.0933   19.5483 C   0  0  1  0  0  0
  -29.0252  -15.9736   17.6779 C   0  0  0  0  0  0
  -29.2966  -21.1872   20.6000 C   0  0  0  0  0  0
  -29.7340  -15.8703   20.5939 N   0  0  0  0  0  0
  -29.1428  -22.4740   19.7567 N   0  3  2  0  0  0
  -31.4851  -12.5625   19.2003 H   0  0  0  0  0  0
  -30.4199  -11.4810   20.0471 H   0  0  0  0  0  0
  -29.7726  -11.5279   17.6599 H   0  0  0  0  0  0
  -29.7293  -13.2538   17.6361 H   0  0  0  0  0  0
  -27.8008  -11.2911   18.8627 H   0  0  0  0  0  0
  -27.4192  -12.6003   17.7864 H   0  0  0  0  0  0
  -27.6273  -14.2360   19.5343 H   0  0  0  0  0  0
  -28.7367  -12.1542   21.4383 H   0  0  0  0  0  0
  -28.4253  -13.8300   21.8094 H   0  0  0  0  0  0
  -25.2774   -9.5652   22.4764 H   0  0  0  0  0  0
  -24.0001   -7.4615   22.7522 H   0  0  0  0  0  0
  -21.0862   -8.8760   19.8937 H   0  0  0  0  0  0
  -22.3723  -10.9659   19.6164 H   0  0  0  0  0  0
  -21.1925   -7.6148   23.9722 H   0  0  0  0  0  0
  -21.1503   -6.0539   25.9105 H   0  0  0  0  0  0
  -22.0570   -2.7613   23.2850 H   0  0  0  0  0  0
  -22.4048  -11.9874   22.4791 H   0  0  0  0  0  0
  -21.1053  -13.1209   22.2670 H   0  0  0  0  0  0
  -24.6604  -15.8500   20.4822 H   0  0  0  0  0  0
  -26.2770  -15.6170   20.0664 H   0  0  0  0  0  0
  -26.7190  -32.5385   23.1083 H   0  0  0  0  0  0
  -25.0011  -33.9699   25.0341 H   0  0  0  0  0  0
  -22.7214  -31.2955   21.3953 H   0  0  0  0  0  0
  -23.3771  -35.9597   23.3263 H   0  0  0  0  0  0
  -24.3585  -36.8948   22.2057 H   0  0  0  0  0  0
  -23.7252  -37.6459   23.6707 H   0  0  0  0  0  0
  -26.1125  -31.5319   20.6136 H   0  0  0  0  0  0
  -26.8443  -30.8086   22.0167 H   0  0  0  0  0  0
  -28.1218  -28.9497   21.1847 H   0  0  0  0  0  0
  -25.9428  -25.8979   19.0165 H   0  0  0  0  0  0
  -23.9746  -27.2774   19.0349 H   0  0  0  0  0  0
  -23.7535  -30.5751   19.4018 H   0  0  0  0  0  0
  -22.7611  -29.2262   19.8659 H   0  0  0  0  0  0
  -25.1305  -36.1889   25.0812 H   0  0  0  0  0  0
  -20.9952  -28.3325   24.1408 H   0  0  0  0  0  0
  -20.5730  -26.2328   23.3613 H   0  0  0  0  0  0
  -21.6648  -26.7501   22.1187 H   0  0  0  0  0  0
  -19.6917  -25.6311   21.1276 H   0  0  0  0  0  0
  -19.6698  -27.3210   20.6763 H   0  0  0  0  0  0
  -17.4193  -26.6703   21.4036 H   0  0  0  0  0  0
  -18.0310  -26.0107   22.9038 H   0  0  0  0  0  0
  -19.7915  -30.7321   24.2249 H   0  0  0  0  0  0
  -17.4993  -31.6308   24.5148 H   0  0  0  0  0  0
  -15.5337  -30.2994   23.7703 H   0  0  0  0  0  0
  -15.8656  -28.0845   22.7088 H   0  0  0  0  0  0
  -24.5855  -30.7093   25.7709 H   0  0  0  0  0  0
  -24.8884  -32.2890   26.4849 H   0  0  0  0  0  0
  -25.7951  -30.8865   27.0209 H   0  0  0  0  0  0
  -26.3011  -29.6710   24.1226 H   0  0  0  0  0  0
  -27.3925  -29.7258   25.4866 H   0  0  0  0  0  0
  -27.8940  -30.4232   23.9655 H   0  0  0  0  0  0
  -27.2594  -33.3612   26.2133 H   0  0  0  0  0  0
  -28.3851  -32.6898   25.0399 H   0  0  0  0  0  0
  -28.0675  -31.8444   26.5468 H   0  0  0  0  0  0
  -28.2527  -38.0149   24.7537 H   0  0  0  0  0  0
  -28.1134  -36.2674   24.6228 H   0  0  0  0  0  0
  -27.2283  -37.1379   25.8839 H   0  0  0  0  0  0
  -20.9360  -29.8732   21.6828 H   0  0  0  0  0  0
  -26.0149  -38.2820   24.1419 H   0  0  0  0  0  0
  -28.6580  -20.5517   17.9844 H   0  0  0  0  0  0
  -28.5475  -18.4329   16.8549 H   0  0  0  0  0  0
  -29.8862  -18.5103   21.6098 H   0  0  0  0  0  0
  -30.9591  -24.0199   17.2787 H   0  0  0  0  0  0
  -29.2658  -23.6355   17.2296 H   0  0  0  0  0  0
  -29.6159  -26.0043   17.9025 H   0  0  0  0  0  0
  -30.6344  -25.5158   19.2289 H   0  0  0  0  0  0
  -31.1910  -22.9622   19.5280 H   0  0  0  0  0  0
  -30.6051  -21.8346   18.3391 H   0  0  0  0  0  0
  -27.8271  -23.6001   21.0399 H   0  0  0  0  0  0
  -29.5144  -23.9969   21.2118 H   0  0  0  0  0  0
  -27.7019  -24.8808   18.8827 H   0  0  0  0  0  0
  -28.8680  -16.2188   16.6268 H   0  0  0  0  0  0
  -28.1418  -15.4237   17.9843 H   0  0  0  0  0  0
  -29.9171  -15.3544   17.7377 H   0  0  0  0  0  0
  -30.2010  -21.2854   21.2012 H   0  0  0  0  0  0
  -28.4708  -21.1615   21.3108 H   0  0  0  0  0  0
  -28.8860  -15.5967   21.0672 H   0  0  0  0  0  0
  -28.3791  -22.2659   19.1304 H   0  0  0  0  0  0
  1 25  1  0  0  0
  1 30  2  0  0  0
  1 84  1  0  0  0
  2  3  1  0  0  0
  2 25  1  0  0  0
  2 86  1  0  0  0
  2 87  1  0  0  0
  3  4  1  0  0  0
  3 88  1  0  0  0
  3 89  1  0  0  0
  4  5  1  0  0  0
  4 90  1  0  0  0
  4 91  1  0  0  0
  5  6  1  0  0  0
  5 26  1  0  0  0
  5 92  1  0  0  0
  6 25  1  0  0  0
  6 93  1  0  0  0
  6 94  1  0  0  0
  7  8  2  0  0  0
  7 26  1  0  0  0
  7 29  1  0  0  0
  8  9  1  0  0  0
  8 22  1  0  0  0
  9 10  1  0  0  0
  9 27  2  0  0  0
 10 11  2  0  0  0
 10 15  1  0  0  0
 11 12  1  0  0  0
 11 95  1  0  0  0
 12 13  2  0  0  0
 12 96  1  0  0  0
 13 14  1  0  0  0
 13 31  1  0  0  0
 14 15  2  0  0  0
 14 97  1  0  0  0
 15 98  1  0  0  0
 16 17  2  0  0  0
 16 21  1  0  0  0
 16 31  1  0  0  0
 17 18  1  0  0  0
 17 99  1  0  0  0
 18 19  2  0  0  0
 18100  1  0  0  0
 19 20  1  0  0  0
 19 24  1  0  0  0
 20 21  2  0  0  0
 20101  1  0  0  0
 21 23  1  0  0  0
 22 28  1  0  0  0
 22 32  2  0  0  0
 26 27  1  0  0  0
 28102  1  0  0  0
 28103  1  0  0  0
 29104  1  0  0  0
 29105  1  0  0  0
 33 34  1  0  0  0
 33 66  1  0  0  0
 33 70  2  0  0  0
 34 36  1  0  0  0
 34 59  1  0  0  0
 34106  1  0  0  0
 35 44  2  0  0  0
 35 45  1  0  0  0
 35 68  1  0  0  0
 36 56  1  0  0  0
 36107  1  0  0  0
 37 39  1  0  0  0
 37 47  1  0  0  0
 37 66  1  0  0  0
 37108  1  0  0  0
 38 43  2  0  0  0
 38 46  1  0  0  0
 38 47  1  0  0  0
 39 64  1  0  0  0
 39 67  2  0  0  0
 40 52  1  0  0  0
 40 53  2  0  0  0
 40 58  1  0  0  0
 41109  1  0  0  0
 41110  1  0  0  0
 41111  1  0  0  0
 41 48  1  0  0  0
 42 43  1  0  0  0
 42 66  1  0  0  0
 42112  1  0  0  0
 42113  1  0  0  0
 43 44  1  0  0  0
 44114  1  0  0  0
 45 46  2  0  0  0
 45115  1  0  0  0
 46116  1  0  0  0
 47117  1  0  0  0
 47118  1  0  0  0
 48 56  1  0  0  0
 48 65  1  0  0  0
 48119  1  0  0  0
 49 50  1  0  0  0
 49 53  1  0  0  0
 49 64  1  0  0  0
 49120  1  0  0  0
 50 51  1  0  0  0
 50121  1  0  0  0
 50122  1  0  0  0
 51 52  1  0  0  0
 51123  1  0  0  0
 51124  1  0  0  0
 52125  1  0  0  0
 52126  1  0  0  0
 53 54  1  0  0  0
 54 55  2  0  0  0
 54127  1  0  0  0
 55 57  1  0  0  0
 55128  1  0  0  0
 56 69  2  0  0  0
 57 58  2  0  0  0
 57129  1  0  0  0
 58130  1  0  0  0
 59 60  1  0  0  0
 59 61  1  0  0  0
 59 62  1  0  0  0
 60131  1  0  0  0
 60132  1  0  0  0
 60133  1  0  0  0
 61134  1  0  0  0
 61135  1  0  0  0
 61136  1  0  0  0
 62137  1  0  0  0
 62138  1  0  0  0
 62139  1  0  0  0
 63 65  1  0  0  0
 63140  1  0  0  0
 63141  1  0  0  0
 63142  1  0  0  0
 64143  1  0  0  0
 65144  1  0  0  0
 68 81  1  0  0  0
 71 72  2  0  0  0
 71 74  1  0  0  0
 71145  1  0  0  0
 72 75  1  0  0  0
 72146  1  0  0  0
 73 74  2  0  0  0
 73 76  1  0  0  0
 73147  1  0  0  0
 74 83  1  0  0  0
 75 76  2  0  0  0
 75 82  1  0  0  0
 76 84  1  0  0  0
 77 78  1  0  0  0
 77 79  1  0  0  0
 77148  1  0  0  0
 77149  1  0  0  0
 78 81  1  0  0  0
 78150  1  0  0  0
 78151  1  0  0  0
 79 85  1  0  0  0
 79152  1  0  0  0
 79153  1  0  0  0
 80 81  1  0  0  0
 80 85  1  0  0  0
 80154  1  0  0  0
 80155  1  0  0  0
 81156  1  0  0  0
 82157  1  0  0  0
 82158  1  0  0  0
 82159  1  0  0  0
 83160  1  0  0  0
 83161  1  0  0  0
 83 85  1  0  0  0
 84162  1  0  0  0
 85163  1  0  0  0
M  CHG  1  85   1
M  ISO  4   1 100  68 101  81 101  84 100
M  END
> <chiral flag>
0

> <version>
0

> <s_m_source_file>
/data/baiqing/PycharmProjects/Reinvent-master-3.2/result/LINK_invent/BTK/process_docking_weight1_custom_product_contain_oxygen_bond_distance_aromatic_linkinvent_7_9_3/rearranged_h_0033.sdf

> <i_m_source_file_index>
88

> <r_mmod_Potential_Energy-OPLS-2005>
114.466209411621

> <r_mmod_Stretch_Energy-OPLS-2005>
127.645896911621

> <r_mmod_Bend_Energy-OPLS-2005>
175.279281616211

> <r_mmod_Torsional_Energy-OPLS-2005>
276.524536132812

> <r_mmod_Improper_Torsional_Energy-OPLS-2005>
6.25765895843506

> <r_mmod_Van_der_Waal_Energy-OPLS-2005>
142.332382202148

> <r_mmod_Electrostatic_Energy-OPLS-2005>
-267.240142822266

> <r_mmod_Solvation_Energy-OPLS-2005>
-434.581970214844

> <b_mmod_Minimization_Converged-OPLS-2005>
0

> <r_mmod_RMS_Derivative-OPLS-2005>
4.10533428192139

$$$$
88
                    3D
 Structure written by MMmdl.
170179  0  0  1  0            999 V2000
  -30.7707  -14.4171   20.5748 C   0  0  0  0  0  0
  -30.4031  -12.2737   19.4259 C   0  0  0  0  0  0
  -29.4886  -12.4936   18.2062 C   0  0  0  0  0  0
  -28.0090  -12.3779   18.6126 C   0  0  0  0  0  0
  -27.6652  -13.2114   19.8773 C   0  0  2  0  0  0
  -28.7089  -13.0070   21.0003 C   0  0  0  0  0  0
  -25.2596  -13.8170   20.5649 C   0  0  0  0  0  0
  -24.1840  -13.0456   20.9161 C   0  0  0  0  0  0
  -24.6399  -11.6915   20.8745 C   0  0  0  0  0  0
  -23.9054  -10.4304   21.0410 C   0  0  0  0  0  0
  -24.3595   -9.4211   21.9190 C   0  0  0  0  0  0
  -23.6265   -8.2249   22.0745 C   0  0  0  0  0  0
  -22.4249   -8.0290   21.3529 C   0  0  0  0  0  0
  -21.9891   -9.0282   20.4635 C   0  0  0  0  0  0
  -22.7219  -10.2169   20.3049 C   0  0  0  0  0  0
  -21.6860   -6.0725   22.5265 C   0  0  0  0  0  0
  -21.4022   -6.5621   23.8201 C   0  0  0  0  0  0
  -21.3651   -5.6765   24.9169 C   0  0  0  0  0  0
  -21.6048   -4.3030   24.7202 C   0  0  0  0  0  0
  -21.8824   -3.8131   23.4319 C   0  0  0  0  0  0
  -21.9193   -4.6958   22.3380 C   0  0  0  0  0  0
  -22.7851  -13.5290   21.1789 C   0  0  0  0  0  0
  -22.1657   -4.2142   21.0953 F   0  0  0  0  0  0
  -21.5634   -3.4503   25.7710 F   0  0  0  0  0  0
  -30.0424  -13.2782   20.4391 N   0  0  0  0  0  0
  -26.3053  -12.9358   20.3387 N   0  0  0  0  0  0
  -25.9335  -11.6509   20.5764 N   0  0  0  0  0  0
  -22.0455  -12.8335   22.0350 N   0  0  0  0  0  0
  -25.4318  -15.1871   20.3986 N   0  0  0  0  0  0
  -31.8839  -14.5524   20.0594 O   0  0  0  0  0  0
  -21.6619   -6.8880   21.4225 O   0  0  0  0  0  0
  -22.3554  -14.5589   20.6612 O   0  0  0  0  0  0
  -24.6164  -31.8686   23.2133 C   0  0  0  0  0  0
  -25.9064  -32.4809   23.8404 C   0  0  1  0  0  0
  -27.2183  -27.4273   20.0855 C   0  0  0  0  0  0
  -25.5941  -33.8612   24.2346 N   0  0  0  0  0  0
  -23.4019  -30.4988   21.5546 C   0  0  2  0  0  0
  -24.8457  -28.9731   20.1090 C   0  0  0  0  0  0
  -22.7385  -29.4723   22.5004 C   0  0  0  0  0  0
  -18.0292  -28.1375   22.8511 C   0  0  0  0  0  0
  -24.1485  -36.7306   23.2638 C   0  0  0  0  0  0
  -25.9319  -30.8296   21.3656 C   0  0  0  0  0  0
  -26.0080  -29.4670   20.7110 C   0  0  0  0  0  0
  -27.1982  -28.7001   20.7011 C   0  0  0  0  0  0
  -26.0428  -26.9730   19.4368 C   0  0  0  0  0  0
  -24.8576  -27.7244   19.4710 C   0  0  0  0  0  0
  -23.6090  -29.8366   20.1677 C   0  0  0  0  0  0
  -25.4097  -36.3094   24.0343 C   0  0  1  0  0  0
  -20.5894  -28.3681   23.1319 C   0  0  2  0  0  0
  -20.6810  -26.9426   22.5407 C   0  0  0  0  0  0
  -19.5767  -26.6374   21.5227 C   0  0  0  0  0  0
  -18.1926  -26.7946   22.1586 C   0  0  0  0  0  0
  -19.1542  -28.8825   23.2941 C   0  0  0  0  0  0
  -18.9462  -30.1416   23.8968 C   0  0  0  0  0  0
  -17.6463  -30.6584   24.0570 C   0  0  0  0  0  0
  -25.9035  -34.9476   23.5133 C   0  0  0  0  0  0
  -16.5364  -29.9110   23.6295 C   0  0  0  0  0  0
  -16.7281  -28.6513   23.0340 C   0  0  0  0  0  0
  -26.4489  -31.6568   25.0717 C   0  0  0  0  0  0
  -25.3727  -31.3703   26.1446 C   0  0  0  0  0  0
  -27.0315  -30.3010   24.6064 C   0  0  0  0  0  0
  -27.6069  -32.4282   25.7472 C   0  0  0  0  0  0
  -27.5570  -37.1804   24.8465 C   0  0  0  0  0  0
  -21.4120  -29.3078   22.3712 N   0  0  0  0  0  0
  -26.4274  -37.3782   23.9430 N   0  0  0  0  0  0
  -24.6698  -31.0778   22.1038 N   0  0  0  0  0  0
  -23.4146  -28.8282   23.3071 O   0  0  0  0  0  0
  -28.3466  -26.6270   20.1821 O   0  0  0  0  0  0
  -26.5572  -34.8921   22.4684 O   0  0  0  0  0  0
  -23.5361  -32.1496   23.7514 O   0  0  0  0  0  0
  -30.4445  -19.1789   21.7675 C   0  0  0  0  0  0
  -29.8994  -20.4421   21.4968 C   0  0  0  0  0  0
  -30.1177  -18.0486   20.9956 C   0  0  0  0  0  0
  -28.9669  -20.6178   20.4533 C   0  0  0  0  0  0
  -29.2413  -18.2189   19.8836 C   0  0  0  0  0  0
  -28.6319  -19.4917   19.6440 C   0  0  0  0  0  0
  -27.3828  -23.4836   21.9256 C   0  0  0  0  0  0
  -26.6307  -22.7424   22.7634 C   0  0  0  0  0  0
  -27.1027  -24.9007   21.4816 C   0  0  0  0  0  0
  -29.2567  -24.3003   20.6995 C   0  0  0  0  0  0
  -28.0789  -25.2115   20.3301 C   0  0  2  0  0  0
  -28.9968  -17.0866   18.8905 C   0  0  0  0  0  0
  -27.6588  -19.6612   18.4698 C   0  0  0  0  0  0
  -26.8839  -21.3146   23.1976 C   0  0  0  0  0  0
  -30.8553  -16.7547   21.3879 C   0  0  0  0  0  0
  -28.3933  -22.0181   20.1573 C   0  0  0  0  0  0
  -30.1885  -15.4546   21.1980 N   0  0  0  0  0  0
  -28.6225  -23.0534   21.2134 N   0  3  2  0  0  0
  -31.4516  -12.3310   19.1267 H   0  0  0  0  0  0
  -30.2739  -11.2670   19.8276 H   0  0  0  0  0  0
  -29.7204  -11.7664   17.4280 H   0  0  0  0  0  0
  -29.6749  -13.4798   17.7777 H   0  0  0  0  0  0
  -27.8098  -11.3220   18.7924 H   0  0  0  0  0  0
  -27.3647  -12.6745   17.7822 H   0  0  0  0  0  0
  -27.7132  -14.2591   19.5829 H   0  0  0  0  0  0
  -28.6732  -11.9816   21.3731 H   0  0  0  0  0  0
  -28.4820  -13.6403   21.8592 H   0  0  0  0  0  0
  -25.2734   -9.5685   22.4773 H   0  0  0  0  0  0
  -23.9960   -7.4643   22.7475 H   0  0  0  0  0  0
  -21.0816   -8.8812   19.8946 H   0  0  0  0  0  0
  -22.3673  -10.9714   19.6152 H   0  0  0  0  0  0
  -21.2018   -7.6126   23.9710 H   0  0  0  0  0  0
  -21.1465   -6.0483   25.9072 H   0  0  0  0  0  0
  -22.0614   -2.7594   23.2805 H   0  0  0  0  0  0
  -22.4013  -12.0009   22.4791 H   0  0  0  0  0  0
  -21.1085  -13.1430   22.2515 H   0  0  0  0  0  0
  -24.6628  -15.8417   20.4858 H   0  0  0  0  0  0
  -26.2859  -15.6217   20.0760 H   0  0  0  0  0  0
  -26.7127  -32.5525   23.1164 H   0  0  0  0  0  0
  -25.0113  -33.9766   25.0499 H   0  0  0  0  0  0
  -22.6927  -31.3185   21.4179 H   0  0  0  0  0  0
  -23.3726  -35.9659   23.3301 H   0  0  0  0  0  0
  -24.3553  -36.8907   22.2043 H   0  0  0  0  0  0
  -23.7236  -37.6522   23.6638 H   0  0  0  0  0  0
  -26.0273  -31.5894   20.5898 H   0  0  0  0  0  0
  -26.8243  -30.8914   21.9744 H   0  0  0  0  0  0
  -28.0842  -29.0635   21.1997 H   0  0  0  0  0  0
  -25.9989  -26.0237   18.9221 H   0  0  0  0  0  0
  -23.9646  -27.3456   18.9953 H   0  0  0  0  0  0
  -23.7178  -30.6103   19.4075 H   0  0  0  0  0  0
  -22.7339  -29.2558   19.8755 H   0  0  0  0  0  0
  -25.1257  -36.1967   25.0829 H   0  0  0  0  0  0
  -21.0003  -28.3248   24.1433 H   0  0  0  0  0  0
  -20.5788  -26.2303   23.3605 H   0  0  0  0  0  0
  -21.6660  -26.7467   22.1122 H   0  0  0  0  0  0
  -19.6929  -25.6283   21.1256 H   0  0  0  0  0  0
  -19.6755  -27.3188   20.6770 H   0  0  0  0  0  0
  -17.4243  -26.6855   21.3916 H   0  0  0  0  0  0
  -18.0181  -26.0020   22.8873 H   0  0  0  0  0  0
  -19.7927  -30.7216   24.2409 H   0  0  0  0  0  0
  -17.5012  -31.6276   24.5148 H   0  0  0  0  0  0
  -15.5381  -30.3053   23.7536 H   0  0  0  0  0  0
  -15.8677  -28.0856   22.7020 H   0  0  0  0  0  0
  -24.5918  -30.7032   25.7771 H   0  0  0  0  0  0
  -24.8903  -32.2891   26.4823 H   0  0  0  0  0  0
  -25.8055  -30.8913   27.0242 H   0  0  0  0  0  0
  -26.2888  -29.6769   24.1075 H   0  0  0  0  0  0
  -27.4066  -29.7227   25.4522 H   0  0  0  0  0  0
  -27.8728  -30.4335   23.9240 H   0  0  0  0  0  0
  -27.2696  -33.3594   26.2050 H   0  0  0  0  0  0
  -28.3870  -32.6812   25.0270 H   0  0  0  0  0  0
  -28.0736  -31.8385   26.5377 H   0  0  0  0  0  0
  -28.2587  -38.0100   24.7487 H   0  0  0  0  0  0
  -28.1057  -36.2628   24.6304 H   0  0  0  0  0  0
  -27.2292  -37.1461   25.8867 H   0  0  0  0  0  0
  -20.9274  -29.8690   21.6846 H   0  0  0  0  0  0
  -26.0161  -38.2864   24.1425 H   0  0  0  0  0  0
  -31.1607  -19.0931   22.5724 H   0  0  0  0  0  0
  -30.2223  -21.2646   22.1163 H   0  0  0  0  0  0
  -25.7163  -23.1774   23.1424 H   0  0  0  0  0  0
  -27.2849  -25.5698   22.3239 H   0  0  0  0  0  0
  -26.0551  -25.0002   21.1961 H   0  0  0  0  0  0
  -29.8263  -24.7431   21.5186 H   0  0  0  0  0  0
  -29.9540  -24.1318   19.8769 H   0  0  0  0  0  0
  -27.6948  -24.8227   19.3869 H   0  0  0  0  0  0
  -29.7993  -16.3564   18.8671 H   0  0  0  0  0  0
  -28.9620  -17.4650   17.8702 H   0  0  0  0  0  0
  -28.0556  -16.5841   19.1064 H   0  0  0  0  0  0
  -26.8190  -20.3085   18.7082 H   0  0  0  0  0  0
  -27.1886  -18.7291   18.1597 H   0  0  0  0  0  0
  -28.1762  -20.0747   17.6023 H   0  0  0  0  0  0
  -27.9414  -21.0624   23.1970 H   0  0  0  0  0  0
  -26.3566  -20.6176   22.5454 H   0  0  0  0  0  0
  -26.5207  -21.1734   24.2168 H   0  0  0  0  0  0
  -31.0953  -16.8076   22.4502 H   0  0  0  0  0  0
  -31.8257  -16.8023   20.8881 H   0  0  0  0  0  0
  -27.3186  -21.9476   19.9927 H   0  0  0  0  0  0
  -28.8130  -22.3401   19.2054 H   0  0  0  0  0  0
  -29.2606  -15.3362   21.5741 H   0  0  0  0  0  0
  -29.2619  -22.6348   21.8695 H   0  0  0  0  0  0
  1 25  1  0  0  0
  1 30  2  0  0  0
  1 87  1  0  0  0
  2  3  1  0  0  0
  2 25  1  0  0  0
  2 89  1  0  0  0
  2 90  1  0  0  0
  3  4  1  0  0  0
  3 91  1  0  0  0
  3 92  1  0  0  0
  4  5  1  0  0  0
  4 93  1  0  0  0
  4 94  1  0  0  0
  5  6  1  0  0  0
  5 26  1  0  0  0
  5 95  1  0  0  0
  6 25  1  0  0  0
  6 96  1  0  0  0
  6 97  1  0  0  0
  7  8  2  0  0  0
  7 26  1  0  0  0
  7 29  1  0  0  0
  8  9  1  0  0  0
  8 22  1  0  0  0
  9 10  1  0  0  0
  9 27  2  0  0  0
 10 11  2  0  0  0
 10 15  1  0  0  0
 11 12  1  0  0  0
 11 98  1  0  0  0
 12 13  2  0  0  0
 12 99  1  0  0  0
 13 14  1  0  0  0
 13 31  1  0  0  0
 14 15  2  0  0  0
 14100  1  0  0  0
 15101  1  0  0  0
 16 17  2  0  0  0
 16 21  1  0  0  0
 16 31  1  0  0  0
 17 18  1  0  0  0
 17102  1  0  0  0
 18 19  2  0  0  0
 18103  1  0  0  0
 19 20  1  0  0  0
 19 24  1  0  0  0
 20 21  2  0  0  0
 20104  1  0  0  0
 21 23  1  0  0  0
 22 28  1  0  0  0
 22 32  2  0  0  0
 26 27  1  0  0  0
 28105  1  0  0  0
 28106  1  0  0  0
 29107  1  0  0  0
 29108  1  0  0  0
 33 34  1  0  0  0
 33 66  1  0  0  0
 33 70  2  0  0  0
 34 36  1  0  0  0
 34 59  1  0  0  0
 34109  1  0  0  0
 35 44  2  0  0  0
 35 45  1  0  0  0
 35 68  1  0  0  0
 36 56  1  0  0  0
 36110  1  0  0  0
 37 39  1  0  0  0
 37 47  1  0  0  0
 37 66  1  0  0  0
 37111  1  0  0  0
 38 43  2  0  0  0
 38 46  1  0  0  0
 38 47  1  0  0  0
 39 64  1  0  0  0
 39 67  2  0  0  0
 40 52  1  0  0  0
 40 53  2  0  0  0
 40 58  1  0  0  0
 41112  1  0  0  0
 41113  1  0  0  0
 41114  1  0  0  0
 41 48  1  0  0  0
 42 43  1  0  0  0
 42 66  1  0  0  0
 42115  1  0  0  0
 42116  1  0  0  0
 43 44  1  0  0  0
 44117  1  0  0  0
 45 46  2  0  0  0
 45118  1  0  0  0
 46119  1  0  0  0
 47120  1  0  0  0
 47121  1  0  0  0
 48 56  1  0  0  0
 48 65  1  0  0  0
 48122  1  0  0  0
 49 50  1  0  0  0
 49 53  1  0  0  0
 49 64  1  0  0  0
 49123  1  0  0  0
 50 51  1  0  0  0
 50124  1  0  0  0
 50125  1  0  0  0
 51 52  1  0  0  0
 51126  1  0  0  0
 51127  1  0  0  0
 52128  1  0  0  0
 52129  1  0  0  0
 53 54  1  0  0  0
 54 55  2  0  0  0
 54130  1  0  0  0
 55 57  1  0  0  0
 55131  1  0  0  0
 56 69  2  0  0  0
 57 58  2  0  0  0
 57132  1  0  0  0
 58133  1  0  0  0
 59 60  1  0  0  0
 59 61  1  0  0  0
 59 62  1  0  0  0
 60134  1  0  0  0
 60135  1  0  0  0
 60136  1  0  0  0
 61137  1  0  0  0
 61138  1  0  0  0
 61139  1  0  0  0
 62140  1  0  0  0
 62141  1  0  0  0
 62142  1  0  0  0
 63 65  1  0  0  0
 63143  1  0  0  0
 63144  1  0  0  0
 63145  1  0  0  0
 64146  1  0  0  0
 65147  1  0  0  0
 68 81  1  0  0  0
 71 72  2  0  0  0
 71 73  1  0  0  0
 71148  1  0  0  0
 72 74  1  0  0  0
 72149  1  0  0  0
 73 75  2  0  0  0
 73 85  1  0  0  0
 74 76  2  0  0  0
 74 86  1  0  0  0
 75 76  1  0  0  0
 75 82  1  0  0  0
 76 83  1  0  0  0
 77 78  2  0  0  0
 77 79  1  0  0  0
 77 88  1  0  0  0
 78 84  1  0  0  0
 78150  1  0  0  0
 79 81  1  0  0  0
 79151  1  0  0  0
 79152  1  0  0  0
 80 81  1  0  0  0
 80 88  1  0  0  0
 80153  1  0  0  0
 80154  1  0  0  0
 81155  1  0  0  0
 82156  1  0  0  0
 82157  1  0  0  0
 82158  1  0  0  0
 83159  1  0  0  0
 83160  1  0  0  0
 83161  1  0  0  0
 84162  1  0  0  0
 84163  1  0  0  0
 84164  1  0  0  0
 85 87  1  0  0  0
 85165  1  0  0  0
 85166  1  0  0  0
 86167  1  0  0  0
 86168  1  0  0  0
 86 88  1  0  0  0
 87169  1  0  0  0
 88170  1  0  0  0
M  CHG  1  88   1
M  ISO  4   1 100  68 101  81 101  87 100
M  END
> <chiral flag>
0

> <version>
0

> <s_m_source_file>
/data/baiqing/PycharmProjects/Reinvent-master-3.2/result/LINK_invent/BTK/process_docking_weight1_custom_product_contain_oxygen_bond_distance_aromatic_linkinvent_7_9_3/rearranged_h_0033.sdf

> <i_m_source_file_index>
89

> <r_mmod_Potential_Energy-OPLS-2005>
-142.167617797852

> <r_mmod_Stretch_Energy-OPLS-2005>
44.1640281677246

> <r_mmod_Bend_Energy-OPLS-2005>
146.272384643555

> <r_mmod_Torsional_Energy-OPLS-2005>
231.839508056641

> <r_mmod_Improper_Torsional_Energy-OPLS-2005>
3.46528267860413

> <r_mmod_Van_der_Waal_Energy-OPLS-2005>
170.630905151367

> <r_mmod_Electrostatic_Energy-OPLS-2005>
-341.766510009766

> <r_mmod_Solvation_Energy-OPLS-2005>
-414.711486816406

> <b_mmod_Minimization_Converged-OPLS-2005>
0

> <r_mmod_RMS_Derivative-OPLS-2005>
4.3617262840271

$$$$
89
                    3D
 Structure written by MMmdl.
173182  0  0  1  0            999 V2000
  -30.7489  -14.5137   20.6357 C   0  0  0  0  0  0
  -30.4135  -12.3631   19.4377 C   0  0  0  0  0  0
  -29.4901  -12.5399   18.2170 C   0  0  0  0  0  0
  -28.0161  -12.3795   18.6293 C   0  0  0  0  0  0
  -27.6553  -13.2252   19.8816 C   0  0  2  0  0  0
  -28.6986  -13.0482   21.0101 C   0  0  0  0  0  0
  -25.2501  -13.8183   20.5708 C   0  0  0  0  0  0
  -24.1793  -13.0424   20.9214 C   0  0  0  0  0  0
  -24.6392  -11.6906   20.8790 C   0  0  0  0  0  0
  -23.9077  -10.4298   21.0408 C   0  0  0  0  0  0
  -24.3633   -9.4212   21.9179 C   0  0  0  0  0  0
  -23.6335   -8.2229   22.0719 C   0  0  0  0  0  0
  -22.4309   -8.0282   21.3502 C   0  0  0  0  0  0
  -21.9938   -9.0256   20.4605 C   0  0  0  0  0  0
  -22.7257  -10.2147   20.3041 C   0  0  0  0  0  0
  -21.6833   -6.0783   22.5294 C   0  0  0  0  0  0
  -21.4018   -6.5674   23.8241 C   0  0  0  0  0  0
  -21.3650   -5.6820   24.9190 C   0  0  0  0  0  0
  -21.6029   -4.3077   24.7235 C   0  0  0  0  0  0
  -21.8817   -3.8182   23.4353 C   0  0  0  0  0  0
  -21.9178   -4.7000   22.3416 C   0  0  0  0  0  0
  -22.7801  -13.5186   21.1889 C   0  0  0  0  0  0
  -22.1632   -4.2199   21.0992 F   0  0  0  0  0  0
  -21.5624   -3.4565   25.7744 F   0  0  0  0  0  0
  -30.0289  -13.3596   20.4607 N   0  0  0  0  0  0
  -26.2988  -12.9409   20.3447 N   0  0  0  0  0  0
  -25.9354  -11.6536   20.5897 N   0  0  0  0  0  0
  -22.0426  -12.8203   22.0424 N   0  0  0  0  0  0
  -25.4156  -15.1909   20.4067 N   0  0  0  0  0  0
  -31.8135  -14.6980   20.0376 O   0  0  0  0  0  0
  -21.6625   -6.8904   21.4240 O   0  0  0  0  0  0
  -22.3501  -14.5511   20.6749 O   0  0  0  0  0  0
  -24.6193  -31.8626   23.2051 C   0  0  0  0  0  0
  -25.9059  -32.4798   23.8364 C   0  0  1  0  0  0
  -27.2389  -27.3799   20.0956 C   0  0  0  0  0  0
  -25.5907  -33.8599   24.2305 N   0  0  0  0  0  0
  -23.4093  -30.4849   21.5468 C   0  0  2  0  0  0
  -24.8561  -28.9412   20.1114 C   0  0  0  0  0  0
  -22.7427  -29.4634   22.4965 C   0  0  0  0  0  0
  -18.0266  -28.1374   22.8493 C   0  0  0  0  0  0
  -24.1482  -36.7299   23.2637 C   0  0  0  0  0  0
  -25.9417  -30.8111   21.3647 C   0  0  0  0  0  0
  -26.0173  -29.4403   20.7119 C   0  0  0  0  0  0
  -27.2048  -28.6653   20.7038 C   0  0  0  0  0  0
  -26.0510  -26.9042   19.4942 C   0  0  0  0  0  0
  -24.8702  -27.6751   19.5016 C   0  0  0  0  0  0
  -23.6200  -29.8152   20.1623 C   0  0  0  0  0  0
  -25.4102  -36.3098   24.0339 C   0  0  1  0  0  0
  -20.5863  -28.3666   23.1308 C   0  0  2  0  0  0
  -20.6757  -26.9399   22.5415 C   0  0  0  0  0  0
  -19.5737  -26.6384   21.5211 C   0  0  0  0  0  0
  -18.1915  -26.7923   22.1624 C   0  0  0  0  0  0
  -19.1518  -28.8838   23.2900 C   0  0  0  0  0  0
  -18.9448  -30.1442   23.8910 C   0  0  0  0  0  0
  -17.6453  -30.6583   24.0563 C   0  0  0  0  0  0
  -25.9041  -34.9466   23.5122 C   0  0  0  0  0  0
  -16.5348  -29.9083   23.6334 C   0  0  0  0  0  0
  -16.7256  -28.6502   23.0359 C   0  0  0  0  0  0
  -26.4483  -31.6589   25.0704 C   0  0  0  0  0  0
  -25.3757  -31.3692   26.1460 C   0  0  0  0  0  0
  -27.0318  -30.3031   24.6098 C   0  0  0  0  0  0
  -27.6063  -32.4309   25.7458 C   0  0  0  0  0  0
  -27.5583  -37.1787   24.8461 C   0  0  0  0  0  0
  -21.4154  -29.3031   22.3711 N   0  0  0  0  0  0
  -26.4283  -37.3793   23.9427 N   0  0  0  0  0  0
  -24.6755  -31.0685   22.0974 N   0  0  0  0  0  0
  -23.4175  -28.8180   23.3031 O   0  0  0  0  0  0
  -28.4147  -26.6352   20.1445 O   0  0  0  0  0  0
  -26.5607  -34.8927   22.4687 O   0  0  0  0  0  0
  -23.5376  -32.1396   23.7420 O   0  0  0  0  0  0
  -29.2842  -19.5694   19.3416 C   0  0  0  0  0  0
  -29.2100  -18.2235   19.7723 C   0  0  0  0  0  0
  -29.7391  -20.6230   20.1659 C   0  0  0  0  0  0
  -30.1467  -20.2655   21.4869 C   0  0  0  0  0  0
  -30.0212  -18.9088   21.9582 C   0  0  0  0  0  0
  -29.5676  -17.8538   21.0980 C   0  0  0  0  0  0
  -30.7845  -24.3444   19.7606 C   0  0  0  0  0  0
  -32.0839  -24.3124   20.1070 C   0  0  0  0  0  0
  -30.0953  -25.4271   18.9611 C   0  0  0  0  0  0
  -28.4304  -24.0416   20.0629 C   0  0  0  0  0  0
  -28.6202  -25.4276   19.3527 C   0  0  1  0  0  0
  -28.6963  -17.1951   18.7754 C   0  0  0  0  0  0
  -30.7373  -21.3364   22.4018 C   0  0  0  0  0  0
  -30.3783  -18.6045   23.4125 C   0  0  0  0  0  0
  -31.3490  -15.5124   22.7478 C   0  0  0  0  0  0
  -29.3038  -16.3803   21.5833 C   0  0  0  0  0  0
  -29.9241  -22.0183   19.4684 C   0  0  0  0  0  0
  -30.3942  -15.3597   21.6440 N   0  0  0  0  0  0
  -29.7574  -23.3428   20.1825 N   0  3  1  0  0  0
  -31.4570  -12.4644   19.1333 H   0  0  0  0  0  0
  -30.3251  -11.3529   19.8407 H   0  0  0  0  0  0
  -29.7418  -11.8194   17.4380 H   0  0  0  0  0  0
  -29.6498  -13.5269   17.7782 H   0  0  0  0  0  0
  -27.8336  -11.3200   18.8259 H   0  0  0  0  0  0
  -27.3682  -12.6477   17.7933 H   0  0  0  0  0  0
  -27.6834  -14.2689   19.5697 H   0  0  0  0  0  0
  -28.6803  -12.0254   21.3882 H   0  0  0  0  0  0
  -28.4528  -13.6763   21.8669 H   0  0  0  0  0  0
  -25.2745   -9.5740   22.4782 H   0  0  0  0  0  0
  -24.0047   -7.4628   22.7436 H   0  0  0  0  0  0
  -21.0860   -8.8785   19.8937 H   0  0  0  0  0  0
  -22.3682  -10.9707   19.6197 H   0  0  0  0  0  0
  -21.2019   -7.6188   23.9790 H   0  0  0  0  0  0
  -21.1447   -6.0515   25.9102 H   0  0  0  0  0  0
  -22.0600   -2.7648   23.2823 H   0  0  0  0  0  0
  -22.4078  -11.9940   22.4915 H   0  0  0  0  0  0
  -21.1029  -13.1246   22.2570 H   0  0  0  0  0  0
  -24.6475  -15.8473   20.5106 H   0  0  0  0  0  0
  -26.2674  -15.6307   20.0876 H   0  0  0  0  0  0
  -26.7119  -32.5487   23.1111 H   0  0  0  0  0  0
  -25.0059  -33.9746   25.0454 H   0  0  0  0  0  0
  -22.6999  -31.3031   21.4061 H   0  0  0  0  0  0
  -23.3757  -35.9619   23.3288 H   0  0  0  0  0  0
  -24.3584  -36.8926   22.2056 H   0  0  0  0  0  0
  -23.7216  -37.6491   23.6659 H   0  0  0  0  0  0
  -26.0565  -31.5751   20.5938 H   0  0  0  0  0  0
  -26.8284  -30.8670   21.9847 H   0  0  0  0  0  0
  -28.0987  -29.0490   21.1751 H   0  0  0  0  0  0
  -26.0023  -25.9288   19.0344 H   0  0  0  0  0  0
  -23.9735  -27.2850   19.0394 H   0  0  0  0  0  0
  -23.7273  -30.5892   19.4012 H   0  0  0  0  0  0
  -22.7423  -29.2370   19.8690 H   0  0  0  0  0  0
  -25.1275  -36.1953   25.0832 H   0  0  0  0  0  0
  -20.9949  -28.3230   24.1431 H   0  0  0  0  0  0
  -20.5656  -26.2274   23.3602 H   0  0  0  0  0  0
  -21.6629  -26.7436   22.1213 H   0  0  0  0  0  0
  -19.6901  -25.6300   21.1226 H   0  0  0  0  0  0
  -19.6675  -27.3206   20.6749 H   0  0  0  0  0  0
  -17.4186  -26.6672   21.4026 H   0  0  0  0  0  0
  -18.0317  -26.0056   22.9011 H   0  0  0  0  0  0
  -19.7926  -30.7255   24.2285 H   0  0  0  0  0  0
  -17.5010  -31.6269   24.5155 H   0  0  0  0  0  0
  -15.5346  -30.2994   23.7650 H   0  0  0  0  0  0
  -15.8655  -28.0824   22.7074 H   0  0  0  0  0  0
  -24.5919  -30.7053   25.7794 H   0  0  0  0  0  0
  -24.8967  -32.2850   26.4939 H   0  0  0  0  0  0
  -25.8118  -30.8833   27.0199 H   0  0  0  0  0  0
  -26.2859  -29.6768   24.1193 H   0  0  0  0  0  0
  -27.4129  -29.7286   25.4551 H   0  0  0  0  0  0
  -27.8678  -30.4344   23.9223 H   0  0  0  0  0  0
  -27.2695  -33.3606   26.2054 H   0  0  0  0  0  0
  -28.3858  -32.6872   25.0272 H   0  0  0  0  0  0
  -28.0752  -31.8426   26.5353 H   0  0  0  0  0  0
  -28.2575  -38.0111   24.7564 H   0  0  0  0  0  0
  -28.1102  -36.2648   24.6212 H   0  0  0  0  0  0
  -27.2314  -37.1352   25.8865 H   0  0  0  0  0  0
  -20.9303  -29.8750   21.6937 H   0  0  0  0  0  0
  -26.0166  -38.2860   24.1469 H   0  0  0  0  0  0
  -29.0106  -19.7951   18.3195 H   0  0  0  0  0  0
  -32.7504  -25.1036   19.7941 H   0  0  0  0  0  0
  -32.5096  -23.5167   20.6963 H   0  0  0  0  0  0
  -30.2069  -25.2026   17.8994 H   0  0  0  0  0  0
  -30.5680  -26.3923   19.1388 H   0  0  0  0  0  0
  -27.7221  -23.4286   19.5071 H   0  0  0  0  0  0
  -28.0065  -24.1826   21.0574 H   0  0  0  0  0  0
  -28.0399  -25.4729   18.4302 H   0  0  0  0  0  0
  -28.6326  -17.6157   17.7729 H   0  0  0  0  0  0
  -27.6937  -16.8732   19.0536 H   0  0  0  0  0  0
  -29.3372  -16.3152   18.7227 H   0  0  0  0  0  0
  -31.3551  -22.0364   21.8473 H   0  0  0  0  0  0
  -31.4055  -20.9282   23.1599 H   0  0  0  0  0  0
  -29.9470  -21.8901   22.9108 H   0  0  0  0  0  0
  -30.1162  -19.4294   24.0747 H   0  0  0  0  0  0
  -31.4485  -18.4183   23.5073 H   0  0  0  0  0  0
  -29.8444  -17.7559   23.8277 H   0  0  0  0  0  0
  -31.8851  -14.5792   22.9304 H   0  0  0  0  0  0
  -30.8430  -15.7458   23.6846 H   0  0  0  0  0  0
  -32.0935  -16.2808   22.5340 H   0  0  0  0  0  0
  -28.4923  -15.9647   20.9947 H   0  0  0  0  0  0
  -28.8421  -16.4123   22.5675 H   0  0  0  0  0  0
  -29.3291  -22.0546   18.5574 H   0  0  0  0  0  0
  -30.9524  -21.9689   19.1064 H   0  0  0  0  0  0
  -29.8911  -23.1430   21.1618 H   0  0  0  0  0  0
  1 25  1  0  0  0
  1 30  2  0  0  0
  1 88  1  0  0  0
  2  3  1  0  0  0
  2 25  1  0  0  0
  2 90  1  0  0  0
  2 91  1  0  0  0
  3  4  1  0  0  0
  3 92  1  0  0  0
  3 93  1  0  0  0
  4  5  1  0  0  0
  4 94  1  0  0  0
  4 95  1  0  0  0
  5  6  1  0  0  0
  5 26  1  0  0  0
  5 96  1  0  0  0
  6 25  1  0  0  0
  6 97  1  0  0  0
  6 98  1  0  0  0
  7  8  2  0  0  0
  7 26  1  0  0  0
  7 29  1  0  0  0
  8  9  1  0  0  0
  8 22  1  0  0  0
  9 10  1  0  0  0
  9 27  2  0  0  0
 10 11  2  0  0  0
 10 15  1  0  0  0
 11 12  1  0  0  0
 11 99  1  0  0  0
 12 13  2  0  0  0
 12100  1  0  0  0
 13 14  1  0  0  0
 13 31  1  0  0  0
 14 15  2  0  0  0
 14101  1  0  0  0
 15102  1  0  0  0
 16 17  2  0  0  0
 16 21  1  0  0  0
 16 31  1  0  0  0
 17 18  1  0  0  0
 17103  1  0  0  0
 18 19  2  0  0  0
 18104  1  0  0  0
 19 20  1  0  0  0
 19 24  1  0  0  0
 20 21  2  0  0  0
 20105  1  0  0  0
 21 23  1  0  0  0
 22 28  1  0  0  0
 22 32  2  0  0  0
 26 27  1  0  0  0
 28106  1  0  0  0
 28107  1  0  0  0
 29108  1  0  0  0
 29109  1  0  0  0
 33 34  1  0  0  0
 33 66  1  0  0  0
 33 70  2  0  0  0
 34 36  1  0  0  0
 34 59  1  0  0  0
 34110  1  0  0  0
 35 44  2  0  0  0
 35 45  1  0  0  0
 35 68  1  0  0  0
 36 56  1  0  0  0
 36111  1  0  0  0
 37 39  1  0  0  0
 37 47  1  0  0  0
 37 66  1  0  0  0
 37112  1  0  0  0
 38 43  2  0  0  0
 38 46  1  0  0  0
 38 47  1  0  0  0
 39 64  1  0  0  0
 39 67  2  0  0  0
 40 52  1  0  0  0
 40 53  2  0  0  0
 40 58  1  0  0  0
 41113  1  0  0  0
 41114  1  0  0  0
 41115  1  0  0  0
 41 48  1  0  0  0
 42 43  1  0  0  0
 42 66  1  0  0  0
 42116  1  0  0  0
 42117  1  0  0  0
 43 44  1  0  0  0
 44118  1  0  0  0
 45 46  2  0  0  0
 45119  1  0  0  0
 46120  1  0  0  0
 47121  1  0  0  0
 47122  1  0  0  0
 48 56  1  0  0  0
 48 65  1  0  0  0
 48123  1  0  0  0
 49 50  1  0  0  0
 49 53  1  0  0  0
 49 64  1  0  0  0
 49124  1  0  0  0
 50 51  1  0  0  0
 50125  1  0  0  0
 50126  1  0  0  0
 51 52  1  0  0  0
 51127  1  0  0  0
 51128  1  0  0  0
 52129  1  0  0  0
 52130  1  0  0  0
 53 54  1  0  0  0
 54 55  2  0  0  0
 54131  1  0  0  0
 55 57  1  0  0  0
 55132  1  0  0  0
 56 69  2  0  0  0
 57 58  2  0  0  0
 57133  1  0  0  0
 58134  1  0  0  0
 59 60  1  0  0  0
 59 61  1  0  0  0
 59 62  1  0  0  0
 60135  1  0  0  0
 60136  1  0  0  0
 60137  1  0  0  0
 61138  1  0  0  0
 61139  1  0  0  0
 61140  1  0  0  0
 62141  1  0  0  0
 62142  1  0  0  0
 62143  1  0  0  0
 63 65  1  0  0  0
 63144  1  0  0  0
 63145  1  0  0  0
 63146  1  0  0  0
 64147  1  0  0  0
 65148  1  0  0  0
 68 81  1  0  0  0
 71 72  2  0  0  0
 71 73  1  0  0  0
 71149  1  0  0  0
 72 76  1  0  0  0
 72 82  1  0  0  0
 73 74  2  0  0  0
 73 87  1  0  0  0
 74 75  1  0  0  0
 74 83  1  0  0  0
 75 76  2  0  0  0
 75 84  1  0  0  0
 76 86  1  0  0  0
 77 78  2  0  0  0
 77 79  1  0  0  0
 77 89  1  0  0  0
 78150  1  0  0  0
 78151  1  0  0  0
 79 81  1  0  0  0
 79152  1  0  0  0
 79153  1  0  0  0
 80 81  1  0  0  0
 80 89  1  0  0  0
 80154  1  0  0  0
 80155  1  0  0  0
 81156  1  0  0  0
 82157  1  0  0  0
 82158  1  0  0  0
 82159  1  0  0  0
 83160  1  0  0  0
 83161  1  0  0  0
 83162  1  0  0  0
 84163  1  0  0  0
 84164  1  0  0  0
 84165  1  0  0  0
 85 88  1  0  0  0
 85166  1  0  0  0
 85167  1  0  0  0
 85168  1  0  0  0
 86 88  1  0  0  0
 86169  1  0  0  0
 86170  1  0  0  0
 87171  1  0  0  0
 87172  1  0  0  0
 87 89  1  0  0  0
 89173  1  0  0  0
M  CHG  1  89   1
M  ISO  4   1 100  68 101  81 101  88 100
M  END
> <chiral flag>
0

> <version>
0

> <s_m_source_file>
/data/baiqing/PycharmProjects/Reinvent-master-3.2/result/LINK_invent/BTK/process_docking_weight1_custom_product_contain_oxygen_bond_distance_aromatic_linkinvent_7_9_3/rearranged_h_0033.sdf

> <i_m_source_file_index>
90

> <r_mmod_Potential_Energy-OPLS-2005>
87.9117965698242

> <r_mmod_Stretch_Energy-OPLS-2005>
70.163818359375

> <r_mmod_Bend_Energy-OPLS-2005>
178.354339599609

> <r_mmod_Torsional_Energy-OPLS-2005>
319.549102783203

> <r_mmod_Improper_Torsional_Energy-OPLS-2005>
6.61839294433594

> <r_mmod_Van_der_Waal_Energy-OPLS-2005>
146.833343505859

> <r_mmod_Electrostatic_Energy-OPLS-2005>
-248.941329956055

> <r_mmod_Solvation_Energy-OPLS-2005>
-405.278198242188

> <b_mmod_Minimization_Converged-OPLS-2005>
0

> <r_mmod_RMS_Derivative-OPLS-2005>
3.69405603408813

$$$$
90
                    3D
 Structure written by MMmdl.
180190  0  0  1  0            999 V2000
  -30.5996  -14.6680   20.5007 C   0  0  0  0  0  0
  -30.4451  -12.4093   19.4605 C   0  0  0  0  0  0
  -29.5135  -12.5142   18.2309 C   0  0  0  0  0  0
  -28.0353  -12.3503   18.6393 C   0  0  0  0  0  0
  -27.6569  -13.2165   19.8697 C   0  0  2  0  0  0
  -28.7008  -13.0672   20.9994 C   0  0  0  0  0  0
  -25.2576  -13.8163   20.5689 C   0  0  0  0  0  0
  -24.1834  -13.0434   20.9181 C   0  0  0  0  0  0
  -24.6392  -11.6908   20.8734 C   0  0  0  0  0  0
  -23.9065  -10.4293   21.0400 C   0  0  0  0  0  0
  -24.3612   -9.4213   21.9183 C   0  0  0  0  0  0
  -23.6294   -8.2244   22.0751 C   0  0  0  0  0  0
  -22.4284   -8.0279   21.3539 C   0  0  0  0  0  0
  -21.9915   -9.0256   20.4646 C   0  0  0  0  0  0
  -22.7231  -10.2138   20.3051 C   0  0  0  0  0  0
  -21.6854   -6.0744   22.5283 C   0  0  0  0  0  0
  -21.4010   -6.5645   23.8214 C   0  0  0  0  0  0
  -21.3658   -5.6792   24.9178 C   0  0  0  0  0  0
  -21.6048   -4.3058   24.7222 C   0  0  0  0  0  0
  -21.8819   -3.8151   23.4341 C   0  0  0  0  0  0
  -21.9187   -4.6972   22.3401 C   0  0  0  0  0  0
  -22.7854  -13.5239   21.1854 C   0  0  0  0  0  0
  -22.1651   -4.2155   21.0978 F   0  0  0  0  0  0
  -21.5640   -3.4539   25.7733 F   0  0  0  0  0  0
  -30.0145  -13.4267   20.4416 N   0  0  0  0  0  0
  -26.3009  -12.9344   20.3346 N   0  0  0  0  0  0
  -25.9330  -11.6503   20.5762 N   0  0  0  0  0  0
  -22.0487  -12.8233   22.0408 N   0  0  0  0  0  0
  -25.4305  -15.1883   20.4115 N   0  0  0  0  0  0
  -31.7419  -14.8552   20.0708 O   0  0  0  0  0  0
  -21.6633   -6.8888   21.4245 O   0  0  0  0  0  0
  -22.3553  -14.5561   20.6718 O   0  0  0  0  0  0
  -24.6259  -31.8587   23.2005 C   0  0  0  0  0  0
  -25.9111  -32.4770   23.8333 C   0  0  1  0  0  0
  -27.2317  -27.3124   20.1183 C   0  0  0  0  0  0
  -25.5923  -33.8570   24.2262 N   0  0  0  0  0  0
  -23.4194  -30.4810   21.5423 C   0  0  2  0  0  0
  -24.8661  -28.9292   20.1111 C   0  0  0  0  0  0
  -22.7468  -29.4623   22.4933 C   0  0  0  0  0  0
  -18.0281  -28.1393   22.8488 C   0  0  0  0  0  0
  -24.1493  -36.7289   23.2641 C   0  0  0  0  0  0
  -25.9590  -30.7879   21.3703 C   0  0  0  0  0  0
  -26.0324  -29.4133   20.7140 C   0  0  0  0  0  0
  -27.2134  -28.6155   20.7077 C   0  0  0  0  0  0
  -26.0358  -26.8711   19.5062 C   0  0  0  0  0  0
  -24.8702  -27.6639   19.5000 C   0  0  0  0  0  0
  -23.6343  -29.8112   20.1583 C   0  0  0  0  0  0
  -25.4117  -36.3075   24.0327 C   0  0  1  0  0  0
  -20.5883  -28.3691   23.1286 C   0  0  2  0  0  0
  -20.6775  -26.9416   22.5415 C   0  0  0  0  0  0
  -19.5750  -26.6388   21.5219 C   0  0  0  0  0  0
  -18.1927  -26.7933   22.1626 C   0  0  0  0  0  0
  -19.1534  -28.8858   23.2881 C   0  0  0  0  0  0
  -18.9460  -30.1460   23.8895 C   0  0  0  0  0  0
  -17.6462  -30.6594   24.0565 C   0  0  0  0  0  0
  -25.9052  -34.9445   23.5096 C   0  0  0  0  0  0
  -16.5352  -29.9095   23.6332 C   0  0  0  0  0  0
  -16.7270  -28.6515   23.0347 C   0  0  0  0  0  0
  -26.4491  -31.6582   25.0707 C   0  0  0  0  0  0
  -25.3720  -31.3729   26.1432 C   0  0  0  0  0  0
  -27.0342  -30.3007   24.6173 C   0  0  0  0  0  0
  -27.6052  -32.4313   25.7477 C   0  0  0  0  0  0
  -27.5579  -37.1799   24.8462 C   0  0  0  0  0  0
  -21.4182  -29.3043   22.3676 N   0  0  0  0  0  0
  -26.4291  -37.3773   23.9405 N   0  0  0  0  0  0
  -24.6870  -31.0597   22.0950 N   0  0  0  0  0  0
  -23.4193  -28.8162   23.3011 O   0  0  0  0  0  0
  -28.3862  -26.5148   20.1692 O   0  0  0  0  0  0
  -26.5625  -34.8917   22.4666 O   0  0  0  0  0  0
  -23.5422  -32.1388   23.7332 O   0  0  0  0  0  0
  -29.0953  -17.5592   19.4800 C   0  0  0  0  0  0
  -28.7170  -18.9179   19.2490 C   0  0  0  0  0  0
  -29.6487  -19.5238   21.4042 C   0  0  0  0  0  0
  -28.9705  -19.9592   20.2139 C   0  0  0  0  0  0
  -30.0463  -18.1466   21.6052 C   0  0  0  0  0  0
  -29.7417  -17.1232   20.6570 C   0  0  0  0  0  0
  -30.1279  -23.2489   19.6242 C   0  0  0  0  0  0
  -31.1887  -22.5132   19.2499 C   0  0  0  0  0  0
  -29.8929  -24.7360   19.3491 C   0  0  0  0  0  0
  -30.6568  -19.9585   15.4665 C   0  0  0  0  0  0
  -29.4837  -20.8047   14.9724 C   0  0  0  0  0  0
  -30.2042  -19.5176   16.8572 C   0  0  0  0  0  0
  -28.2492  -20.2387   15.6978 C   0  0  0  0  0  0
  -28.0833  -23.9193   20.6855 C   0  0  0  0  0  0
  -28.4464  -25.1002   19.7131 C   0  0  1  0  0  0
  -29.8995  -20.5363   22.5210 C   0  0  0  0  0  0
  -30.7770  -17.7461   22.8832 C   0  0  0  0  0  0
  -27.9273  -19.1612   17.9522 C   0  0  0  0  0  0
  -28.3396  -21.4259   20.0244 C   0  0  0  0  0  0
  -29.8103  -15.6894   20.9711 N   0  0  0  0  0  0
  -29.0046  -22.7311   20.4602 N   0  3  1  0  0  0
  -28.7516  -19.2821   16.7154 N   0  3  0  0  0  0
  -31.4848  -12.5442   19.1595 H   0  0  0  0  0  0
  -30.3911  -11.4126   19.9010 H   0  0  0  0  0  0
  -29.7825  -11.7590   17.4916 H   0  0  0  0  0  0
  -29.6550  -13.4801   17.7424 H   0  0  0  0  0  0
  -27.8719  -11.2961   18.8675 H   0  0  0  0  0  0
  -27.3817  -12.5835   17.7973 H   0  0  0  0  0  0
  -27.6774  -14.2537   19.5343 H   0  0  0  0  0  0
  -28.7185  -12.0397   21.3673 H   0  0  0  0  0  0
  -28.4373  -13.6836   21.8602 H   0  0  0  0  0  0
  -25.2757   -9.5683   22.4764 H   0  0  0  0  0  0
  -24.0009   -7.4631   22.7465 H   0  0  0  0  0  0
  -21.0849   -8.8761   19.8957 H   0  0  0  0  0  0
  -22.3684  -10.9675   19.6155 H   0  0  0  0  0  0
  -21.1992   -7.6147   23.9720 H   0  0  0  0  0  0
  -21.1488   -6.0521   25.9084 H   0  0  0  0  0  0
  -22.0599   -2.7615   23.2829 H   0  0  0  0  0  0
  -22.4086  -11.9872   22.4772 H   0  0  0  0  0  0
  -21.1106  -13.1272   22.2624 H   0  0  0  0  0  0
  -24.6702  -15.8460   20.5436 H   0  0  0  0  0  0
  -26.2914  -15.6316   20.1201 H   0  0  0  0  0  0
  -26.7179  -32.5438   23.1077 H   0  0  0  0  0  0
  -25.0063  -33.9711   25.0402 H   0  0  0  0  0  0
  -22.7129  -31.3009   21.3980 H   0  0  0  0  0  0
  -23.3756  -35.9621   23.3297 H   0  0  0  0  0  0
  -24.3582  -36.8917   22.2057 H   0  0  0  0  0  0
  -23.7244  -37.6488   23.6667 H   0  0  0  0  0  0
  -26.0900  -31.5514   20.6020 H   0  0  0  0  0  0
  -26.8392  -30.8375   21.9996 H   0  0  0  0  0  0
  -28.1103  -28.9866   21.1840 H   0  0  0  0  0  0
  -25.9656  -25.9002   19.0408 H   0  0  0  0  0  0
  -23.9725  -27.2858   19.0301 H   0  0  0  0  0  0
  -23.7519  -30.5862   19.3998 H   0  0  0  0  0  0
  -22.7538  -29.2406   19.8586 H   0  0  0  0  0  0
  -25.1302  -36.1923   25.0821 H   0  0  0  0  0  0
  -20.9975  -28.3276   24.1406 H   0  0  0  0  0  0
  -20.5681  -26.2308   23.3616 H   0  0  0  0  0  0
  -21.6643  -26.7453   22.1204 H   0  0  0  0  0  0
  -19.6911  -25.6297   21.1248 H   0  0  0  0  0  0
  -19.6689  -27.3199   20.6746 H   0  0  0  0  0  0
  -17.4202  -26.6681   21.4026 H   0  0  0  0  0  0
  -18.0321  -26.0079   22.9022 H   0  0  0  0  0  0
  -19.7937  -30.7275   24.2263 H   0  0  0  0  0  0
  -17.5019  -31.6270   24.5168 H   0  0  0  0  0  0
  -15.5353  -30.2995   23.7659 H   0  0  0  0  0  0
  -15.8668  -28.0835   22.7055 H   0  0  0  0  0  0
  -24.5889  -30.7091   25.7751 H   0  0  0  0  0  0
  -24.8920  -32.2904   26.4848 H   0  0  0  0  0  0
  -25.8033  -30.8902   27.0210 H   0  0  0  0  0  0
  -26.2927  -29.6744   24.1206 H   0  0  0  0  0  0
  -27.4047  -29.7275   25.4679 H   0  0  0  0  0  0
  -27.8783  -30.4285   23.9395 H   0  0  0  0  0  0
  -27.2671  -33.3618   26.2044 H   0  0  0  0  0  0
  -28.3869  -32.6864   25.0312 H   0  0  0  0  0  0
  -28.0714  -31.8446   26.5400 H   0  0  0  0  0  0
  -28.2593  -38.0100   24.7513 H   0  0  0  0  0  0
  -28.1077  -36.2630   24.6283 H   0  0  0  0  0  0
  -27.2294  -37.1442   25.8864 H   0  0  0  0  0  0
  -20.9357  -29.8768   21.6888 H   0  0  0  0  0  0
  -26.0170  -38.2849   24.1403 H   0  0  0  0  0  0
  -28.8136  -16.8093   18.7540 H   0  0  0  0  0  0
  -31.9862  -22.9517   18.6673 H   0  0  0  0  0  0
  -31.2934  -21.4742   19.5250 H   0  0  0  0  0  0
  -30.1102  -24.9844   18.3095 H   0  0  0  0  0  0
  -30.5884  -25.3019   19.9695 H   0  0  0  0  0  0
  -31.6024  -20.5020   15.4778 H   0  0  0  0  0  0
  -30.7836  -19.0855   14.8245 H   0  0  0  0  0  0
  -29.3789  -20.7800   13.8871 H   0  0  0  0  0  0
  -29.6349  -21.8463   15.2612 H   0  0  0  0  0  0
  -30.3865  -20.3226   17.5684 H   0  0  0  0  0  0
  -30.7363  -18.6314   17.2060 H   0  0  0  0  0  0
  -27.5767  -19.7247   15.0101 H   0  0  0  0  0  0
  -27.6896  -21.0603   16.1464 H   0  0  0  0  0  0
  -27.0296  -23.6545   20.6007 H   0  0  0  0  0  0
  -28.2387  -24.2540   21.7114 H   0  0  0  0  0  0
  -27.8713  -24.9796   18.7948 H   0  0  0  0  0  0
  -30.8130  -21.0997   22.3280 H   0  0  0  0  0  0
  -30.0018  -20.0756   23.5010 H   0  0  0  0  0  0
  -29.0652  -21.2263   22.6336 H   0  0  0  0  0  0
  -31.5977  -18.4328   23.0931 H   0  0  0  0  0  0
  -31.2199  -16.7531   22.8208 H   0  0  0  0  0  0
  -30.0931  -17.7534   23.7317 H   0  0  0  0  0  0
  -27.2201  -19.9805   18.0524 H   0  0  0  0  0  0
  -27.2705  -18.3049   17.7964 H   0  0  0  0  0  0
  -27.3721  -21.3730   20.5244 H   0  0  0  0  0  0
  -28.1142  -21.6029   18.9769 H   0  0  0  0  0  0
  -28.9727  -15.3391   21.4113 H   0  0  0  0  0  0
  -29.3702  -22.5202   21.3773 H   0  0  0  0  0  0
  -28.6847  -18.3773   16.2726 H   0  0  0  0  0  0
  1 25  1  0  0  0
  1 30  2  0  0  0
  1 90  1  0  0  0
  2  3  1  0  0  0
  2 25  1  0  0  0
  2 93  1  0  0  0
  2 94  1  0  0  0
  3  4  1  0  0  0
  3 95  1  0  0  0
  3 96  1  0  0  0
  4  5  1  0  0  0
  4 97  1  0  0  0
  4 98  1  0  0  0
  5  6  1  0  0  0
  5 26  1  0  0  0
  5 99  1  0  0  0
  6 25  1  0  0  0
  6100  1  0  0  0
  6101  1  0  0  0
  7  8  2  0  0  0
  7 26  1  0  0  0
  7 29  1  0  0  0
  8  9  1  0  0  0
  8 22  1  0  0  0
  9 10  1  0  0  0
  9 27  2  0  0  0
 10 11  2  0  0  0
 10 15  1  0  0  0
 11 12  1  0  0  0
 11102  1  0  0  0
 12 13  2  0  0  0
 12103  1  0  0  0
 13 14  1  0  0  0
 13 31  1  0  0  0
 14 15  2  0  0  0
 14104  1  0  0  0
 15105  1  0  0  0
 16 17  2  0  0  0
 16 21  1  0  0  0
 16 31  1  0  0  0
 17 18  1  0  0  0
 17106  1  0  0  0
 18 19  2  0  0  0
 18107  1  0  0  0
 19 20  1  0  0  0
 19 24  1  0  0  0
 20 21  2  0  0  0
 20108  1  0  0  0
 21 23  1  0  0  0
 22 28  1  0  0  0
 22 32  2  0  0  0
 26 27  1  0  0  0
 28109  1  0  0  0
 28110  1  0  0  0
 29111  1  0  0  0
 29112  1  0  0  0
 33 34  1  0  0  0
 33 66  1  0  0  0
 33 70  2  0  0  0
 34 36  1  0  0  0
 34 59  1  0  0  0
 34113  1  0  0  0
 35 44  2  0  0  0
 35 45  1  0  0  0
 35 68  1  0  0  0
 36 56  1  0  0  0
 36114  1  0  0  0
 37 39  1  0  0  0
 37 47  1  0  0  0
 37 66  1  0  0  0
 37115  1  0  0  0
 38 43  2  0  0  0
 38 46  1  0  0  0
 38 47  1  0  0  0
 39 64  1  0  0  0
 39 67  2  0  0  0
 40 52  1  0  0  0
 40 53  2  0  0  0
 40 58  1  0  0  0
 41116  1  0  0  0
 41117  1  0  0  0
 41118  1  0  0  0
 41 48  1  0  0  0
 42 43  1  0  0  0
 42 66  1  0  0  0
 42119  1  0  0  0
 42120  1  0  0  0
 43 44  1  0  0  0
 44121  1  0  0  0
 45 46  2  0  0  0
 45122  1  0  0  0
 46123  1  0  0  0
 47124  1  0  0  0
 47125  1  0  0  0
 48 56  1  0  0  0
 48 65  1  0  0  0
 48126  1  0  0  0
 49 50  1  0  0  0
 49 53  1  0  0  0
 49 64  1  0  0  0
 49127  1  0  0  0
 50 51  1  0  0  0
 50128  1  0  0  0
 50129  1  0  0  0
 51 52  1  0  0  0
 51130  1  0  0  0
 51131  1  0  0  0
 52132  1  0  0  0
 52133  1  0  0  0
 53 54  1  0  0  0
 54 55  2  0  0  0
 54134  1  0  0  0
 55 57  1  0  0  0
 55135  1  0  0  0
 56 69  2  0  0  0
 57 58  2  0  0  0
 57136  1  0  0  0
 58137  1  0  0  0
 59 60  1  0  0  0
 59 61  1  0  0  0
 59 62  1  0  0  0
 60138  1  0  0  0
 60139  1  0  0  0
 60140  1  0  0  0
 61141  1  0  0  0
 61142  1  0  0  0
 61143  1  0  0  0
 62144  1  0  0  0
 62145  1  0  0  0
 62146  1  0  0  0
 63 65  1  0  0  0
 63147  1  0  0  0
 63148  1  0  0  0
 63149  1  0  0  0
 64150  1  0  0  0
 65151  1  0  0  0
 68 85  1  0  0  0
 71 72  2  0  0  0
 71 76  1  0  0  0
 71152  1  0  0  0
 72 74  1  0  0  0
 72 88  1  0  0  0
 73 74  2  0  0  0
 73 75  1  0  0  0
 73 86  1  0  0  0
 74 89  1  0  0  0
 75 76  2  0  0  0
 75 87  1  0  0  0
 76 90  1  0  0  0
 77 78  2  0  0  0
 77 79  1  0  0  0
 77 91  1  0  0  0
 78153  1  0  0  0
 78154  1  0  0  0
 79 85  1  0  0  0
 79155  1  0  0  0
 79156  1  0  0  0
 80 81  1  0  0  0
 80 82  1  0  0  0
 80157  1  0  0  0
 80158  1  0  0  0
 81 83  1  0  0  0
 81159  1  0  0  0
 81160  1  0  0  0
 82 92  1  0  0  0
 82161  1  0  0  0
 82162  1  0  0  0
 83 92  1  0  0  0
 83163  1  0  0  0
 83164  1  0  0  0
 84 85  1  0  0  0
 84 91  1  0  0  0
 84165  1  0  0  0
 84166  1  0  0  0
 85167  1  0  0  0
 86168  1  0  0  0
 86169  1  0  0  0
 86170  1  0  0  0
 87171  1  0  0  0
 87172  1  0  0  0
 87173  1  0  0  0
 88174  1  0  0  0
 88175  1  0  0  0
 88 92  1  0  0  0
 89176  1  0  0  0
 89177  1  0  0  0
 89 91  1  0  0  0
 90178  1  0  0  0
 91179  1  0  0  0
 92180  1  0  0  0
M  CHG  2  91   1  92   1
M  ISO  4   1 100  68 101  85 101  90 100
M  END
> <chiral flag>
0

> <version>
0

> <s_m_source_file>
/data/baiqing/PycharmProjects/Reinvent-master-3.2/result/LINK_invent/BTK/process_docking_weight1_custom_product_contain_oxygen_bond_distance_aromatic_linkinvent_7_9_3/rearranged_h_0033.sdf

> <i_m_source_file_index>
91

> <r_mmod_Potential_Energy-OPLS-2005>
1.36561608314514

> <r_mmod_Stretch_Energy-OPLS-2005>
97.609130859375

> <r_mmod_Bend_Energy-OPLS-2005>
222.511779785156

> <r_mmod_Torsional_Energy-OPLS-2005>
337.845245361328

> <r_mmod_Improper_Torsional_Energy-OPLS-2005>
6.5793137550354

> <r_mmod_Van_der_Waal_Energy-OPLS-2005>
133.936721801758

> <r_mmod_Electrostatic_Energy-OPLS-2005>
60.9840469360352

> <r_mmod_Solvation_Energy-OPLS-2005>
-910.052124023438

> <b_mmod_Minimization_Converged-OPLS-2005>
0

> <r_mmod_RMS_Derivative-OPLS-2005>
1.51911818981171

$$$$
91
                    3D
 Structure written by MMmdl.
157166  0  0  1  0            999 V2000
  -30.6003  -14.7381   20.4527 C   0  0  0  0  0  0
  -30.4337  -12.4501   19.4758 C   0  0  0  0  0  0
  -29.5144  -12.5109   18.2363 C   0  0  0  0  0  0
  -28.0416  -12.3257   18.6526 C   0  0  0  0  0  0
  -27.6425  -13.2286   19.8504 C   0  0  2  0  0  0
  -28.6824  -13.1599   20.9898 C   0  0  0  0  0  0
  -25.2513  -13.8173   20.5659 C   0  0  0  0  0  0
  -24.1802  -13.0425   20.9208 C   0  0  0  0  0  0
  -24.6395  -11.6909   20.8740 C   0  0  0  0  0  0
  -23.9070  -10.4289   21.0412 C   0  0  0  0  0  0
  -24.3622   -9.4199   21.9188 C   0  0  0  0  0  0
  -23.6291   -8.2234   22.0743 C   0  0  0  0  0  0
  -22.4272   -8.0277   21.3537 C   0  0  0  0  0  0
  -21.9918   -9.0252   20.4639 C   0  0  0  0  0  0
  -22.7245  -10.2137   20.3054 C   0  0  0  0  0  0
  -21.6852   -6.0728   22.5267 C   0  0  0  0  0  0
  -21.4010   -6.5631   23.8199 C   0  0  0  0  0  0
  -21.3654   -5.6786   24.9164 C   0  0  0  0  0  0
  -21.6047   -4.3049   24.7222 C   0  0  0  0  0  0
  -21.8818   -3.8138   23.4342 C   0  0  0  0  0  0
  -21.9194   -4.6954   22.3396 C   0  0  0  0  0  0
  -22.7826  -13.5213   21.1862 C   0  0  0  0  0  0
  -22.1665   -4.2137   21.0977 F   0  0  0  0  0  0
  -21.5641   -3.4536   25.7742 F   0  0  0  0  0  0
  -29.9853  -13.5079   20.4102 N   0  0  0  0  0  0
  -26.2934  -12.9376   20.3250 N   0  0  0  0  0  0
  -25.9328  -11.6523   20.5751 N   0  0  0  0  0  0
  -22.0464  -12.8211   22.0428 N   0  0  0  0  0  0
  -25.4206  -15.1876   20.4002 N   0  0  0  0  0  0
  -31.7876  -14.8414   20.1317 O   0  0  0  0  0  0
  -21.6629   -6.8877   21.4233 O   0  0  0  0  0  0
  -22.3520  -14.5507   20.6691 O   0  0  0  0  0  0
  -24.6276  -31.8525   23.1963 C   0  0  0  0  0  0
  -25.9102  -32.4743   23.8309 C   0  0  1  0  0  0
  -27.2215  -27.2607   20.1202 C   0  0  0  0  0  0
  -25.5885  -33.8547   24.2222 N   0  0  0  0  0  0
  -23.4251  -30.4726   21.5406 C   0  0  2  0  0  0
  -24.8708  -28.9139   20.1078 C   0  0  0  0  0  0
  -22.7477  -29.4578   22.4923 C   0  0  0  0  0  0
  -18.0299  -28.1361   22.8512 C   0  0  0  0  0  0
  -24.1490  -36.7281   23.2645 C   0  0  0  0  0  0
  -25.9684  -30.7631   21.3779 C   0  0  0  0  0  0
  -26.0392  -29.3853   20.7175 C   0  0  0  0  0  0
  -27.2130  -28.5690   20.7139 C   0  0  0  0  0  0
  -26.0294  -26.8471   19.4894 C   0  0  0  0  0  0
  -24.8706  -27.6527   19.4872 C   0  0  0  0  0  0
  -23.6402  -29.8013   20.1577 C   0  0  0  0  0  0
  -25.4121  -36.3060   24.0318 C   0  0  1  0  0  0
  -20.5892  -28.3685   23.1306 C   0  0  2  0  0  0
  -20.6762  -26.9392   22.5454 C   0  0  0  0  0  0
  -19.5762  -26.6404   21.5225 C   0  0  0  0  0  0
  -18.1951  -26.7914   22.1639 C   0  0  0  0  0  0
  -19.1545  -28.8851   23.2890 C   0  0  0  0  0  0
  -18.9458  -30.1458   23.8870 C   0  0  0  0  0  0
  -17.6454  -30.6579   24.0545 C   0  0  0  0  0  0
  -25.9051  -34.9432   23.5084 C   0  0  0  0  0  0
  -16.5350  -29.9052   23.6336 C   0  0  0  0  0  0
  -16.7284  -28.6461   23.0380 C   0  0  0  0  0  0
  -26.4482  -31.6592   25.0715 C   0  0  0  0  0  0
  -25.3716  -31.3746   26.1447 C   0  0  0  0  0  0
  -27.0344  -30.3005   24.6238 C   0  0  0  0  0  0
  -27.6018  -32.4362   25.7493 C   0  0  0  0  0  0
  -27.5581  -37.1797   24.8465 C   0  0  0  0  0  0
  -21.4185  -29.3033   22.3687 N   0  0  0  0  0  0
  -26.4298  -37.3763   23.9399 N   0  0  0  0  0  0
  -24.6922  -31.0480   22.0945 N   0  0  0  0  0  0
  -23.4191  -28.8132   23.3024 O   0  0  0  0  0  0
  -28.3453  -26.4094   20.2040 O   0  0  0  0  0  0
  -26.5654  -34.8915   22.4672 O   0  0  0  0  0  0
  -23.5426  -32.1338   23.7263 O   0  0  0  0  0  0
  -26.9577  -19.4234   20.9284 C   0  0  0  0  0  0
  -27.8661  -18.3436   20.8244 C   0  0  0  0  0  0
  -29.5737  -19.9371   20.1888 C   0  0  0  0  0  0
  -27.3262  -20.7761   20.6847 C   0  0  0  0  0  0
  -29.2097  -18.5555   20.4617 C   0  0  0  0  0  0
  -28.6621  -21.0656   20.2952 C   0  0  0  0  0  0
  -26.3400  -21.8868   20.8416 C   0  0  0  0  0  0
  -25.1547  -21.7387   21.4657 C   0  0  0  0  0  0
  -26.6894  -23.2290   20.2018 C   0  0  0  0  0  0
  -28.1664  -23.6330   20.3644 C   0  0  2  0  0  0
  -30.2275  -17.3270   20.3852 C   0  0  0  0  0  0
  -28.4643  -25.0393   19.5976 C   0  0  0  0  0  0
  -29.0323  -22.4378   20.0149 N   0  0  0  0  0  0
  -29.8204  -15.8715   20.6290 N   0  0  0  0  0  0
  -31.4752  -12.5765   19.1749 H   0  0  0  0  0  0
  -30.3787  -11.4708   19.9531 H   0  0  0  0  0  0
  -29.8002  -11.7484   17.5102 H   0  0  0  0  0  0
  -29.6416  -13.4712   17.7345 H   0  0  0  0  0  0
  -27.9115  -11.2779   18.9275 H   0  0  0  0  0  0
  -27.3819  -12.5010   17.8028 H   0  0  0  0  0  0
  -27.6411  -14.2500   19.4690 H   0  0  0  0  0  0
  -28.7122  -12.1619   21.4299 H   0  0  0  0  0  0
  -28.4139  -13.8442   21.7970 H   0  0  0  0  0  0
  -25.2763   -9.5660   22.4778 H   0  0  0  0  0  0
  -23.9982   -7.4613   22.7450 H   0  0  0  0  0  0
  -21.0852   -8.8768   19.8947 H   0  0  0  0  0  0
  -22.3688  -10.9679   19.6168 H   0  0  0  0  0  0
  -21.1990   -7.6137   23.9697 H   0  0  0  0  0  0
  -21.1484   -6.0520   25.9067 H   0  0  0  0  0  0
  -22.0607   -2.7599   23.2844 H   0  0  0  0  0  0
  -22.4079  -11.9901   22.4871 H   0  0  0  0  0  0
  -21.1068  -13.1217   22.2583 H   0  0  0  0  0  0
  -24.6416  -15.8340   20.4667 H   0  0  0  0  0  0
  -26.2460  -15.6064   19.9932 H   0  0  0  0  0  0
  -26.7156  -32.5389   23.1036 H   0  0  0  0  0  0
  -24.9978  -33.9684   25.0329 H   0  0  0  0  0  0
  -22.7204  -31.2932   21.3951 H   0  0  0  0  0  0
  -23.3753  -35.9615   23.3313 H   0  0  0  0  0  0
  -24.3576  -36.8910   22.2060 H   0  0  0  0  0  0
  -23.7252  -37.6482   23.6683 H   0  0  0  0  0  0
  -26.1140  -31.5284   20.6144 H   0  0  0  0  0  0
  -26.8413  -30.8029   22.0186 H   0  0  0  0  0  0
  -28.1105  -28.9237   21.2017 H   0  0  0  0  0  0
  -25.9673  -25.8777   19.0184 H   0  0  0  0  0  0
  -23.9717  -27.2838   19.0125 H   0  0  0  0  0  0
  -23.7586  -30.5747   19.3975 H   0  0  0  0  0  0
  -22.7587  -29.2290   19.8613 H   0  0  0  0  0  0
  -25.1315  -36.1904   25.0812 H   0  0  0  0  0  0
  -20.9988  -28.3269   24.1423 H   0  0  0  0  0  0
  -20.5607  -26.2307   23.3669 H   0  0  0  0  0  0
  -21.6651  -26.7353   22.1319 H   0  0  0  0  0  0
  -19.6916  -25.6339   21.1196 H   0  0  0  0  0  0
  -19.6705  -27.3260   20.6789 H   0  0  0  0  0  0
  -17.4223  -26.6657   21.4040 H   0  0  0  0  0  0
  -18.0375  -26.0041   22.9023 H   0  0  0  0  0  0
  -19.7945  -30.7285   24.2193 H   0  0  0  0  0  0
  -17.5006  -31.6274   24.5117 H   0  0  0  0  0  0
  -15.5345  -30.2936   23.7656 H   0  0  0  0  0  0
  -15.8682  -28.0760   22.7119 H   0  0  0  0  0  0
  -24.5862  -30.7126   25.7787 H   0  0  0  0  0  0
  -24.8945  -32.2919   26.4898 H   0  0  0  0  0  0
  -25.8032  -30.8902   27.0212 H   0  0  0  0  0  0
  -26.2941  -29.6751   24.1236 H   0  0  0  0  0  0
  -27.3972  -29.7274   25.4782 H   0  0  0  0  0  0
  -27.8844  -30.4268   23.9532 H   0  0  0  0  0  0
  -27.2584  -33.3645   26.2069 H   0  0  0  0  0  0
  -28.3823  -32.6955   25.0330 H   0  0  0  0  0  0
  -28.0701  -31.8510   26.5415 H   0  0  0  0  0  0
  -28.2597  -38.0093   24.7503 H   0  0  0  0  0  0
  -28.1069  -36.2620   24.6301 H   0  0  0  0  0  0
  -27.2295  -37.1473   25.8867 H   0  0  0  0  0  0
  -20.9344  -29.8784   21.6938 H   0  0  0  0  0  0
  -26.0169  -38.2836   24.1397 H   0  0  0  0  0  0
  -25.9438  -19.1771   21.2034 H   0  0  0  0  0  0
  -27.5130  -17.3440   21.0367 H   0  0  0  0  0  0
  -30.5944  -20.1360   19.8961 H   0  0  0  0  0  0
  -24.8406  -20.8160   21.9289 H   0  0  0  0  0  0
  -24.4559  -22.5611   21.5311 H   0  0  0  0  0  0
  -26.0343  -24.0152   20.5790 H   0  0  0  0  0  0
  -26.4731  -23.1377   19.1359 H   0  0  0  0  0  0
  -28.3511  -23.8117   21.4250 H   0  0  0  0  0  0
  -30.6850  -17.3654   19.3955 H   0  0  0  0  0  0
  -31.0394  -17.5521   21.0783 H   0  0  0  0  0  0
  -27.9902  -25.0321   18.6158 H   0  0  0  0  0  0
  -29.5268  -24.9993   19.3557 H   0  0  0  0  0  0
  -30.0030  -22.6319   19.7808 H   0  0  0  0  0  0
  -28.8575  -15.7114   20.8780 H   0  0  0  0  0  0
  1 25  1  0  0  0
  1 30  2  0  0  0
  1 84  1  0  0  0
  2  3  1  0  0  0
  2 25  1  0  0  0
  2 85  1  0  0  0
  2 86  1  0  0  0
  3  4  1  0  0  0
  3 87  1  0  0  0
  3 88  1  0  0  0
  4  5  1  0  0  0
  4 89  1  0  0  0
  4 90  1  0  0  0
  5  6  1  0  0  0
  5 26  1  0  0  0
  5 91  1  0  0  0
  6 25  1  0  0  0
  6 92  1  0  0  0
  6 93  1  0  0  0
  7  8  2  0  0  0
  7 26  1  0  0  0
  7 29  1  0  0  0
  8  9  1  0  0  0
  8 22  1  0  0  0
  9 10  1  0  0  0
  9 27  2  0  0  0
 10 11  2  0  0  0
 10 15  1  0  0  0
 11 12  1  0  0  0
 11 94  1  0  0  0
 12 13  2  0  0  0
 12 95  1  0  0  0
 13 14  1  0  0  0
 13 31  1  0  0  0
 14 15  2  0  0  0
 14 96  1  0  0  0
 15 97  1  0  0  0
 16 17  2  0  0  0
 16 21  1  0  0  0
 16 31  1  0  0  0
 17 18  1  0  0  0
 17 98  1  0  0  0
 18 19  2  0  0  0
 18 99  1  0  0  0
 19 20  1  0  0  0
 19 24  1  0  0  0
 20 21  2  0  0  0
 20100  1  0  0  0
 21 23  1  0  0  0
 22 28  1  0  0  0
 22 32  2  0  0  0
 26 27  1  0  0  0
 28101  1  0  0  0
 28102  1  0  0  0
 29103  1  0  0  0
 29104  1  0  0  0
 33 34  1  0  0  0
 33 66  1  0  0  0
 33 70  2  0  0  0
 34 36  1  0  0  0
 34 59  1  0  0  0
 34105  1  0  0  0
 35 44  2  0  0  0
 35 45  1  0  0  0
 35 68  1  0  0  0
 36 56  1  0  0  0
 36106  1  0  0  0
 37 39  1  0  0  0
 37 47  1  0  0  0
 37 66  1  0  0  0
 37107  1  0  0  0
 38 43  2  0  0  0
 38 46  1  0  0  0
 38 47  1  0  0  0
 39 64  1  0  0  0
 39 67  2  0  0  0
 40 52  1  0  0  0
 40 53  2  0  0  0
 40 58  1  0  0  0
 41108  1  0  0  0
 41109  1  0  0  0
 41110  1  0  0  0
 41 48  1  0  0  0
 42 43  1  0  0  0
 42 66  1  0  0  0
 42111  1  0  0  0
 42112  1  0  0  0
 43 44  1  0  0  0
 44113  1  0  0  0
 45 46  2  0  0  0
 45114  1  0  0  0
 46115  1  0  0  0
 47116  1  0  0  0
 47117  1  0  0  0
 48 56  1  0  0  0
 48 65  1  0  0  0
 48118  1  0  0  0
 49 50  1  0  0  0
 49 53  1  0  0  0
 49 64  1  0  0  0
 49119  1  0  0  0
 50 51  1  0  0  0
 50120  1  0  0  0
 50121  1  0  0  0
 51 52  1  0  0  0
 51122  1  0  0  0
 51123  1  0  0  0
 52124  1  0  0  0
 52125  1  0  0  0
 53 54  1  0  0  0
 54 55  2  0  0  0
 54126  1  0  0  0
 55 57  1  0  0  0
 55127  1  0  0  0
 56 69  2  0  0  0
 57 58  2  0  0  0
 57128  1  0  0  0
 58129  1  0  0  0
 59 60  1  0  0  0
 59 61  1  0  0  0
 59 62  1  0  0  0
 60130  1  0  0  0
 60131  1  0  0  0
 60132  1  0  0  0
 61133  1  0  0  0
 61134  1  0  0  0
 61135  1  0  0  0
 62136  1  0  0  0
 62137  1  0  0  0
 62138  1  0  0  0
 63 65  1  0  0  0
 63139  1  0  0  0
 63140  1  0  0  0
 63141  1  0  0  0
 64142  1  0  0  0
 65143  1  0  0  0
 68 82  1  0  0  0
 71 72  2  0  0  0
 71 74  1  0  0  0
 71144  1  0  0  0
 72 75  1  0  0  0
 72145  1  0  0  0
 73 75  2  0  0  0
 73 76  1  0  0  0
 73146  1  0  0  0
 74 76  2  0  0  0
 74 77  1  0  0  0
 75 81  1  0  0  0
 76 83  1  0  0  0
 77 78  2  0  0  0
 77 79  1  0  0  0
 78147  1  0  0  0
 78148  1  0  0  0
 79 80  1  0  0  0
 79149  1  0  0  0
 79150  1  0  0  0
 80 82  1  0  0  0
 80 83  1  0  0  0
 80151  1  0  0  0
 81 84  1  0  0  0
 81152  1  0  0  0
 81153  1  0  0  0
 82154  1  0  0  0
 82155  1  0  0  0
 83156  1  0  0  0
 84157  1  0  0  0
M  ISO  4   1 100  68 101  82 101  84 100
M  END
> <chiral flag>
0

> <version>
0

> <s_m_source_file>
/data/baiqing/PycharmProjects/Reinvent-master-3.2/result/LINK_invent/BTK/process_docking_weight1_custom_product_contain_oxygen_bond_distance_aromatic_linkinvent_7_9_3/rearranged_h_0033.sdf

> <i_m_source_file_index>
92

> <r_mmod_Potential_Energy-OPLS-2005>
95.3004760742188

> <r_mmod_Stretch_Energy-OPLS-2005>
119.787132263184

> <r_mmod_Bend_Energy-OPLS-2005>
180.838531494141

> <r_mmod_Torsional_Energy-OPLS-2005>
189.877365112305

> <r_mmod_Improper_Torsional_Energy-OPLS-2005>
6.34787845611572

> <r_mmod_Van_der_Waal_Energy-OPLS-2005>
142.156768798828

> <r_mmod_Electrostatic_Energy-OPLS-2005>
-402.628021240234

> <r_mmod_Solvation_Energy-OPLS-2005>
-223.427719116211

> <b_mmod_Minimization_Converged-OPLS-2005>
0

> <r_mmod_RMS_Derivative-OPLS-2005>
2.13943839073181

$$$$
