0
                    3D
 Structure written by MMmdl.
158167  0  0  1  0            999 V2000
  -30.6455  -14.6667   20.5817 C   0  0  0  0  0  0
  -30.4351  -12.4352   19.4574 C   0  0  0  0  0  0
  -29.5085  -12.5339   18.2254 C   0  0  0  0  0  0
  -28.0327  -12.3544   18.6304 C   0  0  0  0  0  0
  -27.6496  -13.2216   19.8569 C   0  0  2  0  0  0
  -28.6855  -13.0728   20.9865 C   0  0  0  0  0  0
  -25.2545  -13.8177   20.5668 C   0  0  0  0  0  0
  -24.1814  -13.0440   20.9164 C   0  0  0  0  0  0
  -24.6387  -11.6911   20.8709 C   0  0  0  0  0  0
  -23.9059  -10.4296   21.0395 C   0  0  0  0  0  0
  -24.3612   -9.4216   21.9176 C   0  0  0  0  0  0
  -23.6288   -8.2251   22.0757 C   0  0  0  0  0  0
  -22.4271   -8.0281   21.3547 C   0  0  0  0  0  0
  -21.9904   -9.0252   20.4648 C   0  0  0  0  0  0
  -22.7231  -10.2130   20.3048 C   0  0  0  0  0  0
  -21.6856   -6.0729   22.5276 C   0  0  0  0  0  0
  -21.4013   -6.5630   23.8209 C   0  0  0  0  0  0
  -21.3660   -5.6785   24.9172 C   0  0  0  0  0  0
  -21.6045   -4.3049   24.7224 C   0  0  0  0  0  0
  -21.8818   -3.8140   23.4345 C   0  0  0  0  0  0
  -21.9196   -4.6957   22.3399 C   0  0  0  0  0  0
  -22.7840  -13.5234   21.1845 C   0  0  0  0  0  0
  -22.1664   -4.2141   21.0977 F   0  0  0  0  0  0
  -21.5632   -3.4535   25.7739 F   0  0  0  0  0  0
  -30.0022  -13.4523   20.4454 N   0  0  0  0  0  0
  -26.2961  -12.9362   20.3255 N   0  0  0  0  0  0
  -25.9311  -11.6512   20.5695 N   0  0  0  0  0  0
  -22.0489  -12.8223   22.0403 N   0  0  0  0  0  0
  -25.4286  -15.1901   20.4134 N   0  0  0  0  0  0
  -31.7507  -14.8384   20.0545 O   0  0  0  0  0  0
  -21.6641   -6.8874   21.4240 O   0  0  0  0  0  0
  -22.3527  -14.5549   20.6712 O   0  0  0  0  0  0
  -24.6278  -31.8571   23.1991 C   0  0  0  0  0  0
  -25.9115  -32.4763   23.8334 C   0  0  1  0  0  0
  -27.2244  -27.2992   20.1289 C   0  0  0  0  0  0
  -25.5928  -33.8565   24.2263 N   0  0  0  0  0  0
  -23.4236  -30.4787   21.5411 C   0  0  2  0  0  0
  -24.8723  -28.9258   20.1129 C   0  0  0  0  0  0
  -22.7483  -29.4613   22.4919 C   0  0  0  0  0  0
  -18.0286  -28.1388   22.8482 C   0  0  0  0  0  0
  -24.1481  -36.7272   23.2644 C   0  0  0  0  0  0
  -25.9655  -30.7827   21.3718 C   0  0  0  0  0  0
  -26.0418  -29.4066   20.7171 C   0  0  0  0  0  0
  -27.2251  -28.6063   20.7107 C   0  0  0  0  0  0
  -26.0359  -26.8705   19.5038 C   0  0  0  0  0  0
  -24.8720  -27.6641   19.4960 C   0  0  0  0  0  0
  -23.6409  -29.8085   20.1585 C   0  0  0  0  0  0
  -25.4111  -36.3070   24.0330 C   0  0  1  0  0  0
  -20.5888  -28.3695   23.1275 C   0  0  2  0  0  0
  -20.6773  -26.9414   22.5413 C   0  0  0  0  0  0
  -19.5753  -26.6384   21.5210 C   0  0  0  0  0  0
  -18.1929  -26.7936   22.1609 C   0  0  0  0  0  0
  -19.1541  -28.8857   23.2875 C   0  0  0  0  0  0
  -18.9467  -30.1458   23.8895 C   0  0  0  0  0  0
  -17.6469  -30.6589   24.0565 C   0  0  0  0  0  0
  -25.9053  -34.9443   23.5097 C   0  0  0  0  0  0
  -16.5358  -29.9089   23.6337 C   0  0  0  0  0  0
  -16.7274  -28.6509   23.0354 C   0  0  0  0  0  0
  -26.4494  -31.6583   25.0715 C   0  0  0  0  0  0
  -25.3730  -31.3730   26.1447 C   0  0  0  0  0  0
  -27.0338  -30.3006   24.6179 C   0  0  0  0  0  0
  -27.6050  -32.4326   25.7488 C   0  0  0  0  0  0
  -27.5572  -37.1793   24.8471 C   0  0  0  0  0  0
  -21.4193  -29.3045   22.3664 N   0  0  0  0  0  0
  -26.4282  -37.3770   23.9417 N   0  0  0  0  0  0
  -24.6911  -31.0570   22.0941 N   0  0  0  0  0  0
  -23.4197  -28.8156   23.3010 O   0  0  0  0  0  0
  -28.3220  -26.4244   20.1366 O   0  0  0  0  0  0
  -26.5621  -34.8918   22.4664 O   0  0  0  0  0  0
  -23.5437  -32.1369   23.7310 O   0  0  0  0  0  0
  -30.1370  -19.1533   19.5057 C   0  0  0  0  0  0
  -28.7261  -19.3333   21.4192 C   0  0  0  0  0  0
  -30.3553  -17.7601   19.7784 C   0  0  0  0  0  0
  -28.9546  -17.9500   21.6986 C   0  0  0  0  0  0
  -29.3133  -20.0081   20.3119 C   0  0  0  0  0  0
  -29.7857  -17.1002   20.9038 C   0  0  0  0  0  0
  -28.7443  -23.4145   18.8696 C   0  0  0  0  0  0
  -28.5730  -23.7396   20.1557 C   0  0  0  0  0  0
  -29.0453  -21.9904   18.7617 C   0  0  0  0  0  0
  -28.7866  -22.4742   20.8979 C   0  0  0  0  0  0
  -28.5894  -24.3004   17.6437 C   0  0  0  0  0  0
  -29.9682  -15.4349   22.7553 C   0  0  0  0  0  0
  -28.1353  -25.1110   20.8168 C   0  0  0  0  0  0
  -29.0637  -21.4583   20.0108 N   0  0  0  0  0  0
  -30.0330  -15.6841   21.3038 N   0  0  0  0  0  0
  -29.2210  -21.3709   17.7055 O   0  0  0  0  0  0
  -28.7365  -22.3428   22.1267 O   0  0  0  0  0  0
  -31.4751  -12.5660   19.1546 H   0  0  0  0  0  0
  -30.3833  -11.4380   19.8966 H   0  0  0  0  0  0
  -29.7864  -11.7850   17.4827 H   0  0  0  0  0  0
  -29.6403  -13.5050   17.7455 H   0  0  0  0  0  0
  -27.8776  -11.2998   18.8604 H   0  0  0  0  0  0
  -27.3784  -12.5825   17.7884 H   0  0  0  0  0  0
  -27.6710  -14.2601   19.5252 H   0  0  0  0  0  0
  -28.7112  -12.0443   21.3497 H   0  0  0  0  0  0
  -28.3770  -13.6714   21.8387 H   0  0  0  0  0  0
  -25.2759   -9.5695   22.4747 H   0  0  0  0  0  0
  -24.0001   -7.4647   22.7480 H   0  0  0  0  0  0
  -21.0837   -8.8765   19.8953 H   0  0  0  0  0  0
  -22.3690  -10.9664   19.6152 H   0  0  0  0  0  0
  -21.1998   -7.6137   23.9709 H   0  0  0  0  0  0
  -21.1480   -6.0515   25.9075 H   0  0  0  0  0  0
  -22.0595   -2.7601   23.2846 H   0  0  0  0  0  0
  -22.4105  -11.9878   22.4777 H   0  0  0  0  0  0
  -21.1110  -13.1247   22.2618 H   0  0  0  0  0  0
  -24.6699  -15.8513   20.5359 H   0  0  0  0  0  0
  -26.2953  -15.6297   20.1291 H   0  0  0  0  0  0
  -26.7183  -32.5430   23.1084 H   0  0  0  0  0  0
  -25.0110  -33.9713   25.0434 H   0  0  0  0  0  0
  -22.7187  -31.2995   21.3929 H   0  0  0  0  0  0
  -23.3761  -35.9585   23.3291 H   0  0  0  0  0  0
  -24.3577  -36.8908   22.2060 H   0  0  0  0  0  0
  -23.7211  -37.6458   23.6681 H   0  0  0  0  0  0
  -26.0979  -31.5440   20.6018 H   0  0  0  0  0  0
  -26.8450  -30.8342   22.0021 H   0  0  0  0  0  0
  -28.1254  -28.9718   21.1847 H   0  0  0  0  0  0
  -26.0030  -25.8996   19.0299 H   0  0  0  0  0  0
  -23.9760  -27.2904   19.0194 H   0  0  0  0  0  0
  -23.7621  -30.5816   19.3990 H   0  0  0  0  0  0
  -22.7610  -29.2375   19.8562 H   0  0  0  0  0  0
  -25.1294  -36.1913   25.0823 H   0  0  0  0  0  0
  -20.9979  -28.3269   24.1393 H   0  0  0  0  0  0
  -20.5660  -26.2307   23.3616 H   0  0  0  0  0  0
  -21.6645  -26.7427   22.1215 H   0  0  0  0  0  0
  -19.6918  -25.6293   21.1244 H   0  0  0  0  0  0
  -19.6701  -27.3191   20.6737 H   0  0  0  0  0  0
  -17.4204  -26.6695   21.4002 H   0  0  0  0  0  0
  -18.0312  -26.0070   22.8993 H   0  0  0  0  0  0
  -19.7944  -30.7273   24.2260 H   0  0  0  0  0  0
  -17.5026  -31.6272   24.5164 H   0  0  0  0  0  0
  -15.5363  -30.2993   23.7672 H   0  0  0  0  0  0
  -15.8669  -28.0834   22.7069 H   0  0  0  0  0  0
  -24.5934  -30.7036   25.7794 H   0  0  0  0  0  0
  -24.8893  -32.2894   26.4839 H   0  0  0  0  0  0
  -25.8070  -30.8955   27.0242 H   0  0  0  0  0  0
  -26.2903  -29.6754   24.1219 H   0  0  0  0  0  0
  -27.4044  -29.7270   25.4684 H   0  0  0  0  0  0
  -27.8771  -30.4287   23.9388 H   0  0  0  0  0  0
  -27.2679  -33.3672   26.1986 H   0  0  0  0  0  0
  -28.3910  -32.6805   25.0342 H   0  0  0  0  0  0
  -28.0656  -31.8494   26.5473 H   0  0  0  0  0  0
  -28.2590  -38.0086   24.7511 H   0  0  0  0  0  0
  -28.1062  -36.2618   24.6299 H   0  0  0  0  0  0
  -27.2296  -37.1448   25.8875 H   0  0  0  0  0  0
  -20.9373  -29.8779   21.6883 H   0  0  0  0  0  0
  -26.0155  -38.2838   24.1433 H   0  0  0  0  0  0
  -30.6401  -19.5603   18.6404 H   0  0  0  0  0  0
  -28.0684  -19.8711   22.0873 H   0  0  0  0  0  0
  -31.0064  -17.2101   19.1135 H   0  0  0  0  0  0
  -28.4570  -17.5496   22.5690 H   0  0  0  0  0  0
  -28.4245  -25.3438   17.9048 H   0  0  0  0  0  0
  -27.7449  -23.9637   17.0411 H   0  0  0  0  0  0
  -29.4870  -24.2453   17.0268 H   0  0  0  0  0  0
  -30.5064  -16.2131   23.2983 H   0  0  0  0  0  0
  -30.4135  -14.4842   23.0589 H   0  0  0  0  0  0
  -28.9371  -15.4333   23.1091 H   0  0  0  0  0  0
  -28.6941  -25.1906   21.7500 H   0  0  0  0  0  0
  -27.0967  -24.9893   21.1276 H   0  0  0  0  0  0
  1 25  1  0  0  0
  1 30  2  0  0  0
  1 85  1  0  0  0
  2  3  1  0  0  0
  2 25  1  0  0  0
  2 88  1  0  0  0
  2 89  1  0  0  0
  3  4  1  0  0  0
  3 90  1  0  0  0
  3 91  1  0  0  0
  4  5  1  0  0  0
  4 92  1  0  0  0
  4 93  1  0  0  0
  5  6  1  0  0  0
  5 26  1  0  0  0
  5 94  1  0  0  0
  6 25  1  0  0  0
  6 95  1  0  0  0
  6 96  1  0  0  0
  7  8  2  0  0  0
  7 26  1  0  0  0
  7 29  1  0  0  0
  8  9  1  0  0  0
  8 22  1  0  0  0
  9 10  1  0  0  0
  9 27  2  0  0  0
 10 11  2  0  0  0
 10 15  1  0  0  0
 11 12  1  0  0  0
 11 97  1  0  0  0
 12 13  2  0  0  0
 12 98  1  0  0  0
 13 14  1  0  0  0
 13 31  1  0  0  0
 14 15  2  0  0  0
 14 99  1  0  0  0
 15100  1  0  0  0
 16 17  2  0  0  0
 16 21  1  0  0  0
 16 31  1  0  0  0
 17 18  1  0  0  0
 17101  1  0  0  0
 18 19  2  0  0  0
 18102  1  0  0  0
 19 20  1  0  0  0
 19 24  1  0  0  0
 20 21  2  0  0  0
 20103  1  0  0  0
 21 23  1  0  0  0
 22 28  1  0  0  0
 22 32  2  0  0  0
 26 27  1  0  0  0
 28104  1  0  0  0
 28105  1  0  0  0
 29106  1  0  0  0
 29107  1  0  0  0
 33 34  1  0  0  0
 33 66  1  0  0  0
 33 70  2  0  0  0
 34 36  1  0  0  0
 34 59  1  0  0  0
 34108  1  0  0  0
 35 44  2  0  0  0
 35 45  1  0  0  0
 35 68  1  0  0  0
 36 56  1  0  0  0
 36109  1  0  0  0
 37 39  1  0  0  0
 37 47  1  0  0  0
 37 66  1  0  0  0
 37110  1  0  0  0
 38 43  2  0  0  0
 38 46  1  0  0  0
 38 47  1  0  0  0
 39 64  1  0  0  0
 39 67  2  0  0  0
 40 52  1  0  0  0
 40 53  2  0  0  0
 40 58  1  0  0  0
 41111  1  0  0  0
 41112  1  0  0  0
 41113  1  0  0  0
 41 48  1  0  0  0
 42 43  1  0  0  0
 42 66  1  0  0  0
 42114  1  0  0  0
 42115  1  0  0  0
 43 44  1  0  0  0
 44116  1  0  0  0
 45 46  2  0  0  0
 45117  1  0  0  0
 46118  1  0  0  0
 47119  1  0  0  0
 47120  1  0  0  0
 48 56  1  0  0  0
 48 65  1  0  0  0
 48121  1  0  0  0
 49 50  1  0  0  0
 49 53  1  0  0  0
 49 64  1  0  0  0
 49122  1  0  0  0
 50 51  1  0  0  0
 50123  1  0  0  0
 50124  1  0  0  0
 51 52  1  0  0  0
 51125  1  0  0  0
 51126  1  0  0  0
 52127  1  0  0  0
 52128  1  0  0  0
 53 54  1  0  0  0
 54 55  2  0  0  0
 54129  1  0  0  0
 55 57  1  0  0  0
 55130  1  0  0  0
 56 69  2  0  0  0
 57 58  2  0  0  0
 57131  1  0  0  0
 58132  1  0  0  0
 59 60  1  0  0  0
 59 61  1  0  0  0
 59 62  1  0  0  0
 60133  1  0  0  0
 60134  1  0  0  0
 60135  1  0  0  0
 61136  1  0  0  0
 61137  1  0  0  0
 61138  1  0  0  0
 62139  1  0  0  0
 62140  1  0  0  0
 62141  1  0  0  0
 63 65  1  0  0  0
 63142  1  0  0  0
 63143  1  0  0  0
 63144  1  0  0  0
 64145  1  0  0  0
 65146  1  0  0  0
 68 83  1  0  0  0
 71 73  2  0  0  0
 71 75  1  0  0  0
 71147  1  0  0  0
 72 74  1  0  0  0
 72 75  2  0  0  0
 72148  1  0  0  0
 73 76  1  0  0  0
 73149  1  0  0  0
 74 76  2  0  0  0
 74150  1  0  0  0
 75 84  1  0  0  0
 76 85  1  0  0  0
 77 78  2  0  0  0
 77 79  1  0  0  0
 77 81  1  0  0  0
 78 80  1  0  0  0
 78 83  1  0  0  0
 79 84  1  0  0  0
 79 86  2  0  0  0
 80 84  1  0  0  0
 80 87  2  0  0  0
 81151  1  0  0  0
 81152  1  0  0  0
 81153  1  0  0  0
 82 85  1  0  0  0
 82154  1  0  0  0
 82155  1  0  0  0
 82156  1  0  0  0
 83157  1  0  0  0
 83158  1  0  0  0
M  ISO  4   1 100  68 101  83 101  85 100
M  END
> <chiral flag>
0

> <version>
0

> <s_m_source_file>
/data/baiqing/PycharmProjects/Reinvent-master-3.2/result/LINK_invent/BTK/process_docking_weight1_custom_product_contain_oxygen_bond_distance_aromatic_linkinvent_7_9_3/rearranged_h_0089.sdf

> <i_m_source_file_index>
1

> <r_mmod_Potential_Energy-OPLS-2005>
321.993988037109

> <r_mmod_Stretch_Energy-OPLS-2005>
108.078536987305

> <r_mmod_Bend_Energy-OPLS-2005>
198.659454345703

> <r_mmod_Torsional_Energy-OPLS-2005>
313.846588134766

> <r_mmod_Improper_Torsional_Energy-OPLS-2005>
2.74590635299683

> <r_mmod_Van_der_Waal_Energy-OPLS-2005>
147.926879882812

> <r_mmod_Electrostatic_Energy-OPLS-2005>
-295.554382324219

> <r_mmod_Solvation_Energy-OPLS-2005>
-209.783203125

> <b_mmod_Minimization_Converged-OPLS-2005>
0

> <r_mmod_RMS_Derivative-OPLS-2005>
0.740422189235687

$$$$
1
                    3D
 Structure written by MMmdl.
152160  0  0  1  0            999 V2000
  -30.5369  -14.9375   20.5138 C   0  0  0  0  0  0
  -30.4440  -12.5953   19.5149 C   0  0  0  0  0  0
  -29.5264  -12.5795   18.2689 C   0  0  0  0  0  0
  -28.0586  -12.3511   18.6625 C   0  0  0  0  0  0
  -27.6347  -13.2451   19.8532 C   0  0  2  0  0  0
  -28.6685  -13.2164   21.0003 C   0  0  0  0  0  0
  -25.2444  -13.8192   20.5671 C   0  0  0  0  0  0
  -24.1765  -13.0438   20.9207 C   0  0  0  0  0  0
  -24.6377  -11.6922   20.8748 C   0  0  0  0  0  0
  -23.9077  -10.4305   21.0432 C   0  0  0  0  0  0
  -24.3647   -9.4220   21.9205 C   0  0  0  0  0  0
  -23.6327   -8.2239   22.0757 C   0  0  0  0  0  0
  -22.4297   -8.0290   21.3548 C   0  0  0  0  0  0
  -21.9938   -9.0266   20.4643 C   0  0  0  0  0  0
  -22.7257  -10.2147   20.3072 C   0  0  0  0  0  0
  -21.6851   -6.0760   22.5290 C   0  0  0  0  0  0
  -21.4026   -6.5667   23.8221 C   0  0  0  0  0  0
  -21.3660   -5.6813   24.9181 C   0  0  0  0  0  0
  -21.6049   -4.3075   24.7216 C   0  0  0  0  0  0
  -21.8816   -3.8180   23.4326 C   0  0  0  0  0  0
  -21.9194   -4.7002   22.3400 C   0  0  0  0  0  0
  -22.7791  -13.5227   21.1877 C   0  0  0  0  0  0
  -22.1654   -4.2202   21.0981 F   0  0  0  0  0  0
  -21.5635   -3.4543   25.7726 F   0  0  0  0  0  0
  -29.9577  -13.6622   20.4428 N   0  0  0  0  0  0
  -26.2874  -12.9412   20.3236 N   0  0  0  0  0  0
  -25.9311  -11.6543   20.5721 N   0  0  0  0  0  0
  -22.0440  -12.8219   22.0419 N   0  0  0  0  0  0
  -25.4133  -15.1922   20.4083 N   0  0  0  0  0  0
  -31.6821  -15.0494   20.0480 O   0  0  0  0  0  0
  -21.6659   -6.8898   21.4258 O   0  0  0  0  0  0
  -22.3488  -14.5552   20.6756 O   0  0  0  0  0  0
  -24.6470  -31.8447   23.1896 C   0  0  0  0  0  0
  -25.9232  -32.4708   23.8284 C   0  0  1  0  0  0
  -27.2122  -27.1286   20.1518 C   0  0  0  0  0  0
  -25.5966  -33.8507   24.2213 N   0  0  0  0  0  0
  -23.4487  -30.4692   21.5336 C   0  0  2  0  0  0
  -24.8977  -28.8958   20.1093 C   0  0  0  0  0  0
  -22.7579  -29.4572   22.4834 C   0  0  0  0  0  0
  -18.0317  -28.1387   22.8488 C   0  0  0  0  0  0
  -24.1500  -36.7260   23.2644 C   0  0  0  0  0  0
  -26.0086  -30.7166   21.3906 C   0  0  0  0  0  0
  -26.0771  -29.3268   20.7314 C   0  0  0  0  0  0
  -27.2328  -28.4588   20.7387 C   0  0  0  0  0  0
  -26.0106  -26.8103   19.4779 C   0  0  0  0  0  0
  -24.8781  -27.6502   19.4686 C   0  0  0  0  0  0
  -23.6781  -29.8016   20.1515 C   0  0  0  0  0  0
  -25.4122  -36.3042   24.0341 C   0  0  1  0  0  0
  -20.5943  -28.3727   23.1237 C   0  0  2  0  0  0
  -20.6795  -26.9406   22.5435 C   0  0  0  0  0  0
  -19.5776  -26.6368   21.5232 C   0  0  0  0  0  0
  -18.1950  -26.7942   22.1612 C   0  0  0  0  0  0
  -19.1575  -28.8872   23.2873 C   0  0  0  0  0  0
  -18.9479  -30.1461   23.8910 C   0  0  0  0  0  0
  -17.6469  -30.6575   24.0569 C   0  0  0  0  0  0
  -25.9068  -34.9415   23.5083 C   0  0  0  0  0  0
  -16.5363  -29.9062   23.6329 C   0  0  0  0  0  0
  -16.7300  -28.6479   23.0362 C   0  0  0  0  0  0
  -26.4526  -31.6564   25.0732 C   0  0  0  0  0  0
  -25.3702  -31.3787   26.1433 C   0  0  0  0  0  0
  -27.0382  -30.2940   24.6354 C   0  0  0  0  0  0
  -27.6066  -32.4327   25.7502 C   0  0  0  0  0  0
  -27.5598  -37.1786   24.8456 C   0  0  0  0  0  0
  -21.4269  -29.3053   22.3587 N   0  0  0  0  0  0
  -26.4297  -37.3746   23.9414 N   0  0  0  0  0  0
  -24.7217  -31.0325   22.0928 N   0  0  0  0  0  0
  -23.4221  -28.8121   23.2991 O   0  0  0  0  0  0
  -28.2440  -26.1212   20.2482 O   0  0  0  0  0  0
  -26.5630  -34.8905   22.4648 O   0  0  0  0  0  0
  -23.5592  -32.1300   23.7129 O   0  0  0  0  0  0
  -28.8147  -18.0691   19.6776 C   0  0  0  0  0  0
  -28.4980  -19.4788   19.5239 C   0  0  0  0  0  0
  -30.2608  -18.6227   21.4538 C   0  0  0  0  0  0
  -29.7120  -17.5404   20.6639 C   0  0  0  0  0  0
  -29.0374  -20.5578   20.3113 C   0  0  0  0  0  0
  -29.9625  -20.0430   21.2868 C   0  0  0  0  0  0
  -29.2638  -15.7962   22.3087 C   0  0  0  0  0  0
  -28.8490  -23.3328   20.4517 C   0  0  0  0  0  0
  -27.9370  -24.6220   19.9380 C   0  0  0  0  0  0
  -28.5425  -21.9974   20.0749 N   0  0  0  0  0  0
  -29.8059  -16.0490   21.0411 N   0  0  0  0  0  0
  -28.1124  -16.3255   22.7863 N   0  3  0  0  0  0
  -29.8191  -23.5674   21.1747 O   0  0  0  0  0  0
  -30.5608  -20.9143   22.1347 F   0  0  0  0  0  0
  -31.4785  -12.7626   19.2070 H   0  0  0  0  0  0
  -30.4407  -11.6241   20.0139 H   0  0  0  0  0  0
  -29.8560  -11.8174   17.5642 H   0  0  0  0  0  0
  -29.6076  -13.5358   17.7494 H   0  0  0  0  0  0
  -27.9328  -11.3010   18.9267 H   0  0  0  0  0  0
  -27.4070  -12.5370   17.8083 H   0  0  0  0  0  0
  -27.6125  -14.2624   19.4631 H   0  0  0  0  0  0
  -28.7473  -12.2126   21.4263 H   0  0  0  0  0  0
  -28.3237  -13.8489   21.8159 H   0  0  0  0  0  0
  -25.2799   -9.5724   22.4785 H   0  0  0  0  0  0
  -24.0069   -7.4637   22.7475 H   0  0  0  0  0  0
  -21.0887   -8.8801   19.8936 H   0  0  0  0  0  0
  -22.3734  -10.9713   19.6201 H   0  0  0  0  0  0
  -21.2009   -7.6174   23.9767 H   0  0  0  0  0  0
  -21.1482   -6.0521   25.9101 H   0  0  0  0  0  0
  -22.0590   -2.7643   23.2812 H   0  0  0  0  0  0
  -22.4058  -11.9848   22.4744 H   0  0  0  0  0  0
  -21.1073  -13.1254   22.2686 H   0  0  0  0  0  0
  -24.6189  -15.8214   20.4622 H   0  0  0  0  0  0
  -26.2181  -15.6087   19.9606 H   0  0  0  0  0  0
  -26.7332  -32.5317   23.1034 H   0  0  0  0  0  0
  -25.0152  -33.9607   25.0398 H   0  0  0  0  0  0
  -22.7547  -31.2987   21.3795 H   0  0  0  0  0  0
  -23.3773  -35.9580   23.3270 H   0  0  0  0  0  0
  -24.3606  -36.8914   22.2067 H   0  0  0  0  0  0
  -23.7240  -37.6452   23.6682 H   0  0  0  0  0  0
  -26.1788  -31.4739   20.6225 H   0  0  0  0  0  0
  -26.8747  -30.7604   22.0414 H   0  0  0  0  0  0
  -28.1273  -28.7755   21.2564 H   0  0  0  0  0  0
  -25.9040  -25.8645   18.9677 H   0  0  0  0  0  0
  -23.9783  -27.3204   18.9644 H   0  0  0  0  0  0
  -23.8201  -30.5770   19.3991 H   0  0  0  0  0  0
  -22.7901  -29.2519   19.8368 H   0  0  0  0  0  0
  -25.1312  -36.1873   25.0845 H   0  0  0  0  0  0
  -21.0082  -28.3329   24.1343 H   0  0  0  0  0  0
  -20.5653  -26.2333   23.3671 H   0  0  0  0  0  0
  -21.6660  -26.7368   22.1247 H   0  0  0  0  0  0
  -19.6906  -25.6268   21.1284 H   0  0  0  0  0  0
  -19.6740  -27.3171   20.6762 H   0  0  0  0  0  0
  -17.4243  -26.6766   21.3984 H   0  0  0  0  0  0
  -18.0266  -26.0052   22.8961 H   0  0  0  0  0  0
  -19.7940  -30.7283   24.2287 H   0  0  0  0  0  0
  -17.5001  -31.6258   24.5156 H   0  0  0  0  0  0
  -15.5355  -30.2960   23.7628 H   0  0  0  0  0  0
  -15.8709  -28.0787   22.7081 H   0  0  0  0  0  0
  -24.5962  -30.7007   25.7792 H   0  0  0  0  0  0
  -24.8787  -32.2975   26.4649 H   0  0  0  0  0  0
  -25.8001  -30.9159   27.0324 H   0  0  0  0  0  0
  -26.2994  -29.6659   24.1364 H   0  0  0  0  0  0
  -27.3950  -29.7263   25.4952 H   0  0  0  0  0  0
  -27.8928  -30.4131   23.9696 H   0  0  0  0  0  0
  -27.2665  -33.3654   26.2003 H   0  0  0  0  0  0
  -28.3900  -32.6831   25.0343 H   0  0  0  0  0  0
  -28.0695  -31.8499   26.5478 H   0  0  0  0  0  0
  -28.2590  -38.0106   24.7506 H   0  0  0  0  0  0
  -28.1127  -36.2635   24.6253 H   0  0  0  0  0  0
  -27.2338  -37.1401   25.8867 H   0  0  0  0  0  0
  -20.9452  -29.8785   21.6801 H   0  0  0  0  0  0
  -26.0177  -38.2831   24.1377 H   0  0  0  0  0  0
  -28.2716  -17.3726   19.0535 H   0  0  0  0  0  0
  -27.7585  -19.7286   18.7731 H   0  0  0  0  0  0
  -30.9161  -18.3625   22.2722 H   0  0  0  0  0  0
  -29.8653  -15.1511   22.9457 H   0  0  0  0  0  0
  -27.8893  -24.5354   18.8522 H   0  0  0  0  0  0
  -26.9339  -24.4002   20.2988 H   0  0  0  0  0  0
  -27.7525  -22.0086   19.4471 H   0  0  0  0  0  0
  -27.5093  -16.9126   22.2298 H   0  0  0  0  0  0
  -27.8038  -16.1107   23.7257 H   0  0  0  0  0  0
  1 25  1  0  0  0
  1 30  2  0  0  0
  1 81  1  0  0  0
  2  3  1  0  0  0
  2 25  1  0  0  0
  2 85  1  0  0  0
  2 86  1  0  0  0
  3  4  1  0  0  0
  3 87  1  0  0  0
  3 88  1  0  0  0
  4  5  1  0  0  0
  4 89  1  0  0  0
  4 90  1  0  0  0
  5  6  1  0  0  0
  5 26  1  0  0  0
  5 91  1  0  0  0
  6 25  1  0  0  0
  6 92  1  0  0  0
  6 93  1  0  0  0
  7  8  2  0  0  0
  7 26  1  0  0  0
  7 29  1  0  0  0
  8  9  1  0  0  0
  8 22  1  0  0  0
  9 10  1  0  0  0
  9 27  2  0  0  0
 10 11  2  0  0  0
 10 15  1  0  0  0
 11 12  1  0  0  0
 11 94  1  0  0  0
 12 13  2  0  0  0
 12 95  1  0  0  0
 13 14  1  0  0  0
 13 31  1  0  0  0
 14 15  2  0  0  0
 14 96  1  0  0  0
 15 97  1  0  0  0
 16 17  2  0  0  0
 16 21  1  0  0  0
 16 31  1  0  0  0
 17 18  1  0  0  0
 17 98  1  0  0  0
 18 19  2  0  0  0
 18 99  1  0  0  0
 19 20  1  0  0  0
 19 24  1  0  0  0
 20 21  2  0  0  0
 20100  1  0  0  0
 21 23  1  0  0  0
 22 28  1  0  0  0
 22 32  2  0  0  0
 26 27  1  0  0  0
 28101  1  0  0  0
 28102  1  0  0  0
 29103  1  0  0  0
 29104  1  0  0  0
 33 34  1  0  0  0
 33 66  1  0  0  0
 33 70  2  0  0  0
 34 36  1  0  0  0
 34 59  1  0  0  0
 34105  1  0  0  0
 35 44  2  0  0  0
 35 45  1  0  0  0
 35 68  1  0  0  0
 36 56  1  0  0  0
 36106  1  0  0  0
 37 39  1  0  0  0
 37 47  1  0  0  0
 37 66  1  0  0  0
 37107  1  0  0  0
 38 43  2  0  0  0
 38 46  1  0  0  0
 38 47  1  0  0  0
 39 64  1  0  0  0
 39 67  2  0  0  0
 40 52  1  0  0  0
 40 53  2  0  0  0
 40 58  1  0  0  0
 41108  1  0  0  0
 41109  1  0  0  0
 41110  1  0  0  0
 41 48  1  0  0  0
 42 43  1  0  0  0
 42 66  1  0  0  0
 42111  1  0  0  0
 42112  1  0  0  0
 43 44  1  0  0  0
 44113  1  0  0  0
 45 46  2  0  0  0
 45114  1  0  0  0
 46115  1  0  0  0
 47116  1  0  0  0
 47117  1  0  0  0
 48 56  1  0  0  0
 48 65  1  0  0  0
 48118  1  0  0  0
 49 50  1  0  0  0
 49 53  1  0  0  0
 49 64  1  0  0  0
 49119  1  0  0  0
 50 51  1  0  0  0
 50120  1  0  0  0
 50121  1  0  0  0
 51 52  1  0  0  0
 51122  1  0  0  0
 51123  1  0  0  0
 52124  1  0  0  0
 52125  1  0  0  0
 53 54  1  0  0  0
 54 55  2  0  0  0
 54126  1  0  0  0
 55 57  1  0  0  0
 55127  1  0  0  0
 56 69  2  0  0  0
 57 58  2  0  0  0
 57128  1  0  0  0
 58129  1  0  0  0
 59 60  1  0  0  0
 59 61  1  0  0  0
 59 62  1  0  0  0
 60130  1  0  0  0
 60131  1  0  0  0
 60132  1  0  0  0
 61133  1  0  0  0
 61134  1  0  0  0
 61135  1  0  0  0
 62136  1  0  0  0
 62137  1  0  0  0
 62138  1  0  0  0
 63 65  1  0  0  0
 63139  1  0  0  0
 63140  1  0  0  0
 63141  1  0  0  0
 64142  1  0  0  0
 65143  1  0  0  0
 68 79  1  0  0  0
 71 72  2  0  0  0
 71 74  1  0  0  0
 71144  1  0  0  0
 72 75  1  0  0  0
 72145  1  0  0  0
 73 74  2  0  0  0
 73 76  1  0  0  0
 73146  1  0  0  0
 74 81  1  0  0  0
 75 76  2  0  0  0
 75 80  1  0  0  0
 76 84  1  0  0  0
 77 81  1  0  0  0
 77 82  2  0  0  0
 77147  1  0  0  0
 78 79  1  0  0  0
 78 80  1  0  0  0
 78 83  2  0  0  0
 79148  1  0  0  0
 79149  1  0  0  0
 80150  1  0  0  0
 82151  1  0  0  0
 82152  1  0  0  0
M  CHG  1  82   1
M  ISO  4   1 100  68 101  79 101  81 100
M  END
> <chiral flag>
0

> <version>
0

> <s_m_source_file>
/data/baiqing/PycharmProjects/Reinvent-master-3.2/result/LINK_invent/BTK/process_docking_weight1_custom_product_contain_oxygen_bond_distance_aromatic_linkinvent_7_9_3/rearranged_h_0089.sdf

> <i_m_source_file_index>
2

> <r_mmod_Potential_Energy-OPLS-2005>
557.467102050781

> <r_mmod_Stretch_Energy-OPLS-2005>
239.560607910156

> <r_mmod_Bend_Energy-OPLS-2005>
260.804016113281

> <r_mmod_Torsional_Energy-OPLS-2005>
329.454437255859

> <r_mmod_Improper_Torsional_Energy-OPLS-2005>
6.29855680465698

> <r_mmod_Van_der_Waal_Energy-OPLS-2005>
128.987655639648

> <r_mmod_Electrostatic_Energy-OPLS-2005>
-72.0689926147461

> <r_mmod_Solvation_Energy-OPLS-2005>
-526.912536621094

> <b_mmod_Minimization_Converged-OPLS-2005>
0

> <r_mmod_RMS_Derivative-OPLS-2005>
3.59978032112122

$$$$
2
                    3D
 Structure written by MMmdl.
156165  0  0  1  0            999 V2000
  -30.6333  -14.7616   20.5075 C   0  0  0  0  0  0
  -30.4366  -12.4783   19.4762 C   0  0  0  0  0  0
  -29.5144  -12.5214   18.2379 C   0  0  0  0  0  0
  -28.0398  -12.3397   18.6476 C   0  0  0  0  0  0
  -27.6449  -13.2329   19.8528 C   0  0  2  0  0  0
  -28.6868  -13.1408   20.9844 C   0  0  0  0  0  0
  -25.2524  -13.8210   20.5699 C   0  0  0  0  0  0
  -24.1804  -13.0454   20.9181 C   0  0  0  0  0  0
  -24.6394  -11.6933   20.8722 C   0  0  0  0  0  0
  -23.9070  -10.4310   21.0390 C   0  0  0  0  0  0
  -24.3627   -9.4222   21.9164 C   0  0  0  0  0  0
  -23.6304   -8.2258   22.0741 C   0  0  0  0  0  0
  -22.4280   -8.0306   21.3543 C   0  0  0  0  0  0
  -21.9905   -9.0276   20.4642 C   0  0  0  0  0  0
  -22.7239  -10.2148   20.3041 C   0  0  0  0  0  0
  -21.6863   -6.0755   22.5286 C   0  0  0  0  0  0
  -21.4039   -6.5645   23.8226 C   0  0  0  0  0  0
  -21.3648   -5.6787   24.9168 C   0  0  0  0  0  0
  -21.6030   -4.3054   24.7220 C   0  0  0  0  0  0
  -21.8824   -3.8153   23.4340 C   0  0  0  0  0  0
  -21.9194   -4.6977   22.3400 C   0  0  0  0  0  0
  -22.7829  -13.5247   21.1851 C   0  0  0  0  0  0
  -22.1666   -4.2162   21.0980 F   0  0  0  0  0  0
  -21.5595   -3.4538   25.7730 F   0  0  0  0  0  0
  -29.9867  -13.5374   20.4173 N   0  0  0  0  0  0
  -26.2953  -12.9415   20.3273 N   0  0  0  0  0  0
  -25.9324  -11.6553   20.5719 N   0  0  0  0  0  0
  -22.0480  -12.8245   22.0413 N   0  0  0  0  0  0
  -25.4235  -15.1939   20.4199 N   0  0  0  0  0  0
  -31.7948  -14.8455   20.0949 O   0  0  0  0  0  0
  -21.6642   -6.8904   21.4253 O   0  0  0  0  0  0
  -22.3501  -14.5545   20.6687 O   0  0  0  0  0  0
  -24.6359  -31.8539   23.1990 C   0  0  0  0  0  0
  -25.9172  -32.4747   23.8335 C   0  0  1  0  0  0
  -27.2123  -27.2264   20.1246 C   0  0  0  0  0  0
  -25.5955  -33.8554   24.2247 N   0  0  0  0  0  0
  -23.4330  -30.4801   21.5430 C   0  0  2  0  0  0
  -24.8794  -28.9308   20.1068 C   0  0  0  0  0  0
  -22.7529  -29.4597   22.4888 C   0  0  0  0  0  0
  -18.0301  -28.1389   22.8480 C   0  0  0  0  0  0
  -24.1493  -36.7281   23.2637 C   0  0  0  0  0  0
  -25.9853  -30.7529   21.3882 C   0  0  0  0  0  0
  -26.0546  -29.3750   20.7266 C   0  0  0  0  0  0
  -27.2213  -28.5346   20.7299 C   0  0  0  0  0  0
  -26.0147  -26.8810   19.4504 C   0  0  0  0  0  0
  -24.8671  -27.6920   19.4570 C   0  0  0  0  0  0
  -23.6535  -29.8225   20.1567 C   0  0  0  0  0  0
  -25.4118  -36.3059   24.0318 C   0  0  1  0  0  0
  -20.5912  -28.3711   23.1251 C   0  0  2  0  0  0
  -20.6788  -26.9421   22.5405 C   0  0  0  0  0  0
  -19.5761  -26.6381   21.5213 C   0  0  0  0  0  0
  -18.1942  -26.7927   22.1626 C   0  0  0  0  0  0
  -19.1557  -28.8867   23.2860 C   0  0  0  0  0  0
  -18.9473  -30.1464   23.8882 C   0  0  0  0  0  0
  -17.6471  -30.6590   24.0561 C   0  0  0  0  0  0
  -25.9064  -34.9434   23.5079 C   0  0  0  0  0  0
  -16.5361  -29.9085   23.6332 C   0  0  0  0  0  0
  -16.7283  -28.6503   23.0347 C   0  0  0  0  0  0
  -26.4523  -31.6581   25.0737 C   0  0  0  0  0  0
  -25.3740  -31.3747   26.1456 C   0  0  0  0  0  0
  -27.0370  -30.2985   24.6251 C   0  0  0  0  0  0
  -27.6060  -32.4334   25.7516 C   0  0  0  0  0  0
  -27.5579  -37.1788   24.8460 C   0  0  0  0  0  0
  -21.4228  -29.3057   22.3638 N   0  0  0  0  0  0
  -26.4282  -37.3765   23.9414 N   0  0  0  0  0  0
  -24.7044  -31.0474   22.0993 N   0  0  0  0  0  0
  -23.4215  -28.8124   23.2993 O   0  0  0  0  0  0
  -28.2681  -26.2677   20.2092 O   0  0  0  0  0  0
  -26.5634  -34.8914   22.4647 O   0  0  0  0  0  0
  -23.5496  -32.1382   23.7257 O   0  0  0  0  0  0
  -29.7693  -18.2387   17.8781 C   0  0  0  0  0  0
  -29.5861  -19.5309   18.4055 C   0  0  0  0  0  0
  -29.8808  -17.1061   18.7046 C   0  0  0  0  0  0
  -29.6627  -18.5780   20.6304 C   0  0  0  0  0  0
  -29.5056  -19.7762   19.7983 C   0  0  0  0  0  0
  -29.8383  -17.2077   20.1129 C   0  0  0  0  0  0
  -29.5663  -23.2385   21.2735 C   0  0  0  0  0  0
  -28.7462  -23.5070   20.2514 C   0  0  0  0  0  0
  -29.9291  -21.8171   21.2769 C   0  0  0  0  0  0
  -28.5728  -22.1904   19.5859 C   0  0  0  0  0  0
  -28.4745  -16.6196   22.7298 C   0  0  0  0  0  0
  -29.5425  -15.9583   22.2481 C   0  0  0  0  0  0
  -27.9304  -24.8284   19.8544 C   0  0  0  0  0  0
  -29.3041  -21.2121   20.2368 N   0  0  0  0  0  0
  -29.9494  -15.9280   20.9041 N   0  0  0  0  0  0
  -30.6730  -21.2527   22.0867 O   0  0  0  0  0  0
  -27.8471  -21.9854   18.6059 O   0  0  0  0  0  0
  -31.4756  -12.6041   19.1686 H   0  0  0  0  0  0
  -30.3939  -11.4994   19.9566 H   0  0  0  0  0  0
  -29.8045  -11.7502   17.5229 H   0  0  0  0  0  0
  -29.6359  -13.4766   17.7243 H   0  0  0  0  0  0
  -27.8975  -11.2906   18.9089 H   0  0  0  0  0  0
  -27.3824  -12.5327   17.7988 H   0  0  0  0  0  0
  -27.6459  -14.2609   19.4891 H   0  0  0  0  0  0
  -28.7358  -12.1255   21.3803 H   0  0  0  0  0  0
  -28.3833  -13.7598   21.8237 H   0  0  0  0  0  0
  -25.2783   -9.5703   22.4720 H   0  0  0  0  0  0
  -24.0018   -7.4652   22.7456 H   0  0  0  0  0  0
  -21.0825   -8.8799   19.8968 H   0  0  0  0  0  0
  -22.3699  -10.9677   19.6143 H   0  0  0  0  0  0
  -21.2071   -7.6158   23.9737 H   0  0  0  0  0  0
  -21.1445   -6.0508   25.9070 H   0  0  0  0  0  0
  -22.0611   -2.7620   23.2826 H   0  0  0  0  0  0
  -22.4113  -11.9938   22.4845 H   0  0  0  0  0  0
  -21.1097  -13.1260   22.2619 H   0  0  0  0  0  0
  -24.6678  -15.8548   20.5655 H   0  0  0  0  0  0
  -26.2939  -15.6371   20.1555 H   0  0  0  0  0  0
  -26.7239  -32.5373   23.1072 H   0  0  0  0  0  0
  -25.0107  -33.9690   25.0394 H   0  0  0  0  0  0
  -22.7306  -31.3042   21.3995 H   0  0  0  0  0  0
  -23.3752  -35.9615   23.3282 H   0  0  0  0  0  0
  -24.3589  -36.8924   22.2055 H   0  0  0  0  0  0
  -23.7249  -37.6474   23.6683 H   0  0  0  0  0  0
  -26.1325  -31.5115   20.6182 H   0  0  0  0  0  0
  -26.8614  -30.7985   22.0237 H   0  0  0  0  0  0
  -28.1122  -28.8638   21.2462 H   0  0  0  0  0  0
  -25.9097  -25.9491   18.9181 H   0  0  0  0  0  0
  -23.9728  -27.3488   18.9544 H   0  0  0  0  0  0
  -23.7868  -30.6047   19.4087 H   0  0  0  0  0  0
  -22.7691  -29.2647   19.8427 H   0  0  0  0  0  0
  -25.1297  -36.1893   25.0806 H   0  0  0  0  0  0
  -21.0003  -28.3295   24.1371 H   0  0  0  0  0  0
  -20.5701  -26.2316   23.3614 H   0  0  0  0  0  0
  -21.6654  -26.7446   22.1193 H   0  0  0  0  0  0
  -19.6925  -25.6289   21.1249 H   0  0  0  0  0  0
  -19.6697  -27.3185   20.6738 H   0  0  0  0  0  0
  -17.4210  -26.6669   21.4029 H   0  0  0  0  0  0
  -18.0345  -26.0077   22.9033 H   0  0  0  0  0  0
  -19.7950  -30.7287   24.2237 H   0  0  0  0  0  0
  -17.5026  -31.6269   24.5170 H   0  0  0  0  0  0
  -15.5359  -30.2982   23.7668 H   0  0  0  0  0  0
  -15.8683  -28.0826   22.7057 H   0  0  0  0  0  0
  -24.5895  -30.7118   25.7791 H   0  0  0  0  0  0
  -24.8967  -32.2929   26.4889 H   0  0  0  0  0  0
  -25.8059  -30.8916   27.0229 H   0  0  0  0  0  0
  -26.2963  -29.6724   24.1262 H   0  0  0  0  0  0
  -27.4014  -29.7259   25.4790 H   0  0  0  0  0  0
  -27.8867  -30.4239   23.9536 H   0  0  0  0  0  0
  -27.2644  -33.3626   26.2091 H   0  0  0  0  0  0
  -28.3877  -32.6908   25.0358 H   0  0  0  0  0  0
  -28.0728  -31.8469   26.5438 H   0  0  0  0  0  0
  -28.2572  -38.0105   24.7517 H   0  0  0  0  0  0
  -28.1089  -36.2630   24.6263 H   0  0  0  0  0  0
  -27.2300  -37.1417   25.8862 H   0  0  0  0  0  0
  -20.9412  -29.8792   21.6854 H   0  0  0  0  0  0
  -26.0147  -38.2827   24.1433 H   0  0  0  0  0  0
  -29.8205  -18.1122   16.8055 H   0  0  0  0  0  0
  -29.5170  -20.3437   17.6957 H   0  0  0  0  0  0
  -29.9999  -16.1461   18.2214 H   0  0  0  0  0  0
  -29.6451  -18.7245   21.7003 H   0  0  0  0  0  0
  -29.8718  -23.9464   22.0270 H   0  0  0  0  0  0
  -28.2448  -16.5985   23.7855 H   0  0  0  0  0  0
  -27.8086  -17.1807   22.0912 H   0  0  0  0  0  0
  -30.1829  -15.3887   22.9115 H   0  0  0  0  0  0
  -26.9482  -24.6105   20.2753 H   0  0  0  0  0  0
  -27.8205  -24.7925   18.7702 H   0  0  0  0  0  0
  1 25  1  0  0  0
  1 30  2  0  0  0
  1 85  1  0  0  0
  2  3  1  0  0  0
  2 25  1  0  0  0
  2 88  1  0  0  0
  2 89  1  0  0  0
  3  4  1  0  0  0
  3 90  1  0  0  0
  3 91  1  0  0  0
  4  5  1  0  0  0
  4 92  1  0  0  0
  4 93  1  0  0  0
  5  6  1  0  0  0
  5 26  1  0  0  0
  5 94  1  0  0  0
  6 25  1  0  0  0
  6 95  1  0  0  0
  6 96  1  0  0  0
  7  8  2  0  0  0
  7 26  1  0  0  0
  7 29  1  0  0  0
  8  9  1  0  0  0
  8 22  1  0  0  0
  9 10  1  0  0  0
  9 27  2  0  0  0
 10 11  2  0  0  0
 10 15  1  0  0  0
 11 12  1  0  0  0
 11 97  1  0  0  0
 12 13  2  0  0  0
 12 98  1  0  0  0
 13 14  1  0  0  0
 13 31  1  0  0  0
 14 15  2  0  0  0
 14 99  1  0  0  0
 15100  1  0  0  0
 16 17  2  0  0  0
 16 21  1  0  0  0
 16 31  1  0  0  0
 17 18  1  0  0  0
 17101  1  0  0  0
 18 19  2  0  0  0
 18102  1  0  0  0
 19 20  1  0  0  0
 19 24  1  0  0  0
 20 21  2  0  0  0
 20103  1  0  0  0
 21 23  1  0  0  0
 22 28  1  0  0  0
 22 32  2  0  0  0
 26 27  1  0  0  0
 28104  1  0  0  0
 28105  1  0  0  0
 29106  1  0  0  0
 29107  1  0  0  0
 33 34  1  0  0  0
 33 66  1  0  0  0
 33 70  2  0  0  0
 34 36  1  0  0  0
 34 59  1  0  0  0
 34108  1  0  0  0
 35 44  2  0  0  0
 35 45  1  0  0  0
 35 68  1  0  0  0
 36 56  1  0  0  0
 36109  1  0  0  0
 37 39  1  0  0  0
 37 47  1  0  0  0
 37 66  1  0  0  0
 37110  1  0  0  0
 38 43  2  0  0  0
 38 46  1  0  0  0
 38 47  1  0  0  0
 39 64  1  0  0  0
 39 67  2  0  0  0
 40 52  1  0  0  0
 40 53  2  0  0  0
 40 58  1  0  0  0
 41111  1  0  0  0
 41112  1  0  0  0
 41113  1  0  0  0
 41 48  1  0  0  0
 42 43  1  0  0  0
 42 66  1  0  0  0
 42114  1  0  0  0
 42115  1  0  0  0
 43 44  1  0  0  0
 44116  1  0  0  0
 45 46  2  0  0  0
 45117  1  0  0  0
 46118  1  0  0  0
 47119  1  0  0  0
 47120  1  0  0  0
 48 56  1  0  0  0
 48 65  1  0  0  0
 48121  1  0  0  0
 49 50  1  0  0  0
 49 53  1  0  0  0
 49 64  1  0  0  0
 49122  1  0  0  0
 50 51  1  0  0  0
 50123  1  0  0  0
 50124  1  0  0  0
 51 52  1  0  0  0
 51125  1  0  0  0
 51126  1  0  0  0
 52127  1  0  0  0
 52128  1  0  0  0
 53 54  1  0  0  0
 54 55  2  0  0  0
 54129  1  0  0  0
 55 57  1  0  0  0
 55130  1  0  0  0
 56 69  2  0  0  0
 57 58  2  0  0  0
 57131  1  0  0  0
 58132  1  0  0  0
 59 60  1  0  0  0
 59 61  1  0  0  0
 59 62  1  0  0  0
 60133  1  0  0  0
 60134  1  0  0  0
 60135  1  0  0  0
 61136  1  0  0  0
 61137  1  0  0  0
 61138  1  0  0  0
 62139  1  0  0  0
 62140  1  0  0  0
 62141  1  0  0  0
 63 65  1  0  0  0
 63142  1  0  0  0
 63143  1  0  0  0
 63144  1  0  0  0
 64145  1  0  0  0
 65146  1  0  0  0
 68 83  1  0  0  0
 71 72  2  0  0  0
 71 73  1  0  0  0
 71147  1  0  0  0
 72 75  1  0  0  0
 72148  1  0  0  0
 73 76  2  0  0  0
 73149  1  0  0  0
 74 75  2  0  0  0
 74 76  1  0  0  0
 74150  1  0  0  0
 75 84  1  0  0  0
 76 85  1  0  0  0
 77 78  2  0  0  0
 77 79  1  0  0  0
 77151  1  0  0  0
 78 80  1  0  0  0
 78 83  1  0  0  0
 79 84  1  0  0  0
 79 86  2  0  0  0
 80 84  1  0  0  0
 80 87  2  0  0  0
 81 82  2  0  0  0
 81152  1  0  0  0
 81153  1  0  0  0
 82 85  1  0  0  0
 82154  1  0  0  0
 83155  1  0  0  0
 83156  1  0  0  0
M  ISO  4   1 100  68 101  83 101  85 100
M  END
> <chiral flag>
0

> <version>
0

> <s_m_source_file>
/data/baiqing/PycharmProjects/Reinvent-master-3.2/result/LINK_invent/BTK/process_docking_weight1_custom_product_contain_oxygen_bond_distance_aromatic_linkinvent_7_9_3/rearranged_h_0089.sdf

> <i_m_source_file_index>
3

> <r_mmod_Potential_Energy-OPLS-2005>
435.535522460938

> <r_mmod_Stretch_Energy-OPLS-2005>
156.26806640625

> <r_mmod_Bend_Energy-OPLS-2005>
231.43229675293

> <r_mmod_Torsional_Energy-OPLS-2005>
322.280914306641

> <r_mmod_Improper_Torsional_Energy-OPLS-2005>
3.96767616271973

> <r_mmod_Van_der_Waal_Energy-OPLS-2005>
153.946472167969

> <r_mmod_Electrostatic_Energy-OPLS-2005>
-306.928161621094

> <r_mmod_Solvation_Energy-OPLS-2005>
-226.03564453125

> <b_mmod_Minimization_Converged-OPLS-2005>
0

> <r_mmod_RMS_Derivative-OPLS-2005>
1.74179935455322

$$$$
3
                    3D
 Structure written by MMmdl.
159168  0  0  1  0            999 V2000
  -30.6232  -14.7837   20.4400 C   0  0  0  0  0  0
  -30.4292  -12.4767   19.4809 C   0  0  0  0  0  0
  -29.5098  -12.5052   18.2410 C   0  0  0  0  0  0
  -28.0382  -12.3246   18.6585 C   0  0  0  0  0  0
  -27.6379  -13.2390   19.8473 C   0  0  2  0  0  0
  -28.6849  -13.2098   20.9824 C   0  0  0  0  0  0
  -25.2490  -13.8219   20.5710 C   0  0  0  0  0  0
  -24.1790  -13.0449   20.9214 C   0  0  0  0  0  0
  -24.6396  -11.6932   20.8755 C   0  0  0  0  0  0
  -23.9080  -10.4301   21.0406 C   0  0  0  0  0  0
  -24.3623   -9.4213   21.9184 C   0  0  0  0  0  0
  -23.6294   -8.2250   22.0754 C   0  0  0  0  0  0
  -22.4274   -8.0289   21.3548 C   0  0  0  0  0  0
  -21.9916   -9.0263   20.4646 C   0  0  0  0  0  0
  -22.7253  -10.2139   20.3056 C   0  0  0  0  0  0
  -21.6852   -6.0740   22.5284 C   0  0  0  0  0  0
  -21.4014   -6.5642   23.8217 C   0  0  0  0  0  0
  -21.3658   -5.6791   24.9177 C   0  0  0  0  0  0
  -21.6038   -4.3055   24.7223 C   0  0  0  0  0  0
  -21.8819   -3.8152   23.4347 C   0  0  0  0  0  0
  -21.9188   -4.6970   22.3402 C   0  0  0  0  0  0
  -22.7812  -13.5220   21.1868 C   0  0  0  0  0  0
  -22.1658   -4.2159   21.0979 F   0  0  0  0  0  0
  -21.5630   -3.4536   25.7734 F   0  0  0  0  0  0
  -29.9806  -13.5619   20.3888 N   0  0  0  0  0  0
  -26.2924  -12.9441   20.3293 N   0  0  0  0  0  0
  -25.9330  -11.6576   20.5765 N   0  0  0  0  0  0
  -22.0460  -12.8209   22.0424 N   0  0  0  0  0  0
  -25.4145  -15.1951   20.4145 N   0  0  0  0  0  0
  -31.8204  -14.8223   20.1470 O   0  0  0  0  0  0
  -21.6641   -6.8887   21.4246 O   0  0  0  0  0  0
  -22.3495  -14.5526   20.6718 O   0  0  0  0  0  0
  -24.6354  -31.8523   23.1974 C   0  0  0  0  0  0
  -25.9163  -32.4745   23.8339 C   0  0  1  0  0  0
  -27.2162  -27.2394   20.1327 C   0  0  0  0  0  0
  -25.5945  -33.8551   24.2266 N   0  0  0  0  0  0
  -23.4356  -30.4748   21.5405 C   0  0  2  0  0  0
  -24.8868  -28.9253   20.1039 C   0  0  0  0  0  0
  -22.7537  -29.4583   22.4892 C   0  0  0  0  0  0
  -18.0296  -28.1397   22.8479 C   0  0  0  0  0  0
  -24.1486  -36.7273   23.2641 C   0  0  0  0  0  0
  -25.9843  -30.7578   21.3836 C   0  0  0  0  0  0
  -26.0601  -29.3799   20.7226 C   0  0  0  0  0  0
  -27.2312  -28.5482   20.7310 C   0  0  0  0  0  0
  -26.0286  -26.8681   19.4682 C   0  0  0  0  0  0
  -24.8777  -27.6782   19.4620 C   0  0  0  0  0  0
  -23.6569  -29.8122   20.1558 C   0  0  0  0  0  0
  -25.4113  -36.3068   24.0331 C   0  0  1  0  0  0
  -20.5904  -28.3710   23.1251 C   0  0  2  0  0  0
  -20.6785  -26.9421   22.5405 C   0  0  0  0  0  0
  -19.5760  -26.6383   21.5214 C   0  0  0  0  0  0
  -18.1935  -26.7936   22.1621 C   0  0  0  0  0  0
  -19.1550  -28.8873   23.2855 C   0  0  0  0  0  0
  -18.9468  -30.1472   23.8879 C   0  0  0  0  0  0
  -17.6466  -30.6590   24.0566 C   0  0  0  0  0  0
  -25.9055  -34.9435   23.5099 C   0  0  0  0  0  0
  -16.5360  -29.9080   23.6339 C   0  0  0  0  0  0
  -16.7284  -28.6503   23.0352 C   0  0  0  0  0  0
  -26.4522  -31.6577   25.0740 C   0  0  0  0  0  0
  -25.3734  -31.3716   26.1453 C   0  0  0  0  0  0
  -27.0381  -30.2989   24.6254 C   0  0  0  0  0  0
  -27.6083  -32.4317   25.7499 C   0  0  0  0  0  0
  -27.5573  -37.1789   24.8469 C   0  0  0  0  0  0
  -21.4236  -29.3048   22.3641 N   0  0  0  0  0  0
  -26.4285  -37.3767   23.9412 N   0  0  0  0  0  0
  -24.7044  -31.0465   22.0965 N   0  0  0  0  0  0
  -23.4213  -28.8116   23.2999 O   0  0  0  0  0  0
  -28.2159  -26.2351   20.2277 O   0  0  0  0  0  0
  -26.5625  -34.8911   22.4665 O   0  0  0  0  0  0
  -23.5492  -32.1360   23.7246 O   0  0  0  0  0  0
  -31.9798  -19.1632   20.4601 C   0  0  0  0  0  0
  -31.0324  -20.2032   20.3722 C   0  0  0  0  0  0
  -31.6021  -17.8077   20.5291 C   0  0  0  0  0  0
  -29.6432  -19.9515   20.3583 C   0  0  0  0  0  0
  -30.2439  -17.4133   20.5155 C   0  0  0  0  0  0
  -29.2815  -18.5163   20.4449 C   0  0  0  0  0  0
  -28.0832  -23.6697   20.9606 C   0  0  0  0  0  0
  -27.2202  -22.9856   21.9502 C   0  0  0  0  0  0
  -27.7912  -25.0470   20.9059 C   0  0  0  0  0  0
  -29.1007  -22.6234   20.2954 C   0  0  0  0  0  0
  -26.0132  -22.2062   21.4256 C   0  0  0  0  0  0
  -26.3719  -20.8122   20.8783 C   0  0  0  0  0  0
  -27.4033  -20.8354   19.7401 C   0  0  0  0  0  0
  -28.7480  -21.1187   20.2370 N   0  0  0  0  0  0
  -29.8737  -15.9555   20.5937 N   0  0  0  0  0  0
  -27.4152  -23.0436   23.1682 O   0  0  0  0  0  0
  -27.9745  -18.1564   20.4744 F   0  0  0  0  0  0
  -31.4703  -12.5935   19.1748 H   0  0  0  0  0  0
  -30.3749  -11.5096   19.9835 H   0  0  0  0  0  0
  -29.7969  -11.7226   17.5372 H   0  0  0  0  0  0
  -29.6325  -13.4522   17.7123 H   0  0  0  0  0  0
  -27.9042  -11.2793   18.9385 H   0  0  0  0  0  0
  -27.3787  -12.4972   17.8073 H   0  0  0  0  0  0
  -27.6198  -14.2530   19.4483 H   0  0  0  0  0  0
  -28.7294  -12.2249   21.4497 H   0  0  0  0  0  0
  -28.4174  -13.9141   21.7719 H   0  0  0  0  0  0
  -25.2768   -9.5682   22.4763 H   0  0  0  0  0  0
  -23.9997   -7.4639   22.7476 H   0  0  0  0  0  0
  -21.0848   -8.8787   19.8950 H   0  0  0  0  0  0
  -22.3720  -10.9678   19.6162 H   0  0  0  0  0  0
  -21.2018   -7.6150   23.9726 H   0  0  0  0  0  0
  -21.1475   -6.0522   25.9079 H   0  0  0  0  0  0
  -22.0599   -2.7617   23.2845 H   0  0  0  0  0  0
  -22.4066  -11.9859   22.4802 H   0  0  0  0  0  0
  -21.1083  -13.1246   22.2635 H   0  0  0  0  0  0
  -24.6439  -15.8431   20.5365 H   0  0  0  0  0  0
  -26.2590  -15.6474   20.0888 H   0  0  0  0  0  0
  -26.7235  -32.5393   23.1080 H   0  0  0  0  0  0
  -25.0127  -33.9686   25.0438 H   0  0  0  0  0  0
  -22.7343  -31.2984   21.3928 H   0  0  0  0  0  0
  -23.3754  -35.9597   23.3303 H   0  0  0  0  0  0
  -24.3579  -36.8897   22.2056 H   0  0  0  0  0  0
  -23.7225  -37.6468   23.6667 H   0  0  0  0  0  0
  -26.1277  -31.5178   20.6145 H   0  0  0  0  0  0
  -26.8593  -30.8058   22.0196 H   0  0  0  0  0  0
  -28.1208  -28.8786   21.2490 H   0  0  0  0  0  0
  -25.9727  -25.9005   18.9897 H   0  0  0  0  0  0
  -23.9819  -27.3242   18.9706 H   0  0  0  0  0  0
  -23.7836  -30.5903   19.4026 H   0  0  0  0  0  0
  -22.7759  -29.2463   19.8484 H   0  0  0  0  0  0
  -25.1284  -36.1922   25.0822 H   0  0  0  0  0  0
  -20.9994  -28.3290   24.1373 H   0  0  0  0  0  0
  -20.5682  -26.2322   23.3615 H   0  0  0  0  0  0
  -21.6647  -26.7438   22.1198 H   0  0  0  0  0  0
  -19.6918  -25.6287   21.1251 H   0  0  0  0  0  0
  -19.6695  -27.3190   20.6739 H   0  0  0  0  0  0
  -17.4206  -26.6690   21.4021 H   0  0  0  0  0  0
  -18.0327  -26.0080   22.9019 H   0  0  0  0  0  0
  -19.7943  -30.7293   24.2237 H   0  0  0  0  0  0
  -17.5016  -31.6269   24.5168 H   0  0  0  0  0  0
  -15.5354  -30.2974   23.7678 H   0  0  0  0  0  0
  -15.8684  -28.0820   22.7070 H   0  0  0  0  0  0
  -24.5953  -30.7015   25.7775 H   0  0  0  0  0  0
  -24.8874  -32.2872   26.4838 H   0  0  0  0  0  0
  -25.8054  -30.8937   27.0257 H   0  0  0  0  0  0
  -26.2987  -29.6711   24.1271 H   0  0  0  0  0  0
  -27.4041  -29.7279   25.4797 H   0  0  0  0  0  0
  -27.8871  -30.4249   23.9528 H   0  0  0  0  0  0
  -27.2730  -33.3655   26.2019 H   0  0  0  0  0  0
  -28.3915  -32.6807   25.0326 H   0  0  0  0  0  0
  -28.0726  -31.8471   26.5451 H   0  0  0  0  0  0
  -28.2590  -38.0089   24.7522 H   0  0  0  0  0  0
  -28.1070  -36.2619   24.6289 H   0  0  0  0  0  0
  -27.2293  -37.1431   25.8873 H   0  0  0  0  0  0
  -20.9433  -29.8780   21.6846 H   0  0  0  0  0  0
  -26.0167  -38.2837   24.1422 H   0  0  0  0  0  0
  -33.0320  -19.4128   20.4708 H   0  0  0  0  0  0
  -31.4113  -21.2112   20.3016 H   0  0  0  0  0  0
  -32.3965  -17.0829   20.6013 H   0  0  0  0  0  0
  -27.0028  -25.3648   21.5809 H   0  0  0  0  0  0
  -30.0259  -22.7375   20.8590 H   0  0  0  0  0  0
  -29.3229  -22.9707   19.2858 H   0  0  0  0  0  0
  -25.5397  -22.7982   20.6425 H   0  0  0  0  0  0
  -25.2795  -22.1090   22.2256 H   0  0  0  0  0  0
  -25.4577  -20.3517   20.5013 H   0  0  0  0  0  0
  -26.7139  -20.1657   21.6887 H   0  0  0  0  0  0
  -27.1207  -21.5974   19.0115 H   0  0  0  0  0  0
  -27.3761  -19.9052   19.1730 H   0  0  0  0  0  0
  -28.8868  -15.7925   20.7240 H   0  0  0  0  0  0
  1 25  1  0  0  0
  1 30  2  0  0  0
  1 85  1  0  0  0
  2  3  1  0  0  0
  2 25  1  0  0  0
  2 88  1  0  0  0
  2 89  1  0  0  0
  3  4  1  0  0  0
  3 90  1  0  0  0
  3 91  1  0  0  0
  4  5  1  0  0  0
  4 92  1  0  0  0
  4 93  1  0  0  0
  5  6  1  0  0  0
  5 26  1  0  0  0
  5 94  1  0  0  0
  6 25  1  0  0  0
  6 95  1  0  0  0
  6 96  1  0  0  0
  7  8  2  0  0  0
  7 26  1  0  0  0
  7 29  1  0  0  0
  8  9  1  0  0  0
  8 22  1  0  0  0
  9 10  1  0  0  0
  9 27  2  0  0  0
 10 11  2  0  0  0
 10 15  1  0  0  0
 11 12  1  0  0  0
 11 97  1  0  0  0
 12 13  2  0  0  0
 12 98  1  0  0  0
 13 14  1  0  0  0
 13 31  1  0  0  0
 14 15  2  0  0  0
 14 99  1  0  0  0
 15100  1  0  0  0
 16 17  2  0  0  0
 16 21  1  0  0  0
 16 31  1  0  0  0
 17 18  1  0  0  0
 17101  1  0  0  0
 18 19  2  0  0  0
 18102  1  0  0  0
 19 20  1  0  0  0
 19 24  1  0  0  0
 20 21  2  0  0  0
 20103  1  0  0  0
 21 23  1  0  0  0
 22 28  1  0  0  0
 22 32  2  0  0  0
 26 27  1  0  0  0
 28104  1  0  0  0
 28105  1  0  0  0
 29106  1  0  0  0
 29107  1  0  0  0
 33 34  1  0  0  0
 33 66  1  0  0  0
 33 70  2  0  0  0
 34 36  1  0  0  0
 34 59  1  0  0  0
 34108  1  0  0  0
 35 44  2  0  0  0
 35 45  1  0  0  0
 35 68  1  0  0  0
 36 56  1  0  0  0
 36109  1  0  0  0
 37 39  1  0  0  0
 37 47  1  0  0  0
 37 66  1  0  0  0
 37110  1  0  0  0
 38 43  2  0  0  0
 38 46  1  0  0  0
 38 47  1  0  0  0
 39 64  1  0  0  0
 39 67  2  0  0  0
 40 52  1  0  0  0
 40 53  2  0  0  0
 40 58  1  0  0  0
 41111  1  0  0  0
 41112  1  0  0  0
 41113  1  0  0  0
 41 48  1  0  0  0
 42 43  1  0  0  0
 42 66  1  0  0  0
 42114  1  0  0  0
 42115  1  0  0  0
 43 44  1  0  0  0
 44116  1  0  0  0
 45 46  2  0  0  0
 45117  1  0  0  0
 46118  1  0  0  0
 47119  1  0  0  0
 47120  1  0  0  0
 48 56  1  0  0  0
 48 65  1  0  0  0
 48121  1  0  0  0
 49 50  1  0  0  0
 49 53  1  0  0  0
 49 64  1  0  0  0
 49122  1  0  0  0
 50 51  1  0  0  0
 50123  1  0  0  0
 50124  1  0  0  0
 51 52  1  0  0  0
 51125  1  0  0  0
 51126  1  0  0  0
 52127  1  0  0  0
 52128  1  0  0  0
 53 54  1  0  0  0
 54 55  2  0  0  0
 54129  1  0  0  0
 55 57  1  0  0  0
 55130  1  0  0  0
 56 69  2  0  0  0
 57 58  2  0  0  0
 57131  1  0  0  0
 58132  1  0  0  0
 59 60  1  0  0  0
 59 61  1  0  0  0
 59 62  1  0  0  0
 60133  1  0  0  0
 60134  1  0  0  0
 60135  1  0  0  0
 61136  1  0  0  0
 61137  1  0  0  0
 61138  1  0  0  0
 62139  1  0  0  0
 62140  1  0  0  0
 62141  1  0  0  0
 63 65  1  0  0  0
 63142  1  0  0  0
 63143  1  0  0  0
 63144  1  0  0  0
 64145  1  0  0  0
 65146  1  0  0  0
 68 79  1  0  0  0
 71 72  2  0  0  0
 71 73  1  0  0  0
 71147  1  0  0  0
 72 74  1  0  0  0
 72148  1  0  0  0
 73 75  2  0  0  0
 73149  1  0  0  0
 74 76  2  0  0  0
 74 84  1  0  0  0
 75 76  1  0  0  0
 75 85  1  0  0  0
 76 87  1  0  0  0
 77 78  1  0  0  0
 77 79  2  0  0  0
 77 80  1  0  0  0
 78 81  1  0  0  0
 78 86  2  0  0  0
 79150  1  0  0  0
 80 84  1  0  0  0
 80151  1  0  0  0
 80152  1  0  0  0
 81 82  1  0  0  0
 81153  1  0  0  0
 81154  1  0  0  0
 82 83  1  0  0  0
 82155  1  0  0  0
 82156  1  0  0  0
 83 84  1  0  0  0
 83157  1  0  0  0
 83158  1  0  0  0
 85159  1  0  0  0
M  ISO  4   1 100  68 101  79 101  85 100
M  END
> <chiral flag>
0

> <version>
0

> <s_m_source_file>
/data/baiqing/PycharmProjects/Reinvent-master-3.2/result/LINK_invent/BTK/process_docking_weight1_custom_product_contain_oxygen_bond_distance_aromatic_linkinvent_7_9_3/rearranged_h_0089.sdf

> <i_m_source_file_index>
4

> <r_mmod_Potential_Energy-OPLS-2005>
369.427001953125

> <r_mmod_Stretch_Energy-OPLS-2005>
155.925506591797

> <r_mmod_Bend_Energy-OPLS-2005>
235.696578979492

> <r_mmod_Torsional_Energy-OPLS-2005>
237.375076293945

> <r_mmod_Improper_Torsional_Energy-OPLS-2005>
5.80417490005493

> <r_mmod_Van_der_Waal_Energy-OPLS-2005>
156.963623046875

> <r_mmod_Electrostatic_Energy-OPLS-2005>
-318.531341552734

> <r_mmod_Solvation_Energy-OPLS-2005>
-218.604156494141

> <b_mmod_Minimization_Converged-OPLS-2005>
0

> <r_mmod_RMS_Derivative-OPLS-2005>
1.2309604883194

$$$$
4
                    3D
 Structure written by MMmdl.
152160  0  0  1  0            999 V2000
  -30.6534  -14.5523   20.5140 C   0  0  0  0  0  0
  -30.4278  -12.3407   19.4368 C   0  0  0  0  0  0
  -29.4993  -12.5099   18.2147 C   0  0  0  0  0  0
  -28.0188  -12.3664   18.6231 C   0  0  0  0  0  0
  -27.6566  -13.2143   19.8726 C   0  0  2  0  0  0
  -28.7017  -13.0225   20.9955 C   0  0  0  0  0  0
  -25.2545  -13.8162   20.5676 C   0  0  0  0  0  0
  -24.1805  -13.0421   20.9135 C   0  0  0  0  0  0
  -24.6386  -11.6897   20.8709 C   0  0  0  0  0  0
  -23.9064  -10.4276   21.0386 C   0  0  0  0  0  0
  -24.3616   -9.4198   21.9172 C   0  0  0  0  0  0
  -23.6291   -8.2237   22.0749 C   0  0  0  0  0  0
  -22.4273   -8.0271   21.3543 C   0  0  0  0  0  0
  -21.9907   -9.0234   20.4640 C   0  0  0  0  0  0
  -22.7231  -10.2115   20.3046 C   0  0  0  0  0  0
  -21.6850   -6.0738   22.5279 C   0  0  0  0  0  0
  -21.4010   -6.5643   23.8212 C   0  0  0  0  0  0
  -21.3662   -5.6795   24.9172 C   0  0  0  0  0  0
  -21.6046   -4.3059   24.7222 C   0  0  0  0  0  0
  -21.8820   -3.8153   23.4343 C   0  0  0  0  0  0
  -21.9188   -4.6968   22.3399 C   0  0  0  0  0  0
  -22.7833  -13.5211   21.1817 C   0  0  0  0  0  0
  -22.1656   -4.2162   21.0974 F   0  0  0  0  0  0
  -21.5629   -3.4537   25.7730 F   0  0  0  0  0  0
  -30.0260  -13.3425   20.4386 N   0  0  0  0  0  0
  -26.3000  -12.9353   20.3371 N   0  0  0  0  0  0
  -25.9323  -11.6501   20.5772 N   0  0  0  0  0  0
  -22.0497  -12.8204   22.0398 N   0  0  0  0  0  0
  -25.4225  -15.1888   20.4159 N   0  0  0  0  0  0
  -31.8070  -14.7131   20.1074 O   0  0  0  0  0  0
  -21.6635   -6.8875   21.4241 O   0  0  0  0  0  0
  -22.3498  -14.5513   20.6676 O   0  0  0  0  0  0
  -24.6180  -31.8668   23.2077 C   0  0  0  0  0  0
  -25.9057  -32.4822   23.8389 C   0  0  1  0  0  0
  -27.2299  -27.4040   20.1023 C   0  0  0  0  0  0
  -25.5897  -33.8617   24.2324 N   0  0  0  0  0  0
  -23.4098  -30.4888   21.5486 C   0  0  2  0  0  0
  -24.8594  -28.9540   20.1108 C   0  0  0  0  0  0
  -22.7442  -29.4649   22.4967 C   0  0  0  0  0  0
  -18.0284  -28.1392   22.8499 C   0  0  0  0  0  0
  -24.1484  -36.7311   23.2632 C   0  0  0  0  0  0
  -25.9424  -30.8232   21.3667 C   0  0  0  0  0  0
  -26.0223  -29.4560   20.7110 C   0  0  0  0  0  0
  -27.2161  -28.6891   20.7039 C   0  0  0  0  0  0
  -26.0533  -26.9261   19.4932 C   0  0  0  0  0  0
  -24.8707  -27.6895   19.4974 C   0  0  0  0  0  0
  -23.6229  -29.8249   20.1622 C   0  0  0  0  0  0
  -25.4108  -36.3112   24.0336 C   0  0  1  0  0  0
  -20.5882  -28.3689   23.1305 C   0  0  2  0  0  0
  -20.6783  -26.9420   22.5418 C   0  0  0  0  0  0
  -19.5755  -26.6398   21.5224 C   0  0  0  0  0  0
  -18.1932  -26.7939   22.1631 C   0  0  0  0  0  0
  -19.1535  -28.8855   23.2905 C   0  0  0  0  0  0
  -18.9459  -30.1459   23.8917 C   0  0  0  0  0  0
  -17.6456  -30.6595   24.0567 C   0  0  0  0  0  0
  -25.9044  -34.9474   23.5139 C   0  0  0  0  0  0
  -16.5347  -29.9099   23.6320 C   0  0  0  0  0  0
  -16.7270  -28.6516   23.0347 C   0  0  0  0  0  0
  -26.4471  -31.6591   25.0720 C   0  0  0  0  0  0
  -25.3726  -31.3694   26.1458 C   0  0  0  0  0  0
  -27.0296  -30.3026   24.6102 C   0  0  0  0  0  0
  -27.6053  -32.4296   25.7480 C   0  0  0  0  0  0
  -27.5594  -37.1798   24.8458 C   0  0  0  0  0  0
  -21.4166  -29.3048   22.3708 N   0  0  0  0  0  0
  -26.4291  -37.3806   23.9425 N   0  0  0  0  0  0
  -24.6751  -31.0743   22.0992 N   0  0  0  0  0  0
  -23.4193  -28.8186   23.3024 O   0  0  0  0  0  0
  -28.3243  -26.5600   20.1428 O   0  0  0  0  0  0
  -26.5618  -34.8926   22.4709 O   0  0  0  0  0  0
  -23.5359  -32.1429   23.7449 O   0  0  0  0  0  0
  -31.0348  -19.0534   19.8099 C   0  0  0  0  0  0
  -31.0897  -17.6771   20.1469 C   0  0  0  0  0  0
  -28.7018  -19.1411   20.4426 C   0  0  0  0  0  0
  -29.8444  -19.8131   19.9446 C   0  0  0  0  0  0
  -29.9359  -16.9960   20.6084 C   0  0  0  0  0  0
  -28.7504  -17.7585   20.7619 C   0  0  0  0  0  0
  -28.2484  -25.6012   21.1394 C   0  0  0  0  0  0
  -29.7938  -21.2444   19.4234 C   0  0  0  0  0  0
  -28.5477  -24.2693   21.1033 C   0  0  0  0  0  0
  -29.0610  -23.5377   19.9303 C   0  0  0  0  0  0
  -29.8708  -15.5846   20.9185 N   0  0  0  0  0  0
  -29.2198  -22.2067   20.1866 N   0  0  0  0  0  0
  -30.3284  -21.4659   18.3305 O   0  0  0  0  0  0
  -29.3197  -24.0719   18.8459 O   0  0  0  0  0  0
  -28.3560  -23.5627   22.2322 O   0  0  0  0  0  0
  -27.6256  -17.1366   21.1902 F   0  0  0  0  0  0
  -31.4726  -12.4460   19.1380 H   0  0  0  0  0  0
  -30.3376  -11.3365   19.8531 H   0  0  0  0  0  0
  -29.7490  -11.7783   17.4452 H   0  0  0  0  0  0
  -29.6602  -13.4914   17.7654 H   0  0  0  0  0  0
  -27.8319  -11.3108   18.8242 H   0  0  0  0  0  0
  -27.3705  -12.6353   17.7883 H   0  0  0  0  0  0
  -27.6869  -14.2589   19.5612 H   0  0  0  0  0  0
  -28.6911  -11.9910   21.3496 H   0  0  0  0  0  0
  -28.4631  -13.6353   21.8660 H   0  0  0  0  0  0
  -25.2758   -9.5686   22.4744 H   0  0  0  0  0  0
  -24.0006   -7.4635   22.7473 H   0  0  0  0  0  0
  -21.0839   -8.8739   19.8947 H   0  0  0  0  0  0
  -22.3674  -10.9648   19.6158 H   0  0  0  0  0  0
  -21.2003   -7.6148   23.9725 H   0  0  0  0  0  0
  -21.1486   -6.0518   25.9079 H   0  0  0  0  0  0
  -22.0603   -2.7619   23.2831 H   0  0  0  0  0  0
  -22.4111  -11.9858   22.4772 H   0  0  0  0  0  0
  -21.1123  -13.1236   22.2620 H   0  0  0  0  0  0
  -24.6635  -15.8409   20.5771 H   0  0  0  0  0  0
  -26.3056  -15.6548   20.2472 H   0  0  0  0  0  0
  -26.7127  -32.5522   23.1145 H   0  0  0  0  0  0
  -25.0006  -33.9780   25.0436 H   0  0  0  0  0  0
  -22.6995  -31.3064   21.4080 H   0  0  0  0  0  0
  -23.3760  -35.9630   23.3281 H   0  0  0  0  0  0
  -24.3572  -36.8945   22.2051 H   0  0  0  0  0  0
  -23.7211  -37.6496   23.6658 H   0  0  0  0  0  0
  -26.0596  -31.5894   20.5985 H   0  0  0  0  0  0
  -26.8273  -30.8756   21.9895 H   0  0  0  0  0  0
  -28.1108  -29.0634   21.1817 H   0  0  0  0  0  0
  -26.0501  -25.9457   19.0378 H   0  0  0  0  0  0
  -23.9771  -27.2955   19.0342 H   0  0  0  0  0  0
  -23.7371  -30.6029   19.4056 H   0  0  0  0  0  0
  -22.7450  -29.2511   19.8605 H   0  0  0  0  0  0
  -25.1277  -36.1977   25.0831 H   0  0  0  0  0  0
  -20.9979  -28.3260   24.1424 H   0  0  0  0  0  0
  -20.5697  -26.2300   23.3612 H   0  0  0  0  0  0
  -21.6649  -26.7474   22.1194 H   0  0  0  0  0  0
  -19.6917  -25.6311   21.1249 H   0  0  0  0  0  0
  -19.6688  -27.3216   20.6758 H   0  0  0  0  0  0
  -17.4206  -26.6695   21.4030 H   0  0  0  0  0  0
  -18.0325  -26.0076   22.9020 H   0  0  0  0  0  0
  -19.7934  -30.7283   24.2287 H   0  0  0  0  0  0
  -17.5008  -31.6273   24.5172 H   0  0  0  0  0  0
  -15.5347  -30.3008   23.7631 H   0  0  0  0  0  0
  -15.8673  -28.0840   22.7047 H   0  0  0  0  0  0
  -24.5904  -30.7045   25.7773 H   0  0  0  0  0  0
  -24.8908  -32.2850   26.4903 H   0  0  0  0  0  0
  -25.8063  -30.8847   27.0218 H   0  0  0  0  0  0
  -26.2845  -29.6795   24.1140 H   0  0  0  0  0  0
  -27.4042  -29.7245   25.4561 H   0  0  0  0  0  0
  -27.8691  -30.4329   23.9269 H   0  0  0  0  0  0
  -27.2691  -33.3592   26.2081 H   0  0  0  0  0  0
  -28.3851  -32.6866   25.0297 H   0  0  0  0  0  0
  -28.0738  -31.8403   26.5373 H   0  0  0  0  0  0
  -28.2582  -38.0129   24.7569 H   0  0  0  0  0  0
  -28.1128  -36.2668   24.6205 H   0  0  0  0  0  0
  -27.2323  -37.1342   25.8860 H   0  0  0  0  0  0
  -20.9336  -29.8749   21.6907 H   0  0  0  0  0  0
  -26.0185  -38.2879   24.1456 H   0  0  0  0  0  0
  -31.9230  -19.5297   19.4160 H   0  0  0  0  0  0
  -32.0290  -17.1597   20.0187 H   0  0  0  0  0  0
  -27.7619  -19.6668   20.5322 H   0  0  0  0  0  0
  -27.8826  -26.0527   22.0525 H   0  0  0  0  0  0
  -28.9730  -15.2941   21.2754 H   0  0  0  0  0  0
  -28.9023  -21.9384   21.1065 H   0  0  0  0  0  0
  -28.0244  -24.1618   22.8878 H   0  0  0  0  0  0
  1 25  1  0  0  0
  1 30  2  0  0  0
  1 81  1  0  0  0
  2  3  1  0  0  0
  2 25  1  0  0  0
  2 87  1  0  0  0
  2 88  1  0  0  0
  3  4  1  0  0  0
  3 89  1  0  0  0
  3 90  1  0  0  0
  4  5  1  0  0  0
  4 91  1  0  0  0
  4 92  1  0  0  0
  5  6  1  0  0  0
  5 26  1  0  0  0
  5 93  1  0  0  0
  6 25  1  0  0  0
  6 94  1  0  0  0
  6 95  1  0  0  0
  7  8  2  0  0  0
  7 26  1  0  0  0
  7 29  1  0  0  0
  8  9  1  0  0  0
  8 22  1  0  0  0
  9 10  1  0  0  0
  9 27  2  0  0  0
 10 11  2  0  0  0
 10 15  1  0  0  0
 11 12  1  0  0  0
 11 96  1  0  0  0
 12 13  2  0  0  0
 12 97  1  0  0  0
 13 14  1  0  0  0
 13 31  1  0  0  0
 14 15  2  0  0  0
 14 98  1  0  0  0
 15 99  1  0  0  0
 16 17  2  0  0  0
 16 21  1  0  0  0
 16 31  1  0  0  0
 17 18  1  0  0  0
 17100  1  0  0  0
 18 19  2  0  0  0
 18101  1  0  0  0
 19 20  1  0  0  0
 19 24  1  0  0  0
 20 21  2  0  0  0
 20102  1  0  0  0
 21 23  1  0  0  0
 22 28  1  0  0  0
 22 32  2  0  0  0
 26 27  1  0  0  0
 28103  1  0  0  0
 28104  1  0  0  0
 29105  1  0  0  0
 29106  1  0  0  0
 33 34  1  0  0  0
 33 66  1  0  0  0
 33 70  2  0  0  0
 34 36  1  0  0  0
 34 59  1  0  0  0
 34107  1  0  0  0
 35 44  2  0  0  0
 35 45  1  0  0  0
 35 68  1  0  0  0
 36 56  1  0  0  0
 36108  1  0  0  0
 37 39  1  0  0  0
 37 47  1  0  0  0
 37 66  1  0  0  0
 37109  1  0  0  0
 38 43  2  0  0  0
 38 46  1  0  0  0
 38 47  1  0  0  0
 39 64  1  0  0  0
 39 67  2  0  0  0
 40 52  1  0  0  0
 40 53  2  0  0  0
 40 58  1  0  0  0
 41110  1  0  0  0
 41111  1  0  0  0
 41112  1  0  0  0
 41 48  1  0  0  0
 42 43  1  0  0  0
 42 66  1  0  0  0
 42113  1  0  0  0
 42114  1  0  0  0
 43 44  1  0  0  0
 44115  1  0  0  0
 45 46  2  0  0  0
 45116  1  0  0  0
 46117  1  0  0  0
 47118  1  0  0  0
 47119  1  0  0  0
 48 56  1  0  0  0
 48 65  1  0  0  0
 48120  1  0  0  0
 49 50  1  0  0  0
 49 53  1  0  0  0
 49 64  1  0  0  0
 49121  1  0  0  0
 50 51  1  0  0  0
 50122  1  0  0  0
 50123  1  0  0  0
 51 52  1  0  0  0
 51124  1  0  0  0
 51125  1  0  0  0
 52126  1  0  0  0
 52127  1  0  0  0
 53 54  1  0  0  0
 54 55  2  0  0  0
 54128  1  0  0  0
 55 57  1  0  0  0
 55129  1  0  0  0
 56 69  2  0  0  0
 57 58  2  0  0  0
 57130  1  0  0  0
 58131  1  0  0  0
 59 60  1  0  0  0
 59 61  1  0  0  0
 59 62  1  0  0  0
 60132  1  0  0  0
 60133  1  0  0  0
 60134  1  0  0  0
 61135  1  0  0  0
 61136  1  0  0  0
 61137  1  0  0  0
 62138  1  0  0  0
 62139  1  0  0  0
 62140  1  0  0  0
 63 65  1  0  0  0
 63141  1  0  0  0
 63142  1  0  0  0
 63143  1  0  0  0
 64144  1  0  0  0
 65145  1  0  0  0
 68 77  1  0  0  0
 71 72  2  0  0  0
 71 74  1  0  0  0
 71146  1  0  0  0
 72 75  1  0  0  0
 72147  1  0  0  0
 73 74  2  0  0  0
 73 76  1  0  0  0
 73148  1  0  0  0
 74 78  1  0  0  0
 75 76  2  0  0  0
 75 81  1  0  0  0
 76 86  1  0  0  0
 77 79  2  0  0  0
 77149  1  0  0  0
 78 82  1  0  0  0
 78 83  2  0  0  0
 79 80  1  0  0  0
 79 85  1  0  0  0
 80 82  1  0  0  0
 80 84  2  0  0  0
 81150  1  0  0  0
 82151  1  0  0  0
 85152  1  0  0  0
M  ISO  4   1 100  68 101  77 101  81 100
M  END
> <chiral flag>
0

> <version>
0

> <s_m_source_file>
/data/baiqing/PycharmProjects/Reinvent-master-3.2/result/LINK_invent/BTK/process_docking_weight1_custom_product_contain_oxygen_bond_distance_aromatic_linkinvent_7_9_3/rearranged_h_0089.sdf

> <i_m_source_file_index>
5

> <r_mmod_Potential_Energy-OPLS-2005>
-218.07048034668

> <r_mmod_Stretch_Energy-OPLS-2005>
48.0517692565918

> <r_mmod_Bend_Energy-OPLS-2005>
122.458106994629

> <r_mmod_Torsional_Energy-OPLS-2005>
233.806701660156

> <r_mmod_Improper_Torsional_Energy-OPLS-2005>
5.30634450912476

> <r_mmod_Van_der_Waal_Energy-OPLS-2005>
158.123443603516

> <r_mmod_Electrostatic_Energy-OPLS-2005>
-550.209350585938

> <r_mmod_Solvation_Energy-OPLS-2005>
-260.999786376953

> <b_mmod_Minimization_Converged-OPLS-2005>
0

> <r_mmod_RMS_Derivative-OPLS-2005>
1.3526246547699

$$$$
5
                    3D
 Structure written by MMmdl.
168177  0  0  1  0            999 V2000
  -30.7398  -14.3874   20.5525 C   0  0  0  0  0  0
  -30.4048  -12.2414   19.4447 C   0  0  0  0  0  0
  -29.4972  -12.4779   18.2206 C   0  0  0  0  0  0
  -28.0163  -12.3591   18.6260 C   0  0  0  0  0  0
  -27.6638  -13.2026   19.8801 C   0  0  2  0  0  0
  -28.6966  -12.9855   21.0129 C   0  0  0  0  0  0
  -25.2597  -13.8151   20.5706 C   0  0  0  0  0  0
  -24.1852  -13.0429   20.9207 C   0  0  0  0  0  0
  -24.6396  -11.6902   20.8729 C   0  0  0  0  0  0
  -23.9061  -10.4296   21.0403 C   0  0  0  0  0  0
  -24.3618   -9.4218   21.9180 C   0  0  0  0  0  0
  -23.6297   -8.2250   22.0758 C   0  0  0  0  0  0
  -22.4275   -8.0284   21.3553 C   0  0  0  0  0  0
  -21.9908   -9.0255   20.4648 C   0  0  0  0  0  0
  -22.7234  -10.2135   20.3054 C   0  0  0  0  0  0
  -21.6858   -6.0746   22.5277 C   0  0  0  0  0  0
  -21.4015   -6.5643   23.8210 C   0  0  0  0  0  0
  -21.3664   -5.6792   24.9169 C   0  0  0  0  0  0
  -21.6053   -4.3055   24.7223 C   0  0  0  0  0  0
  -21.8821   -3.8155   23.4340 C   0  0  0  0  0  0
  -21.9199   -4.6978   22.3401 C   0  0  0  0  0  0
  -22.7879  -13.5231   21.1847 C   0  0  0  0  0  0
  -22.1650   -4.2171   21.0974 F   0  0  0  0  0  0
  -21.5644   -3.4531   25.7730 F   0  0  0  0  0  0
  -30.0420  -13.2286   20.4728 N   0  0  0  0  0  0
  -26.3021  -12.9322   20.3353 N   0  0  0  0  0  0
  -25.9314  -11.6485   20.5729 N   0  0  0  0  0  0
  -22.0507  -12.8229   22.0391 N   0  0  0  0  0  0
  -25.4330  -15.1861   20.4155 N   0  0  0  0  0  0
  -31.8624  -14.5453   20.0593 O   0  0  0  0  0  0
  -21.6629   -6.8888   21.4243 O   0  0  0  0  0  0
  -22.3570  -14.5538   20.6687 O   0  0  0  0  0  0
  -24.6054  -31.8721   23.2150 C   0  0  0  0  0  0
  -25.8975  -32.4846   23.8425 C   0  0  1  0  0  0
  -27.2713  -27.5064   20.0914 C   0  0  0  0  0  0
  -25.5843  -33.8646   24.2351 N   0  0  0  0  0  0
  -23.3905  -30.4927   21.5495 C   0  0  2  0  0  0
  -24.8452  -28.9587   20.1223 C   0  0  0  0  0  0
  -22.7342  -29.4684   22.5006 C   0  0  0  0  0  0
  -18.0257  -28.1370   22.8483 C   0  0  0  0  0  0
  -24.1481  -36.7355   23.2636 C   0  0  0  0  0  0
  -25.9088  -30.8588   21.3572 C   0  0  0  0  0  0
  -25.9925  -29.4925   20.7187 C   0  0  0  0  0  0
  -27.1995  -28.7740   20.7149 C   0  0  0  0  0  0
  -26.1041  -26.9701   19.5065 C   0  0  0  0  0  0
  -24.8905  -27.6882   19.5199 C   0  0  0  0  0  0
  -23.5992  -29.8130   20.1667 C   0  0  0  0  0  0
  -25.4094  -36.3141   24.0345 C   0  0  1  0  0  0
  -20.5839  -28.3650   23.1335 C   0  0  2  0  0  0
  -20.6746  -26.9389   22.5438 C   0  0  0  0  0  0
  -19.5741  -26.6377   21.5215 C   0  0  0  0  0  0
  -18.1912  -26.7918   22.1607 C   0  0  0  0  0  0
  -19.1503  -28.8824   23.2911 C   0  0  0  0  0  0
  -18.9436  -30.1429   23.8924 C   0  0  0  0  0  0
  -17.6447  -30.6576   24.0566 C   0  0  0  0  0  0
  -25.9012  -34.9499   23.5156 C   0  0  0  0  0  0
  -16.5335  -29.9088   23.6317 C   0  0  0  0  0  0
  -16.7253  -28.6503   23.0336 C   0  0  0  0  0  0
  -26.4463  -31.6598   25.0709 C   0  0  0  0  0  0
  -25.3773  -31.3699   26.1497 C   0  0  0  0  0  0
  -27.0303  -30.3044   24.6058 C   0  0  0  0  0  0
  -27.6049  -32.4323   25.7446 C   0  0  0  0  0  0
  -27.5593  -37.1827   24.8447 C   0  0  0  0  0  0
  -21.4083  -29.3027   22.3736 N   0  0  0  0  0  0
  -26.4294  -37.3815   23.9409 N   0  0  0  0  0  0
  -24.6518  -31.0886   22.1004 N   0  0  0  0  0  0
  -23.4145  -28.8239   23.3037 O   0  0  0  0  0  0
  -28.4291  -26.7657   20.0025 O   0  0  0  0  0  0
  -26.5600  -34.8942   22.4732 O   0  0  0  0  0  0
  -23.5264  -32.1442   23.7586 O   0  0  0  0  0  0
  -28.8574  -20.2349   20.6691 C   0  0  0  0  0  0
  -31.0746  -19.9521   21.6195 C   0  0  0  0  0  0
  -29.8508  -18.0126   20.7767 C   0  0  0  0  0  0
  -28.7521  -18.8473   20.4463 C   0  0  0  0  0  0
  -30.0527  -20.8178   21.1573 C   0  0  0  0  0  0
  -30.9682  -18.5606   21.4461 C   0  0  0  0  0  0
  -31.0357  -22.9685   21.8633 C   0  0  0  0  0  0
  -30.0062  -16.6770   20.2024 C   0  0  0  0  0  0
  -31.4002  -24.4186   21.4903 C   0  0  0  0  0  0
  -29.5533  -22.8790   19.8820 C   0  0  0  0  0  0
  -30.2083  -24.1617   19.3701 C   0  0  0  0  0  0
  -27.4786  -18.3163   19.7991 C   0  0  0  0  0  0
  -30.8069  -26.4291   20.1318 C   0  0  0  0  0  0
  -29.6400  -27.3504   20.4935 C   0  0  0  0  0  0
  -30.2409  -22.2401   21.0285 N   0  0  0  0  0  0
  -30.0221  -15.5528   20.9521 N   0  0  0  0  0  0
  -30.1517  -16.6502   18.8643 N   0  3  0  0  0  0
  -30.4721  -25.0402   20.5196 N   0  3  2  0  0  0
  -31.4622  -22.5361   22.9372 O   0  0  0  0  0  0
  -32.0075  -17.7690   21.8096 F   0  0  0  0  0  0
  -31.4564  -12.2978   19.1564 H   0  0  0  0  0  0
  -30.2595  -11.2319   19.8343 H   0  0  0  0  0  0
  -29.7270  -11.7543   17.4376 H   0  0  0  0  0  0
  -29.6944  -13.4606   17.7901 H   0  0  0  0  0  0
  -27.8210  -11.3053   18.8256 H   0  0  0  0  0  0
  -27.3709  -12.6335   17.7908 H   0  0  0  0  0  0
  -27.7097  -14.2486   19.5782 H   0  0  0  0  0  0
  -28.6380  -11.9618   21.3843 H   0  0  0  0  0  0
  -28.4745  -13.6245   21.8679 H   0  0  0  0  0  0
  -25.2749   -9.5713   22.4768 H   0  0  0  0  0  0
  -24.0013   -7.4648   22.7485 H   0  0  0  0  0  0
  -21.0831   -8.8784   19.8961 H   0  0  0  0  0  0
  -22.3678  -10.9690   19.6185 H   0  0  0  0  0  0
  -21.1993   -7.6145   23.9724 H   0  0  0  0  0  0
  -21.1481   -6.0511   25.9072 H   0  0  0  0  0  0
  -22.0598   -2.7618   23.2833 H   0  0  0  0  0  0
  -22.4093  -11.9879   22.4797 H   0  0  0  0  0  0
  -21.1141  -13.1313   22.2601 H   0  0  0  0  0  0
  -24.6681  -15.8379   20.5497 H   0  0  0  0  0  0
  -26.2626  -15.6141   20.0304 H   0  0  0  0  0  0
  -26.7039  -32.5616   23.1207 H   0  0  0  0  0  0
  -24.9941  -33.9803   25.0457 H   0  0  0  0  0  0
  -22.6773  -31.3072   21.4060 H   0  0  0  0  0  0
  -23.3730  -35.9700   23.3292 H   0  0  0  0  0  0
  -24.3566  -36.8988   22.2049 H   0  0  0  0  0  0
  -23.7247  -37.6568   23.6654 H   0  0  0  0  0  0
  -26.0054  -31.6209   20.5824 H   0  0  0  0  0  0
  -26.8015  -30.9258   21.9676 H   0  0  0  0  0  0
  -28.0597  -29.2266   21.1859 H   0  0  0  0  0  0
  -26.1413  -26.0015   19.0280 H   0  0  0  0  0  0
  -24.0076  -27.2644   19.0618 H   0  0  0  0  0  0
  -23.6986  -30.5820   19.4000 H   0  0  0  0  0  0
  -22.7286  -29.2211   19.8775 H   0  0  0  0  0  0
  -25.1272  -36.2022   25.0843 H   0  0  0  0  0  0
  -20.9930  -28.3234   24.1453 H   0  0  0  0  0  0
  -20.5629  -26.2270   23.3628 H   0  0  0  0  0  0
  -21.6626  -26.7441   22.1247 H   0  0  0  0  0  0
  -19.6910  -25.6298   21.1227 H   0  0  0  0  0  0
  -19.6699  -27.3192   20.6752 H   0  0  0  0  0  0
  -17.4201  -26.6684   21.3990 H   0  0  0  0  0  0
  -18.0300  -26.0053   22.8993 H   0  0  0  0  0  0
  -19.7923  -30.7227   24.2302 H   0  0  0  0  0  0
  -17.5012  -31.6258   24.5168 H   0  0  0  0  0  0
  -15.5338  -30.3007   23.7624 H   0  0  0  0  0  0
  -15.8644  -28.0835   22.7034 H   0  0  0  0  0  0
  -24.5852  -30.7156   25.7846 H   0  0  0  0  0  0
  -24.9087  -32.2872   26.5071 H   0  0  0  0  0  0
  -25.8152  -30.8753   27.0171 H   0  0  0  0  0  0
  -26.2842  -29.6766   24.1171 H   0  0  0  0  0  0
  -27.4141  -29.7319   25.4511 H   0  0  0  0  0  0
  -27.8643  -30.4369   23.9161 H   0  0  0  0  0  0
  -27.2637  -33.3548   26.2159 H   0  0  0  0  0  0
  -28.3775  -32.7008   25.0228 H   0  0  0  0  0  0
  -28.0818  -31.8377   26.5253 H   0  0  0  0  0  0
  -28.2603  -38.0133   24.7513 H   0  0  0  0  0  0
  -28.1103  -36.2672   24.6240 H   0  0  0  0  0  0
  -27.2312  -37.1439   25.8848 H   0  0  0  0  0  0
  -20.9216  -29.8739   21.6961 H   0  0  0  0  0  0
  -26.0196  -38.2902   24.1422 H   0  0  0  0  0  0
  -28.0325  -20.8633   20.3658 H   0  0  0  0  0  0
  -32.0051  -20.3307   22.0133 H   0  0  0  0  0  0
  -32.4089  -24.4110   21.0743 H   0  0  0  0  0  0
  -31.4357  -25.0232   22.3962 H   0  0  0  0  0  0
  -29.4780  -22.1910   19.0378 H   0  0  0  0  0  0
  -28.5293  -23.1071   20.1871 H   0  0  0  0  0  0
  -29.5423  -24.6486   18.6546 H   0  0  0  0  0  0
  -31.1357  -23.9396   18.8395 H   0  0  0  0  0  0
  -26.7354  -19.1065   19.6815 H   0  0  0  0  0  0
  -27.0268  -17.5404   20.4170 H   0  0  0  0  0  0
  -27.6676  -17.9080   18.8056 H   0  0  0  0  0  0
  -31.7126  -26.7743   20.6323 H   0  0  0  0  0  0
  -31.0133  -26.4963   19.0626 H   0  0  0  0  0  0
  -29.8139  -28.3359   20.0564 H   0  0  0  0  0  0
  -29.5833  -27.4670   21.5776 H   0  0  0  0  0  0
  -29.3070  -15.5328   21.6612 H   0  0  0  0  0  0
  -30.1644  -17.5237   18.3580 H   0  0  0  0  0  0
  -30.4468  -15.8203   18.3754 H   0  0  0  0  0  0
  -29.5816  -25.1189   20.9913 H   0  0  0  0  0  0
  1 25  1  0  0  0
  1 30  2  0  0  0
  1 86  1  0  0  0
  2  3  1  0  0  0
  2 25  1  0  0  0
  2 91  1  0  0  0
  2 92  1  0  0  0
  3  4  1  0  0  0
  3 93  1  0  0  0
  3 94  1  0  0  0
  4  5  1  0  0  0
  4 95  1  0  0  0
  4 96  1  0  0  0
  5  6  1  0  0  0
  5 26  1  0  0  0
  5 97  1  0  0  0
  6 25  1  0  0  0
  6 98  1  0  0  0
  6 99  1  0  0  0
  7  8  2  0  0  0
  7 26  1  0  0  0
  7 29  1  0  0  0
  8  9  1  0  0  0
  8 22  1  0  0  0
  9 10  1  0  0  0
  9 27  2  0  0  0
 10 11  2  0  0  0
 10 15  1  0  0  0
 11 12  1  0  0  0
 11100  1  0  0  0
 12 13  2  0  0  0
 12101  1  0  0  0
 13 14  1  0  0  0
 13 31  1  0  0  0
 14 15  2  0  0  0
 14102  1  0  0  0
 15103  1  0  0  0
 16 17  2  0  0  0
 16 21  1  0  0  0
 16 31  1  0  0  0
 17 18  1  0  0  0
 17104  1  0  0  0
 18 19  2  0  0  0
 18105  1  0  0  0
 19 20  1  0  0  0
 19 24  1  0  0  0
 20 21  2  0  0  0
 20106  1  0  0  0
 21 23  1  0  0  0
 22 28  1  0  0  0
 22 32  2  0  0  0
 26 27  1  0  0  0
 28107  1  0  0  0
 28108  1  0  0  0
 29109  1  0  0  0
 29110  1  0  0  0
 33 34  1  0  0  0
 33 66  1  0  0  0
 33 70  2  0  0  0
 34 36  1  0  0  0
 34 59  1  0  0  0
 34111  1  0  0  0
 35 44  2  0  0  0
 35 45  1  0  0  0
 35 68  1  0  0  0
 36 56  1  0  0  0
 36112  1  0  0  0
 37 39  1  0  0  0
 37 47  1  0  0  0
 37 66  1  0  0  0
 37113  1  0  0  0
 38 43  2  0  0  0
 38 46  1  0  0  0
 38 47  1  0  0  0
 39 64  1  0  0  0
 39 67  2  0  0  0
 40 52  1  0  0  0
 40 53  2  0  0  0
 40 58  1  0  0  0
 41114  1  0  0  0
 41115  1  0  0  0
 41116  1  0  0  0
 41 48  1  0  0  0
 42 43  1  0  0  0
 42 66  1  0  0  0
 42117  1  0  0  0
 42118  1  0  0  0
 43 44  1  0  0  0
 44119  1  0  0  0
 45 46  2  0  0  0
 45120  1  0  0  0
 46121  1  0  0  0
 47122  1  0  0  0
 47123  1  0  0  0
 48 56  1  0  0  0
 48 65  1  0  0  0
 48124  1  0  0  0
 49 50  1  0  0  0
 49 53  1  0  0  0
 49 64  1  0  0  0
 49125  1  0  0  0
 50 51  1  0  0  0
 50126  1  0  0  0
 50127  1  0  0  0
 51 52  1  0  0  0
 51128  1  0  0  0
 51129  1  0  0  0
 52130  1  0  0  0
 52131  1  0  0  0
 53 54  1  0  0  0
 54 55  2  0  0  0
 54132  1  0  0  0
 55 57  1  0  0  0
 55133  1  0  0  0
 56 69  2  0  0  0
 57 58  2  0  0  0
 57134  1  0  0  0
 58135  1  0  0  0
 59 60  1  0  0  0
 59 61  1  0  0  0
 59 62  1  0  0  0
 60136  1  0  0  0
 60137  1  0  0  0
 60138  1  0  0  0
 61139  1  0  0  0
 61140  1  0  0  0
 61141  1  0  0  0
 62142  1  0  0  0
 62143  1  0  0  0
 62144  1  0  0  0
 63 65  1  0  0  0
 63145  1  0  0  0
 63146  1  0  0  0
 63147  1  0  0  0
 64148  1  0  0  0
 65149  1  0  0  0
 68 84  1  0  0  0
 71 74  2  0  0  0
 71 75  1  0  0  0
 71150  1  0  0  0
 72 75  2  0  0  0
 72 76  1  0  0  0
 72151  1  0  0  0
 73 74  1  0  0  0
 73 76  2  0  0  0
 73 78  1  0  0  0
 74 82  1  0  0  0
 75 85  1  0  0  0
 76 90  1  0  0  0
 77 79  1  0  0  0
 77 85  1  0  0  0
 77 89  2  0  0  0
 78 86  1  0  0  0
 78 87  2  0  0  0
 79 88  1  0  0  0
 79152  1  0  0  0
 79153  1  0  0  0
 80 81  1  0  0  0
 80 85  1  0  0  0
 80154  1  0  0  0
 80155  1  0  0  0
 81 88  1  0  0  0
 81156  1  0  0  0
 81157  1  0  0  0
 82158  1  0  0  0
 82159  1  0  0  0
 82160  1  0  0  0
 83 84  1  0  0  0
 83161  1  0  0  0
 83162  1  0  0  0
 83 88  1  0  0  0
 84163  1  0  0  0
 84164  1  0  0  0
 86165  1  0  0  0
 87166  1  0  0  0
 87167  1  0  0  0
 88168  1  0  0  0
M  CHG  2  87   1  88   1
M  ISO  4   1 100  68 101  84 101  86 100
M  END
> <chiral flag>
0

> <version>
0

> <s_m_source_file>
/data/baiqing/PycharmProjects/Reinvent-master-3.2/result/LINK_invent/BTK/process_docking_weight1_custom_product_contain_oxygen_bond_distance_aromatic_linkinvent_7_9_3/rearranged_h_0089.sdf

> <i_m_source_file_index>
6

> <r_mmod_Potential_Energy-OPLS-2005>
-194.941879272461

> <r_mmod_Stretch_Energy-OPLS-2005>
37.8901329040527

> <r_mmod_Bend_Energy-OPLS-2005>
111.108406066895

> <r_mmod_Torsional_Energy-OPLS-2005>
383.440246582031

> <r_mmod_Improper_Torsional_Energy-OPLS-2005>
11.680305480957

> <r_mmod_Van_der_Waal_Energy-OPLS-2005>
190.497375488281

> <r_mmod_Electrostatic_Energy-OPLS-2005>
-84.7355346679688

> <r_mmod_Solvation_Energy-OPLS-2005>
-854.502197265625

> <b_mmod_Minimization_Converged-OPLS-2005>
0

> <r_mmod_RMS_Derivative-OPLS-2005>
2.43067193031311

$$$$
6
                    3D
 Structure written by MMmdl.
156164  0  0  1  0            999 V2000
  -30.7262  -14.5195   20.5677 C   0  0  0  0  0  0
  -30.4142  -12.3395   19.4446 C   0  0  0  0  0  0
  -29.4975  -12.5190   18.2173 C   0  0  0  0  0  0
  -28.0210  -12.3710   18.6278 C   0  0  0  0  0  0
  -27.6607  -13.2182   19.8781 C   0  0  2  0  0  0
  -28.7036  -13.0453   21.0072 C   0  0  0  0  0  0
  -25.2600  -13.8189   20.5729 C   0  0  0  0  0  0
  -24.1859  -13.0458   20.9200 C   0  0  0  0  0  0
  -24.6426  -11.6921   20.8790 C   0  0  0  0  0  0
  -23.9068  -10.4316   21.0439 C   0  0  0  0  0  0
  -24.3629   -9.4223   21.9200 C   0  0  0  0  0  0
  -23.6315   -8.2258   22.0762 C   0  0  0  0  0  0
  -22.4285   -8.0307   21.3558 C   0  0  0  0  0  0
  -21.9946   -9.0264   20.4622 C   0  0  0  0  0  0
  -22.7273  -10.2145   20.3048 C   0  0  0  0  0  0
  -21.6857   -6.0753   22.5292 C   0  0  0  0  0  0
  -21.4014   -6.5651   23.8237 C   0  0  0  0  0  0
  -21.3657   -5.6803   24.9197 C   0  0  0  0  0  0
  -21.6053   -4.3061   24.7217 C   0  0  0  0  0  0
  -21.8833   -3.8145   23.4342 C   0  0  0  0  0  0
  -21.9208   -4.6981   22.3405 C   0  0  0  0  0  0
  -22.7865  -13.5240   21.1825 C   0  0  0  0  0  0
  -22.1663   -4.2159   21.0978 F   0  0  0  0  0  0
  -21.5629   -3.4553   25.7731 F   0  0  0  0  0  0
  -30.0257  -13.3503   20.4477 N   0  0  0  0  0  0
  -26.3045  -12.9378   20.3422 N   0  0  0  0  0  0
  -25.9362  -11.6530   20.5811 N   0  0  0  0  0  0
  -22.0470  -12.8241   22.0343 N   0  0  0  0  0  0
  -25.4361  -15.1917   20.4147 N   0  0  0  0  0  0
  -31.8635  -14.6378   20.0928 O   0  0  0  0  0  0
  -21.6652   -6.8897   21.4248 O   0  0  0  0  0  0
  -22.3586  -14.5575   20.6691 O   0  0  0  0  0  0
  -24.6203  -31.8654   23.2056 C   0  0  0  0  0  0
  -25.9057  -32.4818   23.8386 C   0  0  1  0  0  0
  -27.2258  -27.3773   20.1125 C   0  0  0  0  0  0
  -25.5873  -33.8621   24.2304 N   0  0  0  0  0  0
  -23.4081  -30.4900   21.5518 C   0  0  2  0  0  0
  -24.8542  -28.9521   20.1128 C   0  0  0  0  0  0
  -22.7433  -29.4670   22.5007 C   0  0  0  0  0  0
  -18.0254  -28.1392   22.8520 C   0  0  0  0  0  0
  -24.1470  -36.7312   23.2641 C   0  0  0  0  0  0
  -25.9417  -30.8168   21.3633 C   0  0  0  0  0  0
  -26.0189  -29.4454   20.7146 C   0  0  0  0  0  0
  -27.2065  -28.6668   20.7094 C   0  0  0  0  0  0
  -26.0460  -26.9318   19.4702 C   0  0  0  0  0  0
  -24.8677  -27.7005   19.4792 C   0  0  0  0  0  0
  -23.6148  -29.8212   20.1681 C   0  0  0  0  0  0
  -25.4092  -36.3116   24.0337 C   0  0  1  0  0  0
  -20.5851  -28.3689   23.1334 C   0  0  2  0  0  0
  -20.6744  -26.9435   22.5412 C   0  0  0  0  0  0
  -19.5715  -26.6401   21.5226 C   0  0  0  0  0  0
  -18.1890  -26.7940   22.1647 C   0  0  0  0  0  0
  -19.1505  -28.8849   23.2917 C   0  0  0  0  0  0
  -18.9442  -30.1461   23.8916 C   0  0  0  0  0  0
  -17.6448  -30.6620   24.0559 C   0  0  0  0  0  0
  -25.9033  -34.9488   23.5127 C   0  0  0  0  0  0
  -16.5338  -29.9116   23.6342 C   0  0  0  0  0  0
  -16.7242  -28.6524   23.0372 C   0  0  0  0  0  0
  -26.4452  -31.6581   25.0724 C   0  0  0  0  0  0
  -25.3679  -31.3639   26.1432 C   0  0  0  0  0  0
  -27.0317  -30.3045   24.6077 C   0  0  0  0  0  0
  -27.6020  -32.4287   25.7519 C   0  0  0  0  0  0
  -27.5575  -37.1810   24.8483 C   0  0  0  0  0  0
  -21.4159  -29.3056   22.3748 N   0  0  0  0  0  0
  -26.4289  -37.3801   23.9417 N   0  0  0  0  0  0
  -24.6757  -31.0705   22.0999 N   0  0  0  0  0  0
  -23.4202  -28.8229   23.3068 O   0  0  0  0  0  0
  -28.3582  -26.5693   20.1876 O   0  0  0  0  0  0
  -26.5630  -34.8955   22.4720 O   0  0  0  0  0  0
  -23.5383  -32.1463   23.7411 O   0  0  0  0  0  0
  -29.2369  -17.9261   23.0373 C   0  0  0  0  0  0
  -28.7478  -19.0122   23.7910 C   0  0  0  0  0  0
  -29.8999  -19.4810   21.2729 C   0  0  0  0  0  0
  -29.8443  -18.1403   21.7811 C   0  0  0  0  0  0
  -28.8486  -20.3338   23.3107 C   0  0  0  0  0  0
  -29.4093  -20.5877   22.0346 C   0  0  0  0  0  0
  -30.5284  -16.9998   21.0982 C   0  0  0  0  0  0
  -29.1922  -24.2295   20.7511 C   0  0  0  0  0  0
  -29.0313  -22.6528   20.6305 C   0  0  0  0  0  0
  -28.1494  -25.1286   20.0266 C   0  0  0  0  0  0
  -28.4074  -21.3921   24.1095 N   0  0  0  0  0  0
  -29.5792  -21.9701   21.6600 N   0  0  0  0  0  0
  -30.0651  -15.7044   21.1141 N   0  0  0  0  0  0
  -31.6781  -17.3139   20.4887 N   0  3  0  0  0  0
  -30.1019  -24.7325   21.4244 O   0  0  0  0  0  0
  -28.4802  -22.1094   19.6679 O   0  0  0  0  0  0
  -31.4605  -12.4239   19.1419 H   0  0  0  0  0  0
  -30.3072  -11.3351   19.8597 H   0  0  0  0  0  0
  -29.7436  -11.7893   17.4428 H   0  0  0  0  0  0
  -29.6622  -13.5057   17.7796 H   0  0  0  0  0  0
  -27.8343  -11.3144   18.8229 H   0  0  0  0  0  0
  -27.3739  -12.6434   17.7907 H   0  0  0  0  0  0
  -27.6931  -14.2600   19.5607 H   0  0  0  0  0  0
  -28.6918  -12.0192   21.3836 H   0  0  0  0  0  0
  -28.4665  -13.6777   21.8625 H   0  0  0  0  0  0
  -25.2769   -9.5692   22.4770 H   0  0  0  0  0  0
  -24.0005   -7.4657   22.7504 H   0  0  0  0  0  0
  -21.0892   -8.8804   19.8911 H   0  0  0  0  0  0
  -22.3772  -10.9690   19.6142 H   0  0  0  0  0  0
  -21.1990   -7.6152   23.9727 H   0  0  0  0  0  0
  -21.1460   -6.0533   25.9113 H   0  0  0  0  0  0
  -22.0601   -2.7593   23.2861 H   0  0  0  0  0  0
  -22.4055  -11.9871   22.4706 H   0  0  0  0  0  0
  -21.1062  -13.1242   22.2460 H   0  0  0  0  0  0
  -24.6746  -15.8516   20.5264 H   0  0  0  0  0  0
  -26.2803  -15.6271   20.0659 H   0  0  0  0  0  0
  -26.7128  -32.5536   23.1153 H   0  0  0  0  0  0
  -24.9958  -33.9765   25.0405 H   0  0  0  0  0  0
  -22.6980  -31.3079   21.4111 H   0  0  0  0  0  0
  -23.3755  -35.9629   23.3318 H   0  0  0  0  0  0
  -24.3566  -36.8928   22.2056 H   0  0  0  0  0  0
  -23.7201  -37.6509   23.6656 H   0  0  0  0  0  0
  -26.0455  -31.5711   20.5814 H   0  0  0  0  0  0
  -26.8328  -30.8845   21.9759 H   0  0  0  0  0  0
  -28.0982  -29.0349   21.1976 H   0  0  0  0  0  0
  -26.0069  -25.9810   18.9593 H   0  0  0  0  0  0
  -23.9797  -27.3228   18.9908 H   0  0  0  0  0  0
  -23.7115  -30.5930   19.4048 H   0  0  0  0  0  0
  -22.7384  -29.2389   19.8812 H   0  0  0  0  0  0
  -25.1252  -36.2006   25.0827 H   0  0  0  0  0  0
  -20.9910  -28.3241   24.1476 H   0  0  0  0  0  0
  -20.5666  -26.2302   23.3594 H   0  0  0  0  0  0
  -21.6611  -26.7480   22.1214 H   0  0  0  0  0  0
  -19.6890  -25.6317   21.1233 H   0  0  0  0  0  0
  -19.6644  -27.3221   20.6764 H   0  0  0  0  0  0
  -17.4156  -26.6715   21.4036 H   0  0  0  0  0  0
  -18.0300  -26.0062   22.9021 H   0  0  0  0  0  0
  -19.7918  -30.7278   24.2310 H   0  0  0  0  0  0
  -17.5000  -31.6294   24.5163 H   0  0  0  0  0  0
  -15.5332  -30.3025   23.7647 H   0  0  0  0  0  0
  -15.8639  -28.0829   22.7108 H   0  0  0  0  0  0
  -24.5911  -30.6931   25.7731 H   0  0  0  0  0  0
  -24.8783  -32.2754   26.4862 H   0  0  0  0  0  0
  -25.8001  -30.8823   27.0210 H   0  0  0  0  0  0
  -26.2888  -29.6811   24.1080 H   0  0  0  0  0  0
  -27.4080  -29.7254   25.4518 H   0  0  0  0  0  0
  -27.8702  -30.4416   23.9251 H   0  0  0  0  0  0
  -27.2651  -33.3603   26.2081 H   0  0  0  0  0  0
  -28.3851  -32.6799   25.0351 H   0  0  0  0  0  0
  -28.0651  -31.8402   26.5446 H   0  0  0  0  0  0
  -28.2582  -38.0118   24.7535 H   0  0  0  0  0  0
  -28.1072  -36.2636   24.6290 H   0  0  0  0  0  0
  -27.2290  -37.1459   25.8892 H   0  0  0  0  0  0
  -20.9335  -29.8819   21.6994 H   0  0  0  0  0  0
  -26.0190  -38.2900   24.1387 H   0  0  0  0  0  0
  -29.1950  -16.9362   23.4699 H   0  0  0  0  0  0
  -28.3238  -18.8180   24.7660 H   0  0  0  0  0  0
  -30.3784  -19.6758   20.3236 H   0  0  0  0  0  0
  -27.1787  -24.8463   20.4355 H   0  0  0  0  0  0
  -28.1399  -24.8853   18.9639 H   0  0  0  0  0  0
  -27.8153  -21.1577   24.8983 H   0  0  0  0  0  0
  -28.0744  -22.2185   23.6290 H   0  0  0  0  0  0
  -29.9465  -22.5683   22.3866 H   0  0  0  0  0  0
  -29.1484  -15.6392   21.5218 H   0  0  0  0  0  0
  -32.0676  -18.2392   20.5693 H   0  0  0  0  0  0
  -32.2164  -16.5598   20.0746 H   0  0  0  0  0  0
  1 25  1  0  0  0
  1 30  2  0  0  0
  1 83  1  0  0  0
  2  3  1  0  0  0
  2 25  1  0  0  0
  2 87  1  0  0  0
  2 88  1  0  0  0
  3  4  1  0  0  0
  3 89  1  0  0  0
  3 90  1  0  0  0
  4  5  1  0  0  0
  4 91  1  0  0  0
  4 92  1  0  0  0
  5  6  1  0  0  0
  5 26  1  0  0  0
  5 93  1  0  0  0
  6 25  1  0  0  0
  6 94  1  0  0  0
  6 95  1  0  0  0
  7  8  2  0  0  0
  7 26  1  0  0  0
  7 29  1  0  0  0
  8  9  1  0  0  0
  8 22  1  0  0  0
  9 10  1  0  0  0
  9 27  2  0  0  0
 10 11  2  0  0  0
 10 15  1  0  0  0
 11 12  1  0  0  0
 11 96  1  0  0  0
 12 13  2  0  0  0
 12 97  1  0  0  0
 13 14  1  0  0  0
 13 31  1  0  0  0
 14 15  2  0  0  0
 14 98  1  0  0  0
 15 99  1  0  0  0
 16 17  2  0  0  0
 16 21  1  0  0  0
 16 31  1  0  0  0
 17 18  1  0  0  0
 17100  1  0  0  0
 18 19  2  0  0  0
 18101  1  0  0  0
 19 20  1  0  0  0
 19 24  1  0  0  0
 20 21  2  0  0  0
 20102  1  0  0  0
 21 23  1  0  0  0
 22 28  1  0  0  0
 22 32  2  0  0  0
 26 27  1  0  0  0
 28103  1  0  0  0
 28104  1  0  0  0
 29105  1  0  0  0
 29106  1  0  0  0
 33 34  1  0  0  0
 33 66  1  0  0  0
 33 70  2  0  0  0
 34 36  1  0  0  0
 34 59  1  0  0  0
 34107  1  0  0  0
 35 44  2  0  0  0
 35 45  1  0  0  0
 35 68  1  0  0  0
 36 56  1  0  0  0
 36108  1  0  0  0
 37 39  1  0  0  0
 37 47  1  0  0  0
 37 66  1  0  0  0
 37109  1  0  0  0
 38 43  2  0  0  0
 38 46  1  0  0  0
 38 47  1  0  0  0
 39 64  1  0  0  0
 39 67  2  0  0  0
 40 52  1  0  0  0
 40 53  2  0  0  0
 40 58  1  0  0  0
 41110  1  0  0  0
 41111  1  0  0  0
 41112  1  0  0  0
 41 48  1  0  0  0
 42 43  1  0  0  0
 42 66  1  0  0  0
 42113  1  0  0  0
 42114  1  0  0  0
 43 44  1  0  0  0
 44115  1  0  0  0
 45 46  2  0  0  0
 45116  1  0  0  0
 46117  1  0  0  0
 47118  1  0  0  0
 47119  1  0  0  0
 48 56  1  0  0  0
 48 65  1  0  0  0
 48120  1  0  0  0
 49 50  1  0  0  0
 49 53  1  0  0  0
 49 64  1  0  0  0
 49121  1  0  0  0
 50 51  1  0  0  0
 50122  1  0  0  0
 50123  1  0  0  0
 51 52  1  0  0  0
 51124  1  0  0  0
 51125  1  0  0  0
 52126  1  0  0  0
 52127  1  0  0  0
 53 54  1  0  0  0
 54 55  2  0  0  0
 54128  1  0  0  0
 55 57  1  0  0  0
 55129  1  0  0  0
 56 69  2  0  0  0
 57 58  2  0  0  0
 57130  1  0  0  0
 58131  1  0  0  0
 59 60  1  0  0  0
 59 61  1  0  0  0
 59 62  1  0  0  0
 60132  1  0  0  0
 60133  1  0  0  0
 60134  1  0  0  0
 61135  1  0  0  0
 61136  1  0  0  0
 61137  1  0  0  0
 62138  1  0  0  0
 62139  1  0  0  0
 62140  1  0  0  0
 63 65  1  0  0  0
 63141  1  0  0  0
 63142  1  0  0  0
 63143  1  0  0  0
 64144  1  0  0  0
 65145  1  0  0  0
 68 80  1  0  0  0
 71 72  2  0  0  0
 71 74  1  0  0  0
 71146  1  0  0  0
 72 75  1  0  0  0
 72147  1  0  0  0
 73 74  2  0  0  0
 73 76  1  0  0  0
 73148  1  0  0  0
 74 77  1  0  0  0
 75 76  2  0  0  0
 75 81  1  0  0  0
 76 82  1  0  0  0
 77 83  1  0  0  0
 77 84  2  0  0  0
 78 79  1  0  0  0
 78 80  1  0  0  0
 78 85  2  0  0  0
 79 82  1  0  0  0
 79 86  2  0  0  0
 80149  1  0  0  0
 80150  1  0  0  0
 81151  1  0  0  0
 81152  1  0  0  0
 82153  1  0  0  0
 83154  1  0  0  0
 84155  1  0  0  0
 84156  1  0  0  0
M  CHG  1  84   1
M  ISO  4   1 100  68 101  80 101  83 100
M  END
> <chiral flag>
0

> <version>
0

> <s_m_source_file>
/data/baiqing/PycharmProjects/Reinvent-master-3.2/result/LINK_invent/BTK/process_docking_weight1_custom_product_contain_oxygen_bond_distance_aromatic_linkinvent_7_9_3/rearranged_h_0089.sdf

> <i_m_source_file_index>
7

> <r_mmod_Potential_Energy-OPLS-2005>
-319.75927734375

> <r_mmod_Stretch_Energy-OPLS-2005>
59.6243858337402

> <r_mmod_Bend_Energy-OPLS-2005>
121.524429321289

> <r_mmod_Torsional_Energy-OPLS-2005>
234.125427246094

> <r_mmod_Improper_Torsional_Energy-OPLS-2005>
9.89861297607422

> <r_mmod_Van_der_Waal_Energy-OPLS-2005>
166.570419311523

> <r_mmod_Electrostatic_Energy-OPLS-2005>
-467.460510253906

> <r_mmod_Solvation_Energy-OPLS-2005>
-468.623748779297

> <b_mmod_Minimization_Converged-OPLS-2005>
0

> <r_mmod_RMS_Derivative-OPLS-2005>
3.94153022766113

$$$$
7
                    3D
 Structure written by MMmdl.
151159  0  0  1  0            999 V2000
  -30.5939  -14.7779   20.4438 C   0  0  0  0  0  0
  -30.4326  -12.4682   19.4923 C   0  0  0  0  0  0
  -29.5169  -12.5129   18.2473 C   0  0  0  0  0  0
  -28.0404  -12.3343   18.6514 C   0  0  0  0  0  0
  -27.6400  -13.2355   19.8497 C   0  0  2  0  0  0
  -28.6796  -13.1725   20.9878 C   0  0  0  0  0  0
  -25.2503  -13.8205   20.5697 C   0  0  0  0  0  0
  -24.1796  -13.0443   20.9201 C   0  0  0  0  0  0
  -24.6391  -11.6922   20.8737 C   0  0  0  0  0  0
  -23.9070  -10.4296   21.0401 C   0  0  0  0  0  0
  -24.3620   -9.4212   21.9181 C   0  0  0  0  0  0
  -23.6296   -8.2247   22.0753 C   0  0  0  0  0  0
  -22.4277   -8.0283   21.3544 C   0  0  0  0  0  0
  -21.9912   -9.0256   20.4646 C   0  0  0  0  0  0
  -22.7240  -10.2135   20.3053 C   0  0  0  0  0  0
  -21.6855   -6.0736   22.5279 C   0  0  0  0  0  0
  -21.4016   -6.5639   23.8212 C   0  0  0  0  0  0
  -21.3660   -5.6791   24.9174 C   0  0  0  0  0  0
  -21.6045   -4.3054   24.7224 C   0  0  0  0  0  0
  -21.8818   -3.8146   23.4345 C   0  0  0  0  0  0
  -21.9193   -4.6964   22.3402 C   0  0  0  0  0  0
  -22.7818  -13.5223   21.1867 C   0  0  0  0  0  0
  -22.1662   -4.2149   21.0979 F   0  0  0  0  0  0
  -21.5629   -3.4538   25.7737 F   0  0  0  0  0  0
  -29.9828  -13.5374   20.4192 N   0  0  0  0  0  0
  -26.2925  -12.9416   20.3262 N   0  0  0  0  0  0
  -25.9321  -11.6554   20.5732 N   0  0  0  0  0  0
  -22.0468  -12.8212   22.0425 N   0  0  0  0  0  0
  -25.4205  -15.1931   20.4143 N   0  0  0  0  0  0
  -31.7840  -14.8411   20.1180 O   0  0  0  0  0  0
  -21.6642   -6.8879   21.4241 O   0  0  0  0  0  0
  -22.3499  -14.5528   20.6717 O   0  0  0  0  0  0
  -24.6314  -31.8533   23.1964 C   0  0  0  0  0  0
  -25.9136  -32.4743   23.8316 C   0  0  1  0  0  0
  -27.2216  -27.2448   20.1410 C   0  0  0  0  0  0
  -25.5927  -33.8547   24.2238 N   0  0  0  0  0  0
  -23.4297  -30.4733   21.5393 C   0  0  2  0  0  0
  -24.8782  -28.9106   20.1138 C   0  0  0  0  0  0
  -22.7503  -29.4588   22.4907 C   0  0  0  0  0  0
  -18.0291  -28.1388   22.8483 C   0  0  0  0  0  0
  -24.1490  -36.7280   23.2641 C   0  0  0  0  0  0
  -25.9751  -30.7581   21.3811 C   0  0  0  0  0  0
  -26.0465  -29.3755   20.7314 C   0  0  0  0  0  0
  -27.2184  -28.5514   20.7394 C   0  0  0  0  0  0
  -26.0366  -26.8507   19.4854 C   0  0  0  0  0  0
  -24.8778  -27.6558   19.4817 C   0  0  0  0  0  0
  -23.6503  -29.8015   20.1571 C   0  0  0  0  0  0
  -25.4118  -36.3064   24.0324 C   0  0  1  0  0  0
  -20.5895  -28.3699   23.1267 C   0  0  2  0  0  0
  -20.6777  -26.9415   22.5410 C   0  0  0  0  0  0
  -19.5753  -26.6382   21.5213 C   0  0  0  0  0  0
  -18.1934  -26.7930   22.1624 C   0  0  0  0  0  0
  -19.1545  -28.8861   23.2870 C   0  0  0  0  0  0
  -18.9466  -30.1461   23.8890 C   0  0  0  0  0  0
  -17.6465  -30.6589   24.0562 C   0  0  0  0  0  0
  -25.9058  -34.9434   23.5086 C   0  0  0  0  0  0
  -16.5356  -29.9085   23.6332 C   0  0  0  0  0  0
  -16.7278  -28.6503   23.0353 C   0  0  0  0  0  0
  -26.4500  -31.6581   25.0718 C   0  0  0  0  0  0
  -25.3715  -31.3740   26.1434 C   0  0  0  0  0  0
  -27.0357  -30.2995   24.6229 C   0  0  0  0  0  0
  -27.6046  -32.4333   25.7495 C   0  0  0  0  0  0
  -27.5578  -37.1796   24.8465 C   0  0  0  0  0  0
  -21.4209  -29.3040   22.3652 N   0  0  0  0  0  0
  -26.4291  -37.3764   23.9407 N   0  0  0  0  0  0
  -24.6975  -31.0479   22.0950 N   0  0  0  0  0  0
  -23.4194  -28.8138   23.3022 O   0  0  0  0  0  0
  -28.3315  -26.3680   20.1455 O   0  0  0  0  0  0
  -26.5638  -34.8914   22.4661 O   0  0  0  0  0  0
  -23.5461  -32.1367   23.7248 O   0  0  0  0  0  0
  -31.2201  -22.0525   19.7729 C   0  0  0  0  0  0
  -28.8935  -22.4024   20.3370 C   0  0  0  0  0  0
  -30.3343  -24.3271   19.8462 C   0  0  0  0  0  0
  -29.9835  -21.4452   20.1138 C   0  0  0  0  0  0
  -31.4021  -23.4406   19.6384 C   0  0  0  0  0  0
  -29.0516  -23.8631   20.1977 C   0  0  0  0  0  0
  -30.1528  -19.8819   20.1669 C   0  0  0  0  0  0
  -29.5271  -18.7007   20.5412 C   0  0  0  0  0  0
  -30.1913  -17.3300   20.3904 C   0  0  0  0  0  0
  -29.7652  -16.0344   20.6827 C   0  0  0  0  0  0
  -32.6607  -23.9401   19.2984 N   0  0  0  0  0  0
  -28.0431  -24.8914   20.4018 N   0  0  0  0  0  0
  -31.4753  -12.5855   19.1935 H   0  0  0  0  0  0
  -30.3745  -11.4934   19.9791 H   0  0  0  0  0  0
  -29.8070  -11.7381   17.5365 H   0  0  0  0  0  0
  -29.6442  -13.4661   17.7317 H   0  0  0  0  0  0
  -27.8972  -11.2857   18.9150 H   0  0  0  0  0  0
  -27.3875  -12.5249   17.7988 H   0  0  0  0  0  0
  -27.6339  -14.2570   19.4689 H   0  0  0  0  0  0
  -28.7191  -12.1714   21.4195 H   0  0  0  0  0  0
  -28.4052  -13.8387   21.8061 H   0  0  0  0  0  0
  -25.2764   -9.5691   22.4756 H   0  0  0  0  0  0
  -24.0005   -7.4639   22.7473 H   0  0  0  0  0  0
  -21.0843   -8.8774   19.8953 H   0  0  0  0  0  0
  -22.3696  -10.9673   19.6163 H   0  0  0  0  0  0
  -21.2010   -7.6148   23.9716 H   0  0  0  0  0  0
  -21.1484   -6.0522   25.9077 H   0  0  0  0  0  0
  -22.0597   -2.7608   23.2845 H   0  0  0  0  0  0
  -22.4090  -11.9875   22.4812 H   0  0  0  0  0  0
  -21.1087  -13.1235   22.2637 H   0  0  0  0  0  0
  -24.6558  -15.8491   20.5311 H   0  0  0  0  0  0
  -26.2749  -15.6341   20.0976 H   0  0  0  0  0  0
  -26.7200  -32.5388   23.1054 H   0  0  0  0  0  0
  -25.0060  -33.9679   25.0374 H   0  0  0  0  0  0
  -22.7271  -31.2957   21.3895 H   0  0  0  0  0  0
  -23.3752  -35.9612   23.3301 H   0  0  0  0  0  0
  -24.3578  -36.8909   22.2056 H   0  0  0  0  0  0
  -23.7244  -37.6479   23.6672 H   0  0  0  0  0  0
  -26.1160  -31.5137   20.6070 H   0  0  0  0  0  0
  -26.8520  -30.8107   22.0148 H   0  0  0  0  0  0
  -28.1160  -28.9022   21.2288 H   0  0  0  0  0  0
  -25.9971  -25.8954   18.9819 H   0  0  0  0  0  0
  -23.9854  -27.2975   18.9871 H   0  0  0  0  0  0
  -23.7779  -30.5751   19.3990 H   0  0  0  0  0  0
  -22.7682  -29.2357   19.8519 H   0  0  0  0  0  0
  -25.1302  -36.1906   25.0816 H   0  0  0  0  0  0
  -20.9988  -28.3280   24.1388 H   0  0  0  0  0  0
  -20.5675  -26.2310   23.3617 H   0  0  0  0  0  0
  -21.6645  -26.7435   22.1206 H   0  0  0  0  0  0
  -19.6914  -25.6291   21.1249 H   0  0  0  0  0  0
  -19.6691  -27.3188   20.6739 H   0  0  0  0  0  0
  -17.4203  -26.6676   21.4028 H   0  0  0  0  0  0
  -18.0334  -26.0074   22.9023 H   0  0  0  0  0  0
  -19.7942  -30.7279   24.2256 H   0  0  0  0  0  0
  -17.5019  -31.6268   24.5165 H   0  0  0  0  0  0
  -15.5356  -30.2985   23.7660 H   0  0  0  0  0  0
  -15.8678  -28.0819   22.7072 H   0  0  0  0  0  0
  -24.5890  -30.7091   25.7759 H   0  0  0  0  0  0
  -24.8907  -32.2914   26.4841 H   0  0  0  0  0  0
  -25.8022  -30.8926   27.0223 H   0  0  0  0  0  0
  -26.2950  -29.6731   24.1243 H   0  0  0  0  0  0
  -27.4017  -29.7272   25.4763 H   0  0  0  0  0  0
  -27.8835  -30.4261   23.9493 H   0  0  0  0  0  0
  -27.2644  -33.3637   26.2053 H   0  0  0  0  0  0
  -28.3865  -32.6888   25.0331 H   0  0  0  0  0  0
  -28.0706  -31.8474   26.5428 H   0  0  0  0  0  0
  -28.2594  -38.0094   24.7509 H   0  0  0  0  0  0
  -28.1075  -36.2624   24.6296 H   0  0  0  0  0  0
  -27.2295  -37.1450   25.8868 H   0  0  0  0  0  0
  -20.9401  -29.8754   21.6844 H   0  0  0  0  0  0
  -26.0167  -38.2838   24.1404 H   0  0  0  0  0  0
  -32.0896  -21.4325   19.6038 H   0  0  0  0  0  0
  -27.9239  -22.0124   20.6111 H   0  0  0  0  0  0
  -30.5095  -25.3878   19.7394 H   0  0  0  0  0  0
  -31.1163  -19.6157   19.7567 H   0  0  0  0  0  0
  -28.5344  -18.7556   20.9662 H   0  0  0  0  0  0
  -31.1887  -17.3699   19.9729 H   0  0  0  0  0  0
  -28.7766  -15.9240   21.1001 H   0  0  0  0  0  0
  -33.3543  -23.3134   18.9002 H   0  0  0  0  0  0
  -32.7409  -24.8926   18.9537 H   0  0  0  0  0  0
  -27.0534  -24.7145   20.5554 H   0  0  0  0  0  0
  1 25  1  0  0  0
  1 30  2  0  0  0
  1 80  1  0  0  0
  2  3  1  0  0  0
  2 25  1  0  0  0
  2 83  1  0  0  0
  2 84  1  0  0  0
  3  4  1  0  0  0
  3 85  1  0  0  0
  3 86  1  0  0  0
  4  5  1  0  0  0
  4 87  1  0  0  0
  4 88  1  0  0  0
  5  6  1  0  0  0
  5 26  1  0  0  0
  5 89  1  0  0  0
  6 25  1  0  0  0
  6 90  1  0  0  0
  6 91  1  0  0  0
  7  8  2  0  0  0
  7 26  1  0  0  0
  7 29  1  0  0  0
  8  9  1  0  0  0
  8 22  1  0  0  0
  9 10  1  0  0  0
  9 27  2  0  0  0
 10 11  2  0  0  0
 10 15  1  0  0  0
 11 12  1  0  0  0
 11 92  1  0  0  0
 12 13  2  0  0  0
 12 93  1  0  0  0
 13 14  1  0  0  0
 13 31  1  0  0  0
 14 15  2  0  0  0
 14 94  1  0  0  0
 15 95  1  0  0  0
 16 17  2  0  0  0
 16 21  1  0  0  0
 16 31  1  0  0  0
 17 18  1  0  0  0
 17 96  1  0  0  0
 18 19  2  0  0  0
 18 97  1  0  0  0
 19 20  1  0  0  0
 19 24  1  0  0  0
 20 21  2  0  0  0
 20 98  1  0  0  0
 21 23  1  0  0  0
 22 28  1  0  0  0
 22 32  2  0  0  0
 26 27  1  0  0  0
 28 99  1  0  0  0
 28100  1  0  0  0
 29101  1  0  0  0
 29102  1  0  0  0
 33 34  1  0  0  0
 33 66  1  0  0  0
 33 70  2  0  0  0
 34 36  1  0  0  0
 34 59  1  0  0  0
 34103  1  0  0  0
 35 44  2  0  0  0
 35 45  1  0  0  0
 35 68  1  0  0  0
 36 56  1  0  0  0
 36104  1  0  0  0
 37 39  1  0  0  0
 37 47  1  0  0  0
 37 66  1  0  0  0
 37105  1  0  0  0
 38 43  2  0  0  0
 38 46  1  0  0  0
 38 47  1  0  0  0
 39 64  1  0  0  0
 39 67  2  0  0  0
 40 52  1  0  0  0
 40 53  2  0  0  0
 40 58  1  0  0  0
 41106  1  0  0  0
 41107  1  0  0  0
 41108  1  0  0  0
 41 48  1  0  0  0
 42 43  1  0  0  0
 42 66  1  0  0  0
 42109  1  0  0  0
 42110  1  0  0  0
 43 44  1  0  0  0
 44111  1  0  0  0
 45 46  2  0  0  0
 45112  1  0  0  0
 46113  1  0  0  0
 47114  1  0  0  0
 47115  1  0  0  0
 48 56  1  0  0  0
 48 65  1  0  0  0
 48116  1  0  0  0
 49 50  1  0  0  0
 49 53  1  0  0  0
 49 64  1  0  0  0
 49117  1  0  0  0
 50 51  1  0  0  0
 50118  1  0  0  0
 50119  1  0  0  0
 51 52  1  0  0  0
 51120  1  0  0  0
 51121  1  0  0  0
 52122  1  0  0  0
 52123  1  0  0  0
 53 54  1  0  0  0
 54 55  2  0  0  0
 54124  1  0  0  0
 55 57  1  0  0  0
 55125  1  0  0  0
 56 69  2  0  0  0
 57 58  2  0  0  0
 57126  1  0  0  0
 58127  1  0  0  0
 59 60  1  0  0  0
 59 61  1  0  0  0
 59 62  1  0  0  0
 60128  1  0  0  0
 60129  1  0  0  0
 60130  1  0  0  0
 61131  1  0  0  0
 61132  1  0  0  0
 61133  1  0  0  0
 62134  1  0  0  0
 62135  1  0  0  0
 62136  1  0  0  0
 63 65  1  0  0  0
 63137  1  0  0  0
 63138  1  0  0  0
 63139  1  0  0  0
 64140  1  0  0  0
 65141  1  0  0  0
 68 82  1  0  0  0
 71 74  2  0  0  0
 71 75  1  0  0  0
 71142  1  0  0  0
 72 74  1  0  0  0
 72 76  2  0  0  0
 72143  1  0  0  0
 73 75  2  0  0  0
 73 76  1  0  0  0
 73144  1  0  0  0
 74 77  1  0  0  0
 75 81  1  0  0  0
 76 82  1  0  0  0
 77 78  2  0  0  0
 77145  1  0  0  0
 78 79  1  0  0  0
 78146  1  0  0  0
 79 80  2  0  0  0
 79147  1  0  0  0
 80148  1  0  0  0
 81149  1  0  0  0
 81150  1  0  0  0
 82151  1  0  0  0
M  ISO  4   1 100  68 101  80 100  82 101
M  END
> <chiral flag>
0

> <version>
0

> <s_m_source_file>
/data/baiqing/PycharmProjects/Reinvent-master-3.2/result/LINK_invent/BTK/process_docking_weight1_custom_product_contain_oxygen_bond_distance_aromatic_linkinvent_7_9_3/rearranged_h_0089.sdf

> <i_m_source_file_index>
8

> <r_mmod_Potential_Energy-OPLS-2005>
260.849151611328

> <r_mmod_Stretch_Energy-OPLS-2005>
140.908416748047

> <r_mmod_Bend_Energy-OPLS-2005>
229.497085571289

> <r_mmod_Torsional_Energy-OPLS-2005>
163.626419067383

> <r_mmod_Improper_Torsional_Energy-OPLS-2005>
6.68167495727539

> <r_mmod_Van_der_Waal_Energy-OPLS-2005>
144.240432739258

> <r_mmod_Electrostatic_Energy-OPLS-2005>
-301.954803466797

> <r_mmod_Solvation_Energy-OPLS-2005>
-214.986480712891

> <b_mmod_Minimization_Converged-OPLS-2005>
0

> <r_mmod_RMS_Derivative-OPLS-2005>
0.120255134999752

$$$$
8
                    3D
 Structure written by MMmdl.
155164  0  0  1  0            999 V2000
  -30.6281  -14.7728   20.4446 C   0  0  0  0  0  0
  -30.4218  -12.4695   19.4819 C   0  0  0  0  0  0
  -29.5073  -12.5062   18.2391 C   0  0  0  0  0  0
  -28.0349  -12.3296   18.6541 C   0  0  0  0  0  0
  -27.6367  -13.2400   19.8469 C   0  0  2  0  0  0
  -28.6819  -13.2061   20.9833 C   0  0  0  0  0  0
  -25.2486  -13.8219   20.5706 C   0  0  0  0  0  0
  -24.1792  -13.0450   20.9213 C   0  0  0  0  0  0
  -24.6397  -11.6930   20.8754 C   0  0  0  0  0  0
  -23.9082  -10.4301   21.0411 C   0  0  0  0  0  0
  -24.3630   -9.4213   21.9187 C   0  0  0  0  0  0
  -23.6301   -8.2248   22.0758 C   0  0  0  0  0  0
  -22.4283   -8.0288   21.3545 C   0  0  0  0  0  0
  -21.9923   -9.0263   20.4646 C   0  0  0  0  0  0
  -22.7256  -10.2140   20.3058 C   0  0  0  0  0  0
  -21.6851   -6.0743   22.5283 C   0  0  0  0  0  0
  -21.4015   -6.5646   23.8218 C   0  0  0  0  0  0
  -21.3659   -5.6794   24.9178 C   0  0  0  0  0  0
  -21.6042   -4.3057   24.7224 C   0  0  0  0  0  0
  -21.8819   -3.8153   23.4344 C   0  0  0  0  0  0
  -21.9194   -4.6971   22.3402 C   0  0  0  0  0  0
  -22.7810  -13.5219   21.1869 C   0  0  0  0  0  0
  -22.1661   -4.2155   21.0978 F   0  0  0  0  0  0
  -21.5628   -3.4542   25.7737 F   0  0  0  0  0  0
  -29.9778  -13.5558   20.3916 N   0  0  0  0  0  0
  -26.2916  -12.9439   20.3285 N   0  0  0  0  0  0
  -25.9332  -11.6573   20.5767 N   0  0  0  0  0  0
  -22.0460  -12.8205   22.0422 N   0  0  0  0  0  0
  -25.4147  -15.1949   20.4125 N   0  0  0  0  0  0
  -31.8204  -14.7977   20.1320 O   0  0  0  0  0  0
  -21.6643   -6.8886   21.4244 O   0  0  0  0  0  0
  -22.3489  -14.5523   20.6716 O   0  0  0  0  0  0
  -24.6330  -31.8527   23.1951 C   0  0  0  0  0  0
  -25.9145  -32.4738   23.8300 C   0  0  1  0  0  0
  -27.2225  -27.2422   20.1203 C   0  0  0  0  0  0
  -25.5929  -33.8538   24.2222 N   0  0  0  0  0  0
  -23.4296  -30.4737   21.5395 C   0  0  2  0  0  0
  -24.8759  -28.9153   20.1063 C   0  0  0  0  0  0
  -22.7508  -29.4583   22.4907 C   0  0  0  0  0  0
  -18.0292  -28.1389   22.8481 C   0  0  0  0  0  0
  -24.1490  -36.7272   23.2640 C   0  0  0  0  0  0
  -25.9763  -30.7584   21.3771 C   0  0  0  0  0  0
  -26.0471  -29.3790   20.7173 C   0  0  0  0  0  0
  -27.2179  -28.5525   20.7166 C   0  0  0  0  0  0
  -26.0204  -26.8445   19.4925 C   0  0  0  0  0  0
  -24.8681  -27.6568   19.4854 C   0  0  0  0  0  0
  -23.6472  -29.8038   20.1562 C   0  0  0  0  0  0
  -25.4116  -36.3056   24.0321 C   0  0  1  0  0  0
  -20.5896  -28.3695   23.1266 C   0  0  2  0  0  0
  -20.6776  -26.9411   22.5411 C   0  0  0  0  0  0
  -19.5751  -26.6379   21.5214 C   0  0  0  0  0  0
  -18.1928  -26.7925   22.1626 C   0  0  0  0  0  0
  -19.1548  -28.8860   23.2863 C   0  0  0  0  0  0
  -18.9472  -30.1461   23.8879 C   0  0  0  0  0  0
  -17.6470  -30.6587   24.0559 C   0  0  0  0  0  0
  -25.9065  -34.9428   23.5079 C   0  0  0  0  0  0
  -16.5359  -29.9083   23.6339 C   0  0  0  0  0  0
  -16.7277  -28.6503   23.0354 C   0  0  0  0  0  0
  -26.4498  -31.6579   25.0709 C   0  0  0  0  0  0
  -25.3698  -31.3757   26.1420 C   0  0  0  0  0  0
  -27.0348  -30.2985   24.6233 C   0  0  0  0  0  0
  -27.6039  -32.4332   25.7487 C   0  0  0  0  0  0
  -27.5574  -37.1788   24.8463 C   0  0  0  0  0  0
  -21.4217  -29.3036   22.3650 N   0  0  0  0  0  0
  -26.4285  -37.3761   23.9410 N   0  0  0  0  0  0
  -24.6988  -31.0473   22.0933 N   0  0  0  0  0  0
  -23.4202  -28.8140   23.3019 O   0  0  0  0  0  0
  -28.3242  -26.3540   20.2189 O   0  0  0  0  0  0
  -26.5651  -34.8915   22.4660 O   0  0  0  0  0  0
  -23.5476  -32.1356   23.7243 O   0  0  0  0  0  0
  -31.2875  -20.1281   20.4550 C   0  0  0  0  0  0
  -31.6991  -17.7204   20.6523 C   0  0  0  0  0  0
  -29.8854  -19.9550   20.4240 C   0  0  0  0  0  0
  -32.1724  -19.0438   20.5834 C   0  0  0  0  0  0
  -30.3204  -17.4015   20.5775 C   0  0  0  0  0  0
  -29.4198  -18.5596   20.4827 C   0  0  0  0  0  0
  -27.6629  -22.9836   20.9198 C   0  0  0  0  0  0
  -28.5266  -23.6063   20.1064 C   0  0  0  0  0  0
  -28.0100  -21.5614   21.1140 C   0  0  0  0  0  0
  -29.5265  -22.5092   19.6758 C   0  0  0  0  0  0
  -28.4492  -25.0677   19.4456 C   0  0  0  0  0  0
  -29.0863  -21.2280   20.3483 N   0  0  0  0  0  0
  -33.5436  -19.2878   20.6496 N   0  0  0  0  0  0
  -29.8988  -15.9555   20.6246 N   0  0  0  0  0  0
  -27.4173  -20.7831   21.8652 O   0  0  0  0  0  0
  -28.0898  -18.3119   20.4140 F   0  0  0  0  0  0
  -31.4653  -12.5723   19.1798 H   0  0  0  0  0  0
  -30.3538  -11.5012   19.9814 H   0  0  0  0  0  0
  -29.7934  -11.7255   17.5330 H   0  0  0  0  0  0
  -29.6322  -13.4551   17.7152 H   0  0  0  0  0  0
  -27.8965  -11.2828   18.9272 H   0  0  0  0  0  0
  -27.3766  -12.5100   17.8033 H   0  0  0  0  0  0
  -27.6215  -14.2558   19.4510 H   0  0  0  0  0  0
  -28.7246  -12.2200   21.4480 H   0  0  0  0  0  0
  -28.4157  -13.9084   21.7750 H   0  0  0  0  0  0
  -25.2773   -9.5688   22.4766 H   0  0  0  0  0  0
  -24.0008   -7.4640   22.7480 H   0  0  0  0  0  0
  -21.0855   -8.8785   19.8950 H   0  0  0  0  0  0
  -22.3718  -10.9680   19.6169 H   0  0  0  0  0  0
  -21.2009   -7.6154   23.9721 H   0  0  0  0  0  0
  -21.1479   -6.0525   25.9078 H   0  0  0  0  0  0
  -22.0597   -2.7616   23.2844 H   0  0  0  0  0  0
  -22.4079  -11.9866   22.4804 H   0  0  0  0  0  0
  -21.1076  -13.1227   22.2634 H   0  0  0  0  0  0
  -24.6427  -15.8433   20.5251 H   0  0  0  0  0  0
  -26.2605  -15.6446   20.0876 H   0  0  0  0  0  0
  -26.7207  -32.5377   23.1033 H   0  0  0  0  0  0
  -25.0034  -33.9660   25.0339 H   0  0  0  0  0  0
  -22.7267  -31.2964   21.3911 H   0  0  0  0  0  0
  -23.3758  -35.9602   23.3300 H   0  0  0  0  0  0
  -24.3570  -36.8909   22.2055 H   0  0  0  0  0  0
  -23.7242  -37.6467   23.6677 H   0  0  0  0  0  0
  -26.1187  -31.5189   20.6079 H   0  0  0  0  0  0
  -26.8528  -30.8059   22.0122 H   0  0  0  0  0  0
  -28.1126  -28.8992   21.2145 H   0  0  0  0  0  0
  -25.9216  -25.8703   19.0406 H   0  0  0  0  0  0
  -23.9658  -27.2901   19.0150 H   0  0  0  0  0  0
  -23.7686  -30.5780   19.3971 H   0  0  0  0  0  0
  -22.7655  -29.2352   19.8542 H   0  0  0  0  0  0
  -25.1300  -36.1887   25.0812 H   0  0  0  0  0  0
  -20.9982  -28.3287   24.1389 H   0  0  0  0  0  0
  -20.5680  -26.2307   23.3623 H   0  0  0  0  0  0
  -21.6641  -26.7435   22.1201 H   0  0  0  0  0  0
  -19.6915  -25.6292   21.1244 H   0  0  0  0  0  0
  -19.6690  -27.3195   20.6748 H   0  0  0  0  0  0
  -17.4198  -26.6677   21.4026 H   0  0  0  0  0  0
  -18.0323  -26.0069   22.9026 H   0  0  0  0  0  0
  -19.7953  -30.7274   24.2241 H   0  0  0  0  0  0
  -17.5030  -31.6269   24.5162 H   0  0  0  0  0  0
  -15.5361  -30.2978   23.7677 H   0  0  0  0  0  0
  -15.8676  -28.0818   22.7075 H   0  0  0  0  0  0
  -24.5896  -30.7077   25.7756 H   0  0  0  0  0  0
  -24.8857  -32.2933   26.4771 H   0  0  0  0  0  0
  -25.7989  -30.8995   27.0242 H   0  0  0  0  0  0
  -26.2945  -29.6724   24.1239 H   0  0  0  0  0  0
  -27.3987  -29.7261   25.4775 H   0  0  0  0  0  0
  -27.8840  -30.4241   23.9510 H   0  0  0  0  0  0
  -27.2649  -33.3666   26.1989 H   0  0  0  0  0  0
  -28.3885  -32.6831   25.0334 H   0  0  0  0  0  0
  -28.0657  -31.8496   26.5463 H   0  0  0  0  0  0
  -28.2582  -38.0094   24.7513 H   0  0  0  0  0  0
  -28.1077  -36.2619   24.6282 H   0  0  0  0  0  0
  -27.2287  -37.1426   25.8865 H   0  0  0  0  0  0
  -20.9413  -29.8747   21.6841 H   0  0  0  0  0  0
  -26.0161  -38.2833   24.1425 H   0  0  0  0  0  0
  -31.7099  -21.1200   20.4204 H   0  0  0  0  0  0
  -32.4395  -16.9469   20.7720 H   0  0  0  0  0  0
  -26.7812  -23.4459   21.3372 H   0  0  0  0  0  0
  -30.5297  -22.8206   19.9616 H   0  0  0  0  0  0
  -29.5011  -22.3831   18.5926 H   0  0  0  0  0  0
  -27.7728  -25.0269   18.5950 H   0  0  0  0  0  0
  -29.4226  -25.1791   18.9669 H   0  0  0  0  0  0
  -33.8758  -20.2257   20.8562 H   0  0  0  0  0  0
  -34.1643  -18.5611   20.9954 H   0  0  0  0  0  0
  -28.9097  -15.8150   20.7618 H   0  0  0  0  0  0
  1 25  1  0  0  0
  1 30  2  0  0  0
  1 84  1  0  0  0
  2  3  1  0  0  0
  2 25  1  0  0  0
  2 87  1  0  0  0
  2 88  1  0  0  0
  3  4  1  0  0  0
  3 89  1  0  0  0
  3 90  1  0  0  0
  4  5  1  0  0  0
  4 91  1  0  0  0
  4 92  1  0  0  0
  5  6  1  0  0  0
  5 26  1  0  0  0
  5 93  1  0  0  0
  6 25  1  0  0  0
  6 94  1  0  0  0
  6 95  1  0  0  0
  7  8  2  0  0  0
  7 26  1  0  0  0
  7 29  1  0  0  0
  8  9  1  0  0  0
  8 22  1  0  0  0
  9 10  1  0  0  0
  9 27  2  0  0  0
 10 11  2  0  0  0
 10 15  1  0  0  0
 11 12  1  0  0  0
 11 96  1  0  0  0
 12 13  2  0  0  0
 12 97  1  0  0  0
 13 14  1  0  0  0
 13 31  1  0  0  0
 14 15  2  0  0  0
 14 98  1  0  0  0
 15 99  1  0  0  0
 16 17  2  0  0  0
 16 21  1  0  0  0
 16 31  1  0  0  0
 17 18  1  0  0  0
 17100  1  0  0  0
 18 19  2  0  0  0
 18101  1  0  0  0
 19 20  1  0  0  0
 19 24  1  0  0  0
 20 21  2  0  0  0
 20102  1  0  0  0
 21 23  1  0  0  0
 22 28  1  0  0  0
 22 32  2  0  0  0
 26 27  1  0  0  0
 28103  1  0  0  0
 28104  1  0  0  0
 29105  1  0  0  0
 29106  1  0  0  0
 33 34  1  0  0  0
 33 66  1  0  0  0
 33 70  2  0  0  0
 34 36  1  0  0  0
 34 59  1  0  0  0
 34107  1  0  0  0
 35 44  2  0  0  0
 35 45  1  0  0  0
 35 68  1  0  0  0
 36 56  1  0  0  0
 36108  1  0  0  0
 37 39  1  0  0  0
 37 47  1  0  0  0
 37 66  1  0  0  0
 37109  1  0  0  0
 38 43  2  0  0  0
 38 46  1  0  0  0
 38 47  1  0  0  0
 39 64  1  0  0  0
 39 67  2  0  0  0
 40 52  1  0  0  0
 40 53  2  0  0  0
 40 58  1  0  0  0
 41110  1  0  0  0
 41111  1  0  0  0
 41112  1  0  0  0
 41 48  1  0  0  0
 42 43  1  0  0  0
 42 66  1  0  0  0
 42113  1  0  0  0
 42114  1  0  0  0
 43 44  1  0  0  0
 44115  1  0  0  0
 45 46  2  0  0  0
 45116  1  0  0  0
 46117  1  0  0  0
 47118  1  0  0  0
 47119  1  0  0  0
 48 56  1  0  0  0
 48 65  1  0  0  0
 48120  1  0  0  0
 49 50  1  0  0  0
 49 53  1  0  0  0
 49 64  1  0  0  0
 49121  1  0  0  0
 50 51  1  0  0  0
 50122  1  0  0  0
 50123  1  0  0  0
 51 52  1  0  0  0
 51124  1  0  0  0
 51125  1  0  0  0
 52126  1  0  0  0
 52127  1  0  0  0
 53 54  1  0  0  0
 54 55  2  0  0  0
 54128  1  0  0  0
 55 57  1  0  0  0
 55129  1  0  0  0
 56 69  2  0  0  0
 57 58  2  0  0  0
 57130  1  0  0  0
 58131  1  0  0  0
 59 60  1  0  0  0
 59 61  1  0  0  0
 59 62  1  0  0  0
 60132  1  0  0  0
 60133  1  0  0  0
 60134  1  0  0  0
 61135  1  0  0  0
 61136  1  0  0  0
 61137  1  0  0  0
 62138  1  0  0  0
 62139  1  0  0  0
 62140  1  0  0  0
 63 65  1  0  0  0
 63141  1  0  0  0
 63142  1  0  0  0
 63143  1  0  0  0
 64144  1  0  0  0
 65145  1  0  0  0
 68 81  1  0  0  0
 71 73  2  0  0  0
 71 74  1  0  0  0
 71146  1  0  0  0
 72 74  2  0  0  0
 72 75  1  0  0  0
 72147  1  0  0  0
 73 76  1  0  0  0
 73 82  1  0  0  0
 74 83  1  0  0  0
 75 76  2  0  0  0
 75 84  1  0  0  0
 76 86  1  0  0  0
 77 78  2  0  0  0
 77 79  1  0  0  0
 77148  1  0  0  0
 78 80  1  0  0  0
 78 81  1  0  0  0
 79 82  1  0  0  0
 79 85  2  0  0  0
 80 82  1  0  0  0
 80149  1  0  0  0
 80150  1  0  0  0
 81151  1  0  0  0
 81152  1  0  0  0
 83153  1  0  0  0
 83154  1  0  0  0
 84155  1  0  0  0
M  ISO  4   1 100  68 101  81 101  84 100
M  END
> <chiral flag>
0

> <version>
0

> <s_m_source_file>
/data/baiqing/PycharmProjects/Reinvent-master-3.2/result/LINK_invent/BTK/process_docking_weight1_custom_product_contain_oxygen_bond_distance_aromatic_linkinvent_7_9_3/rearranged_h_0089.sdf

> <i_m_source_file_index>
9

> <r_mmod_Potential_Energy-OPLS-2005>
252.527191162109

> <r_mmod_Stretch_Energy-OPLS-2005>
142.020629882812

> <r_mmod_Bend_Energy-OPLS-2005>
239.948333740234

> <r_mmod_Torsional_Energy-OPLS-2005>
260.102752685547

> <r_mmod_Improper_Torsional_Energy-OPLS-2005>
8.60792255401611

> <r_mmod_Van_der_Waal_Energy-OPLS-2005>
140.735015869141

> <r_mmod_Electrostatic_Energy-OPLS-2005>
-409.367095947266

> <r_mmod_Solvation_Energy-OPLS-2005>
-226.945861816406

> <b_mmod_Minimization_Converged-OPLS-2005>
0

> <r_mmod_RMS_Derivative-OPLS-2005>
1.05620121955872

$$$$
9
                    3D
 Structure written by MMmdl.
150158  0  0  1  0            999 V2000
  -30.6023  -14.6861   20.4894 C   0  0  0  0  0  0
  -30.4451  -12.4195   19.4598 C   0  0  0  0  0  0
  -29.5129  -12.5131   18.2301 C   0  0  0  0  0  0
  -28.0363  -12.3433   18.6418 C   0  0  0  0  0  0
  -27.6533  -13.2194   19.8643 C   0  0  2  0  0  0
  -28.6996  -13.0894   20.9944 C   0  0  0  0  0  0
  -25.2547  -13.8164   20.5679 C   0  0  0  0  0  0
  -24.1813  -13.0424   20.9158 C   0  0  0  0  0  0
  -24.6395  -11.6902   20.8720 C   0  0  0  0  0  0
  -23.9063  -10.4286   21.0395 C   0  0  0  0  0  0
  -24.3614   -9.4205   21.9176 C   0  0  0  0  0  0
  -23.6287   -8.2243   22.0753 C   0  0  0  0  0  0
  -22.4268   -8.0279   21.3546 C   0  0  0  0  0  0
  -21.9902   -9.0251   20.4646 C   0  0  0  0  0  0
  -22.7232  -10.2129   20.3050 C   0  0  0  0  0  0
  -21.6854   -6.0728   22.5276 C   0  0  0  0  0  0
  -21.4018   -6.5632   23.8211 C   0  0  0  0  0  0
  -21.3659   -5.6785   24.9174 C   0  0  0  0  0  0
  -21.6043   -4.3049   24.7224 C   0  0  0  0  0  0
  -21.8820   -3.8140   23.4346 C   0  0  0  0  0  0
  -21.9194   -4.6955   22.3400 C   0  0  0  0  0  0
  -22.7839  -13.5221   21.1832 C   0  0  0  0  0  0
  -22.1663   -4.2142   21.0977 F   0  0  0  0  0  0
  -21.5626   -3.4535   25.7737 F   0  0  0  0  0  0
  -30.0115  -13.4467   20.4300 N   0  0  0  0  0  0
  -26.2994  -12.9356   20.3337 N   0  0  0  0  0  0
  -25.9331  -11.6505   20.5757 N   0  0  0  0  0  0
  -22.0486  -12.8226   22.0403 N   0  0  0  0  0  0
  -25.4227  -15.1888   20.4140 N   0  0  0  0  0  0
  -31.7645  -14.8538   20.1066 O   0  0  0  0  0  0
  -21.6637   -6.8873   21.4240 O   0  0  0  0  0  0
  -22.3518  -14.5527   20.6683 O   0  0  0  0  0  0
  -24.6276  -31.8579   23.2014 C   0  0  0  0  0  0
  -25.9116  -32.4768   23.8348 C   0  0  1  0  0  0
  -27.2274  -27.3013   20.1247 C   0  0  0  0  0  0
  -25.5921  -33.8569   24.2275 N   0  0  0  0  0  0
  -23.4232  -30.4800   21.5440 C   0  0  2  0  0  0
  -24.8728  -28.9313   20.1118 C   0  0  0  0  0  0
  -22.7484  -29.4610   22.4931 C   0  0  0  0  0  0
  -18.0285  -28.1389   22.8484 C   0  0  0  0  0  0
  -24.1488  -36.7292   23.2637 C   0  0  0  0  0  0
  -25.9658  -30.7819   21.3775 C   0  0  0  0  0  0
  -26.0413  -29.4065   20.7221 C   0  0  0  0  0  0
  -27.2219  -28.6016   20.7223 C   0  0  0  0  0  0
  -26.0404  -26.8865   19.4816 C   0  0  0  0  0  0
  -24.8745  -27.6763   19.4827 C   0  0  0  0  0  0
  -23.6406  -29.8135   20.1599 C   0  0  0  0  0  0
  -25.4109  -36.3076   24.0330 C   0  0  1  0  0  0
  -20.5886  -28.3692   23.1282 C   0  0  2  0  0  0
  -20.6777  -26.9412   22.5413 C   0  0  0  0  0  0
  -19.5753  -26.6383   21.5215 C   0  0  0  0  0  0
  -18.1931  -26.7931   22.1623 C   0  0  0  0  0  0
  -19.1538  -28.8858   23.2878 C   0  0  0  0  0  0
  -18.9460  -30.1458   23.8895 C   0  0  0  0  0  0
  -17.6459  -30.6589   24.0562 C   0  0  0  0  0  0
  -25.9048  -34.9446   23.5105 C   0  0  0  0  0  0
  -16.5350  -29.9087   23.6331 C   0  0  0  0  0  0
  -16.7270  -28.6505   23.0351 C   0  0  0  0  0  0
  -26.4492  -31.6582   25.0725 C   0  0  0  0  0  0
  -25.3719  -31.3737   26.1451 C   0  0  0  0  0  0
  -27.0334  -30.2998   24.6202 C   0  0  0  0  0  0
  -27.6053  -32.4317   25.7490 C   0  0  0  0  0  0
  -27.5587  -37.1788   24.8454 C   0  0  0  0  0  0
  -21.4196  -29.3039   22.3672 N   0  0  0  0  0  0
  -26.4284  -37.3776   23.9418 N   0  0  0  0  0  0
  -24.6908  -31.0570   22.0977 N   0  0  0  0  0  0
  -23.4197  -28.8149   23.3020 O   0  0  0  0  0  0
  -28.3282  -26.4251   20.1453 O   0  0  0  0  0  0
  -26.5622  -34.8917   22.4675 O   0  0  0  0  0  0
  -23.5434  -32.1388   23.7328 O   0  0  0  0  0  0
  -30.7636  -19.4068   20.0556 C   0  0  0  0  0  0
  -30.8747  -17.9815   20.1798 C   0  0  0  0  0  0
  -28.5285  -19.3341   20.9146 C   0  0  0  0  0  0
  -29.5916  -20.1389   20.4158 C   0  0  0  0  0  0
  -29.8046  -17.1891   20.6781 C   0  0  0  0  0  0
  -28.6355  -17.9136   21.0389 C   0  0  0  0  0  0
  -28.1086  -25.0501   20.4229 C   0  0  0  0  0  0
  -28.9623  -23.9902   20.1910 C   0  0  0  0  0  0
  -28.6016  -22.5679   20.5330 C   0  0  0  0  0  0
  -29.5527  -21.6116   20.2496 N   0  0  0  0  0  0
  -29.7778  -15.7258   20.8472 N   0  0  0  0  0  0
  -27.5213  -22.2598   21.0396 O   0  0  0  0  0  0
  -30.1605  -24.2319   19.6384 O   0  0  0  0  0  0
  -27.5747  -17.2173   21.5144 F   0  0  0  0  0  0
  -31.4846  -12.5543   19.1561 H   0  0  0  0  0  0
  -30.3914  -11.4270   19.9102 H   0  0  0  0  0  0
  -29.7845  -11.7571   17.4921 H   0  0  0  0  0  0
  -29.6469  -13.4789   17.7409 H   0  0  0  0  0  0
  -27.8801  -11.2906   18.8798 H   0  0  0  0  0  0
  -27.3811  -12.5644   17.7985 H   0  0  0  0  0  0
  -27.6650  -14.2522   19.5151 H   0  0  0  0  0  0
  -28.7220  -12.0694   21.3813 H   0  0  0  0  0  0
  -28.4382  -13.7223   21.8438 H   0  0  0  0  0  0
  -25.2760   -9.5682   22.4747 H   0  0  0  0  0  0
  -23.9995   -7.4636   22.7475 H   0  0  0  0  0  0
  -21.0832   -8.8770   19.8954 H   0  0  0  0  0  0
  -22.3690  -10.9666   19.6158 H   0  0  0  0  0  0
  -21.2016   -7.6141   23.9713 H   0  0  0  0  0  0
  -21.1477   -6.0516   25.9076 H   0  0  0  0  0  0
  -22.0600   -2.7603   23.2848 H   0  0  0  0  0  0
  -22.4099  -11.9892   22.4799 H   0  0  0  0  0  0
  -21.1112  -13.1270   22.2614 H   0  0  0  0  0  0
  -24.6613  -15.8414   20.5615 H   0  0  0  0  0  0
  -26.2981  -15.6516   20.2056 H   0  0  0  0  0  0
  -26.7184  -32.5435   23.1095 H   0  0  0  0  0  0
  -25.0056  -33.9710   25.0410 H   0  0  0  0  0  0
  -22.7179  -31.3010   21.3992 H   0  0  0  0  0  0
  -23.3756  -35.9616   23.3275 H   0  0  0  0  0  0
  -24.3592  -36.8934   22.2056 H   0  0  0  0  0  0
  -23.7230  -37.6482   23.6675 H   0  0  0  0  0  0
  -26.0993  -31.5440   20.6085 H   0  0  0  0  0  0
  -26.8452  -30.8325   22.0078 H   0  0  0  0  0  0
  -28.1182  -28.9590   21.2097 H   0  0  0  0  0  0
  -26.0048  -25.9256   18.9881 H   0  0  0  0  0  0
  -23.9810  -27.3082   18.9974 H   0  0  0  0  0  0
  -23.7605  -30.5898   19.4033 H   0  0  0  0  0  0
  -22.7606  -29.2433   19.8570 H   0  0  0  0  0  0
  -25.1283  -36.1925   25.0821 H   0  0  0  0  0  0
  -20.9972  -28.3269   24.1405 H   0  0  0  0  0  0
  -20.5679  -26.2297   23.3613 H   0  0  0  0  0  0
  -21.6646  -26.7447   22.1205 H   0  0  0  0  0  0
  -19.6914  -25.6293   21.1247 H   0  0  0  0  0  0
  -19.6692  -27.3190   20.6743 H   0  0  0  0  0  0
  -17.4201  -26.6675   21.4027 H   0  0  0  0  0  0
  -18.0329  -26.0077   22.9022 H   0  0  0  0  0  0
  -19.7936  -30.7276   24.2263 H   0  0  0  0  0  0
  -17.5014  -31.6272   24.5161 H   0  0  0  0  0  0
  -15.5352  -30.2988   23.7660 H   0  0  0  0  0  0
  -15.8669  -28.0822   22.7071 H   0  0  0  0  0  0
  -24.5880  -30.7101   25.7781 H   0  0  0  0  0  0
  -24.8926  -32.2912   26.4876 H   0  0  0  0  0  0
  -25.8030  -30.8910   27.0229 H   0  0  0  0  0  0
  -26.2915  -29.6748   24.1217 H   0  0  0  0  0  0
  -27.4004  -29.7258   25.4722 H   0  0  0  0  0  0
  -27.8797  -30.4271   23.9447 H   0  0  0  0  0  0
  -27.2664  -33.3614   26.2075 H   0  0  0  0  0  0
  -28.3854  -32.6884   25.0309 H   0  0  0  0  0  0
  -28.0733  -31.8439   26.5397 H   0  0  0  0  0  0
  -28.2569  -38.0122   24.7555 H   0  0  0  0  0  0
  -28.1119  -36.2657   24.6204 H   0  0  0  0  0  0
  -27.2319  -37.1346   25.8858 H   0  0  0  0  0  0
  -20.9377  -29.8755   21.6874 H   0  0  0  0  0  0
  -26.0164  -38.2842   24.1452 H   0  0  0  0  0  0
  -31.6166  -19.9458   19.6667 H   0  0  0  0  0  0
  -31.7985  -17.5059   19.8832 H   0  0  0  0  0  0
  -27.5965  -19.7889   21.2115 H   0  0  0  0  0  0
  -27.1386  -24.8862   20.8759 H   0  0  0  0  0  0
  -30.3835  -22.0286   19.8485 H   0  0  0  0  0  0
  -28.8880  -15.4006   21.1947 H   0  0  0  0  0  0
  -30.2117  -25.1691   19.4958 H   0  0  0  0  0  0
  1 25  1  0  0  0
  1 30  2  0  0  0
  1 81  1  0  0  0
  2  3  1  0  0  0
  2 25  1  0  0  0
  2 85  1  0  0  0
  2 86  1  0  0  0
  3  4  1  0  0  0
  3 87  1  0  0  0
  3 88  1  0  0  0
  4  5  1  0  0  0
  4 89  1  0  0  0
  4 90  1  0  0  0
  5  6  1  0  0  0
  5 26  1  0  0  0
  5 91  1  0  0  0
  6 25  1  0  0  0
  6 92  1  0  0  0
  6 93  1  0  0  0
  7  8  2  0  0  0
  7 26  1  0  0  0
  7 29  1  0  0  0
  8  9  1  0  0  0
  8 22  1  0  0  0
  9 10  1  0  0  0
  9 27  2  0  0  0
 10 11  2  0  0  0
 10 15  1  0  0  0
 11 12  1  0  0  0
 11 94  1  0  0  0
 12 13  2  0  0  0
 12 95  1  0  0  0
 13 14  1  0  0  0
 13 31  1  0  0  0
 14 15  2  0  0  0
 14 96  1  0  0  0
 15 97  1  0  0  0
 16 17  2  0  0  0
 16 21  1  0  0  0
 16 31  1  0  0  0
 17 18  1  0  0  0
 17 98  1  0  0  0
 18 19  2  0  0  0
 18 99  1  0  0  0
 19 20  1  0  0  0
 19 24  1  0  0  0
 20 21  2  0  0  0
 20100  1  0  0  0
 21 23  1  0  0  0
 22 28  1  0  0  0
 22 32  2  0  0  0
 26 27  1  0  0  0
 28101  1  0  0  0
 28102  1  0  0  0
 29103  1  0  0  0
 29104  1  0  0  0
 33 34  1  0  0  0
 33 66  1  0  0  0
 33 70  2  0  0  0
 34 36  1  0  0  0
 34 59  1  0  0  0
 34105  1  0  0  0
 35 44  2  0  0  0
 35 45  1  0  0  0
 35 68  1  0  0  0
 36 56  1  0  0  0
 36106  1  0  0  0
 37 39  1  0  0  0
 37 47  1  0  0  0
 37 66  1  0  0  0
 37107  1  0  0  0
 38 43  2  0  0  0
 38 46  1  0  0  0
 38 47  1  0  0  0
 39 64  1  0  0  0
 39 67  2  0  0  0
 40 52  1  0  0  0
 40 53  2  0  0  0
 40 58  1  0  0  0
 41108  1  0  0  0
 41109  1  0  0  0
 41110  1  0  0  0
 41 48  1  0  0  0
 42 43  1  0  0  0
 42 66  1  0  0  0
 42111  1  0  0  0
 42112  1  0  0  0
 43 44  1  0  0  0
 44113  1  0  0  0
 45 46  2  0  0  0
 45114  1  0  0  0
 46115  1  0  0  0
 47116  1  0  0  0
 47117  1  0  0  0
 48 56  1  0  0  0
 48 65  1  0  0  0
 48118  1  0  0  0
 49 50  1  0  0  0
 49 53  1  0  0  0
 49 64  1  0  0  0
 49119  1  0  0  0
 50 51  1  0  0  0
 50120  1  0  0  0
 50121  1  0  0  0
 51 52  1  0  0  0
 51122  1  0  0  0
 51123  1  0  0  0
 52124  1  0  0  0
 52125  1  0  0  0
 53 54  1  0  0  0
 54 55  2  0  0  0
 54126  1  0  0  0
 55 57  1  0  0  0
 55127  1  0  0  0
 56 69  2  0  0  0
 57 58  2  0  0  0
 57128  1  0  0  0
 58129  1  0  0  0
 59 60  1  0  0  0
 59 61  1  0  0  0
 59 62  1  0  0  0
 60130  1  0  0  0
 60131  1  0  0  0
 60132  1  0  0  0
 61133  1  0  0  0
 61134  1  0  0  0
 61135  1  0  0  0
 62136  1  0  0  0
 62137  1  0  0  0
 62138  1  0  0  0
 63 65  1  0  0  0
 63139  1  0  0  0
 63140  1  0  0  0
 63141  1  0  0  0
 64142  1  0  0  0
 65143  1  0  0  0
 68 77  1  0  0  0
 71 72  2  0  0  0
 71 74  1  0  0  0
 71144  1  0  0  0
 72 75  1  0  0  0
 72145  1  0  0  0
 73 74  2  0  0  0
 73 76  1  0  0  0
 73146  1  0  0  0
 74 80  1  0  0  0
 75 76  2  0  0  0
 75 81  1  0  0  0
 76 84  1  0  0  0
 77 78  2  0  0  0
 77147  1  0  0  0
 78 79  1  0  0  0
 78 83  1  0  0  0
 79 80  1  0  0  0
 79 82  2  0  0  0
 80148  1  0  0  0
 81149  1  0  0  0
 83150  1  0  0  0
M  ISO  4   1 100  68 101  77 101  81 100
M  END
> <chiral flag>
0

> <version>
0

> <s_m_source_file>
/data/baiqing/PycharmProjects/Reinvent-master-3.2/result/LINK_invent/BTK/process_docking_weight1_custom_product_contain_oxygen_bond_distance_aromatic_linkinvent_7_9_3/rearranged_h_0089.sdf

> <i_m_source_file_index>
10

> <r_mmod_Potential_Energy-OPLS-2005>
-27.2929592132568

> <r_mmod_Stretch_Energy-OPLS-2005>
88.6991806030273

> <r_mmod_Bend_Energy-OPLS-2005>
147.536422729492

> <r_mmod_Torsional_Energy-OPLS-2005>
205.766189575195

> <r_mmod_Improper_Torsional_Energy-OPLS-2005>
3.61781811714172

> <r_mmod_Van_der_Waal_Energy-OPLS-2005>
145.098480224609

> <r_mmod_Electrostatic_Energy-OPLS-2005>
-467.958587646484

> <r_mmod_Solvation_Energy-OPLS-2005>
-211.342819213867

> <b_mmod_Minimization_Converged-OPLS-2005>
0

> <r_mmod_RMS_Derivative-OPLS-2005>
0.558009803295135

$$$$
10
                    3D
 Structure written by MMmdl.
151159  0  0  1  0            999 V2000
  -30.7206  -14.5296   20.5480 C   0  0  0  0  0  0
  -30.4113  -12.3449   19.4291 C   0  0  0  0  0  0
  -29.4878  -12.4970   18.2057 C   0  0  0  0  0  0
  -28.0121  -12.3524   18.6245 C   0  0  0  0  0  0
  -27.6478  -13.2210   19.8592 C   0  0  2  0  0  0
  -28.6949  -13.0742   20.9847 C   0  0  0  0  0  0
  -25.2527  -13.8193   20.5696 C   0  0  0  0  0  0
  -24.1807  -13.0447   20.9212 C   0  0  0  0  0  0
  -24.6388  -11.6921   20.8756 C   0  0  0  0  0  0
  -23.9063  -10.4297   21.0417 C   0  0  0  0  0  0
  -24.3615   -9.4207   21.9188 C   0  0  0  0  0  0
  -23.6293   -8.2240   22.0753 C   0  0  0  0  0  0
  -22.4274   -8.0284   21.3546 C   0  0  0  0  0  0
  -21.9912   -9.0256   20.4645 C   0  0  0  0  0  0
  -22.7239  -10.2136   20.3061 C   0  0  0  0  0  0
  -21.6848   -6.0738   22.5278 C   0  0  0  0  0  0
  -21.4010   -6.5639   23.8214 C   0  0  0  0  0  0
  -21.3659   -5.6791   24.9173 C   0  0  0  0  0  0
  -21.6046   -4.3055   24.7221 C   0  0  0  0  0  0
  -21.8819   -3.8149   23.4341 C   0  0  0  0  0  0
  -21.9195   -4.6967   22.3400 C   0  0  0  0  0  0
  -22.7829  -13.5229   21.1876 C   0  0  0  0  0  0
  -22.1662   -4.2156   21.0977 F   0  0  0  0  0  0
  -21.5632   -3.4538   25.7732 F   0  0  0  0  0  0
  -30.0096  -13.3741   20.4042 N   0  0  0  0  0  0
  -26.2959  -12.9386   20.3324 N   0  0  0  0  0  0
  -25.9313  -11.6535   20.5769 N   0  0  0  0  0  0
  -22.0472  -12.8217   22.0428 N   0  0  0  0  0  0
  -25.4214  -15.1916   20.4083 N   0  0  0  0  0  0
  -31.8992  -14.5870   20.1859 O   0  0  0  0  0  0
  -21.6638   -6.8883   21.4242 O   0  0  0  0  0  0
  -22.3512  -14.5538   20.6727 O   0  0  0  0  0  0
  -24.6209  -31.8644   23.2097 C   0  0  0  0  0  0
  -25.9095  -32.4793   23.8392 C   0  0  1  0  0  0
  -27.2217  -27.3849   20.0875 C   0  0  0  0  0  0
  -25.5950  -33.8594   24.2331 N   0  0  0  0  0  0
  -23.4097  -30.4915   21.5509 C   0  0  2  0  0  0
  -24.8525  -28.9552   20.1128 C   0  0  0  0  0  0
  -22.7430  -29.4665   22.4977 C   0  0  0  0  0  0
  -18.0275  -28.1382   22.8485 C   0  0  0  0  0  0
  -24.1488  -36.7285   23.2642 C   0  0  0  0  0  0
  -25.9461  -30.8115   21.3730 C   0  0  0  0  0  0
  -26.0201  -29.4455   20.7120 C   0  0  0  0  0  0
  -27.2093  -28.6680   20.6984 C   0  0  0  0  0  0
  -26.0243  -26.9192   19.4954 C   0  0  0  0  0  0
  -24.8513  -27.6922   19.5022 C   0  0  0  0  0  0
  -23.6194  -29.8293   20.1645 C   0  0  0  0  0  0
  -25.4112  -36.3088   24.0343 C   0  0  1  0  0  0
  -20.5864  -28.3675   23.1298 C   0  0  2  0  0  0
  -20.6765  -26.9408   22.5403 C   0  0  0  0  0  0
  -19.5745  -26.6386   21.5202 C   0  0  0  0  0  0
  -18.1921  -26.7929   22.1614 C   0  0  0  0  0  0
  -19.1525  -28.8847   23.2884 C   0  0  0  0  0  0
  -18.9452  -30.1455   23.8891 C   0  0  0  0  0  0
  -17.6452  -30.6587   24.0562 C   0  0  0  0  0  0
  -25.9044  -34.9458   23.5127 C   0  0  0  0  0  0
  -16.5343  -29.9077   23.6343 C   0  0  0  0  0  0
  -16.7262  -28.6498   23.0356 C   0  0  0  0  0  0
  -26.4513  -31.6576   25.0734 C   0  0  0  0  0  0
  -25.3786  -31.3675   26.1485 C   0  0  0  0  0  0
  -27.0372  -30.3016   24.6158 C   0  0  0  0  0  0
  -27.6079  -32.4303   25.7489 C   0  0  0  0  0  0
  -27.5576  -37.1796   24.8475 C   0  0  0  0  0  0
  -21.4153  -29.3043   22.3705 N   0  0  0  0  0  0
  -26.4294  -37.3777   23.9415 N   0  0  0  0  0  0
  -24.6770  -31.0712   22.1015 N   0  0  0  0  0  0
  -23.4176  -28.8203   23.3038 O   0  0  0  0  0  0
  -28.3428  -26.5625   20.1058 O   0  0  0  0  0  0
  -26.5575  -34.8917   22.4669 O   0  0  0  0  0  0
  -23.5394  -32.1427   23.7468 O   0  0  0  0  0  0
  -30.1796  -19.3204   21.6734 C   0  0  0  0  0  0
  -29.7680  -20.6232   21.2936 C   0  0  0  0  0  0
  -28.6785  -19.6762   19.3543 C   0  0  0  0  0  0
  -29.8802  -18.1708   20.8922 C   0  0  0  0  0  0
  -29.0373  -20.8301   20.1003 C   0  0  0  0  0  0
  -29.0870  -18.3702   19.7353 C   0  0  0  0  0  0
  -28.7243  -24.3813   18.9569 C   0  0  0  0  0  0
  -28.5286  -25.7298   19.0163 C   0  0  0  0  0  0
  -30.5877  -16.8517   21.1975 C   0  0  0  0  0  0
  -28.8437  -23.3956   20.0395 C   0  0  0  0  0  0
  -28.7282  -22.1311   19.5498 N   0  0  0  0  0  0
  -30.0265  -15.6554   20.8702 N   0  0  0  0  0  0
  -31.6804  -16.9241   21.7766 O   0  0  0  0  0  0
  -29.0245  -23.6575   21.2304 O   0  0  0  0  0  0
  -28.7545  -17.3222   18.9408 F   0  0  0  0  0  0
  -31.4552  -12.4301   19.1221 H   0  0  0  0  0  0
  -30.3126  -11.3500   19.8671 H   0  0  0  0  0  0
  -29.7358  -11.7507   17.4501 H   0  0  0  0  0  0
  -29.6460  -13.4706   17.7395 H   0  0  0  0  0  0
  -27.8367  -11.2992   18.8479 H   0  0  0  0  0  0
  -27.3567  -12.5969   17.7879 H   0  0  0  0  0  0
  -27.6677  -14.2576   19.5220 H   0  0  0  0  0  0
  -28.6881  -12.0590   21.3843 H   0  0  0  0  0  0
  -28.4632  -13.7313   21.8245 H   0  0  0  0  0  0
  -25.2757   -9.5681   22.4767 H   0  0  0  0  0  0
  -24.0007   -7.4624   22.7464 H   0  0  0  0  0  0
  -21.0851   -8.8773   19.8943 H   0  0  0  0  0  0
  -22.3701  -10.9680   19.6173 H   0  0  0  0  0  0
  -21.1995   -7.6147   23.9719 H   0  0  0  0  0  0
  -21.1482   -6.0519   25.9078 H   0  0  0  0  0  0
  -22.0600   -2.7613   23.2836 H   0  0  0  0  0  0
  -22.4092  -11.9875   22.4806 H   0  0  0  0  0  0
  -21.1089  -13.1236   22.2641 H   0  0  0  0  0  0
  -24.6467  -15.8388   20.5062 H   0  0  0  0  0  0
  -26.2586  -15.6306   20.0472 H   0  0  0  0  0  0
  -26.7151  -32.5480   23.1132 H   0  0  0  0  0  0
  -25.0197  -33.9748   25.0543 H   0  0  0  0  0  0
  -22.7015  -31.3108   21.4121 H   0  0  0  0  0  0
  -23.3764  -35.9604   23.3315 H   0  0  0  0  0  0
  -24.3580  -36.8890   22.2053 H   0  0  0  0  0  0
  -23.7227  -37.6488   23.6648 H   0  0  0  0  0  0
  -26.0759  -31.5807   20.6108 H   0  0  0  0  0  0
  -26.8263  -30.8525   22.0029 H   0  0  0  0  0  0
  -28.1095  -29.0395   21.1676 H   0  0  0  0  0  0
  -25.9776  -25.9409   19.0379 H   0  0  0  0  0  0
  -23.9510  -27.3042   19.0450 H   0  0  0  0  0  0
  -23.7333  -30.6067   19.4081 H   0  0  0  0  0  0
  -22.7405  -29.2558   19.8640 H   0  0  0  0  0  0
  -25.1288  -36.1947   25.0835 H   0  0  0  0  0  0
  -20.9941  -28.3239   24.1425 H   0  0  0  0  0  0
  -20.5679  -26.2277   23.3588 H   0  0  0  0  0  0
  -21.6632  -26.7456   22.1192 H   0  0  0  0  0  0
  -19.6910  -25.6298   21.1230 H   0  0  0  0  0  0
  -19.6691  -27.3194   20.6731 H   0  0  0  0  0  0
  -17.4188  -26.6681   21.4016 H   0  0  0  0  0  0
  -18.0328  -26.0067   22.9006 H   0  0  0  0  0  0
  -19.7928  -30.7273   24.2254 H   0  0  0  0  0  0
  -17.5007  -31.6272   24.5154 H   0  0  0  0  0  0
  -15.5345  -30.2971   23.7689 H   0  0  0  0  0  0
  -15.8659  -28.0818   22.7077 H   0  0  0  0  0  0
  -24.5971  -30.7001   25.7833 H   0  0  0  0  0  0
  -24.8969  -32.2823   26.4944 H   0  0  0  0  0  0
  -25.8160  -30.8850   27.0236 H   0  0  0  0  0  0
  -26.2937  -29.6722   24.1252 H   0  0  0  0  0  0
  -27.4178  -29.7303   25.4638 H   0  0  0  0  0  0
  -27.8755  -30.4337   23.9314 H   0  0  0  0  0  0
  -27.2708  -33.3612   26.2056 H   0  0  0  0  0  0
  -28.3886  -32.6833   25.0304 H   0  0  0  0  0  0
  -28.0747  -31.8432   26.5410 H   0  0  0  0  0  0
  -28.2599  -38.0087   24.7512 H   0  0  0  0  0  0
  -28.1068  -36.2614   24.6318 H   0  0  0  0  0  0
  -27.2286  -37.1462   25.8877 H   0  0  0  0  0  0
  -20.9317  -29.8760   21.6922 H   0  0  0  0  0  0
  -26.0185  -38.2856   24.1419 H   0  0  0  0  0  0
  -30.7998  -19.2174   22.5528 H   0  0  0  0  0  0
  -30.0787  -21.4605   21.9018 H   0  0  0  0  0  0
  -28.1177  -19.7834   18.4372 H   0  0  0  0  0  0
  -28.8155  -23.9952   17.9508 H   0  0  0  0  0  0
  -28.4823  -26.3042   18.1005 H   0  0  0  0  0  0
  -28.4376  -22.1109   18.5822 H   0  0  0  0  0  0
  -29.0312  -15.6358   20.7313 H   0  0  0  0  0  0
  1 25  1  0  0  0
  1 30  2  0  0  0
  1 82  1  0  0  0
  2  3  1  0  0  0
  2 25  1  0  0  0
  2 86  1  0  0  0
  2 87  1  0  0  0
  3  4  1  0  0  0
  3 88  1  0  0  0
  3 89  1  0  0  0
  4  5  1  0  0  0
  4 90  1  0  0  0
  4 91  1  0  0  0
  5  6  1  0  0  0
  5 26  1  0  0  0
  5 92  1  0  0  0
  6 25  1  0  0  0
  6 93  1  0  0  0
  6 94  1  0  0  0
  7  8  2  0  0  0
  7 26  1  0  0  0
  7 29  1  0  0  0
  8  9  1  0  0  0
  8 22  1  0  0  0
  9 10  1  0  0  0
  9 27  2  0  0  0
 10 11  2  0  0  0
 10 15  1  0  0  0
 11 12  1  0  0  0
 11 95  1  0  0  0
 12 13  2  0  0  0
 12 96  1  0  0  0
 13 14  1  0  0  0
 13 31  1  0  0  0
 14 15  2  0  0  0
 14 97  1  0  0  0
 15 98  1  0  0  0
 16 17  2  0  0  0
 16 21  1  0  0  0
 16 31  1  0  0  0
 17 18  1  0  0  0
 17 99  1  0  0  0
 18 19  2  0  0  0
 18100  1  0  0  0
 19 20  1  0  0  0
 19 24  1  0  0  0
 20 21  2  0  0  0
 20101  1  0  0  0
 21 23  1  0  0  0
 22 28  1  0  0  0
 22 32  2  0  0  0
 26 27  1  0  0  0
 28102  1  0  0  0
 28103  1  0  0  0
 29104  1  0  0  0
 29105  1  0  0  0
 33 34  1  0  0  0
 33 66  1  0  0  0
 33 70  2  0  0  0
 34 36  1  0  0  0
 34 59  1  0  0  0
 34106  1  0  0  0
 35 44  2  0  0  0
 35 45  1  0  0  0
 35 68  1  0  0  0
 36 56  1  0  0  0
 36107  1  0  0  0
 37 39  1  0  0  0
 37 47  1  0  0  0
 37 66  1  0  0  0
 37108  1  0  0  0
 38 43  2  0  0  0
 38 46  1  0  0  0
 38 47  1  0  0  0
 39 64  1  0  0  0
 39 67  2  0  0  0
 40 52  1  0  0  0
 40 53  2  0  0  0
 40 58  1  0  0  0
 41109  1  0  0  0
 41110  1  0  0  0
 41111  1  0  0  0
 41 48  1  0  0  0
 42 43  1  0  0  0
 42 66  1  0  0  0
 42112  1  0  0  0
 42113  1  0  0  0
 43 44  1  0  0  0
 44114  1  0  0  0
 45 46  2  0  0  0
 45115  1  0  0  0
 46116  1  0  0  0
 47117  1  0  0  0
 47118  1  0  0  0
 48 56  1  0  0  0
 48 65  1  0  0  0
 48119  1  0  0  0
 49 50  1  0  0  0
 49 53  1  0  0  0
 49 64  1  0  0  0
 49120  1  0  0  0
 50 51  1  0  0  0
 50121  1  0  0  0
 50122  1  0  0  0
 51 52  1  0  0  0
 51123  1  0  0  0
 51124  1  0  0  0
 52125  1  0  0  0
 52126  1  0  0  0
 53 54  1  0  0  0
 54 55  2  0  0  0
 54127  1  0  0  0
 55 57  1  0  0  0
 55128  1  0  0  0
 56 69  2  0  0  0
 57 58  2  0  0  0
 57129  1  0  0  0
 58130  1  0  0  0
 59 60  1  0  0  0
 59 61  1  0  0  0
 59 62  1  0  0  0
 60131  1  0  0  0
 60132  1  0  0  0
 60133  1  0  0  0
 61134  1  0  0  0
 61135  1  0  0  0
 61136  1  0  0  0
 62137  1  0  0  0
 62138  1  0  0  0
 62139  1  0  0  0
 63 65  1  0  0  0
 63140  1  0  0  0
 63141  1  0  0  0
 63142  1  0  0  0
 64143  1  0  0  0
 65144  1  0  0  0
 68 78  1  0  0  0
 71 72  2  0  0  0
 71 74  1  0  0  0
 71145  1  0  0  0
 72 75  1  0  0  0
 72146  1  0  0  0
 73 75  2  0  0  0
 73 76  1  0  0  0
 73147  1  0  0  0
 74 76  2  0  0  0
 74 79  1  0  0  0
 75 81  1  0  0  0
 76 85  1  0  0  0
 77 78  2  0  0  0
 77 80  1  0  0  0
 77148  1  0  0  0
 78149  1  0  0  0
 79 82  1  0  0  0
 79 83  2  0  0  0
 80 81  1  0  0  0
 80 84  2  0  0  0
 81150  1  0  0  0
 82151  1  0  0  0
M  ISO  4   1 100  68 101  78 101  82 100
M  END
> <chiral flag>
0

> <version>
0

> <s_m_source_file>
/data/baiqing/PycharmProjects/Reinvent-master-3.2/result/LINK_invent/BTK/process_docking_weight1_custom_product_contain_oxygen_bond_distance_aromatic_linkinvent_7_9_3/rearranged_h_0089.sdf

> <i_m_source_file_index>
11

> <r_mmod_Potential_Energy-OPLS-2005>
-38.573600769043

> <r_mmod_Stretch_Energy-OPLS-2005>
49.1217994689941

> <r_mmod_Bend_Energy-OPLS-2005>
134.142303466797

> <r_mmod_Torsional_Energy-OPLS-2005>
254.650192260742

> <r_mmod_Improper_Torsional_Energy-OPLS-2005>
7.14803647994995

> <r_mmod_Van_der_Waal_Energy-OPLS-2005>
160.832763671875

> <r_mmod_Electrostatic_Energy-OPLS-2005>
-428.130065917969

> <r_mmod_Solvation_Energy-OPLS-2005>
-245.269790649414

> <b_mmod_Minimization_Converged-OPLS-2005>
0

> <r_mmod_RMS_Derivative-OPLS-2005>
1.10808145999908

$$$$
11
                    3D
 Structure written by MMmdl.
153161  0  0  1  0            999 V2000
  -30.6830  -14.6283   20.4815 C   0  0  0  0  0  0
  -30.4140  -12.3856   19.4615 C   0  0  0  0  0  0
  -29.4986  -12.4949   18.2252 C   0  0  0  0  0  0
  -28.0229  -12.3411   18.6385 C   0  0  0  0  0  0
  -27.6440  -13.2300   19.8542 C   0  0  2  0  0  0
  -28.6888  -13.1380   20.9883 C   0  0  0  0  0  0
  -25.2513  -13.8203   20.5696 C   0  0  0  0  0  0
  -24.1801  -13.0446   20.9201 C   0  0  0  0  0  0
  -24.6392  -11.6925   20.8749 C   0  0  0  0  0  0
  -23.9070  -10.4298   21.0407 C   0  0  0  0  0  0
  -24.3621   -9.4212   21.9185 C   0  0  0  0  0  0
  -23.6298   -8.2247   22.0754 C   0  0  0  0  0  0
  -22.4280   -8.0283   21.3544 C   0  0  0  0  0  0
  -21.9916   -9.0255   20.4644 C   0  0  0  0  0  0
  -22.7244  -10.2135   20.3054 C   0  0  0  0  0  0
  -21.6855   -6.0738   22.5280 C   0  0  0  0  0  0
  -21.4014   -6.5642   23.8213 C   0  0  0  0  0  0
  -21.3660   -5.6792   24.9175 C   0  0  0  0  0  0
  -21.6044   -4.3054   24.7223 C   0  0  0  0  0  0
  -21.8820   -3.8147   23.4344 C   0  0  0  0  0  0
  -21.9192   -4.6965   22.3402 C   0  0  0  0  0  0
  -22.7821  -13.5223   21.1858 C   0  0  0  0  0  0
  -22.1662   -4.2151   21.0979 F   0  0  0  0  0  0
  -21.5628   -3.4537   25.7736 F   0  0  0  0  0  0
  -30.0000  -13.4438   20.4062 N   0  0  0  0  0  0
  -26.2946  -12.9414   20.3307 N   0  0  0  0  0  0
  -25.9323  -11.6554   20.5768 N   0  0  0  0  0  0
  -22.0469  -12.8209   22.0414 N   0  0  0  0  0  0
  -25.4201  -15.1926   20.4110 N   0  0  0  0  0  0
  -31.8687  -14.6857   20.1492 O   0  0  0  0  0  0
  -21.6643   -6.8881   21.4242 O   0  0  0  0  0  0
  -22.3502  -14.5526   20.6706 O   0  0  0  0  0  0
  -24.6246  -31.8606   23.2034 C   0  0  0  0  0  0
  -25.9101  -32.4782   23.8360 C   0  0  1  0  0  0
  -27.2179  -27.3323   20.1238 C   0  0  0  0  0  0
  -25.5926  -33.8582   24.2288 N   0  0  0  0  0  0
  -23.4178  -30.4844   21.5450 C   0  0  2  0  0  0
  -24.8654  -28.9411   20.1100 C   0  0  0  0  0  0
  -22.7464  -29.4631   22.4937 C   0  0  0  0  0  0
  -18.0282  -28.1385   22.8485 C   0  0  0  0  0  0
  -24.1490  -36.7292   23.2639 C   0  0  0  0  0  0
  -25.9574  -30.7968   21.3717 C   0  0  0  0  0  0
  -26.0332  -29.4247   20.7154 C   0  0  0  0  0  0
  -27.2173  -28.6313   20.7127 C   0  0  0  0  0  0
  -26.0361  -26.9001   19.4869 C   0  0  0  0  0  0
  -24.8676  -27.6837   19.4856 C   0  0  0  0  0  0
  -23.6323  -29.8191   20.1600 C   0  0  0  0  0  0
  -25.4112  -36.3083   24.0334 C   0  0  1  0  0  0
  -20.5881  -28.3687   23.1286 C   0  0  2  0  0  0
  -20.6771  -26.9413   22.5409 C   0  0  0  0  0  0
  -19.5750  -26.6386   21.5208 C   0  0  0  0  0  0
  -18.1930  -26.7929   22.1620 C   0  0  0  0  0  0
  -19.1533  -28.8852   23.2882 C   0  0  0  0  0  0
  -18.9458  -30.1454   23.8897 C   0  0  0  0  0  0
  -17.6459  -30.6587   24.0563 C   0  0  0  0  0  0
  -25.9049  -34.9453   23.5109 C   0  0  0  0  0  0
  -16.5349  -29.9087   23.6332 C   0  0  0  0  0  0
  -16.7269  -28.6505   23.0351 C   0  0  0  0  0  0
  -26.4495  -31.6584   25.0719 C   0  0  0  0  0  0
  -25.3740  -31.3706   26.1454 C   0  0  0  0  0  0
  -27.0336  -30.3012   24.6155 C   0  0  0  0  0  0
  -27.6055  -32.4317   25.7492 C   0  0  0  0  0  0
  -27.5580  -37.1800   24.8464 C   0  0  0  0  0  0
  -21.4178  -29.3043   22.3681 N   0  0  0  0  0  0
  -26.4288  -37.3780   23.9415 N   0  0  0  0  0  0
  -24.6852  -31.0635   22.0974 N   0  0  0  0  0  0
  -23.4195  -28.8170   23.3010 O   0  0  0  0  0  0
  -28.3091  -26.4610   20.1604 O   0  0  0  0  0  0
  -26.5610  -34.8920   22.4672 O   0  0  0  0  0  0
  -23.5415  -32.1396   23.7375 O   0  0  0  0  0  0
  -30.4341  -19.5508   19.7179 C   0  0  0  0  0  0
  -29.9695  -20.8984   19.7496 C   0  0  0  0  0  0
  -29.9164  -18.5306   20.5662 C   0  0  0  0  0  0
  -28.9487  -21.3042   20.6451 C   0  0  0  0  0  0
  -28.3908  -20.2768   21.4614 C   0  0  0  0  0  0
  -28.8646  -18.9251   21.4307 C   0  0  0  0  0  0
  -28.7500  -23.8778   20.2321 C   0  0  0  0  0  0
  -30.6573  -17.1436   20.6318 C   0  0  0  0  0  0
  -28.0512  -25.1636   20.8271 C   0  0  0  0  0  0
  -27.3567  -20.6009   22.3437 N   0  0  0  0  0  0
  -28.4739  -22.6760   20.8322 N   0  0  0  0  0  0
  -29.9959  -15.7925   20.7175 N   0  0  0  0  0  0
  -29.5018  -23.9826   19.2589 O   0  0  0  0  0  0
  -28.3193  -18.0153   22.2761 F   0  0  0  0  0  0
  -31.4601  -12.4713   19.1627 H   0  0  0  0  0  0
  -30.3185  -11.4037   19.9276 H   0  0  0  0  0  0
  -29.7622  -11.7333   17.4903 H   0  0  0  0  0  0
  -29.6479  -13.4588   17.7358 H   0  0  0  0  0  0
  -27.8599  -11.2912   18.8836 H   0  0  0  0  0  0
  -27.3684  -12.5591   17.7938 H   0  0  0  0  0  0
  -27.6486  -14.2576   19.4898 H   0  0  0  0  0  0
  -28.6960  -12.1414   21.4317 H   0  0  0  0  0  0
  -28.4446  -13.8309   21.7951 H   0  0  0  0  0  0
  -25.2766   -9.5692   22.4761 H   0  0  0  0  0  0
  -24.0006   -7.4639   22.7476 H   0  0  0  0  0  0
  -21.0847   -8.8772   19.8949 H   0  0  0  0  0  0
  -22.3701  -10.9672   19.6161 H   0  0  0  0  0  0
  -21.2008   -7.6150   23.9717 H   0  0  0  0  0  0
  -21.1481   -6.0522   25.9078 H   0  0  0  0  0  0
  -22.0596   -2.7608   23.2841 H   0  0  0  0  0  0
  -22.4083  -11.9863   22.4789 H   0  0  0  0  0  0
  -21.1088  -13.1234   22.2627 H   0  0  0  0  0  0
  -24.6547  -15.8475   20.5277 H   0  0  0  0  0  0
  -26.2735  -15.6354   20.0954 H   0  0  0  0  0  0
  -26.7170  -32.5463   23.1111 H   0  0  0  0  0  0
  -25.0094  -33.9729   25.0450 H   0  0  0  0  0  0
  -22.7111  -31.3046   21.4024 H   0  0  0  0  0  0
  -23.3755  -35.9619   23.3292 H   0  0  0  0  0  0
  -24.3588  -36.8917   22.2055 H   0  0  0  0  0  0
  -23.7236  -37.6490   23.6662 H   0  0  0  0  0  0
  -26.0853  -31.5603   20.6031 H   0  0  0  0  0  0
  -26.8394  -30.8475   21.9984 H   0  0  0  0  0  0
  -28.1134  -28.9938   21.1967 H   0  0  0  0  0  0
  -26.0089  -25.9337   19.0032 H   0  0  0  0  0  0
  -23.9737  -27.3091   19.0060 H   0  0  0  0  0  0
  -23.7502  -30.5955   19.4033 H   0  0  0  0  0  0
  -22.7531  -29.2470   19.8580 H   0  0  0  0  0  0
  -25.1291  -36.1933   25.0826 H   0  0  0  0  0  0
  -20.9974  -28.3259   24.1407 H   0  0  0  0  0  0
  -20.5671  -26.2295   23.3605 H   0  0  0  0  0  0
  -21.6640  -26.7445   22.1203 H   0  0  0  0  0  0
  -19.6912  -25.6297   21.1237 H   0  0  0  0  0  0
  -19.6691  -27.3195   20.6738 H   0  0  0  0  0  0
  -17.4199  -26.6675   21.4023 H   0  0  0  0  0  0
  -18.0333  -26.0071   22.9016 H   0  0  0  0  0  0
  -19.7934  -30.7269   24.2267 H   0  0  0  0  0  0
  -17.5016  -31.6269   24.5162 H   0  0  0  0  0  0
  -15.5351  -30.2990   23.7661 H   0  0  0  0  0  0
  -15.8666  -28.0827   22.7068 H   0  0  0  0  0  0
  -24.5923  -30.7043   25.7786 H   0  0  0  0  0  0
  -24.8921  -32.2863   26.4888 H   0  0  0  0  0  0
  -25.8082  -30.8885   27.0221 H   0  0  0  0  0  0
  -26.2900  -29.6764   24.1193 H   0  0  0  0  0  0
  -27.4058  -29.7265   25.4646 H   0  0  0  0  0  0
  -27.8760  -30.4303   23.9355 H   0  0  0  0  0  0
  -27.2667  -33.3623   26.2057 H   0  0  0  0  0  0
  -28.3875  -32.6866   25.0326 H   0  0  0  0  0  0
  -28.0713  -31.8448   26.5419 H   0  0  0  0  0  0
  -28.2583  -38.0112   24.7527 H   0  0  0  0  0  0
  -28.1091  -36.2643   24.6265 H   0  0  0  0  0  0
  -27.2304  -37.1416   25.8868 H   0  0  0  0  0  0
  -20.9348  -29.8770   21.6900 H   0  0  0  0  0  0
  -26.0166  -38.2852   24.1425 H   0  0  0  0  0  0
  -31.2521  -19.3147   19.0515 H   0  0  0  0  0  0
  -30.4398  -21.6220   19.0999 H   0  0  0  0  0  0
  -31.3291  -17.2081   21.4890 H   0  0  0  0  0  0
  -31.3174  -17.1204   19.7631 H   0  0  0  0  0  0
  -28.3901  -25.2662   21.8584 H   0  0  0  0  0  0
  -26.9853  -24.9444   20.8978 H   0  0  0  0  0  0
  -26.6008  -21.1337   21.9307 H   0  0  0  0  0  0
  -26.9800  -19.7807   22.8084 H   0  0  0  0  0  0
  -27.8312  -22.7478   21.6098 H   0  0  0  0  0  0
  -29.0138  -15.7468   20.9419 H   0  0  0  0  0  0
  1 25  1  0  0  0
  1 30  2  0  0  0
  1 82  1  0  0  0
  2  3  1  0  0  0
  2 25  1  0  0  0
  2 85  1  0  0  0
  2 86  1  0  0  0
  3  4  1  0  0  0
  3 87  1  0  0  0
  3 88  1  0  0  0
  4  5  1  0  0  0
  4 89  1  0  0  0
  4 90  1  0  0  0
  5  6  1  0  0  0
  5 26  1  0  0  0
  5 91  1  0  0  0
  6 25  1  0  0  0
  6 92  1  0  0  0
  6 93  1  0  0  0
  7  8  2  0  0  0
  7 26  1  0  0  0
  7 29  1  0  0  0
  8  9  1  0  0  0
  8 22  1  0  0  0
  9 10  1  0  0  0
  9 27  2  0  0  0
 10 11  2  0  0  0
 10 15  1  0  0  0
 11 12  1  0  0  0
 11 94  1  0  0  0
 12 13  2  0  0  0
 12 95  1  0  0  0
 13 14  1  0  0  0
 13 31  1  0  0  0
 14 15  2  0  0  0
 14 96  1  0  0  0
 15 97  1  0  0  0
 16 17  2  0  0  0
 16 21  1  0  0  0
 16 31  1  0  0  0
 17 18  1  0  0  0
 17 98  1  0  0  0
 18 19  2  0  0  0
 18 99  1  0  0  0
 19 20  1  0  0  0
 19 24  1  0  0  0
 20 21  2  0  0  0
 20100  1  0  0  0
 21 23  1  0  0  0
 22 28  1  0  0  0
 22 32  2  0  0  0
 26 27  1  0  0  0
 28101  1  0  0  0
 28102  1  0  0  0
 29103  1  0  0  0
 29104  1  0  0  0
 33 34  1  0  0  0
 33 66  1  0  0  0
 33 70  2  0  0  0
 34 36  1  0  0  0
 34 59  1  0  0  0
 34105  1  0  0  0
 35 44  2  0  0  0
 35 45  1  0  0  0
 35 68  1  0  0  0
 36 56  1  0  0  0
 36106  1  0  0  0
 37 39  1  0  0  0
 37 47  1  0  0  0
 37 66  1  0  0  0
 37107  1  0  0  0
 38 43  2  0  0  0
 38 46  1  0  0  0
 38 47  1  0  0  0
 39 64  1  0  0  0
 39 67  2  0  0  0
 40 52  1  0  0  0
 40 53  2  0  0  0
 40 58  1  0  0  0
 41108  1  0  0  0
 41109  1  0  0  0
 41110  1  0  0  0
 41 48  1  0  0  0
 42 43  1  0  0  0
 42 66  1  0  0  0
 42111  1  0  0  0
 42112  1  0  0  0
 43 44  1  0  0  0
 44113  1  0  0  0
 45 46  2  0  0  0
 45114  1  0  0  0
 46115  1  0  0  0
 47116  1  0  0  0
 47117  1  0  0  0
 48 56  1  0  0  0
 48 65  1  0  0  0
 48118  1  0  0  0
 49 50  1  0  0  0
 49 53  1  0  0  0
 49 64  1  0  0  0
 49119  1  0  0  0
 50 51  1  0  0  0
 50120  1  0  0  0
 50121  1  0  0  0
 51 52  1  0  0  0
 51122  1  0  0  0
 51123  1  0  0  0
 52124  1  0  0  0
 52125  1  0  0  0
 53 54  1  0  0  0
 54 55  2  0  0  0
 54126  1  0  0  0
 55 57  1  0  0  0
 55127  1  0  0  0
 56 69  2  0  0  0
 57 58  2  0  0  0
 57128  1  0  0  0
 58129  1  0  0  0
 59 60  1  0  0  0
 59 61  1  0  0  0
 59 62  1  0  0  0
 60130  1  0  0  0
 60131  1  0  0  0
 60132  1  0  0  0
 61133  1  0  0  0
 61134  1  0  0  0
 61135  1  0  0  0
 62136  1  0  0  0
 62137  1  0  0  0
 62138  1  0  0  0
 63 65  1  0  0  0
 63139  1  0  0  0
 63140  1  0  0  0
 63141  1  0  0  0
 64142  1  0  0  0
 65143  1  0  0  0
 68 79  1  0  0  0
 71 72  2  0  0  0
 71 73  1  0  0  0
 71144  1  0  0  0
 72 74  1  0  0  0
 72145  1  0  0  0
 73 76  2  0  0  0
 73 78  1  0  0  0
 74 75  2  0  0  0
 74 81  1  0  0  0
 75 76  1  0  0  0
 75 80  1  0  0  0
 76 84  1  0  0  0
 77 79  1  0  0  0
 77 81  1  0  0  0
 77 83  2  0  0  0
 78 82  1  0  0  0
 78146  1  0  0  0
 78147  1  0  0  0
 79148  1  0  0  0
 79149  1  0  0  0
 80150  1  0  0  0
 80151  1  0  0  0
 81152  1  0  0  0
 82153  1  0  0  0
M  ISO  4   1 100  68 101  79 101  82 100
M  END
> <chiral flag>
0

> <version>
0

> <s_m_source_file>
/data/baiqing/PycharmProjects/Reinvent-master-3.2/result/LINK_invent/BTK/process_docking_weight1_custom_product_contain_oxygen_bond_distance_aromatic_linkinvent_7_9_3/rearranged_h_0089.sdf

> <i_m_source_file_index>
12

> <r_mmod_Potential_Energy-OPLS-2005>
-29.7369537353516

> <r_mmod_Stretch_Energy-OPLS-2005>
74.556640625

> <r_mmod_Bend_Energy-OPLS-2005>
148.95881652832

> <r_mmod_Torsional_Energy-OPLS-2005>
241.398498535156

> <r_mmod_Improper_Torsional_Energy-OPLS-2005>
11.1031579971313

> <r_mmod_Van_der_Waal_Energy-OPLS-2005>
148.747543334961

> <r_mmod_Electrostatic_Energy-OPLS-2005>
-467.254333496094

> <r_mmod_Solvation_Energy-OPLS-2005>
-237.253707885742

> <b_mmod_Minimization_Converged-OPLS-2005>
0

> <r_mmod_RMS_Derivative-OPLS-2005>
0.38666158914566

$$$$
12
                    3D
 Structure written by MMmdl.
160169  0  0  1  0            999 V2000
  -30.8381  -14.4175   20.4754 C   0  0  0  0  0  0
  -30.3866  -12.2673   19.4331 C   0  0  0  0  0  0
  -29.4847  -12.4502   18.2016 C   0  0  0  0  0  0
  -28.0057  -12.3456   18.6172 C   0  0  0  0  0  0
  -27.6513  -13.2259   19.8469 C   0  0  2  0  0  0
  -28.7060  -13.1279   20.9752 C   0  0  0  0  0  0
  -25.2555  -13.8222   20.5650 C   0  0  0  0  0  0
  -24.1822  -13.0489   20.9192 C   0  0  0  0  0  0
  -24.6415  -11.6960   20.8761 C   0  0  0  0  0  0
  -23.9101  -10.4317   21.0420 C   0  0  0  0  0  0
  -24.3642   -9.4221   21.9199 C   0  0  0  0  0  0
  -23.6303   -8.2264   22.0764 C   0  0  0  0  0  0
  -22.4271   -8.0315   21.3570 C   0  0  0  0  0  0
  -21.9927   -9.0285   20.4663 C   0  0  0  0  0  0
  -22.7271  -10.2155   20.3074 C   0  0  0  0  0  0
  -21.6851   -6.0738   22.5269 C   0  0  0  0  0  0
  -21.4012   -6.5635   23.8199 C   0  0  0  0  0  0
  -21.3661   -5.6785   24.9162 C   0  0  0  0  0  0
  -21.6044   -4.3051   24.7214 C   0  0  0  0  0  0
  -21.8822   -3.8151   23.4333 C   0  0  0  0  0  0
  -21.9189   -4.6965   22.3392 C   0  0  0  0  0  0
  -22.7826  -13.5260   21.1834 C   0  0  0  0  0  0
  -22.1661   -4.2171   21.0967 F   0  0  0  0  0  0
  -21.5638   -3.4522   25.7726 F   0  0  0  0  0  0
  -30.0308  -13.3308   20.3800 N   0  0  0  0  0  0
  -26.2997  -12.9427   20.3293 N   0  0  0  0  0  0
  -25.9356  -11.6581   20.5792 N   0  0  0  0  0  0
  -22.0468  -12.8243   22.0385 N   0  0  0  0  0  0
  -25.4301  -15.1919   20.3944 N   0  0  0  0  0  0
  -32.0462  -14.3441   20.2487 O   0  0  0  0  0  0
  -21.6653   -6.8894   21.4243 O   0  0  0  0  0  0
  -22.3509  -14.5562   20.6677 O   0  0  0  0  0  0
  -24.6143  -31.8733   23.2152 C   0  0  0  0  0  0
  -25.9046  -32.4840   23.8423 C   0  0  1  0  0  0
  -27.1957  -27.4443   20.0566 C   0  0  0  0  0  0
  -25.5904  -33.8633   24.2348 N   0  0  0  0  0  0
  -23.3969  -30.5061   21.5610 C   0  0  2  0  0  0
  -24.8298  -28.9887   20.1175 C   0  0  0  0  0  0
  -22.7402  -29.4682   22.5001 C   0  0  0  0  0  0
  -18.0273  -28.1340   22.8476 C   0  0  0  0  0  0
  -24.1493  -36.7343   23.2637 C   0  0  0  0  0  0
  -25.9328  -30.8418   21.3677 C   0  0  0  0  0  0
  -26.0039  -29.4851   20.6973 C   0  0  0  0  0  0
  -27.1985  -28.7270   20.6521 C   0  0  0  0  0  0
  -25.9882  -26.9612   19.5097 C   0  0  0  0  0  0
  -24.8152  -27.7217   19.5240 C   0  0  0  0  0  0
  -23.5985  -29.8572   20.1716 C   0  0  0  0  0  0
  -25.4102  -36.3119   24.0336 C   0  0  1  0  0  0
  -20.5858  -28.3628   23.1303 C   0  0  2  0  0  0
  -20.6765  -26.9367   22.5391 C   0  0  0  0  0  0
  -19.5754  -26.6353   21.5181 C   0  0  0  0  0  0
  -18.1935  -26.7887   22.1600 C   0  0  0  0  0  0
  -19.1526  -28.8798   23.2894 C   0  0  0  0  0  0
  -18.9457  -30.1400   23.8905 C   0  0  0  0  0  0
  -17.6461  -30.6551   24.0536 C   0  0  0  0  0  0
  -25.9029  -34.9481   23.5130 C   0  0  0  0  0  0
  -16.5346  -29.9034   23.6329 C   0  0  0  0  0  0
  -16.7267  -28.6449   23.0353 C   0  0  0  0  0  0
  -26.4463  -31.6590   25.0749 C   0  0  0  0  0  0
  -25.3736  -31.3681   26.1512 C   0  0  0  0  0  0
  -27.0284  -30.3034   24.6119 C   0  0  0  0  0  0
  -27.6057  -32.4285   25.7500 C   0  0  0  0  0  0
  -27.5571  -37.1825   24.8466 C   0  0  0  0  0  0
  -21.4131  -29.3017   22.3735 N   0  0  0  0  0  0
  -26.4290  -37.3795   23.9396 N   0  0  0  0  0  0
  -24.6678  -31.0846   22.1048 N   0  0  0  0  0  0
  -23.4198  -28.8177   23.3005 O   0  0  0  0  0  0
  -28.3431  -26.6796   20.0062 O   0  0  0  0  0  0
  -26.5613  -34.8918   22.4704 O   0  0  0  0  0  0
  -23.5342  -32.1486   23.7554 O   0  0  0  0  0  0
  -30.8624  -19.3653   20.3172 C   0  0  0  0  0  0
  -30.3820  -20.6120   19.8824 C   0  0  0  0  0  0
  -28.5704  -19.4934   18.7020 C   0  0  0  0  0  0
  -30.2407  -18.1672   19.8954 C   0  0  0  0  0  0
  -29.2409  -20.6964   19.0478 C   0  0  0  0  0  0
  -29.0746  -18.2396   19.1022 C   0  0  0  0  0  0
  -28.8030  -23.0532   19.4867 C   0  0  0  0  0  0
  -28.2478  -24.2589   19.2650 C   0  0  0  0  0  0
  -28.4045  -22.1650   17.2789 C   0  0  0  0  0  0
  -30.9152  -16.8899   20.1606 C   0  0  0  0  0  0
  -27.5146  -24.4886   17.9552 C   0  0  0  0  0  0
  -28.0028  -23.5722   16.8222 C   0  0  0  0  0  0
  -28.1788  -25.3037   20.3900 C   0  0  0  0  0  0
  -28.7841  -21.9734   18.5751 N   0  0  0  0  0  0
  -30.2425  -15.7289   20.4282 N   0  0  0  0  0  0
  -32.2557  -16.9383   20.0583 N   0  3  0  0  0  0
  -28.4006  -21.2727   16.4236 O   0  0  0  0  0  0
  -28.4556  -17.1050   18.6860 F   0  0  0  0  0  0
  -31.4361  -12.2844   19.1305 H   0  0  0  0  0  0
  -30.2262  -11.2891   19.8889 H   0  0  0  0  0  0
  -29.7156  -11.6904   17.4553 H   0  0  0  0  0  0
  -29.6799  -13.4115   17.7216 H   0  0  0  0  0  0
  -27.8036  -11.2979   18.8402 H   0  0  0  0  0  0
  -27.3610  -12.6041   17.7764 H   0  0  0  0  0  0
  -27.6650  -14.2536   19.4862 H   0  0  0  0  0  0
  -28.6654  -12.1564   21.4695 H   0  0  0  0  0  0
  -28.5075  -13.8762   21.7453 H   0  0  0  0  0  0
  -25.2801   -9.5680   22.4751 H   0  0  0  0  0  0
  -24.0024   -7.4633   22.7449 H   0  0  0  0  0  0
  -21.0884   -8.8799   19.8936 H   0  0  0  0  0  0
  -22.3758  -10.9687   19.6161 H   0  0  0  0  0  0
  -21.2017   -7.6141   23.9711 H   0  0  0  0  0  0
  -21.1470   -6.0513   25.9062 H   0  0  0  0  0  0
  -22.0605   -2.7619   23.2821 H   0  0  0  0  0  0
  -22.4078  -11.9931   22.4825 H   0  0  0  0  0  0
  -21.1081  -13.1255   22.2568 H   0  0  0  0  0  0
  -24.6632  -15.8488   20.4870 H   0  0  0  0  0  0
  -26.2609  -15.6100   19.9965 H   0  0  0  0  0  0
  -26.7083  -32.5560   23.1158 H   0  0  0  0  0  0
  -24.9981  -33.9769   25.0444 H   0  0  0  0  0  0
  -22.6858  -31.3253   21.4324 H   0  0  0  0  0  0
  -23.3721  -35.9720   23.3354 H   0  0  0  0  0  0
  -24.3582  -36.8917   22.2044 H   0  0  0  0  0  0
  -23.7295  -37.6576   23.6627 H   0  0  0  0  0  0
  -26.0585  -31.6173   20.6111 H   0  0  0  0  0  0
  -26.8139  -30.8756   21.9958 H   0  0  0  0  0  0
  -28.1101  -29.1136   21.0859 H   0  0  0  0  0  0
  -25.9060  -25.9918   19.0682 H   0  0  0  0  0  0
  -23.9059  -27.3245   19.0956 H   0  0  0  0  0  0
  -23.7094  -30.6437   19.4250 H   0  0  0  0  0  0
  -22.7181  -29.2882   19.8671 H   0  0  0  0  0  0
  -25.1263  -36.1983   25.0827 H   0  0  0  0  0  0
  -20.9955  -28.3175   24.1423 H   0  0  0  0  0  0
  -20.5673  -26.2218   23.3567 H   0  0  0  0  0  0
  -21.6637  -26.7414   22.1191 H   0  0  0  0  0  0
  -19.6942  -25.6273   21.1200 H   0  0  0  0  0  0
  -19.6684  -27.3172   20.6729 H   0  0  0  0  0  0
  -17.4190  -26.6622   21.4015 H   0  0  0  0  0  0
  -18.0367  -26.0007   22.8986 H   0  0  0  0  0  0
  -19.7922  -30.7222   24.2288 H   0  0  0  0  0  0
  -17.4998  -31.6255   24.5093 H   0  0  0  0  0  0
  -15.5343  -30.2930   23.7641 H   0  0  0  0  0  0
  -15.8666  -28.0763   22.7070 H   0  0  0  0  0  0
  -24.5922  -30.7003   25.7860 H   0  0  0  0  0  0
  -24.8900  -32.2818   26.4977 H   0  0  0  0  0  0
  -25.8105  -30.8851   27.0265 H   0  0  0  0  0  0
  -26.2814  -29.6812   24.1181 H   0  0  0  0  0  0
  -27.4057  -29.7252   25.4555 H   0  0  0  0  0  0
  -27.8658  -30.4352   23.9269 H   0  0  0  0  0  0
  -27.2715  -33.3598   26.2090 H   0  0  0  0  0  0
  -28.3866  -32.6818   25.0313 H   0  0  0  0  0  0
  -28.0744  -31.8405   26.5406 H   0  0  0  0  0  0
  -28.2600  -38.0105   24.7451 H   0  0  0  0  0  0
  -28.1035  -36.2623   24.6336 H   0  0  0  0  0  0
  -27.2288  -37.1551   25.8870 H   0  0  0  0  0  0
  -20.9289  -29.8772   21.6980 H   0  0  0  0  0  0
  -26.0196  -38.2884   24.1348 H   0  0  0  0  0  0
  -31.7560  -19.3384   20.9296 H   0  0  0  0  0  0
  -30.9315  -21.4996   20.1651 H   0  0  0  0  0  0
  -27.6841  -19.5165   18.0835 H   0  0  0  0  0  0
  -29.2463  -22.8316   20.4451 H   0  0  0  0  0  0
  -27.5949  -25.5318   17.6457 H   0  0  0  0  0  0
  -26.4601  -24.2608   18.1168 H   0  0  0  0  0  0
  -27.2273  -23.4987   16.0585 H   0  0  0  0  0  0
  -28.8737  -24.0117   16.3391 H   0  0  0  0  0  0
  -27.2553  -25.1424   20.9495 H   0  0  0  0  0  0
  -28.9766  -25.0885   21.1020 H   0  0  0  0  0  0
  -29.2470  -15.8613   20.4625 H   0  0  0  0  0  0
  -32.7352  -17.7740   19.7594 H   0  0  0  0  0  0
  -32.7459  -16.0477   20.0751 H   0  0  0  0  0  0
  1 25  1  0  0  0
  1 30  2  0  0  0
  1 85  1  0  0  0
  2  3  1  0  0  0
  2 25  1  0  0  0
  2 89  1  0  0  0
  2 90  1  0  0  0
  3  4  1  0  0  0
  3 91  1  0  0  0
  3 92  1  0  0  0
  4  5  1  0  0  0
  4 93  1  0  0  0
  4 94  1  0  0  0
  5  6  1  0  0  0
  5 26  1  0  0  0
  5 95  1  0  0  0
  6 25  1  0  0  0
  6 96  1  0  0  0
  6 97  1  0  0  0
  7  8  2  0  0  0
  7 26  1  0  0  0
  7 29  1  0  0  0
  8  9  1  0  0  0
  8 22  1  0  0  0
  9 10  1  0  0  0
  9 27  2  0  0  0
 10 11  2  0  0  0
 10 15  1  0  0  0
 11 12  1  0  0  0
 11 98  1  0  0  0
 12 13  2  0  0  0
 12 99  1  0  0  0
 13 14  1  0  0  0
 13 31  1  0  0  0
 14 15  2  0  0  0
 14100  1  0  0  0
 15101  1  0  0  0
 16 17  2  0  0  0
 16 21  1  0  0  0
 16 31  1  0  0  0
 17 18  1  0  0  0
 17102  1  0  0  0
 18 19  2  0  0  0
 18103  1  0  0  0
 19 20  1  0  0  0
 19 24  1  0  0  0
 20 21  2  0  0  0
 20104  1  0  0  0
 21 23  1  0  0  0
 22 28  1  0  0  0
 22 32  2  0  0  0
 26 27  1  0  0  0
 28105  1  0  0  0
 28106  1  0  0  0
 29107  1  0  0  0
 29108  1  0  0  0
 33 34  1  0  0  0
 33 66  1  0  0  0
 33 70  2  0  0  0
 34 36  1  0  0  0
 34 59  1  0  0  0
 34109  1  0  0  0
 35 44  2  0  0  0
 35 45  1  0  0  0
 35 68  1  0  0  0
 36 56  1  0  0  0
 36110  1  0  0  0
 37 39  1  0  0  0
 37 47  1  0  0  0
 37 66  1  0  0  0
 37111  1  0  0  0
 38 43  2  0  0  0
 38 46  1  0  0  0
 38 47  1  0  0  0
 39 64  1  0  0  0
 39 67  2  0  0  0
 40 52  1  0  0  0
 40 53  2  0  0  0
 40 58  1  0  0  0
 41112  1  0  0  0
 41113  1  0  0  0
 41114  1  0  0  0
 41 48  1  0  0  0
 42 43  1  0  0  0
 42 66  1  0  0  0
 42115  1  0  0  0
 42116  1  0  0  0
 43 44  1  0  0  0
 44117  1  0  0  0
 45 46  2  0  0  0
 45118  1  0  0  0
 46119  1  0  0  0
 47120  1  0  0  0
 47121  1  0  0  0
 48 56  1  0  0  0
 48 65  1  0  0  0
 48122  1  0  0  0
 49 50  1  0  0  0
 49 53  1  0  0  0
 49 64  1  0  0  0
 49123  1  0  0  0
 50 51  1  0  0  0
 50124  1  0  0  0
 50125  1  0  0  0
 51 52  1  0  0  0
 51126  1  0  0  0
 51127  1  0  0  0
 52128  1  0  0  0
 52129  1  0  0  0
 53 54  1  0  0  0
 54 55  2  0  0  0
 54130  1  0  0  0
 55 57  1  0  0  0
 55131  1  0  0  0
 56 69  2  0  0  0
 57 58  2  0  0  0
 57132  1  0  0  0
 58133  1  0  0  0
 59 60  1  0  0  0
 59 61  1  0  0  0
 59 62  1  0  0  0
 60134  1  0  0  0
 60135  1  0  0  0
 60136  1  0  0  0
 61137  1  0  0  0
 61138  1  0  0  0
 61139  1  0  0  0
 62140  1  0  0  0
 62141  1  0  0  0
 62142  1  0  0  0
 63 65  1  0  0  0
 63143  1  0  0  0
 63144  1  0  0  0
 63145  1  0  0  0
 64146  1  0  0  0
 65147  1  0  0  0
 68 83  1  0  0  0
 71 72  2  0  0  0
 71 74  1  0  0  0
 71148  1  0  0  0
 72 75  1  0  0  0
 72149  1  0  0  0
 73 75  2  0  0  0
 73 76  1  0  0  0
 73150  1  0  0  0
 74 76  2  0  0  0
 74 80  1  0  0  0
 75 84  1  0  0  0
 76 88  1  0  0  0
 77 78  2  0  0  0
 77 84  1  0  0  0
 77151  1  0  0  0
 78 81  1  0  0  0
 78 83  1  0  0  0
 79 82  1  0  0  0
 79 84  1  0  0  0
 79 87  2  0  0  0
 80 85  1  0  0  0
 80 86  2  0  0  0
 81 82  1  0  0  0
 81152  1  0  0  0
 81153  1  0  0  0
 82154  1  0  0  0
 82155  1  0  0  0
 83156  1  0  0  0
 83157  1  0  0  0
 85158  1  0  0  0
 86159  1  0  0  0
 86160  1  0  0  0
M  CHG  1  86   1
M  ISO  4   1 100  68 101  83 101  85 100
M  END
> <chiral flag>
0

> <version>
0

> <s_m_source_file>
/data/baiqing/PycharmProjects/Reinvent-master-3.2/result/LINK_invent/BTK/process_docking_weight1_custom_product_contain_oxygen_bond_distance_aromatic_linkinvent_7_9_3/rearranged_h_0089.sdf

> <i_m_source_file_index>
13

> <r_mmod_Potential_Energy-OPLS-2005>
-97.8610382080078

> <r_mmod_Stretch_Energy-OPLS-2005>
40.7959671020508

> <r_mmod_Bend_Energy-OPLS-2005>
115.265090942383

> <r_mmod_Torsional_Energy-OPLS-2005>
270.231231689453

> <r_mmod_Improper_Torsional_Energy-OPLS-2005>
12.7272300720215

> <r_mmod_Van_der_Waal_Energy-OPLS-2005>
217.203887939453

> <r_mmod_Electrostatic_Energy-OPLS-2005>
-368.933471679688

> <r_mmod_Solvation_Energy-OPLS-2005>
-427.972564697266

> <b_mmod_Minimization_Converged-OPLS-2005>
0

> <r_mmod_RMS_Derivative-OPLS-2005>
3.93560004234314

$$$$
13
                    3D
 Structure written by MMmdl.
155164  0  0  1  0            999 V2000
  -30.7130  -14.6537   20.4965 C   0  0  0  0  0  0
  -30.4100  -12.4105   19.4598 C   0  0  0  0  0  0
  -29.4953  -12.4959   18.2231 C   0  0  0  0  0  0
  -28.0223  -12.3371   18.6413 C   0  0  0  0  0  0
  -27.6400  -13.2366   19.8481 C   0  0  2  0  0  0
  -28.6898  -13.1768   20.9800 C   0  0  0  0  0  0
  -25.2502  -13.8213   20.5716 C   0  0  0  0  0  0
  -24.1798  -13.0448   20.9213 C   0  0  0  0  0  0
  -24.6398  -11.6928   20.8755 C   0  0  0  0  0  0
  -23.9076  -10.4298   21.0406 C   0  0  0  0  0  0
  -24.3627   -9.4210   21.9182 C   0  0  0  0  0  0
  -23.6299   -8.2245   22.0752 C   0  0  0  0  0  0
  -22.4278   -8.0283   21.3542 C   0  0  0  0  0  0
  -21.9916   -9.0259   20.4643 C   0  0  0  0  0  0
  -22.7248  -10.2138   20.3053 C   0  0  0  0  0  0
  -21.6855   -6.0737   22.5276 C   0  0  0  0  0  0
  -21.4016   -6.5640   23.8211 C   0  0  0  0  0  0
  -21.3659   -5.6793   24.9173 C   0  0  0  0  0  0
  -21.6046   -4.3056   24.7224 C   0  0  0  0  0  0
  -21.8819   -3.8147   23.4344 C   0  0  0  0  0  0
  -21.9193   -4.6963   22.3401 C   0  0  0  0  0  0
  -22.7815  -13.5220   21.1867 C   0  0  0  0  0  0
  -22.1661   -4.2147   21.0978 F   0  0  0  0  0  0
  -21.5627   -3.4539   25.7736 F   0  0  0  0  0  0
  -29.9940  -13.4882   20.3850 N   0  0  0  0  0  0
  -26.2936  -12.9439   20.3308 N   0  0  0  0  0  0
  -25.9334  -11.6571   20.5776 N   0  0  0  0  0  0
  -22.0467  -12.8206   22.0423 N   0  0  0  0  0  0
  -25.4180  -15.1939   20.4151 N   0  0  0  0  0  0
  -31.9060  -14.6372   20.1851 O   0  0  0  0  0  0
  -21.6642   -6.8879   21.4238 O   0  0  0  0  0  0
  -22.3491  -14.5523   20.6711 O   0  0  0  0  0  0
  -24.6291  -31.8605   23.2064 C   0  0  0  0  0  0
  -25.9137  -32.4780   23.8373 C   0  0  1  0  0  0
  -27.2002  -27.2956   20.1091 C   0  0  0  0  0  0
  -25.5952  -33.8583   24.2294 N   0  0  0  0  0  0
  -23.4212  -30.4910   21.5509 C   0  0  2  0  0  0
  -24.8623  -28.9582   20.1077 C   0  0  0  0  0  0
  -22.7485  -29.4636   22.4932 C   0  0  0  0  0  0
  -18.0290  -28.1389   22.8482 C   0  0  0  0  0  0
  -24.1492  -36.7295   23.2632 C   0  0  0  0  0  0
  -25.9681  -30.7838   21.3835 C   0  0  0  0  0  0
  -26.0369  -29.4135   20.7196 C   0  0  0  0  0  0
  -27.2096  -28.5938   20.7158 C   0  0  0  0  0  0
  -26.0023  -26.9227   19.4511 C   0  0  0  0  0  0
  -24.8489  -27.7183   19.4640 C   0  0  0  0  0  0
  -23.6342  -29.8410   20.1617 C   0  0  0  0  0  0
  -25.4115  -36.3084   24.0324 C   0  0  1  0  0  0
  -20.5893  -28.3693   23.1275 C   0  0  2  0  0  0
  -20.6781  -26.9411   22.5407 C   0  0  0  0  0  0
  -19.5756  -26.6386   21.5209 C   0  0  0  0  0  0
  -18.1935  -26.7933   22.1620 C   0  0  0  0  0  0
  -19.1542  -28.8858   23.2874 C   0  0  0  0  0  0
  -18.9464  -30.1461   23.8889 C   0  0  0  0  0  0
  -17.6463  -30.6588   24.0565 C   0  0  0  0  0  0
  -25.9053  -34.9453   23.5103 C   0  0  0  0  0  0
  -16.5354  -29.9083   23.6336 C   0  0  0  0  0  0
  -16.7276  -28.6505   23.0349 C   0  0  0  0  0  0
  -26.4514  -31.6586   25.0741 C   0  0  0  0  0  0
  -25.3743  -31.3731   26.1467 C   0  0  0  0  0  0
  -27.0348  -30.3003   24.6206 C   0  0  0  0  0  0
  -27.6076  -32.4319   25.7506 C   0  0  0  0  0  0
  -27.5582  -37.1795   24.8459 C   0  0  0  0  0  0
  -21.4197  -29.3049   22.3671 N   0  0  0  0  0  0
  -26.4291  -37.3777   23.9412 N   0  0  0  0  0  0
  -24.6922  -31.0608   22.1032 N   0  0  0  0  0  0
  -23.4205  -28.8147   23.2991 O   0  0  0  0  0  0
  -28.2773  -26.3841   20.1865 O   0  0  0  0  0  0
  -26.5610  -34.8918   22.4664 O   0  0  0  0  0  0
  -23.5453  -32.1409   23.7385 O   0  0  0  0  0  0
  -28.6625  -20.4846   21.1636 C   0  0  0  0  0  0
  -30.2811  -20.6268   19.4026 C   0  0  0  0  0  0
  -30.0273  -18.4547   20.6125 C   0  0  0  0  0  0
  -29.2875  -21.2931   20.1673 C   0  0  0  0  0  0
  -29.0117  -19.1070   21.3927 C   0  0  0  0  0  0
  -30.6372  -19.2666   19.6132 C   0  0  0  0  0  0
  -28.5089  -23.0302   18.5843 C   0  0  0  0  0  0
  -28.7471  -23.7805   20.6421 C   0  0  0  0  0  0
  -30.6732  -17.0758   20.9116 C   0  0  0  0  0  0
  -28.0826  -24.4926   18.4697 C   0  0  0  0  0  0
  -27.9611  -24.9401   19.9283 C   0  0  2  0  0  0
  -28.8751  -22.6790   19.8352 N   0  0  0  0  0  0
  -28.3321  -18.4521   22.4276 N   0  0  0  0  0  0
  -30.0576  -15.8542   20.7057 N   0  0  0  0  0  0
  -28.4898  -22.2816   17.5992 O   0  0  0  0  0  0
  -29.1588  -23.8682   21.8059 O   0  0  0  0  0  0
  -31.8277  -17.1386   21.3568 O   0  0  0  0  0  0
  -31.6129  -18.7467   18.8265 F   0  0  0  0  0  0
  -31.4542  -12.4872   19.1528 H   0  0  0  0  0  0
  -30.3161  -11.4369   19.9433 H   0  0  0  0  0  0
  -29.7637  -11.7244   17.4998 H   0  0  0  0  0  0
  -29.6386  -13.4536   17.7199 H   0  0  0  0  0  0
  -27.8680  -11.2887   18.8987 H   0  0  0  0  0  0
  -27.3651  -12.5403   17.7947 H   0  0  0  0  0  0
  -27.6338  -14.2586   19.4688 H   0  0  0  0  0  0
  -28.7083  -12.1893   21.4433 H   0  0  0  0  0  0
  -28.4421  -13.8851   21.7726 H   0  0  0  0  0  0
  -25.2771   -9.5685   22.4759 H   0  0  0  0  0  0
  -24.0005   -7.4636   22.7475 H   0  0  0  0  0  0
  -21.0845   -8.8782   19.8951 H   0  0  0  0  0  0
  -22.3706  -10.9678   19.6164 H   0  0  0  0  0  0
  -21.2011   -7.6148   23.9713 H   0  0  0  0  0  0
  -21.1481   -6.0523   25.9077 H   0  0  0  0  0  0
  -22.0599   -2.7607   23.2847 H   0  0  0  0  0  0
  -22.4092  -11.9873   22.4817 H   0  0  0  0  0  0
  -21.1081  -13.1221   22.2631 H   0  0  0  0  0  0
  -24.6562  -15.8502   20.5457 H   0  0  0  0  0  0
  -26.2748  -15.6410   20.1163 H   0  0  0  0  0  0
  -26.7197  -32.5439   23.1111 H   0  0  0  0  0  0
  -25.0117  -33.9725   25.0453 H   0  0  0  0  0  0
  -22.7164  -31.3142   21.4163 H   0  0  0  0  0  0
  -23.3753  -35.9624   23.3284 H   0  0  0  0  0  0
  -24.3588  -36.8928   22.2049 H   0  0  0  0  0  0
  -23.7236  -37.6492   23.6664 H   0  0  0  0  0  0
  -26.1061  -31.5482   20.6177 H   0  0  0  0  0  0
  -26.8473  -30.8266   22.0142 H   0  0  0  0  0  0
  -28.1043  -28.9333   21.2192 H   0  0  0  0  0  0
  -25.8950  -25.9908   18.9246 H   0  0  0  0  0  0
  -23.9516  -27.3686   18.9716 H   0  0  0  0  0  0
  -23.7562  -30.6255   19.4139 H   0  0  0  0  0  0
  -22.7516  -29.2774   19.8537 H   0  0  0  0  0  0
  -25.1287  -36.1935   25.0815 H   0  0  0  0  0  0
  -20.9989  -28.3273   24.1394 H   0  0  0  0  0  0
  -20.5694  -26.2295   23.3607 H   0  0  0  0  0  0
  -21.6649  -26.7449   22.1192 H   0  0  0  0  0  0
  -19.6918  -25.6298   21.1237 H   0  0  0  0  0  0
  -19.6698  -27.3199   20.6743 H   0  0  0  0  0  0
  -17.4204  -26.6681   21.4023 H   0  0  0  0  0  0
  -18.0331  -26.0076   22.9017 H   0  0  0  0  0  0
  -19.7938  -30.7283   24.2251 H   0  0  0  0  0  0
  -17.5014  -31.6267   24.5170 H   0  0  0  0  0  0
  -15.5353  -30.2982   23.7669 H   0  0  0  0  0  0
  -15.8676  -28.0829   22.7060 H   0  0  0  0  0  0
  -24.5950  -30.7033   25.7812 H   0  0  0  0  0  0
  -24.8898  -32.2895   26.4845 H   0  0  0  0  0  0
  -25.8080  -30.8964   27.0268 H   0  0  0  0  0  0
  -26.2923  -29.6753   24.1231 H   0  0  0  0  0  0
  -27.4033  -29.7257   25.4715 H   0  0  0  0  0  0
  -27.8807  -30.4270   23.9443 H   0  0  0  0  0  0
  -27.2697  -33.3629   26.2067 H   0  0  0  0  0  0
  -28.3897  -32.6855   25.0338 H   0  0  0  0  0  0
  -28.0731  -31.8449   26.5432 H   0  0  0  0  0  0
  -28.2588  -38.0106   24.7530 H   0  0  0  0  0  0
  -28.1094  -36.2638   24.6259 H   0  0  0  0  0  0
  -27.2306  -37.1411   25.8863 H   0  0  0  0  0  0
  -20.9363  -29.8791   21.6903 H   0  0  0  0  0  0
  -26.0172  -38.2846   24.1441 H   0  0  0  0  0  0
  -27.8834  -20.9330   21.7655 H   0  0  0  0  0  0
  -30.7919  -21.1615   18.6142 H   0  0  0  0  0  0
  -27.1519  -24.5679   17.9104 H   0  0  0  0  0  0
  -28.8544  -25.0529   17.9431 H   0  0  0  0  0  0
  -26.9544  -24.7319   20.2936 H   0  0  0  0  0  0
  -27.7633  -19.0051   23.0626 H   0  0  0  0  0  0
  -28.7458  -17.6489   22.8895 H   0  0  0  0  0  0
  -29.0561  -15.8592   20.6133 H   0  0  0  0  0  0
  1 25  1  0  0  0
  1 30  2  0  0  0
  1 84  1  0  0  0
  2  3  1  0  0  0
  2 25  1  0  0  0
  2 89  1  0  0  0
  2 90  1  0  0  0
  3  4  1  0  0  0
  3 91  1  0  0  0
  3 92  1  0  0  0
  4  5  1  0  0  0
  4 93  1  0  0  0
  4 94  1  0  0  0
  5  6  1  0  0  0
  5 26  1  0  0  0
  5 95  1  0  0  0
  6 25  1  0  0  0
  6 96  1  0  0  0
  6 97  1  0  0  0
  7  8  2  0  0  0
  7 26  1  0  0  0
  7 29  1  0  0  0
  8  9  1  0  0  0
  8 22  1  0  0  0
  9 10  1  0  0  0
  9 27  2  0  0  0
 10 11  2  0  0  0
 10 15  1  0  0  0
 11 12  1  0  0  0
 11 98  1  0  0  0
 12 13  2  0  0  0
 12 99  1  0  0  0
 13 14  1  0  0  0
 13 31  1  0  0  0
 14 15  2  0  0  0
 14100  1  0  0  0
 15101  1  0  0  0
 16 17  2  0  0  0
 16 21  1  0  0  0
 16 31  1  0  0  0
 17 18  1  0  0  0
 17102  1  0  0  0
 18 19  2  0  0  0
 18103  1  0  0  0
 19 20  1  0  0  0
 19 24  1  0  0  0
 20 21  2  0  0  0
 20104  1  0  0  0
 21 23  1  0  0  0
 22 28  1  0  0  0
 22 32  2  0  0  0
 26 27  1  0  0  0
 28105  1  0  0  0
 28106  1  0  0  0
 29107  1  0  0  0
 29108  1  0  0  0
 33 34  1  0  0  0
 33 66  1  0  0  0
 33 70  2  0  0  0
 34 36  1  0  0  0
 34 59  1  0  0  0
 34109  1  0  0  0
 35 44  2  0  0  0
 35 45  1  0  0  0
 35 68  1  0  0  0
 36 56  1  0  0  0
 36110  1  0  0  0
 37 39  1  0  0  0
 37 47  1  0  0  0
 37 66  1  0  0  0
 37111  1  0  0  0
 38 43  2  0  0  0
 38 46  1  0  0  0
 38 47  1  0  0  0
 39 64  1  0  0  0
 39 67  2  0  0  0
 40 52  1  0  0  0
 40 53  2  0  0  0
 40 58  1  0  0  0
 41112  1  0  0  0
 41113  1  0  0  0
 41114  1  0  0  0
 41 48  1  0  0  0
 42 43  1  0  0  0
 42 66  1  0  0  0
 42115  1  0  0  0
 42116  1  0  0  0
 43 44  1  0  0  0
 44117  1  0  0  0
 45 46  2  0  0  0
 45118  1  0  0  0
 46119  1  0  0  0
 47120  1  0  0  0
 47121  1  0  0  0
 48 56  1  0  0  0
 48 65  1  0  0  0
 48122  1  0  0  0
 49 50  1  0  0  0
 49 53  1  0  0  0
 49 64  1  0  0  0
 49123  1  0  0  0
 50 51  1  0  0  0
 50124  1  0  0  0
 50125  1  0  0  0
 51 52  1  0  0  0
 51126  1  0  0  0
 51127  1  0  0  0
 52128  1  0  0  0
 52129  1  0  0  0
 53 54  1  0  0  0
 54 55  2  0  0  0
 54130  1  0  0  0
 55 57  1  0  0  0
 55131  1  0  0  0
 56 69  2  0  0  0
 57 58  2  0  0  0
 57132  1  0  0  0
 58133  1  0  0  0
 59 60  1  0  0  0
 59 61  1  0  0  0
 59 62  1  0  0  0
 60134  1  0  0  0
 60135  1  0  0  0
 60136  1  0  0  0
 61137  1  0  0  0
 61138  1  0  0  0
 61139  1  0  0  0
 62140  1  0  0  0
 62141  1  0  0  0
 62142  1  0  0  0
 63 65  1  0  0  0
 63143  1  0  0  0
 63144  1  0  0  0
 63145  1  0  0  0
 64146  1  0  0  0
 65147  1  0  0  0
 68 81  1  0  0  0
 71 74  2  0  0  0
 71 75  1  0  0  0
 71148  1  0  0  0
 72 74  1  0  0  0
 72 76  2  0  0  0
 72149  1  0  0  0
 73 75  2  0  0  0
 73 76  1  0  0  0
 73 79  1  0  0  0
 74 82  1  0  0  0
 75 83  1  0  0  0
 76 88  1  0  0  0
 77 80  1  0  0  0
 77 82  1  0  0  0
 77 85  2  0  0  0
 78 81  1  0  0  0
 78 82  1  0  0  0
 78 86  2  0  0  0
 79 84  1  0  0  0
 79 87  2  0  0  0
 80 81  1  0  0  0
 80150  1  0  0  0
 80151  1  0  0  0
 81152  1  0  0  0
 83153  1  0  0  0
 83154  1  0  0  0
 84155  1  0  0  0
M  ISO  4   1 100  68 101  81 101  84 100
M  END
> <chiral flag>
0

> <version>
0

> <s_m_source_file>
/data/baiqing/PycharmProjects/Reinvent-master-3.2/result/LINK_invent/BTK/process_docking_weight1_custom_product_contain_oxygen_bond_distance_aromatic_linkinvent_7_9_3/rearranged_h_0089.sdf

> <i_m_source_file_index>
14

> <r_mmod_Potential_Energy-OPLS-2005>
299.416809082031

> <r_mmod_Stretch_Energy-OPLS-2005>
94.1972122192383

> <r_mmod_Bend_Energy-OPLS-2005>
201.431198120117

> <r_mmod_Torsional_Energy-OPLS-2005>
300.703826904297

> <r_mmod_Improper_Torsional_Energy-OPLS-2005>
10.0697002410889

> <r_mmod_Van_der_Waal_Energy-OPLS-2005>
157.755447387695

> <r_mmod_Electrostatic_Energy-OPLS-2005>
-262.628936767578

> <r_mmod_Solvation_Energy-OPLS-2005>
-270.378814697266

> <b_mmod_Minimization_Converged-OPLS-2005>
0

> <r_mmod_RMS_Derivative-OPLS-2005>
0.662525057792664

$$$$
14
                    3D
 Structure written by MMmdl.
164173  0  0  1  0            999 V2000
  -30.6377  -14.7542   20.5350 C   0  0  0  0  0  0
  -30.4363  -12.4914   19.4505 C   0  0  0  0  0  0
  -29.5006  -12.5175   18.2217 C   0  0  0  0  0  0
  -28.0392  -12.3081   18.6527 C   0  0  0  0  0  0
  -27.6448  -13.2189   19.8414 C   0  0  2  0  0  0
  -28.6841  -13.1415   20.9735 C   0  0  0  0  0  0
  -25.2560  -13.8167   20.5658 C   0  0  0  0  0  0
  -24.1831  -13.0444   20.9165 C   0  0  0  0  0  0
  -24.6396  -11.6905   20.8747 C   0  0  0  0  0  0
  -23.9065  -10.4281   21.0416 C   0  0  0  0  0  0
  -24.3618   -9.4195   21.9189 C   0  0  0  0  0  0
  -23.6280   -8.2239   22.0773 C   0  0  0  0  0  0
  -22.4259   -8.0281   21.3552 C   0  0  0  0  0  0
  -21.9896   -9.0258   20.4656 C   0  0  0  0  0  0
  -22.7241  -10.2125   20.3066 C   0  0  0  0  0  0
  -21.6836   -6.0733   22.5287 C   0  0  0  0  0  0
  -21.4003   -6.5648   23.8220 C   0  0  0  0  0  0
  -21.3660   -5.6805   24.9183 C   0  0  0  0  0  0
  -21.6041   -4.3070   24.7244 C   0  0  0  0  0  0
  -21.8826   -3.8150   23.4371 C   0  0  0  0  0  0
  -21.9178   -4.6963   22.3419 C   0  0  0  0  0  0
  -22.7863  -13.5266   21.1801 C   0  0  0  0  0  0
  -22.1662   -4.2147   21.1000 F   0  0  0  0  0  0
  -21.5606   -3.4559   25.7763 F   0  0  0  0  0  0
  -29.9862  -13.5352   20.4093 N   0  0  0  0  0  0
  -26.2964  -12.9350   20.3223 N   0  0  0  0  0  0
  -25.9326  -11.6514   20.5732 N   0  0  0  0  0  0
  -22.0497  -12.8265   22.0366 N   0  0  0  0  0  0
  -25.4290  -15.1891   20.4122 N   0  0  0  0  0  0
  -31.7813  -14.8474   20.0798 O   0  0  0  0  0  0
  -21.6621   -6.8879   21.4254 O   0  0  0  0  0  0
  -22.3555  -14.5583   20.6664 O   0  0  0  0  0  0
  -24.6321  -31.8543   23.1964 C   0  0  0  0  0  0
  -25.9135  -32.4750   23.8332 C   0  0  1  0  0  0
  -27.2275  -27.2485   20.1246 C   0  0  0  0  0  0
  -25.5921  -33.8551   24.2229 N   0  0  0  0  0  0
  -23.4300  -30.4754   21.5394 C   0  0  2  0  0  0
  -24.8816  -28.9170   20.1069 C   0  0  0  0  0  0
  -22.7521  -29.4595   22.4908 C   0  0  0  0  0  0
  -18.0297  -28.1405   22.8484 C   0  0  0  0  0  0
  -24.1485  -36.7278   23.2644 C   0  0  0  0  0  0
  -25.9792  -30.7594   21.3832 C   0  0  0  0  0  0
  -26.0525  -29.3835   20.7182 C   0  0  0  0  0  0
  -27.2257  -28.5586   20.7197 C   0  0  0  0  0  0
  -26.0332  -26.8535   19.4819 C   0  0  0  0  0  0
  -24.8779  -27.6615   19.4794 C   0  0  0  0  0  0
  -23.6516  -29.8065   20.1571 C   0  0  0  0  0  0
  -25.4111  -36.3070   24.0326 C   0  0  1  0  0  0
  -20.5906  -28.3712   23.1263 C   0  0  2  0  0  0
  -20.6781  -26.9418   22.5421 C   0  0  0  0  0  0
  -19.5758  -26.6389   21.5226 C   0  0  0  0  0  0
  -18.1937  -26.7942   22.1630 C   0  0  0  0  0  0
  -19.1544  -28.8870   23.2869 C   0  0  0  0  0  0
  -18.9467  -30.1467   23.8889 C   0  0  0  0  0  0
  -17.6468  -30.6605   24.0559 C   0  0  0  0  0  0
  -25.9053  -34.9442   23.5086 C   0  0  0  0  0  0
  -16.5361  -29.9100   23.6339 C   0  0  0  0  0  0
  -16.7280  -28.6520   23.0357 C   0  0  0  0  0  0
  -26.4477  -31.6595   25.0750 C   0  0  0  0  0  0
  -25.3675  -31.3811   26.1472 C   0  0  0  0  0  0
  -27.0311  -30.2988   24.6291 C   0  0  0  0  0  0
  -27.6035  -32.4353   25.7505 C   0  0  0  0  0  0
  -27.5578  -37.1797   24.8464 C   0  0  0  0  0  0
  -21.4224  -29.3051   22.3649 N   0  0  0  0  0  0
  -26.4289  -37.3763   23.9418 N   0  0  0  0  0  0
  -24.6989  -31.0490   22.0954 N   0  0  0  0  0  0
  -23.4204  -28.8157   23.3025 O   0  0  0  0  0  0
  -28.2941  -26.3244   20.2580 O   0  0  0  0  0  0
  -26.5641  -34.8923   22.4669 O   0  0  0  0  0  0
  -23.5472  -32.1370   23.7258 O   0  0  0  0  0  0
  -29.9851  -19.4349   19.5045 C   0  0  0  0  0  0
  -28.9616  -18.1173   21.6615 C   0  0  0  0  0  0
  -30.3058  -18.0350   19.7221 C   0  0  0  0  0  0
  -29.2024  -20.2786   20.3587 C   0  0  0  0  0  0
  -29.7734  -17.2812   20.8240 C   0  0  0  0  0  0
  -28.7101  -19.5179   21.4603 C   0  0  0  0  0  0
  -28.5926  -23.7742   19.8698 C   0  0  0  0  0  0
  -28.8012  -22.6118   19.0018 C   0  0  0  0  0  0
  -28.3745  -25.1109   19.5131 C   0  0  0  0  0  0
  -32.4668  -17.7075   18.9828 C   0  0  0  0  0  0
  -33.1420  -18.5339   20.0728 C   0  0  0  0  0  0
  -28.7574  -22.8308   21.0979 C   0  0  0  0  0  0
  -33.4292  -17.1014   17.9839 C   0  0  0  0  0  0
  -33.6546  -19.9118   19.6727 C   0  0  0  0  0  0
  -29.9612  -15.5842   22.6601 C   0  0  0  0  0  0
  -31.2164  -17.4559   18.8399 N   0  0  0  0  0  0
  -28.9229  -21.7306   20.0988 N   0  0  0  0  0  0
  -30.0264  -15.8277   21.2061 N   0  0  0  0  0  0
  -28.8569  -22.5205   17.7933 O   0  0  0  0  0  0
  -33.2292  -18.1580   21.2456 O   0  0  0  0  0  0
  -27.9326  -20.1506   22.3719 F   0  0  0  0  0  0
  -31.4683  -12.6390   19.1262 H   0  0  0  0  0  0
  -30.4154  -11.5091   19.9237 H   0  0  0  0  0  0
  -29.7889  -11.7413   17.5103 H   0  0  0  0  0  0
  -29.5940  -13.4681   17.6935 H   0  0  0  0  0  0
  -27.9351  -11.2619   18.9446 H   0  0  0  0  0  0
  -27.3629  -12.4550   17.8103 H   0  0  0  0  0  0
  -27.6476  -14.2422   19.4621 H   0  0  0  0  0  0
  -28.7369  -12.1328   21.3876 H   0  0  0  0  0  0
  -28.3690  -13.7802   21.7923 H   0  0  0  0  0  0
  -25.2799   -9.5651   22.4709 H   0  0  0  0  0  0
  -23.9971   -7.4661   22.7538 H   0  0  0  0  0  0
  -21.0799   -8.8821   19.8991 H   0  0  0  0  0  0
  -22.3755  -10.9658   19.6147 H   0  0  0  0  0  0
  -21.2016   -7.6157   23.9736 H   0  0  0  0  0  0
  -21.1455   -6.0525   25.9080 H   0  0  0  0  0  0
  -22.0590   -2.7609   23.2891 H   0  0  0  0  0  0
  -22.4150  -11.9961   22.4796 H   0  0  0  0  0  0
  -21.1141  -13.1306   22.2618 H   0  0  0  0  0  0
  -24.6637  -15.8437   20.5260 H   0  0  0  0  0  0
  -26.2908  -15.6301   20.1153 H   0  0  0  0  0  0
  -26.7212  -32.5380   23.1085 H   0  0  0  0  0  0
  -25.0053  -33.9670   25.0365 H   0  0  0  0  0  0
  -22.7270  -31.2978   21.3890 H   0  0  0  0  0  0
  -23.3750  -35.9608   23.3307 H   0  0  0  0  0  0
  -24.3573  -36.8901   22.2058 H   0  0  0  0  0  0
  -23.7230  -37.6480   23.6661 H   0  0  0  0  0  0
  -26.1308  -31.5213   20.6188 H   0  0  0  0  0  0
  -26.8532  -30.8012   22.0225 H   0  0  0  0  0  0
  -28.1163  -28.8996   21.2300 H   0  0  0  0  0  0
  -25.9596  -25.8804   19.0199 H   0  0  0  0  0  0
  -23.9793  -27.2921   19.0068 H   0  0  0  0  0  0
  -23.7844  -30.5816   19.4031 H   0  0  0  0  0  0
  -22.7692  -29.2449   19.8464 H   0  0  0  0  0  0
  -25.1286  -36.1921   25.0815 H   0  0  0  0  0  0
  -20.9975  -28.3311   24.1391 H   0  0  0  0  0  0
  -20.5687  -26.2327   23.3636 H   0  0  0  0  0  0
  -21.6648  -26.7464   22.1199 H   0  0  0  0  0  0
  -19.6917  -25.6291   21.1270 H   0  0  0  0  0  0
  -19.6696  -27.3189   20.6741 H   0  0  0  0  0  0
  -17.4204  -26.6693   21.4037 H   0  0  0  0  0  0
  -18.0328  -26.0088   22.9027 H   0  0  0  0  0  0
  -19.7941  -30.7284   24.2269 H   0  0  0  0  0  0
  -17.5025  -31.6276   24.5167 H   0  0  0  0  0  0
  -15.5358  -30.3004   23.7663 H   0  0  0  0  0  0
  -15.8680  -28.0835   22.7088 H   0  0  0  0  0  0
  -24.5831  -30.7161   25.7841 H   0  0  0  0  0  0
  -24.8879  -32.3006   26.4847 H   0  0  0  0  0  0
  -25.7970  -30.9046   27.0293 H   0  0  0  0  0  0
  -26.2913  -29.6757   24.1256 H   0  0  0  0  0  0
  -27.3882  -29.7259   25.4864 H   0  0  0  0  0  0
  -27.8841  -30.4234   23.9615 H   0  0  0  0  0  0
  -27.2626  -33.3648   26.2080 H   0  0  0  0  0  0
  -28.3825  -32.6934   25.0317 H   0  0  0  0  0  0
  -28.0716  -31.8488   26.5422 H   0  0  0  0  0  0
  -28.2611  -38.0081   24.7496 H   0  0  0  0  0  0
  -28.1062  -36.2618   24.6296 H   0  0  0  0  0  0
  -27.2305  -37.1443   25.8872 H   0  0  0  0  0  0
  -20.9441  -29.8749   21.6815 H   0  0  0  0  0  0
  -26.0174  -38.2848   24.1410 H   0  0  0  0  0  0
  -30.4231  -19.9106   18.6395 H   0  0  0  0  0  0
  -28.4893  -17.6976   22.5359 H   0  0  0  0  0  0
  -28.3394  -25.3524   18.4595 H   0  0  0  0  0  0
  -27.8862  -22.6660   21.7336 H   0  0  0  0  0  0
  -29.6499  -22.9657   21.7133 H   0  0  0  0  0  0
  -33.3803  -17.6433   17.0393 H   0  0  0  0  0  0
  -33.1712  -16.0581   17.7998 H   0  0  0  0  0  0
  -34.4549  -17.1199   18.3537 H   0  0  0  0  0  0
  -34.6967  -20.0352   19.9640 H   0  0  0  0  0  0
  -33.0627  -20.6838   20.1648 H   0  0  0  0  0  0
  -33.5782  -20.0581   18.5956 H   0  0  0  0  0  0
  -28.9359  -15.6360   23.0232 H   0  0  0  0  0  0
  -30.5500  -16.3301   23.1951 H   0  0  0  0  0  0
  -30.3562  -14.6150   22.9766 H   0  0  0  0  0  0
  1 25  1  0  0  0
  1 30  2  0  0  0
  1 88  1  0  0  0
  2  3  1  0  0  0
  2 25  1  0  0  0
  2 92  1  0  0  0
  2 93  1  0  0  0
  3  4  1  0  0  0
  3 94  1  0  0  0
  3 95  1  0  0  0
  4  5  1  0  0  0
  4 96  1  0  0  0
  4 97  1  0  0  0
  5  6  1  0  0  0
  5 26  1  0  0  0
  5 98  1  0  0  0
  6 25  1  0  0  0
  6 99  1  0  0  0
  6100  1  0  0  0
  7  8  2  0  0  0
  7 26  1  0  0  0
  7 29  1  0  0  0
  8  9  1  0  0  0
  8 22  1  0  0  0
  9 10  1  0  0  0
  9 27  2  0  0  0
 10 11  2  0  0  0
 10 15  1  0  0  0
 11 12  1  0  0  0
 11101  1  0  0  0
 12 13  2  0  0  0
 12102  1  0  0  0
 13 14  1  0  0  0
 13 31  1  0  0  0
 14 15  2  0  0  0
 14103  1  0  0  0
 15104  1  0  0  0
 16 17  2  0  0  0
 16 21  1  0  0  0
 16 31  1  0  0  0
 17 18  1  0  0  0
 17105  1  0  0  0
 18 19  2  0  0  0
 18106  1  0  0  0
 19 20  1  0  0  0
 19 24  1  0  0  0
 20 21  2  0  0  0
 20107  1  0  0  0
 21 23  1  0  0  0
 22 28  1  0  0  0
 22 32  2  0  0  0
 26 27  1  0  0  0
 28108  1  0  0  0
 28109  1  0  0  0
 29110  1  0  0  0
 29111  1  0  0  0
 33 34  1  0  0  0
 33 66  1  0  0  0
 33 70  2  0  0  0
 34 36  1  0  0  0
 34 59  1  0  0  0
 34112  1  0  0  0
 35 44  2  0  0  0
 35 45  1  0  0  0
 35 68  1  0  0  0
 36 56  1  0  0  0
 36113  1  0  0  0
 37 39  1  0  0  0
 37 47  1  0  0  0
 37 66  1  0  0  0
 37114  1  0  0  0
 38 43  2  0  0  0
 38 46  1  0  0  0
 38 47  1  0  0  0
 39 64  1  0  0  0
 39 67  2  0  0  0
 40 52  1  0  0  0
 40 53  2  0  0  0
 40 58  1  0  0  0
 41115  1  0  0  0
 41116  1  0  0  0
 41117  1  0  0  0
 41 48  1  0  0  0
 42 43  1  0  0  0
 42 66  1  0  0  0
 42118  1  0  0  0
 42119  1  0  0  0
 43 44  1  0  0  0
 44120  1  0  0  0
 45 46  2  0  0  0
 45121  1  0  0  0
 46122  1  0  0  0
 47123  1  0  0  0
 47124  1  0  0  0
 48 56  1  0  0  0
 48 65  1  0  0  0
 48125  1  0  0  0
 49 50  1  0  0  0
 49 53  1  0  0  0
 49 64  1  0  0  0
 49126  1  0  0  0
 50 51  1  0  0  0
 50127  1  0  0  0
 50128  1  0  0  0
 51 52  1  0  0  0
 51129  1  0  0  0
 51130  1  0  0  0
 52131  1  0  0  0
 52132  1  0  0  0
 53 54  1  0  0  0
 54 55  2  0  0  0
 54133  1  0  0  0
 55 57  1  0  0  0
 55134  1  0  0  0
 56 69  2  0  0  0
 57 58  2  0  0  0
 57135  1  0  0  0
 58136  1  0  0  0
 59 60  1  0  0  0
 59 61  1  0  0  0
 59 62  1  0  0  0
 60137  1  0  0  0
 60138  1  0  0  0
 60139  1  0  0  0
 61140  1  0  0  0
 61141  1  0  0  0
 61142  1  0  0  0
 62143  1  0  0  0
 62144  1  0  0  0
 62145  1  0  0  0
 63 65  1  0  0  0
 63146  1  0  0  0
 63147  1  0  0  0
 63148  1  0  0  0
 64149  1  0  0  0
 65150  1  0  0  0
 68 79  1  0  0  0
 71 73  2  0  0  0
 71 74  1  0  0  0
 71151  1  0  0  0
 72 75  2  0  0  0
 72 76  1  0  0  0
 72152  1  0  0  0
 73 75  1  0  0  0
 73 86  1  0  0  0
 74 76  2  0  0  0
 74 87  1  0  0  0
 75 88  1  0  0  0
 76 91  1  0  0  0
 77 78  1  0  0  0
 77 79  2  0  0  0
 77 82  1  0  0  0
 78 87  1  0  0  0
 78 89  2  0  0  0
 79153  1  0  0  0
 80 81  1  0  0  0
 80 83  1  0  0  0
 80 86  2  0  0  0
 81 84  1  0  0  0
 81 90  2  0  0  0
 82 87  1  0  0  0
 82154  1  0  0  0
 82155  1  0  0  0
 83156  1  0  0  0
 83157  1  0  0  0
 83158  1  0  0  0
 84159  1  0  0  0
 84160  1  0  0  0
 84161  1  0  0  0
 85 88  1  0  0  0
 85162  1  0  0  0
 85163  1  0  0  0
 85164  1  0  0  0
M  ISO  4   1 100  68 101  79 101  88 100
M  END
> <chiral flag>
0

> <version>
0

> <s_m_source_file>
/data/baiqing/PycharmProjects/Reinvent-master-3.2/result/LINK_invent/BTK/process_docking_weight1_custom_product_contain_oxygen_bond_distance_aromatic_linkinvent_7_9_3/rearranged_h_0089.sdf

> <i_m_source_file_index>
15

> <r_mmod_Potential_Energy-OPLS-2005>
449.031402587891

> <r_mmod_Stretch_Energy-OPLS-2005>
136.824127197266

> <r_mmod_Bend_Energy-OPLS-2005>
283.542053222656

> <r_mmod_Torsional_Energy-OPLS-2005>
350.489196777344

> <r_mmod_Improper_Torsional_Energy-OPLS-2005>
3.735844373703

> <r_mmod_Van_der_Waal_Energy-OPLS-2005>
148.37516784668

> <r_mmod_Electrostatic_Energy-OPLS-2005>
-353.000610351562

> <r_mmod_Solvation_Energy-OPLS-2005>
-214.222015380859

> <b_mmod_Minimization_Converged-OPLS-2005>
0

> <r_mmod_RMS_Derivative-OPLS-2005>
3.57470798492432

$$$$
15
                    3D
 Structure written by MMmdl.
147155  0  0  1  0            999 V2000
  -30.3876  -15.4067   20.3453 C   0  0  0  0  0  0
  -30.4320  -12.9052   19.5529 C   0  0  0  0  0  0
  -29.5480  -12.6119   18.3113 C   0  0  0  0  0  0
  -28.1017  -12.3054   18.7323 C   0  0  0  0  0  0
  -27.6060  -13.2883   19.8212 C   0  0  2  0  0  0
  -28.6267  -13.5250   20.9580 C   0  0  0  0  0  0
  -25.2356  -13.8258   20.5729 C   0  0  0  0  0  0
  -24.1727  -13.0435   20.9253 C   0  0  0  0  0  0
  -24.6399  -11.6937   20.8743 C   0  0  0  0  0  0
  -23.9102  -10.4288   21.0389 C   0  0  0  0  0  0
  -24.3644   -9.4208   21.9174 C   0  0  0  0  0  0
  -23.6307   -8.2246   22.0752 C   0  0  0  0  0  0
  -22.4290   -8.0285   21.3543 C   0  0  0  0  0  0
  -21.9930   -9.0257   20.4641 C   0  0  0  0  0  0
  -22.7266  -10.2131   20.3047 C   0  0  0  0  0  0
  -21.6862   -6.0731   22.5274 C   0  0  0  0  0  0
  -21.4023   -6.5636   23.8206 C   0  0  0  0  0  0
  -21.3665   -5.6792   24.9168 C   0  0  0  0  0  0
  -21.6045   -4.3050   24.7223 C   0  0  0  0  0  0
  -21.8819   -3.8141   23.4344 C   0  0  0  0  0  0
  -21.9197   -4.6959   22.3397 C   0  0  0  0  0  0
  -22.7746  -13.5183   21.1893 C   0  0  0  0  0  0
  -22.1661   -4.2145   21.0973 F   0  0  0  0  0  0
  -21.5636   -3.4535   25.7734 F   0  0  0  0  0  0
  -29.8460  -14.0709   20.3346 N   0  0  0  0  0  0
  -26.2786  -12.9550   20.3185 N   0  0  0  0  0  0
  -25.9339  -11.6646   20.5684 N   0  0  0  0  0  0
  -22.0403  -12.8174   22.0453 N   0  0  0  0  0  0
  -25.3991  -15.1997   20.4133 N   0  0  0  0  0  0
  -31.6011  -15.3980   20.0690 O   0  0  0  0  0  0
  -21.6654   -6.8883   21.4237 O   0  0  0  0  0  0
  -22.3425  -14.5477   20.6720 O   0  0  0  0  0  0
  -24.6698  -31.8132   23.1611 C   0  0  0  0  0  0
  -25.9344  -32.4529   23.8112 C   0  0  1  0  0  0
  -27.2309  -26.8379   20.1971 C   0  0  0  0  0  0
  -25.5981  -33.8349   24.2016 N   0  0  0  0  0  0
  -23.4897  -30.4177   21.5109 C   0  0  2  0  0  0
  -24.9470  -28.7822   20.1078 C   0  0  0  0  0  0
  -22.7705  -29.4374   22.4747 C   0  0  0  0  0  0
  -18.0333  -28.1420   22.8467 C   0  0  0  0  0  0
  -24.1498  -36.7183   23.2650 C   0  0  0  0  0  0
  -26.0612  -30.5877   21.4069 C   0  0  0  0  0  0
  -26.1271  -29.1673   20.7533 C   0  0  0  0  0  0
  -27.2528  -28.2152   20.7755 C   0  0  0  0  0  0
  -26.0251  -26.6255   19.4895 C   0  0  0  0  0  0
  -24.9267  -27.5348   19.4550 C   0  0  0  0  0  0
  -23.7351  -29.7206   20.1405 C   0  0  0  0  0  0
  -25.4147  -36.2939   24.0292 C   0  0  1  0  0  0
  -20.5961  -28.3761   23.1178 C   0  0  2  0  0  0
  -20.6804  -26.9433   22.5416 C   0  0  0  0  0  0
  -19.5781  -26.6374   21.5227 C   0  0  0  0  0  0
  -18.1962  -26.7952   22.1625 C   0  0  0  0  0  0
  -19.1594  -28.8914   23.2808 C   0  0  0  0  0  0
  -18.9499  -30.1504   23.8845 C   0  0  0  0  0  0
  -17.6486  -30.6599   24.0554 C   0  0  0  0  0  0
  -25.9113  -34.9319   23.4986 C   0  0  0  0  0  0
  -16.5380  -29.9083   23.6345 C   0  0  0  0  0  0
  -16.7314  -28.6509   23.0361 C   0  0  0  0  0  0
  -26.4572  -31.6513   25.0680 C   0  0  0  0  0  0
  -25.3673  -31.3787   26.1316 C   0  0  0  0  0  0
  -27.0480  -30.2868   24.6485 C   0  0  0  0  0  0
  -27.6048  -32.4343   25.7491 C   0  0  0  0  0  0
  -27.5575  -37.1752   24.8468 C   0  0  0  0  0  0
  -21.4366  -29.3026   22.3502 N   0  0  0  0  0  0
  -26.4291  -37.3680   23.9399 N   0  0  0  0  0  0
  -24.7621  -30.9699   22.0793 N   0  0  0  0  0  0
  -23.4216  -28.7974   23.3042 O   0  0  0  0  0  0
  -28.2476  -25.7223   20.3396 O   0  0  0  0  0  0
  -26.5738  -34.8867   22.4591 O   0  0  0  0  0  0
  -23.5752  -32.1153   23.6640 O   0  0  0  0  0  0
  -28.1189  -21.2321   22.4498 C   0  0  0  0  0  0
  -28.6014  -20.0062   21.8947 C   0  0  0  0  0  0
  -28.0649  -22.4942   21.7844 C   0  0  0  0  0  0
  -29.0003  -21.3016   19.9094 C   0  0  0  0  0  0
  -29.1144  -19.8849   20.5812 C   0  0  0  0  0  0
  -28.4711  -22.6837   20.4456 C   0  0  0  0  0  0
  -29.8211  -18.3553   20.1940 C   0  0  0  0  0  0
  -28.1953  -24.0951   19.7897 N   0  0  0  0  0  0
  -29.5933  -16.8807   20.4977 N   0  0  0  0  0  0
  -30.9129  -18.5529   19.4509 N   0  3  0  0  0  0
  -31.4492  -13.1177   19.2207 H   0  0  0  0  0  0
  -30.5187  -12.0173   20.1822 H   0  0  0  0  0  0
  -29.9582  -11.7806   17.7359 H   0  0  0  0  0  0
  -29.5593  -13.4786   17.6489 H   0  0  0  0  0  0
  -28.0755  -11.2852   19.1178 H   0  0  0  0  0  0
  -27.4407  -12.3232   17.8650 H   0  0  0  0  0  0
  -27.5027  -14.2396   19.2982 H   0  0  0  0  0  0
  -28.8226  -12.6098   21.5183 H   0  0  0  0  0  0
  -28.2309  -14.2478   21.6736 H   0  0  0  0  0  0
  -25.2789   -9.5687   22.4756 H   0  0  0  0  0  0
  -24.0013   -7.4644   22.7482 H   0  0  0  0  0  0
  -21.0859   -8.8769   19.8953 H   0  0  0  0  0  0
  -22.3712  -10.9664   19.6159 H   0  0  0  0  0  0
  -21.2013   -7.6144   23.9706 H   0  0  0  0  0  0
  -21.1493   -6.0520   25.9071 H   0  0  0  0  0  0
  -22.0594   -2.7604   23.2841 H   0  0  0  0  0  0
  -22.4034  -11.9854   22.4868 H   0  0  0  0  0  0
  -21.1005  -13.1174   22.2631 H   0  0  0  0  0  0
  -24.6200  -15.8436   20.5022 H   0  0  0  0  0  0
  -26.2167  -15.6257   19.9979 H   0  0  0  0  0  0
  -26.7414  -32.5037   23.0819 H   0  0  0  0  0  0
  -25.0055  -33.9417   25.0120 H   0  0  0  0  0  0
  -22.8076  -31.2510   21.3308 H   0  0  0  0  0  0
  -23.3772  -35.9504   23.3294 H   0  0  0  0  0  0
  -24.3562  -36.8854   22.2069 H   0  0  0  0  0  0
  -23.7245  -37.6357   23.6727 H   0  0  0  0  0  0
  -26.2523  -31.3213   20.6228 H   0  0  0  0  0  0
  -26.9169  -30.6482   22.0672 H   0  0  0  0  0  0
  -28.1399  -28.5063   21.3202 H   0  0  0  0  0  0
  -25.8966  -25.6707   18.9991 H   0  0  0  0  0  0
  -24.0315  -27.2337   18.9288 H   0  0  0  0  0  0
  -23.8942  -30.4841   19.3781 H   0  0  0  0  0  0
  -22.8435  -29.1762   19.8245 H   0  0  0  0  0  0
  -25.1353  -36.1729   25.0783 H   0  0  0  0  0  0
  -21.0053  -28.3385   24.1300 H   0  0  0  0  0  0
  -20.5684  -26.2385   23.3671 H   0  0  0  0  0  0
  -21.6666  -26.7399   22.1220 H   0  0  0  0  0  0
  -19.6933  -25.6269   21.1295 H   0  0  0  0  0  0
  -19.6726  -27.3154   20.6735 H   0  0  0  0  0  0
  -17.4238  -26.6713   21.4017 H   0  0  0  0  0  0
  -18.0334  -26.0107   22.9032 H   0  0  0  0  0  0
  -19.7969  -30.7344   24.2190 H   0  0  0  0  0  0
  -17.5030  -31.6273   24.5165 H   0  0  0  0  0  0
  -15.5375  -30.2959   23.7698 H   0  0  0  0  0  0
  -15.8723  -28.0803   22.7101 H   0  0  0  0  0  0
  -24.5880  -30.7119   25.7613 H   0  0  0  0  0  0
  -24.8837  -32.2994   26.4588 H   0  0  0  0  0  0
  -25.7876  -30.9046   27.0195 H   0  0  0  0  0  0
  -26.3160  -29.6513   24.1490 H   0  0  0  0  0  0
  -27.3973  -29.7271   25.5173 H   0  0  0  0  0  0
  -27.9119  -30.4026   23.9936 H   0  0  0  0  0  0
  -27.2608  -33.3697   26.1914 H   0  0  0  0  0  0
  -28.3936  -32.6814   25.0374 H   0  0  0  0  0  0
  -28.0633  -31.8574   26.5535 H   0  0  0  0  0  0
  -28.2576  -38.0061   24.7495 H   0  0  0  0  0  0
  -28.1084  -36.2581   24.6325 H   0  0  0  0  0  0
  -27.2282  -37.1425   25.8868 H   0  0  0  0  0  0
  -20.9654  -29.8678   21.6575 H   0  0  0  0  0  0
  -26.0135  -38.2742   24.1383 H   0  0  0  0  0  0
  -27.7618  -21.2056   23.4698 H   0  0  0  0  0  0
  -28.6050  -19.1321   22.5333 H   0  0  0  0  0  0
  -27.6570  -23.3389   22.3219 H   0  0  0  0  0  0
  -29.3551  -21.3300   18.8902 H   0  0  0  0  0  0
  -28.5589  -24.1145   18.8400 H   0  0  0  0  0  0
  -28.6483  -16.8273   20.8438 H   0  0  0  0  0  0
  -31.1769  -19.4941   19.2049 H   0  0  0  0  0  0
  -31.5163  -17.7886   19.1904 H   0  0  0  0  0  0
  1 25  1  0  0  0
  1 30  2  0  0  0
  1 79  1  0  0  0
  2  3  1  0  0  0
  2 25  1  0  0  0
  2 81  1  0  0  0
  2 82  1  0  0  0
  3  4  1  0  0  0
  3 83  1  0  0  0
  3 84  1  0  0  0
  4  5  1  0  0  0
  4 85  1  0  0  0
  4 86  1  0  0  0
  5  6  1  0  0  0
  5 26  1  0  0  0
  5 87  1  0  0  0
  6 25  1  0  0  0
  6 88  1  0  0  0
  6 89  1  0  0  0
  7  8  2  0  0  0
  7 26  1  0  0  0
  7 29  1  0  0  0
  8  9  1  0  0  0
  8 22  1  0  0  0
  9 10  1  0  0  0
  9 27  2  0  0  0
 10 11  2  0  0  0
 10 15  1  0  0  0
 11 12  1  0  0  0
 11 90  1  0  0  0
 12 13  2  0  0  0
 12 91  1  0  0  0
 13 14  1  0  0  0
 13 31  1  0  0  0
 14 15  2  0  0  0
 14 92  1  0  0  0
 15 93  1  0  0  0
 16 17  2  0  0  0
 16 21  1  0  0  0
 16 31  1  0  0  0
 17 18  1  0  0  0
 17 94  1  0  0  0
 18 19  2  0  0  0
 18 95  1  0  0  0
 19 20  1  0  0  0
 19 24  1  0  0  0
 20 21  2  0  0  0
 20 96  1  0  0  0
 21 23  1  0  0  0
 22 28  1  0  0  0
 22 32  2  0  0  0
 26 27  1  0  0  0
 28 97  1  0  0  0
 28 98  1  0  0  0
 29 99  1  0  0  0
 29100  1  0  0  0
 33 34  1  0  0  0
 33 66  1  0  0  0
 33 70  2  0  0  0
 34 36  1  0  0  0
 34 59  1  0  0  0
 34101  1  0  0  0
 35 44  2  0  0  0
 35 45  1  0  0  0
 35 68  1  0  0  0
 36 56  1  0  0  0
 36102  1  0  0  0
 37 39  1  0  0  0
 37 47  1  0  0  0
 37 66  1  0  0  0
 37103  1  0  0  0
 38 43  2  0  0  0
 38 46  1  0  0  0
 38 47  1  0  0  0
 39 64  1  0  0  0
 39 67  2  0  0  0
 40 52  1  0  0  0
 40 53  2  0  0  0
 40 58  1  0  0  0
 41104  1  0  0  0
 41105  1  0  0  0
 41106  1  0  0  0
 41 48  1  0  0  0
 42 43  1  0  0  0
 42 66  1  0  0  0
 42107  1  0  0  0
 42108  1  0  0  0
 43 44  1  0  0  0
 44109  1  0  0  0
 45 46  2  0  0  0
 45110  1  0  0  0
 46111  1  0  0  0
 47112  1  0  0  0
 47113  1  0  0  0
 48 56  1  0  0  0
 48 65  1  0  0  0
 48114  1  0  0  0
 49 50  1  0  0  0
 49 53  1  0  0  0
 49 64  1  0  0  0
 49115  1  0  0  0
 50 51  1  0  0  0
 50116  1  0  0  0
 50117  1  0  0  0
 51 52  1  0  0  0
 51118  1  0  0  0
 51119  1  0  0  0
 52120  1  0  0  0
 52121  1  0  0  0
 53 54  1  0  0  0
 54 55  2  0  0  0
 54122  1  0  0  0
 55 57  1  0  0  0
 55123  1  0  0  0
 56 69  2  0  0  0
 57 58  2  0  0  0
 57124  1  0  0  0
 58125  1  0  0  0
 59 60  1  0  0  0
 59 61  1  0  0  0
 59 62  1  0  0  0
 60126  1  0  0  0
 60127  1  0  0  0
 60128  1  0  0  0
 61129  1  0  0  0
 61130  1  0  0  0
 61131  1  0  0  0
 62132  1  0  0  0
 62133  1  0  0  0
 62134  1  0  0  0
 63 65  1  0  0  0
 63135  1  0  0  0
 63136  1  0  0  0
 63137  1  0  0  0
 64138  1  0  0  0
 65139  1  0  0  0
 68 78  1  0  0  0
 71 72  2  0  0  0
 71 73  1  0  0  0
 71140  1  0  0  0
 72 75  1  0  0  0
 72141  1  0  0  0
 73 76  2  0  0  0
 73142  1  0  0  0
 74 75  2  0  0  0
 74 76  1  0  0  0
 74143  1  0  0  0
 75 77  1  0  0  0
 76 78  1  0  0  0
 77 79  1  0  0  0
 77 80  2  0  0  0
 78144  1  0  0  0
 79145  1  0  0  0
 80146  1  0  0  0
 80147  1  0  0  0
M  CHG  1  80   1
M  ISO  4   1 100  68 101  78 101  79 100
M  END
> <chiral flag>
0

> <version>
0

> <s_m_source_file>
/data/baiqing/PycharmProjects/Reinvent-master-3.2/result/LINK_invent/BTK/process_docking_weight1_custom_product_contain_oxygen_bond_distance_aromatic_linkinvent_7_9_3/rearranged_h_0089.sdf

> <i_m_source_file_index>
16

> <r_mmod_Potential_Energy-OPLS-2005>
1293.431640625

> <r_mmod_Stretch_Energy-OPLS-2005>
719.986694335938

> <r_mmod_Bend_Energy-OPLS-2005>
486.192291259766

> <r_mmod_Torsional_Energy-OPLS-2005>
200.695022583008

> <r_mmod_Improper_Torsional_Energy-OPLS-2005>
8.73558044433594

> <r_mmod_Van_der_Waal_Energy-OPLS-2005>
123.026290893555

> <r_mmod_Electrostatic_Energy-OPLS-2005>
-392.681762695312

> <r_mmod_Solvation_Energy-OPLS-2005>
-462.225921630859

> <b_mmod_Minimization_Converged-OPLS-2005>
0

> <r_mmod_RMS_Derivative-OPLS-2005>
1.24284040927887

$$$$
16
                    3D
 Structure written by MMmdl.
159168  0  0  1  0            999 V2000
  -30.6369  -14.6603   20.4977 C   0  0  0  0  0  0
  -30.4337  -12.4051   19.4650 C   0  0  0  0  0  0
  -29.5082  -12.5104   18.2333 C   0  0  0  0  0  0
  -28.0317  -12.3477   18.6443 C   0  0  0  0  0  0
  -27.6507  -13.2262   19.8670 C   0  0  2  0  0  0
  -28.6962  -13.1014   20.9982 C   0  0  0  0  0  0
  -25.2487  -13.8156   20.5648 C   0  0  0  0  0  0
  -24.1777  -13.0401   20.9134 C   0  0  0  0  0  0
  -24.6390  -11.6897   20.8720 C   0  0  0  0  0  0
  -23.9070  -10.4279   21.0392 C   0  0  0  0  0  0
  -24.3620   -9.4202   21.9177 C   0  0  0  0  0  0
  -23.6294   -8.2236   22.0752 C   0  0  0  0  0  0
  -22.4273   -8.0277   21.3544 C   0  0  0  0  0  0
  -21.9909   -9.0247   20.4641 C   0  0  0  0  0  0
  -22.7241  -10.2121   20.3045 C   0  0  0  0  0  0
  -21.6851   -6.0736   22.5282 C   0  0  0  0  0  0
  -21.4012   -6.5638   23.8218 C   0  0  0  0  0  0
  -21.3660   -5.6785   24.9176 C   0  0  0  0  0  0
  -21.6046   -4.3049   24.7220 C   0  0  0  0  0  0
  -21.8820   -3.8145   23.4338 C   0  0  0  0  0  0
  -21.9194   -4.6964   22.3398 C   0  0  0  0  0  0
  -22.7804  -13.5196   21.1825 C   0  0  0  0  0  0
  -22.1661   -4.2158   21.0973 F   0  0  0  0  0  0
  -21.5632   -3.4527   25.7729 F   0  0  0  0  0  0
  -30.0110  -13.4401   20.4306 N   0  0  0  0  0  0
  -26.2982  -12.9392   20.3375 N   0  0  0  0  0  0
  -25.9340  -11.6534   20.5798 N   0  0  0  0  0  0
  -22.0465  -12.8204   22.0410 N   0  0  0  0  0  0
  -25.4025  -15.1877   20.4088 N   0  0  0  0  0  0
  -31.8030  -14.7805   20.1118 O   0  0  0  0  0  0
  -21.6634   -6.8880   21.4247 O   0  0  0  0  0  0
  -22.3484  -14.5516   20.6706 O   0  0  0  0  0  0
  -24.6250  -31.8606   23.2017 C   0  0  0  0  0  0
  -25.9099  -32.4787   23.8350 C   0  0  1  0  0  0
  -27.2287  -27.3314   20.1184 C   0  0  0  0  0  0
  -25.5915  -33.8583   24.2289 N   0  0  0  0  0  0
  -23.4187  -30.4832   21.5440 C   0  0  2  0  0  0
  -24.8670  -28.9351   20.1133 C   0  0  0  0  0  0
  -22.7465  -29.4638   22.4942 C   0  0  0  0  0  0
  -18.0289  -28.1385   22.8491 C   0  0  0  0  0  0
  -24.1487  -36.7297   23.2636 C   0  0  0  0  0  0
  -25.9569  -30.7959   21.3683 C   0  0  0  0  0  0
  -26.0341  -29.4205   20.7179 C   0  0  0  0  0  0
  -27.2203  -28.6295   20.7118 C   0  0  0  0  0  0
  -26.0460  -26.9008   19.4789 C   0  0  0  0  0  0
  -24.8739  -27.6804   19.4840 C   0  0  0  0  0  0
  -23.6329  -29.8121   20.1616 C   0  0  0  0  0  0
  -25.4108  -36.3091   24.0339 C   0  0  1  0  0  0
  -20.5887  -28.3695   23.1288 C   0  0  2  0  0  0
  -20.6776  -26.9422   22.5410 C   0  0  0  0  0  0
  -19.5752  -26.6390   21.5211 C   0  0  0  0  0  0
  -18.1934  -26.7931   22.1624 C   0  0  0  0  0  0
  -19.1540  -28.8853   23.2891 C   0  0  0  0  0  0
  -18.9461  -30.1453   23.8911 C   0  0  0  0  0  0
  -17.6460  -30.6586   24.0565 C   0  0  0  0  0  0
  -25.9044  -34.9458   23.5115 C   0  0  0  0  0  0
  -16.5353  -29.9086   23.6324 C   0  0  0  0  0  0
  -16.7277  -28.6502   23.0349 C   0  0  0  0  0  0
  -26.4492  -31.6581   25.0706 C   0  0  0  0  0  0
  -25.3739  -31.3693   26.1441 C   0  0  0  0  0  0
  -27.0318  -30.3014   24.6116 C   0  0  0  0  0  0
  -27.6073  -32.4289   25.7468 C   0  0  0  0  0  0
  -27.5585  -37.1801   24.8466 C   0  0  0  0  0  0
  -21.4179  -29.3053   22.3682 N   0  0  0  0  0  0
  -26.4286  -37.3787   23.9423 N   0  0  0  0  0  0
  -24.6857  -31.0636   22.0950 N   0  0  0  0  0  0
  -23.4190  -28.8177   23.3017 O   0  0  0  0  0  0
  -28.3453  -26.4871   20.1307 O   0  0  0  0  0  0
  -26.5614  -34.8930   22.4682 O   0  0  0  0  0  0
  -23.5417  -32.1374   23.7369 O   0  0  0  0  0  0
  -31.0039  -19.3951   20.2821 C   0  0  0  0  0  0
  -28.6223  -19.3220   20.5435 C   0  0  0  0  0  0
  -29.7700  -20.1143   20.2697 C   0  0  0  0  0  0
  -31.0980  -17.9844   20.4849 C   0  0  0  0  0  0
  -28.7038  -17.9115   20.7624 C   0  0  0  0  0  0
  -29.9309  -17.1878   20.6893 C   0  0  0  0  0  0
  -29.9034  -24.2277   19.0227 C   0  0  0  0  0  0
  -30.5962  -21.9364   18.8770 C   0  0  0  0  0  0
  -29.0234  -23.9560   20.0074 C   0  0  0  0  0  0
  -30.7176  -23.1949   18.4272 C   0  0  0  0  0  0
  -28.9113  -22.5321   20.5087 C   0  0  0  0  0  0
  -28.1382  -25.0988   20.6118 C   0  0  0  0  0  0
  -29.7162  -21.5556   19.9149 N   0  0  0  0  0  0
  -32.3698  -17.4173   20.4981 N   0  0  0  0  0  0
  -27.5301  -17.2182   21.0652 N   0  0  0  0  0  0
  -29.8560  -15.7266   20.8625 N   0  0  0  0  0  0
  -28.1405  -22.2393   21.4295 O   0  0  0  0  0  0
  -31.5673  -23.4732   17.4325 O   0  0  0  0  0  0
  -31.4768  -12.5201   19.1652 H   0  0  0  0  0  0
  -30.3627  -11.4152   19.9183 H   0  0  0  0  0  0
  -29.7777  -11.7548   17.4945 H   0  0  0  0  0  0
  -29.6478  -13.4779   17.7481 H   0  0  0  0  0  0
  -27.8726  -11.2950   18.8817 H   0  0  0  0  0  0
  -27.3768  -12.5702   17.8013 H   0  0  0  0  0  0
  -27.6598  -14.2600   19.5192 H   0  0  0  0  0  0
  -28.7106  -12.0874   21.4002 H   0  0  0  0  0  0
  -28.4385  -13.7495   21.8371 H   0  0  0  0  0  0
  -25.2763   -9.5688   22.4747 H   0  0  0  0  0  0
  -24.0008   -7.4630   22.7471 H   0  0  0  0  0  0
  -21.0842   -8.8770   19.8939 H   0  0  0  0  0  0
  -22.3709  -10.9660   19.6149 H   0  0  0  0  0  0
  -21.2002   -7.6145   23.9731 H   0  0  0  0  0  0
  -21.1481   -6.0505   25.9086 H   0  0  0  0  0  0
  -22.0599   -2.7609   23.2826 H   0  0  0  0  0  0
  -22.4086  -11.9858   22.4779 H   0  0  0  0  0  0
  -21.1103  -13.1263   22.2657 H   0  0  0  0  0  0
  -24.6223  -15.8199   20.5419 H   0  0  0  0  0  0
  -26.2826  -15.6863   20.2841 H   0  0  0  0  0  0
  -26.7170  -32.5490   23.1109 H   0  0  0  0  0  0
  -25.0076  -33.9717   25.0447 H   0  0  0  0  0  0
  -22.7133  -31.3041   21.3988 H   0  0  0  0  0  0
  -23.3751  -35.9625   23.3275 H   0  0  0  0  0  0
  -24.3590  -36.8926   22.2053 H   0  0  0  0  0  0
  -23.7228  -37.6492   23.6659 H   0  0  0  0  0  0
  -26.0814  -31.5538   20.5931 H   0  0  0  0  0  0
  -26.8392  -30.8539   21.9934 H   0  0  0  0  0  0
  -28.1173  -28.9977   21.1905 H   0  0  0  0  0  0
  -26.0222  -25.9484   18.9686 H   0  0  0  0  0  0
  -23.9823  -27.3088   18.9975 H   0  0  0  0  0  0
  -23.7504  -30.5830   19.3994 H   0  0  0  0  0  0
  -22.7528  -29.2383   19.8651 H   0  0  0  0  0  0
  -25.1286  -36.1937   25.0829 H   0  0  0  0  0  0
  -20.9997  -28.3272   24.1402 H   0  0  0  0  0  0
  -20.5670  -26.2315   23.3614 H   0  0  0  0  0  0
  -21.6648  -26.7453   22.1211 H   0  0  0  0  0  0
  -19.6914  -25.6302   21.1240 H   0  0  0  0  0  0
  -19.6677  -27.3198   20.6738 H   0  0  0  0  0  0
  -17.4207  -26.6683   21.4023 H   0  0  0  0  0  0
  -18.0333  -26.0071   22.9015 H   0  0  0  0  0  0
  -19.7937  -30.7263   24.2290 H   0  0  0  0  0  0
  -17.5015  -31.6268   24.5161 H   0  0  0  0  0  0
  -15.5352  -30.2988   23.7637 H   0  0  0  0  0  0
  -15.8682  -28.0817   22.7056 H   0  0  0  0  0  0
  -24.5936  -30.7016   25.7771 H   0  0  0  0  0  0
  -24.8901  -32.2838   26.4879 H   0  0  0  0  0  0
  -25.8078  -30.8873   27.0210 H   0  0  0  0  0  0
  -26.2860  -29.6769   24.1182 H   0  0  0  0  0  0
  -27.4075  -29.7268   25.4591 H   0  0  0  0  0  0
  -27.8709  -30.4305   23.9278 H   0  0  0  0  0  0
  -27.2721  -33.3611   26.2028 H   0  0  0  0  0  0
  -28.3897  -32.6797   25.0294 H   0  0  0  0  0  0
  -28.0721  -31.8408   26.5392 H   0  0  0  0  0  0
  -28.2599  -38.0108   24.7547 H   0  0  0  0  0  0
  -28.1088  -36.2646   24.6242 H   0  0  0  0  0  0
  -27.2320  -37.1394   25.8873 H   0  0  0  0  0  0
  -20.9354  -29.8775   21.6894 H   0  0  0  0  0  0
  -26.0167  -38.2862   24.1422 H   0  0  0  0  0  0
  -31.9193  -19.9478   20.1260 H   0  0  0  0  0  0
  -27.6542  -19.8011   20.5677 H   0  0  0  0  0  0
  -29.9889  -25.2447   18.6654 H   0  0  0  0  0  0
  -31.1607  -21.1299   18.4333 H   0  0  0  0  0  0
  -28.3289  -25.1164   21.6845 H   0  0  0  0  0  0
  -27.1008  -24.7816   20.5114 H   0  0  0  0  0  0
  -33.1187  -17.9057   20.0189 H   0  0  0  0  0  0
  -32.3889  -16.4044   20.3323 H   0  0  0  0  0  0
  -26.7220  -17.8143   21.2098 H   0  0  0  0  0  0
  -27.6081  -16.5863   21.8532 H   0  0  0  0  0  0
  -28.9191  -15.4405   21.0950 H   0  0  0  0  0  0
  -31.5150  -24.4040   17.2517 H   0  0  0  0  0  0
  1 25  1  0  0  0
  1 30  2  0  0  0
  1 86  1  0  0  0
  2  3  1  0  0  0
  2 25  1  0  0  0
  2 89  1  0  0  0
  2 90  1  0  0  0
  3  4  1  0  0  0
  3 91  1  0  0  0
  3 92  1  0  0  0
  4  5  1  0  0  0
  4 93  1  0  0  0
  4 94  1  0  0  0
  5  6  1  0  0  0
  5 26  1  0  0  0
  5 95  1  0  0  0
  6 25  1  0  0  0
  6 96  1  0  0  0
  6 97  1  0  0  0
  7  8  2  0  0  0
  7 26  1  0  0  0
  7 29  1  0  0  0
  8  9  1  0  0  0
  8 22  1  0  0  0
  9 10  1  0  0  0
  9 27  2  0  0  0
 10 11  2  0  0  0
 10 15  1  0  0  0
 11 12  1  0  0  0
 11 98  1  0  0  0
 12 13  2  0  0  0
 12 99  1  0  0  0
 13 14  1  0  0  0
 13 31  1  0  0  0
 14 15  2  0  0  0
 14100  1  0  0  0
 15101  1  0  0  0
 16 17  2  0  0  0
 16 21  1  0  0  0
 16 31  1  0  0  0
 17 18  1  0  0  0
 17102  1  0  0  0
 18 19  2  0  0  0
 18103  1  0  0  0
 19 20  1  0  0  0
 19 24  1  0  0  0
 20 21  2  0  0  0
 20104  1  0  0  0
 21 23  1  0  0  0
 22 28  1  0  0  0
 22 32  2  0  0  0
 26 27  1  0  0  0
 28105  1  0  0  0
 28106  1  0  0  0
 29107  1  0  0  0
 29108  1  0  0  0
 33 34  1  0  0  0
 33 66  1  0  0  0
 33 70  2  0  0  0
 34 36  1  0  0  0
 34 59  1  0  0  0
 34109  1  0  0  0
 35 44  2  0  0  0
 35 45  1  0  0  0
 35 68  1  0  0  0
 36 56  1  0  0  0
 36110  1  0  0  0
 37 39  1  0  0  0
 37 47  1  0  0  0
 37 66  1  0  0  0
 37111  1  0  0  0
 38 43  2  0  0  0
 38 46  1  0  0  0
 38 47  1  0  0  0
 39 64  1  0  0  0
 39 67  2  0  0  0
 40 52  1  0  0  0
 40 53  2  0  0  0
 40 58  1  0  0  0
 41112  1  0  0  0
 41113  1  0  0  0
 41114  1  0  0  0
 41 48  1  0  0  0
 42 43  1  0  0  0
 42 66  1  0  0  0
 42115  1  0  0  0
 42116  1  0  0  0
 43 44  1  0  0  0
 44117  1  0  0  0
 45 46  2  0  0  0
 45118  1  0  0  0
 46119  1  0  0  0
 47120  1  0  0  0
 47121  1  0  0  0
 48 56  1  0  0  0
 48 65  1  0  0  0
 48122  1  0  0  0
 49 50  1  0  0  0
 49 53  1  0  0  0
 49 64  1  0  0  0
 49123  1  0  0  0
 50 51  1  0  0  0
 50124  1  0  0  0
 50125  1  0  0  0
 51 52  1  0  0  0
 51126  1  0  0  0
 51127  1  0  0  0
 52128  1  0  0  0
 52129  1  0  0  0
 53 54  1  0  0  0
 54 55  2  0  0  0
 54130  1  0  0  0
 55 57  1  0  0  0
 55131  1  0  0  0
 56 69  2  0  0  0
 57 58  2  0  0  0
 57132  1  0  0  0
 58133  1  0  0  0
 59 60  1  0  0  0
 59 61  1  0  0  0
 59 62  1  0  0  0
 60134  1  0  0  0
 60135  1  0  0  0
 60136  1  0  0  0
 61137  1  0  0  0
 61138  1  0  0  0
 61139  1  0  0  0
 62140  1  0  0  0
 62141  1  0  0  0
 62142  1  0  0  0
 63 65  1  0  0  0
 63143  1  0  0  0
 63144  1  0  0  0
 63145  1  0  0  0
 64146  1  0  0  0
 65147  1  0  0  0
 68 82  1  0  0  0
 71 73  2  0  0  0
 71 74  1  0  0  0
 71148  1  0  0  0
 72 73  1  0  0  0
 72 75  2  0  0  0
 72149  1  0  0  0
 73 83  1  0  0  0
 74 76  2  0  0  0
 74 84  1  0  0  0
 75 76  1  0  0  0
 75 85  1  0  0  0
 76 86  1  0  0  0
 77 79  2  0  0  0
 77 80  1  0  0  0
 77150  1  0  0  0
 78 80  2  0  0  0
 78 83  1  0  0  0
 78151  1  0  0  0
 79 81  1  0  0  0
 79 82  1  0  0  0
 80 88  1  0  0  0
 81 83  1  0  0  0
 81 87  2  0  0  0
 82152  1  0  0  0
 82153  1  0  0  0
 84154  1  0  0  0
 84155  1  0  0  0
 85156  1  0  0  0
 85157  1  0  0  0
 86158  1  0  0  0
 88159  1  0  0  0
M  ISO  4   1 100  68 101  82 101  86 100
M  END
> <chiral flag>
0

> <version>
0

> <s_m_source_file>
/data/baiqing/PycharmProjects/Reinvent-master-3.2/result/LINK_invent/BTK/process_docking_weight1_custom_product_contain_oxygen_bond_distance_aromatic_linkinvent_7_9_3/rearranged_h_0089.sdf

> <i_m_source_file_index>
17

> <r_mmod_Potential_Energy-OPLS-2005>
-11.1731786727905

> <r_mmod_Stretch_Energy-OPLS-2005>
95.6765975952148

> <r_mmod_Bend_Energy-OPLS-2005>
149.538696289062

> <r_mmod_Torsional_Energy-OPLS-2005>
267.599517822266

> <r_mmod_Improper_Torsional_Energy-OPLS-2005>
13.8789205551147

> <r_mmod_Van_der_Waal_Energy-OPLS-2005>
187.756439208984

> <r_mmod_Electrostatic_Energy-OPLS-2005>
-546.079650878906

> <r_mmod_Solvation_Energy-OPLS-2005>
-227.971099853516

> <b_mmod_Minimization_Converged-OPLS-2005>
0

> <r_mmod_RMS_Derivative-OPLS-2005>
1.33652400970459

$$$$
17
                    3D
 Structure written by MMmdl.
160169  0  0  1  0            999 V2000
  -30.5109  -14.9489   20.4047 C   0  0  0  0  0  0
  -30.4481  -12.5816   19.4944 C   0  0  0  0  0  0
  -29.5255  -12.5248   18.2561 C   0  0  0  0  0  0
  -28.0558  -12.3183   18.6703 C   0  0  0  0  0  0
  -27.6323  -13.2458   19.8371 C   0  0  2  0  0  0
  -28.6748  -13.2633   20.9746 C   0  0  0  0  0  0
  -25.2454  -13.8220   20.5659 C   0  0  0  0  0  0
  -24.1793  -13.0434   20.9227 C   0  0  0  0  0  0
  -24.6408  -11.6914   20.8746 C   0  0  0  0  0  0
  -23.9079  -10.4288   21.0436 C   0  0  0  0  0  0
  -24.3615   -9.4187   21.9218 C   0  0  0  0  0  0
  -23.6274   -8.2230   22.0769 C   0  0  0  0  0  0
  -22.4258   -8.0297   21.3554 C   0  0  0  0  0  0
  -21.9895   -9.0270   20.4653 C   0  0  0  0  0  0
  -22.7248  -10.2141   20.3077 C   0  0  0  0  0  0
  -21.6858   -6.0731   22.5279 C   0  0  0  0  0  0
  -21.4022   -6.5633   23.8212 C   0  0  0  0  0  0
  -21.3661   -5.6784   24.9174 C   0  0  0  0  0  0
  -21.6040   -4.3045   24.7224 C   0  0  0  0  0  0
  -21.8817   -3.8138   23.4339 C   0  0  0  0  0  0
  -21.9183   -4.6959   22.3395 C   0  0  0  0  0  0
  -22.7808  -13.5198   21.1893 C   0  0  0  0  0  0
  -22.1663   -4.2145   21.0969 F   0  0  0  0  0  0
  -21.5606   -3.4524   25.7727 F   0  0  0  0  0  0
  -29.9557  -13.6736   20.3822 N   0  0  0  0  0  0
  -26.2891  -12.9451   20.3209 N   0  0  0  0  0  0
  -25.9337  -11.6577   20.5736 N   0  0  0  0  0  0
  -22.0430  -12.8216   22.0469 N   0  0  0  0  0  0
  -25.4021  -15.1956   20.4041 N   0  0  0  0  0  0
  -31.7067  -15.0578   20.1111 O   0  0  0  0  0  0
  -21.6633   -6.8891   21.4253 O   0  0  0  0  0  0
  -22.3494  -14.5493   20.6728 O   0  0  0  0  0  0
  -24.6433  -31.8447   23.1911 C   0  0  0  0  0  0
  -25.9198  -32.4701   23.8298 C   0  0  1  0  0  0
  -27.2142  -27.1241   20.1248 C   0  0  0  0  0  0
  -25.5934  -33.8507   24.2203 N   0  0  0  0  0  0
  -23.4485  -30.4652   21.5393 C   0  0  2  0  0  0
  -24.8955  -28.8978   20.1054 C   0  0  0  0  0  0
  -22.7585  -29.4528   22.4882 C   0  0  0  0  0  0
  -18.0296  -28.1406   22.8487 C   0  0  0  0  0  0
  -24.1495  -36.7260   23.2652 C   0  0  0  0  0  0
  -26.0065  -30.7067   21.3993 C   0  0  0  0  0  0
  -26.0731  -29.3190   20.7355 C   0  0  0  0  0  0
  -27.2248  -28.4414   20.7443 C   0  0  0  0  0  0
  -26.0143  -26.8287   19.4348 C   0  0  0  0  0  0
  -24.8777  -27.6645   19.4450 C   0  0  0  0  0  0
  -23.6751  -29.8039   20.1547 C   0  0  0  0  0  0
  -25.4120  -36.3032   24.0329 C   0  0  1  0  0  0
  -20.5926  -28.3708   23.1263 C   0  0  2  0  0  0
  -20.6803  -26.9419   22.5423 C   0  0  0  0  0  0
  -19.5756  -26.6387   21.5253 C   0  0  0  0  0  0
  -18.1933  -26.7944   22.1656 C   0  0  0  0  0  0
  -19.1559  -28.8873   23.2861 C   0  0  0  0  0  0
  -18.9479  -30.1471   23.8882 C   0  0  0  0  0  0
  -17.6472  -30.6592   24.0573 C   0  0  0  0  0  0
  -25.9079  -34.9408   23.5080 C   0  0  0  0  0  0
  -16.5357  -29.9095   23.6333 C   0  0  0  0  0  0
  -16.7277  -28.6511   23.0357 C   0  0  0  0  0  0
  -26.4501  -31.6575   25.0741 C   0  0  0  0  0  0
  -25.3676  -31.3791   26.1429 C   0  0  0  0  0  0
  -27.0354  -30.2965   24.6350 C   0  0  0  0  0  0
  -27.6041  -32.4323   25.7497 C   0  0  0  0  0  0
  -27.5580  -37.1777   24.8450 C   0  0  0  0  0  0
  -21.4283  -29.3025   22.3625 N   0  0  0  0  0  0
  -26.4271  -37.3754   23.9424 N   0  0  0  0  0  0
  -24.7198  -31.0279   22.0975 N   0  0  0  0  0  0
  -23.4218  -28.8095   23.3042 O   0  0  0  0  0  0
  -28.2569  -26.1211   20.2268 O   0  0  0  0  0  0
  -26.5687  -34.8892   22.4666 O   0  0  0  0  0  0
  -23.5545  -32.1343   23.7105 O   0  0  0  0  0  0
  -28.5119  -19.8766   20.7192 C   0  0  0  0  0  0
  -30.6944  -18.4072   19.8285 C   0  0  0  0  0  0
  -29.5061  -20.7009   20.0792 C   0  0  0  0  0  0
  -29.6859  -17.5975   20.4370 C   0  0  0  0  0  0
  -28.5884  -18.4234   20.8787 C   0  0  0  0  0  0
  -30.6109  -19.8489   19.6594 C   0  0  0  0  0  0
  -28.6076  -23.2673   20.3725 C   0  0  0  0  0  0
  -25.7482  -18.0419   22.9707 C   0  0  0  0  0  0
  -27.0326  -18.2122   22.6252 C   0  0  0  0  0  0
  -30.2754  -24.2095   18.3124 C   0  0  0  0  0  0
  -28.8566  -24.7568   18.2240 C   0  0  0  0  0  0
  -30.2767  -22.7071   18.6772 C   0  0  0  0  0  0
  -28.1836  -24.6861   19.6005 C   0  0  2  0  0  0
  -29.3884  -22.2306   19.7709 N   0  0  0  0  0  0
  -29.6577  -16.0669   20.5948 N   0  0  0  0  0  0
  -28.1521  -23.0996   21.5076 O   0  0  0  0  0  0
  -27.5193  -17.7589   21.4318 O   0  0  0  0  0  0
  -31.6862  -20.3901   19.0416 F   0  0  0  0  0  0
  -31.4813  -12.7463   19.1853 H   0  0  0  0  0  0
  -30.4420  -11.6265   20.0242 H   0  0  0  0  0  0
  -29.8324  -11.7279   17.5787 H   0  0  0  0  0  0
  -29.6194  -13.4548   17.6909 H   0  0  0  0  0  0
  -27.9430  -11.2741   18.9711 H   0  0  0  0  0  0
  -27.3971  -12.4618   17.8132 H   0  0  0  0  0  0
  -27.5935  -14.2482   19.4073 H   0  0  0  0  0  0
  -28.7572  -12.2822   21.4420 H   0  0  0  0  0  0
  -28.3772  -13.9610   21.7611 H   0  0  0  0  0  0
  -25.2784   -9.5624   22.4774 H   0  0  0  0  0  0
  -23.9973   -7.4614   22.7483 H   0  0  0  0  0  0
  -21.0811   -8.8792   19.8974 H   0  0  0  0  0  0
  -22.3735  -10.9662   19.6160 H   0  0  0  0  0  0
  -21.2044   -7.6143   23.9713 H   0  0  0  0  0  0
  -21.1485   -6.0518   25.9072 H   0  0  0  0  0  0
  -22.0592   -2.7592   23.2842 H   0  0  0  0  0  0
  -22.4031  -11.9901   22.4897 H   0  0  0  0  0  0
  -21.1049  -13.1280   22.2652 H   0  0  0  0  0  0
  -24.6131  -15.8247   20.5039 H   0  0  0  0  0  0
  -26.2233  -15.6482   20.0218 H   0  0  0  0  0  0
  -26.7255  -32.5291   23.1020 H   0  0  0  0  0  0
  -24.9940  -33.9616   25.0247 H   0  0  0  0  0  0
  -22.7499  -31.2903   21.3910 H   0  0  0  0  0  0
  -23.3759  -35.9590   23.3269 H   0  0  0  0  0  0
  -24.3596  -36.8926   22.2078 H   0  0  0  0  0  0
  -23.7244  -37.6446   23.6700 H   0  0  0  0  0  0
  -26.1699  -31.4649   20.6323 H   0  0  0  0  0  0
  -26.8749  -30.7566   22.0434 H   0  0  0  0  0  0
  -28.1081  -28.7482   21.2876 H   0  0  0  0  0  0
  -25.8844  -25.9143   18.8842 H   0  0  0  0  0  0
  -23.9809  -27.3421   18.9311 H   0  0  0  0  0  0
  -23.8182  -30.5880   19.4103 H   0  0  0  0  0  0
  -22.7880  -29.2557   19.8331 H   0  0  0  0  0  0
  -25.1305  -36.1876   25.0826 H   0  0  0  0  0  0
  -20.9990  -28.3310   24.1399 H   0  0  0  0  0  0
  -20.5765  -26.2316   23.3636 H   0  0  0  0  0  0
  -21.6660  -26.7476   22.1177 H   0  0  0  0  0  0
  -19.6932  -25.6309   21.1254 H   0  0  0  0  0  0
  -19.6690  -27.3223   20.6808 H   0  0  0  0  0  0
  -17.4222  -26.6680   21.4058 H   0  0  0  0  0  0
  -18.0314  -26.0099   22.9051 H   0  0  0  0  0  0
  -19.7950  -30.7298   24.2270 H   0  0  0  0  0  0
  -17.5013  -31.6268   24.5189 H   0  0  0  0  0  0
  -15.5361  -30.2995   23.7658 H   0  0  0  0  0  0
  -15.8678  -28.0823   22.7091 H   0  0  0  0  0  0
  -24.5747  -30.7291   25.7720 H   0  0  0  0  0  0
  -24.8994  -32.2993   26.4929 H   0  0  0  0  0  0
  -25.7912  -30.8839   27.0168 H   0  0  0  0  0  0
  -26.2976  -29.6680   24.1352 H   0  0  0  0  0  0
  -27.3935  -29.7294   25.4953 H   0  0  0  0  0  0
  -27.8898  -30.4196   23.9690 H   0  0  0  0  0  0
  -27.2643  -33.3597   26.2105 H   0  0  0  0  0  0
  -28.3811  -32.6929   25.0301 H   0  0  0  0  0  0
  -28.0735  -31.8431   26.5378 H   0  0  0  0  0  0
  -28.2571  -38.0103   24.7527 H   0  0  0  0  0  0
  -28.1090  -36.2635   24.6211 H   0  0  0  0  0  0
  -27.2282  -37.1333   25.8843 H   0  0  0  0  0  0
  -20.9512  -29.8705   21.6765 H   0  0  0  0  0  0
  -26.0137  -38.2810   24.1455 H   0  0  0  0  0  0
  -27.6152  -20.3696   21.0701 H   0  0  0  0  0  0
  -31.5739  -17.9147   19.4429 H   0  0  0  0  0  0
  -25.3708  -18.3937   23.9191 H   0  0  0  0  0  0
  -25.0524  -17.5471   22.3083 H   0  0  0  0  0  0
  -27.7748  -18.7015   23.2441 H   0  0  0  0  0  0
  -30.8391  -24.7757   19.0574 H   0  0  0  0  0  0
  -30.8000  -24.3553   17.3651 H   0  0  0  0  0  0
  -28.2879  -24.1742   17.4971 H   0  0  0  0  0  0
  -28.8698  -25.7807   17.8526 H   0  0  0  0  0  0
  -31.3105  -22.5232   18.9537 H   0  0  0  0  0  0
  -30.0599  -22.1217   17.7816 H   0  0  0  0  0  0
  -27.1389  -24.4584   19.4158 H   0  0  0  0  0  0
  -28.7408  -15.7496   20.8788 H   0  0  0  0  0  0
  1 25  1  0  0  0
  1 30  2  0  0  0
  1 85  1  0  0  0
  2  3  1  0  0  0
  2 25  1  0  0  0
  2 89  1  0  0  0
  2 90  1  0  0  0
  3  4  1  0  0  0
  3 91  1  0  0  0
  3 92  1  0  0  0
  4  5  1  0  0  0
  4 93  1  0  0  0
  4 94  1  0  0  0
  5  6  1  0  0  0
  5 26  1  0  0  0
  5 95  1  0  0  0
  6 25  1  0  0  0
  6 96  1  0  0  0
  6 97  1  0  0  0
  7  8  2  0  0  0
  7 26  1  0  0  0
  7 29  1  0  0  0
  8  9  1  0  0  0
  8 22  1  0  0  0
  9 10  1  0  0  0
  9 27  2  0  0  0
 10 11  2  0  0  0
 10 15  1  0  0  0
 11 12  1  0  0  0
 11 98  1  0  0  0
 12 13  2  0  0  0
 12 99  1  0  0  0
 13 14  1  0  0  0
 13 31  1  0  0  0
 14 15  2  0  0  0
 14100  1  0  0  0
 15101  1  0  0  0
 16 17  2  0  0  0
 16 21  1  0  0  0
 16 31  1  0  0  0
 17 18  1  0  0  0
 17102  1  0  0  0
 18 19  2  0  0  0
 18103  1  0  0  0
 19 20  1  0  0  0
 19 24  1  0  0  0
 20 21  2  0  0  0
 20104  1  0  0  0
 21 23  1  0  0  0
 22 28  1  0  0  0
 22 32  2  0  0  0
 26 27  1  0  0  0
 28105  1  0  0  0
 28106  1  0  0  0
 29107  1  0  0  0
 29108  1  0  0  0
 33 34  1  0  0  0
 33 66  1  0  0  0
 33 70  2  0  0  0
 34 36  1  0  0  0
 34 59  1  0  0  0
 34109  1  0  0  0
 35 44  2  0  0  0
 35 45  1  0  0  0
 35 68  1  0  0  0
 36 56  1  0  0  0
 36110  1  0  0  0
 37 39  1  0  0  0
 37 47  1  0  0  0
 37 66  1  0  0  0
 37111  1  0  0  0
 38 43  2  0  0  0
 38 46  1  0  0  0
 38 47  1  0  0  0
 39 64  1  0  0  0
 39 67  2  0  0  0
 40 52  1  0  0  0
 40 53  2  0  0  0
 40 58  1  0  0  0
 41112  1  0  0  0
 41113  1  0  0  0
 41114  1  0  0  0
 41 48  1  0  0  0
 42 43  1  0  0  0
 42 66  1  0  0  0
 42115  1  0  0  0
 42116  1  0  0  0
 43 44  1  0  0  0
 44117  1  0  0  0
 45 46  2  0  0  0
 45118  1  0  0  0
 46119  1  0  0  0
 47120  1  0  0  0
 47121  1  0  0  0
 48 56  1  0  0  0
 48 65  1  0  0  0
 48122  1  0  0  0
 49 50  1  0  0  0
 49 53  1  0  0  0
 49 64  1  0  0  0
 49123  1  0  0  0
 50 51  1  0  0  0
 50124  1  0  0  0
 50125  1  0  0  0
 51 52  1  0  0  0
 51126  1  0  0  0
 51127  1  0  0  0
 52128  1  0  0  0
 52129  1  0  0  0
 53 54  1  0  0  0
 54 55  2  0  0  0
 54130  1  0  0  0
 55 57  1  0  0  0
 55131  1  0  0  0
 56 69  2  0  0  0
 57 58  2  0  0  0
 57132  1  0  0  0
 58133  1  0  0  0
 59 60  1  0  0  0
 59 61  1  0  0  0
 59 62  1  0  0  0
 60134  1  0  0  0
 60135  1  0  0  0
 60136  1  0  0  0
 61137  1  0  0  0
 61138  1  0  0  0
 61139  1  0  0  0
 62140  1  0  0  0
 62141  1  0  0  0
 62142  1  0  0  0
 63 65  1  0  0  0
 63143  1  0  0  0
 63144  1  0  0  0
 63145  1  0  0  0
 64146  1  0  0  0
 65147  1  0  0  0
 68 83  1  0  0  0
 71 73  2  0  0  0
 71 75  1  0  0  0
 71148  1  0  0  0
 72 74  1  0  0  0
 72 76  2  0  0  0
 72149  1  0  0  0
 73 76  1  0  0  0
 73 84  1  0  0  0
 74 75  2  0  0  0
 74 85  1  0  0  0
 75 87  1  0  0  0
 76 88  1  0  0  0
 77 83  1  0  0  0
 77 84  1  0  0  0
 77 86  2  0  0  0
 78 79  2  0  0  0
 78150  1  0  0  0
 78151  1  0  0  0
 79 87  1  0  0  0
 79152  1  0  0  0
 80 81  1  0  0  0
 80 82  1  0  0  0
 80153  1  0  0  0
 80154  1  0  0  0
 81 83  1  0  0  0
 81155  1  0  0  0
 81156  1  0  0  0
 82 84  1  0  0  0
 82157  1  0  0  0
 82158  1  0  0  0
 83159  1  0  0  0
 85160  1  0  0  0
M  ISO  4   1 100  68 101  83 101  85 100
M  END
> <chiral flag>
0

> <version>
0

> <s_m_source_file>
/data/baiqing/PycharmProjects/Reinvent-master-3.2/result/LINK_invent/BTK/process_docking_weight1_custom_product_contain_oxygen_bond_distance_aromatic_linkinvent_7_9_3/rearranged_h_0089.sdf

> <i_m_source_file_index>
18

> <r_mmod_Potential_Energy-OPLS-2005>
600.964233398438

> <r_mmod_Stretch_Energy-OPLS-2005>
257.550842285156

> <r_mmod_Bend_Energy-OPLS-2005>
279.226043701172

> <r_mmod_Torsional_Energy-OPLS-2005>
275.87158203125

> <r_mmod_Improper_Torsional_Energy-OPLS-2005>
4.84756135940552

> <r_mmod_Van_der_Waal_Energy-OPLS-2005>
150.373184204102

> <r_mmod_Electrostatic_Energy-OPLS-2005>
-355.025848388672

> <r_mmod_Solvation_Energy-OPLS-2005>
-214.59423828125

> <b_mmod_Minimization_Converged-OPLS-2005>
0

> <r_mmod_RMS_Derivative-OPLS-2005>
4.65466356277466

$$$$
18
                    3D
 Structure written by MMmdl.
151159  0  0  1  0            999 V2000
  -30.6906  -14.5436   20.5184 C   0  0  0  0  0  0
  -30.4169  -12.3364   19.4421 C   0  0  0  0  0  0
  -29.4948  -12.4932   18.2154 C   0  0  0  0  0  0
  -28.0179  -12.3464   18.6291 C   0  0  0  0  0  0
  -27.6522  -13.2143   19.8630 C   0  0  2  0  0  0
  -28.6954  -13.0591   20.9924 C   0  0  0  0  0  0
  -25.2560  -13.8180   20.5685 C   0  0  0  0  0  0
  -24.1831  -13.0443   20.9204 C   0  0  0  0  0  0
  -24.6393  -11.6912   20.8751 C   0  0  0  0  0  0
  -23.9061  -10.4295   21.0414 C   0  0  0  0  0  0
  -24.3615   -9.4208   21.9189 C   0  0  0  0  0  0
  -23.6294   -8.2241   22.0755 C   0  0  0  0  0  0
  -22.4277   -8.0279   21.3543 C   0  0  0  0  0  0
  -21.9910   -9.0253   20.4647 C   0  0  0  0  0  0
  -22.7234  -10.2136   20.3061 C   0  0  0  0  0  0
  -21.6850   -6.0740   22.5282 C   0  0  0  0  0  0
  -21.4011   -6.5645   23.8216 C   0  0  0  0  0  0
  -21.3658   -5.6796   24.9177 C   0  0  0  0  0  0
  -21.6042   -4.3059   24.7226 C   0  0  0  0  0  0
  -21.8818   -3.8153   23.4348 C   0  0  0  0  0  0
  -21.9194   -4.6969   22.3405 C   0  0  0  0  0  0
  -22.7854  -13.5236   21.1859 C   0  0  0  0  0  0
  -22.1668   -4.2157   21.0983 F   0  0  0  0  0  0
  -21.5624   -3.4542   25.7739 F   0  0  0  0  0  0
  -30.0174  -13.3598   20.4248 N   0  0  0  0  0  0
  -26.2982  -12.9356   20.3322 N   0  0  0  0  0  0
  -25.9318  -11.6510   20.5765 N   0  0  0  0  0  0
  -22.0494  -12.8225   22.0410 N   0  0  0  0  0  0
  -25.4269  -15.1898   20.4069 N   0  0  0  0  0  0
  -31.8622  -14.6296   20.1391 O   0  0  0  0  0  0
  -21.6636   -6.8881   21.4243 O   0  0  0  0  0  0
  -22.3542  -14.5542   20.6706 O   0  0  0  0  0  0
  -24.6187  -31.8658   23.2076 C   0  0  0  0  0  0
  -25.9066  -32.4811   23.8389 C   0  0  1  0  0  0
  -27.2264  -27.3991   20.1074 C   0  0  0  0  0  0
  -25.5906  -33.8612   24.2318 N   0  0  0  0  0  0
  -23.4089  -30.4896   21.5483 C   0  0  2  0  0  0
  -24.8568  -28.9541   20.1112 C   0  0  0  0  0  0
  -22.7431  -29.4658   22.4970 C   0  0  0  0  0  0
  -18.0290  -28.1364   22.8494 C   0  0  0  0  0  0
  -24.1487  -36.7311   23.2639 C   0  0  0  0  0  0
  -25.9423  -30.8215   21.3664 C   0  0  0  0  0  0
  -26.0205  -29.4544   20.7113 C   0  0  0  0  0  0
  -27.2130  -28.6854   20.7044 C   0  0  0  0  0  0
  -26.0483  -26.9276   19.4913 C   0  0  0  0  0  0
  -24.8673  -27.6919   19.4945 C   0  0  0  0  0  0
  -23.6195  -29.8234   20.1629 C   0  0  0  0  0  0
  -25.4108  -36.3108   24.0337 C   0  0  1  0  0  0
  -20.5882  -28.3669   23.1306 C   0  0  2  0  0  0
  -20.6785  -26.9407   22.5396 C   0  0  0  0  0  0
  -19.5752  -26.6388   21.5205 C   0  0  0  0  0  0
  -18.1937  -26.7911   22.1627 C   0  0  0  0  0  0
  -19.1536  -28.8828   23.2902 C   0  0  0  0  0  0
  -18.9459  -30.1434   23.8909 C   0  0  0  0  0  0
  -17.6460  -30.6569   24.0561 C   0  0  0  0  0  0
  -25.9037  -34.9473   23.5123 C   0  0  0  0  0  0
  -16.5356  -29.9069   23.6320 C   0  0  0  0  0  0
  -16.7279  -28.6483   23.0351 C   0  0  0  0  0  0
  -26.4476  -31.6597   25.0728 C   0  0  0  0  0  0
  -25.3734  -31.3705   26.1467 C   0  0  0  0  0  0
  -27.0312  -30.3037   24.6121 C   0  0  0  0  0  0
  -27.6052  -32.4316   25.7488 C   0  0  0  0  0  0
  -27.5580  -37.1812   24.8466 C   0  0  0  0  0  0
  -21.4151  -29.3058   22.3722 N   0  0  0  0  0  0
  -26.4295  -37.3792   23.9407 N   0  0  0  0  0  0
  -24.6749  -31.0737   22.0988 N   0  0  0  0  0  0
  -23.4189  -28.8195   23.3022 O   0  0  0  0  0  0
  -28.3369  -26.5726   20.1332 O   0  0  0  0  0  0
  -26.5602  -34.8928   22.4687 O   0  0  0  0  0  0
  -23.5369  -32.1422   23.7451 O   0  0  0  0  0  0
  -27.0654  -18.7001   21.9071 C   0  0  0  0  0  0
  -28.0272  -17.6939   21.6921 C   0  0  0  0  0  0
  -27.3270  -20.0358   21.5454 C   0  0  0  0  0  0
  -29.5146  -19.3702   20.7285 C   0  0  0  0  0  0
  -29.2664  -18.0069   21.0890 C   0  0  0  0  0  0
  -28.5641  -20.4059   20.9649 C   0  0  0  0  0  0
  -28.6670  -24.1499   20.3628 C   0  0  0  0  0  0
  -28.1433  -25.3442   20.7531 C   0  0  0  0  0  0
  -30.3327  -16.9379   20.8849 C   0  0  0  0  0  0
  -28.3471  -22.9206   21.1087 C   0  0  0  0  0  0
  -28.8376  -21.7723   20.5683 N   0  0  0  0  0  0
  -29.9434  -15.6322   20.8507 N   0  0  0  0  0  0
  -31.4986  -17.3180   20.7273 O   0  0  0  0  0  0
  -27.7024  -22.9237   22.1618 O   0  0  0  0  0  0
  -31.4619  -12.4232   19.1395 H   0  0  0  0  0  0
  -30.3159  -11.3394   19.8744 H   0  0  0  0  0  0
  -29.7464  -11.7505   17.4566 H   0  0  0  0  0  0
  -29.6521  -13.4695   17.7541 H   0  0  0  0  0  0
  -27.8437  -11.2935   18.8528 H   0  0  0  0  0  0
  -27.3640  -12.5900   17.7911 H   0  0  0  0  0  0
  -27.6762  -14.2508   19.5267 H   0  0  0  0  0  0
  -28.6831  -12.0418   21.3876 H   0  0  0  0  0  0
  -28.4574  -13.7107   21.8346 H   0  0  0  0  0  0
  -25.2757   -9.5686   22.4764 H   0  0  0  0  0  0
  -24.0003   -7.4630   22.7471 H   0  0  0  0  0  0
  -21.0842   -8.8771   19.8950 H   0  0  0  0  0  0
  -22.3692  -10.9677   19.6173 H   0  0  0  0  0  0
  -21.2002   -7.6154   23.9722 H   0  0  0  0  0  0
  -21.1480   -6.0527   25.9080 H   0  0  0  0  0  0
  -22.0597   -2.7617   23.2847 H   0  0  0  0  0  0
  -22.4102  -11.9884   22.4797 H   0  0  0  0  0  0
  -21.1116  -13.1259   22.2612 H   0  0  0  0  0  0
  -24.6498  -15.8352   20.4949 H   0  0  0  0  0  0
  -26.2566  -15.6259   20.0269 H   0  0  0  0  0  0
  -26.7137  -32.5512   23.1154 H   0  0  0  0  0  0
  -25.0056  -33.9766   25.0460 H   0  0  0  0  0  0
  -22.6998  -31.3083   21.4084 H   0  0  0  0  0  0
  -23.3746  -35.9647   23.3308 H   0  0  0  0  0  0
  -24.3580  -36.8918   22.2051 H   0  0  0  0  0  0
  -23.7242  -37.6519   23.6647 H   0  0  0  0  0  0
  -26.0607  -31.5875   20.5989 H   0  0  0  0  0  0
  -26.8271  -30.8734   21.9891 H   0  0  0  0  0  0
  -28.1090  -29.0604   21.1786 H   0  0  0  0  0  0
  -26.0400  -25.9531   19.0239 H   0  0  0  0  0  0
  -23.9740  -27.3014   19.0262 H   0  0  0  0  0  0
  -23.7293  -30.5990   19.4042 H   0  0  0  0  0  0
  -22.7426  -29.2456   19.8659 H   0  0  0  0  0  0
  -25.1287  -36.1972   25.0830 H   0  0  0  0  0  0
  -20.9986  -28.3220   24.1419 H   0  0  0  0  0  0
  -21.6651  -26.7460   22.1169 H   0  0  0  0  0  0
  -20.5709  -26.2266   23.3574 H   0  0  0  0  0  0
  -19.6915  -25.6308   21.1213 H   0  0  0  0  0  0
  -19.6673  -27.3220   20.6751 H   0  0  0  0  0  0
  -17.4205  -26.6655   21.4027 H   0  0  0  0  0  0
  -18.0350  -26.0049   22.9024 H   0  0  0  0  0  0
  -19.7934  -30.7247   24.2283 H   0  0  0  0  0  0
  -17.5012  -31.6255   24.5148 H   0  0  0  0  0  0
  -15.5355  -30.2971   23.7628 H   0  0  0  0  0  0
  -15.8683  -28.0802   22.7060 H   0  0  0  0  0  0
  -24.5909  -30.7053   25.7793 H   0  0  0  0  0  0
  -24.8924  -32.2863   26.4916 H   0  0  0  0  0  0
  -25.8080  -30.8869   27.0225 H   0  0  0  0  0  0
  -26.2865  -29.6797   24.1164 H   0  0  0  0  0  0
  -27.4064  -29.7274   25.4587 H   0  0  0  0  0  0
  -27.8708  -30.4348   23.9290 H   0  0  0  0  0  0
  -27.2672  -33.3606   26.2089 H   0  0  0  0  0  0
  -28.3846  -32.6890   25.0304 H   0  0  0  0  0  0
  -28.0737  -31.8428   26.5383 H   0  0  0  0  0  0
  -28.2609  -38.0099   24.7512 H   0  0  0  0  0  0
  -28.1069  -36.2635   24.6298 H   0  0  0  0  0  0
  -27.2303  -37.1468   25.8871 H   0  0  0  0  0  0
  -20.9311  -29.8783   21.6947 H   0  0  0  0  0  0
  -26.0186  -38.2872   24.1400 H   0  0  0  0  0  0
  -26.1157  -18.4465   22.3583 H   0  0  0  0  0  0
  -27.7968  -16.6842   22.0031 H   0  0  0  0  0  0
  -26.5515  -20.7681   21.7180 H   0  0  0  0  0  0
  -30.4629  -19.6249   20.2760 H   0  0  0  0  0  0
  -29.3102  -24.1080   19.4962 H   0  0  0  0  0  0
  -27.4949  -25.4351   21.6162 H   0  0  0  0  0  0
  -29.4729  -21.8914   19.7914 H   0  0  0  0  0  0
  -28.9720  -15.4603   21.0380 H   0  0  0  0  0  0
  1 25  1  0  0  0
  1 30  2  0  0  0
  1 82  1  0  0  0
  2  3  1  0  0  0
  2 25  1  0  0  0
  2 85  1  0  0  0
  2 86  1  0  0  0
  3  4  1  0  0  0
  3 87  1  0  0  0
  3 88  1  0  0  0
  4  5  1  0  0  0
  4 89  1  0  0  0
  4 90  1  0  0  0
  5  6  1  0  0  0
  5 26  1  0  0  0
  5 91  1  0  0  0
  6 25  1  0  0  0
  6 92  1  0  0  0
  6 93  1  0  0  0
  7  8  2  0  0  0
  7 26  1  0  0  0
  7 29  1  0  0  0
  8  9  1  0  0  0
  8 22  1  0  0  0
  9 10  1  0  0  0
  9 27  2  0  0  0
 10 11  2  0  0  0
 10 15  1  0  0  0
 11 12  1  0  0  0
 11 94  1  0  0  0
 12 13  2  0  0  0
 12 95  1  0  0  0
 13 14  1  0  0  0
 13 31  1  0  0  0
 14 15  2  0  0  0
 14 96  1  0  0  0
 15 97  1  0  0  0
 16 17  2  0  0  0
 16 21  1  0  0  0
 16 31  1  0  0  0
 17 18  1  0  0  0
 17 98  1  0  0  0
 18 19  2  0  0  0
 18 99  1  0  0  0
 19 20  1  0  0  0
 19 24  1  0  0  0
 20 21  2  0  0  0
 20100  1  0  0  0
 21 23  1  0  0  0
 22 28  1  0  0  0
 22 32  2  0  0  0
 26 27  1  0  0  0
 28101  1  0  0  0
 28102  1  0  0  0
 29103  1  0  0  0
 29104  1  0  0  0
 33 34  1  0  0  0
 33 66  1  0  0  0
 33 70  2  0  0  0
 34 36  1  0  0  0
 34 59  1  0  0  0
 34105  1  0  0  0
 35 44  2  0  0  0
 35 45  1  0  0  0
 35 68  1  0  0  0
 36 56  1  0  0  0
 36106  1  0  0  0
 37 39  1  0  0  0
 37 47  1  0  0  0
 37 66  1  0  0  0
 37107  1  0  0  0
 38 43  2  0  0  0
 38 46  1  0  0  0
 38 47  1  0  0  0
 39 64  1  0  0  0
 39 67  2  0  0  0
 40 52  1  0  0  0
 40 53  2  0  0  0
 40 58  1  0  0  0
 41108  1  0  0  0
 41109  1  0  0  0
 41110  1  0  0  0
 41 48  1  0  0  0
 42 43  1  0  0  0
 42 66  1  0  0  0
 42111  1  0  0  0
 42112  1  0  0  0
 43 44  1  0  0  0
 44113  1  0  0  0
 45 46  2  0  0  0
 45114  1  0  0  0
 46115  1  0  0  0
 47116  1  0  0  0
 47117  1  0  0  0
 48 56  1  0  0  0
 48 65  1  0  0  0
 48118  1  0  0  0
 49 50  1  0  0  0
 49 53  1  0  0  0
 49 64  1  0  0  0
 49119  1  0  0  0
 50 51  1  0  0  0
 50120  1  0  0  0
 50121  1  0  0  0
 51 52  1  0  0  0
 51122  1  0  0  0
 51123  1  0  0  0
 52124  1  0  0  0
 52125  1  0  0  0
 53 54  1  0  0  0
 54 55  2  0  0  0
 54126  1  0  0  0
 55 57  1  0  0  0
 55127  1  0  0  0
 56 69  2  0  0  0
 57 58  2  0  0  0
 57128  1  0  0  0
 58129  1  0  0  0
 59 60  1  0  0  0
 59 61  1  0  0  0
 59 62  1  0  0  0
 60130  1  0  0  0
 60131  1  0  0  0
 60132  1  0  0  0
 61133  1  0  0  0
 61134  1  0  0  0
 61135  1  0  0  0
 62136  1  0  0  0
 62137  1  0  0  0
 62138  1  0  0  0
 63 65  1  0  0  0
 63139  1  0  0  0
 63140  1  0  0  0
 63141  1  0  0  0
 64142  1  0  0  0
 65143  1  0  0  0
 68 78  1  0  0  0
 71 72  2  0  0  0
 71 73  1  0  0  0
 71144  1  0  0  0
 72 75  1  0  0  0
 72145  1  0  0  0
 73 76  2  0  0  0
 73146  1  0  0  0
 74 75  2  0  0  0
 74 76  1  0  0  0
 74147  1  0  0  0
 75 79  1  0  0  0
 76 81  1  0  0  0
 77 78  2  0  0  0
 77 80  1  0  0  0
 77148  1  0  0  0
 78149  1  0  0  0
 79 82  1  0  0  0
 79 83  2  0  0  0
 80 81  1  0  0  0
 80 84  2  0  0  0
 81150  1  0  0  0
 82151  1  0  0  0
M  ISO  4   1 100  68 101  78 101  82 100
M  END
> <chiral flag>
0

> <version>
0

> <s_m_source_file>
/data/baiqing/PycharmProjects/Reinvent-master-3.2/result/LINK_invent/BTK/process_docking_weight1_custom_product_contain_oxygen_bond_distance_aromatic_linkinvent_7_9_3/rearranged_h_0089.sdf

> <i_m_source_file_index>
19

> <r_mmod_Potential_Energy-OPLS-2005>
-149.643798828125

> <r_mmod_Stretch_Energy-OPLS-2005>
49.2140274047852

> <r_mmod_Bend_Energy-OPLS-2005>
100.441253662109

> <r_mmod_Torsional_Energy-OPLS-2005>
230.571594238281

> <r_mmod_Improper_Torsional_Energy-OPLS-2005>
5.04714965820312

> <r_mmod_Van_der_Waal_Energy-OPLS-2005>
161.360702514648

> <r_mmod_Electrostatic_Energy-OPLS-2005>
-481.779266357422

> <r_mmod_Solvation_Energy-OPLS-2005>
-240.564544677734

> <b_mmod_Minimization_Converged-OPLS-2005>
0

> <r_mmod_RMS_Derivative-OPLS-2005>
0.726689279079437

$$$$
19
                    3D
 Structure written by MMmdl.
159168  0  0  1  0            999 V2000
  -30.6121  -14.6864   20.4685 C   0  0  0  0  0  0
  -30.4417  -12.4179   19.4543 C   0  0  0  0  0  0
  -29.5086  -12.5043   18.2256 C   0  0  0  0  0  0
  -28.0335  -12.3324   18.6413 C   0  0  0  0  0  0
  -27.6477  -13.2156   19.8573 C   0  0  2  0  0  0
  -28.6980  -13.1087   20.9864 C   0  0  0  0  0  0
  -25.2513  -13.8104   20.5699 C   0  0  0  0  0  0
  -24.1798  -13.0378   20.9215 C   0  0  0  0  0  0
  -24.6388  -11.6864   20.8757 C   0  0  0  0  0  0
  -23.9062  -10.4259   21.0413 C   0  0  0  0  0  0
  -24.3613   -9.4178   21.9192 C   0  0  0  0  0  0
  -23.6282   -8.2220   22.0757 C   0  0  0  0  0  0
  -22.4264   -8.0268   21.3545 C   0  0  0  0  0  0
  -21.9901   -9.0242   20.4646 C   0  0  0  0  0  0
  -22.7237  -10.2114   20.3057 C   0  0  0  0  0  0
  -21.6846   -6.0727   22.5279 C   0  0  0  0  0  0
  -21.4011   -6.5633   23.8211 C   0  0  0  0  0  0
  -21.3655   -5.6787   24.9174 C   0  0  0  0  0  0
  -21.6041   -4.3051   24.7227 C   0  0  0  0  0  0
  -21.8822   -3.8141   23.4348 C   0  0  0  0  0  0
  -21.9192   -4.6956   22.3404 C   0  0  0  0  0  0
  -22.7823  -13.5186   21.1864 C   0  0  0  0  0  0
  -22.1661   -4.2143   21.0980 F   0  0  0  0  0  0
  -21.5627   -3.4535   25.7741 F   0  0  0  0  0  0
  -30.0066  -13.4555   20.4101 N   0  0  0  0  0  0
  -26.2960  -12.9314   20.3312 N   0  0  0  0  0  0
  -25.9320  -11.6471   20.5772 N   0  0  0  0  0  0
  -22.0460  -12.8197   22.0427 N   0  0  0  0  0  0
  -25.4127  -15.1810   20.4104 N   0  0  0  0  0  0
  -31.7993  -14.8275   20.1609 O   0  0  0  0  0  0
  -21.6626   -6.8868   21.4240 O   0  0  0  0  0  0
  -22.3521  -14.5494   20.6705 O   0  0  0  0  0  0
  -24.6282  -31.8587   23.2019 C   0  0  0  0  0  0
  -25.9123  -32.4771   23.8354 C   0  0  1  0  0  0
  -27.2285  -27.3055   20.1144 C   0  0  0  0  0  0
  -25.5933  -33.8571   24.2280 N   0  0  0  0  0  0
  -23.4227  -30.4828   21.5451 C   0  0  2  0  0  0
  -24.8698  -28.9378   20.1118 C   0  0  0  0  0  0
  -22.7486  -29.4617   22.4928 C   0  0  0  0  0  0
  -18.0291  -28.1386   22.8481 C   0  0  0  0  0  0
  -24.1485  -36.7285   23.2638 C   0  0  0  0  0  0
  -25.9660  -30.7854   21.3755 C   0  0  0  0  0  0
  -26.0408  -29.4123   20.7157 C   0  0  0  0  0  0
  -27.2225  -28.6093   20.7059 C   0  0  0  0  0  0
  -26.0281  -26.8879   19.4906 C   0  0  0  0  0  0
  -24.8661  -27.6810   19.4910 C   0  0  0  0  0  0
  -23.6389  -29.8201   20.1602 C   0  0  0  0  0  0
  -25.4110  -36.3074   24.0328 C   0  0  1  0  0  0
  -20.5892  -28.3690   23.1275 C   0  0  2  0  0  0
  -20.6780  -26.9410   22.5408 C   0  0  0  0  0  0
  -19.5756  -26.6383   21.5209 C   0  0  0  0  0  0
  -18.1936  -26.7929   22.1621 C   0  0  0  0  0  0
  -19.1544  -28.8855   23.2875 C   0  0  0  0  0  0
  -18.9467  -30.1456   23.8895 C   0  0  0  0  0  0
  -17.6466  -30.6584   24.0567 C   0  0  0  0  0  0
  -25.9051  -34.9445   23.5103 C   0  0  0  0  0  0
  -16.5358  -29.9084   23.6329 C   0  0  0  0  0  0
  -16.7278  -28.6503   23.0345 C   0  0  0  0  0  0
  -26.4500  -31.6581   25.0727 C   0  0  0  0  0  0
  -25.3733  -31.3723   26.1455 C   0  0  0  0  0  0
  -27.0341  -30.3001   24.6187 C   0  0  0  0  0  0
  -27.6060  -32.4313   25.7498 C   0  0  0  0  0  0
  -27.5575  -37.1796   24.8464 C   0  0  0  0  0  0
  -21.4197  -29.3040   22.3665 N   0  0  0  0  0  0
  -26.4283  -37.3773   23.9411 N   0  0  0  0  0  0
  -24.6912  -31.0588   22.0977 N   0  0  0  0  0  0
  -23.4201  -28.8155   23.3013 O   0  0  0  0  0  0
  -28.3457  -26.4471   20.1602 O   0  0  0  0  0  0
  -26.5619  -34.8915   22.4669 O   0  0  0  0  0  0
  -23.5441  -32.1392   23.7339 O   0  0  0  0  0  0
  -31.1033  -19.3384   21.1187 C   0  0  0  0  0  0
  -31.0211  -17.9131   21.1402 C   0  0  0  0  0  0
  -29.0638  -19.4774   19.8795 C   0  0  0  0  0  0
  -28.9669  -18.0463   19.9021 C   0  0  0  0  0  0
  -30.1436  -20.1841   20.4730 C   0  0  0  0  0  0
  -29.9488  -17.2151   20.5327 C   0  0  0  0  0  0
  -29.1983  -22.6042   20.3266 C   0  0  0  0  0  0
  -29.3035  -23.9796   20.1961 C   0  0  0  0  0  0
  -31.5578  -22.1969   20.3024 C   0  0  0  0  0  0
  -30.6795  -24.6101   20.1483 C   0  0  0  0  0  0
  -31.7636  -23.6674   20.6947 C   0  0  0  0  0  0
  -27.7675  -17.4249   19.2143 C   0  0  0  0  0  0
  -28.1138  -24.9865   19.9868 C   0  0  0  0  0  0
  -30.3032  -21.6674   20.4096 N   0  0  0  0  0  0
  -29.7677  -15.7584   20.6458 N   0  0  0  0  0  0
  -32.5472  -21.5689   19.9053 O   0  0  0  0  0  0
  -31.4811  -12.5509   19.1492 H   0  0  0  0  0  0
  -30.3871  -11.4304   19.9153 H   0  0  0  0  0  0
  -29.7803  -11.7449   17.4910 H   0  0  0  0  0  0
  -29.6398  -13.4682   17.7312 H   0  0  0  0  0  0
  -27.8825  -11.2810   18.8885 H   0  0  0  0  0  0
  -27.3758  -12.5428   17.7970 H   0  0  0  0  0  0
  -27.6495  -14.2417   19.4950 H   0  0  0  0  0  0
  -28.7222  -12.0980   21.3963 H   0  0  0  0  0  0
  -28.4439  -13.7654   21.8202 H   0  0  0  0  0  0
  -25.2759   -9.5648   22.4766 H   0  0  0  0  0  0
  -23.9984   -7.4608   22.7477 H   0  0  0  0  0  0
  -21.0831   -8.8768   19.8952 H   0  0  0  0  0  0
  -22.3706  -10.9658   19.6166 H   0  0  0  0  0  0
  -21.2005   -7.6142   23.9714 H   0  0  0  0  0  0
  -21.1471   -6.0517   25.9075 H   0  0  0  0  0  0
  -22.0606   -2.7603   23.2853 H   0  0  0  0  0  0
  -22.4070  -11.9861   22.4824 H   0  0  0  0  0  0
  -21.1081  -13.1236   22.2626 H   0  0  0  0  0  0
  -24.6344  -15.8235   20.5115 H   0  0  0  0  0  0
  -26.2448  -15.6209   20.0455 H   0  0  0  0  0  0
  -26.7193  -32.5437   23.1104 H   0  0  0  0  0  0
  -25.0080  -33.9716   25.0424 H   0  0  0  0  0  0
  -22.7172  -31.3039   21.4024 H   0  0  0  0  0  0
  -23.3748  -35.9617   23.3301 H   0  0  0  0  0  0
  -24.3579  -36.8907   22.2053 H   0  0  0  0  0  0
  -23.7239  -37.6485   23.6663 H   0  0  0  0  0  0
  -26.0999  -31.5491   20.6082 H   0  0  0  0  0  0
  -26.8456  -30.8334   22.0058 H   0  0  0  0  0  0
  -28.1202  -28.9702   21.1880 H   0  0  0  0  0  0
  -25.9497  -25.9297   19.0011 H   0  0  0  0  0  0
  -23.9685  -27.3105   19.0150 H   0  0  0  0  0  0
  -23.7620  -30.5987   19.4064 H   0  0  0  0  0  0
  -22.7582  -29.2528   19.8540 H   0  0  0  0  0  0
  -25.1290  -36.1922   25.0820 H   0  0  0  0  0  0
  -20.9986  -28.3270   24.1395 H   0  0  0  0  0  0
  -20.5675  -26.2300   23.3609 H   0  0  0  0  0  0
  -21.6650  -26.7436   22.1205 H   0  0  0  0  0  0
  -19.6918  -25.6295   21.1235 H   0  0  0  0  0  0
  -19.6693  -27.3194   20.6739 H   0  0  0  0  0  0
  -17.4205  -26.6671   21.4027 H   0  0  0  0  0  0
  -18.0341  -26.0073   22.9019 H   0  0  0  0  0  0
  -19.7944  -30.7271   24.2262 H   0  0  0  0  0  0
  -17.5021  -31.6261   24.5176 H   0  0  0  0  0  0
  -15.5358  -30.2984   23.7656 H   0  0  0  0  0  0
  -15.8679  -28.0821   22.7058 H   0  0  0  0  0  0
  -24.5911  -30.7065   25.7790 H   0  0  0  0  0  0
  -24.8920  -32.2889   26.4874 H   0  0  0  0  0  0
  -25.8060  -30.8910   27.0234 H   0  0  0  0  0  0
  -26.2914  -29.6750   24.1215 H   0  0  0  0  0  0
  -27.4040  -29.7259   25.4692 H   0  0  0  0  0  0
  -27.8784  -30.4284   23.9410 H   0  0  0  0  0  0
  -27.2672  -33.3614   26.2075 H   0  0  0  0  0  0
  -28.3871  -32.6872   25.0327 H   0  0  0  0  0  0
  -28.0725  -31.8437   26.5416 H   0  0  0  0  0  0
  -28.2591  -38.0095   24.7513 H   0  0  0  0  0  0
  -28.1071  -36.2628   24.6280 H   0  0  0  0  0  0
  -27.2298  -37.1437   25.8868 H   0  0  0  0  0  0
  -20.9379  -29.8755   21.6867 H   0  0  0  0  0  0
  -26.0160  -38.2842   24.1428 H   0  0  0  0  0  0
  -31.9504  -19.7825   21.6219 H   0  0  0  0  0  0
  -31.7886  -17.3573   21.6604 H   0  0  0  0  0  0
  -28.2959  -20.0401   19.3677 H   0  0  0  0  0  0
  -28.2346  -22.1173   20.3395 H   0  0  0  0  0  0
  -30.6807  -25.5284   20.7362 H   0  0  0  0  0  0
  -30.9002  -24.8933   19.1182 H   0  0  0  0  0  0
  -32.7504  -24.0067   20.3796 H   0  0  0  0  0  0
  -31.7594  -23.7052   21.7845 H   0  0  0  0  0  0
  -27.4015  -18.0666   18.4123 H   0  0  0  0  0  0
  -26.9612  -17.3008   19.9343 H   0  0  0  0  0  0
  -28.0093  -16.4614   18.7669 H   0  0  0  0  0  0
  -27.2903  -24.6655   20.6266 H   0  0  0  0  0  0
  -27.7979  -24.8239   18.9562 H   0  0  0  0  0  0
  -28.8091  -15.4681   20.7534 H   0  0  0  0  0  0
  1 25  1  0  0  0
  1 30  2  0  0  0
  1 85  1  0  0  0
  2  3  1  0  0  0
  2 25  1  0  0  0
  2 87  1  0  0  0
  2 88  1  0  0  0
  3  4  1  0  0  0
  3 89  1  0  0  0
  3 90  1  0  0  0
  4  5  1  0  0  0
  4 91  1  0  0  0
  4 92  1  0  0  0
  5  6  1  0  0  0
  5 26  1  0  0  0
  5 93  1  0  0  0
  6 25  1  0  0  0
  6 94  1  0  0  0
  6 95  1  0  0  0
  7  8  2  0  0  0
  7 26  1  0  0  0
  7 29  1  0  0  0
  8  9  1  0  0  0
  8 22  1  0  0  0
  9 10  1  0  0  0
  9 27  2  0  0  0
 10 11  2  0  0  0
 10 15  1  0  0  0
 11 12  1  0  0  0
 11 96  1  0  0  0
 12 13  2  0  0  0
 12 97  1  0  0  0
 13 14  1  0  0  0
 13 31  1  0  0  0
 14 15  2  0  0  0
 14 98  1  0  0  0
 15 99  1  0  0  0
 16 17  2  0  0  0
 16 21  1  0  0  0
 16 31  1  0  0  0
 17 18  1  0  0  0
 17100  1  0  0  0
 18 19  2  0  0  0
 18101  1  0  0  0
 19 20  1  0  0  0
 19 24  1  0  0  0
 20 21  2  0  0  0
 20102  1  0  0  0
 21 23  1  0  0  0
 22 28  1  0  0  0
 22 32  2  0  0  0
 26 27  1  0  0  0
 28103  1  0  0  0
 28104  1  0  0  0
 29105  1  0  0  0
 29106  1  0  0  0
 33 34  1  0  0  0
 33 66  1  0  0  0
 33 70  2  0  0  0
 34 36  1  0  0  0
 34 59  1  0  0  0
 34107  1  0  0  0
 35 44  2  0  0  0
 35 45  1  0  0  0
 35 68  1  0  0  0
 36 56  1  0  0  0
 36108  1  0  0  0
 37 39  1  0  0  0
 37 47  1  0  0  0
 37 66  1  0  0  0
 37109  1  0  0  0
 38 43  2  0  0  0
 38 46  1  0  0  0
 38 47  1  0  0  0
 39 64  1  0  0  0
 39 67  2  0  0  0
 40 52  1  0  0  0
 40 53  2  0  0  0
 40 58  1  0  0  0
 41110  1  0  0  0
 41111  1  0  0  0
 41112  1  0  0  0
 41 48  1  0  0  0
 42 43  1  0  0  0
 42 66  1  0  0  0
 42113  1  0  0  0
 42114  1  0  0  0
 43 44  1  0  0  0
 44115  1  0  0  0
 45 46  2  0  0  0
 45116  1  0  0  0
 46117  1  0  0  0
 47118  1  0  0  0
 47119  1  0  0  0
 48 56  1  0  0  0
 48 65  1  0  0  0
 48120  1  0  0  0
 49 50  1  0  0  0
 49 53  1  0  0  0
 49 64  1  0  0  0
 49121  1  0  0  0
 50 51  1  0  0  0
 50122  1  0  0  0
 50123  1  0  0  0
 51 52  1  0  0  0
 51124  1  0  0  0
 51125  1  0  0  0
 52126  1  0  0  0
 52127  1  0  0  0
 53 54  1  0  0  0
 54 55  2  0  0  0
 54128  1  0  0  0
 55 57  1  0  0  0
 55129  1  0  0  0
 56 69  2  0  0  0
 57 58  2  0  0  0
 57130  1  0  0  0
 58131  1  0  0  0
 59 60  1  0  0  0
 59 61  1  0  0  0
 59 62  1  0  0  0
 60132  1  0  0  0
 60133  1  0  0  0
 60134  1  0  0  0
 61135  1  0  0  0
 61136  1  0  0  0
 61137  1  0  0  0
 62138  1  0  0  0
 62139  1  0  0  0
 62140  1  0  0  0
 63 65  1  0  0  0
 63141  1  0  0  0
 63142  1  0  0  0
 63143  1  0  0  0
 64144  1  0  0  0
 65145  1  0  0  0
 68 83  1  0  0  0
 71 72  2  0  0  0
 71 75  1  0  0  0
 71146  1  0  0  0
 72 76  1  0  0  0
 72147  1  0  0  0
 73 74  1  0  0  0
 73 75  2  0  0  0
 73148  1  0  0  0
 74 76  2  0  0  0
 74 82  1  0  0  0
 75 84  1  0  0  0
 76 85  1  0  0  0
 77 78  2  0  0  0
 77 84  1  0  0  0
 77149  1  0  0  0
 78 80  1  0  0  0
 78 83  1  0  0  0
 79 81  1  0  0  0
 79 84  1  0  0  0
 79 86  2  0  0  0
 80 81  1  0  0  0
 80150  1  0  0  0
 80151  1  0  0  0
 81152  1  0  0  0
 81153  1  0  0  0
 82154  1  0  0  0
 82155  1  0  0  0
 82156  1  0  0  0
 83157  1  0  0  0
 83158  1  0  0  0
 85159  1  0  0  0
M  ISO  4   1 100  68 101  83 101  85 100
M  END
> <chiral flag>
0

> <version>
0

> <s_m_source_file>
/data/baiqing/PycharmProjects/Reinvent-master-3.2/result/LINK_invent/BTK/process_docking_weight1_custom_product_contain_oxygen_bond_distance_aromatic_linkinvent_7_9_3/rearranged_h_0089.sdf

> <i_m_source_file_index>
20

> <r_mmod_Potential_Energy-OPLS-2005>
184.518112182617

> <r_mmod_Stretch_Energy-OPLS-2005>
99.4682922363281

> <r_mmod_Bend_Energy-OPLS-2005>
137.123489379883

> <r_mmod_Torsional_Energy-OPLS-2005>
269.059967041016

> <r_mmod_Improper_Torsional_Energy-OPLS-2005>
6.4351544380188

> <r_mmod_Van_der_Waal_Energy-OPLS-2005>
165.615219116211

> <r_mmod_Electrostatic_Energy-OPLS-2005>
-330.809020996094

> <r_mmod_Solvation_Energy-OPLS-2005>
-223.611587524414

> <b_mmod_Minimization_Converged-OPLS-2005>
0

> <r_mmod_RMS_Derivative-OPLS-2005>
0.472036898136139

$$$$
20
                    3D
 Structure written by MMmdl.
149157  0  0  1  0            999 V2000
  -30.6926  -14.6550   20.5007 C   0  0  0  0  0  0
  -30.4141  -12.4132   19.4445 C   0  0  0  0  0  0
  -29.4872  -12.4865   18.2152 C   0  0  0  0  0  0
  -28.0198  -12.3189   18.6485 C   0  0  0  0  0  0
  -27.6411  -13.2259   19.8493 C   0  0  2  0  0  0
  -28.6928  -13.1524   20.9766 C   0  0  0  0  0  0
  -25.2536  -13.8194   20.5694 C   0  0  0  0  0  0
  -24.1818  -13.0453   20.9210 C   0  0  0  0  0  0
  -24.6391  -11.6926   20.8767 C   0  0  0  0  0  0
  -23.9067  -10.4305   21.0423 C   0  0  0  0  0  0
  -24.3629   -9.4209   21.9193 C   0  0  0  0  0  0
  -23.6298   -8.2248   22.0758 C   0  0  0  0  0  0
  -22.4276   -8.0297   21.3548 C   0  0  0  0  0  0
  -21.9910   -9.0273   20.4655 C   0  0  0  0  0  0
  -22.7240  -10.2154   20.3067 C   0  0  0  0  0  0
  -21.6856   -6.0746   22.5282 C   0  0  0  0  0  0
  -21.4009   -6.5644   23.8217 C   0  0  0  0  0  0
  -21.3641   -5.6790   24.9176 C   0  0  0  0  0  0
  -21.6039   -4.3060   24.7223 C   0  0  0  0  0  0
  -21.8825   -3.8152   23.4343 C   0  0  0  0  0  0
  -21.9195   -4.6967   22.3404 C   0  0  0  0  0  0
  -22.7843  -13.5249   21.1848 C   0  0  0  0  0  0
  -22.1672   -4.2161   21.0979 F   0  0  0  0  0  0
  -21.5613   -3.4538   25.7729 F   0  0  0  0  0  0
  -29.9897  -13.4811   20.3777 N   0  0  0  0  0  0
  -26.2952  -12.9389   20.3321 N   0  0  0  0  0  0
  -25.9327  -11.6543   20.5814 N   0  0  0  0  0  0
  -22.0482  -12.8257   22.0404 N   0  0  0  0  0  0
  -25.4244  -15.1910   20.4049 N   0  0  0  0  0  0
  -31.8879  -14.6575   20.1953 O   0  0  0  0  0  0
  -21.6641   -6.8890   21.4249 O   0  0  0  0  0  0
  -22.3540  -14.5542   20.6666 O   0  0  0  0  0  0
  -24.6287  -31.8592   23.2028 C   0  0  0  0  0  0
  -25.9142  -32.4752   23.8353 C   0  0  1  0  0  0
  -27.2090  -27.2923   20.1166 C   0  0  0  0  0  0
  -25.5977  -33.8549   24.2292 N   0  0  0  0  0  0
  -23.4227  -30.4885   21.5460 C   0  0  2  0  0  0
  -24.8677  -28.9524   20.1085 C   0  0  0  0  0  0
  -22.7494  -29.4638   22.4908 C   0  0  0  0  0  0
  -18.0302  -28.1376   22.8472 C   0  0  0  0  0  0
  -24.1491  -36.7266   23.2628 C   0  0  0  0  0  0
  -25.9693  -30.7821   21.3822 C   0  0  0  0  0  0
  -26.0403  -29.4099   20.7231 C   0  0  0  0  0  0
  -27.2123  -28.5905   20.7247 C   0  0  0  0  0  0
  -26.0162  -26.9197   19.4479 C   0  0  0  0  0  0
  -24.8591  -27.7123   19.4626 C   0  0  0  0  0  0
  -23.6377  -29.8324   20.1595 C   0  0  0  0  0  0
  -25.4108  -36.3044   24.0321 C   0  0  1  0  0  0
  -20.5900  -28.3693   23.1246 C   0  0  2  0  0  0
  -20.6775  -26.9410   22.5392 C   0  0  0  0  0  0
  -19.5756  -26.6377   21.5185 C   0  0  0  0  0  0
  -18.1947  -26.7915   22.1609 C   0  0  0  0  0  0
  -19.1553  -28.8850   23.2861 C   0  0  0  0  0  0
  -18.9473  -30.1447   23.8883 C   0  0  0  0  0  0
  -17.6475  -30.6574   24.0549 C   0  0  0  0  0  0
  -25.9062  -34.9421   23.5094 C   0  0  0  0  0  0
  -16.5363  -29.9071   23.6322 C   0  0  0  0  0  0
  -16.7288  -28.6491   23.0341 C   0  0  0  0  0  0
  -26.4518  -31.6558   25.0724 C   0  0  0  0  0  0
  -25.3759  -31.3746   26.1473 C   0  0  0  0  0  0
  -27.0331  -30.2949   24.6190 C   0  0  0  0  0  0
  -27.6072  -32.4298   25.7501 C   0  0  0  0  0  0
  -27.5574  -37.1781   24.8460 C   0  0  0  0  0  0
  -21.4206  -29.3048   22.3645 N   0  0  0  0  0  0
  -26.4275  -37.3742   23.9420 N   0  0  0  0  0  0
  -24.6920  -31.0605   22.0992 N   0  0  0  0  0  0
  -23.4213  -28.8160   23.2982 O   0  0  0  0  0  0
  -28.2830  -26.3750   20.2009 O   0  0  0  0  0  0
  -26.5606  -34.8879   22.4646 O   0  0  0  0  0  0
  -23.5449  -32.1415   23.7348 O   0  0  0  0  0  0
  -30.7832  -19.6168   20.8524 C   0  0  0  0  0  0
  -28.5795  -18.7097   20.5985 C   0  0  0  0  0  0
  -30.2931  -20.9495   20.7112 C   0  0  0  0  0  0
  -28.0886  -20.0485   20.4466 C   0  0  0  0  0  0
  -29.9600  -18.4486   20.8053 C   0  0  0  0  0  0
  -28.9179  -21.2104   20.4950 C   0  0  0  0  0  0
  -28.8226  -23.7094   20.3303 C   0  0  0  0  0  0
  -30.6014  -17.0510   21.0396 C   0  0  0  0  0  0
  -27.9420  -24.9499   19.9055 C   0  0  0  0  0  0
  -28.3187  -22.5029   20.2790 N   0  0  0  0  0  0
  -30.0162  -15.8426   20.7199 N   0  0  0  0  0  0
  -31.7342  -17.0829   21.5388 O   0  0  0  0  0  0
  -31.4545  -12.5074   19.1295 H   0  0  0  0  0  0
  -30.3403  -11.4362   19.9254 H   0  0  0  0  0  0
  -29.7519  -11.7129   17.4926 H   0  0  0  0  0  0
  -29.6172  -13.4423   17.7050 H   0  0  0  0  0  0
  -27.8818  -11.2730   18.9266 H   0  0  0  0  0  0
  -27.3504  -12.4998   17.8075 H   0  0  0  0  0  0
  -27.6397  -14.2471   19.4688 H   0  0  0  0  0  0
  -28.7213  -12.1532   21.4140 H   0  0  0  0  0  0
  -28.4487  -13.8391   21.7883 H   0  0  0  0  0  0
  -25.2783   -9.5684   22.4764 H   0  0  0  0  0  0
  -24.0001   -7.4637   22.7479 H   0  0  0  0  0  0
  -21.0831   -8.8802   19.8972 H   0  0  0  0  0  0
  -22.3699  -10.9698   19.6182 H   0  0  0  0  0  0
  -21.2015   -7.6157   23.9722 H   0  0  0  0  0  0
  -21.1439   -6.0524   25.9077 H   0  0  0  0  0  0
  -22.0618   -2.7616   23.2847 H   0  0  0  0  0  0
  -22.4095  -11.9941   22.4828 H   0  0  0  0  0  0
  -21.1113  -13.1317   22.2600 H   0  0  0  0  0  0
  -24.6530  -15.8434   20.4929 H   0  0  0  0  0  0
  -26.2590  -15.6156   20.0225 H   0  0  0  0  0  0
  -26.7204  -32.5420   23.1094 H   0  0  0  0  0  0
  -25.0162  -33.9676   25.0465 H   0  0  0  0  0  0
  -22.7163  -31.3091   21.4049 H   0  0  0  0  0  0
  -23.3736  -35.9618   23.3282 H   0  0  0  0  0  0
  -24.3598  -36.8892   22.2048 H   0  0  0  0  0  0
  -23.7250  -37.6466   23.6652 H   0  0  0  0  0  0
  -26.1077  -31.5456   20.6161 H   0  0  0  0  0  0
  -26.8460  -30.8239   22.0166 H   0  0  0  0  0  0
  -28.1030  -28.9300   21.2347 H   0  0  0  0  0  0
  -25.9228  -25.9876   18.9124 H   0  0  0  0  0  0
  -23.9662  -27.3559   18.9688 H   0  0  0  0  0  0
  -23.7580  -30.6121   19.4064 H   0  0  0  0  0  0
  -22.7568  -29.2645   19.8555 H   0  0  0  0  0  0
  -25.1270  -36.1873   25.0803 H   0  0  0  0  0  0
  -20.9995  -28.3274   24.1360 H   0  0  0  0  0  0
  -20.5629  -26.2313   23.3602 H   0  0  0  0  0  0
  -21.6645  -26.7403   22.1208 H   0  0  0  0  0  0
  -19.6918  -25.6284   21.1227 H   0  0  0  0  0  0
  -19.6683  -27.3173   20.6704 H   0  0  0  0  0  0
  -17.4193  -26.6634   21.4038 H   0  0  0  0  0  0
  -18.0376  -26.0064   22.9020 H   0  0  0  0  0  0
  -19.7951  -30.7263   24.2249 H   0  0  0  0  0  0
  -17.5024  -31.6249   24.5157 H   0  0  0  0  0  0
  -15.5359  -30.2965   23.7639 H   0  0  0  0  0  0
  -15.8690  -28.0797   22.7061 H   0  0  0  0  0  0
  -24.5929  -30.7060   25.7869 H   0  0  0  0  0  0
  -24.8952  -32.2932   26.4846 H   0  0  0  0  0  0
  -25.8106  -30.9000   27.0280 H   0  0  0  0  0  0
  -26.2907  -29.6729   24.1169 H   0  0  0  0  0  0
  -27.3955  -29.7158   25.4697 H   0  0  0  0  0  0
  -27.8815  -30.4191   23.9454 H   0  0  0  0  0  0
  -27.2667  -33.3595   26.2074 H   0  0  0  0  0  0
  -28.3898  -32.6873   25.0351 H   0  0  0  0  0  0
  -28.0722  -31.8424   26.5435 H   0  0  0  0  0  0
  -28.2560  -38.0103   24.7499 H   0  0  0  0  0  0
  -28.1087  -36.2626   24.6266 H   0  0  0  0  0  0
  -27.2306  -37.1415   25.8865 H   0  0  0  0  0  0
  -20.9383  -29.8799   21.6879 H   0  0  0  0  0  0
  -26.0139  -38.2797   24.1445 H   0  0  0  0  0  0
  -31.8469  -19.4985   21.0060 H   0  0  0  0  0  0
  -27.8793  -17.8876   20.5549 H   0  0  0  0  0  0
  -30.9991  -21.7664   20.7630 H   0  0  0  0  0  0
  -27.0267  -20.1809   20.2839 H   0  0  0  0  0  0
  -29.8522  -23.9274   20.6277 H   0  0  0  0  0  0
  -26.9697  -24.7354   20.3514 H   0  0  0  0  0  0
  -27.8192  -24.8702   18.8244 H   0  0  0  0  0  0
  -29.0185  -15.8354   20.5963 H   0  0  0  0  0  0
  1 25  1  0  0  0
  1 30  2  0  0  0
  1 81  1  0  0  0
  2  3  1  0  0  0
  2 25  1  0  0  0
  2 83  1  0  0  0
  2 84  1  0  0  0
  3  4  1  0  0  0
  3 85  1  0  0  0
  3 86  1  0  0  0
  4  5  1  0  0  0
  4 87  1  0  0  0
  4 88  1  0  0  0
  5  6  1  0  0  0
  5 26  1  0  0  0
  5 89  1  0  0  0
  6 25  1  0  0  0
  6 90  1  0  0  0
  6 91  1  0  0  0
  7  8  2  0  0  0
  7 26  1  0  0  0
  7 29  1  0  0  0
  8  9  1  0  0  0
  8 22  1  0  0  0
  9 10  1  0  0  0
  9 27  2  0  0  0
 10 11  2  0  0  0
 10 15  1  0  0  0
 11 12  1  0  0  0
 11 92  1  0  0  0
 12 13  2  0  0  0
 12 93  1  0  0  0
 13 14  1  0  0  0
 13 31  1  0  0  0
 14 15  2  0  0  0
 14 94  1  0  0  0
 15 95  1  0  0  0
 16 17  2  0  0  0
 16 21  1  0  0  0
 16 31  1  0  0  0
 17 18  1  0  0  0
 17 96  1  0  0  0
 18 19  2  0  0  0
 18 97  1  0  0  0
 19 20  1  0  0  0
 19 24  1  0  0  0
 20 21  2  0  0  0
 20 98  1  0  0  0
 21 23  1  0  0  0
 22 28  1  0  0  0
 22 32  2  0  0  0
 26 27  1  0  0  0
 28 99  1  0  0  0
 28100  1  0  0  0
 29101  1  0  0  0
 29102  1  0  0  0
 33 34  1  0  0  0
 33 66  1  0  0  0
 33 70  2  0  0  0
 34 36  1  0  0  0
 34 59  1  0  0  0
 34103  1  0  0  0
 35 44  2  0  0  0
 35 45  1  0  0  0
 35 68  1  0  0  0
 36 56  1  0  0  0
 36104  1  0  0  0
 37 39  1  0  0  0
 37 47  1  0  0  0
 37 66  1  0  0  0
 37105  1  0  0  0
 38 43  2  0  0  0
 38 46  1  0  0  0
 38 47  1  0  0  0
 39 64  1  0  0  0
 39 67  2  0  0  0
 40 52  1  0  0  0
 40 53  2  0  0  0
 40 58  1  0  0  0
 41106  1  0  0  0
 41107  1  0  0  0
 41108  1  0  0  0
 41 48  1  0  0  0
 42 43  1  0  0  0
 42 66  1  0  0  0
 42109  1  0  0  0
 42110  1  0  0  0
 43 44  1  0  0  0
 44111  1  0  0  0
 45 46  2  0  0  0
 45112  1  0  0  0
 46113  1  0  0  0
 47114  1  0  0  0
 47115  1  0  0  0
 48 56  1  0  0  0
 48 65  1  0  0  0
 48116  1  0  0  0
 49 50  1  0  0  0
 49 53  1  0  0  0
 49 64  1  0  0  0
 49117  1  0  0  0
 50 51  1  0  0  0
 50118  1  0  0  0
 50119  1  0  0  0
 51 52  1  0  0  0
 51120  1  0  0  0
 51121  1  0  0  0
 52122  1  0  0  0
 52123  1  0  0  0
 53 54  1  0  0  0
 54 55  2  0  0  0
 54124  1  0  0  0
 55 57  1  0  0  0
 55125  1  0  0  0
 56 69  2  0  0  0
 57 58  2  0  0  0
 57126  1  0  0  0
 58127  1  0  0  0
 59 60  1  0  0  0
 59 61  1  0  0  0
 59 62  1  0  0  0
 60128  1  0  0  0
 60129  1  0  0  0
 60130  1  0  0  0
 61131  1  0  0  0
 61132  1  0  0  0
 61133  1  0  0  0
 62134  1  0  0  0
 62135  1  0  0  0
 62136  1  0  0  0
 63 65  1  0  0  0
 63137  1  0  0  0
 63138  1  0  0  0
 63139  1  0  0  0
 64140  1  0  0  0
 65141  1  0  0  0
 68 79  1  0  0  0
 71 73  2  0  0  0
 71 75  1  0  0  0
 71142  1  0  0  0
 72 74  1  0  0  0
 72 75  2  0  0  0
 72143  1  0  0  0
 73 76  1  0  0  0
 73144  1  0  0  0
 74 76  2  0  0  0
 74145  1  0  0  0
 75 78  1  0  0  0
 76 80  1  0  0  0
 77 79  1  0  0  0
 77 80  2  0  0  0
 77146  1  0  0  0
 78 81  1  0  0  0
 78 82  2  0  0  0
 79147  1  0  0  0
 79148  1  0  0  0
 81149  1  0  0  0
M  ISO  4   1 100  68 101  79 101  81 100
M  END
> <chiral flag>
0

> <version>
0

> <s_m_source_file>
/data/baiqing/PycharmProjects/Reinvent-master-3.2/result/LINK_invent/BTK/process_docking_weight1_custom_product_contain_oxygen_bond_distance_aromatic_linkinvent_7_9_3/rearranged_h_0089.sdf

> <i_m_source_file_index>
21

> <r_mmod_Potential_Energy-OPLS-2005>
84.0784530639648

> <r_mmod_Stretch_Energy-OPLS-2005>
90.4449844360352

> <r_mmod_Bend_Energy-OPLS-2005>
179.62939453125

> <r_mmod_Torsional_Energy-OPLS-2005>
223.521301269531

> <r_mmod_Improper_Torsional_Energy-OPLS-2005>
5.85580825805664

> <r_mmod_Van_der_Waal_Energy-OPLS-2005>
166.438491821289

> <r_mmod_Electrostatic_Energy-OPLS-2005>
-419.933715820312

> <r_mmod_Solvation_Energy-OPLS-2005>
-230.096710205078

> <b_mmod_Minimization_Converged-OPLS-2005>
0

> <r_mmod_RMS_Derivative-OPLS-2005>
2.32978391647339

$$$$
21
                    3D
 Structure written by MMmdl.
164173  0  0  1  0            999 V2000
  -30.6309  -14.7164   20.4243 C   0  0  0  0  0  0
  -30.4481  -12.4282   19.4578 C   0  0  0  0  0  0
  -29.4959  -12.4044   18.2387 C   0  0  0  0  0  0
  -28.0201  -12.2933   18.6752 C   0  0  0  0  0  0
  -27.6386  -13.2083   19.8738 C   0  0  2  0  0  0
  -28.7073  -13.1609   20.9879 C   0  0  0  0  0  0
  -25.2536  -13.8168   20.5875 C   0  0  0  0  0  0
  -24.1794  -13.0408   20.9224 C   0  0  0  0  0  0
  -24.6366  -11.6879   20.8816 C   0  0  0  0  0  0
  -23.9061  -10.4260   21.0432 C   0  0  0  0  0  0
  -24.3608   -9.4176   21.9207 C   0  0  0  0  0  0
  -23.6285   -8.2227   22.0759 C   0  0  0  0  0  0
  -22.4280   -8.0278   21.3529 C   0  0  0  0  0  0
  -21.9914   -9.0252   20.4632 C   0  0  0  0  0  0
  -22.7248  -10.2125   20.3057 C   0  0  0  0  0  0
  -21.6838   -6.0750   22.5277 C   0  0  0  0  0  0
  -21.3983   -6.5661   23.8211 C   0  0  0  0  0  0
  -21.3653   -5.6818   24.9181 C   0  0  0  0  0  0
  -21.6034   -4.3089   24.7243 C   0  0  0  0  0  0
  -21.8808   -3.8164   23.4372 C   0  0  0  0  0  0
  -21.9182   -4.6963   22.3421 C   0  0  0  0  0  0
  -22.7831  -13.5205   21.1870 C   0  0  0  0  0  0
  -22.1670   -4.2153   21.1010 F   0  0  0  0  0  0
  -21.5620   -3.4560   25.7760 F   0  0  0  0  0  0
  -29.9948  -13.4994   20.3690 N   0  0  0  0  0  0
  -26.2953  -12.9315   20.3596 N   0  0  0  0  0  0
  -25.9302  -11.6477   20.5992 N   0  0  0  0  0  0
  -22.0520  -12.8176   22.0440 N   0  0  0  0  0  0
  -25.4088  -15.1917   20.4333 N   0  0  0  0  0  0
  -31.8570  -14.7687   20.2991 O   0  0  0  0  0  0
  -21.6639   -6.8874   21.4232 O   0  0  0  0  0  0
  -22.3520  -14.5523   20.6727 O   0  0  0  0  0  0
  -24.6262  -31.8612   23.1978 C   0  0  0  0  0  0
  -25.9105  -32.4767   23.8347 C   0  0  1  0  0  0
  -27.2247  -27.3080   20.1425 C   0  0  0  0  0  0
  -25.5956  -33.8559   24.2307 N   0  0  0  0  0  0
  -23.4213  -30.4839   21.5349 C   0  0  2  0  0  0
  -24.8771  -28.9344   20.1082 C   0  0  0  0  0  0
  -22.7488  -29.4628   22.4862 C   0  0  0  0  0  0
  -18.0284  -28.1408   22.8455 C   0  0  0  0  0  0
  -24.1470  -36.7261   23.2641 C   0  0  0  0  0  0
  -25.9587  -30.7944   21.3627 C   0  0  0  0  0  0
  -26.0397  -29.4097   20.7284 C   0  0  0  0  0  0
  -27.2191  -28.6053   20.7433 C   0  0  0  0  0  0
  -26.0644  -26.9163   19.4531 C   0  0  0  0  0  0
  -24.8912  -27.6917   19.4578 C   0  0  0  0  0  0
  -23.6423  -29.8113   20.1522 C   0  0  0  0  0  0
  -25.4089  -36.3069   24.0358 C   0  0  1  0  0  0
  -20.5895  -28.3713   23.1244 C   0  0  2  0  0  0
  -20.6769  -26.9437   22.5382 C   0  0  0  0  0  0
  -19.5729  -26.6419   21.5194 C   0  0  0  0  0  0
  -18.1916  -26.7951   22.1606 C   0  0  0  0  0  0
  -19.1546  -28.8868   23.2860 C   0  0  0  0  0  0
  -18.9462  -30.1461   23.8903 C   0  0  0  0  0  0
  -17.6460  -30.6604   24.0558 C   0  0  0  0  0  0
  -25.9034  -34.9443   23.5121 C   0  0  0  0  0  0
  -16.5351  -29.9106   23.6318 C   0  0  0  0  0  0
  -16.7270  -28.6526   23.0330 C   0  0  0  0  0  0
  -26.4526  -31.6505   25.0650 C   0  0  0  0  0  0
  -25.3771  -31.3563   26.1365 C   0  0  0  0  0  0
  -27.0345  -30.2951   24.5979 C   0  0  0  0  0  0
  -27.6111  -32.4190   25.7426 C   0  0  0  0  0  0
  -27.5541  -37.1778   24.8491 C   0  0  0  0  0  0
  -21.4197  -29.3080   22.3637 N   0  0  0  0  0  0
  -26.4248  -37.3765   23.9459 N   0  0  0  0  0  0
  -24.6879  -31.0649   22.0903 N   0  0  0  0  0  0
  -23.4216  -28.8165   23.2939 O   0  0  0  0  0  0
  -28.3028  -26.4086   20.1615 O   0  0  0  0  0  0
  -26.5549  -34.8911   22.4657 O   0  0  0  0  0  0
  -23.5423  -32.1377   23.7317 O   0  0  0  0  0  0
  -30.3793  -19.6112   20.2370 C   0  0  0  0  0  0
  -28.3393  -19.0167   21.3395 C   0  0  0  0  0  0
  -30.7351  -18.2200   20.1483 C   0  0  0  0  0  0
  -29.1287  -20.0520   20.7499 C   0  0  0  0  0  0
  -28.6625  -17.6274   21.2308 C   0  0  0  0  0  0
  -29.8271  -17.1812   20.5449 C   0  0  0  0  0  0
  -27.1144  -23.0710   20.0804 C   0  0  0  0  0  0
  -28.1812  -23.7351   20.5579 C   0  0  0  0  0  0
  -27.3923  -21.6497   20.0205 C   0  0  0  0  0  0
  -29.1588  -22.6594   20.8818 C   0  0  0  0  0  0
  -33.1893  -18.5458   20.0353 C   0  0  0  0  0  0
  -32.0803  -17.8866   19.6574 C   0  0  0  0  0  0
  -25.7244  -23.5967   19.7711 C   0  0  0  0  0  0
  -29.6691  -15.8188   18.5355 C   0  0  0  0  0  0
  -28.1984  -25.2365   21.0764 C   0  0  0  0  0  0
  -28.6030  -21.4370   20.5803 N   0  0  0  0  0  0
  -27.7669  -16.6897   21.7543 N   0  0  0  0  0  0
  -29.8843  -15.8057   19.9997 N   0  0  0  0  0  0
  -26.6535  -20.7818   19.5363 O   0  0  0  0  0  0
  -30.2934  -22.8117   21.3542 O   0  0  0  0  0  0
  -31.4759  -12.5889   19.1193 H   0  0  0  0  0  0
  -30.4487  -11.4688   19.9775 H   0  0  0  0  0  0
  -29.7491  -11.5519   17.6046 H   0  0  0  0  0  0
  -29.6427  -13.2818   17.6126 H   0  0  0  0  0  0
  -27.8657  -11.2518   18.9599 H   0  0  0  0  0  0
  -27.3565  -12.4731   17.8290 H   0  0  0  0  0  0
  -27.5890  -14.2265   19.5108 H   0  0  0  0  0  0
  -28.7564  -12.1741   21.4513 H   0  0  0  0  0  0
  -28.4689  -13.8644   21.7862 H   0  0  0  0  0  0
  -25.2739   -9.5663   22.4812 H   0  0  0  0  0  0
  -23.9962   -7.4624   22.7499 H   0  0  0  0  0  0
  -21.0843   -8.8809   19.8956 H   0  0  0  0  0  0
  -22.3726  -10.9691   19.6181 H   0  0  0  0  0  0
  -21.1962   -7.6161   23.9712 H   0  0  0  0  0  0
  -21.1487   -6.0560   25.9079 H   0  0  0  0  0  0
  -22.0583   -2.7623   23.2884 H   0  0  0  0  0  0
  -22.4139  -11.9789   22.4712 H   0  0  0  0  0  0
  -21.1193  -13.1247   22.2840 H   0  0  0  0  0  0
  -24.6111  -15.8077   20.5257 H   0  0  0  0  0  0
  -26.2762  -15.7064   20.2968 H   0  0  0  0  0  0
  -26.7141  -32.5474   23.1076 H   0  0  0  0  0  0
  -25.0271  -33.9730   25.0577 H   0  0  0  0  0  0
  -22.7136  -31.3021   21.3816 H   0  0  0  0  0  0
  -23.3728  -35.9578   23.3299 H   0  0  0  0  0  0
  -24.3551  -36.8876   22.2040 H   0  0  0  0  0  0
  -23.7212  -37.6472   23.6651 H   0  0  0  0  0  0
  -26.0647  -31.5418   20.5753 H   0  0  0  0  0  0
  -26.8522  -30.8737   21.9716 H   0  0  0  0  0  0
  -28.1091  -28.9671   21.2395 H   0  0  0  0  0  0
  -26.0745  -25.9975   18.8946 H   0  0  0  0  0  0
  -24.0140  -27.3366   18.9374 H   0  0  0  0  0  0
  -23.7573  -30.5820   19.3891 H   0  0  0  0  0  0
  -22.7675  -29.2353   19.8476 H   0  0  0  0  0  0
  -25.1249  -36.1900   25.0837 H   0  0  0  0  0  0
  -20.9975  -28.3272   24.1371 H   0  0  0  0  0  0
  -20.5675  -26.2330   23.3591 H   0  0  0  0  0  0
  -21.6624  -26.7481   22.1152 H   0  0  0  0  0  0
  -19.6905  -25.6349   21.1198 H   0  0  0  0  0  0
  -19.6634  -27.3242   20.6733 H   0  0  0  0  0  0
  -17.4180  -26.6681   21.4023 H   0  0  0  0  0  0
  -18.0302  -26.0122   22.9027 H   0  0  0  0  0  0
  -19.7942  -30.7270   24.2277 H   0  0  0  0  0  0
  -17.5020  -31.6273   24.5186 H   0  0  0  0  0  0
  -15.5346  -30.3012   23.7660 H   0  0  0  0  0  0
  -15.8664  -28.0868   22.7028 H   0  0  0  0  0  0
  -24.6076  -30.6763   25.7690 H   0  0  0  0  0  0
  -24.8799  -32.2653   26.4740 H   0  0  0  0  0  0
  -25.8129  -30.8824   27.0162 H   0  0  0  0  0  0
  -26.2861  -29.6697   24.1066 H   0  0  0  0  0  0
  -27.4189  -29.7187   25.4409 H   0  0  0  0  0  0
  -27.8673  -30.4301   23.9059 H   0  0  0  0  0  0
  -27.2822  -33.3574   26.1884 H   0  0  0  0  0  0
  -28.3978  -32.6557   25.0258 H   0  0  0  0  0  0
  -28.0654  -31.8315   26.5415 H   0  0  0  0  0  0
  -28.2576  -38.0061   24.7534 H   0  0  0  0  0  0
  -28.1027  -36.2596   24.6316 H   0  0  0  0  0  0
  -27.2263  -37.1409   25.8896 H   0  0  0  0  0  0
  -20.9388  -29.8845   21.6883 H   0  0  0  0  0  0
  -26.0122  -38.2834   24.1469 H   0  0  0  0  0  0
  -31.0583  -20.3408   19.8225 H   0  0  0  0  0  0
  -27.4096  -19.2925   21.8210 H   0  0  0  0  0  0
  -34.1625  -18.2793   19.6518 H   0  0  0  0  0  0
  -33.1442  -19.3595   20.7445 H   0  0  0  0  0  0
  -32.1674  -17.0762   18.9480 H   0  0  0  0  0  0
  -25.4739  -24.4642   20.3780 H   0  0  0  0  0  0
  -24.9681  -22.8364   19.9777 H   0  0  0  0  0  0
  -25.6524  -23.8479   18.7142 H   0  0  0  0  0  0
  -28.7770  -15.2751   18.2468 H   0  0  0  0  0  0
  -30.5052  -15.3869   17.9814 H   0  0  0  0  0  0
  -29.5220  -16.8233   18.1437 H   0  0  0  0  0  0
  -29.0312  -25.3184   21.7746 H   0  0  0  0  0  0
  -27.3153  -25.3611   21.7052 H   0  0  0  0  0  0
  -26.9980  -16.9610   22.3575 H   0  0  0  0  0  0
  -27.9401  -15.6916   21.7236 H   0  0  0  0  0  0
  1 25  1  0  0  0
  1 30  2  0  0  0
  1 88  1  0  0  0
  2  3  1  0  0  0
  2 25  1  0  0  0
  2 91  1  0  0  0
  2 92  1  0  0  0
  3  4  1  0  0  0
  3 93  1  0  0  0
  3 94  1  0  0  0
  4  5  1  0  0  0
  4 95  1  0  0  0
  4 96  1  0  0  0
  5  6  1  0  0  0
  5 26  1  0  0  0
  5 97  1  0  0  0
  6 25  1  0  0  0
  6 98  1  0  0  0
  6 99  1  0  0  0
  7  8  2  0  0  0
  7 26  1  0  0  0
  7 29  1  0  0  0
  8  9  1  0  0  0
  8 22  1  0  0  0
  9 10  1  0  0  0
  9 27  2  0  0  0
 10 11  2  0  0  0
 10 15  1  0  0  0
 11 12  1  0  0  0
 11100  1  0  0  0
 12 13  2  0  0  0
 12101  1  0  0  0
 13 14  1  0  0  0
 13 31  1  0  0  0
 14 15  2  0  0  0
 14102  1  0  0  0
 15103  1  0  0  0
 16 17  2  0  0  0
 16 21  1  0  0  0
 16 31  1  0  0  0
 17 18  1  0  0  0
 17104  1  0  0  0
 18 19  2  0  0  0
 18105  1  0  0  0
 19 20  1  0  0  0
 19 24  1  0  0  0
 20 21  2  0  0  0
 20106  1  0  0  0
 21 23  1  0  0  0
 22 28  1  0  0  0
 22 32  2  0  0  0
 26 27  1  0  0  0
 28107  1  0  0  0
 28108  1  0  0  0
 29109  1  0  0  0
 29110  1  0  0  0
 33 34  1  0  0  0
 33 66  1  0  0  0
 33 70  2  0  0  0
 34 36  1  0  0  0
 34 59  1  0  0  0
 34111  1  0  0  0
 35 44  2  0  0  0
 35 45  1  0  0  0
 35 68  1  0  0  0
 36 56  1  0  0  0
 36112  1  0  0  0
 37 39  1  0  0  0
 37 47  1  0  0  0
 37 66  1  0  0  0
 37113  1  0  0  0
 38 43  2  0  0  0
 38 46  1  0  0  0
 38 47  1  0  0  0
 39 64  1  0  0  0
 39 67  2  0  0  0
 40 52  1  0  0  0
 40 53  2  0  0  0
 40 58  1  0  0  0
 41114  1  0  0  0
 41115  1  0  0  0
 41116  1  0  0  0
 41 48  1  0  0  0
 42 43  1  0  0  0
 42 66  1  0  0  0
 42117  1  0  0  0
 42118  1  0  0  0
 43 44  1  0  0  0
 44119  1  0  0  0
 45 46  2  0  0  0
 45120  1  0  0  0
 46121  1  0  0  0
 47122  1  0  0  0
 47123  1  0  0  0
 48 56  1  0  0  0
 48 65  1  0  0  0
 48124  1  0  0  0
 49 50  1  0  0  0
 49 53  1  0  0  0
 49 64  1  0  0  0
 49125  1  0  0  0
 50 51  1  0  0  0
 50126  1  0  0  0
 50127  1  0  0  0
 51 52  1  0  0  0
 51128  1  0  0  0
 51129  1  0  0  0
 52130  1  0  0  0
 52131  1  0  0  0
 53 54  1  0  0  0
 54 55  2  0  0  0
 54132  1  0  0  0
 55 57  1  0  0  0
 55133  1  0  0  0
 56 69  2  0  0  0
 57 58  2  0  0  0
 57134  1  0  0  0
 58135  1  0  0  0
 59 60  1  0  0  0
 59 61  1  0  0  0
 59 62  1  0  0  0
 60136  1  0  0  0
 60137  1  0  0  0
 60138  1  0  0  0
 61139  1  0  0  0
 61140  1  0  0  0
 61141  1  0  0  0
 62142  1  0  0  0
 62143  1  0  0  0
 62144  1  0  0  0
 63 65  1  0  0  0
 63145  1  0  0  0
 63146  1  0  0  0
 63147  1  0  0  0
 64148  1  0  0  0
 65149  1  0  0  0
 68 85  1  0  0  0
 71 73  2  0  0  0
 71 74  1  0  0  0
 71150  1  0  0  0
 72 74  2  0  0  0
 72 75  1  0  0  0
 72151  1  0  0  0
 73 76  1  0  0  0
 73 82  1  0  0  0
 74 86  1  0  0  0
 75 76  2  0  0  0
 75 87  1  0  0  0
 76 88  1  0  0  0
 77 78  2  0  0  0
 77 79  1  0  0  0
 77 83  1  0  0  0
 78 80  1  0  0  0
 78 85  1  0  0  0
 79 86  1  0  0  0
 79 89  2  0  0  0
 80 86  1  0  0  0
 80 90  2  0  0  0
 81 82  2  0  0  0
 81152  1  0  0  0
 81153  1  0  0  0
 82154  1  0  0  0
 83155  1  0  0  0
 83156  1  0  0  0
 83157  1  0  0  0
 84 88  1  0  0  0
 84158  1  0  0  0
 84159  1  0  0  0
 84160  1  0  0  0
 85161  1  0  0  0
 85162  1  0  0  0
 87163  1  0  0  0
 87164  1  0  0  0
M  ISO  4   1 100  68 101  85 101  88 100
M  END
> <chiral flag>
0

> <version>
0

> <s_m_source_file>
/data/baiqing/PycharmProjects/Reinvent-master-3.2/result/LINK_invent/BTK/process_docking_weight1_custom_product_contain_oxygen_bond_distance_aromatic_linkinvent_7_9_3/rearranged_h_0089.sdf

> <i_m_source_file_index>
22

> <r_mmod_Potential_Energy-OPLS-2005>
443.573486328125

> <r_mmod_Stretch_Energy-OPLS-2005>
101.609672546387

> <r_mmod_Bend_Energy-OPLS-2005>
209.682418823242

> <r_mmod_Torsional_Energy-OPLS-2005>
437.454956054688

> <r_mmod_Improper_Torsional_Energy-OPLS-2005>
29.048059463501

> <r_mmod_Van_der_Waal_Energy-OPLS-2005>
140.114212036133

> <r_mmod_Electrostatic_Energy-OPLS-2005>
-337.671051025391

> <r_mmod_Solvation_Energy-OPLS-2005>
-215.554428100586

> <b_mmod_Minimization_Converged-OPLS-2005>
0

> <r_mmod_RMS_Derivative-OPLS-2005>
5.42007827758789

$$$$
22
                    3D
 Structure written by MMmdl.
158167  0  0  1  0            999 V2000
  -30.6057  -14.6734   20.4755 C   0  0  0  0  0  0
  -30.4444  -12.4097   19.4500 C   0  0  0  0  0  0
  -29.5087  -12.5065   18.2235 C   0  0  0  0  0  0
  -28.0320  -12.3397   18.6382 C   0  0  0  0  0  0
  -27.6508  -13.2159   19.8609 C   0  0  2  0  0  0
  -28.7011  -13.0880   20.9877 C   0  0  0  0  0  0
  -25.2542  -13.8161   20.5723 C   0  0  0  0  0  0
  -24.1811  -13.0410   20.9181 C   0  0  0  0  0  0
  -24.6395  -11.6891   20.8730 C   0  0  0  0  0  0
  -23.9068  -10.4277   21.0398 C   0  0  0  0  0  0
  -24.3618   -9.4197   21.9179 C   0  0  0  0  0  0
  -23.6287   -8.2238   22.0754 C   0  0  0  0  0  0
  -22.4269   -8.0278   21.3546 C   0  0  0  0  0  0
  -21.9904   -9.0250   20.4647 C   0  0  0  0  0  0
  -22.7238  -10.2124   20.3050 C   0  0  0  0  0  0
  -21.6852   -6.0732   22.5279 C   0  0  0  0  0  0
  -21.4014   -6.5636   23.8213 C   0  0  0  0  0  0
  -21.3657   -5.6789   24.9175 C   0  0  0  0  0  0
  -21.6042   -4.3052   24.7226 C   0  0  0  0  0  0
  -21.8820   -3.8144   23.4347 C   0  0  0  0  0  0
  -21.9192   -4.6960   22.3402 C   0  0  0  0  0  0
  -22.7832  -13.5204   21.1847 C   0  0  0  0  0  0
  -22.1661   -4.2146   21.0980 F   0  0  0  0  0  0
  -21.5626   -3.4536   25.7739 F   0  0  0  0  0  0
  -30.0117  -13.4378   20.4159 N   0  0  0  0  0  0
  -26.2983  -12.9351   20.3338 N   0  0  0  0  0  0
  -25.9325  -11.6499   20.5757 N   0  0  0  0  0  0
  -22.0480  -12.8206   22.0416 N   0  0  0  0  0  0
  -25.4132  -15.1904   20.4261 N   0  0  0  0  0  0
  -31.7856  -14.8364   20.1507 O   0  0  0  0  0  0
  -21.6635   -6.8876   21.4243 O   0  0  0  0  0  0
  -22.3510  -14.5508   20.6697 O   0  0  0  0  0  0
  -24.6273  -31.8592   23.2023 C   0  0  0  0  0  0
  -25.9116  -32.4776   23.8355 C   0  0  1  0  0  0
  -27.2234  -27.3103   20.1238 C   0  0  0  0  0  0
  -25.5929  -33.8577   24.2282 N   0  0  0  0  0  0
  -23.4224  -30.4826   21.5447 C   0  0  2  0  0  0
  -24.8714  -28.9384   20.1102 C   0  0  0  0  0  0
  -22.7485  -29.4616   22.4928 C   0  0  0  0  0  0
  -18.0290  -28.1385   22.8483 C   0  0  0  0  0  0
  -24.1489  -36.7291   23.2637 C   0  0  0  0  0  0
  -25.9647  -30.7870   21.3765 C   0  0  0  0  0  0
  -26.0407  -29.4135   20.7195 C   0  0  0  0  0  0
  -27.2227  -28.6112   20.7174 C   0  0  0  0  0  0
  -26.0389  -26.9001   19.4731 C   0  0  0  0  0  0
  -24.8727  -27.6870   19.4765 C   0  0  0  0  0  0
  -23.6389  -29.8188   20.1598 C   0  0  0  0  0  0
  -25.4112  -36.3080   24.0328 C   0  0  1  0  0  0
  -20.5892  -28.3691   23.1277 C   0  0  2  0  0  0
  -20.6778  -26.9412   22.5408 C   0  0  0  0  0  0
  -19.5755  -26.6383   21.5209 C   0  0  0  0  0  0
  -18.1934  -26.7926   22.1621 C   0  0  0  0  0  0
  -19.1542  -28.8854   23.2876 C   0  0  0  0  0  0
  -18.9464  -30.1454   23.8896 C   0  0  0  0  0  0
  -17.6464  -30.6586   24.0563 C   0  0  0  0  0  0
  -25.9051  -34.9449   23.5106 C   0  0  0  0  0  0
  -16.5355  -29.9084   23.6328 C   0  0  0  0  0  0
  -16.7277  -28.6501   23.0349 C   0  0  0  0  0  0
  -26.4497  -31.6584   25.0725 C   0  0  0  0  0  0
  -25.3731  -31.3724   26.1452 C   0  0  0  0  0  0
  -27.0336  -30.3004   24.6181 C   0  0  0  0  0  0
  -27.6059  -32.4315   25.7496 C   0  0  0  0  0  0
  -27.5579  -37.1799   24.8461 C   0  0  0  0  0  0
  -21.4196  -29.3041   22.3668 N   0  0  0  0  0  0
  -26.4289  -37.3775   23.9408 N   0  0  0  0  0  0
  -24.6902  -31.0596   22.0980 N   0  0  0  0  0  0
  -23.4201  -28.8153   23.3011 O   0  0  0  0  0  0
  -28.3093  -26.4188   20.1592 O   0  0  0  0  0  0
  -26.5619  -34.8917   22.4671 O   0  0  0  0  0  0
  -23.5433  -32.1393   23.7343 O   0  0  0  0  0  0
  -30.8057  -19.4353   20.8712 C   0  0  0  0  0  0
  -30.8956  -18.0067   20.9526 C   0  0  0  0  0  0
  -30.1157  -23.7277   19.7201 C   0  0  0  0  0  0
  -28.6009  -19.2630   19.9331 C   0  0  0  0  0  0
  -28.8577  -23.8007   20.3868 C   0  0  0  0  0  0
  -29.6535  -20.1108   20.3689 C   0  0  0  0  0  0
  -29.8297  -17.1701   20.5262 C   0  0  0  0  0  0
  -28.6896  -17.8391   20.0018 C   0  0  0  0  0  0
  -28.5580  -22.4690   20.7014 C   0  0  0  0  0  0
  -30.5091  -22.4135   19.6601 C   0  0  0  0  0  0
  -27.3567  -21.9409   21.4240 C   0  0  0  0  0  0
  -28.0067  -25.0810   20.7340 C   0  0  0  0  0  0
  -29.5711  -21.5785   20.2594 N   0  0  0  0  0  0
  -27.6353  -17.0659   19.5129 N   0  0  0  0  0  0
  -29.7491  -15.7181   20.7041 N   0  0  0  0  0  0
  -31.6379  -21.9012   19.0993 O   0  0  0  0  0  0
  -31.4833  -12.5457   19.1449 H   0  0  0  0  0  0
  -30.3901  -11.4181   19.9019 H   0  0  0  0  0  0
  -29.7763  -11.7504   17.4842 H   0  0  0  0  0  0
  -29.6439  -13.4724   17.7345 H   0  0  0  0  0  0
  -27.8742  -11.2874   18.8764 H   0  0  0  0  0  0
  -27.3759  -12.5614   17.7956 H   0  0  0  0  0  0
  -27.6571  -14.2455   19.5079 H   0  0  0  0  0  0
  -28.7214  -12.0705   21.3807 H   0  0  0  0  0  0
  -28.4478  -13.7298   21.8333 H   0  0  0  0  0  0
  -25.2764   -9.5669   22.4753 H   0  0  0  0  0  0
  -23.9993   -7.4628   22.7475 H   0  0  0  0  0  0
  -21.0833   -8.8773   19.8956 H   0  0  0  0  0  0
  -22.3702  -10.9663   19.6158 H   0  0  0  0  0  0
  -21.2011   -7.6145   23.9716 H   0  0  0  0  0  0
  -21.1474   -6.0519   25.9077 H   0  0  0  0  0  0
  -22.0603   -2.7607   23.2851 H   0  0  0  0  0  0
  -22.4095  -11.9873   22.4812 H   0  0  0  0  0  0
  -21.1101  -13.1241   22.2624 H   0  0  0  0  0  0
  -24.6344  -15.8249   20.5593 H   0  0  0  0  0  0
  -26.2687  -15.6875   20.1768 H   0  0  0  0  0  0
  -26.7184  -32.5445   23.1104 H   0  0  0  0  0  0
  -25.0072  -33.9721   25.0424 H   0  0  0  0  0  0
  -22.7166  -31.3034   21.4015 H   0  0  0  0  0  0
  -23.3748  -35.9627   23.3303 H   0  0  0  0  0  0
  -24.3582  -36.8907   22.2051 H   0  0  0  0  0  0
  -23.7248  -37.6497   23.6657 H   0  0  0  0  0  0
  -26.0976  -31.5498   20.6080 H   0  0  0  0  0  0
  -26.8446  -30.8365   22.0063 H   0  0  0  0  0  0
  -28.1177  -28.9679   21.2077 H   0  0  0  0  0  0
  -26.0022  -25.9464   18.9660 H   0  0  0  0  0  0
  -23.9805  -27.3213   18.9870 H   0  0  0  0  0  0
  -23.7590  -30.5962   19.4045 H   0  0  0  0  0  0
  -22.7589  -29.2489   19.8558 H   0  0  0  0  0  0
  -25.1292  -36.1931   25.0820 H   0  0  0  0  0  0
  -20.9984  -28.3269   24.1397 H   0  0  0  0  0  0
  -20.5675  -26.2300   23.3609 H   0  0  0  0  0  0
  -21.6650  -26.7438   22.1207 H   0  0  0  0  0  0
  -19.6919  -25.6295   21.1237 H   0  0  0  0  0  0
  -19.6692  -27.3192   20.6738 H   0  0  0  0  0  0
  -17.4203  -26.6669   21.4025 H   0  0  0  0  0  0
  -18.0340  -26.0070   22.9020 H   0  0  0  0  0  0
  -19.7940  -30.7269   24.2266 H   0  0  0  0  0  0
  -17.5019  -31.6265   24.5167 H   0  0  0  0  0  0
  -15.5356  -30.2986   23.7652 H   0  0  0  0  0  0
  -15.8676  -28.0819   22.7067 H   0  0  0  0  0  0
  -24.5908  -30.7068   25.7783 H   0  0  0  0  0  0
  -24.8919  -32.2890   26.4873 H   0  0  0  0  0  0
  -25.8056  -30.8907   27.0230 H   0  0  0  0  0  0
  -26.2909  -29.6758   24.1203 H   0  0  0  0  0  0
  -27.4028  -29.7257   25.4686 H   0  0  0  0  0  0
  -27.8783  -30.4286   23.9409 H   0  0  0  0  0  0
  -27.2672  -33.3614   26.2076 H   0  0  0  0  0  0
  -28.3869  -32.6875   25.0323 H   0  0  0  0  0  0
  -28.0726  -31.8437   26.5410 H   0  0  0  0  0  0
  -28.2592  -38.0101   24.7515 H   0  0  0  0  0  0
  -28.1080  -36.2634   24.6276 H   0  0  0  0  0  0
  -27.2300  -37.1437   25.8864 H   0  0  0  0  0  0
  -20.9375  -29.8764   21.6877 H   0  0  0  0  0  0
  -26.0169  -38.2847   24.1416 H   0  0  0  0  0  0
  -31.6449  -20.0263   21.2096 H   0  0  0  0  0  0
  -31.7849  -17.5606   21.3739 H   0  0  0  0  0  0
  -30.6741  -24.5667   19.3275 H   0  0  0  0  0  0
  -27.7151  -19.7210   19.5182 H   0  0  0  0  0  0
  -26.8896  -22.7144   22.0333 H   0  0  0  0  0  0
  -27.6198  -21.1199   22.0917 H   0  0  0  0  0  0
  -26.6076  -21.5777   20.7202 H   0  0  0  0  0  0
  -28.0721  -25.2009   21.8159 H   0  0  0  0  0  0
  -26.9720  -24.7927   20.5557 H   0  0  0  0  0  0
  -26.9277  -17.5939   19.0129 H   0  0  0  0  0  0
  -27.9490  -16.2959   18.9336 H   0  0  0  0  0  0
  -28.7967  -15.4095   20.8257 H   0  0  0  0  0  0
  -32.1344  -22.6270   18.7342 H   0  0  0  0  0  0
  1 25  1  0  0  0
  1 30  2  0  0  0
  1 85  1  0  0  0
  2  3  1  0  0  0
  2 25  1  0  0  0
  2 87  1  0  0  0
  2 88  1  0  0  0
  3  4  1  0  0  0
  3 89  1  0  0  0
  3 90  1  0  0  0
  4  5  1  0  0  0
  4 91  1  0  0  0
  4 92  1  0  0  0
  5  6  1  0  0  0
  5 26  1  0  0  0
  5 93  1  0  0  0
  6 25  1  0  0  0
  6 94  1  0  0  0
  6 95  1  0  0  0
  7  8  2  0  0  0
  7 26  1  0  0  0
  7 29  1  0  0  0
  8  9  1  0  0  0
  8 22  1  0  0  0
  9 10  1  0  0  0
  9 27  2  0  0  0
 10 11  2  0  0  0
 10 15  1  0  0  0
 11 12  1  0  0  0
 11 96  1  0  0  0
 12 13  2  0  0  0
 12 97  1  0  0  0
 13 14  1  0  0  0
 13 31  1  0  0  0
 14 15  2  0  0  0
 14 98  1  0  0  0
 15 99  1  0  0  0
 16 17  2  0  0  0
 16 21  1  0  0  0
 16 31  1  0  0  0
 17 18  1  0  0  0
 17100  1  0  0  0
 18 19  2  0  0  0
 18101  1  0  0  0
 19 20  1  0  0  0
 19 24  1  0  0  0
 20 21  2  0  0  0
 20102  1  0  0  0
 21 23  1  0  0  0
 22 28  1  0  0  0
 22 32  2  0  0  0
 26 27  1  0  0  0
 28103  1  0  0  0
 28104  1  0  0  0
 29105  1  0  0  0
 29106  1  0  0  0
 33 34  1  0  0  0
 33 66  1  0  0  0
 33 70  2  0  0  0
 34 36  1  0  0  0
 34 59  1  0  0  0
 34107  1  0  0  0
 35 44  2  0  0  0
 35 45  1  0  0  0
 35 68  1  0  0  0
 36 56  1  0  0  0
 36108  1  0  0  0
 37 39  1  0  0  0
 37 47  1  0  0  0
 37 66  1  0  0  0
 37109  1  0  0  0
 38 43  2  0  0  0
 38 46  1  0  0  0
 38 47  1  0  0  0
 39 64  1  0  0  0
 39 67  2  0  0  0
 40 52  1  0  0  0
 40 53  2  0  0  0
 40 58  1  0  0  0
 41110  1  0  0  0
 41111  1  0  0  0
 41112  1  0  0  0
 41 48  1  0  0  0
 42 43  1  0  0  0
 42 66  1  0  0  0
 42113  1  0  0  0
 42114  1  0  0  0
 43 44  1  0  0  0
 44115  1  0  0  0
 45 46  2  0  0  0
 45116  1  0  0  0
 46117  1  0  0  0
 47118  1  0  0  0
 47119  1  0  0  0
 48 56  1  0  0  0
 48 65  1  0  0  0
 48120  1  0  0  0
 49 50  1  0  0  0
 49 53  1  0  0  0
 49 64  1  0  0  0
 49121  1  0  0  0
 50 51  1  0  0  0
 50122  1  0  0  0
 50123  1  0  0  0
 51 52  1  0  0  0
 51124  1  0  0  0
 51125  1  0  0  0
 52126  1  0  0  0
 52127  1  0  0  0
 53 54  1  0  0  0
 54 55  2  0  0  0
 54128  1  0  0  0
 55 57  1  0  0  0
 55129  1  0  0  0
 56 69  2  0  0  0
 57 58  2  0  0  0
 57130  1  0  0  0
 58131  1  0  0  0
 59 60  1  0  0  0
 59 61  1  0  0  0
 59 62  1  0  0  0
 60132  1  0  0  0
 60133  1  0  0  0
 60134  1  0  0  0
 61135  1  0  0  0
 61136  1  0  0  0
 61137  1  0  0  0
 62138  1  0  0  0
 62139  1  0  0  0
 62140  1  0  0  0
 63 65  1  0  0  0
 63141  1  0  0  0
 63142  1  0  0  0
 63143  1  0  0  0
 64144  1  0  0  0
 65145  1  0  0  0
 68 82  1  0  0  0
 71 72  2  0  0  0
 71 76  1  0  0  0
 71146  1  0  0  0
 72 77  1  0  0  0
 72147  1  0  0  0
 73 75  1  0  0  0
 73 80  2  0  0  0
 73148  1  0  0  0
 74 76  2  0  0  0
 74 78  1  0  0  0
 74149  1  0  0  0
 75 79  2  0  0  0
 75 82  1  0  0  0
 76 83  1  0  0  0
 77 78  2  0  0  0
 77 85  1  0  0  0
 78 84  1  0  0  0
 79 81  1  0  0  0
 79 83  1  0  0  0
 80 83  1  0  0  0
 80 86  1  0  0  0
 81150  1  0  0  0
 81151  1  0  0  0
 81152  1  0  0  0
 82153  1  0  0  0
 82154  1  0  0  0
 84155  1  0  0  0
 84156  1  0  0  0
 85157  1  0  0  0
 86158  1  0  0  0
M  ISO  4   1 100  68 101  82 101  85 100
M  END
> <chiral flag>
0

> <version>
0

> <s_m_source_file>
/data/baiqing/PycharmProjects/Reinvent-master-3.2/result/LINK_invent/BTK/process_docking_weight1_custom_product_contain_oxygen_bond_distance_aromatic_linkinvent_7_9_3/rearranged_h_0089.sdf

> <i_m_source_file_index>
23

> <r_mmod_Potential_Energy-OPLS-2005>
-15.6943712234497

> <r_mmod_Stretch_Energy-OPLS-2005>
82.7967071533203

> <r_mmod_Bend_Energy-OPLS-2005>
139.677734375

> <r_mmod_Torsional_Energy-OPLS-2005>
267.222412109375

> <r_mmod_Improper_Torsional_Energy-OPLS-2005>
11.4124870300293

> <r_mmod_Van_der_Waal_Energy-OPLS-2005>
139.330810546875

> <r_mmod_Electrostatic_Energy-OPLS-2005>
-497.172180175781

> <r_mmod_Solvation_Energy-OPLS-2005>
-218.963088989258

> <b_mmod_Minimization_Converged-OPLS-2005>
0

> <r_mmod_RMS_Derivative-OPLS-2005>
0.381087392568588

$$$$
23
                    3D
 Structure written by MMmdl.
157166  0  0  1  0            999 V2000
  -30.7712  -14.6158   20.4767 C   0  0  0  0  0  0
  -30.4030  -12.3760   19.4898 C   0  0  0  0  0  0
  -29.4915  -12.5041   18.2504 C   0  0  0  0  0  0
  -28.0230  -12.3515   18.6667 C   0  0  0  0  0  0
  -27.6507  -13.2451   19.8780 C   0  0  2  0  0  0
  -28.7064  -13.1794   21.0137 C   0  0  0  0  0  0
  -25.2472  -13.8266   20.5716 C   0  0  0  0  0  0
  -24.1727  -13.0455   20.9182 C   0  0  0  0  0  0
  -24.6368  -11.6961   20.8760 C   0  0  0  0  0  0
  -23.9047  -10.4305   21.0385 C   0  0  0  0  0  0
  -24.3633   -9.4228   21.9153 C   0  0  0  0  0  0
  -23.6299   -8.2265   22.0715 C   0  0  0  0  0  0
  -22.4278   -8.0297   21.3529 C   0  0  0  0  0  0
  -21.9905   -9.0242   20.4611 C   0  0  0  0  0  0
  -22.7225  -10.2130   20.3029 C   0  0  0  0  0  0
  -21.6838   -6.0754   22.5258 C   0  0  0  0  0  0
  -21.3992   -6.5640   23.8200 C   0  0  0  0  0  0
  -21.3687   -5.6797   24.9172 C   0  0  0  0  0  0
  -21.6103   -4.3063   24.7214 C   0  0  0  0  0  0
  -21.8795   -3.8160   23.4324 C   0  0  0  0  0  0
  -21.9177   -4.6988   22.3397 C   0  0  0  0  0  0
  -22.7786  -13.5229   21.1901 C   0  0  0  0  0  0
  -22.1633   -4.2187   21.0969 F   0  0  0  0  0  0
  -21.5694   -3.4529   25.7720 F   0  0  0  0  0  0
  -30.0389  -13.4503   20.4424 N   0  0  0  0  0  0
  -26.2962  -12.9502   20.3482 N   0  0  0  0  0  0
  -25.9342  -11.6625   20.5886 N   0  0  0  0  0  0
  -22.0502  -12.8113   22.0483 N   0  0  0  0  0  0
  -25.4137  -15.1962   20.4127 N   0  0  0  0  0  0
  -31.9006  -14.6740   19.9804 O   0  0  0  0  0  0
  -21.6652   -6.8886   21.4212 O   0  0  0  0  0  0
  -22.3453  -14.5567   20.6845 O   0  0  0  0  0  0
  -24.6250  -31.8604   23.2081 C   0  0  0  0  0  0
  -25.9092  -32.4782   23.8398 C   0  0  1  0  0  0
  -27.1796  -27.2714   20.1598 C   0  0  0  0  0  0
  -25.5942  -33.8594   24.2359 N   0  0  0  0  0  0
  -23.4169  -30.4897   21.5464 C   0  0  2  0  0  0
  -24.8569  -28.9521   20.0946 C   0  0  0  0  0  0
  -22.7442  -29.4612   22.4875 C   0  0  0  0  0  0
  -18.0280  -28.1384   22.8479 C   0  0  0  0  0  0
  -24.1475  -36.7283   23.2596 C   0  0  0  0  0  0
  -25.9605  -30.7756   21.3876 C   0  0  0  0  0  0
  -26.0206  -29.4031   20.7265 C   0  0  0  0  0  0
  -27.1817  -28.5722   20.7538 C   0  0  0  0  0  0
  -26.0022  -26.8862   19.4761 C   0  0  0  0  0  0
  -24.8582  -27.7073   19.4442 C   0  0  0  0  0  0
  -23.6312  -29.8440   20.1516 C   0  0  0  0  0  0
  -25.4063  -36.3109   24.0378 C   0  0  1  0  0  0
  -20.5880  -28.3668   23.1270 C   0  0  2  0  0  0
  -20.6791  -26.9378   22.5399 C   0  0  0  0  0  0
  -19.5769  -26.6363   21.5209 C   0  0  0  0  0  0
  -18.1932  -26.7928   22.1621 C   0  0  0  0  0  0
  -19.1528  -28.8845   23.2890 C   0  0  0  0  0  0
  -18.9471  -30.1461   23.8878 C   0  0  0  0  0  0
  -17.6481  -30.6580   24.0561 C   0  0  0  0  0  0
  -25.9050  -34.9472   23.5175 C   0  0  0  0  0  0
  -16.5369  -29.9063   23.6357 C   0  0  0  0  0  0
  -16.7273  -28.6494   23.0343 C   0  0  0  0  0  0
  -26.4484  -31.6569   25.0743 C   0  0  0  0  0  0
  -25.3753  -31.3765   26.1502 C   0  0  0  0  0  0
  -27.0254  -30.2967   24.6213 C   0  0  0  0  0  0
  -27.6136  -32.4232   25.7432 C   0  0  0  0  0  0
  -27.5688  -37.1623   24.8341 C   0  0  0  0  0  0
  -21.4151  -29.3051   22.3656 N   0  0  0  0  0  0
  -26.4186  -37.3888   23.9629 N   0  0  0  0  0  0
  -24.6862  -31.0592   22.1042 N   0  0  0  0  0  0
  -23.4164  -28.8123   23.2940 O   0  0  0  0  0  0
  -28.2699  -26.3873   20.2865 O   0  0  0  0  0  0
  -26.5583  -34.8941   22.4716 O   0  0  0  0  0  0
  -23.5411  -32.1403   23.7400 O   0  0  0  0  0  0
  -33.1463  -19.5870   21.1937 C   0  0  0  0  0  0
  -32.4820  -18.3644   20.9361 C   0  0  0  0  0  0
  -32.4148  -20.7868   21.3716 C   0  0  0  0  0  0
  -30.3427  -19.5566   20.9966 C   0  0  0  0  0  0
  -29.5033  -24.0611   22.1528 C   0  0  0  0  0  0
  -29.3787  -22.6254   20.4568 C   0  0  0  0  0  0
  -31.0630  -18.3237   20.8365 C   0  0  0  0  0  0
  -28.9755  -23.9072   20.8326 C   0  0  0  0  0  0
  -30.9939  -20.8023   21.2755 C   0  0  0  0  0  0
  -30.3152  -22.9877   22.4303 C   0  0  0  0  0  0
  -30.3692  -17.0967   20.3169 C   0  0  0  0  0  0
  -28.0628  -24.9273   20.0618 C   0  0  0  0  0  0
  -30.2668  -22.0593   21.3926 N   0  0  0  0  0  0
  -30.1982  -15.8799   20.9410 N   0  0  0  0  0  0
  -29.7914  -17.2940   19.1251 N   0  3  0  0  0  0
  -31.0932  -22.7754   23.5322 O   0  0  0  0  0  0
  -31.4534  -12.4096   19.2009 H   0  0  0  0  0  0
  -30.2696  -11.3944   19.9507 H   0  0  0  0  0  0
  -29.7372  -11.7485   17.5046 H   0  0  0  0  0  0
  -29.6405  -13.4727   17.7699 H   0  0  0  0  0  0
  -27.8608  -11.2999   18.9135 H   0  0  0  0  0  0
  -27.3664  -12.5739   17.8247 H   0  0  0  0  0  0
  -27.6523  -14.2710   19.5122 H   0  0  0  0  0  0
  -28.6975  -12.1981   21.4866 H   0  0  0  0  0  0
  -28.4615  -13.8948   21.8017 H   0  0  0  0  0  0
  -25.2779   -9.5727   22.4722 H   0  0  0  0  0  0
  -24.0031   -7.4661   22.7421 H   0  0  0  0  0  0
  -21.0852   -8.8746   19.8897 H   0  0  0  0  0  0
  -22.3658  -10.9672   19.6155 H   0  0  0  0  0  0
  -21.1926   -7.6137   23.9701 H   0  0  0  0  0  0
  -21.1555   -6.0536   25.9080 H   0  0  0  0  0  0
  -22.0545   -2.7618   23.2804 H   0  0  0  0  0  0
  -22.4131  -11.9682   22.4686 H   0  0  0  0  0  0
  -21.1173  -13.1098   22.2915 H   0  0  0  0  0  0
  -24.6390  -15.8476   20.4949 H   0  0  0  0  0  0
  -26.2881  -15.6461   20.1697 H   0  0  0  0  0  0
  -26.7109  -32.5417   23.1082 H   0  0  0  0  0  0
  -25.0178  -33.9790   25.0569 H   0  0  0  0  0  0
  -22.7133  -31.3146   21.4148 H   0  0  0  0  0  0
  -23.3946  -35.9378   23.2785 H   0  0  0  0  0  0
  -24.3753  -36.9348   22.2125 H   0  0  0  0  0  0
  -23.6860  -37.6205   23.6849 H   0  0  0  0  0  0
  -26.0986  -31.5439   20.6266 H   0  0  0  0  0  0
  -26.8396  -30.8186   22.0198 H   0  0  0  0  0  0
  -28.0543  -28.8936   21.3021 H   0  0  0  0  0  0
  -25.9229  -25.9316   18.9744 H   0  0  0  0  0  0
  -23.9728  -27.3785   18.9173 H   0  0  0  0  0  0
  -23.7545  -30.6340   19.4091 H   0  0  0  0  0  0
  -22.7475  -29.2884   19.8404 H   0  0  0  0  0  0
  -25.1155  -36.1894   25.0846 H   0  0  0  0  0  0
  -21.0036  -28.3220   24.1385 H   0  0  0  0  0  0
  -20.5717  -26.2265   23.3590 H   0  0  0  0  0  0
  -21.6641  -26.7422   22.1159 H   0  0  0  0  0  0
  -19.6934  -25.6265   21.1258 H   0  0  0  0  0  0
  -19.6742  -27.3173   20.6728 H   0  0  0  0  0  0
  -17.4226  -26.6655   21.4002 H   0  0  0  0  0  0
  -18.0337  -26.0052   22.8999 H   0  0  0  0  0  0
  -19.7950  -30.7288   24.2181 H   0  0  0  0  0  0
  -17.5033  -31.6264   24.5134 H   0  0  0  0  0  0
  -15.5367  -30.2974   23.7715 H   0  0  0  0  0  0
  -15.8653  -28.0845   22.7060 H   0  0  0  0  0  0
  -24.5814  -30.7264   25.7819 H   0  0  0  0  0  0
  -24.9116  -32.2984   26.5037 H   0  0  0  0  0  0
  -25.8077  -30.8795   27.0195 H   0  0  0  0  0  0
  -26.2803  -29.6727   24.1285 H   0  0  0  0  0  0
  -27.3949  -29.7224   25.4721 H   0  0  0  0  0  0
  -27.8693  -30.4219   23.9429 H   0  0  0  0  0  0
  -27.2874  -33.3565   26.2014 H   0  0  0  0  0  0
  -28.3895  -32.6687   25.0178 H   0  0  0  0  0  0
  -28.0803  -31.8304   26.5291 H   0  0  0  0  0  0
  -28.2166  -38.0408   24.8306 H   0  0  0  0  0  0
  -28.1711  -36.3154   24.5006 H   0  0  0  0  0  0
  -27.2648  -36.9787   25.8671 H   0  0  0  0  0  0
  -20.9259  -29.8798   21.6938 H   0  0  0  0  0  0
  -26.0044  -38.2826   24.2192 H   0  0  0  0  0  0
  -34.2307  -19.6135   21.2113 H   0  0  0  0  0  0
  -33.0885  -17.4841   20.7395 H   0  0  0  0  0  0
  -32.9689  -21.7018   21.5399 H   0  0  0  0  0  0
  -29.2705  -19.5546   20.8608 H   0  0  0  0  0  0
  -29.3182  -24.9029   22.8067 H   0  0  0  0  0  0
  -29.1503  -22.0429   19.5715 H   0  0  0  0  0  0
  -27.0389  -24.6101   20.2721 H   0  0  0  0  0  0
  -28.1911  -24.7389   18.9937 H   0  0  0  0  0  0
  -29.3893  -15.8980   21.5423 H   0  0  0  0  0  0
  -29.9854  -18.1610   18.6434 H   0  0  0  0  0  0
  -29.1344  -16.6571   18.7096 H   0  0  0  0  0  0
  -30.9287  -23.4671   24.1699 H   0  0  0  0  0  0
  1 25  1  0  0  0
  1 30  2  0  0  0
  1 84  1  0  0  0
  2  3  1  0  0  0
  2 25  1  0  0  0
  2 87  1  0  0  0
  2 88  1  0  0  0
  3  4  1  0  0  0
  3 89  1  0  0  0
  3 90  1  0  0  0
  4  5  1  0  0  0
  4 91  1  0  0  0
  4 92  1  0  0  0
  5  6  1  0  0  0
  5 26  1  0  0  0
  5 93  1  0  0  0
  6 25  1  0  0  0
  6 94  1  0  0  0
  6 95  1  0  0  0
  7  8  2  0  0  0
  7 26  1  0  0  0
  7 29  1  0  0  0
  8  9  1  0  0  0
  8 22  1  0  0  0
  9 10  1  0  0  0
  9 27  2  0  0  0
 10 11  2  0  0  0
 10 15  1  0  0  0
 11 12  1  0  0  0
 11 96  1  0  0  0
 12 13  2  0  0  0
 12 97  1  0  0  0
 13 14  1  0  0  0
 13 31  1  0  0  0
 14 15  2  0  0  0
 14 98  1  0  0  0
 15 99  1  0  0  0
 16 17  2  0  0  0
 16 21  1  0  0  0
 16 31  1  0  0  0
 17 18  1  0  0  0
 17100  1  0  0  0
 18 19  2  0  0  0
 18101  1  0  0  0
 19 20  1  0  0  0
 19 24  1  0  0  0
 20 21  2  0  0  0
 20102  1  0  0  0
 21 23  1  0  0  0
 22 28  1  0  0  0
 22 32  2  0  0  0
 26 27  1  0  0  0
 28103  1  0  0  0
 28104  1  0  0  0
 29105  1  0  0  0
 29106  1  0  0  0
 33 34  1  0  0  0
 33 66  1  0  0  0
 33 70  2  0  0  0
 34 36  1  0  0  0
 34 59  1  0  0  0
 34107  1  0  0  0
 35 44  2  0  0  0
 35 45  1  0  0  0
 35 68  1  0  0  0
 36 56  1  0  0  0
 36108  1  0  0  0
 37 39  1  0  0  0
 37 47  1  0  0  0
 37 66  1  0  0  0
 37109  1  0  0  0
 38 43  2  0  0  0
 38 46  1  0  0  0
 38 47  1  0  0  0
 39 64  1  0  0  0
 39 67  2  0  0  0
 40 52  1  0  0  0
 40 53  2  0  0  0
 40 58  1  0  0  0
 41110  1  0  0  0
 41111  1  0  0  0
 41112  1  0  0  0
 41 48  1  0  0  0
 42 43  1  0  0  0
 42 66  1  0  0  0
 42113  1  0  0  0
 42114  1  0  0  0
 43 44  1  0  0  0
 44115  1  0  0  0
 45 46  2  0  0  0
 45116  1  0  0  0
 46117  1  0  0  0
 47118  1  0  0  0
 47119  1  0  0  0
 48 56  1  0  0  0
 48 65  1  0  0  0
 48120  1  0  0  0
 49 50  1  0  0  0
 49 53  1  0  0  0
 49 64  1  0  0  0
 49121  1  0  0  0
 50 51  1  0  0  0
 50122  1  0  0  0
 50123  1  0  0  0
 51 52  1  0  0  0
 51124  1  0  0  0
 51125  1  0  0  0
 52126  1  0  0  0
 52127  1  0  0  0
 53 54  1  0  0  0
 54 55  2  0  0  0
 54128  1  0  0  0
 55 57  1  0  0  0
 55129  1  0  0  0
 56 69  2  0  0  0
 57 58  2  0  0  0
 57130  1  0  0  0
 58131  1  0  0  0
 59 60  1  0  0  0
 59 61  1  0  0  0
 59 62  1  0  0  0
 60132  1  0  0  0
 60133  1  0  0  0
 60134  1  0  0  0
 61135  1  0  0  0
 61136  1  0  0  0
 61137  1  0  0  0
 62138  1  0  0  0
 62139  1  0  0  0
 62140  1  0  0  0
 63 65  1  0  0  0
 63141  1  0  0  0
 63142  1  0  0  0
 63143  1  0  0  0
 64144  1  0  0  0
 65145  1  0  0  0
 68 82  1  0  0  0
 71 72  2  0  0  0
 71 73  1  0  0  0
 71146  1  0  0  0
 72 77  1  0  0  0
 72147  1  0  0  0
 73 79  2  0  0  0
 73148  1  0  0  0
 74 77  2  0  0  0
 74 79  1  0  0  0
 74149  1  0  0  0
 75 78  1  0  0  0
 75 80  2  0  0  0
 75150  1  0  0  0
 76 78  2  0  0  0
 76 83  1  0  0  0
 76151  1  0  0  0
 77 81  1  0  0  0
 78 82  1  0  0  0
 79 83  1  0  0  0
 80 83  1  0  0  0
 80 86  1  0  0  0
 81 84  1  0  0  0
 81 85  2  0  0  0
 82152  1  0  0  0
 82153  1  0  0  0
 84154  1  0  0  0
 85155  1  0  0  0
 85156  1  0  0  0
 86157  1  0  0  0
M  CHG  1  85   1
M  ISO  4   1 100  68 101  82 101  84 100
M  END
> <chiral flag>
0

> <version>
0

> <s_m_source_file>
/data/baiqing/PycharmProjects/Reinvent-master-3.2/result/LINK_invent/BTK/process_docking_weight1_custom_product_contain_oxygen_bond_distance_aromatic_linkinvent_7_9_3/rearranged_h_0089.sdf

> <i_m_source_file_index>
24

> <r_mmod_Potential_Energy-OPLS-2005>
-103.088745117188

> <r_mmod_Stretch_Energy-OPLS-2005>
81.2182769775391

> <r_mmod_Bend_Energy-OPLS-2005>
140.612106323242

> <r_mmod_Torsional_Energy-OPLS-2005>
331.244995117188

> <r_mmod_Improper_Torsional_Energy-OPLS-2005>
7.08647775650024

> <r_mmod_Van_der_Waal_Energy-OPLS-2005>
135.874649047852

> <r_mmod_Electrostatic_Energy-OPLS-2005>
-405.836944580078

> <r_mmod_Solvation_Energy-OPLS-2005>
-463.854370117188

> <b_mmod_Minimization_Converged-OPLS-2005>
0

> <r_mmod_RMS_Derivative-OPLS-2005>
9.75994873046875

$$$$
24
                    3D
 Structure written by MMmdl.
155164  0  0  1  0            999 V2000
  -30.6514  -14.5497   20.5260 C   0  0  0  0  0  0
  -30.4335  -12.3402   19.4475 C   0  0  0  0  0  0
  -29.5083  -12.5037   18.2207 C   0  0  0  0  0  0
  -28.0281  -12.3624   18.6288 C   0  0  0  0  0  0
  -27.6614  -13.2138   19.8746 C   0  0  2  0  0  0
  -28.7000  -13.0236   21.0041 C   0  0  0  0  0  0
  -25.2574  -13.8178   20.5671 C   0  0  0  0  0  0
  -24.1829  -13.0454   20.9170 C   0  0  0  0  0  0
  -24.6398  -11.6924   20.8738 C   0  0  0  0  0  0
  -23.9068  -10.4306   21.0415 C   0  0  0  0  0  0
  -24.3622   -9.4215   21.9193 C   0  0  0  0  0  0
  -23.6295   -8.2254   22.0765 C   0  0  0  0  0  0
  -22.4268   -8.0298   21.3565 C   0  0  0  0  0  0
  -21.9901   -9.0266   20.4663 C   0  0  0  0  0  0
  -22.7237  -10.2145   20.3065 C   0  0  0  0  0  0
  -21.6847   -6.0742   22.5289 C   0  0  0  0  0  0
  -21.4018   -6.5641   23.8224 C   0  0  0  0  0  0
  -21.3654   -5.6788   24.9180 C   0  0  0  0  0  0
  -21.6039   -4.3053   24.7223 C   0  0  0  0  0  0
  -21.8818   -3.8151   23.4345 C   0  0  0  0  0  0
  -21.9187   -4.6972   22.3407 C   0  0  0  0  0  0
  -22.7855  -13.5258   21.1839 C   0  0  0  0  0  0
  -22.1656   -4.2171   21.0983 F   0  0  0  0  0  0
  -21.5614   -3.4532   25.7732 F   0  0  0  0  0  0
  -30.0274  -13.3380   20.4548 N   0  0  0  0  0  0
  -26.3015  -12.9363   20.3340 N   0  0  0  0  0  0
  -25.9323  -11.6521   20.5757 N   0  0  0  0  0  0
  -22.0487  -12.8256   22.0404 N   0  0  0  0  0  0
  -25.4307  -15.1897   20.4095 N   0  0  0  0  0  0
  -31.7864  -14.7306   20.0724 O   0  0  0  0  0  0
  -21.6637   -6.8889   21.4256 O   0  0  0  0  0  0
  -22.3543  -14.5567   20.6689 O   0  0  0  0  0  0
  -24.6198  -31.8638   23.2069 C   0  0  0  0  0  0
  -25.9068  -32.4805   23.8380 C   0  0  1  0  0  0
  -27.2271  -27.3882   20.1100 C   0  0  0  0  0  0
  -25.5898  -33.8606   24.2309 N   0  0  0  0  0  0
  -23.4122  -30.4887   21.5459 C   0  0  2  0  0  0
  -24.8618  -28.9556   20.1060 C   0  0  0  0  0  0
  -22.7443  -29.4641   22.4931 C   0  0  0  0  0  0
  -18.0285  -28.1380   22.8483 C   0  0  0  0  0  0
  -24.1487  -36.7318   23.2636 C   0  0  0  0  0  0
  -25.9465  -30.8170   21.3681 C   0  0  0  0  0  0
  -26.0253  -29.4501   20.7106 C   0  0  0  0  0  0
  -27.2159  -28.6755   20.7084 C   0  0  0  0  0  0
  -26.0515  -26.9315   19.4762 C   0  0  0  0  0  0
  -24.8728  -27.6990   19.4788 C   0  0  0  0  0  0
  -23.6247  -29.8260   20.1589 C   0  0  0  0  0  0
  -25.4102  -36.3101   24.0334 C   0  0  1  0  0  0
  -20.5881  -28.3679   23.1286 C   0  0  2  0  0  0
  -20.6774  -26.9406   22.5408 C   0  0  0  0  0  0
  -19.5752  -26.6385   21.5205 C   0  0  0  0  0  0
  -18.1929  -26.7924   22.1616 C   0  0  0  0  0  0
  -19.1537  -28.8843   23.2884 C   0  0  0  0  0  0
  -18.9461  -30.1443   23.8911 C   0  0  0  0  0  0
  -17.6463  -30.6580   24.0569 C   0  0  0  0  0  0
  -25.9035  -34.9468   23.5118 C   0  0  0  0  0  0
  -16.5353  -29.9087   23.6322 C   0  0  0  0  0  0
  -16.7274  -28.6502   23.0343 C   0  0  0  0  0  0
  -26.4475  -31.6597   25.0726 C   0  0  0  0  0  0
  -25.3739  -31.3724   26.1478 C   0  0  0  0  0  0
  -27.0300  -30.3027   24.6129 C   0  0  0  0  0  0
  -27.6038  -32.4322   25.7495 C   0  0  0  0  0  0
  -27.5583  -37.1807   24.8454 C   0  0  0  0  0  0
  -21.4165  -29.3041   22.3683 N   0  0  0  0  0  0
  -26.4283  -37.3792   23.9416 N   0  0  0  0  0  0
  -24.6780  -31.0714   22.0985 N   0  0  0  0  0  0
  -23.4190  -28.8170   23.2986 O   0  0  0  0  0  0
  -28.3128  -26.5270   20.1832 O   0  0  0  0  0  0
  -26.5609  -34.8928   22.4690 O   0  0  0  0  0  0
  -23.5376  -32.1396   23.7436 O   0  0  0  0  0  0
  -29.2628  -18.1432   18.3172 C   0  0  0  0  0  0
  -28.9549  -19.2907   19.0718 C   0  0  0  0  0  0
  -29.6441  -16.9469   18.9523 C   0  0  0  0  0  0
  -29.4322  -18.0521   21.1108 C   0  0  0  0  0  0
  -29.0812  -19.2923   20.4791 C   0  0  0  0  0  0
  -29.7103  -16.8666   20.3618 C   0  0  0  0  0  0
  -28.6191  -24.0950   20.6041 C   0  0  0  0  0  0
  -28.1342  -22.8903   21.2789 C   0  0  0  0  0  0
  -28.0311  -25.3094   20.8035 C   0  0  0  0  0  0
  -28.6513  -20.5112   21.2994 C   0  0  0  0  0  0
  -29.7535  -23.7420   19.6936 C   0  0  0  0  0  0
  -29.9304  -22.2288   19.9365 C   0  0  0  0  0  0
  -28.8417  -21.8025   20.8428 N   0  0  0  0  0  0
  -29.9110  -15.5856   21.0016 N   0  0  0  0  0  0
  -27.1940  -22.8739   22.0838 O   0  0  0  0  0  0
  -28.1033  -20.2585   22.3794 O   0  0  0  0  0  0
  -31.4785  -12.4472   19.1508 H   0  0  0  0  0  0
  -30.3460  -11.3359   19.8638 H   0  0  0  0  0  0
  -29.7561  -11.7598   17.4613 H   0  0  0  0  0  0
  -29.6739  -13.4779   17.7575 H   0  0  0  0  0  0
  -27.8462  -11.3064   18.8334 H   0  0  0  0  0  0
  -27.3812  -12.6279   17.7922 H   0  0  0  0  0  0
  -27.6979  -14.2590   19.5637 H   0  0  0  0  0  0
  -28.6875  -11.9937   21.3664 H   0  0  0  0  0  0
  -28.4566  -13.6419   21.8693 H   0  0  0  0  0  0
  -25.2788   -9.5669   22.4739 H   0  0  0  0  0  0
  -24.0013   -7.4628   22.7460 H   0  0  0  0  0  0
  -21.0836   -8.8781   19.8955 H   0  0  0  0  0  0
  -22.3723  -10.9670   19.6146 H   0  0  0  0  0  0
  -21.2037   -7.6153   23.9733 H   0  0  0  0  0  0
  -21.1459   -6.0521   25.9081 H   0  0  0  0  0  0
  -22.0603   -2.7615   23.2835 H   0  0  0  0  0  0
  -22.4089  -11.9931   22.4823 H   0  0  0  0  0  0
  -21.1106  -13.1281   22.2594 H   0  0  0  0  0  0
  -24.6713  -15.8503   20.5318 H   0  0  0  0  0  0
  -26.2891  -15.6266   20.0980 H   0  0  0  0  0  0
  -26.7143  -32.5502   23.1147 H   0  0  0  0  0  0
  -25.0056  -33.9759   25.0455 H   0  0  0  0  0  0
  -22.7033  -31.3075   21.4059 H   0  0  0  0  0  0
  -23.3745  -35.9655   23.3282 H   0  0  0  0  0  0
  -24.3590  -36.8955   22.2055 H   0  0  0  0  0  0
  -23.7244  -37.6519   23.6665 H   0  0  0  0  0  0
  -26.0669  -31.5814   20.5992 H   0  0  0  0  0  0
  -26.8315  -30.8688   21.9906 H   0  0  0  0  0  0
  -28.1087  -29.0413   21.1959 H   0  0  0  0  0  0
  -26.0400  -25.9600   19.0027 H   0  0  0  0  0  0
  -23.9822  -27.3144   19.0019 H   0  0  0  0  0  0
  -23.7378  -30.6039   19.4027 H   0  0  0  0  0  0
  -22.7481  -29.2500   19.8575 H   0  0  0  0  0  0
  -25.1271  -36.1963   25.0824 H   0  0  0  0  0  0
  -20.9976  -28.3261   24.1403 H   0  0  0  0  0  0
  -20.5662  -26.2289   23.3603 H   0  0  0  0  0  0
  -21.6645  -26.7427   22.1211 H   0  0  0  0  0  0
  -19.6910  -25.6296   21.1236 H   0  0  0  0  0  0
  -19.6692  -27.3195   20.6733 H   0  0  0  0  0  0
  -17.4191  -26.6661   21.4025 H   0  0  0  0  0  0
  -18.0339  -26.0065   22.9014 H   0  0  0  0  0  0
  -19.7938  -30.7255   24.2285 H   0  0  0  0  0  0
  -17.5020  -31.6262   24.5173 H   0  0  0  0  0  0
  -15.5357  -30.2997   23.7637 H   0  0  0  0  0  0
  -15.8669  -28.0834   22.7042 H   0  0  0  0  0  0
  -24.5880  -30.7101   25.7829 H   0  0  0  0  0  0
  -24.8975  -32.2894   26.4953 H   0  0  0  0  0  0
  -25.8091  -30.8873   27.0221 H   0  0  0  0  0  0
  -26.2847  -29.6803   24.1158 H   0  0  0  0  0  0
  -27.4023  -29.7255   25.4602 H   0  0  0  0  0  0
  -27.8708  -30.4331   23.9313 H   0  0  0  0  0  0
  -27.2627  -33.3591   26.2117 H   0  0  0  0  0  0
  -28.3823  -32.6932   25.0312 H   0  0  0  0  0  0
  -28.0730  -31.8423   26.5380 H   0  0  0  0  0  0
  -28.2576  -38.0128   24.7529 H   0  0  0  0  0  0
  -28.1104  -36.2662   24.6227 H   0  0  0  0  0  0
  -27.2317  -37.1394   25.8861 H   0  0  0  0  0  0
  -20.9322  -29.8789   21.6929 H   0  0  0  0  0  0
  -26.0170  -38.2865   24.1435 H   0  0  0  0  0  0
  -29.1674  -18.1682   17.2409 H   0  0  0  0  0  0
  -28.5806  -20.1619   18.5537 H   0  0  0  0  0  0
  -29.8242  -16.0768   18.3362 H   0  0  0  0  0  0
  -29.4465  -18.0040   22.1912 H   0  0  0  0  0  0
  -27.2061  -25.4067   21.4984 H   0  0  0  0  0  0
  -30.6514  -24.3074   19.9443 H   0  0  0  0  0  0
  -29.4803  -23.9546   18.6590 H   0  0  0  0  0  0
  -30.8875  -22.0353   20.4238 H   0  0  0  0  0  0
  -29.9537  -21.7114   18.9814 H   0  0  0  0  0  0
  -29.1657  -15.3090   21.6227 H   0  0  0  0  0  0
  1 25  1  0  0  0
  1 30  2  0  0  0
  1 84  1  0  0  0
  2  3  1  0  0  0
  2 25  1  0  0  0
  2 87  1  0  0  0
  2 88  1  0  0  0
  3  4  1  0  0  0
  3 89  1  0  0  0
  3 90  1  0  0  0
  4  5  1  0  0  0
  4 91  1  0  0  0
  4 92  1  0  0  0
  5  6  1  0  0  0
  5 26  1  0  0  0
  5 93  1  0  0  0
  6 25  1  0  0  0
  6 94  1  0  0  0
  6 95  1  0  0  0
  7  8  2  0  0  0
  7 26  1  0  0  0
  7 29  1  0  0  0
  8  9  1  0  0  0
  8 22  1  0  0  0
  9 10  1  0  0  0
  9 27  2  0  0  0
 10 11  2  0  0  0
 10 15  1  0  0  0
 11 12  1  0  0  0
 11 96  1  0  0  0
 12 13  2  0  0  0
 12 97  1  0  0  0
 13 14  1  0  0  0
 13 31  1  0  0  0
 14 15  2  0  0  0
 14 98  1  0  0  0
 15 99  1  0  0  0
 16 17  2  0  0  0
 16 21  1  0  0  0
 16 31  1  0  0  0
 17 18  1  0  0  0
 17100  1  0  0  0
 18 19  2  0  0  0
 18101  1  0  0  0
 19 20  1  0  0  0
 19 24  1  0  0  0
 20 21  2  0  0  0
 20102  1  0  0  0
 21 23  1  0  0  0
 22 28  1  0  0  0
 22 32  2  0  0  0
 26 27  1  0  0  0
 28103  1  0  0  0
 28104  1  0  0  0
 29105  1  0  0  0
 29106  1  0  0  0
 33 34  1  0  0  0
 33 66  1  0  0  0
 33 70  2  0  0  0
 34 36  1  0  0  0
 34 59  1  0  0  0
 34107  1  0  0  0
 35 44  2  0  0  0
 35 45  1  0  0  0
 35 68  1  0  0  0
 36 56  1  0  0  0
 36108  1  0  0  0
 37 39  1  0  0  0
 37 47  1  0  0  0
 37 66  1  0  0  0
 37109  1  0  0  0
 38 43  2  0  0  0
 38 46  1  0  0  0
 38 47  1  0  0  0
 39 64  1  0  0  0
 39 67  2  0  0  0
 40 52  1  0  0  0
 40 53  2  0  0  0
 40 58  1  0  0  0
 41110  1  0  0  0
 41111  1  0  0  0
 41112  1  0  0  0
 41 48  1  0  0  0
 42 43  1  0  0  0
 42 66  1  0  0  0
 42113  1  0  0  0
 42114  1  0  0  0
 43 44  1  0  0  0
 44115  1  0  0  0
 45 46  2  0  0  0
 45116  1  0  0  0
 46117  1  0  0  0
 47118  1  0  0  0
 47119  1  0  0  0
 48 56  1  0  0  0
 48 65  1  0  0  0
 48120  1  0  0  0
 49 50  1  0  0  0
 49 53  1  0  0  0
 49 64  1  0  0  0
 49121  1  0  0  0
 50 51  1  0  0  0
 50122  1  0  0  0
 50123  1  0  0  0
 51 52  1  0  0  0
 51124  1  0  0  0
 51125  1  0  0  0
 52126  1  0  0  0
 52127  1  0  0  0
 53 54  1  0  0  0
 54 55  2  0  0  0
 54128  1  0  0  0
 55 57  1  0  0  0
 55129  1  0  0  0
 56 69  2  0  0  0
 57 58  2  0  0  0
 57130  1  0  0  0
 58131  1  0  0  0
 59 60  1  0  0  0
 59 61  1  0  0  0
 59 62  1  0  0  0
 60132  1  0  0  0
 60133  1  0  0  0
 60134  1  0  0  0
 61135  1  0  0  0
 61136  1  0  0  0
 61137  1  0  0  0
 62138  1  0  0  0
 62139  1  0  0  0
 62140  1  0  0  0
 63 65  1  0  0  0
 63141  1  0  0  0
 63142  1  0  0  0
 63143  1  0  0  0
 64144  1  0  0  0
 65145  1  0  0  0
 68 79  1  0  0  0
 71 72  2  0  0  0
 71 73  1  0  0  0
 71146  1  0  0  0
 72 75  1  0  0  0
 72147  1  0  0  0
 73 76  2  0  0  0
 73148  1  0  0  0
 74 75  2  0  0  0
 74 76  1  0  0  0
 74149  1  0  0  0
 75 80  1  0  0  0
 76 84  1  0  0  0
 77 78  1  0  0  0
 77 79  2  0  0  0
 77 81  1  0  0  0
 78 83  1  0  0  0
 78 85  2  0  0  0
 79150  1  0  0  0
 80 83  1  0  0  0
 80 86  2  0  0  0
 81 82  1  0  0  0
 81151  1  0  0  0
 81152  1  0  0  0
 82 83  1  0  0  0
 82153  1  0  0  0
 82154  1  0  0  0
 84155  1  0  0  0
M  ISO  4   1 100  68 101  79 101  84 100
M  END
> <chiral flag>
0

> <version>
0

> <s_m_source_file>
/data/baiqing/PycharmProjects/Reinvent-master-3.2/result/LINK_invent/BTK/process_docking_weight1_custom_product_contain_oxygen_bond_distance_aromatic_linkinvent_7_9_3/rearranged_h_0089.sdf

> <i_m_source_file_index>
25

> <r_mmod_Potential_Energy-OPLS-2005>
88.9776916503906

> <r_mmod_Stretch_Energy-OPLS-2005>
57.3776931762695

> <r_mmod_Bend_Energy-OPLS-2005>
135.313522338867

> <r_mmod_Torsional_Energy-OPLS-2005>
307.963928222656

> <r_mmod_Improper_Torsional_Energy-OPLS-2005>
6.75665187835693

> <r_mmod_Van_der_Waal_Energy-OPLS-2005>
157.510162353516

> <r_mmod_Electrostatic_Energy-OPLS-2005>
-374.384460449219

> <r_mmod_Solvation_Energy-OPLS-2005>
-230.262023925781

> <b_mmod_Minimization_Converged-OPLS-2005>
0

> <r_mmod_RMS_Derivative-OPLS-2005>
2.03115153312683

$$$$
25
                    3D
 Structure written by MMmdl.
152160  0  0  1  0            999 V2000
  -30.7142  -14.6511   20.5016 C   0  0  0  0  0  0
  -30.4116  -12.4109   19.4561 C   0  0  0  0  0  0
  -29.4946  -12.4959   18.2213 C   0  0  0  0  0  0
  -28.0237  -12.3316   18.6436 C   0  0  0  0  0  0
  -27.6410  -13.2339   19.8481 C   0  0  2  0  0  0
  -28.6911  -13.1735   20.9797 C   0  0  0  0  0  0
  -25.2514  -13.8205   20.5706 C   0  0  0  0  0  0
  -24.1809  -13.0447   20.9218 C   0  0  0  0  0  0
  -24.6401  -11.6925   20.8757 C   0  0  0  0  0  0
  -23.9081  -10.4298   21.0414 C   0  0  0  0  0  0
  -24.3627   -9.4210   21.9190 C   0  0  0  0  0  0
  -23.6296   -8.2246   22.0757 C   0  0  0  0  0  0
  -22.4281   -8.0287   21.3544 C   0  0  0  0  0  0
  -21.9923   -9.0264   20.4647 C   0  0  0  0  0  0
  -22.7256  -10.2140   20.3060 C   0  0  0  0  0  0
  -21.6853   -6.0741   22.5277 C   0  0  0  0  0  0
  -21.4014   -6.5643   23.8212 C   0  0  0  0  0  0
  -21.3658   -5.6796   24.9173 C   0  0  0  0  0  0
  -21.6044   -4.3057   24.7223 C   0  0  0  0  0  0
  -21.8819   -3.8152   23.4343 C   0  0  0  0  0  0
  -21.9193   -4.6970   22.3399 C   0  0  0  0  0  0
  -22.7829  -13.5227   21.1869 C   0  0  0  0  0  0
  -22.1662   -4.2154   21.0977 F   0  0  0  0  0  0
  -21.5628   -3.4542   25.7736 F   0  0  0  0  0  0
  -29.9945  -13.4868   20.3835 N   0  0  0  0  0  0
  -26.2946  -12.9422   20.3304 N   0  0  0  0  0  0
  -25.9334  -11.6560   20.5775 N   0  0  0  0  0  0
  -22.0469  -12.8211   22.0412 N   0  0  0  0  0  0
  -25.4198  -15.1928   20.4099 N   0  0  0  0  0  0
  -31.9045  -14.6400   20.1776 O   0  0  0  0  0  0
  -21.6642   -6.8888   21.4241 O   0  0  0  0  0  0
  -22.3516  -14.5532   20.6714 O   0  0  0  0  0  0
  -24.6283  -31.8604   23.2053 C   0  0  0  0  0  0
  -25.9131  -32.4781   23.8367 C   0  0  1  0  0  0
  -27.2084  -27.3028   20.1118 C   0  0  0  0  0  0
  -25.5947  -33.8581   24.2291 N   0  0  0  0  0  0
  -23.4202  -30.4882   21.5497 C   0  0  2  0  0  0
  -24.8641  -28.9526   20.1082 C   0  0  0  0  0  0
  -22.7478  -29.4633   22.4947 C   0  0  0  0  0  0
  -18.0282  -28.1388   22.8488 C   0  0  0  0  0  0
  -24.1488  -36.7288   23.2635 C   0  0  0  0  0  0
  -25.9652  -30.7871   21.3793 C   0  0  0  0  0  0
  -26.0370  -29.4154   20.7184 C   0  0  0  0  0  0
  -27.2129  -28.6018   20.7148 C   0  0  0  0  0  0
  -26.0123  -26.9165   19.4568 C   0  0  0  0  0  0
  -24.8554  -27.7094   19.4677 C   0  0  0  0  0  0
  -23.6332  -29.8318   20.1624 C   0  0  0  0  0  0
  -25.4112  -36.3081   24.0327 C   0  0  1  0  0  0
  -20.5884  -28.3692   23.1285 C   0  0  2  0  0  0
  -20.6776  -26.9416   22.5405 C   0  0  0  0  0  0
  -19.5748  -26.6387   21.5210 C   0  0  0  0  0  0
  -18.1927  -26.7933   22.1621 C   0  0  0  0  0  0
  -19.1535  -28.8857   23.2880 C   0  0  0  0  0  0
  -18.9458  -30.1461   23.8895 C   0  0  0  0  0  0
  -17.6459  -30.6591   24.0561 C   0  0  0  0  0  0
  -25.9054  -34.9452   23.5104 C   0  0  0  0  0  0
  -16.5350  -29.9087   23.6338 C   0  0  0  0  0  0
  -16.7269  -28.6504   23.0360 C   0  0  0  0  0  0
  -26.4515  -31.6587   25.0734 C   0  0  0  0  0  0
  -25.3743  -31.3709   26.1452 C   0  0  0  0  0  0
  -27.0367  -30.3017   24.6185 C   0  0  0  0  0  0
  -27.6072  -32.4321   25.7506 C   0  0  0  0  0  0
  -27.5580  -37.1795   24.8460 C   0  0  0  0  0  0
  -21.4189  -29.3049   22.3687 N   0  0  0  0  0  0
  -26.4284  -37.3781   23.9416 N   0  0  0  0  0  0
  -24.6905  -31.0612   22.1015 N   0  0  0  0  0  0
  -23.4199  -28.8156   23.3013 O   0  0  0  0  0  0
  -28.2907  -26.4001   20.1841 O   0  0  0  0  0  0
  -26.5611  -34.8918   22.4663 O   0  0  0  0  0  0
  -23.5447  -32.1407   23.7380 O   0  0  0  0  0  0
  -30.9119  -19.5777   20.6341 C   0  0  0  0  0  0
  -30.4384  -20.9156   20.5055 C   0  0  0  0  0  0
  -28.6667  -18.7416   20.8252 C   0  0  0  0  0  0
  -30.0539  -18.4467   20.7953 C   0  0  0  0  0  0
  -29.0547  -21.2072   20.5316 C   0  0  0  0  0  0
  -28.1858  -20.0856   20.6992 C   0  0  0  0  0  0
  -30.6802  -17.0480   21.0287 C   0  0  0  0  0  0
  -28.9592  -23.8224   20.3598 C   0  0  0  0  0  0
  -27.9494  -24.9671   19.9492 C   0  0  0  0  0  0
  -26.8108  -20.3108   20.7607 N   0  0  0  0  0  0
  -28.4730  -22.5365   20.3312 N   0  0  0  0  0  0
  -30.0624  -15.8482   20.7382 N   0  0  0  0  0  0
  -31.8309  -17.0718   21.4844 O   0  0  0  0  0  0
  -30.1178  -24.0989   20.6824 O   0  0  0  0  0  0
  -31.4556  -12.4883   19.1473 H   0  0  0  0  0  0
  -30.3200  -11.4362   19.9386 H   0  0  0  0  0  0
  -29.7637  -11.7279   17.4946 H   0  0  0  0  0  0
  -29.6328  -13.4553   17.7204 H   0  0  0  0  0  0
  -27.8764  -11.2837   18.9075 H   0  0  0  0  0  0
  -27.3626  -12.5269   17.7986 H   0  0  0  0  0  0
  -27.6355  -14.2551   19.4666 H   0  0  0  0  0  0
  -28.7114  -12.1848   21.4402 H   0  0  0  0  0  0
  -28.4441  -13.8788   21.7747 H   0  0  0  0  0  0
  -25.2769   -9.5681   22.4772 H   0  0  0  0  0  0
  -24.0002   -7.4638   22.7480 H   0  0  0  0  0  0
  -21.0856   -8.8789   19.8950 H   0  0  0  0  0  0
  -22.3722  -10.9683   19.6171 H   0  0  0  0  0  0
  -21.2005   -7.6151   23.9715 H   0  0  0  0  0  0
  -21.1481   -6.0526   25.9075 H   0  0  0  0  0  0
  -22.0599   -2.7615   23.2841 H   0  0  0  0  0  0
  -22.4082  -11.9866   22.4790 H   0  0  0  0  0  0
  -21.1083  -13.1233   22.2608 H   0  0  0  0  0  0
  -24.6484  -15.8437   20.5107 H   0  0  0  0  0  0
  -26.2586  -15.6284   20.0494 H   0  0  0  0  0  0
  -26.7196  -32.5447   23.1111 H   0  0  0  0  0  0
  -25.0109  -33.9727   25.0449 H   0  0  0  0  0  0
  -22.7141  -31.3097   21.4114 H   0  0  0  0  0  0
  -23.3757  -35.9611   23.3279 H   0  0  0  0  0  0
  -24.3584  -36.8930   22.2053 H   0  0  0  0  0  0
  -23.7233  -37.6481   23.6670 H   0  0  0  0  0  0
  -26.0972  -31.5512   20.6117 H   0  0  0  0  0  0
  -26.8462  -30.8354   22.0074 H   0  0  0  0  0  0
  -28.1074  -28.9480   21.2138 H   0  0  0  0  0  0
  -25.9197  -25.9770   18.9347 H   0  0  0  0  0  0
  -23.9602  -27.3534   18.9768 H   0  0  0  0  0  0
  -23.7496  -30.6116   19.4091 H   0  0  0  0  0  0
  -22.7527  -29.2619   19.8596 H   0  0  0  0  0  0
  -25.1292  -36.1924   25.0818 H   0  0  0  0  0  0
  -20.9969  -28.3258   24.1409 H   0  0  0  0  0  0
  -20.5690  -26.2293   23.3599 H   0  0  0  0  0  0
  -21.6646  -26.7457   22.1190 H   0  0  0  0  0  0
  -19.6912  -25.6297   21.1240 H   0  0  0  0  0  0
  -19.6689  -27.3197   20.6740 H   0  0  0  0  0  0
  -17.4198  -26.6684   21.4021 H   0  0  0  0  0  0
  -18.0327  -26.0070   22.9014 H   0  0  0  0  0  0
  -19.7932  -30.7280   24.2263 H   0  0  0  0  0  0
  -17.5011  -31.6276   24.5156 H   0  0  0  0  0  0
  -15.5352  -30.2988   23.7670 H   0  0  0  0  0  0
  -15.8664  -28.0821   22.7090 H   0  0  0  0  0  0
  -24.5939  -30.7035   25.7774 H   0  0  0  0  0  0
  -24.8906  -32.2862   26.4870 H   0  0  0  0  0  0
  -25.8071  -30.8896   27.0229 H   0  0  0  0  0  0
  -26.2948  -29.6753   24.1217 H   0  0  0  0  0  0
  -27.4087  -29.7285   25.4687 H   0  0  0  0  0  0
  -27.8805  -30.4315   23.9401 H   0  0  0  0  0  0
  -27.2699  -33.3638   26.2055 H   0  0  0  0  0  0
  -28.3904  -32.6845   25.0345 H   0  0  0  0  0  0
  -28.0709  -31.8452   26.5445 H   0  0  0  0  0  0
  -28.2573  -38.0118   24.7552 H   0  0  0  0  0  0
  -28.1106  -36.2654   24.6233 H   0  0  0  0  0  0
  -27.2301  -37.1377   25.8861 H   0  0  0  0  0  0
  -20.9363  -29.8782   21.6910 H   0  0  0  0  0  0
  -26.0159  -38.2846   24.1444 H   0  0  0  0  0  0
  -31.9827  -19.4263   20.6157 H   0  0  0  0  0  0
  -31.1562  -21.7129   20.3747 H   0  0  0  0  0  0
  -27.9677  -17.9303   20.9697 H   0  0  0  0  0  0
  -27.0230  -24.7285   20.4750 H   0  0  0  0  0  0
  -27.7672  -24.8304   18.8825 H   0  0  0  0  0  0
  -26.2478  -19.5366   21.0966 H   0  0  0  0  0  0
  -26.5211  -21.1767   21.2007 H   0  0  0  0  0  0
  -27.4907  -22.4852   20.0995 H   0  0  0  0  0  0
  -29.0631  -15.8588   20.6316 H   0  0  0  0  0  0
  1 25  1  0  0  0
  1 30  2  0  0  0
  1 82  1  0  0  0
  2  3  1  0  0  0
  2 25  1  0  0  0
  2 85  1  0  0  0
  2 86  1  0  0  0
  3  4  1  0  0  0
  3 87  1  0  0  0
  3 88  1  0  0  0
  4  5  1  0  0  0
  4 89  1  0  0  0
  4 90  1  0  0  0
  5  6  1  0  0  0
  5 26  1  0  0  0
  5 91  1  0  0  0
  6 25  1  0  0  0
  6 92  1  0  0  0
  6 93  1  0  0  0
  7  8  2  0  0  0
  7 26  1  0  0  0
  7 29  1  0  0  0
  8  9  1  0  0  0
  8 22  1  0  0  0
  9 10  1  0  0  0
  9 27  2  0  0  0
 10 11  2  0  0  0
 10 15  1  0  0  0
 11 12  1  0  0  0
 11 94  1  0  0  0
 12 13  2  0  0  0
 12 95  1  0  0  0
 13 14  1  0  0  0
 13 31  1  0  0  0
 14 15  2  0  0  0
 14 96  1  0  0  0
 15 97  1  0  0  0
 16 17  2  0  0  0
 16 21  1  0  0  0
 16 31  1  0  0  0
 17 18  1  0  0  0
 17 98  1  0  0  0
 18 19  2  0  0  0
 18 99  1  0  0  0
 19 20  1  0  0  0
 19 24  1  0  0  0
 20 21  2  0  0  0
 20100  1  0  0  0
 21 23  1  0  0  0
 22 28  1  0  0  0
 22 32  2  0  0  0
 26 27  1  0  0  0
 28101  1  0  0  0
 28102  1  0  0  0
 29103  1  0  0  0
 29104  1  0  0  0
 33 34  1  0  0  0
 33 66  1  0  0  0
 33 70  2  0  0  0
 34 36  1  0  0  0
 34 59  1  0  0  0
 34105  1  0  0  0
 35 44  2  0  0  0
 35 45  1  0  0  0
 35 68  1  0  0  0
 36 56  1  0  0  0
 36106  1  0  0  0
 37 39  1  0  0  0
 37 47  1  0  0  0
 37 66  1  0  0  0
 37107  1  0  0  0
 38 43  2  0  0  0
 38 46  1  0  0  0
 38 47  1  0  0  0
 39 64  1  0  0  0
 39 67  2  0  0  0
 40 52  1  0  0  0
 40 53  2  0  0  0
 40 58  1  0  0  0
 41108  1  0  0  0
 41109  1  0  0  0
 41110  1  0  0  0
 41 48  1  0  0  0
 42 43  1  0  0  0
 42 66  1  0  0  0
 42111  1  0  0  0
 42112  1  0  0  0
 43 44  1  0  0  0
 44113  1  0  0  0
 45 46  2  0  0  0
 45114  1  0  0  0
 46115  1  0  0  0
 47116  1  0  0  0
 47117  1  0  0  0
 48 56  1  0  0  0
 48 65  1  0  0  0
 48118  1  0  0  0
 49 50  1  0  0  0
 49 53  1  0  0  0
 49 64  1  0  0  0
 49119  1  0  0  0
 50 51  1  0  0  0
 50120  1  0  0  0
 50121  1  0  0  0
 51 52  1  0  0  0
 51122  1  0  0  0
 51123  1  0  0  0
 52124  1  0  0  0
 52125  1  0  0  0
 53 54  1  0  0  0
 54 55  2  0  0  0
 54126  1  0  0  0
 55 57  1  0  0  0
 55127  1  0  0  0
 56 69  2  0  0  0
 57 58  2  0  0  0
 57128  1  0  0  0
 58129  1  0  0  0
 59 60  1  0  0  0
 59 61  1  0  0  0
 59 62  1  0  0  0
 60130  1  0  0  0
 60131  1  0  0  0
 60132  1  0  0  0
 61133  1  0  0  0
 61134  1  0  0  0
 61135  1  0  0  0
 62136  1  0  0  0
 62137  1  0  0  0
 62138  1  0  0  0
 63 65  1  0  0  0
 63139  1  0  0  0
 63140  1  0  0  0
 63141  1  0  0  0
 64142  1  0  0  0
 65143  1  0  0  0
 68 79  1  0  0  0
 71 72  2  0  0  0
 71 74  1  0  0  0
 71144  1  0  0  0
 72 75  1  0  0  0
 72145  1  0  0  0
 73 74  2  0  0  0
 73 76  1  0  0  0
 73146  1  0  0  0
 74 77  1  0  0  0
 75 76  2  0  0  0
 75 81  1  0  0  0
 76 80  1  0  0  0
 77 82  1  0  0  0
 77 83  2  0  0  0
 78 79  1  0  0  0
 78 81  1  0  0  0
 78 84  2  0  0  0
 79147  1  0  0  0
 79148  1  0  0  0
 80149  1  0  0  0
 80150  1  0  0  0
 81151  1  0  0  0
 82152  1  0  0  0
M  ISO  4   1 100  68 101  79 101  82 100
M  END
> <chiral flag>
0

> <version>
0

> <s_m_source_file>
/data/baiqing/PycharmProjects/Reinvent-master-3.2/result/LINK_invent/BTK/process_docking_weight1_custom_product_contain_oxygen_bond_distance_aromatic_linkinvent_7_9_3/rearranged_h_0089.sdf

> <i_m_source_file_index>
26

> <r_mmod_Potential_Energy-OPLS-2005>
-94.3634033203125

> <r_mmod_Stretch_Energy-OPLS-2005>
85.0827026367188

> <r_mmod_Bend_Energy-OPLS-2005>
160.320205688477

> <r_mmod_Torsional_Energy-OPLS-2005>
240.028686523438

> <r_mmod_Improper_Torsional_Energy-OPLS-2005>
10.4859418869019

> <r_mmod_Van_der_Waal_Energy-OPLS-2005>
165.871932983398

> <r_mmod_Electrostatic_Energy-OPLS-2005>
-550.525451660156

> <r_mmod_Solvation_Energy-OPLS-2005>
-270.326599121094

> <b_mmod_Minimization_Converged-OPLS-2005>
0

> <r_mmod_RMS_Derivative-OPLS-2005>
0.7093545794487

$$$$
26
                    3D
 Structure written by MMmdl.
157165  0  0  1  0            999 V2000
  -30.6889  -14.6177   20.5031 C   0  0  0  0  0  0
  -30.4279  -12.3808   19.4658 C   0  0  0  0  0  0
  -29.5089  -12.4890   18.2309 C   0  0  0  0  0  0
  -28.0323  -12.3364   18.6430 C   0  0  0  0  0  0
  -27.6531  -13.2210   19.8609 C   0  0  2  0  0  0
  -28.7002  -13.1092   20.9931 C   0  0  0  0  0  0
  -25.2580  -13.8191   20.5695 C   0  0  0  0  0  0
  -24.1834  -13.0460   20.9249 C   0  0  0  0  0  0
  -24.6396  -11.6941   20.8798 C   0  0  0  0  0  0
  -23.9048  -10.4328   21.0445 C   0  0  0  0  0  0
  -24.3606   -9.4237   21.9210 C   0  0  0  0  0  0
  -23.6301   -8.2260   22.0751 C   0  0  0  0  0  0
  -22.4291   -8.0301   21.3538 C   0  0  0  0  0  0
  -21.9921   -9.0268   20.4644 C   0  0  0  0  0  0
  -22.7232  -10.2164   20.3077 C   0  0  0  0  0  0
  -21.6850   -6.0755   22.5284 C   0  0  0  0  0  0
  -21.4008   -6.5641   23.8226 C   0  0  0  0  0  0
  -21.3659   -5.6785   24.9178 C   0  0  0  0  0  0
  -21.6049   -4.3048   24.7226 C   0  0  0  0  0  0
  -21.8810   -3.8153   23.4336 C   0  0  0  0  0  0
  -21.9194   -4.6982   22.3405 C   0  0  0  0  0  0
  -22.7863  -13.5277   21.1872 C   0  0  0  0  0  0
  -22.1656   -4.2163   21.0986 F   0  0  0  0  0  0
  -21.5642   -3.4534   25.7737 F   0  0  0  0  0  0
  -30.0162  -13.4263   20.4231 N   0  0  0  0  0  0
  -26.3000  -12.9362   20.3331 N   0  0  0  0  0  0
  -25.9323  -11.6515   20.5812 N   0  0  0  0  0  0
  -22.0422  -12.8297   22.0398 N   0  0  0  0  0  0
  -25.4326  -15.1907   20.4044 N   0  0  0  0  0  0
  -31.8621  -14.6806   20.1299 O   0  0  0  0  0  0
  -21.6640   -6.8900   21.4250 O   0  0  0  0  0  0
  -22.3570  -14.5574   20.6693 O   0  0  0  0  0  0
  -24.6197  -31.8661   23.2034 C   0  0  0  0  0  0
  -25.9049  -32.4811   23.8389 C   0  0  1  0  0  0
  -27.2336  -27.3714   20.1075 C   0  0  0  0  0  0
  -25.5905  -33.8624   24.2335 N   0  0  0  0  0  0
  -23.4118  -30.4895   21.5456 C   0  0  2  0  0  0
  -24.8560  -28.9363   20.1234 C   0  0  0  0  0  0
  -22.7415  -29.4645   22.4910 C   0  0  0  0  0  0
  -18.0294  -28.1383   22.8479 C   0  0  0  0  0  0
  -24.1482  -36.7315   23.2638 C   0  0  0  0  0  0
  -25.9467  -30.8138   21.3634 C   0  0  0  0  0  0
  -26.0210  -29.4395   20.7142 C   0  0  0  0  0  0
  -27.2130  -28.6661   20.6981 C   0  0  0  0  0  0
  -26.0435  -26.8973   19.5145 C   0  0  0  0  0  0
  -24.8637  -27.6658   19.5232 C   0  0  0  0  0  0
  -23.6257  -29.8194   20.1626 C   0  0  0  0  0  0
  -25.4106  -36.3112   24.0338 C   0  0  1  0  0  0
  -20.5875  -28.3692   23.1268 C   0  0  2  0  0  0
  -20.6774  -26.9425   22.5392 C   0  0  0  0  0  0
  -19.5755  -26.6392   21.5190 C   0  0  0  0  0  0
  -18.1935  -26.7933   22.1610 C   0  0  0  0  0  0
  -19.1543  -28.8852   23.2881 C   0  0  0  0  0  0
  -18.9474  -30.1450   23.8907 C   0  0  0  0  0  0
  -17.6481  -30.6582   24.0574 C   0  0  0  0  0  0
  -25.9039  -34.9479   23.5129 C   0  0  0  0  0  0
  -16.5367  -29.9104   23.6313 C   0  0  0  0  0  0
  -16.7283  -28.6512   23.0339 C   0  0  0  0  0  0
  -26.4460  -31.6614   25.0760 C   0  0  0  0  0  0
  -25.3743  -31.3738   26.1529 C   0  0  0  0  0  0
  -27.0304  -30.3067   24.6143 C   0  0  0  0  0  0
  -27.6042  -32.4339   25.7523 C   0  0  0  0  0  0
  -27.5564  -37.1822   24.8457 C   0  0  0  0  0  0
  -21.4124  -29.3072   22.3665 N   0  0  0  0  0  0
  -26.4275  -37.3796   23.9401 N   0  0  0  0  0  0
  -24.6791  -31.0706   22.0964 N   0  0  0  0  0  0
  -23.4166  -28.8184   23.2977 O   0  0  0  0  0  0
  -28.3977  -26.6069   20.0813 O   0  0  0  0  0  0
  -26.5583  -34.8923   22.4679 O   0  0  0  0  0  0
  -23.5362  -32.1436   23.7367 O   0  0  0  0  0  0
  -28.9399  -20.6536   20.1849 C   0  0  0  0  0  0
  -30.9116  -20.2395   21.5392 C   0  0  0  0  0  0
  -30.4435  -22.4967   20.7026 C   0  0  0  0  0  0
  -29.7544  -19.7177   20.9087 C   0  0  0  0  0  0
  -29.2590  -22.0480   20.0782 C   0  0  0  0  0  0
  -31.2554  -21.6038   21.4257 C   0  0  0  0  0  0
  -28.2248  -24.1624   19.3355 C   0  0  0  0  0  0
  -30.3643  -17.0569   20.8173 C   0  0  0  0  0  0
  -28.3575  -25.1967   20.4853 C   0  0  0  0  0  0
  -29.3264  -18.2123   21.1196 C   0  0  1  0  0  0
  -28.4974  -22.8941   19.2305 N   0  0  0  0  0  0
  -32.4159  -22.0871   22.0235 N   0  0  0  0  0  0
  -29.9594  -15.7377   20.8243 N   0  0  0  0  0  0
  -28.8746  -18.0664   22.5143 N   0  3  0  0  0  0
  -31.5341  -17.3916   20.6024 O   0  0  0  0  0  0
  -31.4707  -12.4689   19.1607 H   0  0  0  0  0  0
  -30.3406  -11.3952   19.9257 H   0  0  0  0  0  0
  -29.7711  -11.7275   17.4964 H   0  0  0  0  0  0
  -29.6545  -13.4526   17.7399 H   0  0  0  0  0  0
  -27.8697  -11.2881   18.8900 H   0  0  0  0  0  0
  -27.3766  -12.5523   17.7982 H   0  0  0  0  0  0
  -27.6654  -14.2494   19.5027 H   0  0  0  0  0  0
  -28.7113  -12.1022   21.4131 H   0  0  0  0  0  0
  -28.4543  -13.7763   21.8193 H   0  0  0  0  0  0
  -25.2742   -9.5722   22.4781 H   0  0  0  0  0  0
  -24.0013   -7.4645   22.7458 H   0  0  0  0  0  0
  -21.0849   -8.8796   19.8938 H   0  0  0  0  0  0
  -22.3694  -10.9706   19.6188 H   0  0  0  0  0  0
  -21.1978   -7.6147   23.9739 H   0  0  0  0  0  0
  -21.1491   -6.0507   25.9085 H   0  0  0  0  0  0
  -22.0587   -2.7617   23.2840 H   0  0  0  0  0  0
  -22.3973  -11.9980   22.4860 H   0  0  0  0  0  0
  -21.1026  -13.1365   22.2501 H   0  0  0  0  0  0
  -24.6519  -15.8344   20.4827 H   0  0  0  0  0  0
  -26.2300  -15.5950   19.9301 H   0  0  0  0  0  0
  -26.7137  -32.5492   23.1163 H   0  0  0  0  0  0
  -25.0118  -33.9820   25.0524 H   0  0  0  0  0  0
  -22.7062  -31.3092   21.3992 H   0  0  0  0  0  0
  -23.3726  -35.9649   23.3316 H   0  0  0  0  0  0
  -24.3545  -36.8921   22.2037 H   0  0  0  0  0  0
  -23.7245  -37.6537   23.6647 H   0  0  0  0  0  0
  -26.0585  -31.5731   20.5876 H   0  0  0  0  0  0
  -26.8333  -30.8697   21.9842 H   0  0  0  0  0  0
  -28.1122  -29.0530   21.1576 H   0  0  0  0  0  0
  -26.0176  -25.9316   19.0344 H   0  0  0  0  0  0
  -23.9665  -27.2715   19.0678 H   0  0  0  0  0  0
  -22.7448  -29.2561   19.8458 H   0  0  0  0  0  0
  -23.7529  -30.6002   19.4114 H   0  0  0  0  0  0
  -25.1280  -36.1982   25.0821 H   0  0  0  0  0  0
  -21.0014  -28.3286   24.1360 H   0  0  0  0  0  0
  -20.5647  -26.2321   23.3597 H   0  0  0  0  0  0
  -21.6657  -26.7440   22.1217 H   0  0  0  0  0  0
  -19.6935  -25.6297   21.1237 H   0  0  0  0  0  0
  -19.6700  -27.3174   20.6706 H   0  0  0  0  0  0
  -17.4203  -26.6659   21.4013 H   0  0  0  0  0  0
  -18.0362  -26.0074   22.9018 H   0  0  0  0  0  0
  -19.7969  -30.7257   24.2272 H   0  0  0  0  0  0
  -17.5052  -31.6259   24.5190 H   0  0  0  0  0  0
  -15.5369  -30.3027   23.7616 H   0  0  0  0  0  0
  -15.8683  -28.0842   22.7047 H   0  0  0  0  0  0
  -24.5904  -30.7072   25.7898 H   0  0  0  0  0  0
  -24.8954  -32.2909   26.4995 H   0  0  0  0  0  0
  -25.8130  -30.8934   27.0294 H   0  0  0  0  0  0
  -26.2886  -29.6842   24.1144 H   0  0  0  0  0  0
  -27.4017  -29.7268   25.4599 H   0  0  0  0  0  0
  -27.8719  -30.4378   23.9338 H   0  0  0  0  0  0
  -27.2668  -33.3625   26.2129 H   0  0  0  0  0  0
  -28.3856  -32.6926   25.0368 H   0  0  0  0  0  0
  -28.0709  -31.8463   26.5440 H   0  0  0  0  0  0
  -28.2614  -38.0104   24.7484 H   0  0  0  0  0  0
  -28.1055  -36.2631   24.6322 H   0  0  0  0  0  0
  -27.2278  -37.1512   25.8868 H   0  0  0  0  0  0
  -20.9245  -29.8883   21.6977 H   0  0  0  0  0  0
  -26.0177  -38.2870   24.1407 H   0  0  0  0  0  0
  -28.0457  -20.2921   19.6954 H   0  0  0  0  0  0
  -31.5508  -19.5855   22.1136 H   0  0  0  0  0  0
  -30.7696  -23.5206   20.5922 H   0  0  0  0  0  0
  -27.7784  -24.6375   18.4600 H   0  0  0  0  0  0
  -27.5442  -25.0333   21.1948 H   0  0  0  0  0  0
  -29.2730  -25.0068   21.0410 H   0  0  0  0  0  0
  -28.4721  -18.0277   20.4681 H   0  0  0  0  0  0
  -32.7944  -22.9714   21.6933 H   0  0  0  0  0  0
  -33.1398  -21.4265   22.2965 H   0  0  0  0  0  0
  -28.9889  -15.5527   21.0121 H   0  0  0  0  0  0
  -29.6548  -18.1579   23.1397 H   0  0  0  0  0  0
  -28.4436  -17.1752   22.6682 H   0  0  0  0  0  0
  -28.2066  -18.7800   22.7345 H   0  0  0  0  0  0
  1 25  1  0  0  0
  1 30  2  0  0  0
  1 83  1  0  0  0
  2  3  1  0  0  0
  2 25  1  0  0  0
  2 86  1  0  0  0
  2 87  1  0  0  0
  3  4  1  0  0  0
  3 88  1  0  0  0
  3 89  1  0  0  0
  4  5  1  0  0  0
  4 90  1  0  0  0
  4 91  1  0  0  0
  5  6  1  0  0  0
  5 26  1  0  0  0
  5 92  1  0  0  0
  6 25  1  0  0  0
  6 93  1  0  0  0
  6 94  1  0  0  0
  7  8  2  0  0  0
  7 26  1  0  0  0
  7 29  1  0  0  0
  8  9  1  0  0  0
  8 22  1  0  0  0
  9 10  1  0  0  0
  9 27  2  0  0  0
 10 11  2  0  0  0
 10 15  1  0  0  0
 11 12  1  0  0  0
 11 95  1  0  0  0
 12 13  2  0  0  0
 12 96  1  0  0  0
 13 14  1  0  0  0
 13 31  1  0  0  0
 14 15  2  0  0  0
 14 97  1  0  0  0
 15 98  1  0  0  0
 16 17  2  0  0  0
 16 21  1  0  0  0
 16 31  1  0  0  0
 17 18  1  0  0  0
 17 99  1  0  0  0
 18 19  2  0  0  0
 18100  1  0  0  0
 19 20  1  0  0  0
 19 24  1  0  0  0
 20 21  2  0  0  0
 20101  1  0  0  0
 21 23  1  0  0  0
 22 28  1  0  0  0
 22 32  2  0  0  0
 26 27  1  0  0  0
 28102  1  0  0  0
 28103  1  0  0  0
 29104  1  0  0  0
 29105  1  0  0  0
 33 34  1  0  0  0
 33 66  1  0  0  0
 33 70  2  0  0  0
 34 36  1  0  0  0
 34 59  1  0  0  0
 34106  1  0  0  0
 35 44  2  0  0  0
 35 45  1  0  0  0
 35 68  1  0  0  0
 36 56  1  0  0  0
 36107  1  0  0  0
 37 39  1  0  0  0
 37 47  1  0  0  0
 37 66  1  0  0  0
 37108  1  0  0  0
 38 43  2  0  0  0
 38 46  1  0  0  0
 38 47  1  0  0  0
 39 64  1  0  0  0
 39 67  2  0  0  0
 40 52  1  0  0  0
 40 53  2  0  0  0
 40 58  1  0  0  0
 41109  1  0  0  0
 41110  1  0  0  0
 41111  1  0  0  0
 41 48  1  0  0  0
 42 43  1  0  0  0
 42 66  1  0  0  0
 42112  1  0  0  0
 42113  1  0  0  0
 43 44  1  0  0  0
 44114  1  0  0  0
 45 46  2  0  0  0
 45115  1  0  0  0
 46116  1  0  0  0
 47117  1  0  0  0
 47118  1  0  0  0
 48 56  1  0  0  0
 48 65  1  0  0  0
 48119  1  0  0  0
 49 50  1  0  0  0
 49 53  1  0  0  0
 49 64  1  0  0  0
 49120  1  0  0  0
 50 51  1  0  0  0
 50121  1  0  0  0
 50122  1  0  0  0
 51 52  1  0  0  0
 51123  1  0  0  0
 51124  1  0  0  0
 52125  1  0  0  0
 52126  1  0  0  0
 53 54  1  0  0  0
 54 55  2  0  0  0
 54127  1  0  0  0
 55 57  1  0  0  0
 55128  1  0  0  0
 56 69  2  0  0  0
 57 58  2  0  0  0
 57129  1  0  0  0
 58130  1  0  0  0
 59 60  1  0  0  0
 59 61  1  0  0  0
 59 62  1  0  0  0
 60131  1  0  0  0
 60132  1  0  0  0
 60133  1  0  0  0
 61134  1  0  0  0
 61135  1  0  0  0
 61136  1  0  0  0
 62137  1  0  0  0
 62138  1  0  0  0
 62139  1  0  0  0
 63 65  1  0  0  0
 63140  1  0  0  0
 63141  1  0  0  0
 63142  1  0  0  0
 64143  1  0  0  0
 65144  1  0  0  0
 68 79  1  0  0  0
 71 74  2  0  0  0
 71 75  1  0  0  0
 71145  1  0  0  0
 72 74  1  0  0  0
 72 76  2  0  0  0
 72146  1  0  0  0
 73 75  2  0  0  0
 73 76  1  0  0  0
 73147  1  0  0  0
 74 80  1  0  0  0
 75 81  1  0  0  0
 76 82  1  0  0  0
 77 79  1  0  0  0
 77 81  2  0  0  0
 77148  1  0  0  0
 78 80  1  0  0  0
 78 83  1  0  0  0
 78 85  2  0  0  0
 79149  1  0  0  0
 79150  1  0  0  0
 80 84  1  0  0  0
 80151  1  0  0  0
 82152  1  0  0  0
 82153  1  0  0  0
 83154  1  0  0  0
 84155  1  0  0  0
 84156  1  0  0  0
 84157  1  0  0  0
M  CHG  1  84   1
M  ISO  4   1 100  68 101  79 101  83 100
M  END
> <chiral flag>
0

> <version>
0

> <s_m_source_file>
/data/baiqing/PycharmProjects/Reinvent-master-3.2/result/LINK_invent/BTK/process_docking_weight1_custom_product_contain_oxygen_bond_distance_aromatic_linkinvent_7_9_3/rearranged_h_0089.sdf

> <i_m_source_file_index>
27

> <r_mmod_Potential_Energy-OPLS-2005>
-431.418121337891

> <r_mmod_Stretch_Energy-OPLS-2005>
71.4139633178711

> <r_mmod_Bend_Energy-OPLS-2005>
155.046279907227

> <r_mmod_Torsional_Energy-OPLS-2005>
219.941925048828

> <r_mmod_Improper_Torsional_Energy-OPLS-2005>
9.12170886993408

> <r_mmod_Van_der_Waal_Energy-OPLS-2005>
148.904586791992

> <r_mmod_Electrostatic_Energy-OPLS-2005>
-470.057159423828

> <r_mmod_Solvation_Energy-OPLS-2005>
-600.665771484375

> <b_mmod_Minimization_Converged-OPLS-2005>
0

> <r_mmod_RMS_Derivative-OPLS-2005>
4.65040111541748

$$$$
27
                    3D
 Structure written by MMmdl.
152160  0  0  1  0            999 V2000
  -30.6264  -14.6239   20.5044 C   0  0  0  0  0  0
  -30.4430  -12.3829   19.4457 C   0  0  0  0  0  0
  -29.5085  -12.5066   18.2209 C   0  0  0  0  0  0
  -28.0306  -12.3476   18.6339 C   0  0  0  0  0  0
  -27.6569  -13.2132   19.8668 C   0  0  2  0  0  0
  -28.7038  -13.0521   20.9928 C   0  0  0  0  0  0
  -25.2569  -13.8152   20.5676 C   0  0  0  0  0  0
  -24.1826  -13.0423   20.9155 C   0  0  0  0  0  0
  -24.6393  -11.6895   20.8719 C   0  0  0  0  0  0
  -23.9060  -10.4284   21.0394 C   0  0  0  0  0  0
  -24.3611   -9.4206   21.9176 C   0  0  0  0  0  0
  -23.6283   -8.2245   22.0755 C   0  0  0  0  0  0
  -22.4266   -8.0280   21.3550 C   0  0  0  0  0  0
  -21.9897   -9.0254   20.4653 C   0  0  0  0  0  0
  -22.7229  -10.2130   20.3051 C   0  0  0  0  0  0
  -21.6854   -6.0730   22.5278 C   0  0  0  0  0  0
  -21.4014   -6.5633   23.8210 C   0  0  0  0  0  0
  -21.3659   -5.6787   24.9174 C   0  0  0  0  0  0
  -21.6044   -4.3051   24.7226 C   0  0  0  0  0  0
  -21.8820   -3.8142   23.4347 C   0  0  0  0  0  0
  -21.9193   -4.6960   22.3402 C   0  0  0  0  0  0
  -22.7852  -13.5231   21.1829 C   0  0  0  0  0  0
  -22.1662   -4.2144   21.0980 F   0  0  0  0  0  0
  -21.5631   -3.4532   25.7739 F   0  0  0  0  0  0
  -30.0223  -13.3961   20.4327 N   0  0  0  0  0  0
  -26.3011  -12.9335   20.3346 N   0  0  0  0  0  0
  -25.9328  -11.6491   20.5756 N   0  0  0  0  0  0
  -22.0497  -12.8234   22.0397 N   0  0  0  0  0  0
  -25.4253  -15.1872   20.4128 N   0  0  0  0  0  0
  -31.7811  -14.8016   20.1044 O   0  0  0  0  0  0
  -21.6640   -6.8872   21.4240 O   0  0  0  0  0  0
  -22.3530  -14.5538   20.6685 O   0  0  0  0  0  0
  -24.6264  -31.8616   23.2052 C   0  0  0  0  0  0
  -25.9116  -32.4785   23.8379 C   0  0  1  0  0  0
  -27.2223  -27.3279   20.1061 C   0  0  0  0  0  0
  -25.5937  -33.8586   24.2302 N   0  0  0  0  0  0
  -23.4194  -30.4879   21.5478 C   0  0  2  0  0  0
  -24.8652  -28.9506   20.1090 C   0  0  0  0  0  0
  -22.7483  -29.4635   22.4939 C   0  0  0  0  0  0
  -18.0290  -28.1387   22.8482 C   0  0  0  0  0  0
  -24.1487  -36.7294   23.2638 C   0  0  0  0  0  0
  -25.9617  -30.7941   21.3775 C   0  0  0  0  0  0
  -26.0356  -29.4243   20.7157 C   0  0  0  0  0  0
  -27.2172  -28.6242   20.7071 C   0  0  0  0  0  0
  -26.0266  -26.9137   19.4689 C   0  0  0  0  0  0
  -24.8629  -27.7007   19.4770 C   0  0  0  0  0  0
  -23.6341  -29.8300   20.1607 C   0  0  0  0  0  0
  -25.4109  -36.3086   24.0333 C   0  0  1  0  0  0
  -20.5891  -28.3690   23.1281 C   0  0  2  0  0  0
  -20.6775  -26.9414   22.5408 C   0  0  0  0  0  0
  -19.5750  -26.6386   21.5208 C   0  0  0  0  0  0
  -18.1932  -26.7930   22.1623 C   0  0  0  0  0  0
  -19.1541  -28.8857   23.2877 C   0  0  0  0  0  0
  -18.9465  -30.1455   23.8897 C   0  0  0  0  0  0
  -17.6464  -30.6585   24.0565 C   0  0  0  0  0  0
  -25.9049  -34.9454   23.5114 C   0  0  0  0  0  0
  -16.5355  -29.9083   23.6329 C   0  0  0  0  0  0
  -16.7278  -28.6504   23.0345 C   0  0  0  0  0  0
  -26.4496  -31.6587   25.0742 C   0  0  0  0  0  0
  -25.3734  -31.3724   26.1476 C   0  0  0  0  0  0
  -27.0338  -30.3011   24.6191 C   0  0  0  0  0  0
  -27.6066  -32.4315   25.7505 C   0  0  0  0  0  0
  -27.5581  -37.1800   24.8464 C   0  0  0  0  0  0
  -21.4197  -29.3049   22.3682 N   0  0  0  0  0  0
  -26.4286  -37.3783   23.9418 N   0  0  0  0  0  0
  -24.6878  -31.0636   22.1003 N   0  0  0  0  0  0
  -23.4210  -28.8166   23.3010 O   0  0  0  0  0  0
  -28.3305  -26.4654   20.1606 O   0  0  0  0  0  0
  -26.5611  -34.8916   22.4676 O   0  0  0  0  0  0
  -23.5428  -32.1419   23.7377 O   0  0  0  0  0  0
  -30.8492  -19.3014   20.1765 C   0  0  0  0  0  0
  -30.9392  -17.8772   20.2628 C   0  0  0  0  0  0
  -29.6842  -20.0292   20.5541 C   0  0  0  0  0  0
  -29.8558  -17.0994   20.7498 C   0  0  0  0  0  0
  -28.6019  -19.2426   21.0491 C   0  0  0  0  0  0
  -28.6942  -17.8192   21.1304 C   0  0  0  0  0  0
  -29.1298  -23.9643   20.3395 C   0  0  0  0  0  0
  -28.7418  -22.4122   20.1739 C   0  0  0  0  0  0
  -28.0399  -25.0274   19.9413 C   0  0  0  0  0  0
  -27.4275  -19.8479   21.4983 N   0  0  0  0  0  0
  -29.7018  -21.4988   20.5219 N   0  0  0  0  0  0
  -29.8149  -15.6466   20.9013 N   0  0  0  0  0  0
  -30.2408  -24.3136   20.7601 O   0  0  0  0  0  0
  -27.6346  -22.0858   19.7315 O   0  0  0  0  0  0
  -27.6283  -17.1192   21.5947 F   0  0  0  0  0  0
  -31.4836  -12.5101   19.1418 H   0  0  0  0  0  0
  -30.3792  -11.3836   19.8791 H   0  0  0  0  0  0
  -29.7685  -11.7572   17.4724 H   0  0  0  0  0  0
  -29.6535  -13.4758   17.7418 H   0  0  0  0  0  0
  -27.8628  -11.2935   18.8589 H   0  0  0  0  0  0
  -27.3772  -12.5848   17.7936 H   0  0  0  0  0  0
  -27.6789  -14.2506   19.5335 H   0  0  0  0  0  0
  -28.7117  -12.0248   21.3600 H   0  0  0  0  0  0
  -28.4509  -13.6703   21.8556 H   0  0  0  0  0  0
  -25.2757   -9.5687   22.4746 H   0  0  0  0  0  0
  -23.9995   -7.4638   22.7471 H   0  0  0  0  0  0
  -21.0830   -8.8773   19.8958 H   0  0  0  0  0  0
  -22.3685  -10.9669   19.6160 H   0  0  0  0  0  0
  -21.2005   -7.6141   23.9709 H   0  0  0  0  0  0
  -21.1479   -6.0519   25.9074 H   0  0  0  0  0  0
  -22.0598   -2.7603   23.2849 H   0  0  0  0  0  0
  -22.4109  -11.9901   22.4803 H   0  0  0  0  0  0
  -21.1123  -13.1280   22.2613 H   0  0  0  0  0  0
  -24.6658  -15.8411   20.5641 H   0  0  0  0  0  0
  -26.3011  -15.6467   20.1987 H   0  0  0  0  0  0
  -26.7189  -32.5460   23.1135 H   0  0  0  0  0  0
  -25.0098  -33.9738   25.0457 H   0  0  0  0  0  0
  -22.7126  -31.3084   21.4085 H   0  0  0  0  0  0
  -23.3750  -35.9625   23.3295 H   0  0  0  0  0  0
  -24.3589  -36.8918   22.2055 H   0  0  0  0  0  0
  -23.7233  -37.6493   23.6659 H   0  0  0  0  0  0
  -26.0969  -31.5608   20.6130 H   0  0  0  0  0  0
  -26.8404  -30.8385   22.0094 H   0  0  0  0  0  0
  -28.1125  -28.9824   21.1957 H   0  0  0  0  0  0
  -25.9516  -25.9648   18.9594 H   0  0  0  0  0  0
  -23.9681  -27.3358   18.9914 H   0  0  0  0  0  0
  -23.7568  -30.6106   19.4088 H   0  0  0  0  0  0
  -22.7534  -29.2631   19.8537 H   0  0  0  0  0  0
  -25.1282  -36.1942   25.0824 H   0  0  0  0  0  0
  -20.9985  -28.3259   24.1401 H   0  0  0  0  0  0
  -20.5674  -26.2300   23.3607 H   0  0  0  0  0  0
  -21.6644  -26.7442   22.1205 H   0  0  0  0  0  0
  -19.6908  -25.6297   21.1240 H   0  0  0  0  0  0
  -19.6680  -27.3193   20.6734 H   0  0  0  0  0  0
  -17.4200  -26.6677   21.4027 H   0  0  0  0  0  0
  -18.0335  -26.0072   22.9021 H   0  0  0  0  0  0
  -19.7938  -30.7271   24.2270 H   0  0  0  0  0  0
  -17.5017  -31.6263   24.5168 H   0  0  0  0  0  0
  -15.5355  -30.2983   23.7652 H   0  0  0  0  0  0
  -15.8681  -28.0823   22.7055 H   0  0  0  0  0  0
  -24.5908  -30.7068   25.7813 H   0  0  0  0  0  0
  -24.8922  -32.2887   26.4908 H   0  0  0  0  0  0
  -25.8068  -30.8906   27.0250 H   0  0  0  0  0  0
  -26.2912  -29.6764   24.1212 H   0  0  0  0  0  0
  -27.4035  -29.7265   25.4694 H   0  0  0  0  0  0
  -27.8785  -30.4302   23.9420 H   0  0  0  0  0  0
  -27.2688  -33.3615   26.2091 H   0  0  0  0  0  0
  -28.3867  -32.6874   25.0322 H   0  0  0  0  0  0
  -28.0744  -31.8433   26.5411 H   0  0  0  0  0  0
  -28.2590  -38.0105   24.7526 H   0  0  0  0  0  0
  -28.1082  -36.2639   24.6263 H   0  0  0  0  0  0
  -27.2311  -37.1424   25.8869 H   0  0  0  0  0  0
  -20.9372  -29.8798   21.6917 H   0  0  0  0  0  0
  -26.0165  -38.2857   24.1424 H   0  0  0  0  0  0
  -31.7093  -19.8435   19.8096 H   0  0  0  0  0  0
  -31.8561  -17.3956   19.9562 H   0  0  0  0  0  0
  -27.1415  -24.7638   20.5004 H   0  0  0  0  0  0
  -27.8168  -24.8705   18.8855 H   0  0  0  0  0  0
  -27.1820  -20.6829   20.9688 H   0  0  0  0  0  0
  -26.6416  -19.2126   21.5886 H   0  0  0  0  0  0
  -30.5845  -21.9348   20.7540 H   0  0  0  0  0  0
  -28.9274  -15.3191   21.2523 H   0  0  0  0  0  0
  1 25  1  0  0  0
  1 30  2  0  0  0
  1 82  1  0  0  0
  2  3  1  0  0  0
  2 25  1  0  0  0
  2 86  1  0  0  0
  2 87  1  0  0  0
  3  4  1  0  0  0
  3 88  1  0  0  0
  3 89  1  0  0  0
  4  5  1  0  0  0
  4 90  1  0  0  0
  4 91  1  0  0  0
  5  6  1  0  0  0
  5 26  1  0  0  0
  5 92  1  0  0  0
  6 25  1  0  0  0
  6 93  1  0  0  0
  6 94  1  0  0  0
  7  8  2  0  0  0
  7 26  1  0  0  0
  7 29  1  0  0  0
  8  9  1  0  0  0
  8 22  1  0  0  0
  9 10  1  0  0  0
  9 27  2  0  0  0
 10 11  2  0  0  0
 10 15  1  0  0  0
 11 12  1  0  0  0
 11 95  1  0  0  0
 12 13  2  0  0  0
 12 96  1  0  0  0
 13 14  1  0  0  0
 13 31  1  0  0  0
 14 15  2  0  0  0
 14 97  1  0  0  0
 15 98  1  0  0  0
 16 17  2  0  0  0
 16 21  1  0  0  0
 16 31  1  0  0  0
 17 18  1  0  0  0
 17 99  1  0  0  0
 18 19  2  0  0  0
 18100  1  0  0  0
 19 20  1  0  0  0
 19 24  1  0  0  0
 20 21  2  0  0  0
 20101  1  0  0  0
 21 23  1  0  0  0
 22 28  1  0  0  0
 22 32  2  0  0  0
 26 27  1  0  0  0
 28102  1  0  0  0
 28103  1  0  0  0
 29104  1  0  0  0
 29105  1  0  0  0
 33 34  1  0  0  0
 33 66  1  0  0  0
 33 70  2  0  0  0
 34 36  1  0  0  0
 34 59  1  0  0  0
 34106  1  0  0  0
 35 44  2  0  0  0
 35 45  1  0  0  0
 35 68  1  0  0  0
 36 56  1  0  0  0
 36107  1  0  0  0
 37 39  1  0  0  0
 37 47  1  0  0  0
 37 66  1  0  0  0
 37108  1  0  0  0
 38 43  2  0  0  0
 38 46  1  0  0  0
 38 47  1  0  0  0
 39 64  1  0  0  0
 39 67  2  0  0  0
 40 52  1  0  0  0
 40 53  2  0  0  0
 40 58  1  0  0  0
 41109  1  0  0  0
 41110  1  0  0  0
 41111  1  0  0  0
 41 48  1  0  0  0
 42 43  1  0  0  0
 42 66  1  0  0  0
 42112  1  0  0  0
 42113  1  0  0  0
 43 44  1  0  0  0
 44114  1  0  0  0
 45 46  2  0  0  0
 45115  1  0  0  0
 46116  1  0  0  0
 47117  1  0  0  0
 47118  1  0  0  0
 48 56  1  0  0  0
 48 65  1  0  0  0
 48119  1  0  0  0
 49 50  1  0  0  0
 49 53  1  0  0  0
 49 64  1  0  0  0
 49120  1  0  0  0
 50 51  1  0  0  0
 50121  1  0  0  0
 50122  1  0  0  0
 51 52  1  0  0  0
 51123  1  0  0  0
 51124  1  0  0  0
 52125  1  0  0  0
 52126  1  0  0  0
 53 54  1  0  0  0
 54 55  2  0  0  0
 54127  1  0  0  0
 55 57  1  0  0  0
 55128  1  0  0  0
 56 69  2  0  0  0
 57 58  2  0  0  0
 57129  1  0  0  0
 58130  1  0  0  0
 59 60  1  0  0  0
 59 61  1  0  0  0
 59 62  1  0  0  0
 60131  1  0  0  0
 60132  1  0  0  0
 60133  1  0  0  0
 61134  1  0  0  0
 61135  1  0  0  0
 61136  1  0  0  0
 62137  1  0  0  0
 62138  1  0  0  0
 62139  1  0  0  0
 63 65  1  0  0  0
 63140  1  0  0  0
 63141  1  0  0  0
 63142  1  0  0  0
 64143  1  0  0  0
 65144  1  0  0  0
 68 79  1  0  0  0
 71 72  2  0  0  0
 71 73  1  0  0  0
 71145  1  0  0  0
 72 74  1  0  0  0
 72146  1  0  0  0
 73 75  2  0  0  0
 73 81  1  0  0  0
 74 76  2  0  0  0
 74 82  1  0  0  0
 75 76  1  0  0  0
 75 80  1  0  0  0
 76 85  1  0  0  0
 77 78  1  0  0  0
 77 79  1  0  0  0
 77 83  2  0  0  0
 78 81  1  0  0  0
 78 84  2  0  0  0
 79147  1  0  0  0
 79148  1  0  0  0
 80149  1  0  0  0
 80150  1  0  0  0
 81151  1  0  0  0
 82152  1  0  0  0
M  ISO  4   1 100  68 101  79 101  82 100
M  END
> <chiral flag>
0

> <version>
0

> <s_m_source_file>
/data/baiqing/PycharmProjects/Reinvent-master-3.2/result/LINK_invent/BTK/process_docking_weight1_custom_product_contain_oxygen_bond_distance_aromatic_linkinvent_7_9_3/rearranged_h_0089.sdf

> <i_m_source_file_index>
28

> <r_mmod_Potential_Energy-OPLS-2005>
28.2472267150879

> <r_mmod_Stretch_Energy-OPLS-2005>
79.348014831543

> <r_mmod_Bend_Energy-OPLS-2005>
140.940307617188

> <r_mmod_Torsional_Energy-OPLS-2005>
233.824081420898

> <r_mmod_Improper_Torsional_Energy-OPLS-2005>
9.05193519592285

> <r_mmod_Van_der_Waal_Energy-OPLS-2005>
154.906387329102

> <r_mmod_Electrostatic_Energy-OPLS-2005>
-406.680969238281

> <r_mmod_Solvation_Energy-OPLS-2005>
-228.663360595703

> <b_mmod_Minimization_Converged-OPLS-2005>
0

> <r_mmod_RMS_Derivative-OPLS-2005>
0.893071174621582

$$$$
28
                    3D
 Structure written by MMmdl.
152161  0  0  1  0            999 V2000
  -30.5709  -14.7596   20.4619 C   0  0  0  0  0  0
  -30.4511  -12.4601   19.4690 C   0  0  0  0  0  0
  -29.5215  -12.5082   18.2343 C   0  0  0  0  0  0
  -28.0443  -12.3307   18.6434 C   0  0  0  0  0  0
  -27.6465  -13.2228   19.8492 C   0  0  2  0  0  0
  -28.6930  -13.1378   20.9837 C   0  0  0  0  0  0
  -25.2535  -13.8172   20.5654 C   0  0  0  0  0  0
  -24.1823  -13.0434   20.9200 C   0  0  0  0  0  0
  -24.6406  -11.6911   20.8752 C   0  0  0  0  0  0
  -23.9078  -10.4298   21.0421 C   0  0  0  0  0  0
  -24.3630   -9.4212   21.9199 C   0  0  0  0  0  0
  -23.6301   -8.2248   22.0764 C   0  0  0  0  0  0
  -22.4282   -8.0287   21.3550 C   0  0  0  0  0  0
  -21.9923   -9.0270   20.4659 C   0  0  0  0  0  0
  -22.7252  -10.2148   20.3068 C   0  0  0  0  0  0
  -21.6853   -6.0744   22.5285 C   0  0  0  0  0  0
  -21.4014   -6.5646   23.8220 C   0  0  0  0  0  0
  -21.3655   -5.6795   24.9179 C   0  0  0  0  0  0
  -21.6038   -4.3058   24.7224 C   0  0  0  0  0  0
  -21.8816   -3.8153   23.4346 C   0  0  0  0  0  0
  -21.9192   -4.6973   22.3404 C   0  0  0  0  0  0
  -22.7846  -13.5233   21.1849 C   0  0  0  0  0  0
  -22.1659   -4.2160   21.0984 F   0  0  0  0  0  0
  -21.5631   -3.4537   25.7734 F   0  0  0  0  0  0
  -29.9956  -13.5084   20.4090 N   0  0  0  0  0  0
  -26.2960  -12.9362   20.3241 N   0  0  0  0  0  0
  -25.9329  -11.6519   20.5726 N   0  0  0  0  0  0
  -22.0469  -12.8247   22.0406 N   0  0  0  0  0  0
  -25.4203  -15.1897   20.4027 N   0  0  0  0  0  0
  -31.7617  -14.9122   20.1700 O   0  0  0  0  0  0
  -21.6638   -6.8891   21.4245 O   0  0  0  0  0  0
  -22.3543  -14.5539   20.6692 O   0  0  0  0  0  0
  -24.6314  -31.8550   23.1985 C   0  0  0  0  0  0
  -25.9140  -32.4751   23.8336 C   0  0  1  0  0  0
  -27.2282  -27.2632   20.1383 C   0  0  0  0  0  0
  -25.5942  -33.8555   24.2255 N   0  0  0  0  0  0
  -23.4296  -30.4753   21.5423 C   0  0  2  0  0  0
  -24.8820  -28.9172   20.1184 C   0  0  0  0  0  0
  -22.7504  -29.4597   22.4923 C   0  0  0  0  0  0
  -18.0288  -28.1383   22.8485 C   0  0  0  0  0  0
  -24.1497  -36.7275   23.2640 C   0  0  0  0  0  0
  -25.9767  -30.7655   21.3828 C   0  0  0  0  0  0
  -26.0533  -29.3852   20.7315 C   0  0  0  0  0  0
  -27.2322  -28.5692   20.7352 C   0  0  0  0  0  0
  -26.0380  -26.8582   19.5028 C   0  0  0  0  0  0
  -24.8783  -27.6592   19.4948 C   0  0  0  0  0  0
  -23.6510  -29.8043   20.1612 C   0  0  0  0  0  0
  -25.4124  -36.3061   24.0325 C   0  0  1  0  0  0
  -20.5893  -28.3695   23.1274 C   0  0  2  0  0  0
  -20.6773  -26.9411   22.5418 C   0  0  0  0  0  0
  -19.5757  -26.6374   21.5219 C   0  0  0  0  0  0
  -18.1930  -26.7927   22.1620 C   0  0  0  0  0  0
  -19.1543  -28.8856   23.2869 C   0  0  0  0  0  0
  -18.9464  -30.1460   23.8882 C   0  0  0  0  0  0
  -17.6462  -30.6586   24.0556 C   0  0  0  0  0  0
  -25.9061  -34.9433   23.5087 C   0  0  0  0  0  0
  -16.5352  -29.9077   23.6335 C   0  0  0  0  0  0
  -16.7275  -28.6493   23.0358 C   0  0  0  0  0  0
  -26.4497  -31.6578   25.0727 C   0  0  0  0  0  0
  -25.3709  -31.3744   26.1441 C   0  0  0  0  0  0
  -27.0343  -30.2987   24.6233 C   0  0  0  0  0  0
  -27.6048  -32.4321   25.7499 C   0  0  0  0  0  0
  -27.5583  -37.1793   24.8459 C   0  0  0  0  0  0
  -21.4211  -29.3036   22.3655 N   0  0  0  0  0  0
  -26.4294  -37.3766   23.9403 N   0  0  0  0  0  0
  -24.6977  -31.0503   22.0970 N   0  0  0  0  0  0
  -23.4202  -28.8148   23.3031 O   0  0  0  0  0  0
  -28.2959  -26.3418   20.0900 O   0  0  0  0  0  0
  -26.5631  -34.8907   22.4653 O   0  0  0  0  0  0
  -23.5460  -32.1378   23.7267 O   0  0  0  0  0  0
  -28.5000  -19.4728   20.1595 C   0  0  0  0  0  0
  -30.6741  -19.5660   21.1390 C   0  0  0  0  0  0
  -28.6114  -18.0411   20.1011 C   0  0  0  0  0  0
  -30.7987  -18.1332   21.0509 C   0  0  0  0  0  0
  -29.5165  -20.2977   20.7148 C   0  0  0  0  0  0
  -29.7497  -17.3064   20.5584 C   0  0  0  0  0  0
  -28.7712  -24.0488   21.2523 C   0  0  0  0  0  0
  -29.0173  -23.5134   22.5844 C   0  0  0  0  0  0
  -28.9599  -22.8778   20.3309 C   0  0  0  0  0  0
  -28.4608  -25.4127   21.1421 C   0  0  0  0  0  0
  -29.4765  -22.0752   22.4806 C   0  0  0  0  0  0
  -29.3158  -21.7376   21.0660 N   0  0  0  0  0  0
  -29.6894  -15.8197   20.6181 N   0  0  0  0  0  0
  -28.9153  -24.1045   23.6660 O   0  0  0  0  0  0
  -28.8244  -22.8885   19.1018 O   0  0  0  0  0  0
  -31.4890  -12.6083   19.1665 H   0  0  0  0  0  0
  -30.4135  -11.4790   19.9451 H   0  0  0  0  0  0
  -29.8066  -11.7352   17.5193 H   0  0  0  0  0  0
  -29.6466  -13.4612   17.7177 H   0  0  0  0  0  0
  -27.8962  -11.2802   18.8976 H   0  0  0  0  0  0
  -27.3917  -12.5314   17.7928 H   0  0  0  0  0  0
  -27.6434  -14.2450   19.4717 H   0  0  0  0  0  0
  -28.7330  -12.1295   21.3988 H   0  0  0  0  0  0
  -28.4228  -13.7951   21.8118 H   0  0  0  0  0  0
  -25.2780   -9.5683   22.4769 H   0  0  0  0  0  0
  -24.0008   -7.4637   22.7485 H   0  0  0  0  0  0
  -21.0851   -8.8802   19.8972 H   0  0  0  0  0  0
  -22.3721  -10.9693   19.6179 H   0  0  0  0  0  0
  -21.2007   -7.6156   23.9731 H   0  0  0  0  0  0
  -21.1474   -6.0524   25.9086 H   0  0  0  0  0  0
  -22.0597   -2.7617   23.2842 H   0  0  0  0  0  0
  -22.4056  -11.9915   22.4828 H   0  0  0  0  0  0
  -21.1098  -13.1319   22.2594 H   0  0  0  0  0  0
  -24.6434  -15.8341   20.5007 H   0  0  0  0  0  0
  -26.2473  -15.6262   20.0203 H   0  0  0  0  0  0
  -26.7205  -32.5402   23.1076 H   0  0  0  0  0  0
  -25.0088  -33.9698   25.0399 H   0  0  0  0  0  0
  -22.7264  -31.2975   21.3938 H   0  0  0  0  0  0
  -23.3763  -35.9603   23.3291 H   0  0  0  0  0  0
  -24.3588  -36.8906   22.2056 H   0  0  0  0  0  0
  -23.7246  -37.6470   23.6673 H   0  0  0  0  0  0
  -26.1183  -31.5252   20.6127 H   0  0  0  0  0  0
  -26.8518  -30.8145   22.0194 H   0  0  0  0  0  0
  -28.1322  -28.9260   21.2162 H   0  0  0  0  0  0
  -26.0033  -25.8894   19.0240 H   0  0  0  0  0  0
  -23.9827  -27.2946   19.0104 H   0  0  0  0  0  0
  -23.7720  -30.5779   19.4020 H   0  0  0  0  0  0
  -22.7698  -29.2351   19.8594 H   0  0  0  0  0  0
  -25.1309  -36.1900   25.0820 H   0  0  0  0  0  0
  -20.9985  -28.3271   24.1396 H   0  0  0  0  0  0
  -20.5669  -26.2308   23.3624 H   0  0  0  0  0  0
  -21.6644  -26.7426   22.1216 H   0  0  0  0  0  0
  -19.6913  -25.6278   21.1264 H   0  0  0  0  0  0
  -19.6702  -27.3172   20.6743 H   0  0  0  0  0  0
  -17.4210  -26.6684   21.4012 H   0  0  0  0  0  0
  -18.0316  -26.0069   22.9013 H   0  0  0  0  0  0
  -19.7940  -30.7280   24.2243 H   0  0  0  0  0  0
  -17.5014  -31.6271   24.5147 H   0  0  0  0  0  0
  -15.5348  -30.2967   23.7674 H   0  0  0  0  0  0
  -15.8676  -28.0806   22.7081 H   0  0  0  0  0  0
  -24.5878  -30.7104   25.7764 H   0  0  0  0  0  0
  -24.8908  -32.2923   26.4845 H   0  0  0  0  0  0
  -25.8009  -30.8927   27.0231 H   0  0  0  0  0  0
  -26.2937  -29.6737   24.1229 H   0  0  0  0  0  0
  -27.3976  -29.7250   25.4769 H   0  0  0  0  0  0
  -27.8838  -30.4245   23.9517 H   0  0  0  0  0  0
  -27.2656  -33.3630   26.2056 H   0  0  0  0  0  0
  -28.3866  -32.6867   25.0332 H   0  0  0  0  0  0
  -28.0708  -31.8460   26.5430 H   0  0  0  0  0  0
  -28.2594  -38.0097   24.7505 H   0  0  0  0  0  0
  -28.1084  -36.2623   24.6283 H   0  0  0  0  0  0
  -27.2300  -37.1435   25.8863 H   0  0  0  0  0  0
  -20.9401  -29.8748   21.6850 H   0  0  0  0  0  0
  -26.0165  -38.2839   24.1402 H   0  0  0  0  0  0
  -27.5716  -19.9288   19.8453 H   0  0  0  0  0  0
  -31.4914  -20.1086   21.5926 H   0  0  0  0  0  0
  -27.7599  -17.4941   19.7225 H   0  0  0  0  0  0
  -31.6971  -17.6701   21.4344 H   0  0  0  0  0  0
  -28.3897  -25.9754   22.0640 H   0  0  0  0  0  0
  -28.8622  -21.4325   23.1113 H   0  0  0  0  0  0
  -30.5175  -21.9901   22.7912 H   0  0  0  0  0  0
  -28.7484  -15.4707   20.7085 H   0  0  0  0  0  0
  1 25  1  0  0  0
  1 30  2  0  0  0
  1 83  1  0  0  0
  2  3  1  0  0  0
  2 25  1  0  0  0
  2 86  1  0  0  0
  2 87  1  0  0  0
  3  4  1  0  0  0
  3 88  1  0  0  0
  3 89  1  0  0  0
  4  5  1  0  0  0
  4 90  1  0  0  0
  4 91  1  0  0  0
  5  6  1  0  0  0
  5 26  1  0  0  0
  5 92  1  0  0  0
  6 25  1  0  0  0
  6 93  1  0  0  0
  6 94  1  0  0  0
  7  8  2  0  0  0
  7 26  1  0  0  0
  7 29  1  0  0  0
  8  9  1  0  0  0
  8 22  1  0  0  0
  9 10  1  0  0  0
  9 27  2  0  0  0
 10 11  2  0  0  0
 10 15  1  0  0  0
 11 12  1  0  0  0
 11 95  1  0  0  0
 12 13  2  0  0  0
 12 96  1  0  0  0
 13 14  1  0  0  0
 13 31  1  0  0  0
 14 15  2  0  0  0
 14 97  1  0  0  0
 15 98  1  0  0  0
 16 17  2  0  0  0
 16 21  1  0  0  0
 16 31  1  0  0  0
 17 18  1  0  0  0
 17 99  1  0  0  0
 18 19  2  0  0  0
 18100  1  0  0  0
 19 20  1  0  0  0
 19 24  1  0  0  0
 20 21  2  0  0  0
 20101  1  0  0  0
 21 23  1  0  0  0
 22 28  1  0  0  0
 22 32  2  0  0  0
 26 27  1  0  0  0
 28102  1  0  0  0
 28103  1  0  0  0
 29104  1  0  0  0
 29105  1  0  0  0
 33 34  1  0  0  0
 33 66  1  0  0  0
 33 70  2  0  0  0
 34 36  1  0  0  0
 34 59  1  0  0  0
 34106  1  0  0  0
 35 44  2  0  0  0
 35 45  1  0  0  0
 35 68  1  0  0  0
 36 56  1  0  0  0
 36107  1  0  0  0
 37 39  1  0  0  0
 37 47  1  0  0  0
 37 66  1  0  0  0
 37108  1  0  0  0
 38 43  2  0  0  0
 38 46  1  0  0  0
 38 47  1  0  0  0
 39 64  1  0  0  0
 39 67  2  0  0  0
 40 52  1  0  0  0
 40 53  2  0  0  0
 40 58  1  0  0  0
 41109  1  0  0  0
 41110  1  0  0  0
 41111  1  0  0  0
 41 48  1  0  0  0
 42 43  1  0  0  0
 42 66  1  0  0  0
 42112  1  0  0  0
 42113  1  0  0  0
 43 44  1  0  0  0
 44114  1  0  0  0
 45 46  2  0  0  0
 45115  1  0  0  0
 46116  1  0  0  0
 47117  1  0  0  0
 47118  1  0  0  0
 48 56  1  0  0  0
 48 65  1  0  0  0
 48119  1  0  0  0
 49 50  1  0  0  0
 49 53  1  0  0  0
 49 64  1  0  0  0
 49120  1  0  0  0
 50 51  1  0  0  0
 50121  1  0  0  0
 50122  1  0  0  0
 51 52  1  0  0  0
 51123  1  0  0  0
 51124  1  0  0  0
 52125  1  0  0  0
 52126  1  0  0  0
 53 54  1  0  0  0
 54 55  2  0  0  0
 54127  1  0  0  0
 55 57  1  0  0  0
 55128  1  0  0  0
 56 69  2  0  0  0
 57 58  2  0  0  0
 57129  1  0  0  0
 58130  1  0  0  0
 59 60  1  0  0  0
 59 61  1  0  0  0
 59 62  1  0  0  0
 60131  1  0  0  0
 60132  1  0  0  0
 60133  1  0  0  0
 61134  1  0  0  0
 61135  1  0  0  0
 61136  1  0  0  0
 62137  1  0  0  0
 62138  1  0  0  0
 62139  1  0  0  0
 63 65  1  0  0  0
 63140  1  0  0  0
 63141  1  0  0  0
 63142  1  0  0  0
 64143  1  0  0  0
 65144  1  0  0  0
 68 80  1  0  0  0
 71 73  2  0  0  0
 71 75  1  0  0  0
 71145  1  0  0  0
 72 74  1  0  0  0
 72 75  2  0  0  0
 72146  1  0  0  0
 73 76  1  0  0  0
 73147  1  0  0  0
 74 76  2  0  0  0
 74148  1  0  0  0
 75 82  1  0  0  0
 76 83  1  0  0  0
 77 78  1  0  0  0
 77 79  1  0  0  0
 77 80  2  0  0  0
 78 81  1  0  0  0
 78 84  2  0  0  0
 79 82  1  0  0  0
 79 85  2  0  0  0
 80149  1  0  0  0
 81 82  1  0  0  0
 81150  1  0  0  0
 81151  1  0  0  0
 83152  1  0  0  0
M  ISO  4   1 100  68 101  80 101  83 100
M  END
> <chiral flag>
0

> <version>
0

> <s_m_source_file>
/data/baiqing/PycharmProjects/Reinvent-master-3.2/result/LINK_invent/BTK/process_docking_weight1_custom_product_contain_oxygen_bond_distance_aromatic_linkinvent_7_9_3/rearranged_h_0089.sdf

> <i_m_source_file_index>
29

> <r_mmod_Potential_Energy-OPLS-2005>
288.390350341797

> <r_mmod_Stretch_Energy-OPLS-2005>
113.899597167969

> <r_mmod_Bend_Energy-OPLS-2005>
252.969711303711

> <r_mmod_Torsional_Energy-OPLS-2005>
300.813354492188

> <r_mmod_Improper_Torsional_Energy-OPLS-2005>
7.98848342895508

> <r_mmod_Van_der_Waal_Energy-OPLS-2005>
125.28759765625

> <r_mmod_Electrostatic_Energy-OPLS-2005>
-362.604187011719

> <r_mmod_Solvation_Energy-OPLS-2005>
-240.025238037109

> <b_mmod_Minimization_Converged-OPLS-2005>
0

> <r_mmod_RMS_Derivative-OPLS-2005>
1.27533888816833

$$$$
29
                    3D
 Structure written by MMmdl.
162171  0  0  1  0            999 V2000
  -30.6281  -14.6505   20.4656 C   0  0  0  0  0  0
  -30.4343  -12.3868   19.4762 C   0  0  0  0  0  0
  -29.5164  -12.4993   18.2382 C   0  0  0  0  0  0
  -28.0385  -12.3383   18.6450 C   0  0  0  0  0  0
  -27.6519  -13.2123   19.8687 C   0  0  2  0  0  0
  -28.6953  -13.0935   21.0039 C   0  0  0  0  0  0
  -25.2569  -13.8149   20.5716 C   0  0  0  0  0  0
  -24.1827  -13.0424   20.9203 C   0  0  0  0  0  0
  -24.6391  -11.6891   20.8751 C   0  0  0  0  0  0
  -23.9058  -10.4281   21.0425 C   0  0  0  0  0  0
  -24.3612   -9.4183   21.9194 C   0  0  0  0  0  0
  -23.6280   -8.2223   22.0765 C   0  0  0  0  0  0
  -22.4250   -8.0284   21.3564 C   0  0  0  0  0  0
  -21.9896   -9.0258   20.4666 C   0  0  0  0  0  0
  -22.7236  -10.2130   20.3073 C   0  0  0  0  0  0
  -21.6838   -6.0739   22.5292 C   0  0  0  0  0  0
  -21.4000   -6.5642   23.8226 C   0  0  0  0  0  0
  -21.3658   -5.6799   24.9190 C   0  0  0  0  0  0
  -21.6048   -4.3060   24.7231 C   0  0  0  0  0  0
  -21.8815   -3.8150   23.4350 C   0  0  0  0  0  0
  -21.9184   -4.6972   22.3410 C   0  0  0  0  0  0
  -22.7855  -13.5243   21.1862 C   0  0  0  0  0  0
  -22.1659   -4.2165   21.0984 F   0  0  0  0  0  0
  -21.5626   -3.4540   25.7735 F   0  0  0  0  0  0
  -30.0125  -13.4248   20.4395 N   0  0  0  0  0  0
  -26.2983  -12.9308   20.3352 N   0  0  0  0  0  0
  -25.9315  -11.6474   20.5765 N   0  0  0  0  0  0
  -22.0475  -12.8255   22.0412 N   0  0  0  0  0  0
  -25.4297  -15.1875   20.4167 N   0  0  0  0  0  0
  -31.7804  -14.7951   20.0490 O   0  0  0  0  0  0
  -21.6621   -6.8880   21.4255 O   0  0  0  0  0  0
  -22.3560  -14.5561   20.6716 O   0  0  0  0  0  0
  -24.6239  -31.8590   23.2024 C   0  0  0  0  0  0
  -25.9087  -32.4778   23.8363 C   0  0  1  0  0  0
  -27.2387  -27.3437   20.1058 C   0  0  0  0  0  0
  -25.5902  -33.8582   24.2282 N   0  0  0  0  0  0
  -23.4199  -30.4806   21.5401 C   0  0  2  0  0  0
  -24.8728  -28.9386   20.1002 C   0  0  0  0  0  0
  -22.7472  -29.4613   22.4895 C   0  0  0  0  0  0
  -18.0289  -28.1383   22.8479 C   0  0  0  0  0  0
  -24.1479  -36.7289   23.2639 C   0  0  0  0  0  0
  -25.9579  -30.7960   21.3727 C   0  0  0  0  0  0
  -26.0354  -29.4269   20.7088 C   0  0  0  0  0  0
  -27.2188  -28.6356   20.7110 C   0  0  0  0  0  0
  -26.0593  -26.8967   19.4755 C   0  0  0  0  0  0
  -24.8851  -27.6783   19.4747 C   0  0  0  0  0  0
  -23.6371  -29.8148   20.1537 C   0  0  0  0  0  0
  -25.4103  -36.3083   24.0331 C   0  0  1  0  0  0
  -20.5890  -28.3689   23.1272 C   0  0  2  0  0  0
  -20.6770  -26.9405   22.5411 C   0  0  0  0  0  0
  -19.5753  -26.6378   21.5204 C   0  0  0  0  0  0
  -18.1932  -26.7928   22.1612 C   0  0  0  0  0  0
  -19.1545  -28.8850   23.2875 C   0  0  0  0  0  0
  -18.9468  -30.1449   23.8903 C   0  0  0  0  0  0
  -17.6471  -30.6581   24.0565 C   0  0  0  0  0  0
  -25.9041  -34.9451   23.5105 C   0  0  0  0  0  0
  -16.5361  -29.9087   23.6327 C   0  0  0  0  0  0
  -16.7279  -28.6503   23.0346 C   0  0  0  0  0  0
  -26.4489  -31.6601   25.0735 C   0  0  0  0  0  0
  -25.3744  -31.3744   26.1483 C   0  0  0  0  0  0
  -27.0335  -30.3028   24.6188 C   0  0  0  0  0  0
  -27.6046  -32.4350   25.7499 C   0  0  0  0  0  0
  -27.5575  -37.1798   24.8458 C   0  0  0  0  0  0
  -21.4184  -29.3040   22.3655 N   0  0  0  0  0  0
  -26.4278  -37.3781   23.9415 N   0  0  0  0  0  0
  -24.6851  -31.0625   22.0953 N   0  0  0  0  0  0
  -23.4202  -28.8146   23.2969 O   0  0  0  0  0  0
  -28.3197  -26.4743   20.2627 O   0  0  0  0  0  0
  -26.5615  -34.8918   22.4678 O   0  0  0  0  0  0
  -23.5406  -32.1373   23.7361 O   0  0  0  0  0  0
  -28.6309  -19.1506   18.5294 C   0  0  0  0  0  0
  -28.9648  -16.7419   18.8078 C   0  0  0  0  0  0
  -29.7538  -18.2976   20.5119 C   0  0  0  0  0  0
  -28.4822  -17.8307   18.0575 C   0  0  0  0  0  0
  -29.2943  -19.4361   19.7438 C   0  0  0  0  0  0
  -29.5905  -16.9328   20.0589 C   0  0  0  0  0  0
  -29.0264  -24.2466   19.3451 C   0  0  0  0  0  0
  -29.7925  -23.6751   18.1873 C   0  0  0  0  0  0
  -28.7372  -25.5979   19.2632 C   0  0  0  0  0  0
  -28.7364  -23.2786   20.5316 C   0  0  0  0  0  0
  -30.1457  -22.1776   18.0509 C   0  0  0  0  0  0
  -28.3831  -21.7539   20.2237 C   0  0  0  0  0  0
  -30.6236  -21.4138   19.3168 C   0  0  0  0  0  0
  -27.7833  -17.5791   16.7344 C   0  0  0  0  0  0
  -29.5325  -20.8156   20.0967 N   0  0  0  0  0  0
  -29.8786  -15.7330   20.8479 N   0  0  0  0  0  0
  -30.1811  -24.3897   17.2560 O   0  0  0  0  0  0
  -31.4827  -12.4846   19.1905 H   0  0  0  0  0  0
  -30.3465  -11.3996   19.9323 H   0  0  0  0  0  0
  -29.7847  -11.7416   17.5001 H   0  0  0  0  0  0
  -29.6644  -13.4653   17.7520 H   0  0  0  0  0  0
  -27.8811  -11.2847   18.8805 H   0  0  0  0  0  0
  -27.3874  -12.5615   17.7995 H   0  0  0  0  0  0
  -27.6562  -14.2425   19.5238 H   0  0  0  0  0  0
  -28.7060  -12.0796   21.4067 H   0  0  0  0  0  0
  -28.4398  -13.7431   21.8423 H   0  0  0  0  0  0
  -25.2768   -9.5630   22.4755 H   0  0  0  0  0  0
  -23.9999   -7.4589   22.7454 H   0  0  0  0  0  0
  -21.0832   -8.8768   19.8955 H   0  0  0  0  0  0
  -22.3711  -10.9666   19.6168 H   0  0  0  0  0  0
  -21.1990   -7.6150   23.9730 H   0  0  0  0  0  0
  -21.1493   -6.0532   25.9097 H   0  0  0  0  0  0
  -22.0594   -2.7614   23.2842 H   0  0  0  0  0  0
  -22.4066  -11.9925   22.4844 H   0  0  0  0  0  0
  -21.1097  -13.1302   22.2600 H   0  0  0  0  0  0
  -24.6644  -15.8411   20.5378 H   0  0  0  0  0  0
  -26.2835  -15.6300   20.1014 H   0  0  0  0  0  0
  -26.7153  -32.5455   23.1114 H   0  0  0  0  0  0
  -25.0066  -33.9734   25.0435 H   0  0  0  0  0  0
  -22.7132  -31.3002   21.3951 H   0  0  0  0  0  0
  -23.3750  -35.9612   23.3291 H   0  0  0  0  0  0
  -24.3572  -36.8927   22.2057 H   0  0  0  0  0  0
  -23.7220  -37.6478   23.6678 H   0  0  0  0  0  0
  -26.0927  -31.5650   20.6111 H   0  0  0  0  0  0
  -26.8358  -30.8401   22.0057 H   0  0  0  0  0  0
  -28.1043  -28.9919   21.2188 H   0  0  0  0  0  0
  -26.0301  -25.9141   19.0263 H   0  0  0  0  0  0
  -23.9917  -27.2956   19.0013 H   0  0  0  0  0  0
  -23.7553  -30.5932   19.3989 H   0  0  0  0  0  0
  -22.7590  -29.2439   19.8477 H   0  0  0  0  0  0
  -25.1280  -36.1934   25.0823 H   0  0  0  0  0  0
  -20.9993  -28.3271   24.1390 H   0  0  0  0  0  0
  -20.5641  -26.2304   23.3615 H   0  0  0  0  0  0
  -21.6643  -26.7405   22.1230 H   0  0  0  0  0  0
  -19.6912  -25.6287   21.1239 H   0  0  0  0  0  0
  -19.6695  -27.3180   20.6728 H   0  0  0  0  0  0
  -17.4199  -26.6678   21.4017 H   0  0  0  0  0  0
  -18.0327  -26.0067   22.9005 H   0  0  0  0  0  0
  -19.7947  -30.7256   24.2282 H   0  0  0  0  0  0
  -17.5029  -31.6264   24.5160 H   0  0  0  0  0  0
  -15.5366  -30.2994   23.7640 H   0  0  0  0  0  0
  -15.8678  -28.0824   22.7061 H   0  0  0  0  0  0
  -24.5892  -30.7115   25.7836 H   0  0  0  0  0  0
  -24.8974  -32.2916   26.4949 H   0  0  0  0  0  0
  -25.8092  -30.8904   27.0238 H   0  0  0  0  0  0
  -26.2909  -29.6785   24.1207 H   0  0  0  0  0  0
  -27.4027  -29.7283   25.4695 H   0  0  0  0  0  0
  -27.8780  -30.4323   23.9417 H   0  0  0  0  0  0
  -27.2644  -33.3648   26.2078 H   0  0  0  0  0  0
  -28.3852  -32.6927   25.0325 H   0  0  0  0  0  0
  -28.0723  -31.8486   26.5421 H   0  0  0  0  0  0
  -28.2584  -38.0104   24.7516 H   0  0  0  0  0  0
  -28.1078  -36.2637   24.6258 H   0  0  0  0  0  0
  -27.2304  -37.1415   25.8863 H   0  0  0  0  0  0
  -20.9351  -29.8788   21.6891 H   0  0  0  0  0  0
  -26.0156  -38.2851   24.1441 H   0  0  0  0  0  0
  -28.2422  -19.9527   17.9223 H   0  0  0  0  0  0
  -28.8174  -15.7447   18.4194 H   0  0  0  0  0  0
  -30.2360  -18.4751   21.4618 H   0  0  0  0  0  0
  -28.9936  -26.1778   18.3870 H   0  0  0  0  0  0
  -27.8825  -23.7103   21.0547 H   0  0  0  0  0  0
  -29.5613  -23.3344   21.2428 H   0  0  0  0  0  0
  -30.9608  -22.1322   17.3279 H   0  0  0  0  0  0
  -29.3155  -21.6771   17.5618 H   0  0  0  0  0  0
  -27.7376  -21.6981   19.3456 H   0  0  0  0  0  0
  -27.7722  -21.3794   21.0469 H   0  0  0  0  0  0
  -31.2001  -22.0806   19.9596 H   0  0  0  0  0  0
  -31.3240  -20.6347   19.0103 H   0  0  0  0  0  0
  -27.8992  -18.4279   16.0597 H   0  0  0  0  0  0
  -26.7165  -17.4159   16.8897 H   0  0  0  0  0  0
  -28.1939  -16.7004   16.2357 H   0  0  0  0  0  0
  -29.0968  -15.4521   21.4207 H   0  0  0  0  0  0
  1 25  1  0  0  0
  1 30  2  0  0  0
  1 86  1  0  0  0
  2  3  1  0  0  0
  2 25  1  0  0  0
  2 88  1  0  0  0
  2 89  1  0  0  0
  3  4  1  0  0  0
  3 90  1  0  0  0
  3 91  1  0  0  0
  4  5  1  0  0  0
  4 92  1  0  0  0
  4 93  1  0  0  0
  5  6  1  0  0  0
  5 26  1  0  0  0
  5 94  1  0  0  0
  6 25  1  0  0  0
  6 95  1  0  0  0
  6 96  1  0  0  0
  7  8  2  0  0  0
  7 26  1  0  0  0
  7 29  1  0  0  0
  8  9  1  0  0  0
  8 22  1  0  0  0
  9 10  1  0  0  0
  9 27  2  0  0  0
 10 11  2  0  0  0
 10 15  1  0  0  0
 11 12  1  0  0  0
 11 97  1  0  0  0
 12 13  2  0  0  0
 12 98  1  0  0  0
 13 14  1  0  0  0
 13 31  1  0  0  0
 14 15  2  0  0  0
 14 99  1  0  0  0
 15100  1  0  0  0
 16 17  2  0  0  0
 16 21  1  0  0  0
 16 31  1  0  0  0
 17 18  1  0  0  0
 17101  1  0  0  0
 18 19  2  0  0  0
 18102  1  0  0  0
 19 20  1  0  0  0
 19 24  1  0  0  0
 20 21  2  0  0  0
 20103  1  0  0  0
 21 23  1  0  0  0
 22 28  1  0  0  0
 22 32  2  0  0  0
 26 27  1  0  0  0
 28104  1  0  0  0
 28105  1  0  0  0
 29106  1  0  0  0
 29107  1  0  0  0
 33 34  1  0  0  0
 33 66  1  0  0  0
 33 70  2  0  0  0
 34 36  1  0  0  0
 34 59  1  0  0  0
 34108  1  0  0  0
 35 44  2  0  0  0
 35 45  1  0  0  0
 35 68  1  0  0  0
 36 56  1  0  0  0
 36109  1  0  0  0
 37 39  1  0  0  0
 37 47  1  0  0  0
 37 66  1  0  0  0
 37110  1  0  0  0
 38 43  2  0  0  0
 38 46  1  0  0  0
 38 47  1  0  0  0
 39 64  1  0  0  0
 39 67  2  0  0  0
 40 52  1  0  0  0
 40 53  2  0  0  0
 40 58  1  0  0  0
 41111  1  0  0  0
 41112  1  0  0  0
 41113  1  0  0  0
 41 48  1  0  0  0
 42 43  1  0  0  0
 42 66  1  0  0  0
 42114  1  0  0  0
 42115  1  0  0  0
 43 44  1  0  0  0
 44116  1  0  0  0
 45 46  2  0  0  0
 45117  1  0  0  0
 46118  1  0  0  0
 47119  1  0  0  0
 47120  1  0  0  0
 48 56  1  0  0  0
 48 65  1  0  0  0
 48121  1  0  0  0
 49 50  1  0  0  0
 49 53  1  0  0  0
 49 64  1  0  0  0
 49122  1  0  0  0
 50 51  1  0  0  0
 50123  1  0  0  0
 50124  1  0  0  0
 51 52  1  0  0  0
 51125  1  0  0  0
 51126  1  0  0  0
 52127  1  0  0  0
 52128  1  0  0  0
 53 54  1  0  0  0
 54 55  2  0  0  0
 54129  1  0  0  0
 55 57  1  0  0  0
 55130  1  0  0  0
 56 69  2  0  0  0
 57 58  2  0  0  0
 57131  1  0  0  0
 58132  1  0  0  0
 59 60  1  0  0  0
 59 61  1  0  0  0
 59 62  1  0  0  0
 60133  1  0  0  0
 60134  1  0  0  0
 60135  1  0  0  0
 61136  1  0  0  0
 61137  1  0  0  0
 61138  1  0  0  0
 62139  1  0  0  0
 62140  1  0  0  0
 62141  1  0  0  0
 63 65  1  0  0  0
 63142  1  0  0  0
 63143  1  0  0  0
 63144  1  0  0  0
 64145  1  0  0  0
 65146  1  0  0  0
 68 79  1  0  0  0
 71 74  2  0  0  0
 71 75  1  0  0  0
 71147  1  0  0  0
 72 74  1  0  0  0
 72 76  2  0  0  0
 72148  1  0  0  0
 73 75  2  0  0  0
 73 76  1  0  0  0
 73149  1  0  0  0
 74 84  1  0  0  0
 75 85  1  0  0  0
 76 86  1  0  0  0
 77 78  1  0  0  0
 77 79  2  0  0  0
 77 80  1  0  0  0
 78 81  1  0  0  0
 78 87  2  0  0  0
 79150  1  0  0  0
 80 82  1  0  0  0
 80151  1  0  0  0
 80152  1  0  0  0
 81 83  1  0  0  0
 81153  1  0  0  0
 81154  1  0  0  0
 82 85  1  0  0  0
 82155  1  0  0  0
 82156  1  0  0  0
 83 85  1  0  0  0
 83157  1  0  0  0
 83158  1  0  0  0
 84159  1  0  0  0
 84160  1  0  0  0
 84161  1  0  0  0
 86162  1  0  0  0
M  ISO  4   1 100  68 101  79 101  86 100
M  END
> <chiral flag>
0

> <version>
0

> <s_m_source_file>
/data/baiqing/PycharmProjects/Reinvent-master-3.2/result/LINK_invent/BTK/process_docking_weight1_custom_product_contain_oxygen_bond_distance_aromatic_linkinvent_7_9_3/rearranged_h_0089.sdf

> <i_m_source_file_index>
30

> <r_mmod_Potential_Energy-OPLS-2005>
176.793502807617

> <r_mmod_Stretch_Energy-OPLS-2005>
80.8031005859375

> <r_mmod_Bend_Energy-OPLS-2005>
148.626846313477

> <r_mmod_Torsional_Energy-OPLS-2005>
300.153717041016

> <r_mmod_Improper_Torsional_Energy-OPLS-2005>
12.0744037628174

> <r_mmod_Van_der_Waal_Energy-OPLS-2005>
148.968688964844

> <r_mmod_Electrostatic_Energy-OPLS-2005>
-335.594635009766

> <r_mmod_Solvation_Energy-OPLS-2005>
-231.949981689453

> <b_mmod_Minimization_Converged-OPLS-2005>
0

> <r_mmod_RMS_Derivative-OPLS-2005>
2.04124903678894

$$$$
30
                    3D
 Structure written by MMmdl.
160169  0  0  1  0            999 V2000
  -30.6380  -14.7546   20.3321 C   0  0  0  0  0  0
  -30.4181  -12.4303   19.4574 C   0  0  0  0  0  0
  -29.4835  -12.4100   18.2268 C   0  0  0  0  0  0
  -28.0143  -12.2808   18.6599 C   0  0  0  0  0  0
  -27.6301  -13.2308   19.8266 C   0  0  2  0  0  0
  -28.6903  -13.2352   20.9465 C   0  0  0  0  0  0
  -25.2505  -13.8217   20.5731 C   0  0  0  0  0  0
  -24.1788  -13.0461   20.9228 C   0  0  0  0  0  0
  -24.6374  -11.6937   20.8783 C   0  0  0  0  0  0
  -23.9059  -10.4303   21.0425 C   0  0  0  0  0  0
  -24.3617   -9.4211   21.9193 C   0  0  0  0  0  0
  -23.6297   -8.2241   22.0756 C   0  0  0  0  0  0
  -22.4280   -8.0278   21.3545 C   0  0  0  0  0  0
  -21.9914   -9.0251   20.4648 C   0  0  0  0  0  0
  -22.7236  -10.2134   20.3066 C   0  0  0  0  0  0
  -21.6855   -6.0737   22.5274 C   0  0  0  0  0  0
  -21.4011   -6.5644   23.8206 C   0  0  0  0  0  0
  -21.3661   -5.6799   24.9170 C   0  0  0  0  0  0
  -21.6044   -4.3060   24.7221 C   0  0  0  0  0  0
  -21.8819   -3.8150   23.4343 C   0  0  0  0  0  0
  -21.9192   -4.6965   22.3398 C   0  0  0  0  0  0
  -22.7811  -13.5236   21.1875 C   0  0  0  0  0  0
  -22.1664   -4.2153   21.0975 F   0  0  0  0  0  0
  -21.5629   -3.4543   25.7733 F   0  0  0  0  0  0
  -29.9744  -13.5486   20.3122 N   0  0  0  0  0  0
  -26.2908  -12.9420   20.3287 N   0  0  0  0  0  0
  -25.9305  -11.6568   20.5820 N   0  0  0  0  0  0
  -22.0460  -12.8216   22.0422 N   0  0  0  0  0  0
  -25.4239  -15.1931   20.4169 N   0  0  0  0  0  0
  -31.8691  -14.7531   20.3971 O   0  0  0  0  0  0
  -21.6646   -6.8873   21.4234 O   0  0  0  0  0  0
  -22.3489  -14.5537   20.6716 O   0  0  0  0  0  0
  -24.6288  -31.8565   23.1994 C   0  0  0  0  0  0
  -25.9126  -32.4757   23.8332 C   0  0  1  0  0  0
  -27.2172  -27.2825   20.1459 C   0  0  0  0  0  0
  -25.5942  -33.8560   24.2269 N   0  0  0  0  0  0
  -23.4240  -30.4782   21.5420 C   0  0  2  0  0  0
  -24.8710  -28.9181   20.1205 C   0  0  0  0  0  0
  -22.7481  -29.4615   22.4930 C   0  0  0  0  0  0
  -18.0286  -28.1387   22.8483 C   0  0  0  0  0  0
  -24.1490  -36.7280   23.2641 C   0  0  0  0  0  0
  -25.9663  -30.7770   21.3742 C   0  0  0  0  0  0
  -26.0399  -29.3962   20.7281 C   0  0  0  0  0  0
  -27.2202  -28.5901   20.7289 C   0  0  0  0  0  0
  -26.0314  -26.8570   19.5187 C   0  0  0  0  0  0
  -24.8691  -27.6541   19.5062 C   0  0  0  0  0  0
  -23.6422  -29.8058   20.1602 C   0  0  0  0  0  0
  -25.4117  -36.3069   24.0331 C   0  0  1  0  0  0
  -20.5889  -28.3694   23.1277 C   0  0  2  0  0  0
  -20.6778  -26.9415   22.5411 C   0  0  0  0  0  0
  -19.5757  -26.6385   21.5212 C   0  0  0  0  0  0
  -18.1934  -26.7930   22.1618 C   0  0  0  0  0  0
  -19.1539  -28.8858   23.2874 C   0  0  0  0  0  0
  -18.9461  -30.1460   23.8889 C   0  0  0  0  0  0
  -17.6461  -30.6589   24.0563 C   0  0  0  0  0  0
  -25.9054  -34.9442   23.5098 C   0  0  0  0  0  0
  -16.5351  -29.9086   23.6335 C   0  0  0  0  0  0
  -16.7272  -28.6506   23.0349 C   0  0  0  0  0  0
  -26.4516  -31.6569   25.0704 C   0  0  0  0  0  0
  -25.3752  -31.3704   26.1430 C   0  0  0  0  0  0
  -27.0361  -30.2989   24.6168 C   0  0  0  0  0  0
  -27.6077  -32.4303   25.7475 C   0  0  0  0  0  0
  -27.5579  -37.1800   24.8468 C   0  0  0  0  0  0
  -21.4195  -29.3043   22.3667 N   0  0  0  0  0  0
  -26.4289  -37.3768   23.9411 N   0  0  0  0  0  0
  -24.6919  -31.0555   22.0952 N   0  0  0  0  0  0
  -23.4185  -28.8167   23.3035 O   0  0  0  0  0  0
  -28.3264  -26.4262   20.0858 O   0  0  0  0  0  0
  -26.5617  -34.8917   22.4660 O   0  0  0  0  0  0
  -23.5447  -32.1370   23.7312 O   0  0  0  0  0  0
  -28.0454  -19.0592   19.4685 C   0  0  0  0  0  0
  -28.4060  -17.6843   19.3615 C   0  0  0  0  0  0
  -26.8705  -23.2324   20.3269 C   0  0  0  0  0  0
  -29.7233  -19.3749   21.1295 C   0  0  0  0  0  0
  -28.1596  -23.7629   20.6076 C   0  0  0  0  0  0
  -28.6908  -19.9796   20.3419 C   0  0  0  0  0  0
  -29.4960  -17.1013   20.0713 C   0  0  0  0  0  0
  -30.1222  -17.9929   20.9975 C   0  0  0  0  0  0
  -28.9934  -22.6266   20.6100 C   0  0  0  0  0  0
  -26.9485  -21.8677   20.2468 C   0  0  0  0  0  0
  -31.2982  -15.2149   17.4969 C   0  0  0  0  0  0
  -30.4563  -15.9575   18.2452 C   0  0  0  0  0  0
  -30.4715  -22.5813   20.8357 C   0  0  0  0  0  0
  -28.4360  -25.2761   21.0188 C   0  0  0  0  0  0
  -28.2614  -21.4110   20.4018 N   0  0  0  0  0  0
  -30.0470  -15.7952   19.6064 N   0  0  0  0  0  0
  -25.9074  -21.0080   20.0810 O   0  0  0  0  0  0
  -31.1681  -17.5472   21.7332 F   0  0  0  0  0  0
  -31.4594  -12.5349   19.1500 H   0  0  0  0  0  0
  -30.3600  -11.4872   20.0023 H   0  0  0  0  0  0
  -29.7490  -11.5812   17.5694 H   0  0  0  0  0  0
  -29.5881  -13.3099   17.6275 H   0  0  0  0  0  0
  -27.8656  -11.2445   18.9647 H   0  0  0  0  0  0
  -27.3524  -12.4422   17.8081 H   0  0  0  0  0  0
  -27.6057  -14.2335   19.3998 H   0  0  0  0  0  0
  -28.7318  -12.2726   21.4584 H   0  0  0  0  0  0
  -28.4469  -13.9864   21.7003 H   0  0  0  0  0  0
  -25.2757   -9.5689   22.4776 H   0  0  0  0  0  0
  -24.0012   -7.4627   22.7468 H   0  0  0  0  0  0
  -21.0853   -8.8759   19.8949 H   0  0  0  0  0  0
  -22.3687  -10.9676   19.6183 H   0  0  0  0  0  0
  -21.2004   -7.6154   23.9709 H   0  0  0  0  0  0
  -21.1486   -6.0532   25.9074 H   0  0  0  0  0  0
  -22.0597   -2.7613   23.2837 H   0  0  0  0  0  0
  -22.4097  -11.9889   22.4812 H   0  0  0  0  0  0
  -21.1067  -13.1213   22.2620 H   0  0  0  0  0  0
  -24.6652  -15.8540   20.5433 H   0  0  0  0  0  0
  -26.2911  -15.6327   20.1365 H   0  0  0  0  0  0
  -26.7194  -32.5426   23.1079 H   0  0  0  0  0  0
  -25.0120  -33.9698   25.0437 H   0  0  0  0  0  0
  -22.7202  -31.2996   21.3938 H   0  0  0  0  0  0
  -23.3757  -35.9607   23.3293 H   0  0  0  0  0  0
  -24.3582  -36.8902   22.2056 H   0  0  0  0  0  0
  -23.7237  -37.6480   23.6664 H   0  0  0  0  0  0
  -26.0958  -31.5328   20.5983 H   0  0  0  0  0  0
  -26.8478  -30.8334   22.0010 H   0  0  0  0  0  0
  -28.1235  -28.9577   21.1952 H   0  0  0  0  0  0
  -26.0062  -25.8903   19.0367 H   0  0  0  0  0  0
  -23.9749  -27.2828   19.0248 H   0  0  0  0  0  0
  -23.7690  -30.5777   19.4003 H   0  0  0  0  0  0
  -22.7610  -29.2381   19.8565 H   0  0  0  0  0  0
  -25.1301  -36.1913   25.0825 H   0  0  0  0  0  0
  -20.9983  -28.3267   24.1396 H   0  0  0  0  0  0
  -20.5681  -26.2305   23.3610 H   0  0  0  0  0  0
  -21.6647  -26.7444   22.1202 H   0  0  0  0  0  0
  -19.6918  -25.6296   21.1239 H   0  0  0  0  0  0
  -19.6696  -27.3198   20.6743 H   0  0  0  0  0  0
  -17.4209  -26.6677   21.4012 H   0  0  0  0  0  0
  -18.0327  -26.0073   22.9011 H   0  0  0  0  0  0
  -19.7939  -30.7277   24.2251 H   0  0  0  0  0  0
  -17.5017  -31.6270   24.5164 H   0  0  0  0  0  0
  -15.5351  -30.2984   23.7671 H   0  0  0  0  0  0
  -15.8669  -28.0826   22.7062 H   0  0  0  0  0  0
  -24.5948  -30.7023   25.7767 H   0  0  0  0  0  0
  -24.8919  -32.2861   26.4845 H   0  0  0  0  0  0
  -25.8085  -30.8901   27.0209 H   0  0  0  0  0  0
  -26.2929  -29.6723   24.1220 H   0  0  0  0  0  0
  -27.4084  -29.7264   25.4675 H   0  0  0  0  0  0
  -27.8789  -30.4269   23.9370 H   0  0  0  0  0  0
  -27.2696  -33.3618   26.2030 H   0  0  0  0  0  0
  -28.3901  -32.6832   25.0306 H   0  0  0  0  0  0
  -28.0727  -31.8432   26.5405 H   0  0  0  0  0  0
  -28.2600  -38.0095   24.7516 H   0  0  0  0  0  0
  -28.1070  -36.2627   24.6291 H   0  0  0  0  0  0
  -27.2292  -37.1438   25.8870 H   0  0  0  0  0  0
  -20.9380  -29.8750   21.6858 H   0  0  0  0  0  0
  -26.0164  -38.2839   24.1417 H   0  0  0  0  0  0
  -27.2537  -19.4091   18.8232 H   0  0  0  0  0  0
  -27.8796  -17.0885   18.6288 H   0  0  0  0  0  0
  -25.9537  -23.8027   20.2684 H   0  0  0  0  0  0
  -30.2541  -19.9837   21.8438 H   0  0  0  0  0  0
  -31.4915  -15.4927   16.4702 H   0  0  0  0  0  0
  -31.8117  -14.3387   17.8597 H   0  0  0  0  0  0
  -30.0308  -16.8165   17.7473 H   0  0  0  0  0  0
  -30.9304  -23.5488   20.6324 H   0  0  0  0  0  0
  -30.9516  -21.8541   20.1805 H   0  0  0  0  0  0
  -30.7008  -22.3182   21.8683 H   0  0  0  0  0  0
  -29.4486  -25.3114   21.4191 H   0  0  0  0  0  0
  -27.7962  -25.4834   21.8783 H   0  0  0  0  0  0
  -25.1156  -21.5284   19.9904 H   0  0  0  0  0  0
  1 25  1  0  0  0
  1 30  2  0  0  0
  1 86  1  0  0  0
  2  3  1  0  0  0
  2 25  1  0  0  0
  2 89  1  0  0  0
  2 90  1  0  0  0
  3  4  1  0  0  0
  3 91  1  0  0  0
  3 92  1  0  0  0
  4  5  1  0  0  0
  4 93  1  0  0  0
  4 94  1  0  0  0
  5  6  1  0  0  0
  5 26  1  0  0  0
  5 95  1  0  0  0
  6 25  1  0  0  0
  6 96  1  0  0  0
  6 97  1  0  0  0
  7  8  2  0  0  0
  7 26  1  0  0  0
  7 29  1  0  0  0
  8  9  1  0  0  0
  8 22  1  0  0  0
  9 10  1  0  0  0
  9 27  2  0  0  0
 10 11  2  0  0  0
 10 15  1  0  0  0
 11 12  1  0  0  0
 11 98  1  0  0  0
 12 13  2  0  0  0
 12 99  1  0  0  0
 13 14  1  0  0  0
 13 31  1  0  0  0
 14 15  2  0  0  0
 14100  1  0  0  0
 15101  1  0  0  0
 16 17  2  0  0  0
 16 21  1  0  0  0
 16 31  1  0  0  0
 17 18  1  0  0  0
 17102  1  0  0  0
 18 19  2  0  0  0
 18103  1  0  0  0
 19 20  1  0  0  0
 19 24  1  0  0  0
 20 21  2  0  0  0
 20104  1  0  0  0
 21 23  1  0  0  0
 22 28  1  0  0  0
 22 32  2  0  0  0
 26 27  1  0  0  0
 28105  1  0  0  0
 28106  1  0  0  0
 29107  1  0  0  0
 29108  1  0  0  0
 33 34  1  0  0  0
 33 66  1  0  0  0
 33 70  2  0  0  0
 34 36  1  0  0  0
 34 59  1  0  0  0
 34109  1  0  0  0
 35 44  2  0  0  0
 35 45  1  0  0  0
 35 68  1  0  0  0
 36 56  1  0  0  0
 36110  1  0  0  0
 37 39  1  0  0  0
 37 47  1  0  0  0
 37 66  1  0  0  0
 37111  1  0  0  0
 38 43  2  0  0  0
 38 46  1  0  0  0
 38 47  1  0  0  0
 39 64  1  0  0  0
 39 67  2  0  0  0
 40 52  1  0  0  0
 40 53  2  0  0  0
 40 58  1  0  0  0
 41112  1  0  0  0
 41113  1  0  0  0
 41114  1  0  0  0
 41 48  1  0  0  0
 42 43  1  0  0  0
 42 66  1  0  0  0
 42115  1  0  0  0
 42116  1  0  0  0
 43 44  1  0  0  0
 44117  1  0  0  0
 45 46  2  0  0  0
 45118  1  0  0  0
 46119  1  0  0  0
 47120  1  0  0  0
 47121  1  0  0  0
 48 56  1  0  0  0
 48 65  1  0  0  0
 48122  1  0  0  0
 49 50  1  0  0  0
 49 53  1  0  0  0
 49 64  1  0  0  0
 49123  1  0  0  0
 50 51  1  0  0  0
 50124  1  0  0  0
 50125  1  0  0  0
 51 52  1  0  0  0
 51126  1  0  0  0
 51127  1  0  0  0
 52128  1  0  0  0
 52129  1  0  0  0
 53 54  1  0  0  0
 54 55  2  0  0  0
 54130  1  0  0  0
 55 57  1  0  0  0
 55131  1  0  0  0
 56 69  2  0  0  0
 57 58  2  0  0  0
 57132  1  0  0  0
 58133  1  0  0  0
 59 60  1  0  0  0
 59 61  1  0  0  0
 59 62  1  0  0  0
 60134  1  0  0  0
 60135  1  0  0  0
 60136  1  0  0  0
 61137  1  0  0  0
 61138  1  0  0  0
 61139  1  0  0  0
 62140  1  0  0  0
 62141  1  0  0  0
 62142  1  0  0  0
 63 65  1  0  0  0
 63143  1  0  0  0
 63144  1  0  0  0
 63145  1  0  0  0
 64146  1  0  0  0
 65147  1  0  0  0
 68 84  1  0  0  0
 71 72  2  0  0  0
 71 76  1  0  0  0
 71148  1  0  0  0
 72 77  1  0  0  0
 72149  1  0  0  0
 73 75  1  0  0  0
 73 80  2  0  0  0
 73150  1  0  0  0
 74 76  2  0  0  0
 74 78  1  0  0  0
 74151  1  0  0  0
 75 79  2  0  0  0
 75 84  1  0  0  0
 76 85  1  0  0  0
 77 78  2  0  0  0
 77 86  1  0  0  0
 78 88  1  0  0  0
 79 83  1  0  0  0
 79 85  1  0  0  0
 80 85  1  0  0  0
 80 87  1  0  0  0
 81 82  2  0  0  0
 81152  1  0  0  0
 81153  1  0  0  0
 82 86  1  0  0  0
 82154  1  0  0  0
 83155  1  0  0  0
 83156  1  0  0  0
 83157  1  0  0  0
 84158  1  0  0  0
 84159  1  0  0  0
 87160  1  0  0  0
M  ISO  4   1 100  68 101  84 101  86 100
M  END
> <chiral flag>
0

> <version>
0

> <s_m_source_file>
/data/baiqing/PycharmProjects/Reinvent-master-3.2/result/LINK_invent/BTK/process_docking_weight1_custom_product_contain_oxygen_bond_distance_aromatic_linkinvent_7_9_3/rearranged_h_0089.sdf

> <i_m_source_file_index>
31

> <r_mmod_Potential_Energy-OPLS-2005>
416.183685302734

> <r_mmod_Stretch_Energy-OPLS-2005>
114.761253356934

> <r_mmod_Bend_Energy-OPLS-2005>
186.211975097656

> <r_mmod_Torsional_Energy-OPLS-2005>
367.994262695312

> <r_mmod_Improper_Torsional_Energy-OPLS-2005>
31.6381168365479

> <r_mmod_Van_der_Waal_Energy-OPLS-2005>
145.484741210938

> <r_mmod_Electrostatic_Energy-OPLS-2005>
-325.594421386719

> <r_mmod_Solvation_Energy-OPLS-2005>
-206.057769775391

> <b_mmod_Minimization_Converged-OPLS-2005>
0

> <r_mmod_RMS_Derivative-OPLS-2005>
0.840789914131165

$$$$
31
                    3D
 Structure written by MMmdl.
154162  0  0  1  0            999 V2000
  -30.6866  -14.5981   20.4586 C   0  0  0  0  0  0
  -30.4147  -12.3548   19.4707 C   0  0  0  0  0  0
  -29.5059  -12.5044   18.2315 C   0  0  0  0  0  0
  -28.0264  -12.3607   18.6335 C   0  0  0  0  0  0
  -27.6531  -13.2298   19.8647 C   0  0  2  0  0  0
  -28.6960  -13.1051   21.0012 C   0  0  0  0  0  0
  -25.2544  -13.8204   20.5701 C   0  0  0  0  0  0
  -24.1815  -13.0447   20.9187 C   0  0  0  0  0  0
  -24.6410  -11.6922   20.8731 C   0  0  0  0  0  0
  -23.9080  -10.4299   21.0390 C   0  0  0  0  0  0
  -24.3631   -9.4211   21.9169 C   0  0  0  0  0  0
  -23.6300   -8.2250   22.0746 C   0  0  0  0  0  0
  -22.4278   -8.0287   21.3544 C   0  0  0  0  0  0
  -21.9916   -9.0258   20.4644 C   0  0  0  0  0  0
  -22.7249  -10.2136   20.3045 C   0  0  0  0  0  0
  -21.6859   -6.0737   22.5281 C   0  0  0  0  0  0
  -21.4016   -6.5641   23.8214 C   0  0  0  0  0  0
  -21.3657   -5.6794   24.9175 C   0  0  0  0  0  0
  -21.6047   -4.3057   24.7227 C   0  0  0  0  0  0
  -21.8818   -3.8149   23.4348 C   0  0  0  0  0  0
  -21.9190   -4.6964   22.3406 C   0  0  0  0  0  0
  -22.7840  -13.5222   21.1846 C   0  0  0  0  0  0
  -22.1662   -4.2152   21.0982 F   0  0  0  0  0  0
  -21.5627   -3.4539   25.7736 F   0  0  0  0  0  0
  -30.0212  -13.4002   20.4394 N   0  0  0  0  0  0
  -26.2991  -12.9422   20.3333 N   0  0  0  0  0  0
  -25.9346  -11.6561   20.5752 N   0  0  0  0  0  0
  -22.0480  -12.8214   22.0405 N   0  0  0  0  0  0
  -25.4228  -15.1933   20.4144 N   0  0  0  0  0  0
  -31.8525  -14.6605   20.0591 O   0  0  0  0  0  0
  -21.6640   -6.8881   21.4242 O   0  0  0  0  0  0
  -22.3516  -14.5529   20.6688 O   0  0  0  0  0  0
  -24.6241  -31.8628   23.2037 C   0  0  0  0  0  0
  -25.9112  -32.4794   23.8363 C   0  0  1  0  0  0
  -27.2278  -27.3615   20.1051 C   0  0  0  0  0  0
  -25.5939  -33.8589   24.2294 N   0  0  0  0  0  0
  -23.4187  -30.4860   21.5446 C   0  0  2  0  0  0
  -24.8709  -28.9564   20.0974 C   0  0  0  0  0  0
  -22.7473  -29.4640   22.4918 C   0  0  0  0  0  0
  -18.0291  -28.1389   22.8473 C   0  0  0  0  0  0
  -24.1494  -36.7297   23.2628 C   0  0  0  0  0  0
  -25.9569  -30.8048   21.3742 C   0  0  0  0  0  0
  -26.0378  -29.4403   20.7069 C   0  0  0  0  0  0
  -27.2227  -28.6496   20.7123 C   0  0  0  0  0  0
  -26.0523  -26.9309   19.4529 C   0  0  0  0  0  0
  -24.8785  -27.7053   19.4601 C   0  0  0  0  0  0
  -23.6337  -29.8265   20.1567 C   0  0  0  0  0  0
  -25.4110  -36.3073   24.0319 C   0  0  1  0  0  0
  -20.5882  -28.3711   23.1253 C   0  0  2  0  0  0
  -20.6774  -26.9431   22.5398 C   0  0  0  0  0  0
  -19.5756  -26.6388   21.5204 C   0  0  0  0  0  0
  -18.1934  -26.7932   22.1609 C   0  0  0  0  0  0
  -19.1538  -28.8863   23.2863 C   0  0  0  0  0  0
  -18.9462  -30.1455   23.8904 C   0  0  0  0  0  0
  -17.6462  -30.6591   24.0559 C   0  0  0  0  0  0
  -25.9042  -34.9454   23.5085 C   0  0  0  0  0  0
  -16.5352  -29.9086   23.6328 C   0  0  0  0  0  0
  -16.7278  -28.6497   23.0354 C   0  0  0  0  0  0
  -26.4517  -31.6576   25.0715 C   0  0  0  0  0  0
  -25.3756  -31.3719   26.1434 C   0  0  0  0  0  0
  -27.0347  -30.2986   24.6166 C   0  0  0  0  0  0
  -27.6080  -32.4298   25.7498 C   0  0  0  0  0  0
  -27.5576  -37.1791   24.8455 C   0  0  0  0  0  0
  -21.4184  -29.3058   22.3655 N   0  0  0  0  0  0
  -26.4289  -37.3764   23.9405 N   0  0  0  0  0  0
  -24.6850  -31.0649   22.0991 N   0  0  0  0  0  0
  -23.4203  -28.8175   23.2993 O   0  0  0  0  0  0
  -28.2335  -26.4099   20.2813 O   0  0  0  0  0  0
  -26.5602  -34.8909   22.4649 O   0  0  0  0  0  0
  -23.5411  -32.1429   23.7367 O   0  0  0  0  0  0
  -30.0245  -19.4878   23.1511 C   0  0  0  0  0  0
  -30.1401  -18.2816   22.4338 C   0  0  0  0  0  0
  -29.6306  -20.6785   22.5088 C   0  0  0  0  0  0
  -29.4479  -19.4593   20.4109 C   0  0  0  0  0  0
  -29.8753  -18.2412   21.0478 C   0  0  0  0  0  0
  -29.3167  -20.6954   21.1308 C   0  0  0  0  0  0
  -27.7912  -25.3928   21.1410 C   0  0  0  0  0  0
  -30.2350  -16.9805   20.2592 C   0  0  0  0  0  0
  -28.0577  -24.0558   21.3345 C   0  0  0  0  0  0
  -29.0930  -23.1972   20.7049 C   0  0  0  0  0  0
  -27.2175  -23.3669   22.4151 C   0  0  0  0  0  0
  -28.7104  -21.8892   20.5662 N   0  0  0  0  0  0
  -29.9896  -15.7331   20.7746 N   0  0  0  0  0  0
  -30.7455  -17.1497   19.1456 O   0  0  0  0  0  0
  -30.2139  -23.5834   20.3666 O   0  0  0  0  0  0
  -31.4643  -12.4184   19.1775 H   0  0  0  0  0  0
  -30.2972  -11.3649   19.9146 H   0  0  0  0  0  0
  -29.7646  -11.7588   17.4790 H   0  0  0  0  0  0
  -29.6696  -13.4779   17.7655 H   0  0  0  0  0  0
  -27.8457  -11.3077   18.8520 H   0  0  0  0  0  0
  -27.3818  -12.6083   17.7890 H   0  0  0  0  0  0
  -27.6685  -14.2642   19.5217 H   0  0  0  0  0  0
  -28.6872  -12.0976   21.4191 H   0  0  0  0  0  0
  -28.4553  -13.7764   21.8263 H   0  0  0  0  0  0
  -25.2776   -9.5686   22.4741 H   0  0  0  0  0  0
  -24.0010   -7.4638   22.7469 H   0  0  0  0  0  0
  -21.0846   -8.8775   19.8952 H   0  0  0  0  0  0
  -22.3704  -10.9669   19.6154 H   0  0  0  0  0  0
  -21.2012   -7.6150   23.9721 H   0  0  0  0  0  0
  -21.1482   -6.0523   25.9079 H   0  0  0  0  0  0
  -22.0599   -2.7611   23.2847 H   0  0  0  0  0  0
  -22.4099  -11.9887   22.4814 H   0  0  0  0  0  0
  -21.1089  -13.1227   22.2595 H   0  0  0  0  0  0
  -24.6544  -15.8453   20.5290 H   0  0  0  0  0  0
  -26.2749  -15.6376   20.0969 H   0  0  0  0  0  0
  -26.7182  -32.5513   23.1124 H   0  0  0  0  0  0
  -25.0156  -33.9754   25.0479 H   0  0  0  0  0  0
  -22.7117  -31.3066   21.4043 H   0  0  0  0  0  0
  -23.3752  -35.9636   23.3304 H   0  0  0  0  0  0
  -24.3580  -36.8908   22.2038 H   0  0  0  0  0  0
  -23.7258  -37.6504   23.6650 H   0  0  0  0  0  0
  -26.0826  -31.5775   20.6142 H   0  0  0  0  0  0
  -26.8377  -30.8503   22.0033 H   0  0  0  0  0  0
  -28.1042  -28.9929   21.2364 H   0  0  0  0  0  0
  -26.0280  -25.9527   18.9936 H   0  0  0  0  0  0
  -23.9849  -27.3280   18.9814 H   0  0  0  0  0  0
  -23.7447  -30.6086   19.4047 H   0  0  0  0  0  0
  -22.7566  -29.2503   19.8565 H   0  0  0  0  0  0
  -25.1282  -36.1918   25.0811 H   0  0  0  0  0  0
  -20.9977  -28.3319   24.1369 H   0  0  0  0  0  0
  -20.5665  -26.2343   23.3616 H   0  0  0  0  0  0
  -21.6642  -26.7455   22.1195 H   0  0  0  0  0  0
  -19.6927  -25.6300   21.1240 H   0  0  0  0  0  0
  -19.6682  -27.3204   20.6744 H   0  0  0  0  0  0
  -17.4190  -26.6683   21.4022 H   0  0  0  0  0  0
  -18.0328  -26.0090   22.9023 H   0  0  0  0  0  0
  -19.7946  -30.7251   24.2287 H   0  0  0  0  0  0
  -17.5026  -31.6275   24.5157 H   0  0  0  0  0  0
  -15.5349  -30.2983   23.7643 H   0  0  0  0  0  0
  -15.8687  -28.0806   22.7068 H   0  0  0  0  0  0
  -24.5956  -30.7033   25.7777 H   0  0  0  0  0  0
  -24.8926  -32.2886   26.4823 H   0  0  0  0  0  0
  -25.8079  -30.8942   27.0232 H   0  0  0  0  0  0
  -26.2919  -29.6760   24.1165 H   0  0  0  0  0  0
  -27.4003  -29.7204   25.4664 H   0  0  0  0  0  0
  -27.8817  -30.4245   23.9417 H   0  0  0  0  0  0
  -27.2699  -33.3600   26.2079 H   0  0  0  0  0  0
  -28.3915  -32.6847   25.0350 H   0  0  0  0  0  0
  -28.0738  -31.8424   26.5418 H   0  0  0  0  0  0
  -28.2563  -38.0115   24.7503 H   0  0  0  0  0  0
  -28.1096  -36.2631   24.6276 H   0  0  0  0  0  0
  -27.2296  -37.1433   25.8860 H   0  0  0  0  0  0
  -20.9363  -29.8781   21.6865 H   0  0  0  0  0  0
  -26.0172  -38.2837   24.1434 H   0  0  0  0  0  0
  -30.2465  -19.5026   24.2096 H   0  0  0  0  0  0
  -30.4836  -17.3943   22.9478 H   0  0  0  0  0  0
  -29.5371  -21.5728   23.1063 H   0  0  0  0  0  0
  -29.2333  -19.4432   19.3514 H   0  0  0  0  0  0
  -27.0290  -25.8062   21.7898 H   0  0  0  0  0  0
  -26.4551  -24.0225   22.8362 H   0  0  0  0  0  0
  -27.8533  -23.0540   23.2430 H   0  0  0  0  0  0
  -26.6892  -22.4925   22.0355 H   0  0  0  0  0  0
  -27.7044  -21.8119   20.5179 H   0  0  0  0  0  0
  -29.2306  -15.6509   21.4298 H   0  0  0  0  0  0
  1 25  1  0  0  0
  1 30  2  0  0  0
  1 83  1  0  0  0
  2  3  1  0  0  0
  2 25  1  0  0  0
  2 86  1  0  0  0
  2 87  1  0  0  0
  3  4  1  0  0  0
  3 88  1  0  0  0
  3 89  1  0  0  0
  4  5  1  0  0  0
  4 90  1  0  0  0
  4 91  1  0  0  0
  5  6  1  0  0  0
  5 26  1  0  0  0
  5 92  1  0  0  0
  6 25  1  0  0  0
  6 93  1  0  0  0
  6 94  1  0  0  0
  7  8  2  0  0  0
  7 26  1  0  0  0
  7 29  1  0  0  0
  8  9  1  0  0  0
  8 22  1  0  0  0
  9 10  1  0  0  0
  9 27  2  0  0  0
 10 11  2  0  0  0
 10 15  1  0  0  0
 11 12  1  0  0  0
 11 95  1  0  0  0
 12 13  2  0  0  0
 12 96  1  0  0  0
 13 14  1  0  0  0
 13 31  1  0  0  0
 14 15  2  0  0  0
 14 97  1  0  0  0
 15 98  1  0  0  0
 16 17  2  0  0  0
 16 21  1  0  0  0
 16 31  1  0  0  0
 17 18  1  0  0  0
 17 99  1  0  0  0
 18 19  2  0  0  0
 18100  1  0  0  0
 19 20  1  0  0  0
 19 24  1  0  0  0
 20 21  2  0  0  0
 20101  1  0  0  0
 21 23  1  0  0  0
 22 28  1  0  0  0
 22 32  2  0  0  0
 26 27  1  0  0  0
 28102  1  0  0  0
 28103  1  0  0  0
 29104  1  0  0  0
 29105  1  0  0  0
 33 34  1  0  0  0
 33 66  1  0  0  0
 33 70  2  0  0  0
 34 36  1  0  0  0
 34 59  1  0  0  0
 34106  1  0  0  0
 35 44  2  0  0  0
 35 45  1  0  0  0
 35 68  1  0  0  0
 36 56  1  0  0  0
 36107  1  0  0  0
 37 39  1  0  0  0
 37 47  1  0  0  0
 37 66  1  0  0  0
 37108  1  0  0  0
 38 43  2  0  0  0
 38 46  1  0  0  0
 38 47  1  0  0  0
 39 64  1  0  0  0
 39 67  2  0  0  0
 40 52  1  0  0  0
 40 53  2  0  0  0
 40 58  1  0  0  0
 41109  1  0  0  0
 41110  1  0  0  0
 41111  1  0  0  0
 41 48  1  0  0  0
 42 43  1  0  0  0
 42 66  1  0  0  0
 42112  1  0  0  0
 42113  1  0  0  0
 43 44  1  0  0  0
 44114  1  0  0  0
 45 46  2  0  0  0
 45115  1  0  0  0
 46116  1  0  0  0
 47117  1  0  0  0
 47118  1  0  0  0
 48 56  1  0  0  0
 48 65  1  0  0  0
 48119  1  0  0  0
 49 50  1  0  0  0
 49 53  1  0  0  0
 49 64  1  0  0  0
 49120  1  0  0  0
 50 51  1  0  0  0
 50121  1  0  0  0
 50122  1  0  0  0
 51 52  1  0  0  0
 51123  1  0  0  0
 51124  1  0  0  0
 52125  1  0  0  0
 52126  1  0  0  0
 53 54  1  0  0  0
 54 55  2  0  0  0
 54127  1  0  0  0
 55 57  1  0  0  0
 55128  1  0  0  0
 56 69  2  0  0  0
 57 58  2  0  0  0
 57129  1  0  0  0
 58130  1  0  0  0
 59 60  1  0  0  0
 59 61  1  0  0  0
 59 62  1  0  0  0
 60131  1  0  0  0
 60132  1  0  0  0
 60133  1  0  0  0
 61134  1  0  0  0
 61135  1  0  0  0
 61136  1  0  0  0
 62137  1  0  0  0
 62138  1  0  0  0
 62139  1  0  0  0
 63 65  1  0  0  0
 63140  1  0  0  0
 63141  1  0  0  0
 63142  1  0  0  0
 64143  1  0  0  0
 65144  1  0  0  0
 68 77  1  0  0  0
 71 72  2  0  0  0
 71 73  1  0  0  0
 71145  1  0  0  0
 72 75  1  0  0  0
 72146  1  0  0  0
 73 76  2  0  0  0
 73147  1  0  0  0
 74 75  2  0  0  0
 74 76  1  0  0  0
 74148  1  0  0  0
 75 78  1  0  0  0
 76 82  1  0  0  0
 77 79  2  0  0  0
 77149  1  0  0  0
 78 83  1  0  0  0
 78 84  2  0  0  0
 79 80  1  0  0  0
 79 81  1  0  0  0
 80 82  1  0  0  0
 80 85  2  0  0  0
 81150  1  0  0  0
 81151  1  0  0  0
 81152  1  0  0  0
 82153  1  0  0  0
 83154  1  0  0  0
M  ISO  4   1 100  68 101  77 101  83 100
M  END
> <chiral flag>
0

> <version>
0

> <s_m_source_file>
/data/baiqing/PycharmProjects/Reinvent-master-3.2/result/LINK_invent/BTK/process_docking_weight1_custom_product_contain_oxygen_bond_distance_aromatic_linkinvent_7_9_3/rearranged_h_0089.sdf

> <i_m_source_file_index>
32

> <r_mmod_Potential_Energy-OPLS-2005>
84.0437240600586

> <r_mmod_Stretch_Energy-OPLS-2005>
65.8226470947266

> <r_mmod_Bend_Energy-OPLS-2005>
161.094360351562

> <r_mmod_Torsional_Energy-OPLS-2005>
350.21240234375

> <r_mmod_Improper_Torsional_Energy-OPLS-2005>
9.77322196960449

> <r_mmod_Van_der_Waal_Energy-OPLS-2005>
159.805816650391

> <r_mmod_Electrostatic_Energy-OPLS-2005>
-465.255859375

> <r_mmod_Solvation_Energy-OPLS-2005>
-249.767791748047

> <b_mmod_Minimization_Converged-OPLS-2005>
0

> <r_mmod_RMS_Derivative-OPLS-2005>
1.96447455883026

$$$$
32
                    3D
 Structure written by MMmdl.
159167  0  0  1  0            999 V2000
  -30.6763  -14.5441   20.4934 C   0  0  0  0  0  0
  -30.4225  -12.3324   19.4441 C   0  0  0  0  0  0
  -29.4978  -12.4845   18.2171 C   0  0  0  0  0  0
  -28.0198  -12.3364   18.6303 C   0  0  0  0  0  0
  -27.6489  -13.2078   19.8603 C   0  0  2  0  0  0
  -28.6949  -13.0666   20.9918 C   0  0  0  0  0  0
  -25.2529  -13.8150   20.5680 C   0  0  0  0  0  0
  -24.1812  -13.0417   20.9228 C   0  0  0  0  0  0
  -24.6369  -11.6889   20.8753 C   0  0  0  0  0  0
  -23.9038  -10.4281   21.0406 C   0  0  0  0  0  0
  -24.3599   -9.4201   21.9184 C   0  0  0  0  0  0
  -23.6281   -8.2231   22.0744 C   0  0  0  0  0  0
  -22.4263   -8.0269   21.3533 C   0  0  0  0  0  0
  -21.9892   -9.0238   20.4632 C   0  0  0  0  0  0
  -22.7215  -10.2122   20.3046 C   0  0  0  0  0  0
  -21.6849   -6.0724   22.5276 C   0  0  0  0  0  0
  -21.4017   -6.5633   23.8208 C   0  0  0  0  0  0
  -21.3660   -5.6785   24.9170 C   0  0  0  0  0  0
  -21.6050   -4.3048   24.7224 C   0  0  0  0  0  0
  -21.8817   -3.8139   23.4343 C   0  0  0  0  0  0
  -21.9192   -4.6953   22.3399 C   0  0  0  0  0  0
  -22.7839  -13.5215   21.1893 C   0  0  0  0  0  0
  -22.1662   -4.2140   21.0976 F   0  0  0  0  0  0
  -21.5631   -3.4530   25.7732 F   0  0  0  0  0  0
  -30.0178  -13.3545   20.4224 N   0  0  0  0  0  0
  -26.2945  -12.9315   20.3294 N   0  0  0  0  0  0
  -25.9291  -11.6485   20.5760 N   0  0  0  0  0  0
  -22.0479  -12.8199   22.0443 N   0  0  0  0  0  0
  -25.4194  -15.1874   20.4049 N   0  0  0  0  0  0
  -31.8655  -14.6718   20.1770 O   0  0  0  0  0  0
  -21.6640   -6.8859   21.4230 O   0  0  0  0  0  0
  -22.3539  -14.5525   20.6738 O   0  0  0  0  0  0
  -24.6154  -31.8643   23.2065 C   0  0  0  0  0  0
  -25.9039  -32.4799   23.8364 C   0  0  1  0  0  0
  -27.2408  -27.4043   20.0971 C   0  0  0  0  0  0
  -25.5888  -33.8600   24.2295 N   0  0  0  0  0  0
  -23.4037  -30.4865   21.5478 C   0  0  2  0  0  0
  -24.8490  -28.9443   20.1142 C   0  0  0  0  0  0
  -22.7407  -29.4636   22.4980 C   0  0  0  0  0  0
  -18.0270  -28.1378   22.8482 C   0  0  0  0  0  0
  -24.1484  -36.7306   23.2644 C   0  0  0  0  0  0
  -25.9328  -30.8220   21.3599 C   0  0  0  0  0  0
  -26.0091  -29.4536   20.7069 C   0  0  0  0  0  0
  -27.2010  -28.6912   20.6930 C   0  0  0  0  0  0
  -26.0490  -26.9030   19.5249 C   0  0  0  0  0  0
  -24.8648  -27.6688   19.5224 C   0  0  0  0  0  0
  -23.6119  -29.8151   20.1634 C   0  0  0  0  0  0
  -25.4106  -36.3094   24.0335 C   0  0  1  0  0  0
  -20.5856  -28.3658   23.1319 C   0  0  2  0  0  0
  -20.6760  -26.9395   22.5419 C   0  0  0  0  0  0
  -19.5745  -26.6381   21.5210 C   0  0  0  0  0  0
  -18.1922  -26.7925   22.1620 C   0  0  0  0  0  0
  -19.1519  -28.8837   23.2898 C   0  0  0  0  0  0
  -18.9452  -30.1449   23.8899 C   0  0  0  0  0  0
  -17.6455  -30.6586   24.0569 C   0  0  0  0  0  0
  -25.9031  -34.9462   23.5116 C   0  0  0  0  0  0
  -16.5343  -29.9089   23.6331 C   0  0  0  0  0  0
  -16.7259  -28.6513   23.0335 C   0  0  0  0  0  0
  -26.4473  -31.6588   25.0700 C   0  0  0  0  0  0
  -25.3750  -31.3690   26.1459 C   0  0  0  0  0  0
  -27.0312  -30.3035   24.6074 C   0  0  0  0  0  0
  -27.6038  -32.4319   25.7464 C   0  0  0  0  0  0
  -27.5573  -37.1806   24.8468 C   0  0  0  0  0  0
  -21.4133  -29.3022   22.3722 N   0  0  0  0  0  0
  -26.4290  -37.3780   23.9410 N   0  0  0  0  0  0
  -24.6691  -31.0726   22.0967 N   0  0  0  0  0  0
  -23.4169  -28.8192   23.3042 O   0  0  0  0  0  0
  -28.4436  -26.7107   20.1398 O   0  0  0  0  0  0
  -26.5605  -34.8923   22.4682 O   0  0  0  0  0  0
  -23.5346  -32.1401   23.7455 O   0  0  0  0  0  0
  -28.0304  -17.6968   19.3275 C   0  0  0  0  0  0
  -27.0273  -18.6289   19.0024 C   0  0  0  0  0  0
  -29.2301  -19.4228   20.5675 C   0  0  0  0  0  0
  -29.1315  -18.0642   20.1328 C   0  0  0  0  0  0
  -27.1132  -19.9590   19.4514 C   0  0  0  0  0  0
  -28.2327  -20.3808   20.2100 C   0  0  0  0  0  0
  -30.1800  -17.0394   20.3942 C   0  0  0  0  0  0
  -28.1658  -24.1765   20.2374 C   0  0  0  0  0  0
  -28.7940  -22.7646   19.8974 C   0  0  0  0  0  0
  -28.5218  -25.4641   17.9603 C   0  0  0  0  0  0
  -28.7184  -25.4343   19.4923 C   0  0  1  0  0  0
  -26.0876  -20.8516   19.1326 N   0  0  0  0  0  0
  -28.2752  -21.7519   20.6256 N   0  0  0  0  0  0
  -29.8432  -15.7311   20.6081 N   0  0  0  0  0  0
  -31.4529  -17.4453   20.3256 N   0  3  0  0  0  0
  -27.2756  -24.2836   21.0916 O   0  0  0  0  0  0
  -29.7079  -22.6105   19.0796 O   0  0  0  0  0  0
  -31.4678  -12.4317   19.1457 H   0  0  0  0  0  0
  -30.3284  -11.3356   19.8783 H   0  0  0  0  0  0
  -29.7491  -11.7401   17.4602 H   0  0  0  0  0  0
  -29.6552  -13.4587   17.7505 H   0  0  0  0  0  0
  -27.8493  -11.2838   18.8597 H   0  0  0  0  0  0
  -27.3652  -12.5721   17.7906 H   0  0  0  0  0  0
  -27.6619  -14.2384   19.5107 H   0  0  0  0  0  0
  -28.6822  -12.0579   21.4071 H   0  0  0  0  0  0
  -28.4639  -13.7331   21.8248 H   0  0  0  0  0  0
  -25.2737   -9.5688   22.4767 H   0  0  0  0  0  0
  -23.9990   -7.4619   22.7459 H   0  0  0  0  0  0
  -21.0822   -8.8745   19.8936 H   0  0  0  0  0  0
  -22.3662  -10.9660   19.6157 H   0  0  0  0  0  0
  -21.2017   -7.6140   23.9711 H   0  0  0  0  0  0
  -21.1488   -6.0516   25.9073 H   0  0  0  0  0  0
  -22.0599   -2.7601   23.2846 H   0  0  0  0  0  0
  -22.4076  -11.9843   22.4820 H   0  0  0  0  0  0
  -21.1099  -13.1220   22.2653 H   0  0  0  0  0  0
  -24.6323  -15.8196   20.5012 H   0  0  0  0  0  0
  -26.2191  -15.6241   19.9732 H   0  0  0  0  0  0
  -26.7097  -32.5502   23.1112 H   0  0  0  0  0  0
  -25.0042  -33.9758   25.0445 H   0  0  0  0  0  0
  -22.6930  -31.3034   21.4074 H   0  0  0  0  0  0
  -23.3738  -35.9648   23.3319 H   0  0  0  0  0  0
  -24.3575  -36.8910   22.2055 H   0  0  0  0  0  0
  -23.7248  -37.6519   23.6653 H   0  0  0  0  0  0
  -26.0451  -31.5868   20.5896 H   0  0  0  0  0  0
  -26.8206  -30.8763   21.9781 H   0  0  0  0  0  0
  -28.0972  -29.0855   21.1510 H   0  0  0  0  0  0
  -26.0017  -25.9113   19.1046 H   0  0  0  0  0  0
  -23.9659  -27.2605   19.0812 H   0  0  0  0  0  0
  -23.7196  -30.5886   19.4022 H   0  0  0  0  0  0
  -22.7344  -29.2364   19.8700 H   0  0  0  0  0  0
  -25.1285  -36.1951   25.0830 H   0  0  0  0  0  0
  -20.9947  -28.3226   24.1441 H   0  0  0  0  0  0
  -20.5659  -26.2266   23.3605 H   0  0  0  0  0  0
  -21.6634  -26.7441   22.1216 H   0  0  0  0  0  0
  -19.6915  -25.6297   21.1231 H   0  0  0  0  0  0
  -19.6697  -27.3201   20.6750 H   0  0  0  0  0  0
  -17.4194  -26.6663   21.4021 H   0  0  0  0  0  0
  -18.0332  -26.0066   22.9018 H   0  0  0  0  0  0
  -19.7932  -30.7265   24.2254 H   0  0  0  0  0  0
  -17.5016  -31.6266   24.5173 H   0  0  0  0  0  0
  -15.5347  -30.2997   23.7659 H   0  0  0  0  0  0
  -15.8658  -28.0852   22.7024 H   0  0  0  0  0  0
  -24.5920  -30.7033   25.7811 H   0  0  0  0  0  0
  -24.8950  -32.2845   26.4926 H   0  0  0  0  0  0
  -25.8123  -30.8857   27.0205 H   0  0  0  0  0  0
  -26.2852  -29.6783   24.1151 H   0  0  0  0  0  0
  -27.4120  -29.7278   25.4521 H   0  0  0  0  0  0
  -27.8665  -30.4366   23.9194 H   0  0  0  0  0  0
  -27.2641  -33.3611   26.2053 H   0  0  0  0  0  0
  -28.3838  -32.6893   25.0286 H   0  0  0  0  0  0
  -28.0712  -31.8441   26.5373 H   0  0  0  0  0  0
  -28.2597  -38.0096   24.7499 H   0  0  0  0  0  0
  -28.1059  -36.2625   24.6306 H   0  0  0  0  0  0
  -27.2293  -37.1472   25.8873 H   0  0  0  0  0  0
  -20.9288  -29.8739   21.6946 H   0  0  0  0  0  0
  -26.0173  -38.2856   24.1413 H   0  0  0  0  0  0
  -27.9508  -16.6982   18.9230 H   0  0  0  0  0  0
  -26.1936  -18.3093   18.3937 H   0  0  0  0  0  0
  -30.0731  -19.7357   21.1669 H   0  0  0  0  0  0
  -28.9021  -24.5563   17.4935 H   0  0  0  0  0  0
  -29.0792  -26.2943   17.5276 H   0  0  0  0  0  0
  -27.4866  -25.5680   17.6477 H   0  0  0  0  0  0
  -29.7958  -25.3339   19.6271 H   0  0  0  0  0  0
  -25.2061  -20.4412   18.8473 H   0  0  0  0  0  0
  -25.9489  -21.6312   19.7625 H   0  0  0  0  0  0
  -27.5429  -22.0561   21.2537 H   0  0  0  0  0  0
  -28.8675  -15.6471   20.8244 H   0  0  0  0  0  0
  -31.6746  -18.3990   20.0867 H   0  0  0  0  0  0
  -32.1893  -16.7504   20.3455 H   0  0  0  0  0  0
  1 25  1  0  0  0
  1 30  2  0  0  0
  1 84  1  0  0  0
  2  3  1  0  0  0
  2 25  1  0  0  0
  2 88  1  0  0  0
  2 89  1  0  0  0
  3  4  1  0  0  0
  3 90  1  0  0  0
  3 91  1  0  0  0
  4  5  1  0  0  0
  4 92  1  0  0  0
  4 93  1  0  0  0
  5  6  1  0  0  0
  5 26  1  0  0  0
  5 94  1  0  0  0
  6 25  1  0  0  0
  6 95  1  0  0  0
  6 96  1  0  0  0
  7  8  2  0  0  0
  7 26  1  0  0  0
  7 29  1  0  0  0
  8  9  1  0  0  0
  8 22  1  0  0  0
  9 10  1  0  0  0
  9 27  2  0  0  0
 10 11  2  0  0  0
 10 15  1  0  0  0
 11 12  1  0  0  0
 11 97  1  0  0  0
 12 13  2  0  0  0
 12 98  1  0  0  0
 13 14  1  0  0  0
 13 31  1  0  0  0
 14 15  2  0  0  0
 14 99  1  0  0  0
 15100  1  0  0  0
 16 17  2  0  0  0
 16 21  1  0  0  0
 16 31  1  0  0  0
 17 18  1  0  0  0
 17101  1  0  0  0
 18 19  2  0  0  0
 18102  1  0  0  0
 19 20  1  0  0  0
 19 24  1  0  0  0
 20 21  2  0  0  0
 20103  1  0  0  0
 21 23  1  0  0  0
 22 28  1  0  0  0
 22 32  2  0  0  0
 26 27  1  0  0  0
 28104  1  0  0  0
 28105  1  0  0  0
 29106  1  0  0  0
 29107  1  0  0  0
 33 34  1  0  0  0
 33 66  1  0  0  0
 33 70  2  0  0  0
 34 36  1  0  0  0
 34 59  1  0  0  0
 34108  1  0  0  0
 35 44  2  0  0  0
 35 45  1  0  0  0
 35 68  1  0  0  0
 36 56  1  0  0  0
 36109  1  0  0  0
 37 39  1  0  0  0
 37 47  1  0  0  0
 37 66  1  0  0  0
 37110  1  0  0  0
 38 43  2  0  0  0
 38 46  1  0  0  0
 38 47  1  0  0  0
 39 64  1  0  0  0
 39 67  2  0  0  0
 40 52  1  0  0  0
 40 53  2  0  0  0
 40 58  1  0  0  0
 41111  1  0  0  0
 41112  1  0  0  0
 41113  1  0  0  0
 41 48  1  0  0  0
 42 43  1  0  0  0
 42 66  1  0  0  0
 42114  1  0  0  0
 42115  1  0  0  0
 43 44  1  0  0  0
 44116  1  0  0  0
 45 46  2  0  0  0
 45117  1  0  0  0
 46118  1  0  0  0
 47119  1  0  0  0
 47120  1  0  0  0
 48 56  1  0  0  0
 48 65  1  0  0  0
 48121  1  0  0  0
 49 50  1  0  0  0
 49 53  1  0  0  0
 49 64  1  0  0  0
 49122  1  0  0  0
 50 51  1  0  0  0
 50123  1  0  0  0
 50124  1  0  0  0
 51 52  1  0  0  0
 51125  1  0  0  0
 51126  1  0  0  0
 52127  1  0  0  0
 52128  1  0  0  0
 53 54  1  0  0  0
 54 55  2  0  0  0
 54129  1  0  0  0
 55 57  1  0  0  0
 55130  1  0  0  0
 56 69  2  0  0  0
 57 58  2  0  0  0
 57131  1  0  0  0
 58132  1  0  0  0
 59 60  1  0  0  0
 59 61  1  0  0  0
 59 62  1  0  0  0
 60133  1  0  0  0
 60134  1  0  0  0
 60135  1  0  0  0
 61136  1  0  0  0
 61137  1  0  0  0
 61138  1  0  0  0
 62139  1  0  0  0
 62140  1  0  0  0
 62141  1  0  0  0
 63 65  1  0  0  0
 63142  1  0  0  0
 63143  1  0  0  0
 63144  1  0  0  0
 64145  1  0  0  0
 65146  1  0  0  0
 68 81  1  0  0  0
 71 72  2  0  0  0
 71 74  1  0  0  0
 71147  1  0  0  0
 72 75  1  0  0  0
 72148  1  0  0  0
 73 74  2  0  0  0
 73 76  1  0  0  0
 73149  1  0  0  0
 74 77  1  0  0  0
 75 76  2  0  0  0
 75 82  1  0  0  0
 76 83  1  0  0  0
 77 84  1  0  0  0
 77 85  2  0  0  0
 78 79  1  0  0  0
 78 81  1  0  0  0
 78 86  2  0  0  0
 79 83  1  0  0  0
 79 87  2  0  0  0
 80150  1  0  0  0
 80151  1  0  0  0
 80152  1  0  0  0
 80 81  1  0  0  0
 81153  1  0  0  0
 82154  1  0  0  0
 82155  1  0  0  0
 83156  1  0  0  0
 84157  1  0  0  0
 85158  1  0  0  0
 85159  1  0  0  0
M  CHG  1  85   1
M  ISO  4   1 100  68 101  81 101  84 100
M  END
> <chiral flag>
0

> <version>
0

> <s_m_source_file>
/data/baiqing/PycharmProjects/Reinvent-master-3.2/result/LINK_invent/BTK/process_docking_weight1_custom_product_contain_oxygen_bond_distance_aromatic_linkinvent_7_9_3/rearranged_h_0089.sdf

> <i_m_source_file_index>
33

> <r_mmod_Potential_Energy-OPLS-2005>
-265.036712646484

> <r_mmod_Stretch_Energy-OPLS-2005>
51.9134407043457

> <r_mmod_Bend_Energy-OPLS-2005>
141.33772277832

> <r_mmod_Torsional_Energy-OPLS-2005>
251.645584106445

> <r_mmod_Improper_Torsional_Energy-OPLS-2005>
16.1149139404297

> <r_mmod_Van_der_Waal_Energy-OPLS-2005>
152.162216186523

> <r_mmod_Electrostatic_Energy-OPLS-2005>
-441.197570800781

> <r_mmod_Solvation_Energy-OPLS-2005>
-462.26025390625

> <b_mmod_Minimization_Converged-OPLS-2005>
0

> <r_mmod_RMS_Derivative-OPLS-2005>
1.33388090133667

$$$$
33
                    3D
 Structure written by MMmdl.
149157  0  0  1  0            999 V2000
  -30.5193  -14.9391   20.4248 C   0  0  0  0  0  0
  -30.4527  -12.5791   19.5053 C   0  0  0  0  0  0
  -29.5331  -12.5520   18.2611 C   0  0  0  0  0  0
  -28.0615  -12.3396   18.6668 C   0  0  0  0  0  0
  -27.6393  -13.2472   19.8520 C   0  0  2  0  0  0
  -28.6841  -13.2371   20.9905 C   0  0  0  0  0  0
  -25.2490  -13.8219   20.5705 C   0  0  0  0  0  0
  -24.1792  -13.0449   20.9225 C   0  0  0  0  0  0
  -24.6411  -11.6935   20.8766 C   0  0  0  0  0  0
  -23.9075  -10.4311   21.0405 C   0  0  0  0  0  0
  -24.3617   -9.4227   21.9200 C   0  0  0  0  0  0
  -23.6291   -8.2261   22.0765 C   0  0  0  0  0  0
  -22.4271   -8.0302   21.3552 C   0  0  0  0  0  0
  -21.9910   -9.0269   20.4646 C   0  0  0  0  0  0
  -22.7246  -10.2147   20.3062 C   0  0  0  0  0  0
  -21.6861   -6.0745   22.5275 C   0  0  0  0  0  0
  -21.4017   -6.5636   23.8217 C   0  0  0  0  0  0
  -21.3658   -5.6790   24.9177 C   0  0  0  0  0  0
  -21.6039   -4.3056   24.7217 C   0  0  0  0  0  0
  -21.8816   -3.8156   23.4338 C   0  0  0  0  0  0
  -21.9185   -4.6972   22.3393 C   0  0  0  0  0  0
  -22.7812  -13.5237   21.1841 C   0  0  0  0  0  0
  -22.1655   -4.2158   21.0969 F   0  0  0  0  0  0
  -21.5613   -3.4540   25.7731 F   0  0  0  0  0  0
  -29.9655  -13.6589   20.4079 N   0  0  0  0  0  0
  -26.2938  -12.9441   20.3293 N   0  0  0  0  0  0
  -25.9348  -11.6572   20.5762 N   0  0  0  0  0  0
  -22.0413  -12.8289   22.0400 N   0  0  0  0  0  0
  -25.4141  -15.1946   20.4063 N   0  0  0  0  0  0
  -31.6996  -15.0554   20.0809 O   0  0  0  0  0  0
  -21.6640   -6.8893   21.4248 O   0  0  0  0  0  0
  -22.3514  -14.5541   20.6651 O   0  0  0  0  0  0
  -24.6434  -31.8460   23.1878 C   0  0  0  0  0  0
  -25.9215  -32.4687   23.8295 C   0  0  1  0  0  0
  -27.2112  -27.1289   20.1507 C   0  0  0  0  0  0
  -25.5967  -33.8494   24.2207 N   0  0  0  0  0  0
  -23.4465  -30.4657   21.5332 C   0  0  2  0  0  0
  -24.8960  -28.8948   20.1093 C   0  0  0  0  0  0
  -22.7572  -29.4554   22.4845 C   0  0  0  0  0  0
  -18.0318  -28.1390   22.8467 C   0  0  0  0  0  0
  -24.1492  -36.7246   23.2643 C   0  0  0  0  0  0
  -26.0039  -30.7175   21.3893 C   0  0  0  0  0  0
  -26.0751  -29.3291   20.7272 C   0  0  0  0  0  0
  -27.2340  -28.4629   20.7320 C   0  0  0  0  0  0
  -26.0065  -26.8059   19.4843 C   0  0  0  0  0  0
  -24.8736  -27.6445   19.4766 C   0  0  0  0  0  0
  -23.6739  -29.7984   20.1523 C   0  0  0  0  0  0
  -25.4126  -36.3012   24.0306 C   0  0  1  0  0  0
  -20.5926  -28.3726   23.1210 C   0  0  2  0  0  0
  -20.6785  -26.9425   22.5388 C   0  0  0  0  0  0
  -19.5769  -26.6381   21.5179 C   0  0  0  0  0  0
  -18.1953  -26.7927   22.1599 C   0  0  0  0  0  0
  -19.1570  -28.8875   23.2829 C   0  0  0  0  0  0
  -18.9487  -30.1458   23.8871 C   0  0  0  0  0  0
  -17.6481  -30.6569   24.0563 C   0  0  0  0  0  0
  -25.9081  -34.9390   23.5063 C   0  0  0  0  0  0
  -16.5370  -29.9059   23.6330 C   0  0  0  0  0  0
  -16.7302  -28.6478   23.0350 C   0  0  0  0  0  0
  -26.4521  -31.6540   25.0738 C   0  0  0  0  0  0
  -25.3701  -31.3735   26.1431 C   0  0  0  0  0  0
  -27.0382  -30.2921   24.6342 C   0  0  0  0  0  0
  -27.6048  -32.4312   25.7526 C   0  0  0  0  0  0
  -27.5567  -37.1783   24.8461 C   0  0  0  0  0  0
  -21.4265  -29.3051   22.3582 N   0  0  0  0  0  0
  -26.4284  -37.3726   23.9392 N   0  0  0  0  0  0
  -24.7174  -31.0315   22.0912 N   0  0  0  0  0  0
  -23.4216  -28.8117   23.3006 O   0  0  0  0  0  0
  -28.2442  -26.1180   20.2421 O   0  0  0  0  0  0
  -26.5663  -34.8880   22.4638 O   0  0  0  0  0  0
  -23.5551  -32.1355   23.7075 O   0  0  0  0  0  0
  -29.9224  -19.8121   19.3261 C   0  0  0  0  0  0
  -30.1858  -18.3837   19.4823 C   0  0  0  0  0  0
  -28.6469  -19.8185   21.3007 C   0  0  0  0  0  0
  -29.1330  -20.6277   20.2167 C   0  0  0  0  0  0
  -29.6620  -17.5782   20.5501 C   0  0  0  0  0  0
  -28.8799  -18.3849   21.4559 C   0  0  0  0  0  0
  -28.7518  -23.2423   20.4175 C   0  0  0  0  0  0
  -27.9141  -24.6175   19.9558 C   0  0  0  0  0  0
  -28.6518  -22.0105   19.8702 N   0  0  0  0  0  0
  -28.2586  -17.7242   22.5212 N   0  0  0  0  0  0
  -29.6863  -16.0495   20.7100 N   0  0  0  0  0  0
  -31.4900  -12.7392   19.2075 H   0  0  0  0  0  0
  -30.4393  -11.6159   20.0182 H   0  0  0  0  0  0
  -29.8487  -11.7707   17.5680 H   0  0  0  0  0  0
  -29.6292  -13.4985   17.7265 H   0  0  0  0  0  0
  -27.9421  -11.2921   18.9440 H   0  0  0  0  0  0
  -27.4099  -12.5083   17.8098 H   0  0  0  0  0  0
  -27.6119  -14.2596   19.4480 H   0  0  0  0  0  0
  -28.7659  -12.2440   21.4332 H   0  0  0  0  0  0
  -28.3882  -13.9048   21.8005 H   0  0  0  0  0  0
  -25.2744   -9.5715   22.4793 H   0  0  0  0  0  0
  -23.9989   -7.4655   22.7500 H   0  0  0  0  0  0
  -21.0833   -8.8792   19.8958 H   0  0  0  0  0  0
  -22.3696  -10.9686   19.6171 H   0  0  0  0  0  0
  -21.2027   -7.6145   23.9723 H   0  0  0  0  0  0
  -21.1473   -6.0521   25.9080 H   0  0  0  0  0  0
  -22.0596   -2.7622   23.2835 H   0  0  0  0  0  0
  -22.3975  -11.9947   22.4813 H   0  0  0  0  0  0
  -21.1037  -13.1366   22.2539 H   0  0  0  0  0  0
  -24.6474  -15.8486   20.5155 H   0  0  0  0  0  0
  -26.2556  -15.6383   20.0606 H   0  0  0  0  0  0
  -26.7294  -32.5294   23.1039 H   0  0  0  0  0  0
  -25.0076  -33.9629   25.0325 H   0  0  0  0  0  0
  -22.7479  -31.2907   21.3794 H   0  0  0  0  0  0
  -23.3737  -35.9593   23.3307 H   0  0  0  0  0  0
  -24.3576  -36.8880   22.2058 H   0  0  0  0  0  0
  -23.7278  -37.6452   23.6692 H   0  0  0  0  0  0
  -26.1679  -31.4772   20.6238 H   0  0  0  0  0  0
  -26.8704  -30.7621   22.0366 H   0  0  0  0  0  0
  -28.1294  -28.7895   21.2423 H   0  0  0  0  0  0
  -25.8918  -25.8561   18.9841 H   0  0  0  0  0  0
  -23.9702  -27.3065   18.9883 H   0  0  0  0  0  0
  -23.8113  -30.5740   19.3977 H   0  0  0  0  0  0
  -22.7877  -29.2430   19.8418 H   0  0  0  0  0  0
  -25.1304  -36.1835   25.0795 H   0  0  0  0  0  0
  -21.0019  -28.3321   24.1326 H   0  0  0  0  0  0
  -20.5617  -26.2360   23.3622 H   0  0  0  0  0  0
  -21.6666  -26.7388   22.1235 H   0  0  0  0  0  0
  -19.6930  -25.6283   21.1228 H   0  0  0  0  0  0
  -19.6675  -27.3161   20.6683 H   0  0  0  0  0  0
  -17.4213  -26.6676   21.4008 H   0  0  0  0  0  0
  -18.0342  -26.0057   22.8984 H   0  0  0  0  0  0
  -19.7961  -30.7286   24.2231 H   0  0  0  0  0  0
  -17.5028  -31.6239   24.5185 H   0  0  0  0  0  0
  -15.5369  -30.2949   23.7661 H   0  0  0  0  0  0
  -15.8706  -28.0772   22.7088 H   0  0  0  0  0  0
  -24.5879  -30.7079   25.7749 H   0  0  0  0  0  0
  -24.8893  -32.2919   26.4812 H   0  0  0  0  0  0
  -25.7987  -30.8940   27.0243 H   0  0  0  0  0  0
  -26.2999  -29.6632   24.1352 H   0  0  0  0  0  0
  -27.3963  -29.7227   25.4932 H   0  0  0  0  0  0
  -27.8922  -30.4111   23.9670 H   0  0  0  0  0  0
  -27.2629  -33.3620   26.2058 H   0  0  0  0  0  0
  -28.3883  -32.6866   25.0378 H   0  0  0  0  0  0
  -28.0694  -31.8483   26.5491 H   0  0  0  0  0  0
  -28.2575  -38.0082   24.7470 H   0  0  0  0  0  0
  -28.1067  -36.2606   24.6313 H   0  0  0  0  0  0
  -27.2292  -37.1463   25.8869 H   0  0  0  0  0  0
  -20.9482  -29.8784   21.6767 H   0  0  0  0  0  0
  -26.0133  -38.2790   24.1368 H   0  0  0  0  0  0
  -30.3053  -20.2859   18.4319 H   0  0  0  0  0  0
  -30.7506  -17.8947   18.7015 H   0  0  0  0  0  0
  -27.9927  -20.3068   22.0100 H   0  0  0  0  0  0
  -29.3918  -23.4052   21.2893 H   0  0  0  0  0  0
  -26.9248  -24.4567   20.3846 H   0  0  0  0  0  0
  -27.7730  -24.5393   18.8774 H   0  0  0  0  0  0
  -27.7989  -18.2483   23.2606 H   0  0  0  0  0  0
  -28.6057  -16.8255   22.8364 H   0  0  0  0  0  0
  -28.8250  -15.7303   21.1259 H   0  0  0  0  0  0
  1 25  1  0  0  0
  1 30  2  0  0  0
  1 81  1  0  0  0
  2  3  1  0  0  0
  2 25  1  0  0  0
  2 82  1  0  0  0
  2 83  1  0  0  0
  3  4  1  0  0  0
  3 84  1  0  0  0
  3 85  1  0  0  0
  4  5  1  0  0  0
  4 86  1  0  0  0
  4 87  1  0  0  0
  5  6  1  0  0  0
  5 26  1  0  0  0
  5 88  1  0  0  0
  6 25  1  0  0  0
  6 89  1  0  0  0
  6 90  1  0  0  0
  7  8  2  0  0  0
  7 26  1  0  0  0
  7 29  1  0  0  0
  8  9  1  0  0  0
  8 22  1  0  0  0
  9 10  1  0  0  0
  9 27  2  0  0  0
 10 11  2  0  0  0
 10 15  1  0  0  0
 11 12  1  0  0  0
 11 91  1  0  0  0
 12 13  2  0  0  0
 12 92  1  0  0  0
 13 14  1  0  0  0
 13 31  1  0  0  0
 14 15  2  0  0  0
 14 93  1  0  0  0
 15 94  1  0  0  0
 16 17  2  0  0  0
 16 21  1  0  0  0
 16 31  1  0  0  0
 17 18  1  0  0  0
 17 95  1  0  0  0
 18 19  2  0  0  0
 18 96  1  0  0  0
 19 20  1  0  0  0
 19 24  1  0  0  0
 20 21  2  0  0  0
 20 97  1  0  0  0
 21 23  1  0  0  0
 22 28  1  0  0  0
 22 32  2  0  0  0
 26 27  1  0  0  0
 28 98  1  0  0  0
 28 99  1  0  0  0
 29100  1  0  0  0
 29101  1  0  0  0
 33 34  1  0  0  0
 33 66  1  0  0  0
 33 70  2  0  0  0
 34 36  1  0  0  0
 34 59  1  0  0  0
 34102  1  0  0  0
 35 44  2  0  0  0
 35 45  1  0  0  0
 35 68  1  0  0  0
 36 56  1  0  0  0
 36103  1  0  0  0
 37 39  1  0  0  0
 37 47  1  0  0  0
 37 66  1  0  0  0
 37104  1  0  0  0
 38 43  2  0  0  0
 38 46  1  0  0  0
 38 47  1  0  0  0
 39 64  1  0  0  0
 39 67  2  0  0  0
 40 52  1  0  0  0
 40 53  2  0  0  0
 40 58  1  0  0  0
 41105  1  0  0  0
 41106  1  0  0  0
 41107  1  0  0  0
 41 48  1  0  0  0
 42 43  1  0  0  0
 42 66  1  0  0  0
 42108  1  0  0  0
 42109  1  0  0  0
 43 44  1  0  0  0
 44110  1  0  0  0
 45 46  2  0  0  0
 45111  1  0  0  0
 46112  1  0  0  0
 47113  1  0  0  0
 47114  1  0  0  0
 48 56  1  0  0  0
 48 65  1  0  0  0
 48115  1  0  0  0
 49 50  1  0  0  0
 49 53  1  0  0  0
 49 64  1  0  0  0
 49116  1  0  0  0
 50 51  1  0  0  0
 50117  1  0  0  0
 50118  1  0  0  0
 51 52  1  0  0  0
 51119  1  0  0  0
 51120  1  0  0  0
 52121  1  0  0  0
 52122  1  0  0  0
 53 54  1  0  0  0
 54 55  2  0  0  0
 54123  1  0  0  0
 55 57  1  0  0  0
 55124  1  0  0  0
 56 69  2  0  0  0
 57 58  2  0  0  0
 57125  1  0  0  0
 58126  1  0  0  0
 59 60  1  0  0  0
 59 61  1  0  0  0
 59 62  1  0  0  0
 60127  1  0  0  0
 60128  1  0  0  0
 60129  1  0  0  0
 61130  1  0  0  0
 61131  1  0  0  0
 61132  1  0  0  0
 62133  1  0  0  0
 62134  1  0  0  0
 62135  1  0  0  0
 63 65  1  0  0  0
 63136  1  0  0  0
 63137  1  0  0  0
 63138  1  0  0  0
 64139  1  0  0  0
 65140  1  0  0  0
 68 78  1  0  0  0
 71 72  2  0  0  0
 71 74  1  0  0  0
 71141  1  0  0  0
 72 75  1  0  0  0
 72142  1  0  0  0
 73 74  2  0  0  0
 73 76  1  0  0  0
 73143  1  0  0  0
 74 79  1  0  0  0
 75 76  2  0  0  0
 75 81  1  0  0  0
 76 80  1  0  0  0
 77 78  1  0  0  0
 77 79  2  0  0  0
 77144  1  0  0  0
 78145  1  0  0  0
 78146  1  0  0  0
 80147  1  0  0  0
 80148  1  0  0  0
 81149  1  0  0  0
M  ISO  4   1 100  68 101  78 101  81 100
M  END
> <chiral flag>
0

> <version>
0

> <s_m_source_file>
/data/baiqing/PycharmProjects/Reinvent-master-3.2/result/LINK_invent/BTK/process_docking_weight1_custom_product_contain_oxygen_bond_distance_aromatic_linkinvent_7_9_3/rearranged_h_0089.sdf

> <i_m_source_file_index>
34

> <r_mmod_Potential_Energy-OPLS-2005>
415.006591796875

> <r_mmod_Stretch_Energy-OPLS-2005>
235.902770996094

> <r_mmod_Bend_Energy-OPLS-2005>
275.429626464844

> <r_mmod_Torsional_Energy-OPLS-2005>
245.014526367188

> <r_mmod_Improper_Torsional_Energy-OPLS-2005>
8.71446514129639

> <r_mmod_Van_der_Waal_Energy-OPLS-2005>
134.331390380859

> <r_mmod_Electrostatic_Energy-OPLS-2005>
-456.460021972656

> <r_mmod_Solvation_Energy-OPLS-2005>
-223.069976806641

> <b_mmod_Minimization_Converged-OPLS-2005>
0

> <r_mmod_RMS_Derivative-OPLS-2005>
3.26637291908264

$$$$
34
                    3D
 Structure written by MMmdl.
155164  0  0  1  0            999 V2000
  -30.6043  -14.7006   20.4628 C   0  0  0  0  0  0
  -30.4449  -12.4248   19.4552 C   0  0  0  0  0  0
  -29.5100  -12.5070   18.2270 C   0  0  0  0  0  0
  -28.0341  -12.3383   18.6431 C   0  0  0  0  0  0
  -27.6488  -13.2220   19.8599 C   0  0  2  0  0  0
  -28.7007  -13.1110   20.9870 C   0  0  0  0  0  0
  -25.2510  -13.8141   20.5751 C   0  0  0  0  0  0
  -24.1789  -13.0380   20.9179 C   0  0  0  0  0  0
  -24.6397  -11.6874   20.8726 C   0  0  0  0  0  0
  -23.9074  -10.4262   21.0391 C   0  0  0  0  0  0
  -24.3621   -9.4186   21.9178 C   0  0  0  0  0  0
  -23.6289   -8.2229   22.0755 C   0  0  0  0  0  0
  -22.4270   -8.0272   21.3545 C   0  0  0  0  0  0
  -21.9906   -9.0243   20.4644 C   0  0  0  0  0  0
  -22.7243  -10.2114   20.3045 C   0  0  0  0  0  0
  -21.6849   -6.0731   22.5281 C   0  0  0  0  0  0
  -21.4013   -6.5637   23.8214 C   0  0  0  0  0  0
  -21.3657   -5.6789   24.9176 C   0  0  0  0  0  0
  -21.6043   -4.3052   24.7226 C   0  0  0  0  0  0
  -21.8821   -3.8144   23.4348 C   0  0  0  0  0  0
  -21.9192   -4.6960   22.3404 C   0  0  0  0  0  0
  -22.7812  -13.5173   21.1850 C   0  0  0  0  0  0
  -22.1661   -4.2147   21.0981 F   0  0  0  0  0  0
  -21.5627   -3.4536   25.7739 F   0  0  0  0  0  0
  -30.0090  -13.4627   20.4110 N   0  0  0  0  0  0
  -26.2977  -12.9367   20.3354 N   0  0  0  0  0  0
  -25.9334  -11.6506   20.5763 N   0  0  0  0  0  0
  -22.0465  -12.8178   22.0422 N   0  0  0  0  0  0
  -25.4025  -15.1884   20.4358 N   0  0  0  0  0  0
  -31.7883  -14.8519   20.1477 O   0  0  0  0  0  0
  -21.6632   -6.8873   21.4244 O   0  0  0  0  0  0
  -22.3492  -14.5484   20.6707 O   0  0  0  0  0  0
  -24.6282  -31.8578   23.2016 C   0  0  0  0  0  0
  -25.9120  -32.4768   23.8351 C   0  0  1  0  0  0
  -27.2268  -27.2948   20.1234 C   0  0  0  0  0  0
  -25.5927  -33.8570   24.2273 N   0  0  0  0  0  0
  -23.4244  -30.4806   21.5438 C   0  0  2  0  0  0
  -24.8742  -28.9338   20.1097 C   0  0  0  0  0  0
  -22.7489  -29.4610   22.4922 C   0  0  0  0  0  0
  -18.0290  -28.1385   22.8484 C   0  0  0  0  0  0
  -24.1490  -36.7291   23.2639 C   0  0  0  0  0  0
  -25.9681  -30.7785   21.3804 C   0  0  0  0  0  0
  -26.0426  -29.4031   20.7244 C   0  0  0  0  0  0
  -27.2209  -28.5931   20.7278 C   0  0  0  0  0  0
  -26.0418  -26.8959   19.4636 C   0  0  0  0  0  0
  -24.8764  -27.6852   19.4702 C   0  0  0  0  0  0
  -23.6423  -29.8159   20.1591 C   0  0  0  0  0  0
  -25.4114  -36.3078   24.0328 C   0  0  1  0  0  0
  -20.5892  -28.3693   23.1273 C   0  0  2  0  0  0
  -20.6778  -26.9413   22.5408 C   0  0  0  0  0  0
  -19.5754  -26.6383   21.5211 C   0  0  0  0  0  0
  -18.1935  -26.7927   22.1624 C   0  0  0  0  0  0
  -19.1543  -28.8856   23.2874 C   0  0  0  0  0  0
  -18.9465  -30.1457   23.8893 C   0  0  0  0  0  0
  -17.6464  -30.6586   24.0563 C   0  0  0  0  0  0
  -25.9051  -34.9446   23.5101 C   0  0  0  0  0  0
  -16.5355  -29.9084   23.6330 C   0  0  0  0  0  0
  -16.7276  -28.6502   23.0352 C   0  0  0  0  0  0
  -26.4497  -31.6585   25.0730 C   0  0  0  0  0  0
  -25.3724  -31.3732   26.1453 C   0  0  0  0  0  0
  -27.0344  -30.3003   24.6208 C   0  0  0  0  0  0
  -27.6053  -32.4326   25.7500 C   0  0  0  0  0  0
  -27.5578  -37.1802   24.8465 C   0  0  0  0  0  0
  -21.4200  -29.3042   22.3663 N   0  0  0  0  0  0
  -26.4292  -37.3772   23.9405 N   0  0  0  0  0  0
  -24.6922  -31.0563   22.0983 N   0  0  0  0  0  0
  -23.4199  -28.8149   23.3013 O   0  0  0  0  0  0
  -28.3193  -26.4035   20.1623 O   0  0  0  0  0  0
  -26.5623  -34.8915   22.4669 O   0  0  0  0  0  0
  -23.5438  -32.1390   23.7324 O   0  0  0  0  0  0
  -30.8654  -19.4834   20.7115 C   0  0  0  0  0  0
  -30.9532  -18.0510   20.7782 C   0  0  0  0  0  0
  -28.5493  -19.3379   20.1207 C   0  0  0  0  0  0
  -29.6566  -20.1872   20.4027 C   0  0  0  0  0  0
  -29.8320  -17.2202   20.5115 C   0  0  0  0  0  0
  -28.6423  -17.9112   20.1527 C   0  0  0  0  0  0
  -28.9192  -23.9358   20.2586 C   0  0  0  0  0  0
  -28.5102  -22.5213   20.4611 C   0  0  0  0  0  0
  -28.0643  -25.0177   20.3587 C   0  0  0  0  0  0
  -30.3859  -23.9518   19.9435 C   0  0  0  0  0  0
  -30.8119  -22.4742   20.1224 C   0  0  0  0  0  0
  -29.5929  -21.6756   20.3292 N   0  0  0  0  0  0
  -27.5348  -17.1551   19.7737 N   0  0  0  0  0  0
  -29.7505  -15.7580   20.6638 N   0  0  0  0  0  0
  -27.3616  -22.1453   20.7175 O   0  0  0  0  0  0
  -31.4835  -12.5613   19.1489 H   0  0  0  0  0  0
  -30.3940  -11.4375   19.9168 H   0  0  0  0  0  0
  -29.7810  -11.7445   17.4955 H   0  0  0  0  0  0
  -29.6420  -13.4687   17.7285 H   0  0  0  0  0  0
  -27.8810  -11.2869   18.8892 H   0  0  0  0  0  0
  -27.3767  -12.5505   17.7992 H   0  0  0  0  0  0
  -27.6487  -14.2499   19.4997 H   0  0  0  0  0  0
  -28.7263  -12.0985   21.3924 H   0  0  0  0  0  0
  -28.4456  -13.7632   21.8239 H   0  0  0  0  0  0
  -25.2769   -9.5660   22.4751 H   0  0  0  0  0  0
  -23.9993   -7.4622   22.7479 H   0  0  0  0  0  0
  -21.0835   -8.8765   19.8954 H   0  0  0  0  0  0
  -22.3708  -10.9652   19.6152 H   0  0  0  0  0  0
  -21.2008   -7.6145   23.9719 H   0  0  0  0  0  0
  -21.1476   -6.0518   25.9079 H   0  0  0  0  0  0
  -22.0603   -2.7606   23.2849 H   0  0  0  0  0  0
  -22.4084  -11.9839   22.4807 H   0  0  0  0  0  0
  -21.1090  -13.1215   22.2644 H   0  0  0  0  0  0
  -24.6209  -15.8150   20.5885 H   0  0  0  0  0  0
  -26.2667  -15.7007   20.2576 H   0  0  0  0  0  0
  -26.7187  -32.5433   23.1098 H   0  0  0  0  0  0
  -25.0066  -33.9712   25.0413 H   0  0  0  0  0  0
  -22.7198  -31.3022   21.3993 H   0  0  0  0  0  0
  -23.3748  -35.9628   23.3304 H   0  0  0  0  0  0
  -24.3580  -36.8910   22.2053 H   0  0  0  0  0  0
  -23.7248  -37.6496   23.6660 H   0  0  0  0  0  0
  -26.1046  -31.5397   20.6109 H   0  0  0  0  0  0
  -26.8465  -30.8275   22.0120 H   0  0  0  0  0  0
  -28.1144  -28.9437   21.2250 H   0  0  0  0  0  0
  -26.0008  -25.9445   18.9527 H   0  0  0  0  0  0
  -23.9850  -27.3234   18.9763 H   0  0  0  0  0  0
  -23.7631  -30.5931   19.4036 H   0  0  0  0  0  0
  -22.7622  -29.2466   19.8548 H   0  0  0  0  0  0
  -25.1295  -36.1930   25.0821 H   0  0  0  0  0  0
  -20.9986  -28.3272   24.1393 H   0  0  0  0  0  0
  -20.5678  -26.2304   23.3611 H   0  0  0  0  0  0
  -21.6647  -26.7439   22.1203 H   0  0  0  0  0  0
  -19.6916  -25.6293   21.1243 H   0  0  0  0  0  0
  -19.6690  -27.3191   20.6739 H   0  0  0  0  0  0
  -17.4203  -26.6671   21.4030 H   0  0  0  0  0  0
  -18.0339  -26.0071   22.9023 H   0  0  0  0  0  0
  -19.7941  -30.7274   24.2262 H   0  0  0  0  0  0
  -17.5018  -31.6267   24.5165 H   0  0  0  0  0  0
  -15.5355  -30.2986   23.7655 H   0  0  0  0  0  0
  -15.8677  -28.0819   22.7069 H   0  0  0  0  0  0
  -24.5895  -30.7088   25.7779 H   0  0  0  0  0  0
  -24.8924  -32.2903   26.4878 H   0  0  0  0  0  0
  -25.8042  -30.8905   27.0230 H   0  0  0  0  0  0
  -26.2928  -29.6751   24.1222 H   0  0  0  0  0  0
  -27.4017  -29.7264   25.4726 H   0  0  0  0  0  0
  -27.8809  -30.4278   23.9456 H   0  0  0  0  0  0
  -27.2658  -33.3624   26.2075 H   0  0  0  0  0  0
  -28.3862  -32.6890   25.0328 H   0  0  0  0  0  0
  -28.0723  -31.8456   26.5418 H   0  0  0  0  0  0
  -28.2599  -38.0096   24.7504 H   0  0  0  0  0  0
  -28.1072  -36.2627   24.6299 H   0  0  0  0  0  0
  -27.2296  -37.1462   25.8868 H   0  0  0  0  0  0
  -20.9383  -29.8765   21.6871 H   0  0  0  0  0  0
  -26.0173  -38.2848   24.1400 H   0  0  0  0  0  0
  -31.7626  -20.0452   20.9288 H   0  0  0  0  0  0
  -31.8933  -17.5973   21.0583 H   0  0  0  0  0  0
  -27.6082  -19.7860   19.8370 H   0  0  0  0  0  0
  -27.0330  -24.8393   20.6327 H   0  0  0  0  0  0
  -30.9257  -24.6208   20.6145 H   0  0  0  0  0  0
  -30.5370  -24.2887   18.9173 H   0  0  0  0  0  0
  -31.4613  -22.3751   20.9933 H   0  0  0  0  0  0
  -31.3631  -22.1146   19.2525 H   0  0  0  0  0  0
  -26.7650  -17.7101   19.4147 H   0  0  0  0  0  0
  -27.7743  -16.4466   19.0895 H   0  0  0  0  0  0
  -28.7964  -15.4584   20.7961 H   0  0  0  0  0  0
  1 25  1  0  0  0
  1 30  2  0  0  0
  1 84  1  0  0  0
  2  3  1  0  0  0
  2 25  1  0  0  0
  2 86  1  0  0  0
  2 87  1  0  0  0
  3  4  1  0  0  0
  3 88  1  0  0  0
  3 89  1  0  0  0
  4  5  1  0  0  0
  4 90  1  0  0  0
  4 91  1  0  0  0
  5  6  1  0  0  0
  5 26  1  0  0  0
  5 92  1  0  0  0
  6 25  1  0  0  0
  6 93  1  0  0  0
  6 94  1  0  0  0
  7  8  2  0  0  0
  7 26  1  0  0  0
  7 29  1  0  0  0
  8  9  1  0  0  0
  8 22  1  0  0  0
  9 10  1  0  0  0
  9 27  2  0  0  0
 10 11  2  0  0  0
 10 15  1  0  0  0
 11 12  1  0  0  0
 11 95  1  0  0  0
 12 13  2  0  0  0
 12 96  1  0  0  0
 13 14  1  0  0  0
 13 31  1  0  0  0
 14 15  2  0  0  0
 14 97  1  0  0  0
 15 98  1  0  0  0
 16 17  2  0  0  0
 16 21  1  0  0  0
 16 31  1  0  0  0
 17 18  1  0  0  0
 17 99  1  0  0  0
 18 19  2  0  0  0
 18100  1  0  0  0
 19 20  1  0  0  0
 19 24  1  0  0  0
 20 21  2  0  0  0
 20101  1  0  0  0
 21 23  1  0  0  0
 22 28  1  0  0  0
 22 32  2  0  0  0
 26 27  1  0  0  0
 28102  1  0  0  0
 28103  1  0  0  0
 29104  1  0  0  0
 29105  1  0  0  0
 33 34  1  0  0  0
 33 66  1  0  0  0
 33 70  2  0  0  0
 34 36  1  0  0  0
 34 59  1  0  0  0
 34106  1  0  0  0
 35 44  2  0  0  0
 35 45  1  0  0  0
 35 68  1  0  0  0
 36 56  1  0  0  0
 36107  1  0  0  0
 37 39  1  0  0  0
 37 47  1  0  0  0
 37 66  1  0  0  0
 37108  1  0  0  0
 38 43  2  0  0  0
 38 46  1  0  0  0
 38 47  1  0  0  0
 39 64  1  0  0  0
 39 67  2  0  0  0
 40 52  1  0  0  0
 40 53  2  0  0  0
 40 58  1  0  0  0
 41109  1  0  0  0
 41110  1  0  0  0
 41111  1  0  0  0
 41 48  1  0  0  0
 42 43  1  0  0  0
 42 66  1  0  0  0
 42112  1  0  0  0
 42113  1  0  0  0
 43 44  1  0  0  0
 44114  1  0  0  0
 45 46  2  0  0  0
 45115  1  0  0  0
 46116  1  0  0  0
 47117  1  0  0  0
 47118  1  0  0  0
 48 56  1  0  0  0
 48 65  1  0  0  0
 48119  1  0  0  0
 49 50  1  0  0  0
 49 53  1  0  0  0
 49 64  1  0  0  0
 49120  1  0  0  0
 50 51  1  0  0  0
 50121  1  0  0  0
 50122  1  0  0  0
 51 52  1  0  0  0
 51123  1  0  0  0
 51124  1  0  0  0
 52125  1  0  0  0
 52126  1  0  0  0
 53 54  1  0  0  0
 54 55  2  0  0  0
 54127  1  0  0  0
 55 57  1  0  0  0
 55128  1  0  0  0
 56 69  2  0  0  0
 57 58  2  0  0  0
 57129  1  0  0  0
 58130  1  0  0  0
 59 60  1  0  0  0
 59 61  1  0  0  0
 59 62  1  0  0  0
 60131  1  0  0  0
 60132  1  0  0  0
 60133  1  0  0  0
 61134  1  0  0  0
 61135  1  0  0  0
 61136  1  0  0  0
 62137  1  0  0  0
 62138  1  0  0  0
 62139  1  0  0  0
 63 65  1  0  0  0
 63140  1  0  0  0
 63141  1  0  0  0
 63142  1  0  0  0
 64143  1  0  0  0
 65144  1  0  0  0
 68 79  1  0  0  0
 71 72  2  0  0  0
 71 74  1  0  0  0
 71145  1  0  0  0
 72 75  1  0  0  0
 72146  1  0  0  0
 73 74  2  0  0  0
 73 76  1  0  0  0
 73147  1  0  0  0
 74 82  1  0  0  0
 75 76  2  0  0  0
 75 84  1  0  0  0
 76 83  1  0  0  0
 77 78  1  0  0  0
 77 79  2  0  0  0
 77 80  1  0  0  0
 78 82  1  0  0  0
 78 85  2  0  0  0
 79148  1  0  0  0
 80 81  1  0  0  0
 80149  1  0  0  0
 80150  1  0  0  0
 81 82  1  0  0  0
 81151  1  0  0  0
 81152  1  0  0  0
 83153  1  0  0  0
 83154  1  0  0  0
 84155  1  0  0  0
M  ISO  4   1 100  68 101  79 101  84 100
M  END
> <chiral flag>
0

> <version>
0

> <s_m_source_file>
/data/baiqing/PycharmProjects/Reinvent-master-3.2/result/LINK_invent/BTK/process_docking_weight1_custom_product_contain_oxygen_bond_distance_aromatic_linkinvent_7_9_3/rearranged_h_0089.sdf

> <i_m_source_file_index>
35

> <r_mmod_Potential_Energy-OPLS-2005>
91.5329360961914

> <r_mmod_Stretch_Energy-OPLS-2005>
91.3141937255859

> <r_mmod_Bend_Energy-OPLS-2005>
171.801162719727

> <r_mmod_Torsional_Energy-OPLS-2005>
273.915649414062

> <r_mmod_Improper_Torsional_Energy-OPLS-2005>
11.3972654342651

> <r_mmod_Van_der_Waal_Energy-OPLS-2005>
147.474670410156

> <r_mmod_Electrostatic_Energy-OPLS-2005>
-463.108673095703

> <r_mmod_Solvation_Energy-OPLS-2005>
-209.65852355957

> <b_mmod_Minimization_Converged-OPLS-2005>
0

> <r_mmod_RMS_Derivative-OPLS-2005>
0.224768400192261

$$$$
35
                    3D
 Structure written by MMmdl.
150158  0  0  1  0            999 V2000
  -30.6974  -14.6523   20.4822 C   0  0  0  0  0  0
  -30.4083  -12.4014   19.4662 C   0  0  0  0  0  0
  -29.4989  -12.4973   18.2259 C   0  0  0  0  0  0
  -28.0241  -12.3419   18.6374 C   0  0  0  0  0  0
  -27.6412  -13.2357   19.8496 C   0  0  2  0  0  0
  -28.6872  -13.1654   20.9836 C   0  0  0  0  0  0
  -25.2498  -13.8210   20.5665 C   0  0  0  0  0  0
  -24.1796  -13.0451   20.9187 C   0  0  0  0  0  0
  -24.6401  -11.6933   20.8735 C   0  0  0  0  0  0
  -23.9080  -10.4298   21.0393 C   0  0  0  0  0  0
  -24.3631   -9.4214   21.9170 C   0  0  0  0  0  0
  -23.6300   -8.2250   22.0753 C   0  0  0  0  0  0
  -22.4280   -8.0285   21.3552 C   0  0  0  0  0  0
  -21.9912   -9.0259   20.4650 C   0  0  0  0  0  0
  -22.7246  -10.2137   20.3046 C   0  0  0  0  0  0
  -21.6861   -6.0728   22.5280 C   0  0  0  0  0  0
  -21.4015   -6.5634   23.8213 C   0  0  0  0  0  0
  -21.3660   -5.6792   24.9177 C   0  0  0  0  0  0
  -21.6047   -4.3049   24.7226 C   0  0  0  0  0  0
  -21.8822   -3.8141   23.4350 C   0  0  0  0  0  0
  -21.9192   -4.6957   22.3404 C   0  0  0  0  0  0
  -22.7819  -13.5225   21.1853 C   0  0  0  0  0  0
  -22.1664   -4.2146   21.0978 F   0  0  0  0  0  0
  -21.5633   -3.4534   25.7739 F   0  0  0  0  0  0
  -29.9925  -13.4767   20.3946 N   0  0  0  0  0  0
  -26.2942  -12.9436   20.3287 N   0  0  0  0  0  0
  -25.9335  -11.6575   20.5754 N   0  0  0  0  0  0
  -22.0464  -12.8222   22.0418 N   0  0  0  0  0  0
  -25.4162  -15.1930   20.4054 N   0  0  0  0  0  0
  -31.8880  -14.6389   20.1613 O   0  0  0  0  0  0
  -21.6656   -6.8876   21.4244 O   0  0  0  0  0  0
  -22.3496  -14.5528   20.6701 O   0  0  0  0  0  0
  -24.6268  -31.8589   23.2029 C   0  0  0  0  0  0
  -25.9120  -32.4767   23.8345 C   0  0  1  0  0  0
  -27.2112  -27.3138   20.1274 C   0  0  0  0  0  0
  -25.5945  -33.8568   24.2284 N   0  0  0  0  0  0
  -23.4210  -30.4842   21.5443 C   0  0  2  0  0  0
  -24.8671  -28.9398   20.1095 C   0  0  0  0  0  0
  -22.7491  -29.4612   22.4918 C   0  0  0  0  0  0
  -18.0299  -28.1374   22.8483 C   0  0  0  0  0  0
  -24.1487  -36.7280   23.2633 C   0  0  0  0  0  0
  -25.9624  -30.7898   21.3752 C   0  0  0  0  0  0
  -26.0366  -29.4176   20.7157 C   0  0  0  0  0  0
  -27.2166  -28.6163   20.7138 C   0  0  0  0  0  0
  -26.0302  -26.8951   19.4814 C   0  0  0  0  0  0
  -24.8653  -27.6843   19.4822 C   0  0  0  0  0  0
  -23.6371  -29.8223   20.1576 C   0  0  0  0  0  0
  -25.4112  -36.3078   24.0335 C   0  0  1  0  0  0
  -20.5904  -28.3676   23.1277 C   0  0  2  0  0  0
  -20.6776  -26.9390   22.5409 C   0  0  0  0  0  0
  -19.5751  -26.6374   21.5204 C   0  0  0  0  0  0
  -18.1936  -26.7917   22.1618 C   0  0  0  0  0  0
  -19.1556  -28.8847   23.2877 C   0  0  0  0  0  0
  -18.9466  -30.1446   23.8892 C   0  0  0  0  0  0
  -17.6465  -30.6574   24.0559 C   0  0  0  0  0  0
  -25.9057  -34.9444   23.5113 C   0  0  0  0  0  0
  -16.5361  -29.9065   23.6325 C   0  0  0  0  0  0
  -16.7285  -28.6483   23.0346 C   0  0  0  0  0  0
  -26.4506  -31.6571   25.0715 C   0  0  0  0  0  0
  -25.3744  -31.3722   26.1452 C   0  0  0  0  0  0
  -27.0323  -30.2984   24.6168 C   0  0  0  0  0  0
  -27.6088  -32.4278   25.7479 C   0  0  0  0  0  0
  -27.5588  -37.1797   24.8465 C   0  0  0  0  0  0
  -21.4206  -29.3035   22.3670 N   0  0  0  0  0  0
  -26.4288  -37.3779   23.9424 N   0  0  0  0  0  0
  -24.6891  -31.0605   22.0980 N   0  0  0  0  0  0
  -23.4214  -28.8156   23.3007 O   0  0  0  0  0  0
  -28.2884  -26.4218   20.1744 O   0  0  0  0  0  0
  -26.5600  -34.8919   22.4664 O   0  0  0  0  0  0
  -23.5438  -32.1377   23.7364 O   0  0  0  0  0  0
  -30.4327  -19.4892   19.8704 C   0  0  0  0  0  0
  -29.9559  -20.8336   19.8755 C   0  0  0  0  0  0
  -28.2370  -20.1683   21.4155 C   0  0  0  0  0  0
  -29.8486  -18.4413   20.6432 C   0  0  0  0  0  0
  -28.8551  -21.2254   20.6792 C   0  0  0  0  0  0
  -28.7109  -18.8156   21.4058 C   0  0  0  0  0  0
  -30.6046  -17.0985   20.7702 C   0  0  0  0  0  0
  -28.7083  -23.8149   20.2663 C   0  0  0  0  0  0
  -27.9954  -25.1159   20.8257 C   0  0  0  0  0  0
  -28.3652  -22.6062   20.8304 N   0  0  0  0  0  0
  -30.0245  -15.8449   20.6940 N   0  0  0  0  0  0
  -31.8266  -17.2359   20.9179 O   0  0  0  0  0  0
  -29.5290  -23.9136   19.3502 O   0  0  0  0  0  0
  -28.0908  -17.8969   22.1870 F   0  0  0  0  0  0
  -31.4544  -12.4712   19.1637 H   0  0  0  0  0  0
  -30.3088  -11.4256   19.9450 H   0  0  0  0  0  0
  -29.7684  -11.7315   17.4972 H   0  0  0  0  0  0
  -29.6464  -13.4577   17.7286 H   0  0  0  0  0  0
  -27.8644  -11.2916   18.8841 H   0  0  0  0  0  0
  -27.3722  -12.5564   17.7902 H   0  0  0  0  0  0
  -27.6385  -14.2602   19.4770 H   0  0  0  0  0  0
  -28.7018  -12.1730   21.4368 H   0  0  0  0  0  0
  -28.4401  -13.8640   21.7846 H   0  0  0  0  0  0
  -25.2774   -9.5696   22.4745 H   0  0  0  0  0  0
  -24.0015   -7.4641   22.7465 H   0  0  0  0  0  0
  -21.0844   -8.8772   19.8950 H   0  0  0  0  0  0
  -22.3695  -10.9675   19.6157 H   0  0  0  0  0  0
  -21.2008   -7.6140   23.9712 H   0  0  0  0  0  0
  -21.1480   -6.0520   25.9080 H   0  0  0  0  0  0
  -22.0597   -2.7599   23.2853 H   0  0  0  0  0  0
  -22.4095  -11.9905   22.4831 H   0  0  0  0  0  0
  -21.1074  -13.1236   22.2611 H   0  0  0  0  0  0
  -24.6444  -15.8430   20.5091 H   0  0  0  0  0  0
  -26.2675  -15.6385   20.0904 H   0  0  0  0  0  0
  -26.7185  -32.5434   23.1086 H   0  0  0  0  0  0
  -25.0129  -33.9691   25.0458 H   0  0  0  0  0  0
  -22.7147  -31.3047   21.4031 H   0  0  0  0  0  0
  -23.3755  -35.9601   23.3283 H   0  0  0  0  0  0
  -24.3585  -36.8906   22.2052 H   0  0  0  0  0  0
  -23.7229  -37.6486   23.6644 H   0  0  0  0  0  0
  -26.0972  -31.5551   20.6098 H   0  0  0  0  0  0
  -26.8404  -30.8336   22.0073 H   0  0  0  0  0  0
  -28.1141  -28.9725   21.1996 H   0  0  0  0  0  0
  -25.9980  -25.9327   18.9919 H   0  0  0  0  0  0
  -23.9704  -27.3178   18.9982 H   0  0  0  0  0  0
  -23.7622  -30.5998   19.4033 H   0  0  0  0  0  0
  -22.7562  -29.2557   19.8516 H   0  0  0  0  0  0
  -25.1283  -36.1927   25.0825 H   0  0  0  0  0  0
  -21.0000  -28.3248   24.1399 H   0  0  0  0  0  0
  -20.5660  -26.2274   23.3603 H   0  0  0  0  0  0
  -21.6643  -26.7398   22.1214 H   0  0  0  0  0  0
  -19.6901  -25.6287   21.1222 H   0  0  0  0  0  0
  -19.6691  -27.3186   20.6735 H   0  0  0  0  0  0
  -17.4201  -26.6667   21.4026 H   0  0  0  0  0  0
  -18.0339  -26.0054   22.9010 H   0  0  0  0  0  0
  -19.7948  -30.7270   24.2239 H   0  0  0  0  0  0
  -17.5018  -31.6254   24.5154 H   0  0  0  0  0  0
  -15.5356  -30.2957   23.7651 H   0  0  0  0  0  0
  -15.8690  -28.0798   22.7048 H   0  0  0  0  0  0
  -24.5949  -30.7025   25.7806 H   0  0  0  0  0  0
  -24.8904  -32.2885   26.4845 H   0  0  0  0  0  0
  -25.8091  -30.8955   27.0244 H   0  0  0  0  0  0
  -26.2879  -29.6761   24.1194 H   0  0  0  0  0  0
  -27.4012  -29.7231   25.4671 H   0  0  0  0  0  0
  -27.8760  -30.4259   23.9379 H   0  0  0  0  0  0
  -27.2730  -33.3579   26.2070 H   0  0  0  0  0  0
  -28.3895  -32.6831   25.0299 H   0  0  0  0  0  0
  -28.0739  -31.8379   26.5387 H   0  0  0  0  0  0
  -28.2604  -38.0105   24.7535 H   0  0  0  0  0  0
  -28.1096  -36.2647   24.6243 H   0  0  0  0  0  0
  -27.2310  -37.1376   25.8869 H   0  0  0  0  0  0
  -20.9372  -29.8757   21.6889 H   0  0  0  0  0  0
  -26.0173  -38.2852   24.1445 H   0  0  0  0  0  0
  -31.3165  -19.2670   19.2871 H   0  0  0  0  0  0
  -30.4833  -21.5650   19.2801 H   0  0  0  0  0  0
  -27.3879  -20.3931   22.0438 H   0  0  0  0  0  0
  -28.2945  -25.2190   21.8693 H   0  0  0  0  0  0
  -26.9259  -24.9056   20.8571 H   0  0  0  0  0  0
  -27.6398  -22.7079   21.5284 H   0  0  0  0  0  0
  -29.0199  -15.8083   20.7280 H   0  0  0  0  0  0
  1 25  1  0  0  0
  1 30  2  0  0  0
  1 81  1  0  0  0
  2  3  1  0  0  0
  2 25  1  0  0  0
  2 85  1  0  0  0
  2 86  1  0  0  0
  3  4  1  0  0  0
  3 87  1  0  0  0
  3 88  1  0  0  0
  4  5  1  0  0  0
  4 89  1  0  0  0
  4 90  1  0  0  0
  5  6  1  0  0  0
  5 26  1  0  0  0
  5 91  1  0  0  0
  6 25  1  0  0  0
  6 92  1  0  0  0
  6 93  1  0  0  0
  7  8  2  0  0  0
  7 26  1  0  0  0
  7 29  1  0  0  0
  8  9  1  0  0  0
  8 22  1  0  0  0
  9 10  1  0  0  0
  9 27  2  0  0  0
 10 11  2  0  0  0
 10 15  1  0  0  0
 11 12  1  0  0  0
 11 94  1  0  0  0
 12 13  2  0  0  0
 12 95  1  0  0  0
 13 14  1  0  0  0
 13 31  1  0  0  0
 14 15  2  0  0  0
 14 96  1  0  0  0
 15 97  1  0  0  0
 16 17  2  0  0  0
 16 21  1  0  0  0
 16 31  1  0  0  0
 17 18  1  0  0  0
 17 98  1  0  0  0
 18 19  2  0  0  0
 18 99  1  0  0  0
 19 20  1  0  0  0
 19 24  1  0  0  0
 20 21  2  0  0  0
 20100  1  0  0  0
 21 23  1  0  0  0
 22 28  1  0  0  0
 22 32  2  0  0  0
 26 27  1  0  0  0
 28101  1  0  0  0
 28102  1  0  0  0
 29103  1  0  0  0
 29104  1  0  0  0
 33 34  1  0  0  0
 33 66  1  0  0  0
 33 70  2  0  0  0
 34 36  1  0  0  0
 34 59  1  0  0  0
 34105  1  0  0  0
 35 44  2  0  0  0
 35 45  1  0  0  0
 35 68  1  0  0  0
 36 56  1  0  0  0
 36106  1  0  0  0
 37 39  1  0  0  0
 37 47  1  0  0  0
 37 66  1  0  0  0
 37107  1  0  0  0
 38 43  2  0  0  0
 38 46  1  0  0  0
 38 47  1  0  0  0
 39 64  1  0  0  0
 39 67  2  0  0  0
 40 52  1  0  0  0
 40 53  2  0  0  0
 40 58  1  0  0  0
 41108  1  0  0  0
 41109  1  0  0  0
 41110  1  0  0  0
 41 48  1  0  0  0
 42 43  1  0  0  0
 42 66  1  0  0  0
 42111  1  0  0  0
 42112  1  0  0  0
 43 44  1  0  0  0
 44113  1  0  0  0
 45 46  2  0  0  0
 45114  1  0  0  0
 46115  1  0  0  0
 47116  1  0  0  0
 47117  1  0  0  0
 48 56  1  0  0  0
 48 65  1  0  0  0
 48118  1  0  0  0
 49 50  1  0  0  0
 49 53  1  0  0  0
 49 64  1  0  0  0
 49119  1  0  0  0
 50 51  1  0  0  0
 50120  1  0  0  0
 50121  1  0  0  0
 51 52  1  0  0  0
 51122  1  0  0  0
 51123  1  0  0  0
 52124  1  0  0  0
 52125  1  0  0  0
 53 54  1  0  0  0
 54 55  2  0  0  0
 54126  1  0  0  0
 55 57  1  0  0  0
 55127  1  0  0  0
 56 69  2  0  0  0
 57 58  2  0  0  0
 57128  1  0  0  0
 58129  1  0  0  0
 59 60  1  0  0  0
 59 61  1  0  0  0
 59 62  1  0  0  0
 60130  1  0  0  0
 60131  1  0  0  0
 60132  1  0  0  0
 61133  1  0  0  0
 61134  1  0  0  0
 61135  1  0  0  0
 62136  1  0  0  0
 62137  1  0  0  0
 62138  1  0  0  0
 63 65  1  0  0  0
 63139  1  0  0  0
 63140  1  0  0  0
 63141  1  0  0  0
 64142  1  0  0  0
 65143  1  0  0  0
 68 79  1  0  0  0
 71 72  2  0  0  0
 71 74  1  0  0  0
 71144  1  0  0  0
 72 75  1  0  0  0
 72145  1  0  0  0
 73 75  2  0  0  0
 73 76  1  0  0  0
 73146  1  0  0  0
 74 76  2  0  0  0
 74 77  1  0  0  0
 75 80  1  0  0  0
 76 84  1  0  0  0
 77 81  1  0  0  0
 77 82  2  0  0  0
 78 79  1  0  0  0
 78 80  1  0  0  0
 78 83  2  0  0  0
 79147  1  0  0  0
 79148  1  0  0  0
 80149  1  0  0  0
 81150  1  0  0  0
M  ISO  4   1 100  68 101  79 101  81 100
M  END
> <chiral flag>
0

> <version>
0

> <s_m_source_file>
/data/baiqing/PycharmProjects/Reinvent-master-3.2/result/LINK_invent/BTK/process_docking_weight1_custom_product_contain_oxygen_bond_distance_aromatic_linkinvent_7_9_3/rearranged_h_0089.sdf

> <i_m_source_file_index>
36

> <r_mmod_Potential_Energy-OPLS-2005>
57.386661529541

> <r_mmod_Stretch_Energy-OPLS-2005>
84.8491287231445

> <r_mmod_Bend_Energy-OPLS-2005>
154.61003112793

> <r_mmod_Torsional_Energy-OPLS-2005>
252.279281616211

> <r_mmod_Improper_Torsional_Energy-OPLS-2005>
6.57038021087646

> <r_mmod_Van_der_Waal_Energy-OPLS-2005>
153.362976074219

> <r_mmod_Electrostatic_Energy-OPLS-2005>
-403.895904541016

> <r_mmod_Solvation_Energy-OPLS-2005>
-250.987533569336

> <b_mmod_Minimization_Converged-OPLS-2005>
0

> <r_mmod_RMS_Derivative-OPLS-2005>
1.95683372020721

$$$$
36
                    3D
 Structure written by MMmdl.
156165  0  0  1  0            999 V2000
  -30.5908  -14.7316   20.4697 C   0  0  0  0  0  0
  -30.4472  -12.4447   19.4574 C   0  0  0  0  0  0
  -29.5026  -12.5059   18.2335 C   0  0  0  0  0  0
  -28.0271  -12.3329   18.6498 C   0  0  0  0  0  0
  -27.6430  -13.2184   19.8640 C   0  0  2  0  0  0
  -28.7006  -13.0978   20.9844 C   0  0  0  0  0  0
  -25.2380  -13.8000   20.5696 C   0  0  0  0  0  0
  -24.1703  -13.0275   20.9241 C   0  0  0  0  0  0
  -24.6355  -11.6789   20.8790 C   0  0  0  0  0  0
  -23.9038  -10.4169   21.0434 C   0  0  0  0  0  0
  -24.3571   -9.4071   21.9206 C   0  0  0  0  0  0
  -23.6229   -8.2123   22.0751 C   0  0  0  0  0  0
  -22.4216   -8.0194   21.3538 C   0  0  0  0  0  0
  -21.9878   -9.0165   20.4633 C   0  0  0  0  0  0
  -22.7224  -10.2036   20.3060 C   0  0  0  0  0  0
  -21.6805   -6.0674   22.5307 C   0  0  0  0  0  0
  -21.3963   -6.5596   23.8234 C   0  0  0  0  0  0
  -21.3651   -5.6767   24.9205 C   0  0  0  0  0  0
  -21.6051   -4.3026   24.7259 C   0  0  0  0  0  0
  -21.8822   -3.8108   23.4380 C   0  0  0  0  0  0
  -21.9159   -4.6910   22.3432 C   0  0  0  0  0  0
  -22.7733  -13.5075   21.1885 C   0  0  0  0  0  0
  -22.1631   -4.2103   21.1014 F   0  0  0  0  0  0
  -21.5650   -3.4512   25.7788 F   0  0  0  0  0  0
  -30.0046  -13.4834   20.4151 N   0  0  0  0  0  0
  -26.2898  -12.9287   20.3370 N   0  0  0  0  0  0
  -25.9291  -11.6432   20.5837 N   0  0  0  0  0  0
  -22.0390  -12.8078   22.0492 N   0  0  0  0  0  0
  -25.3762  -15.1661   20.4006 N   0  0  0  0  0  0
  -31.7625  -14.8882   20.1151 O   0  0  0  0  0  0
  -21.6567   -6.8800   21.4265 O   0  0  0  0  0  0
  -22.3420  -14.5404   20.6755 O   0  0  0  0  0  0
  -24.6288  -31.8557   23.1955 C   0  0  0  0  0  0
  -25.9123  -32.4775   23.8319 C   0  0  1  0  0  0
  -27.2519  -27.3065   20.1406 C   0  0  0  0  0  0
  -25.5934  -33.8575   24.2269 N   0  0  0  0  0  0
  -23.4256  -30.4740   21.5388 C   0  0  2  0  0  0
  -24.8827  -28.9106   20.1251 C   0  0  0  0  0  0
  -22.7496  -29.4607   22.4919 C   0  0  0  0  0  0
  -18.0297  -28.1398   22.8463 C   0  0  0  0  0  0
  -24.1492  -36.7265   23.2643 C   0  0  0  0  0  0
  -25.9631  -30.7817   21.3707 C   0  0  0  0  0  0
  -26.0440  -29.3985   20.7348 C   0  0  0  0  0  0
  -27.2322  -28.6066   20.7371 C   0  0  0  0  0  0
  -26.0654  -26.8594   19.5290 C   0  0  0  0  0  0
  -24.8902  -27.6425   19.5189 C   0  0  0  0  0  0
  -23.6511  -29.7929   20.1586 C   0  0  0  0  0  0
  -25.4085  -36.3054   24.0355 C   0  0  1  0  0  0
  -20.5873  -28.3685   23.1319 C   0  0  2  0  0  0
  -20.6789  -26.9403   22.5423 C   0  0  0  0  0  0
  -19.5761  -26.6373   21.5223 C   0  0  0  0  0  0
  -18.1933  -26.7923   22.1604 C   0  0  0  0  0  0
  -19.1543  -28.8832   23.2892 C   0  0  0  0  0  0
  -18.9473  -30.1408   23.8909 C   0  0  0  0  0  0
  -17.6494  -30.6585   24.0539 C   0  0  0  0  0  0
  -25.9047  -34.9442   23.5117 C   0  0  0  0  0  0
  -16.5381  -29.9087   23.6326 C   0  0  0  0  0  0
  -16.7283  -28.6519   23.0320 C   0  0  0  0  0  0
  -26.4515  -31.6553   25.0686 C   0  0  0  0  0  0
  -25.3765  -31.3697   26.1422 C   0  0  0  0  0  0
  -27.0344  -30.2988   24.6084 C   0  0  0  0  0  0
  -27.6090  -32.4246   25.7466 C   0  0  0  0  0  0
  -27.5553  -37.1770   24.8462 C   0  0  0  0  0  0
  -21.4209  -29.3039   22.3709 N   0  0  0  0  0  0
  -26.4247  -37.3747   23.9449 N   0  0  0  0  0  0
  -24.6919  -31.0545   22.0934 N   0  0  0  0  0  0
  -23.4194  -28.8131   23.3003 O   0  0  0  0  0  0
  -28.3927  -26.5043   20.0048 O   0  0  0  0  0  0
  -26.5591  -34.8907   22.4668 O   0  0  0  0  0  0
  -23.5461  -32.1388   23.7264 O   0  0  0  0  0  0
  -28.2791  -19.2047   19.9603 C   0  0  0  0  0  0
  -29.1779  -20.1839   20.4635 C   0  0  0  0  0  0
  -28.5150  -17.8089   20.0604 C   0  0  0  0  0  0
  -30.4367  -19.6423   20.8934 C   0  0  0  0  0  0
  -29.7296  -17.2456   20.5388 C   0  0  0  0  0  0
  -30.7181  -18.2180   20.8999 C   0  0  0  0  0  0
  -27.2645  -23.3078   21.0375 C   0  0  0  0  0  0
  -28.3859  -23.9066   20.6471 C   0  0  0  0  0  0
  -27.4587  -21.8774   21.0755 C   0  0  0  0  0  0
  -29.3359  -22.7978   20.3659 C   0  0  0  0  0  0
  -28.7006  -25.4221   20.9595 C   0  0  0  0  0  0
  -28.7042  -21.5983   20.6190 N   0  0  0  0  0  0
  -27.4390  -16.9839   19.7677 N   0  0  0  0  0  0
  -31.4164  -20.5133   21.3704 N   0  0  0  0  0  0
  -29.7471  -15.7776   20.7690 N   0  0  0  0  0  0
  -26.6524  -21.0620   21.5413 O   0  0  0  0  0  0
  -30.5033  -22.9132   19.9790 O   0  0  0  0  0  0
  -31.9365  -17.8071   21.3349 F   0  0  0  0  0  0
  -31.4845  -12.5887   19.1485 H   0  0  0  0  0  0
  -30.4134  -11.4607   19.9293 H   0  0  0  0  0  0
  -29.7755  -11.7407   17.5050 H   0  0  0  0  0  0
  -29.6179  -13.4652   17.7272 H   0  0  0  0  0  0
  -27.8719  -11.2804   18.8959 H   0  0  0  0  0  0
  -27.3669  -12.5381   17.8068 H   0  0  0  0  0  0
  -27.6405  -14.2462   19.5031 H   0  0  0  0  0  0
  -28.7387  -12.0672   21.3386 H   0  0  0  0  0  0
  -28.4401  -13.6969   21.8569 H   0  0  0  0  0  0
  -25.2702   -9.5504   22.4811 H   0  0  0  0  0  0
  -23.9901   -7.4475   22.7456 H   0  0  0  0  0  0
  -21.0807   -8.8673   19.8923 H   0  0  0  0  0  0
  -22.3683  -10.9565   19.6164 H   0  0  0  0  0  0
  -21.1939   -7.6098   23.9743 H   0  0  0  0  0  0
  -21.1481   -6.0486   25.9118 H   0  0  0  0  0  0
  -22.0615   -2.7572   23.2921 H   0  0  0  0  0  0
  -22.3978  -11.9703   22.4809 H   0  0  0  0  0  0
  -21.1055  -13.1148   22.2797 H   0  0  0  0  0  0
  -24.5677  -15.7782   20.4034 H   0  0  0  0  0  0
  -26.2062  -15.6026   19.9951 H   0  0  0  0  0  0
  -26.7183  -32.5458   23.1075 H   0  0  0  0  0  0
  -25.0167  -33.9710   25.0459 H   0  0  0  0  0  0
  -22.7253  -31.2964   21.3818 H   0  0  0  0  0  0
  -23.3768  -35.9585   23.3270 H   0  0  0  0  0  0
  -24.3620  -36.8898   22.2075 H   0  0  0  0  0  0
  -23.7259  -37.6473   23.6659 H   0  0  0  0  0  0
  -26.0809  -31.5288   20.5843 H   0  0  0  0  0  0
  -26.8489  -30.8531   21.9898 H   0  0  0  0  0  0
  -28.1300  -28.9951   21.1981 H   0  0  0  0  0  0
  -26.0530  -25.8912   19.0510 H   0  0  0  0  0  0
  -24.0000  -27.2645   19.0372 H   0  0  0  0  0  0
  -23.7861  -30.5579   19.3939 H   0  0  0  0  0  0
  -22.7763  -29.2222   19.8485 H   0  0  0  0  0  0
  -25.1281  -36.1876   25.0851 H   0  0  0  0  0  0
  -20.9935  -28.3169   24.1452 H   0  0  0  0  0  0
  -20.5659  -26.2269   23.3592 H   0  0  0  0  0  0
  -21.6649  -26.7425   22.1218 H   0  0  0  0  0  0
  -19.6950  -25.6300   21.1228 H   0  0  0  0  0  0
  -19.6702  -27.3180   20.6763 H   0  0  0  0  0  0
  -17.4209  -26.6670   21.3991 H   0  0  0  0  0  0
  -18.0306  -26.0070   22.8996 H   0  0  0  0  0  0
  -19.7970  -30.7201   24.2263 H   0  0  0  0  0  0
  -17.5087  -31.6261   24.5140 H   0  0  0  0  0  0
  -15.5388  -30.3012   23.7663 H   0  0  0  0  0  0
  -15.8679  -28.0865   22.7024 H   0  0  0  0  0  0
  -24.5995  -30.6970   25.7758 H   0  0  0  0  0  0
  -24.8914  -32.2889   26.4739 H   0  0  0  0  0  0
  -25.8128  -30.8987   27.0250 H   0  0  0  0  0  0
  -26.2895  -29.6735   24.1171 H   0  0  0  0  0  0
  -27.4178  -29.7231   25.4514 H   0  0  0  0  0  0
  -27.8699  -30.4311   23.9210 H   0  0  0  0  0  0
  -27.2747  -33.3587   26.1976 H   0  0  0  0  0  0
  -28.3960  -32.6693   25.0318 H   0  0  0  0  0  0
  -28.0678  -31.8404   26.5452 H   0  0  0  0  0  0
  -28.2532  -38.0101   24.7524 H   0  0  0  0  0  0
  -28.1111  -36.2655   24.6246 H   0  0  0  0  0  0
  -27.2323  -37.1336   25.8876 H   0  0  0  0  0  0
  -20.9372  -29.8843   21.6996 H   0  0  0  0  0  0
  -26.0143  -38.2820   24.1473 H   0  0  0  0  0  0
  -27.3166  -19.5300   19.5741 H   0  0  0  0  0  0
  -26.4017  -23.8146   21.4412 H   0  0  0  0  0  0
  -29.7684  -25.4751   21.1688 H   0  0  0  0  0  0
  -28.2248  -25.6686   21.9120 H   0  0  0  0  0  0
  -26.8777  -17.3671   19.0119 H   0  0  0  0  0  0
  -26.8138  -17.0389   20.5698 H   0  0  0  0  0  0
  -31.3203  -21.4720   21.0501 H   0  0  0  0  0  0
  -32.3711  -20.1772   21.2782 H   0  0  0  0  0  0
  -28.8148  -15.4334   20.9400 H   0  0  0  0  0  0
  1 25  1  0  0  0
  1 30  2  0  0  0
  1 85  1  0  0  0
  2  3  1  0  0  0
  2 25  1  0  0  0
  2 89  1  0  0  0
  2 90  1  0  0  0
  3  4  1  0  0  0
  3 91  1  0  0  0
  3 92  1  0  0  0
  4  5  1  0  0  0
  4 93  1  0  0  0
  4 94  1  0  0  0
  5  6  1  0  0  0
  5 26  1  0  0  0
  5 95  1  0  0  0
  6 25  1  0  0  0
  6 96  1  0  0  0
  6 97  1  0  0  0
  7  8  2  0  0  0
  7 26  1  0  0  0
  7 29  1  0  0  0
  8  9  1  0  0  0
  8 22  1  0  0  0
  9 10  1  0  0  0
  9 27  2  0  0  0
 10 11  2  0  0  0
 10 15  1  0  0  0
 11 12  1  0  0  0
 11 98  1  0  0  0
 12 13  2  0  0  0
 12 99  1  0  0  0
 13 14  1  0  0  0
 13 31  1  0  0  0
 14 15  2  0  0  0
 14100  1  0  0  0
 15101  1  0  0  0
 16 17  2  0  0  0
 16 21  1  0  0  0
 16 31  1  0  0  0
 17 18  1  0  0  0
 17102  1  0  0  0
 18 19  2  0  0  0
 18103  1  0  0  0
 19 20  1  0  0  0
 19 24  1  0  0  0
 20 21  2  0  0  0
 20104  1  0  0  0
 21 23  1  0  0  0
 22 28  1  0  0  0
 22 32  2  0  0  0
 26 27  1  0  0  0
 28105  1  0  0  0
 28106  1  0  0  0
 29107  1  0  0  0
 29108  1  0  0  0
 33 34  1  0  0  0
 33 66  1  0  0  0
 33 70  2  0  0  0
 34 36  1  0  0  0
 34 59  1  0  0  0
 34109  1  0  0  0
 35 44  2  0  0  0
 35 45  1  0  0  0
 35 68  1  0  0  0
 36 56  1  0  0  0
 36110  1  0  0  0
 37 39  1  0  0  0
 37 47  1  0  0  0
 37 66  1  0  0  0
 37111  1  0  0  0
 38 43  2  0  0  0
 38 46  1  0  0  0
 38 47  1  0  0  0
 39 64  1  0  0  0
 39 67  2  0  0  0
 40 52  1  0  0  0
 40 53  2  0  0  0
 40 58  1  0  0  0
 41112  1  0  0  0
 41113  1  0  0  0
 41114  1  0  0  0
 41 48  1  0  0  0
 42 43  1  0  0  0
 42 66  1  0  0  0
 42115  1  0  0  0
 42116  1  0  0  0
 43 44  1  0  0  0
 44117  1  0  0  0
 45 46  2  0  0  0
 45118  1  0  0  0
 46119  1  0  0  0
 47120  1  0  0  0
 47121  1  0  0  0
 48 56  1  0  0  0
 48 65  1  0  0  0
 48122  1  0  0  0
 49 50  1  0  0  0
 49 53  1  0  0  0
 49 64  1  0  0  0
 49123  1  0  0  0
 50 51  1  0  0  0
 50124  1  0  0  0
 50125  1  0  0  0
 51 52  1  0  0  0
 51126  1  0  0  0
 51127  1  0  0  0
 52128  1  0  0  0
 52129  1  0  0  0
 53 54  1  0  0  0
 54 55  2  0  0  0
 54130  1  0  0  0
 55 57  1  0  0  0
 55131  1  0  0  0
 56 69  2  0  0  0
 57 58  2  0  0  0
 57132  1  0  0  0
 58133  1  0  0  0
 59 60  1  0  0  0
 59 61  1  0  0  0
 59 62  1  0  0  0
 60134  1  0  0  0
 60135  1  0  0  0
 60136  1  0  0  0
 61137  1  0  0  0
 61138  1  0  0  0
 61139  1  0  0  0
 62140  1  0  0  0
 62141  1  0  0  0
 62142  1  0  0  0
 63 65  1  0  0  0
 63143  1  0  0  0
 63144  1  0  0  0
 63145  1  0  0  0
 64146  1  0  0  0
 65147  1  0  0  0
 68 81  1  0  0  0
 71 72  2  0  0  0
 71 73  1  0  0  0
 71148  1  0  0  0
 72 74  1  0  0  0
 72 82  1  0  0  0
 73 75  2  0  0  0
 73 83  1  0  0  0
 74 76  2  0  0  0
 74 84  1  0  0  0
 75 76  1  0  0  0
 75 85  1  0  0  0
 76 88  1  0  0  0
 77 78  2  0  0  0
 77 79  1  0  0  0
 77149  1  0  0  0
 78 80  1  0  0  0
 78 81  1  0  0  0
 79 82  1  0  0  0
 79 86  2  0  0  0
 80 82  1  0  0  0
 80 87  2  0  0  0
 81150  1  0  0  0
 81151  1  0  0  0
 83152  1  0  0  0
 83153  1  0  0  0
 84154  1  0  0  0
 84155  1  0  0  0
 85156  1  0  0  0
M  ISO  4   1 100  68 101  81 101  85 100
M  END
> <chiral flag>
0

> <version>
0

> <s_m_source_file>
/data/baiqing/PycharmProjects/Reinvent-master-3.2/result/LINK_invent/BTK/process_docking_weight1_custom_product_contain_oxygen_bond_distance_aromatic_linkinvent_7_9_3/rearranged_h_0089.sdf

> <i_m_source_file_index>
37

> <r_mmod_Potential_Energy-OPLS-2005>
64.0398406982422

> <r_mmod_Stretch_Energy-OPLS-2005>
100.388290405273

> <r_mmod_Bend_Energy-OPLS-2005>
224.188888549805

> <r_mmod_Torsional_Energy-OPLS-2005>
328.121459960938

> <r_mmod_Improper_Torsional_Energy-OPLS-2005>
22.5960483551025

> <r_mmod_Van_der_Waal_Energy-OPLS-2005>
149.561157226562

> <r_mmod_Electrostatic_Energy-OPLS-2005>
-581.460510253906

> <r_mmod_Solvation_Energy-OPLS-2005>
-244.433456420898

> <b_mmod_Minimization_Converged-OPLS-2005>
0

> <r_mmod_RMS_Derivative-OPLS-2005>
6.7516655921936

$$$$
37
                    3D
 Structure written by MMmdl.
156165  0  0  1  0            999 V2000
  -30.6231  -14.7807   20.4318 C   0  0  0  0  0  0
  -30.4278  -12.4712   19.4673 C   0  0  0  0  0  0
  -29.5026  -12.4975   18.2311 C   0  0  0  0  0  0
  -28.0283  -12.3375   18.6493 C   0  0  0  0  0  0
  -27.6367  -13.2444   19.8456 C   0  0  2  0  0  0
  -28.6929  -13.2013   20.9712 C   0  0  0  0  0  0
  -25.2500  -13.8228   20.5739 C   0  0  0  0  0  0
  -24.1825  -13.0431   20.9250 C   0  0  0  0  0  0
  -24.6457  -11.6930   20.8814 C   0  0  0  0  0  0
  -23.9140  -10.4296   21.0464 C   0  0  0  0  0  0
  -24.3674   -9.4199   21.9225 C   0  0  0  0  0  0
  -23.6326   -8.2246   22.0777 C   0  0  0  0  0  0
  -22.4313   -8.0309   21.3544 C   0  0  0  0  0  0
  -21.9971   -9.0293   20.4644 C   0  0  0  0  0  0
  -22.7332  -10.2158   20.3088 C   0  0  0  0  0  0
  -21.6839   -6.0780   22.5304 C   0  0  0  0  0  0
  -21.4004   -6.5669   23.8236 C   0  0  0  0  0  0
  -21.3650   -5.6808   24.9185 C   0  0  0  0  0  0
  -21.6047   -4.3071   24.7228 C   0  0  0  0  0  0
  -21.8820   -3.8180   23.4340 C   0  0  0  0  0  0
  -21.9187   -4.7011   22.3405 C   0  0  0  0  0  0
  -22.7830  -13.5181   21.1871 C   0  0  0  0  0  0
  -22.1654   -4.2193   21.0972 F   0  0  0  0  0  0
  -21.5626   -3.4544   25.7722 F   0  0  0  0  0  0
  -29.9819  -13.5597   20.3705 N   0  0  0  0  0  0
  -26.2935  -12.9465   20.3325 N   0  0  0  0  0  0
  -25.9385  -11.6606   20.5832 N   0  0  0  0  0  0
  -22.0473  -12.8141   22.0405 N   0  0  0  0  0  0
  -25.4113  -15.1973   20.4167 N   0  0  0  0  0  0
  -31.8294  -14.8277   20.1700 O   0  0  0  0  0  0
  -21.6657   -6.8926   21.4263 O   0  0  0  0  0  0
  -22.3489  -14.5466   20.6713 O   0  0  0  0  0  0
  -24.6343  -31.8511   23.1970 C   0  0  0  0  0  0
  -25.9132  -32.4744   23.8352 C   0  0  1  0  0  0
  -27.2304  -27.2390   20.1308 C   0  0  0  0  0  0
  -25.5930  -33.8552   24.2252 N   0  0  0  0  0  0
  -23.4364  -30.4696   21.5396 C   0  0  2  0  0  0
  -24.8895  -28.9043   20.1221 C   0  0  0  0  0  0
  -22.7534  -29.4578   22.4913 C   0  0  0  0  0  0
  -18.0307  -28.1404   22.8505 C   0  0  0  0  0  0
  -24.1489  -36.7268   23.2647 C   0  0  0  0  0  0
  -25.9842  -30.7563   21.3823 C   0  0  0  0  0  0
  -26.0626  -29.3743   20.7260 C   0  0  0  0  0  0
  -27.2414  -28.5560   20.7139 C   0  0  0  0  0  0
  -26.0298  -26.8308   19.5187 C   0  0  0  0  0  0
  -24.8755  -27.6400   19.5127 C   0  0  0  0  0  0
  -23.6612  -29.7926   20.1619 C   0  0  0  0  0  0
  -25.4126  -36.3068   24.0312 C   0  0  1  0  0  0
  -20.5920  -28.3733   23.1268 C   0  0  2  0  0  0
  -20.6784  -26.9456   22.5413 C   0  0  0  0  0  0
  -19.5747  -26.6403   21.5231 C   0  0  0  0  0  0
  -18.1926  -26.7958   22.1634 C   0  0  0  0  0  0
  -19.1573  -28.8901   23.2866 C   0  0  0  0  0  0
  -18.9462  -30.1488   23.8899 C   0  0  0  0  0  0
  -17.6459  -30.6602   24.0573 C   0  0  0  0  0  0
  -25.9057  -34.9423   23.5071 C   0  0  0  0  0  0
  -16.5362  -29.9098   23.6335 C   0  0  0  0  0  0
  -16.7291  -28.6512   23.0388 C   0  0  0  0  0  0
  -26.4518  -31.6594   25.0760 C   0  0  0  0  0  0
  -25.3708  -31.3726   26.1451 C   0  0  0  0  0  0
  -27.0412  -30.3013   24.6286 C   0  0  0  0  0  0
  -27.6064  -32.4375   25.7537 C   0  0  0  0  0  0
  -27.5575  -37.1778   24.8457 C   0  0  0  0  0  0
  -21.4253  -29.3036   22.3637 N   0  0  0  0  0  0
  -26.4294  -37.3756   23.9400 N   0  0  0  0  0  0
  -24.7038  -31.0459   22.0947 N   0  0  0  0  0  0
  -23.4198  -28.8124   23.3051 O   0  0  0  0  0  0
  -28.3110  -26.3229   20.0855 O   0  0  0  0  0  0
  -26.5641  -34.8890   22.4640 O   0  0  0  0  0  0
  -23.5487  -32.1380   23.7200 O   0  0  0  0  0  0
  -31.9506  -18.9831   21.5194 C   0  0  0  0  0  0
  -31.1449  -20.0953   21.2043 C   0  0  0  0  0  0
  -31.5234  -17.6685   21.2660 C   0  0  0  0  0  0
  -27.2619  -22.6503   20.4024 C   0  0  0  0  0  0
  -29.4719  -18.5791   20.3259 C   0  0  0  0  0  0
  -28.3785  -23.5337   20.4902 C   0  0  0  0  0  0
  -29.8759  -19.9748   20.5871 C   0  0  0  0  0  0
  -30.2731  -17.3938   20.6649 C   0  0  0  0  0  0
  -29.4674  -22.6498   20.3290 C   0  0  0  0  0  0
  -27.6836  -21.3427   20.3830 C   0  0  0  0  0  0
  -30.8958  -23.0685   20.1373 C   0  0  0  0  0  0
  -28.2434  -25.0874   20.9410 C   0  0  0  0  0  0
  -29.0733  -21.2475   20.4061 N   0  0  0  0  0  0
  -29.8663  -15.9561   20.5127 N   0  0  0  0  0  0
  -26.9038  -20.2277   20.4176 O   0  0  0  0  0  0
  -31.4681  -12.5852   19.1526 H   0  0  0  0  0  0
  -30.3761  -11.5069   19.9763 H   0  0  0  0  0  0
  -29.7723  -11.7067   17.5304 H   0  0  0  0  0  0
  -29.6350  -13.4402   17.7001 H   0  0  0  0  0  0
  -27.8733  -11.2917   18.9148 H   0  0  0  0  0  0
  -27.3752  -12.5358   17.8001 H   0  0  0  0  0  0
  -27.6178  -14.2624   19.4543 H   0  0  0  0  0  0
  -28.7448  -12.2101   21.4216 H   0  0  0  0  0  0
  -28.4400  -13.8893   21.7784 H   0  0  0  0  0  0
  -25.2815   -9.5625   22.4806 H   0  0  0  0  0  0
  -24.0010   -7.4616   22.7513 H   0  0  0  0  0  0
  -21.0901   -8.8846   19.8935 H   0  0  0  0  0  0
  -22.3833  -10.9715   19.6202 H   0  0  0  0  0  0
  -21.2007   -7.6180   23.9720 H   0  0  0  0  0  0
  -21.1459   -6.0557   25.9076 H   0  0  0  0  0  0
  -22.0610   -2.7637   23.2831 H   0  0  0  0  0  0
  -22.4104  -11.9777   22.4760 H   0  0  0  0  0  0
  -21.1101  -13.1166   22.2658 H   0  0  0  0  0  0
  -24.6404  -15.8445   20.5429 H   0  0  0  0  0  0
  -26.2467  -15.6468   20.0639 H   0  0  0  0  0  0
  -26.7199  -32.5391   23.1116 H   0  0  0  0  0  0
  -25.0074  -33.9714   25.0395 H   0  0  0  0  0  0
  -22.7312  -31.2879   21.3831 H   0  0  0  0  0  0
  -23.3770  -35.9575   23.3295 H   0  0  0  0  0  0
  -24.3566  -36.8924   22.2062 H   0  0  0  0  0  0
  -23.7215  -37.6428   23.6717 H   0  0  0  0  0  0
  -26.1287  -31.5172   20.6145 H   0  0  0  0  0  0
  -26.8563  -30.8082   22.0226 H   0  0  0  0  0  0
  -28.1484  -28.9164   21.1795 H   0  0  0  0  0  0
  -25.9819  -25.8551   19.0525 H   0  0  0  0  0  0
  -23.9722  -27.2724   19.0477 H   0  0  0  0  0  0
  -23.7845  -30.5622   19.3989 H   0  0  0  0  0  0
  -22.7834  -29.2188   19.8605 H   0  0  0  0  0  0
  -25.1310  -36.1906   25.0804 H   0  0  0  0  0  0
  -20.9979  -28.3320   24.1400 H   0  0  0  0  0  0
  -20.5734  -26.2346   23.3626 H   0  0  0  0  0  0
  -21.6643  -26.7476   22.1181 H   0  0  0  0  0  0
  -19.6904  -25.6305   21.1283 H   0  0  0  0  0  0
  -19.6691  -27.3202   20.6752 H   0  0  0  0  0  0
  -17.4205  -26.6766   21.4027 H   0  0  0  0  0  0
  -18.0285  -26.0109   22.9034 H   0  0  0  0  0  0
  -19.7927  -30.7317   24.2284 H   0  0  0  0  0  0
  -17.5002  -31.6287   24.5174 H   0  0  0  0  0  0
  -15.5355  -30.2997   23.7655 H   0  0  0  0  0  0
  -15.8695  -28.0807   22.7123 H   0  0  0  0  0  0
  -24.5905  -30.7100   25.7709 H   0  0  0  0  0  0
  -24.8918  -32.2905   26.4857 H   0  0  0  0  0  0
  -25.8011  -30.8889   27.0228 H   0  0  0  0  0  0
  -26.3038  -29.6731   24.1301 H   0  0  0  0  0  0
  -27.4059  -29.7326   25.4844 H   0  0  0  0  0  0
  -27.8927  -30.4315   23.9604 H   0  0  0  0  0  0
  -27.2670  -33.3706   26.2047 H   0  0  0  0  0  0
  -28.3902  -32.6867   25.0370 H   0  0  0  0  0  0
  -28.0704  -31.8542   26.5502 H   0  0  0  0  0  0
  -28.2548  -38.0112   24.7526 H   0  0  0  0  0  0
  -28.1113  -36.2621   24.6297 H   0  0  0  0  0  0
  -27.2280  -37.1430   25.8854 H   0  0  0  0  0  0
  -20.9471  -29.8743   21.6809 H   0  0  0  0  0  0
  -26.0171  -38.2814   24.1427 H   0  0  0  0  0  0
  -32.9079  -19.1404   21.9995 H   0  0  0  0  0  0
  -31.5271  -21.0559   21.5025 H   0  0  0  0  0  0
  -32.1741  -16.8640   21.5766 H   0  0  0  0  0  0
  -26.2259  -22.9510   20.4611 H   0  0  0  0  0  0
  -28.5060  -18.4090   19.8712 H   0  0  0  0  0  0
  -30.9485  -23.9827   19.5468 H   0  0  0  0  0  0
  -31.4629  -22.3188   19.5853 H   0  0  0  0  0  0
  -31.3959  -23.2569   21.0887 H   0  0  0  0  0  0
  -29.0135  -25.2308   21.6998 H   0  0  0  0  0  0
  -27.3059  -25.1335   21.4986 H   0  0  0  0  0  0
  -28.8723  -15.7947   20.4792 H   0  0  0  0  0  0
  -25.9976  -20.5101   20.5014 H   0  0  0  0  0  0
  1 25  1  0  0  0
  1 30  2  0  0  0
  1 84  1  0  0  0
  2  3  1  0  0  0
  2 25  1  0  0  0
  2 86  1  0  0  0
  2 87  1  0  0  0
  3  4  1  0  0  0
  3 88  1  0  0  0
  3 89  1  0  0  0
  4  5  1  0  0  0
  4 90  1  0  0  0
  4 91  1  0  0  0
  5  6  1  0  0  0
  5 26  1  0  0  0
  5 92  1  0  0  0
  6 25  1  0  0  0
  6 93  1  0  0  0
  6 94  1  0  0  0
  7  8  2  0  0  0
  7 26  1  0  0  0
  7 29  1  0  0  0
  8  9  1  0  0  0
  8 22  1  0  0  0
  9 10  1  0  0  0
  9 27  2  0  0  0
 10 11  2  0  0  0
 10 15  1  0  0  0
 11 12  1  0  0  0
 11 95  1  0  0  0
 12 13  2  0  0  0
 12 96  1  0  0  0
 13 14  1  0  0  0
 13 31  1  0  0  0
 14 15  2  0  0  0
 14 97  1  0  0  0
 15 98  1  0  0  0
 16 17  2  0  0  0
 16 21  1  0  0  0
 16 31  1  0  0  0
 17 18  1  0  0  0
 17 99  1  0  0  0
 18 19  2  0  0  0
 18100  1  0  0  0
 19 20  1  0  0  0
 19 24  1  0  0  0
 20 21  2  0  0  0
 20101  1  0  0  0
 21 23  1  0  0  0
 22 28  1  0  0  0
 22 32  2  0  0  0
 26 27  1  0  0  0
 28102  1  0  0  0
 28103  1  0  0  0
 29104  1  0  0  0
 29105  1  0  0  0
 33 34  1  0  0  0
 33 66  1  0  0  0
 33 70  2  0  0  0
 34 36  1  0  0  0
 34 59  1  0  0  0
 34106  1  0  0  0
 35 44  2  0  0  0
 35 45  1  0  0  0
 35 68  1  0  0  0
 36 56  1  0  0  0
 36107  1  0  0  0
 37 39  1  0  0  0
 37 47  1  0  0  0
 37 66  1  0  0  0
 37108  1  0  0  0
 38 43  2  0  0  0
 38 46  1  0  0  0
 38 47  1  0  0  0
 39 64  1  0  0  0
 39 67  2  0  0  0
 40 52  1  0  0  0
 40 53  2  0  0  0
 40 58  1  0  0  0
 41109  1  0  0  0
 41110  1  0  0  0
 41111  1  0  0  0
 41 48  1  0  0  0
 42 43  1  0  0  0
 42 66  1  0  0  0
 42112  1  0  0  0
 42113  1  0  0  0
 43 44  1  0  0  0
 44114  1  0  0  0
 45 46  2  0  0  0
 45115  1  0  0  0
 46116  1  0  0  0
 47117  1  0  0  0
 47118  1  0  0  0
 48 56  1  0  0  0
 48 65  1  0  0  0
 48119  1  0  0  0
 49 50  1  0  0  0
 49 53  1  0  0  0
 49 64  1  0  0  0
 49120  1  0  0  0
 50 51  1  0  0  0
 50121  1  0  0  0
 50122  1  0  0  0
 51 52  1  0  0  0
 51123  1  0  0  0
 51124  1  0  0  0
 52125  1  0  0  0
 52126  1  0  0  0
 53 54  1  0  0  0
 54 55  2  0  0  0
 54127  1  0  0  0
 55 57  1  0  0  0
 55128  1  0  0  0
 56 69  2  0  0  0
 57 58  2  0  0  0
 57129  1  0  0  0
 58130  1  0  0  0
 59 60  1  0  0  0
 59 61  1  0  0  0
 59 62  1  0  0  0
 60131  1  0  0  0
 60132  1  0  0  0
 60133  1  0  0  0
 61134  1  0  0  0
 61135  1  0  0  0
 61136  1  0  0  0
 62137  1  0  0  0
 62138  1  0  0  0
 62139  1  0  0  0
 63 65  1  0  0  0
 63140  1  0  0  0
 63141  1  0  0  0
 63142  1  0  0  0
 64143  1  0  0  0
 65144  1  0  0  0
 68 82  1  0  0  0
 71 72  2  0  0  0
 71 73  1  0  0  0
 71145  1  0  0  0
 72 77  1  0  0  0
 72146  1  0  0  0
 73 78  2  0  0  0
 73147  1  0  0  0
 74 76  1  0  0  0
 74 80  2  0  0  0
 74148  1  0  0  0
 75 77  2  0  0  0
 75 78  1  0  0  0
 75149  1  0  0  0
 76 79  2  0  0  0
 76 82  1  0  0  0
 77 83  1  0  0  0
 78 84  1  0  0  0
 79 81  1  0  0  0
 79 83  1  0  0  0
 80 83  1  0  0  0
 80 85  1  0  0  0
 81150  1  0  0  0
 81151  1  0  0  0
 81152  1  0  0  0
 82153  1  0  0  0
 82154  1  0  0  0
 84155  1  0  0  0
 85156  1  0  0  0
M  ISO  4   1 100  68 101  82 101  84 100
M  END
> <chiral flag>
0

> <version>
0

> <s_m_source_file>
/data/baiqing/PycharmProjects/Reinvent-master-3.2/result/LINK_invent/BTK/process_docking_weight1_custom_product_contain_oxygen_bond_distance_aromatic_linkinvent_7_9_3/rearranged_h_0089.sdf

> <i_m_source_file_index>
38

> <r_mmod_Potential_Energy-OPLS-2005>
297.580627441406

> <r_mmod_Stretch_Energy-OPLS-2005>
156.443374633789

> <r_mmod_Bend_Energy-OPLS-2005>
195.139801025391

> <r_mmod_Torsional_Energy-OPLS-2005>
277.431365966797

> <r_mmod_Improper_Torsional_Energy-OPLS-2005>
9.12706279754639

> <r_mmod_Van_der_Waal_Energy-OPLS-2005>
137.420333862305

> <r_mmod_Electrostatic_Energy-OPLS-2005>
-362.141021728516

> <r_mmod_Solvation_Energy-OPLS-2005>
-216.519805908203

> <b_mmod_Minimization_Converged-OPLS-2005>
0

> <r_mmod_RMS_Derivative-OPLS-2005>
4.597815990448

$$$$
38
                    3D
 Structure written by MMmdl.
155163  0  0  1  0            999 V2000
  -30.6765  -14.6675   20.4306 C   0  0  0  0  0  0
  -30.4090  -12.3958   19.4814 C   0  0  0  0  0  0
  -29.5037  -12.4908   18.2365 C   0  0  0  0  0  0
  -28.0284  -12.3345   18.6465 C   0  0  0  0  0  0
  -27.6408  -13.2365   19.8500 C   0  0  2  0  0  0
  -28.6830  -13.1738   20.9891 C   0  0  0  0  0  0
  -25.2501  -13.8216   20.5685 C   0  0  0  0  0  0
  -24.1802  -13.0452   20.9206 C   0  0  0  0  0  0
  -24.6404  -11.6930   20.8756 C   0  0  0  0  0  0
  -23.9087  -10.4299   21.0409 C   0  0  0  0  0  0
  -24.3634   -9.4210   21.9185 C   0  0  0  0  0  0
  -23.6304   -8.2246   22.0753 C   0  0  0  0  0  0
  -22.4287   -8.0288   21.3543 C   0  0  0  0  0  0
  -21.9924   -9.0267   20.4646 C   0  0  0  0  0  0
  -22.7259  -10.2144   20.3056 C   0  0  0  0  0  0
  -21.6857   -6.0743   22.5281 C   0  0  0  0  0  0
  -21.4019   -6.5644   23.8215 C   0  0  0  0  0  0
  -21.3657   -5.6793   24.9177 C   0  0  0  0  0  0
  -21.6042   -4.3057   24.7220 C   0  0  0  0  0  0
  -21.8820   -3.8152   23.4342 C   0  0  0  0  0  0
  -21.9193   -4.6974   22.3401 C   0  0  0  0  0  0
  -22.7821  -13.5228   21.1861 C   0  0  0  0  0  0
  -22.1658   -4.2157   21.0980 F   0  0  0  0  0  0
  -21.5622   -3.4537   25.7732 F   0  0  0  0  0  0
  -29.9945  -13.4754   20.4070 N   0  0  0  0  0  0
  -26.2935  -12.9437   20.3283 N   0  0  0  0  0  0
  -25.9336  -11.6575   20.5762 N   0  0  0  0  0  0
  -22.0465  -12.8222   22.0417 N   0  0  0  0  0  0
  -25.4191  -15.1937   20.4085 N   0  0  0  0  0  0
  -31.8782  -14.6535   20.1511 O   0  0  0  0  0  0
  -21.6642   -6.8889   21.4244 O   0  0  0  0  0  0
  -22.3504  -14.5533   20.6709 O   0  0  0  0  0  0
  -24.6244  -31.8596   23.2017 C   0  0  0  0  0  0
  -25.9094  -32.4778   23.8350 C   0  0  1  0  0  0
  -27.2151  -27.3188   20.1342 C   0  0  0  0  0  0
  -25.5910  -33.8579   24.2280 N   0  0  0  0  0  0
  -23.4189  -30.4821   21.5434 C   0  0  2  0  0  0
  -24.8668  -28.9351   20.1088 C   0  0  0  0  0  0
  -22.7468  -29.4620   22.4929 C   0  0  0  0  0  0
  -18.0286  -28.1381   22.8488 C   0  0  0  0  0  0
  -24.1486  -36.7298   23.2642 C   0  0  0  0  0  0
  -25.9587  -30.7909   21.3732 C   0  0  0  0  0  0
  -26.0332  -29.4178   20.7175 C   0  0  0  0  0  0
  -27.2148  -28.6207   20.7194 C   0  0  0  0  0  0
  -26.0390  -26.8893   19.4885 C   0  0  0  0  0  0
  -24.8711  -27.6769   19.4834 C   0  0  0  0  0  0
  -23.6342  -29.8154   20.1584 C   0  0  0  0  0  0
  -25.4113  -36.3091   24.0333 C   0  0  1  0  0  0
  -20.5883  -28.3684   23.1284 C   0  0  2  0  0  0
  -20.6773  -26.9408   22.5413 C   0  0  0  0  0  0
  -19.5748  -26.6382   21.5216 C   0  0  0  0  0  0
  -18.1929  -26.7925   22.1627 C   0  0  0  0  0  0
  -19.1536  -28.8850   23.2882 C   0  0  0  0  0  0
  -18.9461  -30.1456   23.8895 C   0  0  0  0  0  0
  -17.6461  -30.6586   24.0568 C   0  0  0  0  0  0
  -25.9045  -34.9454   23.5113 C   0  0  0  0  0  0
  -16.5353  -29.9086   23.6332 C   0  0  0  0  0  0
  -16.7274  -28.6503   23.0351 C   0  0  0  0  0  0
  -26.4480  -31.6582   25.0715 C   0  0  0  0  0  0
  -25.3720  -31.3726   26.1450 C   0  0  0  0  0  0
  -27.0320  -30.3002   24.6174 C   0  0  0  0  0  0
  -27.6046  -32.4311   25.7481 C   0  0  0  0  0  0
  -27.5584  -37.1808   24.8467 C   0  0  0  0  0  0
  -21.4181  -29.3037   22.3674 N   0  0  0  0  0  0
  -26.4298  -37.3781   23.9408 N   0  0  0  0  0  0
  -24.6861  -31.0608   22.0966 N   0  0  0  0  0  0
  -23.4195  -28.8165   23.3012 O   0  0  0  0  0  0
  -28.3117  -26.4508   20.1706 O   0  0  0  0  0  0
  -26.5626  -34.8920   22.4685 O   0  0  0  0  0  0
  -23.5407  -32.1395   23.7342 O   0  0  0  0  0  0
  -29.5115  -19.3461   19.2449 C   0  0  0  0  0  0
  -29.1395  -20.7154   19.4089 C   0  0  0  0  0  0
  -29.6710  -18.4388   20.3357 C   0  0  0  0  0  0
  -28.9180  -21.2711   20.6942 C   0  0  0  0  0  0
  -29.0332  -20.3573   21.7856 C   0  0  0  0  0  0
  -29.3904  -18.9782   21.6170 C   0  0  0  0  0  0
  -30.4051  -17.0979   20.1098 C   0  0  0  0  0  0
  -28.5117  -23.8256   20.2301 C   0  0  0  0  0  0
  -27.0020  -25.0952   21.9089 C   0  0  0  0  0  0
  -28.2392  -25.2008   20.9856 C   0  0  2  0  0  0
  -28.8515  -20.8347   23.0855 N   0  0  0  0  0  0
  -28.6030  -22.6771   20.9824 N   0  0  0  0  0  0
  -29.9745  -15.8575   20.5531 N   0  0  0  0  0  0
  -31.4279  -17.2192   19.4233 O   0  0  0  0  0  0
  -28.6439  -23.8237   19.0039 O   0  0  0  0  0  0
  -29.5497  -18.2073   22.7230 F   0  0  0  0  0  0
  -31.4579  -12.4610   19.1874 H   0  0  0  0  0  0
  -30.3000  -11.4221   19.9613 H   0  0  0  0  0  0
  -29.7749  -11.7216   17.5120 H   0  0  0  0  0  0
  -29.6525  -13.4503   17.7381 H   0  0  0  0  0  0
  -27.8748  -11.2868   18.9067 H   0  0  0  0  0  0
  -27.3758  -12.5341   17.7959 H   0  0  0  0  0  0
  -27.6373  -14.2583   19.4705 H   0  0  0  0  0  0
  -28.6921  -12.1876   21.4544 H   0  0  0  0  0  0
  -28.4353  -13.8825   21.7808 H   0  0  0  0  0  0
  -25.2780   -9.5681   22.4759 H   0  0  0  0  0  0
  -24.0009   -7.4638   22.7477 H   0  0  0  0  0  0
  -21.0848   -8.8799   19.8954 H   0  0  0  0  0  0
  -22.3725  -10.9688   19.6164 H   0  0  0  0  0  0
  -21.2020   -7.6153   23.9725 H   0  0  0  0  0  0
  -21.1471   -6.0520   25.9080 H   0  0  0  0  0  0
  -22.0602   -2.7613   23.2840 H   0  0  0  0  0  0
  -22.4081  -11.9893   22.4823 H   0  0  0  0  0  0
  -21.1084  -13.1253   22.2615 H   0  0  0  0  0  0
  -24.6501  -15.8472   20.5125 H   0  0  0  0  0  0
  -26.2629  -15.6300   20.0610 H   0  0  0  0  0  0
  -26.7162  -32.5452   23.1099 H   0  0  0  0  0  0
  -25.0041  -33.9720   25.0416 H   0  0  0  0  0  0
  -22.7128  -31.3027   21.4001 H   0  0  0  0  0  0
  -23.3748  -35.9632   23.3310 H   0  0  0  0  0  0
  -24.3578  -36.8911   22.2056 H   0  0  0  0  0  0
  -23.7238  -37.6503   23.6656 H   0  0  0  0  0  0
  -26.0913  -31.5544   20.6053 H   0  0  0  0  0  0
  -26.8381  -30.8389   22.0036 H   0  0  0  0  0  0
  -28.1109  -28.9831   21.2038 H   0  0  0  0  0  0
  -26.0181  -25.9187   19.0133 H   0  0  0  0  0  0
  -23.9788  -27.3034   19.0004 H   0  0  0  0  0  0
  -23.7531  -30.5919   19.4021 H   0  0  0  0  0  0
  -22.7543  -29.2448   19.8566 H   0  0  0  0  0  0
  -25.1293  -36.1955   25.0828 H   0  0  0  0  0  0
  -20.9983  -28.3265   24.1402 H   0  0  0  0  0  0
  -20.5673  -26.2298   23.3614 H   0  0  0  0  0  0
  -21.6645  -26.7439   22.1209 H   0  0  0  0  0  0
  -19.6910  -25.6293   21.1246 H   0  0  0  0  0  0
  -19.6684  -27.3194   20.6746 H   0  0  0  0  0  0
  -17.4201  -26.6676   21.4027 H   0  0  0  0  0  0
  -18.0326  -26.0064   22.9019 H   0  0  0  0  0  0
  -19.7938  -30.7274   24.2256 H   0  0  0  0  0  0
  -17.5017  -31.6263   24.5173 H   0  0  0  0  0  0
  -15.5352  -30.2992   23.7647 H   0  0  0  0  0  0
  -15.8675  -28.0827   22.7058 H   0  0  0  0  0  0
  -24.5878  -30.7094   25.7782 H   0  0  0  0  0  0
  -24.8928  -32.2895   26.4893 H   0  0  0  0  0  0
  -25.8041  -30.8888   27.0219 H   0  0  0  0  0  0
  -26.2898  -29.6755   24.1191 H   0  0  0  0  0  0
  -27.4007  -29.7255   25.4681 H   0  0  0  0  0  0
  -27.8771  -30.4280   23.9405 H   0  0  0  0  0  0
  -27.2663  -33.3607   26.2072 H   0  0  0  0  0  0
  -28.3847  -32.6882   25.0303 H   0  0  0  0  0  0
  -28.0728  -31.8433   26.5387 H   0  0  0  0  0  0
  -28.2612  -38.0096   24.7509 H   0  0  0  0  0  0
  -28.1069  -36.2630   24.6299 H   0  0  0  0  0  0
  -27.2302  -37.1470   25.8870 H   0  0  0  0  0  0
  -20.9351  -29.8766   21.6895 H   0  0  0  0  0  0
  -26.0183  -38.2862   24.1394 H   0  0  0  0  0  0
  -29.7423  -18.9995   18.2471 H   0  0  0  0  0  0
  -29.0662  -21.3415   18.5309 H   0  0  0  0  0  0
  -26.8595  -26.0037   22.4948 H   0  0  0  0  0  0
  -27.1042  -24.2783   22.6231 H   0  0  0  0  0  0
  -26.0903  -24.9084   21.3423 H   0  0  0  0  0  0
  -29.0926  -25.3003   21.6579 H   0  0  0  0  0  0
  -29.3817  -21.6696   23.3023 H   0  0  0  0  0  0
  -29.0531  -20.1235   23.7816 H   0  0  0  0  0  0
  -28.4290  -22.8280   21.9665 H   0  0  0  0  0  0
  -29.0453  -15.8123   20.9360 H   0  0  0  0  0  0
  1 25  1  0  0  0
  1 30  2  0  0  0
  1 83  1  0  0  0
  2  3  1  0  0  0
  2 25  1  0  0  0
  2 87  1  0  0  0
  2 88  1  0  0  0
  3  4  1  0  0  0
  3 89  1  0  0  0
  3 90  1  0  0  0
  4  5  1  0  0  0
  4 91  1  0  0  0
  4 92  1  0  0  0
  5  6  1  0  0  0
  5 26  1  0  0  0
  5 93  1  0  0  0
  6 25  1  0  0  0
  6 94  1  0  0  0
  6 95  1  0  0  0
  7  8  2  0  0  0
  7 26  1  0  0  0
  7 29  1  0  0  0
  8  9  1  0  0  0
  8 22  1  0  0  0
  9 10  1  0  0  0
  9 27  2  0  0  0
 10 11  2  0  0  0
 10 15  1  0  0  0
 11 12  1  0  0  0
 11 96  1  0  0  0
 12 13  2  0  0  0
 12 97  1  0  0  0
 13 14  1  0  0  0
 13 31  1  0  0  0
 14 15  2  0  0  0
 14 98  1  0  0  0
 15 99  1  0  0  0
 16 17  2  0  0  0
 16 21  1  0  0  0
 16 31  1  0  0  0
 17 18  1  0  0  0
 17100  1  0  0  0
 18 19  2  0  0  0
 18101  1  0  0  0
 19 20  1  0  0  0
 19 24  1  0  0  0
 20 21  2  0  0  0
 20102  1  0  0  0
 21 23  1  0  0  0
 22 28  1  0  0  0
 22 32  2  0  0  0
 26 27  1  0  0  0
 28103  1  0  0  0
 28104  1  0  0  0
 29105  1  0  0  0
 29106  1  0  0  0
 33 34  1  0  0  0
 33 66  1  0  0  0
 33 70  2  0  0  0
 34 36  1  0  0  0
 34 59  1  0  0  0
 34107  1  0  0  0
 35 44  2  0  0  0
 35 45  1  0  0  0
 35 68  1  0  0  0
 36 56  1  0  0  0
 36108  1  0  0  0
 37 39  1  0  0  0
 37 47  1  0  0  0
 37 66  1  0  0  0
 37109  1  0  0  0
 38 43  2  0  0  0
 38 46  1  0  0  0
 38 47  1  0  0  0
 39 64  1  0  0  0
 39 67  2  0  0  0
 40 52  1  0  0  0
 40 53  2  0  0  0
 40 58  1  0  0  0
 41110  1  0  0  0
 41111  1  0  0  0
 41112  1  0  0  0
 41 48  1  0  0  0
 42 43  1  0  0  0
 42 66  1  0  0  0
 42113  1  0  0  0
 42114  1  0  0  0
 43 44  1  0  0  0
 44115  1  0  0  0
 45 46  2  0  0  0
 45116  1  0  0  0
 46117  1  0  0  0
 47118  1  0  0  0
 47119  1  0  0  0
 48 56  1  0  0  0
 48 65  1  0  0  0
 48120  1  0  0  0
 49 50  1  0  0  0
 49 53  1  0  0  0
 49 64  1  0  0  0
 49121  1  0  0  0
 50 51  1  0  0  0
 50122  1  0  0  0
 50123  1  0  0  0
 51 52  1  0  0  0
 51124  1  0  0  0
 51125  1  0  0  0
 52126  1  0  0  0
 52127  1  0  0  0
 53 54  1  0  0  0
 54 55  2  0  0  0
 54128  1  0  0  0
 55 57  1  0  0  0
 55129  1  0  0  0
 56 69  2  0  0  0
 57 58  2  0  0  0
 57130  1  0  0  0
 58131  1  0  0  0
 59 60  1  0  0  0
 59 61  1  0  0  0
 59 62  1  0  0  0
 60132  1  0  0  0
 60133  1  0  0  0
 60134  1  0  0  0
 61135  1  0  0  0
 61136  1  0  0  0
 61137  1  0  0  0
 62138  1  0  0  0
 62139  1  0  0  0
 62140  1  0  0  0
 63 65  1  0  0  0
 63141  1  0  0  0
 63142  1  0  0  0
 63143  1  0  0  0
 64144  1  0  0  0
 65145  1  0  0  0
 68 80  1  0  0  0
 71 72  2  0  0  0
 71 73  1  0  0  0
 71146  1  0  0  0
 72 74  1  0  0  0
 72147  1  0  0  0
 73 76  2  0  0  0
 73 77  1  0  0  0
 74 75  2  0  0  0
 74 82  1  0  0  0
 75 76  1  0  0  0
 75 81  1  0  0  0
 76 86  1  0  0  0
 77 83  1  0  0  0
 77 84  2  0  0  0
 78 80  1  0  0  0
 78 82  1  0  0  0
 78 85  2  0  0  0
 79148  1  0  0  0
 79149  1  0  0  0
 79150  1  0  0  0
 79 80  1  0  0  0
 80151  1  0  0  0
 81152  1  0  0  0
 81153  1  0  0  0
 82154  1  0  0  0
 83155  1  0  0  0
M  ISO  4   1 100  68 101  80 101  83 100
M  END
> <chiral flag>
0

> <version>
0

> <s_m_source_file>
/data/baiqing/PycharmProjects/Reinvent-master-3.2/result/LINK_invent/BTK/process_docking_weight1_custom_product_contain_oxygen_bond_distance_aromatic_linkinvent_7_9_3/rearranged_h_0089.sdf

> <i_m_source_file_index>
39

> <r_mmod_Potential_Energy-OPLS-2005>
-4.24588394165039

> <r_mmod_Stretch_Energy-OPLS-2005>
87.5288238525391

> <r_mmod_Bend_Energy-OPLS-2005>
163.417617797852

> <r_mmod_Torsional_Energy-OPLS-2005>
289.616821289062

> <r_mmod_Improper_Torsional_Energy-OPLS-2005>
13.1673517227173

> <r_mmod_Van_der_Waal_Energy-OPLS-2005>
155.483505249023

> <r_mmod_Electrostatic_Energy-OPLS-2005>
-522.482788085938

> <r_mmod_Solvation_Energy-OPLS-2005>
-252.014312744141

> <b_mmod_Minimization_Converged-OPLS-2005>
0

> <r_mmod_RMS_Derivative-OPLS-2005>
0.931236028671265

$$$$
39
                    3D
 Structure written by MMmdl.
154162  0  0  1  0            999 V2000
  -30.6108  -14.7279   20.4843 C   0  0  0  0  0  0
  -30.4283  -12.4388   19.4858 C   0  0  0  0  0  0
  -29.5203  -12.5471   18.2397 C   0  0  0  0  0  0
  -28.0387  -12.3746   18.6322 C   0  0  0  0  0  0
  -27.6462  -13.2427   19.8569 C   0  0  2  0  0  0
  -28.6832  -13.1475   20.9982 C   0  0  0  0  0  0
  -25.2496  -13.8206   20.5669 C   0  0  0  0  0  0
  -24.1801  -13.0434   20.9187 C   0  0  0  0  0  0
  -24.6403  -11.6914   20.8705 C   0  0  0  0  0  0
  -23.9086  -10.4301   21.0387 C   0  0  0  0  0  0
  -24.3636   -9.4231   21.9166 C   0  0  0  0  0  0
  -23.6329   -8.2247   22.0741 C   0  0  0  0  0  0
  -22.4295   -8.0290   21.3530 C   0  0  0  0  0  0
  -21.9934   -9.0261   20.4611 C   0  0  0  0  0  0
  -22.7266  -10.2141   20.3028 C   0  0  0  0  0  0
  -21.6836   -6.0745   22.5290 C   0  0  0  0  0  0
  -21.4015   -6.5640   23.8236 C   0  0  0  0  0  0
  -21.3674   -5.6784   24.9185 C   0  0  0  0  0  0
  -21.6047   -4.3043   24.7206 C   0  0  0  0  0  0
  -21.8821   -3.8146   23.4322 C   0  0  0  0  0  0
  -21.9188   -4.6978   22.3395 C   0  0  0  0  0  0
  -22.7812  -13.5227   21.1840 C   0  0  0  0  0  0
  -22.1659   -4.2170   21.0956 F   0  0  0  0  0  0
  -21.5637   -3.4515   25.7718 F   0  0  0  0  0  0
  -30.0014  -13.4900   20.4397 N   0  0  0  0  0  0
  -26.2952  -12.9447   20.3254 N   0  0  0  0  0  0
  -25.9345  -11.6575   20.5695 N   0  0  0  0  0  0
  -22.0435  -12.8229   22.0394 N   0  0  0  0  0  0
  -25.4134  -15.1952   20.4121 N   0  0  0  0  0  0
  -31.7700  -14.8655   20.0872 O   0  0  0  0  0  0
  -21.6633   -6.8893   21.4251 O   0  0  0  0  0  0
  -22.3504  -14.5524   20.6683 O   0  0  0  0  0  0
  -24.6368  -31.8534   23.1968 C   0  0  0  0  0  0
  -25.9192  -32.4763   23.8316 C   0  0  1  0  0  0
  -27.2325  -27.2536   20.1412 C   0  0  0  0  0  0
  -25.5991  -33.8556   24.2234 N   0  0  0  0  0  0
  -23.4346  -30.4763   21.5353 C   0  0  2  0  0  0
  -24.8862  -28.9176   20.1059 C   0  0  0  0  0  0
  -22.7537  -29.4627   22.4872 C   0  0  0  0  0  0
  -18.0310  -28.1441   22.8460 C   0  0  0  0  0  0
  -24.1508  -36.7289   23.2621 C   0  0  0  0  0  0
  -25.9807  -30.7643   21.3800 C   0  0  0  0  0  0
  -26.0537  -29.3860   20.7213 C   0  0  0  0  0  0
  -27.2264  -28.5667   20.7265 C   0  0  0  0  0  0
  -26.0405  -26.8499   19.4991 C   0  0  0  0  0  0
  -24.8857  -27.6599   19.4796 C   0  0  0  0  0  0
  -23.6596  -29.8094   20.1513 C   0  0  0  0  0  0
  -25.4139  -36.3067   24.0303 C   0  0  1  0  0  0
  -20.5924  -28.3774   23.1272 C   0  0  2  0  0  0
  -20.6853  -26.9497   22.5406 C   0  0  0  0  0  0
  -19.5833  -26.6415   21.5225 C   0  0  0  0  0  0
  -18.1992  -26.7985   22.1601 C   0  0  0  0  0  0
  -19.1559  -28.8919   23.2861 C   0  0  0  0  0  0
  -18.9462  -30.1515   23.8877 C   0  0  0  0  0  0
  -17.6454  -30.6610   24.0592 C   0  0  0  0  0  0
  -25.9062  -34.9446   23.5053 C   0  0  0  0  0  0
  -16.5353  -29.9096   23.6363 C   0  0  0  0  0  0
  -16.7289  -28.6545   23.0334 C   0  0  0  0  0  0
  -26.4502  -31.6626   25.0748 C   0  0  0  0  0  0
  -25.3667  -31.3831   26.1429 C   0  0  0  0  0  0
  -27.0324  -30.3027   24.6290 C   0  0  0  0  0  0
  -27.6065  -32.4344   25.7535 C   0  0  0  0  0  0
  -27.5595  -37.1825   24.8442 C   0  0  0  0  0  0
  -21.4239  -29.3093   22.3621 N   0  0  0  0  0  0
  -26.4303  -37.3779   23.9377 N   0  0  0  0  0  0
  -24.7028  -31.0494   22.0939 N   0  0  0  0  0  0
  -23.4225  -28.8159   23.2976 O   0  0  0  0  0  0
  -28.3430  -26.3749   20.2122 O   0  0  0  0  0  0
  -26.5585  -34.8923   22.4586 O   0  0  0  0  0  0
  -23.5518  -32.1325   23.7285 O   0  0  0  0  0  0
  -29.0148  -19.2182   19.2194 C   0  0  0  0  0  0
  -30.2576  -18.2472   21.4988 C   0  0  0  0  0  0
  -29.2570  -17.8010   19.3644 C   0  0  0  0  0  0
  -29.3670  -20.2017   20.1919 C   0  0  0  0  0  0
  -29.8692  -17.2636   20.5399 C   0  0  0  0  0  0
  -30.0350  -19.6605   21.3351 C   0  0  0  0  0  0
  -27.7293  -17.0852   17.5060 C   0  0  0  0  0  0
  -28.7721  -16.8710   18.3262 C   0  0  0  0  0  0
  -29.2851  -23.9590   20.6522 C   0  0  0  0  0  0
  -28.1775  -24.8800   20.0282 C   0  0  0  0  0  0
  -28.9797  -21.6285   19.9991 N   0  0  0  0  0  0
  -29.5602  -22.5766   20.6253 N   0  0  0  0  0  0
  -29.8363  -15.8117   20.8662 N   0  0  0  0  0  0
  -30.1195  -24.6106   21.3691 N   0  3  0  0  0  0
  -30.4352  -20.4901   22.3297 F   0  0  0  0  0  0
  -31.4797  -12.5365   19.2094 H   0  0  0  0  0  0
  -30.3272  -11.4487   19.9340 H   0  0  0  0  0  0
  -29.8075  -11.8071   17.4916 H   0  0  0  0  0  0
  -29.6644  -13.5230   17.7716 H   0  0  0  0  0  0
  -27.8739  -11.3208   18.8527 H   0  0  0  0  0  0
  -27.3951  -12.6145   17.7859 H   0  0  0  0  0  0
  -27.6496  -14.2752   19.5076 H   0  0  0  0  0  0
  -28.6954  -12.1443   21.4292 H   0  0  0  0  0  0
  -28.4119  -13.8176   21.8155 H   0  0  0  0  0  0
  -25.2762   -9.5702   22.4750 H   0  0  0  0  0  0
  -24.0024   -7.4623   22.7459 H   0  0  0  0  0  0
  -21.0855   -8.8758   19.8924 H   0  0  0  0  0  0
  -22.3713  -10.9657   19.6130 H   0  0  0  0  0  0
  -21.2008   -7.6156   23.9746 H   0  0  0  0  0  0
  -21.1503   -6.0498   25.9098 H   0  0  0  0  0  0
  -22.0587   -2.7608   23.2781 H   0  0  0  0  0  0
  -22.4023  -11.9915   22.4837 H   0  0  0  0  0  0
  -21.1042  -13.1261   22.2534 H   0  0  0  0  0  0
  -24.6272  -15.8314   20.4874 H   0  0  0  0  0  0
  -26.2537  -15.6429   20.0683 H   0  0  0  0  0  0
  -26.7275  -32.5404   23.1067 H   0  0  0  0  0  0
  -25.0328  -33.9675   25.0506 H   0  0  0  0  0  0
  -22.7327  -31.2998   21.3866 H   0  0  0  0  0  0
  -23.3785  -35.9609   23.3257 H   0  0  0  0  0  0
  -24.3607  -36.8932   22.2043 H   0  0  0  0  0  0
  -23.7258  -37.6477   23.6653 H   0  0  0  0  0  0
  -26.1282  -31.5293   20.6175 H   0  0  0  0  0  0
  -26.8521  -30.8068   22.0219 H   0  0  0  0  0  0
  -28.1179  -28.9189   21.2247 H   0  0  0  0  0  0
  -25.9781  -25.8843   19.0189 H   0  0  0  0  0  0
  -23.9948  -27.3046   18.9818 H   0  0  0  0  0  0
  -23.8002  -30.5858   19.3984 H   0  0  0  0  0  0
  -22.7773  -29.2514   19.8363 H   0  0  0  0  0  0
  -25.1354  -36.1882   25.0803 H   0  0  0  0  0  0
  -21.0013  -28.3366   24.1408 H   0  0  0  0  0  0
  -20.5886  -26.2355   23.3601 H   0  0  0  0  0  0
  -21.6714  -26.7623   22.1135 H   0  0  0  0  0  0
  -19.7020  -25.6307   21.1323 H   0  0  0  0  0  0
  -19.6819  -27.3174   20.6723 H   0  0  0  0  0  0
  -17.4312  -26.6747   21.3966 H   0  0  0  0  0  0
  -18.0372  -26.0121   22.8993 H   0  0  0  0  0  0
  -19.7920  -30.7365   24.2227 H   0  0  0  0  0  0
  -17.4993  -31.6284   24.5214 H   0  0  0  0  0  0
  -15.5357  -30.2987   23.7709 H   0  0  0  0  0  0
  -15.8704  -28.0875   22.7023 H   0  0  0  0  0  0
  -24.5831  -30.7218   25.7709 H   0  0  0  0  0  0
  -24.8881  -32.3035   26.4797 H   0  0  0  0  0  0
  -25.7922  -30.9011   27.0233 H   0  0  0  0  0  0
  -26.2905  -29.6800   24.1293 H   0  0  0  0  0  0
  -27.3907  -29.7326   25.4859 H   0  0  0  0  0  0
  -27.8834  -30.4262   23.9597 H   0  0  0  0  0  0
  -27.2684  -33.3649   26.2103 H   0  0  0  0  0  0
  -28.3905  -32.6881   25.0388 H   0  0  0  0  0  0
  -28.0684  -31.8459   26.5465 H   0  0  0  0  0  0
  -28.2590  -38.0146   24.7534 H   0  0  0  0  0  0
  -28.1118  -36.2689   24.6224 H   0  0  0  0  0  0
  -27.2311  -37.1419   25.8837 H   0  0  0  0  0  0
  -20.9423  -29.8724   21.6746 H   0  0  0  0  0  0
  -26.0179  -38.2847   24.1358 H   0  0  0  0  0  0
  -28.5243  -19.5667   18.3231 H   0  0  0  0  0  0
  -30.7034  -17.9201   22.4267 H   0  0  0  0  0  0
  -27.4551  -16.3546   16.7578 H   0  0  0  0  0  0
  -27.1279  -17.9794   17.5692 H   0  0  0  0  0  0
  -29.3267  -15.9497   18.2048 H   0  0  0  0  0  0
  -27.2357  -24.5681   20.4834 H   0  0  0  0  0  0
  -28.1074  -24.6500   18.9637 H   0  0  0  0  0  0
  -28.9617  -15.5178   21.2698 H   0  0  0  0  0  0
  -29.9979  -25.6054   21.4804 H   0  0  0  0  0  0
  -30.9037  -24.1467   21.7998 H   0  0  0  0  0  0
  1 25  1  0  0  0
  1 30  2  0  0  0
  1 83  1  0  0  0
  2  3  1  0  0  0
  2 25  1  0  0  0
  2 86  1  0  0  0
  2 87  1  0  0  0
  3  4  1  0  0  0
  3 88  1  0  0  0
  3 89  1  0  0  0
  4  5  1  0  0  0
  4 90  1  0  0  0
  4 91  1  0  0  0
  5  6  1  0  0  0
  5 26  1  0  0  0
  5 92  1  0  0  0
  6 25  1  0  0  0
  6 93  1  0  0  0
  6 94  1  0  0  0
  7  8  2  0  0  0
  7 26  1  0  0  0
  7 29  1  0  0  0
  8  9  1  0  0  0
  8 22  1  0  0  0
  9 10  1  0  0  0
  9 27  2  0  0  0
 10 11  2  0  0  0
 10 15  1  0  0  0
 11 12  1  0  0  0
 11 95  1  0  0  0
 12 13  2  0  0  0
 12 96  1  0  0  0
 13 14  1  0  0  0
 13 31  1  0  0  0
 14 15  2  0  0  0
 14 97  1  0  0  0
 15 98  1  0  0  0
 16 17  2  0  0  0
 16 21  1  0  0  0
 16 31  1  0  0  0
 17 18  1  0  0  0
 17 99  1  0  0  0
 18 19  2  0  0  0
 18100  1  0  0  0
 19 20  1  0  0  0
 19 24  1  0  0  0
 20 21  2  0  0  0
 20101  1  0  0  0
 21 23  1  0  0  0
 22 28  1  0  0  0
 22 32  2  0  0  0
 26 27  1  0  0  0
 28102  1  0  0  0
 28103  1  0  0  0
 29104  1  0  0  0
 29105  1  0  0  0
 33 34  1  0  0  0
 33 66  1  0  0  0
 33 70  2  0  0  0
 34 36  1  0  0  0
 34 59  1  0  0  0
 34106  1  0  0  0
 35 44  2  0  0  0
 35 45  1  0  0  0
 35 68  1  0  0  0
 36 56  1  0  0  0
 36107  1  0  0  0
 37 39  1  0  0  0
 37 47  1  0  0  0
 37 66  1  0  0  0
 37108  1  0  0  0
 38 43  2  0  0  0
 38 46  1  0  0  0
 38 47  1  0  0  0
 39 64  1  0  0  0
 39 67  2  0  0  0
 40 52  1  0  0  0
 40 53  2  0  0  0
 40 58  1  0  0  0
 41109  1  0  0  0
 41110  1  0  0  0
 41111  1  0  0  0
 41 48  1  0  0  0
 42 43  1  0  0  0
 42 66  1  0  0  0
 42112  1  0  0  0
 42113  1  0  0  0
 43 44  1  0  0  0
 44114  1  0  0  0
 45 46  2  0  0  0
 45115  1  0  0  0
 46116  1  0  0  0
 47117  1  0  0  0
 47118  1  0  0  0
 48 56  1  0  0  0
 48 65  1  0  0  0
 48119  1  0  0  0
 49 50  1  0  0  0
 49 53  1  0  0  0
 49 64  1  0  0  0
 49120  1  0  0  0
 50 51  1  0  0  0
 50121  1  0  0  0
 50122  1  0  0  0
 51 52  1  0  0  0
 51123  1  0  0  0
 51124  1  0  0  0
 52125  1  0  0  0
 52126  1  0  0  0
 53 54  1  0  0  0
 54 55  2  0  0  0
 54127  1  0  0  0
 55 57  1  0  0  0
 55128  1  0  0  0
 56 69  2  0  0  0
 57 58  2  0  0  0
 57129  1  0  0  0
 58130  1  0  0  0
 59 60  1  0  0  0
 59 61  1  0  0  0
 59 62  1  0  0  0
 60131  1  0  0  0
 60132  1  0  0  0
 60133  1  0  0  0
 61134  1  0  0  0
 61135  1  0  0  0
 61136  1  0  0  0
 62137  1  0  0  0
 62138  1  0  0  0
 62139  1  0  0  0
 63 65  1  0  0  0
 63140  1  0  0  0
 63141  1  0  0  0
 63142  1  0  0  0
 64143  1  0  0  0
 65144  1  0  0  0
 68 80  1  0  0  0
 71 73  2  0  0  0
 71 74  1  0  0  0
 71145  1  0  0  0
 72 75  2  0  0  0
 72 76  1  0  0  0
 72146  1  0  0  0
 73 75  1  0  0  0
 73 78  1  0  0  0
 74 76  2  0  0  0
 74 81  1  0  0  0
 75 83  1  0  0  0
 76 85  1  0  0  0
 77 78  2  0  0  0
 77147  1  0  0  0
 77148  1  0  0  0
 78149  1  0  0  0
 79 80  1  0  0  0
 79 82  1  0  0  0
 79 84  2  0  0  0
 80150  1  0  0  0
 80151  1  0  0  0
 81 82  2  0  0  0
 83152  1  0  0  0
 84153  1  0  0  0
 84154  1  0  0  0
M  CHG  1  84   1
M  ISO  4   1 100  68 101  80 101  83 100
M  END
> <chiral flag>
0

> <version>
0

> <s_m_source_file>
/data/baiqing/PycharmProjects/Reinvent-master-3.2/result/LINK_invent/BTK/process_docking_weight1_custom_product_contain_oxygen_bond_distance_aromatic_linkinvent_7_9_3/rearranged_h_0089.sdf

> <i_m_source_file_index>
40

> <r_mmod_Potential_Energy-OPLS-2005>
-135.822677612305

> <r_mmod_Stretch_Energy-OPLS-2005>
123.607650756836

> <r_mmod_Bend_Energy-OPLS-2005>
187.015335083008

> <r_mmod_Torsional_Energy-OPLS-2005>
254.346572875977

> <r_mmod_Improper_Torsional_Energy-OPLS-2005>
6.23986053466797

> <r_mmod_Van_der_Waal_Energy-OPLS-2005>
132.621505737305

> <r_mmod_Electrostatic_Energy-OPLS-2005>
-444.640563964844

> <r_mmod_Solvation_Energy-OPLS-2005>
-476.980773925781

> <b_mmod_Minimization_Converged-OPLS-2005>
0

> <r_mmod_RMS_Derivative-OPLS-2005>
4.67733573913574

$$$$
40
                    3D
 Structure written by MMmdl.
153161  0  0  1  0            999 V2000
  -30.6366  -14.7584   20.4302 C   0  0  0  0  0  0
  -30.4217  -12.4520   19.5013 C   0  0  0  0  0  0
  -29.5141  -12.5075   18.2526 C   0  0  0  0  0  0
  -28.0393  -12.3360   18.6586 C   0  0  0  0  0  0
  -27.6420  -13.2416   19.8553 C   0  0  2  0  0  0
  -28.6831  -13.2001   20.9976 C   0  0  0  0  0  0
  -25.2500  -13.8221   20.5713 C   0  0  0  0  0  0
  -24.1796  -13.0451   20.9209 C   0  0  0  0  0  0
  -24.6401  -11.6933   20.8750 C   0  0  0  0  0  0
  -23.9082  -10.4301   21.0404 C   0  0  0  0  0  0
  -24.3630   -9.4214   21.9182 C   0  0  0  0  0  0
  -23.6301   -8.2250   22.0753 C   0  0  0  0  0  0
  -22.4283   -8.0287   21.3544 C   0  0  0  0  0  0
  -21.9921   -9.0261   20.4646 C   0  0  0  0  0  0
  -22.7252  -10.2139   20.3054 C   0  0  0  0  0  0
  -21.6856   -6.0739   22.5278 C   0  0  0  0  0  0
  -21.4017   -6.5642   23.8212 C   0  0  0  0  0  0
  -21.3659   -5.6793   24.9173 C   0  0  0  0  0  0
  -21.6043   -4.3056   24.7223 C   0  0  0  0  0  0
  -21.8819   -3.8149   23.4344 C   0  0  0  0  0  0
  -21.9194   -4.6966   22.3401 C   0  0  0  0  0  0
  -22.7815  -13.5223   21.1865 C   0  0  0  0  0  0
  -22.1662   -4.2152   21.0979 F   0  0  0  0  0  0
  -21.5627   -3.4540   25.7736 F   0  0  0  0  0  0
  -29.9909  -13.5362   20.4219 N   0  0  0  0  0  0
  -26.2940  -12.9450   20.3308 N   0  0  0  0  0  0
  -25.9339  -11.6580   20.5768 N   0  0  0  0  0  0
  -22.0468  -12.8207   22.0421 N   0  0  0  0  0  0
  -25.4184  -15.1947   20.4138 N   0  0  0  0  0  0
  -31.8179  -14.7873   20.0724 O   0  0  0  0  0  0
  -21.6645   -6.8884   21.4241 O   0  0  0  0  0  0
  -22.3496  -14.5527   20.6712 O   0  0  0  0  0  0
  -24.6333  -31.8538   23.1995 C   0  0  0  0  0  0
  -25.9153  -32.4747   23.8337 C   0  0  1  0  0  0
  -27.2056  -27.2368   20.1341 C   0  0  0  0  0  0
  -25.5944  -33.8550   24.2252 N   0  0  0  0  0  0
  -23.4315  -30.4791   21.5423 C   0  0  2  0  0  0
  -24.8807  -28.9361   20.0992 C   0  0  0  0  0  0
  -22.7522  -29.4592   22.4891 C   0  0  0  0  0  0
  -18.0297  -28.1390   22.8480 C   0  0  0  0  0  0
  -24.1491  -36.7277   23.2640 C   0  0  0  0  0  0
  -25.9815  -30.7585   21.3878 C   0  0  0  0  0  0
  -26.0523  -29.3830   20.7237 C   0  0  0  0  0  0
  -27.2177  -28.5445   20.7353 C   0  0  0  0  0  0
  -26.0286  -26.8972   19.4271 C   0  0  0  0  0  0
  -24.8767  -27.7028   19.4363 C   0  0  0  0  0  0
  -23.6510  -29.8216   20.1552 C   0  0  0  0  0  0
  -25.4120  -36.3063   24.0322 C   0  0  1  0  0  0
  -20.5904  -28.3702   23.1258 C   0  0  2  0  0  0
  -20.6787  -26.9417   22.5405 C   0  0  0  0  0  0
  -19.5760  -26.6380   21.5214 C   0  0  0  0  0  0
  -18.1940  -26.7930   22.1623 C   0  0  0  0  0  0
  -19.1552  -28.8864   23.2862 C   0  0  0  0  0  0
  -18.9471  -30.1464   23.8882 C   0  0  0  0  0  0
  -17.6468  -30.6588   24.0562 C   0  0  0  0  0  0
  -25.9061  -34.9433   23.5089 C   0  0  0  0  0  0
  -16.5359  -29.9082   23.6336 C   0  0  0  0  0  0
  -16.7282  -28.6502   23.0353 C   0  0  0  0  0  0
  -26.4511  -31.6579   25.0735 C   0  0  0  0  0  0
  -25.3721  -31.3739   26.1445 C   0  0  0  0  0  0
  -27.0365  -30.2987   24.6255 C   0  0  0  0  0  0
  -27.6059  -32.4327   25.7509 C   0  0  0  0  0  0
  -27.5576  -37.1797   24.8466 C   0  0  0  0  0  0
  -21.4225  -29.3044   22.3641 N   0  0  0  0  0  0
  -26.4291  -37.3765   23.9405 N   0  0  0  0  0  0
  -24.7010  -31.0487   22.0986 N   0  0  0  0  0  0
  -23.4214  -28.8124   23.2991 O   0  0  0  0  0  0
  -28.2393  -26.2651   20.2635 O   0  0  0  0  0  0
  -26.5635  -34.8910   22.4659 O   0  0  0  0  0  0
  -23.5475  -32.1371   23.7272 O   0  0  0  0  0  0
  -29.3111  -19.7705   22.9914 C   0  0  0  0  0  0
  -29.5930  -18.5690   22.3067 C   0  0  0  0  0  0
  -29.1063  -20.9858   22.3047 C   0  0  0  0  0  0
  -29.6846  -18.5303   20.8988 C   0  0  0  0  0  0
  -29.1464  -21.0534   20.8941 C   0  0  0  0  0  0
  -29.4331  -19.7982   20.2051 C   0  0  0  0  0  0
  -30.2331  -17.2250   20.2338 C   0  0  0  0  0  0
  -28.9390  -23.6595   20.6522 C   0  0  0  0  0  0
  -26.7561  -24.5894   21.3877 C   0  0  0  0  0  0
  -27.8444  -24.7890   20.2993 C   0  0  1  0  0  0
  -28.7679  -22.3386   20.2403 N   0  0  0  0  0  0
  -29.9295  -15.9357   20.6836 N   0  0  0  0  0  0
  -30.9827  -17.3922   19.2659 O   0  0  0  0  0  0
  -29.9187  -23.9842   21.3285 O   0  0  0  0  0  0
  -29.4703  -19.8299   18.8503 F   0  0  0  0  0  0
  -31.4682  -12.5387   19.2049 H   0  0  0  0  0  0
  -30.3384  -11.4815   19.9932 H   0  0  0  0  0  0
  -29.7990  -11.7304   17.5422 H   0  0  0  0  0  0
  -29.6486  -13.4599   17.7371 H   0  0  0  0  0  0
  -27.8945  -11.2884   18.9248 H   0  0  0  0  0  0
  -27.3861  -12.5255   17.8060 H   0  0  0  0  0  0
  -27.6319  -14.2601   19.4665 H   0  0  0  0  0  0
  -28.7120  -12.2135   21.4624 H   0  0  0  0  0  0
  -28.4149  -13.9027   21.7877 H   0  0  0  0  0  0
  -25.2774   -9.5689   22.4758 H   0  0  0  0  0  0
  -24.0008   -7.4642   22.7475 H   0  0  0  0  0  0
  -21.0851   -8.8782   19.8953 H   0  0  0  0  0  0
  -22.3710  -10.9678   19.6163 H   0  0  0  0  0  0
  -21.2012   -7.6151   23.9715 H   0  0  0  0  0  0
  -21.1480   -6.0524   25.9075 H   0  0  0  0  0  0
  -22.0599   -2.7612   23.2843 H   0  0  0  0  0  0
  -22.4094  -11.9870   22.4803 H   0  0  0  0  0  0
  -21.1082  -13.1220   22.2629 H   0  0  0  0  0  0
  -24.6494  -15.8473   20.5211 H   0  0  0  0  0  0
  -26.2646  -15.6342   20.0750 H   0  0  0  0  0  0
  -26.7215  -32.5386   23.1069 H   0  0  0  0  0  0
  -25.0087  -33.9690   25.0396 H   0  0  0  0  0  0
  -22.7289  -31.3028   21.3988 H   0  0  0  0  0  0
  -23.3752  -35.9611   23.3301 H   0  0  0  0  0  0
  -24.3580  -36.8906   22.2055 H   0  0  0  0  0  0
  -23.7246  -37.6478   23.6668 H   0  0  0  0  0  0
  -26.1302  -31.5208   20.6215 H   0  0  0  0  0  0
  -26.8551  -30.8010   22.0262 H   0  0  0  0  0  0
  -28.1021  -28.8688   21.2654 H   0  0  0  0  0  0
  -25.9509  -25.9602   18.8981 H   0  0  0  0  0  0
  -23.9868  -27.3630   18.9247 H   0  0  0  0  0  0
  -23.7743  -30.6022   19.4035 H   0  0  0  0  0  0
  -22.7691  -29.2565   19.8478 H   0  0  0  0  0  0
  -25.1304  -36.1906   25.0813 H   0  0  0  0  0  0
  -20.9997  -28.3281   24.1378 H   0  0  0  0  0  0
  -20.5694  -26.2311   23.3611 H   0  0  0  0  0  0
  -21.6653  -26.7442   22.1196 H   0  0  0  0  0  0
  -19.6923  -25.6289   21.1247 H   0  0  0  0  0  0
  -19.6697  -27.3186   20.6740 H   0  0  0  0  0  0
  -17.4210  -26.6675   21.4024 H   0  0  0  0  0  0
  -18.0338  -26.0077   22.9024 H   0  0  0  0  0  0
  -19.7947  -30.7286   24.2242 H   0  0  0  0  0  0
  -17.5021  -31.6267   24.5165 H   0  0  0  0  0  0
  -15.5359  -30.2979   23.7670 H   0  0  0  0  0  0
  -15.8681  -28.0819   22.7074 H   0  0  0  0  0  0
  -24.5910  -30.7073   25.7769 H   0  0  0  0  0  0
  -24.8898  -32.2912   26.4833 H   0  0  0  0  0  0
  -25.8028  -30.8942   27.0243 H   0  0  0  0  0  0
  -26.2964  -29.6724   24.1261 H   0  0  0  0  0  0
  -27.4007  -29.7264   25.4798 H   0  0  0  0  0  0
  -27.8859  -30.4243   23.9537 H   0  0  0  0  0  0
  -27.2666  -33.3644   26.2045 H   0  0  0  0  0  0
  -28.3888  -32.6859   25.0347 H   0  0  0  0  0  0
  -28.0700  -31.8476   26.5458 H   0  0  0  0  0  0
  -28.2595  -38.0093   24.7510 H   0  0  0  0  0  0
  -28.1071  -36.2624   24.6296 H   0  0  0  0  0  0
  -27.2292  -37.1451   25.8869 H   0  0  0  0  0  0
  -20.9410  -29.8772   21.6850 H   0  0  0  0  0  0
  -26.0164  -38.2836   24.1406 H   0  0  0  0  0  0
  -29.2622  -19.7632   24.0719 H   0  0  0  0  0  0
  -29.7896  -17.6756   22.8832 H   0  0  0  0  0  0
  -28.8799  -21.8700   22.8834 H   0  0  0  0  0  0
  -26.5454  -23.5336   21.5664 H   0  0  0  0  0  0
  -25.7967  -25.0336   21.1354 H   0  0  0  0  0  0
  -27.0776  -25.0190   22.3367 H   0  0  0  0  0  0
  -27.4524  -24.5072   19.3226 H   0  0  0  0  0  0
  -28.1292  -22.2275   19.4648 H   0  0  0  0  0  0
  -29.0963  -15.8488   21.2407 H   0  0  0  0  0  0
  1 25  1  0  0  0
  1 30  2  0  0  0
  1 82  1  0  0  0
  2  3  1  0  0  0
  2 25  1  0  0  0
  2 86  1  0  0  0
  2 87  1  0  0  0
  3  4  1  0  0  0
  3 88  1  0  0  0
  3 89  1  0  0  0
  4  5  1  0  0  0
  4 90  1  0  0  0
  4 91  1  0  0  0
  5  6  1  0  0  0
  5 26  1  0  0  0
  5 92  1  0  0  0
  6 25  1  0  0  0
  6 93  1  0  0  0
  6 94  1  0  0  0
  7  8  2  0  0  0
  7 26  1  0  0  0
  7 29  1  0  0  0
  8  9  1  0  0  0
  8 22  1  0  0  0
  9 10  1  0  0  0
  9 27  2  0  0  0
 10 11  2  0  0  0
 10 15  1  0  0  0
 11 12  1  0  0  0
 11 95  1  0  0  0
 12 13  2  0  0  0
 12 96  1  0  0  0
 13 14  1  0  0  0
 13 31  1  0  0  0
 14 15  2  0  0  0
 14 97  1  0  0  0
 15 98  1  0  0  0
 16 17  2  0  0  0
 16 21  1  0  0  0
 16 31  1  0  0  0
 17 18  1  0  0  0
 17 99  1  0  0  0
 18 19  2  0  0  0
 18100  1  0  0  0
 19 20  1  0  0  0
 19 24  1  0  0  0
 20 21  2  0  0  0
 20101  1  0  0  0
 21 23  1  0  0  0
 22 28  1  0  0  0
 22 32  2  0  0  0
 26 27  1  0  0  0
 28102  1  0  0  0
 28103  1  0  0  0
 29104  1  0  0  0
 29105  1  0  0  0
 33 34  1  0  0  0
 33 66  1  0  0  0
 33 70  2  0  0  0
 34 36  1  0  0  0
 34 59  1  0  0  0
 34106  1  0  0  0
 35 44  2  0  0  0
 35 45  1  0  0  0
 35 68  1  0  0  0
 36 56  1  0  0  0
 36107  1  0  0  0
 37 39  1  0  0  0
 37 47  1  0  0  0
 37 66  1  0  0  0
 37108  1  0  0  0
 38 43  2  0  0  0
 38 46  1  0  0  0
 38 47  1  0  0  0
 39 64  1  0  0  0
 39 67  2  0  0  0
 40 52  1  0  0  0
 40 53  2  0  0  0
 40 58  1  0  0  0
 41109  1  0  0  0
 41110  1  0  0  0
 41111  1  0  0  0
 41 48  1  0  0  0
 42 43  1  0  0  0
 42 66  1  0  0  0
 42112  1  0  0  0
 42113  1  0  0  0
 43 44  1  0  0  0
 44114  1  0  0  0
 45 46  2  0  0  0
 45115  1  0  0  0
 46116  1  0  0  0
 47117  1  0  0  0
 47118  1  0  0  0
 48 56  1  0  0  0
 48 65  1  0  0  0
 48119  1  0  0  0
 49 50  1  0  0  0
 49 53  1  0  0  0
 49 64  1  0  0  0
 49120  1  0  0  0
 50 51  1  0  0  0
 50121  1  0  0  0
 50122  1  0  0  0
 51 52  1  0  0  0
 51123  1  0  0  0
 51124  1  0  0  0
 52125  1  0  0  0
 52126  1  0  0  0
 53 54  1  0  0  0
 54 55  2  0  0  0
 54127  1  0  0  0
 55 57  1  0  0  0
 55128  1  0  0  0
 56 69  2  0  0  0
 57 58  2  0  0  0
 57129  1  0  0  0
 58130  1  0  0  0
 59 60  1  0  0  0
 59 61  1  0  0  0
 59 62  1  0  0  0
 60131  1  0  0  0
 60132  1  0  0  0
 60133  1  0  0  0
 61134  1  0  0  0
 61135  1  0  0  0
 61136  1  0  0  0
 62137  1  0  0  0
 62138  1  0  0  0
 62139  1  0  0  0
 63 65  1  0  0  0
 63140  1  0  0  0
 63141  1  0  0  0
 63142  1  0  0  0
 64143  1  0  0  0
 65144  1  0  0  0
 68 80  1  0  0  0
 71 72  2  0  0  0
 71 73  1  0  0  0
 71145  1  0  0  0
 72 74  1  0  0  0
 72146  1  0  0  0
 73 75  2  0  0  0
 73147  1  0  0  0
 74 76  2  0  0  0
 74 77  1  0  0  0
 75 76  1  0  0  0
 75 81  1  0  0  0
 76 85  1  0  0  0
 77 82  1  0  0  0
 77 83  2  0  0  0
 78 80  1  0  0  0
 78 81  1  0  0  0
 78 84  2  0  0  0
 79148  1  0  0  0
 79149  1  0  0  0
 79150  1  0  0  0
 79 80  1  0  0  0
 80151  1  0  0  0
 81152  1  0  0  0
 82153  1  0  0  0
M  ISO  4   1 100  68 101  80 101  82 100
M  END
> <chiral flag>
0

> <version>
0

> <s_m_source_file>
/data/baiqing/PycharmProjects/Reinvent-master-3.2/result/LINK_invent/BTK/process_docking_weight1_custom_product_contain_oxygen_bond_distance_aromatic_linkinvent_7_9_3/rearranged_h_0089.sdf

> <i_m_source_file_index>
41

> <r_mmod_Potential_Energy-OPLS-2005>
145.127624511719

> <r_mmod_Stretch_Energy-OPLS-2005>
138.475296020508

> <r_mmod_Bend_Energy-OPLS-2005>
164.886322021484

> <r_mmod_Torsional_Energy-OPLS-2005>
284.085662841797

> <r_mmod_Improper_Torsional_Energy-OPLS-2005>
5.5297646522522

> <r_mmod_Van_der_Waal_Energy-OPLS-2005>
151.198867797852

> <r_mmod_Electrostatic_Energy-OPLS-2005>
-446.07861328125

> <r_mmod_Solvation_Energy-OPLS-2005>
-258.757263183594

> <b_mmod_Minimization_Converged-OPLS-2005>
0

> <r_mmod_RMS_Derivative-OPLS-2005>
0.375931560993195

$$$$
41
                    3D
 Structure written by MMmdl.
152161  0  0  1  0            999 V2000
  -30.6278  -14.7060   20.4244 C   0  0  0  0  0  0
  -30.4450  -12.4225   19.4440 C   0  0  0  0  0  0
  -29.5053  -12.4886   18.2209 C   0  0  0  0  0  0
  -28.0308  -12.3332   18.6427 C   0  0  0  0  0  0
  -27.6538  -13.2239   19.8561 C   0  0  2  0  0  0
  -28.7131  -13.1265   20.9790 C   0  0  0  0  0  0
  -25.2576  -13.8195   20.5741 C   0  0  0  0  0  0
  -24.1841  -13.0440   20.9199 C   0  0  0  0  0  0
  -24.6435  -11.6922   20.8743 C   0  0  0  0  0  0
  -23.9082  -10.4299   21.0399 C   0  0  0  0  0  0
  -24.3620   -9.4213   21.9179 C   0  0  0  0  0  0
  -23.6300   -8.2243   22.0741 C   0  0  0  0  0  0
  -22.4280   -8.0282   21.3530 C   0  0  0  0  0  0
  -21.9918   -9.0266   20.4638 C   0  0  0  0  0  0
  -22.7243  -10.2153   20.3052 C   0  0  0  0  0  0
  -21.6860   -6.0741   22.5276 C   0  0  0  0  0  0
  -21.4015   -6.5638   23.8211 C   0  0  0  0  0  0
  -21.3653   -5.6787   24.9172 C   0  0  0  0  0  0
  -21.6046   -4.3049   24.7225 C   0  0  0  0  0  0
  -21.8815   -3.8144   23.4338 C   0  0  0  0  0  0
  -21.9201   -4.6967   22.3400 C   0  0  0  0  0  0
  -22.7850  -13.5220   21.1864 C   0  0  0  0  0  0
  -22.1661   -4.2147   21.0984 F   0  0  0  0  0  0
  -21.5633   -3.4542   25.7733 F   0  0  0  0  0  0
  -30.0183  -13.4719   20.3935 N   0  0  0  0  0  0
  -26.3025  -12.9393   20.3368 N   0  0  0  0  0  0
  -25.9369  -11.6538   20.5794 N   0  0  0  0  0  0
  -22.0496  -12.8212   22.0422 N   0  0  0  0  0  0
  -25.4290  -15.1927   20.4280 N   0  0  0  0  0  0
  -31.8064  -14.8400   20.0908 O   0  0  0  0  0  0
  -21.6637   -6.8885   21.4235 O   0  0  0  0  0  0
  -22.3522  -14.5522   20.6718 O   0  0  0  0  0  0
  -24.6256  -31.8571   23.1983 C   0  0  0  0  0  0
  -25.9074  -32.4774   23.8316 C   0  0  1  0  0  0
  -27.2499  -27.3140   20.1071 C   0  0  0  0  0  0
  -25.5873  -33.8573   24.2221 N   0  0  0  0  0  0
  -23.4251  -30.4780   21.5396 C   0  0  2  0  0  0
  -24.8779  -28.9263   20.1171 C   0  0  0  0  0  0
  -22.7481  -29.4608   22.4905 C   0  0  0  0  0  0
  -18.0287  -28.1405   22.8469 C   0  0  0  0  0  0
  -24.1492  -36.7321   23.2645 C   0  0  0  0  0  0
  -25.9657  -30.7878   21.3691 C   0  0  0  0  0  0
  -26.0475  -29.4100   20.7169 C   0  0  0  0  0  0
  -27.2357  -28.6154   20.7039 C   0  0  0  0  0  0
  -26.0542  -26.8866   19.4863 C   0  0  0  0  0  0
  -24.8805  -27.6657   19.4998 C   0  0  0  0  0  0
  -23.6433  -29.8039   20.1595 C   0  0  0  0  0  0
  -25.4118  -36.3086   24.0322 C   0  0  1  0  0  0
  -20.5890  -28.3711   23.1279 C   0  0  2  0  0  0
  -20.6772  -26.9424   22.5424 C   0  0  0  0  0  0
  -19.5745  -26.6396   21.5221 C   0  0  0  0  0  0
  -18.1937  -26.7942   22.1629 C   0  0  0  0  0  0
  -19.1546  -28.8866   23.2865 C   0  0  0  0  0  0
  -18.9459  -30.1482   23.8874 C   0  0  0  0  0  0
  -17.6459  -30.6598   24.0568 C   0  0  0  0  0  0
  -25.9037  -34.9453   23.5076 C   0  0  0  0  0  0
  -16.5347  -29.9110   23.6338 C   0  0  0  0  0  0
  -16.7275  -28.6538   23.0326 C   0  0  0  0  0  0
  -26.4463  -31.6589   25.0692 C   0  0  0  0  0  0
  -25.3676  -31.3719   26.1384 C   0  0  0  0  0  0
  -27.0347  -30.3025   24.6166 C   0  0  0  0  0  0
  -27.5972  -32.4365   25.7490 C   0  0  0  0  0  0
  -27.5549  -37.1854   24.8470 C   0  0  0  0  0  0
  -21.4191  -29.3052   22.3642 N   0  0  0  0  0  0
  -26.4319  -37.3754   23.9335 N   0  0  0  0  0  0
  -24.6899  -31.0585   22.0915 N   0  0  0  0  0  0
  -23.4199  -28.8168   23.2996 O   0  0  0  0  0  0
  -28.3709  -26.4583   20.0972 O   0  0  0  0  0  0
  -26.5640  -34.8940   22.4670 O   0  0  0  0  0  0
  -23.5403  -32.1333   23.7325 O   0  0  0  0  0  0
  -30.8854  -19.4471   19.8263 C   0  0  0  0  0  0
  -30.9612  -18.0140   19.9427 C   0  0  0  0  0  0
  -28.6972  -19.4240   20.7885 C   0  0  0  0  0  0
  -29.7505  -20.2197   20.2464 C   0  0  0  0  0  0
  -29.8943  -17.2455   20.4909 C   0  0  0  0  0  0
  -28.7635  -18.0035   20.8969 C   0  0  0  0  0  0
  -29.0109  -23.9830   20.1349 C   0  0  0  0  0  0
  -30.3281  -23.9448   19.5299 C   0  0  0  0  0  0
  -28.6687  -22.5838   20.4765 C   0  0  0  0  0  0
  -28.1854  -25.0748   20.3590 C   0  0  0  0  0  0
  -30.7958  -22.4837   19.5131 C   0  0  0  0  0  0
  -29.6846  -21.7112   20.1138 N   0  0  0  0  0  0
  -29.8010  -15.7810   20.6509 N   0  0  0  0  0  0
  -30.9996  -24.8909   19.0994 O   0  0  0  0  0  0
  -27.6117  -22.2439   21.0218 O   0  0  0  0  0  0
  -27.6980  -17.3364   21.4018 F   0  0  0  0  0  0
  -31.4805  -12.5512   19.1256 H   0  0  0  0  0  0
  -30.3989  -11.4413   19.9173 H   0  0  0  0  0  0
  -29.7681  -11.7129   17.5014 H   0  0  0  0  0  0
  -29.6348  -13.4371   17.7001 H   0  0  0  0  0  0
  -27.8755  -11.2838   18.8979 H   0  0  0  0  0  0
  -27.3677  -12.5398   17.8004 H   0  0  0  0  0  0
  -27.6534  -14.2498   19.4854 H   0  0  0  0  0  0
  -28.7443  -12.1175   21.3938 H   0  0  0  0  0  0
  -28.4654  -13.7882   21.8103 H   0  0  0  0  0  0
  -25.2791   -9.5684   22.4737 H   0  0  0  0  0  0
  -24.0018   -7.4628   22.7463 H   0  0  0  0  0  0
  -21.0835   -8.8785   19.8952 H   0  0  0  0  0  0
  -22.3703  -10.9685   19.6141 H   0  0  0  0  0  0
  -21.1995   -7.6144   23.9712 H   0  0  0  0  0  0
  -21.1479   -6.0521   25.9080 H   0  0  0  0  0  0
  -22.0605   -2.7605   23.2843 H   0  0  0  0  0  0
  -22.4141  -11.9879   22.4784 H   0  0  0  0  0  0
  -21.1114  -13.1212   22.2631 H   0  0  0  0  0  0
  -24.6722  -15.8495   20.5879 H   0  0  0  0  0  0
  -26.3110  -15.6513   20.2372 H   0  0  0  0  0  0
  -26.7158  -32.5456   23.1087 H   0  0  0  0  0  0
  -24.9897  -33.9682   25.0277 H   0  0  0  0  0  0
  -22.7212  -31.2990   21.3899 H   0  0  0  0  0  0
  -23.3624  -35.9818   23.3598 H   0  0  0  0  0  0
  -24.3488  -36.8628   22.1999 H   0  0  0  0  0  0
  -23.7478  -37.6724   23.6455 H   0  0  0  0  0  0
  -26.0884  -31.5478   20.5974 H   0  0  0  0  0  0
  -26.8471  -30.8476   21.9950 H   0  0  0  0  0  0
  -28.1378  -28.9816   21.1720 H   0  0  0  0  0  0
  -26.0213  -25.9247   18.9964 H   0  0  0  0  0  0
  -23.9809  -27.2869   19.0347 H   0  0  0  0  0  0
  -23.7609  -30.5733   19.3953 H   0  0  0  0  0  0
  -22.7672  -29.2289   19.8561 H   0  0  0  0  0  0
  -25.1340  -36.1959   25.0830 H   0  0  0  0  0  0
  -20.9989  -28.3309   24.1395 H   0  0  0  0  0  0
  -20.5680  -26.2320   23.3633 H   0  0  0  0  0  0
  -21.6648  -26.7454   22.1220 H   0  0  0  0  0  0
  -19.6913  -25.6309   21.1258 H   0  0  0  0  0  0
  -19.6705  -27.3205   20.6758 H   0  0  0  0  0  0
  -17.4208  -26.6671   21.4041 H   0  0  0  0  0  0
  -18.0339  -26.0108   22.9043 H   0  0  0  0  0  0
  -19.7942  -30.7308   24.2230 H   0  0  0  0  0  0
  -17.5021  -31.6271   24.5185 H   0  0  0  0  0  0
  -15.5364  -30.2997   23.7694 H   0  0  0  0  0  0
  -15.8675  -28.0892   22.7004 H   0  0  0  0  0  0
  -24.5997  -30.6887   25.7740 H   0  0  0  0  0  0
  -24.8673  -32.2855   26.4609 H   0  0  0  0  0  0
  -25.8009  -30.9115   27.0271 H   0  0  0  0  0  0
  -26.2958  -29.6787   24.1123 H   0  0  0  0  0  0
  -27.3966  -29.7278   25.4700 H   0  0  0  0  0  0
  -27.8842  -30.4314   23.9454 H   0  0  0  0  0  0
  -27.2477  -33.3563   26.2191 H   0  0  0  0  0  0
  -28.3721  -32.7111   25.0325 H   0  0  0  0  0  0
  -28.0728  -31.8448   26.5324 H   0  0  0  0  0  0
  -28.2708  -38.0000   24.7321 H   0  0  0  0  0  0
  -28.0914  -36.2545   24.6579 H   0  0  0  0  0  0
  -27.2231  -37.1851   25.8867 H   0  0  0  0  0  0
  -20.9371  -29.8738   21.6825 H   0  0  0  0  0  0
  -26.0216  -38.2875   24.1193 H   0  0  0  0  0  0
  -31.7372  -19.9490   19.3884 H   0  0  0  0  0  0
  -31.8500  -17.5093   19.5869 H   0  0  0  0  0  0
  -27.7838  -19.8763   21.1339 H   0  0  0  0  0  0
  -27.2215  -24.9032   20.8221 H   0  0  0  0  0  0
  -31.7121  -22.3821   20.0990 H   0  0  0  0  0  0
  -30.9959  -22.1660   18.4887 H   0  0  0  0  0  0
  -28.8781  -15.4932   20.9351 H   0  0  0  0  0  0
  1 25  1  0  0  0
  1 30  2  0  0  0
  1 83  1  0  0  0
  2  3  1  0  0  0
  2 25  1  0  0  0
  2 87  1  0  0  0
  2 88  1  0  0  0
  3  4  1  0  0  0
  3 89  1  0  0  0
  3 90  1  0  0  0
  4  5  1  0  0  0
  4 91  1  0  0  0
  4 92  1  0  0  0
  5  6  1  0  0  0
  5 26  1  0  0  0
  5 93  1  0  0  0
  6 25  1  0  0  0
  6 94  1  0  0  0
  6 95  1  0  0  0
  7  8  2  0  0  0
  7 26  1  0  0  0
  7 29  1  0  0  0
  8  9  1  0  0  0
  8 22  1  0  0  0
  9 10  1  0  0  0
  9 27  2  0  0  0
 10 11  2  0  0  0
 10 15  1  0  0  0
 11 12  1  0  0  0
 11 96  1  0  0  0
 12 13  2  0  0  0
 12 97  1  0  0  0
 13 14  1  0  0  0
 13 31  1  0  0  0
 14 15  2  0  0  0
 14 98  1  0  0  0
 15 99  1  0  0  0
 16 17  2  0  0  0
 16 21  1  0  0  0
 16 31  1  0  0  0
 17 18  1  0  0  0
 17100  1  0  0  0
 18 19  2  0  0  0
 18101  1  0  0  0
 19 20  1  0  0  0
 19 24  1  0  0  0
 20 21  2  0  0  0
 20102  1  0  0  0
 21 23  1  0  0  0
 22 28  1  0  0  0
 22 32  2  0  0  0
 26 27  1  0  0  0
 28103  1  0  0  0
 28104  1  0  0  0
 29105  1  0  0  0
 29106  1  0  0  0
 33 34  1  0  0  0
 33 66  1  0  0  0
 33 70  2  0  0  0
 34 36  1  0  0  0
 34 59  1  0  0  0
 34107  1  0  0  0
 35 44  2  0  0  0
 35 45  1  0  0  0
 35 68  1  0  0  0
 36 56  1  0  0  0
 36108  1  0  0  0
 37 39  1  0  0  0
 37 47  1  0  0  0
 37 66  1  0  0  0
 37109  1  0  0  0
 38 43  2  0  0  0
 38 46  1  0  0  0
 38 47  1  0  0  0
 39 64  1  0  0  0
 39 67  2  0  0  0
 40 52  1  0  0  0
 40 53  2  0  0  0
 40 58  1  0  0  0
 41110  1  0  0  0
 41111  1  0  0  0
 41112  1  0  0  0
 41 48  1  0  0  0
 42 43  1  0  0  0
 42 66  1  0  0  0
 42113  1  0  0  0
 42114  1  0  0  0
 43 44  1  0  0  0
 44115  1  0  0  0
 45 46  2  0  0  0
 45116  1  0  0  0
 46117  1  0  0  0
 47118  1  0  0  0
 47119  1  0  0  0
 48 56  1  0  0  0
 48 65  1  0  0  0
 48120  1  0  0  0
 49 50  1  0  0  0
 49 53  1  0  0  0
 49 64  1  0  0  0
 49121  1  0  0  0
 50 51  1  0  0  0
 50122  1  0  0  0
 50123  1  0  0  0
 51 52  1  0  0  0
 51124  1  0  0  0
 51125  1  0  0  0
 52126  1  0  0  0
 52127  1  0  0  0
 53 54  1  0  0  0
 54 55  2  0  0  0
 54128  1  0  0  0
 55 57  1  0  0  0
 55129  1  0  0  0
 56 69  2  0  0  0
 57 58  2  0  0  0
 57130  1  0  0  0
 58131  1  0  0  0
 59 60  1  0  0  0
 59 61  1  0  0  0
 59 62  1  0  0  0
 60132  1  0  0  0
 60133  1  0  0  0
 60134  1  0  0  0
 61135  1  0  0  0
 61136  1  0  0  0
 61137  1  0  0  0
 62138  1  0  0  0
 62139  1  0  0  0
 62140  1  0  0  0
 63 65  1  0  0  0
 63141  1  0  0  0
 63142  1  0  0  0
 63143  1  0  0  0
 64144  1  0  0  0
 65145  1  0  0  0
 68 80  1  0  0  0
 71 72  2  0  0  0
 71 74  1  0  0  0
 71146  1  0  0  0
 72 75  1  0  0  0
 72147  1  0  0  0
 73 74  2  0  0  0
 73 76  1  0  0  0
 73148  1  0  0  0
 74 82  1  0  0  0
 75 76  2  0  0  0
 75 83  1  0  0  0
 76 86  1  0  0  0
 77 78  1  0  0  0
 77 79  1  0  0  0
 77 80  2  0  0  0
 78 81  1  0  0  0
 78 84  2  0  0  0
 79 82  1  0  0  0
 79 85  2  0  0  0
 80149  1  0  0  0
 81 82  1  0  0  0
 81150  1  0  0  0
 81151  1  0  0  0
 83152  1  0  0  0
M  ISO  4   1 100  68 101  80 101  83 100
M  END
> <chiral flag>
0

> <version>
0

> <s_m_source_file>
/data/baiqing/PycharmProjects/Reinvent-master-3.2/result/LINK_invent/BTK/process_docking_weight1_custom_product_contain_oxygen_bond_distance_aromatic_linkinvent_7_9_3/rearranged_h_0089.sdf

> <i_m_source_file_index>
42

> <r_mmod_Potential_Energy-OPLS-2005>
118.460357666016

> <r_mmod_Stretch_Energy-OPLS-2005>
97.5153198242188

> <r_mmod_Bend_Energy-OPLS-2005>
204.578765869141

> <r_mmod_Torsional_Energy-OPLS-2005>
240.838745117188

> <r_mmod_Improper_Torsional_Energy-OPLS-2005>
4.36470556259155

> <r_mmod_Van_der_Waal_Energy-OPLS-2005>
139.613525390625

> <r_mmod_Electrostatic_Energy-OPLS-2005>
-403.190368652344

> <r_mmod_Solvation_Energy-OPLS-2005>
-227.410781860352

> <b_mmod_Minimization_Converged-OPLS-2005>
0

> <r_mmod_RMS_Derivative-OPLS-2005>
3.80190753936768

$$$$
42
                    3D
 Structure written by MMmdl.
163172  0  0  1  0            999 V2000
  -30.6663  -14.5356   20.5498 C   0  0  0  0  0  0
  -30.4363  -12.3404   19.4292 C   0  0  0  0  0  0
  -29.5004  -12.5102   18.2126 C   0  0  0  0  0  0
  -28.0222  -12.3614   18.6265 C   0  0  0  0  0  0
  -27.6611  -13.2096   19.8752 C   0  0  2  0  0  0
  -28.7068  -13.0052   20.9953 C   0  0  0  0  0  0
  -25.2576  -13.8155   20.5696 C   0  0  0  0  0  0
  -24.1831  -13.0425   20.9156 C   0  0  0  0  0  0
  -24.6397  -11.6898   20.8726 C   0  0  0  0  0  0
  -23.9060  -10.4289   21.0401 C   0  0  0  0  0  0
  -24.3612   -9.4202   21.9177 C   0  0  0  0  0  0
  -23.6290   -8.2236   22.0745 C   0  0  0  0  0  0
  -22.4268   -8.0281   21.3542 C   0  0  0  0  0  0
  -21.9908   -9.0252   20.4640 C   0  0  0  0  0  0
  -22.7236  -10.2130   20.3046 C   0  0  0  0  0  0
  -21.6845   -6.0744   22.5286 C   0  0  0  0  0  0
  -21.4010   -6.5646   23.8222 C   0  0  0  0  0  0
  -21.3656   -5.6796   24.9183 C   0  0  0  0  0  0
  -21.6041   -4.3058   24.7228 C   0  0  0  0  0  0
  -21.8812   -3.8154   23.4345 C   0  0  0  0  0  0
  -21.9184   -4.6973   22.3405 C   0  0  0  0  0  0
  -22.7855  -13.5227   21.1837 C   0  0  0  0  0  0
  -22.1657   -4.2164   21.0981 F   0  0  0  0  0  0
  -21.5631   -3.4536   25.7738 F   0  0  0  0  0  0
  -30.0339  -13.3310   20.4412 N   0  0  0  0  0  0
  -26.3030  -12.9338   20.3388 N   0  0  0  0  0  0
  -25.9330  -11.6491   20.5778 N   0  0  0  0  0  0
  -22.0504  -12.8218   22.0400 N   0  0  0  0  0  0
  -25.4245  -15.1879   20.4189 N   0  0  0  0  0  0
  -31.8067  -14.7291   20.1190 O   0  0  0  0  0  0
  -21.6627   -6.8881   21.4246 O   0  0  0  0  0  0
  -22.3530  -14.5538   20.6701 O   0  0  0  0  0  0
  -24.6194  -31.8657   23.2081 C   0  0  0  0  0  0
  -25.9068  -32.4813   23.8390 C   0  0  1  0  0  0
  -27.2308  -27.3990   20.1027 C   0  0  0  0  0  0
  -25.5913  -33.8611   24.2322 N   0  0  0  0  0  0
  -23.4100  -30.4890   21.5495 C   0  0  2  0  0  0
  -24.8583  -28.9561   20.1102 C   0  0  0  0  0  0
  -22.7444  -29.4646   22.4971 C   0  0  0  0  0  0
  -18.0280  -28.1381   22.8490 C   0  0  0  0  0  0
  -24.1487  -36.7311   23.2638 C   0  0  0  0  0  0
  -25.9434  -30.8209   21.3672 C   0  0  0  0  0  0
  -26.0228  -29.4550   20.7095 C   0  0  0  0  0  0
  -27.2164  -28.6866   20.6994 C   0  0  0  0  0  0
  -26.0485  -26.9300   19.4898 C   0  0  0  0  0  0
  -24.8684  -27.6942   19.4946 C   0  0  0  0  0  0
  -23.6205  -29.8248   20.1634 C   0  0  0  0  0  0
  -25.4109  -36.3104   24.0334 C   0  0  1  0  0  0
  -20.5874  -28.3676   23.1306 C   0  0  2  0  0  0
  -20.6769  -26.9410   22.5411 C   0  0  0  0  0  0
  -19.5745  -26.6386   21.5213 C   0  0  0  0  0  0
  -18.1924  -26.7929   22.1624 C   0  0  0  0  0  0
  -19.1531  -28.8846   23.2892 C   0  0  0  0  0  0
  -18.9455  -30.1452   23.8902 C   0  0  0  0  0  0
  -17.6454  -30.6586   24.0562 C   0  0  0  0  0  0
  -25.9039  -34.9469   23.5123 C   0  0  0  0  0  0
  -16.5347  -29.9083   23.6327 C   0  0  0  0  0  0
  -16.7269  -28.6501   23.0349 C   0  0  0  0  0  0
  -26.4477  -31.6595   25.0728 C   0  0  0  0  0  0
  -25.3734  -31.3707   26.1470 C   0  0  0  0  0  0
  -27.0316  -30.3035   24.6122 C   0  0  0  0  0  0
  -27.6048  -32.4319   25.7493 C   0  0  0  0  0  0
  -27.5582  -37.1811   24.8463 C   0  0  0  0  0  0
  -21.4166  -29.3038   22.3712 N   0  0  0  0  0  0
  -26.4293  -37.3792   23.9408 N   0  0  0  0  0  0
  -24.6758  -31.0729   22.0998 N   0  0  0  0  0  0
  -23.4195  -28.8190   23.3033 O   0  0  0  0  0  0
  -28.3413  -26.5683   20.1404 O   0  0  0  0  0  0
  -26.5596  -34.8921   22.4683 O   0  0  0  0  0  0
  -23.5376  -32.1418   23.7457 O   0  0  0  0  0  0
  -31.1838  -17.7071   20.9896 C   0  0  0  0  0  0
  -28.7892  -19.0699   20.5034 C   0  0  0  0  0  0
  -31.1956  -19.1311   20.8910 C   0  0  0  0  0  0
  -29.9692  -19.8421   20.6432 C   0  0  0  0  0  0
  -29.9933  -16.9570   20.8542 C   0  0  0  0  0  0
  -28.7992  -17.6621   20.6113 C   0  0  0  0  0  0
  -28.8702  -24.0836   20.6987 C   0  0  0  0  0  0
  -28.7348  -23.3394   19.5672 C   0  0  0  0  0  0
  -29.5835  -23.4452   21.8359 C   0  0  0  0  0  0
  -32.5303  -19.8114   21.0990 C   0  0  0  0  0  0
  -29.2639  -21.8958   19.3958 C   0  0  0  0  0  0
  -29.6534  -21.9050   21.8847 C   0  0  0  0  0  0
  -27.9657  -23.8203   18.3492 C   0  0  0  0  0  0
  -28.1458  -25.4238   21.0174 C   0  0  0  0  0  0
  -29.8750  -21.2668   20.5824 N   0  0  0  0  0  0
  -32.7595  -20.9281   20.4231 N   0  0  0  0  0  0
  -29.8934  -15.5340   21.0320 N   0  0  0  0  0  0
  -30.1121  -24.0854   22.7493 O   0  0  0  0  0  0
  -33.4036  -19.3108   21.8086 O   0  0  0  0  0  0
  -27.6405  -16.9711   20.4878 F   0  0  0  0  0  0
  -31.4780  -12.4588   19.1245 H   0  0  0  0  0  0
  -30.3573  -11.3326   19.8394 H   0  0  0  0  0  0
  -29.7476  -11.7793   17.4410 H   0  0  0  0  0  0
  -29.6571  -13.4927   17.7639 H   0  0  0  0  0  0
  -27.8415  -11.3056   18.8329 H   0  0  0  0  0  0
  -27.3696  -12.6233   17.7931 H   0  0  0  0  0  0
  -27.6951  -14.2552   19.5676 H   0  0  0  0  0  0
  -28.6965  -11.9700   21.3386 H   0  0  0  0  0  0
  -28.4612  -13.6019   21.8749 H   0  0  0  0  0  0
  -25.2757   -9.5684   22.4752 H   0  0  0  0  0  0
  -24.0009   -7.4623   22.7456 H   0  0  0  0  0  0
  -21.0843   -8.8767   19.8939 H   0  0  0  0  0  0
  -22.3697  -10.9670   19.6155 H   0  0  0  0  0  0
  -21.2003   -7.6155   23.9735 H   0  0  0  0  0  0
  -21.1487   -6.0525   25.9091 H   0  0  0  0  0  0
  -22.0593   -2.7616   23.2845 H   0  0  0  0  0  0
  -22.4134  -11.9882   22.4780 H   0  0  0  0  0  0
  -21.1119  -13.1232   22.2610 H   0  0  0  0  0  0
  -24.6617  -15.8391   20.5629 H   0  0  0  0  0  0
  -26.3025  -15.6582   20.2204 H   0  0  0  0  0  0
  -26.7145  -32.5508   23.1158 H   0  0  0  0  0  0
  -25.0073  -33.9772   25.0472 H   0  0  0  0  0  0
  -22.6997  -31.3064   21.4107 H   0  0  0  0  0  0
  -23.3745  -35.9647   23.3301 H   0  0  0  0  0  0
  -24.3581  -36.8924   22.2052 H   0  0  0  0  0  0
  -23.7244  -37.6518   23.6654 H   0  0  0  0  0  0
  -26.0597  -31.5876   20.5999 H   0  0  0  0  0  0
  -26.8295  -30.8721   21.9882 H   0  0  0  0  0  0
  -28.1115  -29.0631   21.1753 H   0  0  0  0  0  0
  -26.0229  -25.9552   19.0266 H   0  0  0  0  0  0
  -23.9741  -27.3035   19.0291 H   0  0  0  0  0  0
  -23.7283  -30.6007   19.4045 H   0  0  0  0  0  0
  -22.7443  -29.2452   19.8675 H   0  0  0  0  0  0
  -25.1286  -36.1965   25.0827 H   0  0  0  0  0  0
  -20.9959  -28.3242   24.1431 H   0  0  0  0  0  0
  -20.5678  -26.2287   23.3601 H   0  0  0  0  0  0
  -21.6639  -26.7452   22.1204 H   0  0  0  0  0  0
  -19.6904  -25.6295   21.1239 H   0  0  0  0  0  0
  -19.6684  -27.3201   20.6744 H   0  0  0  0  0  0
  -17.4195  -26.6685   21.4020 H   0  0  0  0  0  0
  -18.0321  -26.0067   22.9016 H   0  0  0  0  0  0
  -19.7928  -30.7270   24.2275 H   0  0  0  0  0  0
  -17.5006  -31.6266   24.5162 H   0  0  0  0  0  0
  -15.5349  -30.2982   23.7652 H   0  0  0  0  0  0
  -15.8668  -28.0821   22.7060 H   0  0  0  0  0  0
  -24.5906  -30.7057   25.7807 H   0  0  0  0  0  0
  -24.8924  -32.2860   26.4924 H   0  0  0  0  0  0
  -25.8075  -30.8870   27.0227 H   0  0  0  0  0  0
  -26.2872  -29.6800   24.1159 H   0  0  0  0  0  0
  -27.4061  -29.7273   25.4594 H   0  0  0  0  0  0
  -27.8717  -30.4353   23.9300 H   0  0  0  0  0  0
  -27.2663  -33.3610   26.2090 H   0  0  0  0  0  0
  -28.3842  -32.6895   25.0311 H   0  0  0  0  0  0
  -28.0730  -31.8430   26.5388 H   0  0  0  0  0  0
  -28.2599  -38.0110   24.7516 H   0  0  0  0  0  0
  -28.1079  -36.2641   24.6280 H   0  0  0  0  0  0
  -27.2298  -37.1449   25.8866 H   0  0  0  0  0  0
  -20.9336  -29.8768   21.6932 H   0  0  0  0  0  0
  -26.0178  -38.2867   24.1413 H   0  0  0  0  0  0
  -32.1078  -17.1856   21.1955 H   0  0  0  0  0  0
  -27.8394  -19.5547   20.3373 H   0  0  0  0  0  0
  -30.0010  -21.9010   18.5912 H   0  0  0  0  0  0
  -28.4324  -21.2908   19.0332 H   0  0  0  0  0  0
  -28.7234  -21.5351   22.3192 H   0  0  0  0  0  0
  -30.4542  -21.6175   22.5675 H   0  0  0  0  0  0
  -28.5062  -23.5576   17.4394 H   0  0  0  0  0  0
  -26.9814  -23.3540   18.3063 H   0  0  0  0  0  0
  -27.8416  -24.8995   18.3340 H   0  0  0  0  0  0
  -28.4131  -25.7715   22.0158 H   0  0  0  0  0  0
  -27.0905  -25.1611   21.1036 H   0  0  0  0  0  0
  -31.9825  -21.3353   19.9176 H   0  0  0  0  0  0
  -33.6399  -21.4151   20.4974 H   0  0  0  0  0  0
  -28.9689  -15.2217   21.2870 H   0  0  0  0  0  0
  1 25  1  0  0  0
  1 30  2  0  0  0
  1 87  1  0  0  0
  2  3  1  0  0  0
  2 25  1  0  0  0
  2 91  1  0  0  0
  2 92  1  0  0  0
  3  4  1  0  0  0
  3 93  1  0  0  0
  3 94  1  0  0  0
  4  5  1  0  0  0
  4 95  1  0  0  0
  4 96  1  0  0  0
  5  6  1  0  0  0
  5 26  1  0  0  0
  5 97  1  0  0  0
  6 25  1  0  0  0
  6 98  1  0  0  0
  6 99  1  0  0  0
  7  8  2  0  0  0
  7 26  1  0  0  0
  7 29  1  0  0  0
  8  9  1  0  0  0
  8 22  1  0  0  0
  9 10  1  0  0  0
  9 27  2  0  0  0
 10 11  2  0  0  0
 10 15  1  0  0  0
 11 12  1  0  0  0
 11100  1  0  0  0
 12 13  2  0  0  0
 12101  1  0  0  0
 13 14  1  0  0  0
 13 31  1  0  0  0
 14 15  2  0  0  0
 14102  1  0  0  0
 15103  1  0  0  0
 16 17  2  0  0  0
 16 21  1  0  0  0
 16 31  1  0  0  0
 17 18  1  0  0  0
 17104  1  0  0  0
 18 19  2  0  0  0
 18105  1  0  0  0
 19 20  1  0  0  0
 19 24  1  0  0  0
 20 21  2  0  0  0
 20106  1  0  0  0
 21 23  1  0  0  0
 22 28  1  0  0  0
 22 32  2  0  0  0
 26 27  1  0  0  0
 28107  1  0  0  0
 28108  1  0  0  0
 29109  1  0  0  0
 29110  1  0  0  0
 33 34  1  0  0  0
 33 66  1  0  0  0
 33 70  2  0  0  0
 34 36  1  0  0  0
 34 59  1  0  0  0
 34111  1  0  0  0
 35 44  2  0  0  0
 35 45  1  0  0  0
 35 68  1  0  0  0
 36 56  1  0  0  0
 36112  1  0  0  0
 37 39  1  0  0  0
 37 47  1  0  0  0
 37 66  1  0  0  0
 37113  1  0  0  0
 38 43  2  0  0  0
 38 46  1  0  0  0
 38 47  1  0  0  0
 39 64  1  0  0  0
 39 67  2  0  0  0
 40 52  1  0  0  0
 40 53  2  0  0  0
 40 58  1  0  0  0
 41114  1  0  0  0
 41115  1  0  0  0
 41116  1  0  0  0
 41 48  1  0  0  0
 42 43  1  0  0  0
 42 66  1  0  0  0
 42117  1  0  0  0
 42118  1  0  0  0
 43 44  1  0  0  0
 44119  1  0  0  0
 45 46  2  0  0  0
 45120  1  0  0  0
 46121  1  0  0  0
 47122  1  0  0  0
 47123  1  0  0  0
 48 56  1  0  0  0
 48 65  1  0  0  0
 48124  1  0  0  0
 49 50  1  0  0  0
 49 53  1  0  0  0
 49 64  1  0  0  0
 49125  1  0  0  0
 50 51  1  0  0  0
 50126  1  0  0  0
 50127  1  0  0  0
 51 52  1  0  0  0
 51128  1  0  0  0
 51129  1  0  0  0
 52130  1  0  0  0
 52131  1  0  0  0
 53 54  1  0  0  0
 54 55  2  0  0  0
 54132  1  0  0  0
 55 57  1  0  0  0
 55133  1  0  0  0
 56 69  2  0  0  0
 57 58  2  0  0  0
 57134  1  0  0  0
 58135  1  0  0  0
 59 60  1  0  0  0
 59 61  1  0  0  0
 59 62  1  0  0  0
 60136  1  0  0  0
 60137  1  0  0  0
 60138  1  0  0  0
 61139  1  0  0  0
 61140  1  0  0  0
 61141  1  0  0  0
 62142  1  0  0  0
 62143  1  0  0  0
 62144  1  0  0  0
 63 65  1  0  0  0
 63145  1  0  0  0
 63146  1  0  0  0
 63147  1  0  0  0
 64148  1  0  0  0
 65149  1  0  0  0
 68 84  1  0  0  0
 71 73  2  0  0  0
 71 75  1  0  0  0
 71150  1  0  0  0
 72 74  2  0  0  0
 72 76  1  0  0  0
 72151  1  0  0  0
 73 74  1  0  0  0
 73 80  1  0  0  0
 74 85  1  0  0  0
 75 76  2  0  0  0
 75 87  1  0  0  0
 76 90  1  0  0  0
 77 78  2  0  0  0
 77 79  1  0  0  0
 77 84  1  0  0  0
 78 81  1  0  0  0
 78 83  1  0  0  0
 79 82  1  0  0  0
 79 88  2  0  0  0
 80 86  1  0  0  0
 80 89  2  0  0  0
 81 85  1  0  0  0
 81152  1  0  0  0
 81153  1  0  0  0
 82 85  1  0  0  0
 82154  1  0  0  0
 82155  1  0  0  0
 83156  1  0  0  0
 83157  1  0  0  0
 83158  1  0  0  0
 84159  1  0  0  0
 84160  1  0  0  0
 86161  1  0  0  0
 86162  1  0  0  0
 87163  1  0  0  0
M  ISO  4   1 100  68 101  84 101  87 100
M  END
> <chiral flag>
0

> <version>
0

> <s_m_source_file>
/data/baiqing/PycharmProjects/Reinvent-master-3.2/result/LINK_invent/BTK/process_docking_weight1_custom_product_contain_oxygen_bond_distance_aromatic_linkinvent_7_9_3/rearranged_h_0089.sdf

> <i_m_source_file_index>
43

> <r_mmod_Potential_Energy-OPLS-2005>
-46.7387428283691

> <r_mmod_Stretch_Energy-OPLS-2005>
55.4379196166992

> <r_mmod_Bend_Energy-OPLS-2005>
122.948913574219

> <r_mmod_Torsional_Energy-OPLS-2005>
277.257354736328

> <r_mmod_Improper_Torsional_Energy-OPLS-2005>
8.27298259735107

> <r_mmod_Van_der_Waal_Energy-OPLS-2005>
165.101821899414

> <r_mmod_Electrostatic_Energy-OPLS-2005>
-459.482482910156

> <r_mmod_Solvation_Energy-OPLS-2005>
-239.227844238281

> <b_mmod_Minimization_Converged-OPLS-2005>
0

> <r_mmod_RMS_Derivative-OPLS-2005>
0.937879800796509

$$$$
43
                    3D
 Structure written by MMmdl.
149157  0  0  1  0            999 V2000
  -30.6973  -14.6722   20.4675 C   0  0  0  0  0  0
  -30.4091  -12.4140   19.4645 C   0  0  0  0  0  0
  -29.4958  -12.4919   18.2258 C   0  0  0  0  0  0
  -28.0234  -12.3308   18.6448 C   0  0  0  0  0  0
  -27.6382  -13.2362   19.8465 C   0  0  2  0  0  0
  -28.6867  -13.1846   20.9796 C   0  0  0  0  0  0
  -25.2496  -13.8216   20.5719 C   0  0  0  0  0  0
  -24.1790  -13.0449   20.9208 C   0  0  0  0  0  0
  -24.6390  -11.6930   20.8754 C   0  0  0  0  0  0
  -23.9074  -10.4298   21.0406 C   0  0  0  0  0  0
  -24.3623   -9.4212   21.9185 C   0  0  0  0  0  0
  -23.6301   -8.2245   22.0753 C   0  0  0  0  0  0
  -22.4283   -8.0282   21.3544 C   0  0  0  0  0  0
  -21.9917   -9.0255   20.4646 C   0  0  0  0  0  0
  -22.7244  -10.2136   20.3056 C   0  0  0  0  0  0
  -21.6854   -6.0737   22.5279 C   0  0  0  0  0  0
  -21.4017   -6.5642   23.8213 C   0  0  0  0  0  0
  -21.3659   -5.6794   24.9174 C   0  0  0  0  0  0
  -21.6044   -4.3058   24.7225 C   0  0  0  0  0  0
  -21.8820   -3.8148   23.4348 C   0  0  0  0  0  0
  -21.9194   -4.6963   22.3403 C   0  0  0  0  0  0
  -22.7810  -13.5221   21.1864 C   0  0  0  0  0  0
  -22.1662   -4.2149   21.0981 F   0  0  0  0  0  0
  -21.5626   -3.4540   25.7738 F   0  0  0  0  0  0
  -29.9897  -13.4969   20.3838 N   0  0  0  0  0  0
  -26.2927  -12.9436   20.3300 N   0  0  0  0  0  0
  -25.9324  -11.6571   20.5770 N   0  0  0  0  0  0
  -22.0463  -12.8210   22.0423 N   0  0  0  0  0  0
  -25.4181  -15.1943   20.4170 N   0  0  0  0  0  0
  -31.8937  -14.6466   20.1690 O   0  0  0  0  0  0
  -21.6644   -6.8881   21.4243 O   0  0  0  0  0  0
  -22.3488  -14.5522   20.6709 O   0  0  0  0  0  0
  -24.6278  -31.8587   23.2026 C   0  0  0  0  0  0
  -25.9122  -32.4772   23.8356 C   0  0  1  0  0  0
  -27.2109  -27.3048   20.1246 C   0  0  0  0  0  0
  -25.5935  -33.8575   24.2283 N   0  0  0  0  0  0
  -23.4218  -30.4840   21.5449 C   0  0  2  0  0  0
  -24.8681  -28.9401   20.1075 C   0  0  0  0  0  0
  -22.7480  -29.4626   22.4926 C   0  0  0  0  0  0
  -18.0289  -28.1386   22.8493 C   0  0  0  0  0  0
  -24.1489  -36.7291   23.2639 C   0  0  0  0  0  0
  -25.9647  -30.7855   21.3762 C   0  0  0  0  0  0
  -26.0384  -29.4125   20.7178 C   0  0  0  0  0  0
  -27.2177  -28.6062   20.7177 C   0  0  0  0  0  0
  -26.0282  -26.8980   19.4721 C   0  0  0  0  0  0
  -24.8660  -27.6893   19.4730 C   0  0  0  0  0  0
  -23.6367  -29.8217   20.1589 C   0  0  0  0  0  0
  -25.4114  -36.3081   24.0330 C   0  0  1  0  0  0
  -20.5892  -28.3690   23.1280 C   0  0  2  0  0  0
  -20.6780  -26.9411   22.5410 C   0  0  0  0  0  0
  -19.5752  -26.6386   21.5215 C   0  0  0  0  0  0
  -18.1933  -26.7930   22.1632 C   0  0  0  0  0  0
  -19.1542  -28.8855   23.2883 C   0  0  0  0  0  0
  -18.9465  -30.1460   23.8895 C   0  0  0  0  0  0
  -17.6463  -30.6588   24.0565 C   0  0  0  0  0  0
  -25.9050  -34.9450   23.5104 C   0  0  0  0  0  0
  -16.5355  -29.9086   23.6333 C   0  0  0  0  0  0
  -16.7276  -28.6504   23.0354 C   0  0  0  0  0  0
  -26.4500  -31.6584   25.0727 C   0  0  0  0  0  0
  -25.3733  -31.3736   26.1455 C   0  0  0  0  0  0
  -27.0337  -30.3006   24.6187 C   0  0  0  0  0  0
  -27.6064  -32.4316   25.7492 C   0  0  0  0  0  0
  -27.5578  -37.1800   24.8465 C   0  0  0  0  0  0
  -21.4192  -29.3047   22.3671 N   0  0  0  0  0  0
  -26.4291  -37.3776   23.9408 N   0  0  0  0  0  0
  -24.6902  -31.0592   22.0980 N   0  0  0  0  0  0
  -23.4195  -28.8159   23.3005 O   0  0  0  0  0  0
  -28.2793  -26.3966   20.1742 O   0  0  0  0  0  0
  -26.5612  -34.8922   22.4666 O   0  0  0  0  0  0
  -23.5440  -32.1391   23.7349 O   0  0  0  0  0  0
  -30.5839  -19.6159   20.0669 C   0  0  0  0  0  0
  -30.0702  -20.9489   20.0721 C   0  0  0  0  0  0
  -28.0604  -20.1111   21.0695 C   0  0  0  0  0  0
  -29.8753  -18.4853   20.5815 C   0  0  0  0  0  0
  -28.7908  -21.2480   20.6046 C   0  0  0  0  0  0
  -28.5738  -18.7720   21.0677 C   0  0  0  0  0  0
  -28.6752  -23.7381   20.3971 C   0  0  0  0  0  0
  -30.6157  -17.1284   20.7321 C   0  0  0  0  0  0
  -27.9554  -25.0892   20.8143 C   0  0  0  0  0  0
  -28.2191  -22.5664   20.7612 N   0  0  0  0  0  0
  -30.0283  -15.8761   20.6419 N   0  0  0  0  0  0
  -31.8337  -17.2486   20.9187 O   0  0  0  0  0  0
  -27.8150  -17.7715   21.5787 F   0  0  0  0  0  0
  -31.4538  -12.4891   19.1586 H   0  0  0  0  0  0
  -30.3155  -11.4426   19.9533 H   0  0  0  0  0  0
  -29.7665  -11.7172   17.5071 H   0  0  0  0  0  0
  -29.6367  -13.4472   17.7169 H   0  0  0  0  0  0
  -27.8742  -11.2832   18.9096 H   0  0  0  0  0  0
  -27.3641  -12.5248   17.7979 H   0  0  0  0  0  0
  -27.6295  -14.2557   19.4602 H   0  0  0  0  0  0
  -28.7084  -12.1990   21.4471 H   0  0  0  0  0  0
  -28.4384  -13.8963   21.7686 H   0  0  0  0  0  0
  -25.2769   -9.5687   22.4759 H   0  0  0  0  0  0
  -24.0009   -7.4635   22.7473 H   0  0  0  0  0  0
  -21.0846   -8.8771   19.8953 H   0  0  0  0  0  0
  -22.3700  -10.9673   19.6163 H   0  0  0  0  0  0
  -21.2011   -7.6151   23.9716 H   0  0  0  0  0  0
  -21.1480   -6.0525   25.9078 H   0  0  0  0  0  0
  -22.0599   -2.7610   23.2847 H   0  0  0  0  0  0
  -22.4088  -11.9878   22.4817 H   0  0  0  0  0  0
  -21.1076  -13.1223   22.2627 H   0  0  0  0  0  0
  -24.6572  -15.8504   20.5544 H   0  0  0  0  0  0
  -26.2793  -15.6450   20.1375 H   0  0  0  0  0  0
  -26.7183  -32.5434   23.1098 H   0  0  0  0  0  0
  -25.0099  -33.9722   25.0439 H   0  0  0  0  0  0
  -22.7174  -31.3063   21.4033 H   0  0  0  0  0  0
  -23.3754  -35.9620   23.3301 H   0  0  0  0  0  0
  -24.3586  -36.8905   22.2053 H   0  0  0  0  0  0
  -23.7240  -37.6497   23.6654 H   0  0  0  0  0  0
  -26.0983  -31.5482   20.6077 H   0  0  0  0  0  0
  -26.8451  -30.8336   22.0053 H   0  0  0  0  0  0
  -28.1120  -28.9582   21.2129 H   0  0  0  0  0  0
  -25.9904  -25.9375   18.9776 H   0  0  0  0  0  0
  -23.9720  -27.3257   18.9851 H   0  0  0  0  0  0
  -23.7562  -30.5997   19.4038 H   0  0  0  0  0  0
  -22.7560  -29.2523   19.8551 H   0  0  0  0  0  0
  -25.1295  -36.1930   25.0823 H   0  0  0  0  0  0
  -20.9992  -28.3259   24.1398 H   0  0  0  0  0  0
  -20.5693  -26.2294   23.3609 H   0  0  0  0  0  0
  -21.6646  -26.7445   22.1193 H   0  0  0  0  0  0
  -19.6907  -25.6298   21.1241 H   0  0  0  0  0  0
  -19.6683  -27.3202   20.6750 H   0  0  0  0  0  0
  -17.4203  -26.6683   21.4031 H   0  0  0  0  0  0
  -18.0331  -26.0073   22.9027 H   0  0  0  0  0  0
  -19.7938  -30.7282   24.2255 H   0  0  0  0  0  0
  -17.5017  -31.6268   24.5164 H   0  0  0  0  0  0
  -15.5355  -30.2986   23.7661 H   0  0  0  0  0  0
  -15.8678  -28.0823   22.7064 H   0  0  0  0  0  0
  -24.5895  -30.7097   25.7791 H   0  0  0  0  0  0
  -24.8945  -32.2912   26.4881 H   0  0  0  0  0  0
  -25.8060  -30.8908   27.0227 H   0  0  0  0  0  0
  -26.2906  -29.6759   24.1214 H   0  0  0  0  0  0
  -27.4035  -29.7258   25.4690 H   0  0  0  0  0  0
  -27.8780  -30.4295   23.9410 H   0  0  0  0  0  0
  -27.2681  -33.3628   26.2052 H   0  0  0  0  0  0
  -28.3882  -32.6852   25.0319 H   0  0  0  0  0  0
  -28.0720  -31.8445   26.5419 H   0  0  0  0  0  0
  -28.2596  -38.0096   24.7515 H   0  0  0  0  0  0
  -28.1071  -36.2630   24.6285 H   0  0  0  0  0  0
  -27.2300  -37.1440   25.8868 H   0  0  0  0  0  0
  -20.9363  -29.8771   21.6887 H   0  0  0  0  0  0
  -26.0170  -38.2848   24.1417 H   0  0  0  0  0  0
  -31.5872  -19.4706   19.6908 H   0  0  0  0  0  0
  -30.6994  -21.7426   19.6943 H   0  0  0  0  0  0
  -27.0741  -20.2665   21.4829 H   0  0  0  0  0  0
  -29.5915  -23.8624   19.8142 H   0  0  0  0  0  0
  -28.1613  -25.2289   21.8759 H   0  0  0  0  0  0
  -26.8853  -24.8858   20.7799 H   0  0  0  0  0  0
  -29.0227  -15.8514   20.6549 H   0  0  0  0  0  0
  1 25  1  0  0  0
  1 30  2  0  0  0
  1 81  1  0  0  0
  2  3  1  0  0  0
  2 25  1  0  0  0
  2 84  1  0  0  0
  2 85  1  0  0  0
  3  4  1  0  0  0
  3 86  1  0  0  0
  3 87  1  0  0  0
  4  5  1  0  0  0
  4 88  1  0  0  0
  4 89  1  0  0  0
  5  6  1  0  0  0
  5 26  1  0  0  0
  5 90  1  0  0  0
  6 25  1  0  0  0
  6 91  1  0  0  0
  6 92  1  0  0  0
  7  8  2  0  0  0
  7 26  1  0  0  0
  7 29  1  0  0  0
  8  9  1  0  0  0
  8 22  1  0  0  0
  9 10  1  0  0  0
  9 27  2  0  0  0
 10 11  2  0  0  0
 10 15  1  0  0  0
 11 12  1  0  0  0
 11 93  1  0  0  0
 12 13  2  0  0  0
 12 94  1  0  0  0
 13 14  1  0  0  0
 13 31  1  0  0  0
 14 15  2  0  0  0
 14 95  1  0  0  0
 15 96  1  0  0  0
 16 17  2  0  0  0
 16 21  1  0  0  0
 16 31  1  0  0  0
 17 18  1  0  0  0
 17 97  1  0  0  0
 18 19  2  0  0  0
 18 98  1  0  0  0
 19 20  1  0  0  0
 19 24  1  0  0  0
 20 21  2  0  0  0
 20 99  1  0  0  0
 21 23  1  0  0  0
 22 28  1  0  0  0
 22 32  2  0  0  0
 26 27  1  0  0  0
 28100  1  0  0  0
 28101  1  0  0  0
 29102  1  0  0  0
 29103  1  0  0  0
 33 34  1  0  0  0
 33 66  1  0  0  0
 33 70  2  0  0  0
 34 36  1  0  0  0
 34 59  1  0  0  0
 34104  1  0  0  0
 35 44  2  0  0  0
 35 45  1  0  0  0
 35 68  1  0  0  0
 36 56  1  0  0  0
 36105  1  0  0  0
 37 39  1  0  0  0
 37 47  1  0  0  0
 37 66  1  0  0  0
 37106  1  0  0  0
 38 43  2  0  0  0
 38 46  1  0  0  0
 38 47  1  0  0  0
 39 64  1  0  0  0
 39 67  2  0  0  0
 40 52  1  0  0  0
 40 53  2  0  0  0
 40 58  1  0  0  0
 41107  1  0  0  0
 41108  1  0  0  0
 41109  1  0  0  0
 41 48  1  0  0  0
 42 43  1  0  0  0
 42 66  1  0  0  0
 42110  1  0  0  0
 42111  1  0  0  0
 43 44  1  0  0  0
 44112  1  0  0  0
 45 46  2  0  0  0
 45113  1  0  0  0
 46114  1  0  0  0
 47115  1  0  0  0
 47116  1  0  0  0
 48 56  1  0  0  0
 48 65  1  0  0  0
 48117  1  0  0  0
 49 50  1  0  0  0
 49 53  1  0  0  0
 49 64  1  0  0  0
 49118  1  0  0  0
 50 51  1  0  0  0
 50119  1  0  0  0
 50120  1  0  0  0
 51 52  1  0  0  0
 51121  1  0  0  0
 51122  1  0  0  0
 52123  1  0  0  0
 52124  1  0  0  0
 53 54  1  0  0  0
 54 55  2  0  0  0
 54125  1  0  0  0
 55 57  1  0  0  0
 55126  1  0  0  0
 56 69  2  0  0  0
 57 58  2  0  0  0
 57127  1  0  0  0
 58128  1  0  0  0
 59 60  1  0  0  0
 59 61  1  0  0  0
 59 62  1  0  0  0
 60129  1  0  0  0
 60130  1  0  0  0
 60131  1  0  0  0
 61132  1  0  0  0
 61133  1  0  0  0
 61134  1  0  0  0
 62135  1  0  0  0
 62136  1  0  0  0
 62137  1  0  0  0
 63 65  1  0  0  0
 63138  1  0  0  0
 63139  1  0  0  0
 63140  1  0  0  0
 64141  1  0  0  0
 65142  1  0  0  0
 68 79  1  0  0  0
 71 72  2  0  0  0
 71 74  1  0  0  0
 71143  1  0  0  0
 72 75  1  0  0  0
 72144  1  0  0  0
 73 75  2  0  0  0
 73 76  1  0  0  0
 73145  1  0  0  0
 74 76  2  0  0  0
 74 78  1  0  0  0
 75 80  1  0  0  0
 76 83  1  0  0  0
 77 79  1  0  0  0
 77 80  2  0  0  0
 77146  1  0  0  0
 78 81  1  0  0  0
 78 82  2  0  0  0
 79147  1  0  0  0
 79148  1  0  0  0
 81149  1  0  0  0
M  ISO  4   1 100  68 101  79 101  81 100
M  END
> <chiral flag>
0

> <version>
0

> <s_m_source_file>
/data/baiqing/PycharmProjects/Reinvent-master-3.2/result/LINK_invent/BTK/process_docking_weight1_custom_product_contain_oxygen_bond_distance_aromatic_linkinvent_7_9_3/rearranged_h_0089.sdf

> <i_m_source_file_index>
44

> <r_mmod_Potential_Energy-OPLS-2005>
112.583511352539

> <r_mmod_Stretch_Energy-OPLS-2005>
91.4567794799805

> <r_mmod_Bend_Energy-OPLS-2005>
169.932464599609

> <r_mmod_Torsional_Energy-OPLS-2005>
239.018981933594

> <r_mmod_Improper_Torsional_Energy-OPLS-2005>
6.20280027389526

> <r_mmod_Van_der_Waal_Energy-OPLS-2005>
156.562911987305

> <r_mmod_Electrostatic_Energy-OPLS-2005>
-402.642517089844

> <r_mmod_Solvation_Energy-OPLS-2005>
-216.218353271484

> <b_mmod_Minimization_Converged-OPLS-2005>
0

> <r_mmod_RMS_Derivative-OPLS-2005>
0.673451483249664

$$$$
44
                    3D
 Structure written by MMmdl.
153162  0  0  1  0            999 V2000
  -30.6056  -14.6718   20.4953 C   0  0  0  0  0  0
  -30.4428  -12.4112   19.4581 C   0  0  0  0  0  0
  -29.5113  -12.5151   18.2286 C   0  0  0  0  0  0
  -28.0353  -12.3436   18.6400 C   0  0  0  0  0  0
  -27.6540  -13.2172   19.8645 C   0  0  2  0  0  0
  -28.6991  -13.0787   20.9953 C   0  0  0  0  0  0
  -25.2570  -13.8174   20.5689 C   0  0  0  0  0  0
  -24.1835  -13.0440   20.9190 C   0  0  0  0  0  0
  -24.6400  -11.6910   20.8742 C   0  0  0  0  0  0
  -23.9067  -10.4292   21.0412 C   0  0  0  0  0  0
  -24.3618   -9.4204   21.9185 C   0  0  0  0  0  0
  -23.6293   -8.2241   22.0756 C   0  0  0  0  0  0
  -22.4275   -8.0281   21.3546 C   0  0  0  0  0  0
  -21.9912   -9.0255   20.4646 C   0  0  0  0  0  0
  -22.7243  -10.2134   20.3058 C   0  0  0  0  0  0
  -21.6850   -6.0737   22.5284 C   0  0  0  0  0  0
  -21.4014   -6.5644   23.8217 C   0  0  0  0  0  0
  -21.3659   -5.6795   24.9177 C   0  0  0  0  0  0
  -21.6047   -4.3059   24.7228 C   0  0  0  0  0  0
  -21.8820   -3.8149   23.4349 C   0  0  0  0  0  0
  -21.9191   -4.6966   22.3406 C   0  0  0  0  0  0
  -22.7856  -13.5234   21.1851 C   0  0  0  0  0  0
  -22.1660   -4.2154   21.0981 F   0  0  0  0  0  0
  -21.5627   -3.4541   25.7739 F   0  0  0  0  0  0
  -30.0127  -13.4342   20.4339 N   0  0  0  0  0  0
  -26.2994  -12.9353   20.3323 N   0  0  0  0  0  0
  -25.9328  -11.6510   20.5758 N   0  0  0  0  0  0
  -22.0493  -12.8226   22.0403 N   0  0  0  0  0  0
  -25.4286  -15.1893   20.4095 N   0  0  0  0  0  0
  -31.7643  -14.8415   20.1030 O   0  0  0  0  0  0
  -21.6634   -6.8882   21.4247 O   0  0  0  0  0  0
  -22.3546  -14.5539   20.6697 O   0  0  0  0  0  0
  -24.6275  -31.8586   23.2013 C   0  0  0  0  0  0
  -25.9115  -32.4773   23.8348 C   0  0  1  0  0  0
  -27.2291  -27.3121   20.1229 C   0  0  0  0  0  0
  -25.5927  -33.8574   24.2276 N   0  0  0  0  0  0
  -23.4227  -30.4810   21.5431 C   0  0  2  0  0  0
  -24.8732  -28.9340   20.1110 C   0  0  0  0  0  0
  -22.7480  -29.4623   22.4929 C   0  0  0  0  0  0
  -18.0287  -28.1384   22.8495 C   0  0  0  0  0  0
  -24.1491  -36.7286   23.2636 C   0  0  0  0  0  0
  -25.9647  -30.7869   21.3756 C   0  0  0  0  0  0
  -26.0415  -29.4127   20.7195 C   0  0  0  0  0  0
  -27.2242  -28.6118   20.7188 C   0  0  0  0  0  0
  -26.0431  -26.8916   19.4825 C   0  0  0  0  0  0
  -24.8759  -27.6786   19.4834 C   0  0  0  0  0  0
  -23.6401  -29.8135   20.1597 C   0  0  0  0  0  0
  -25.4116  -36.3081   24.0330 C   0  0  1  0  0  0
  -20.5889  -28.3695   23.1279 C   0  0  2  0  0  0
  -20.6773  -26.9414   22.5413 C   0  0  0  0  0  0
  -19.5747  -26.6386   21.5216 C   0  0  0  0  0  0
  -18.1926  -26.7930   22.1626 C   0  0  0  0  0  0
  -19.1542  -28.8856   23.2882 C   0  0  0  0  0  0
  -18.9463  -30.1460   23.8895 C   0  0  0  0  0  0
  -17.6464  -30.6588   24.0565 C   0  0  0  0  0  0
  -25.9056  -34.9449   23.5105 C   0  0  0  0  0  0
  -16.5356  -29.9087   23.6331 C   0  0  0  0  0  0
  -16.7275  -28.6501   23.0359 C   0  0  0  0  0  0
  -26.4498  -31.6580   25.0717 C   0  0  0  0  0  0
  -25.3739  -31.3710   26.1448 C   0  0  0  0  0  0
  -27.0338  -30.3001   24.6173 C   0  0  0  0  0  0
  -27.6058  -32.4311   25.7489 C   0  0  0  0  0  0
  -27.5587  -37.1792   24.8459 C   0  0  0  0  0  0
  -21.4192  -29.3046   22.3671 N   0  0  0  0  0  0
  -26.4290  -37.3784   23.9419 N   0  0  0  0  0  0
  -24.6901  -31.0591   22.0968 N   0  0  0  0  0  0
  -23.4194  -28.8166   23.3020 O   0  0  0  0  0  0
  -28.3205  -26.4275   20.1535 O   0  0  0  0  0  0
  -26.5626  -34.8920   22.4674 O   0  0  0  0  0  0
  -23.5435  -32.1389   23.7333 O   0  0  0  0  0  0
  -28.6351  -19.3531   21.0775 C   0  0  0  0  0  0
  -30.7290  -19.3533   19.9184 C   0  0  0  0  0  0
  -28.7258  -17.9338   21.2157 C   0  0  0  0  0  0
  -30.8240  -17.9291   20.0578 C   0  0  0  0  0  0
  -29.6315  -20.1191   20.4187 C   0  0  0  0  0  0
  -29.8156  -17.1698   20.7115 C   0  0  0  0  0  0
  -28.7975  -23.9334   20.3067 C   0  0  0  0  0  0
  -30.0719  -23.8224   19.5930 C   0  0  0  0  0  0
  -28.0669  -25.0849   20.5289 C   0  0  0  0  0  0
  -28.4655  -22.4735   20.7380 C   0  0  0  0  0  0
  -30.5501  -22.3564   19.5628 C   0  0  0  0  0  0
  -29.5401  -21.5557   20.2657 N   0  0  0  0  0  0
  -29.7859  -15.7078   20.8773 N   0  0  0  0  0  0
  -30.7110  -24.7427   19.0740 O   0  0  0  0  0  0
  -31.4835  -12.5427   19.1563 H   0  0  0  0  0  0
  -30.3846  -11.4167   19.9028 H   0  0  0  0  0  0
  -29.7819  -11.7654   17.4841 H   0  0  0  0  0  0
  -29.6467  -13.4854   17.7474 H   0  0  0  0  0  0
  -27.8784  -11.2901   18.8749 H   0  0  0  0  0  0
  -27.3797  -12.5667   17.7977 H   0  0  0  0  0  0
  -27.6692  -14.2513   19.5197 H   0  0  0  0  0  0
  -28.7178  -12.0563   21.3763 H   0  0  0  0  0  0
  -28.4380  -13.7055   21.8491 H   0  0  0  0  0  0
  -25.2766   -9.5681   22.4753 H   0  0  0  0  0  0
  -24.0005   -7.4634   22.7478 H   0  0  0  0  0  0
  -21.0846   -8.8778   19.8944 H   0  0  0  0  0  0
  -22.3709  -10.9674   19.6164 H   0  0  0  0  0  0
  -21.2008   -7.6155   23.9723 H   0  0  0  0  0  0
  -21.1480   -6.0524   25.9080 H   0  0  0  0  0  0
  -22.0597   -2.7611   23.2848 H   0  0  0  0  0  0
  -22.4106  -11.9879   22.4784 H   0  0  0  0  0  0
  -21.1108  -13.1252   22.2608 H   0  0  0  0  0  0
  -24.6585  -15.8419   20.5091 H   0  0  0  0  0  0
  -26.2727  -15.6248   20.0602 H   0  0  0  0  0  0
  -26.7186  -32.5445   23.1099 H   0  0  0  0  0  0
  -25.0078  -33.9716   25.0424 H   0  0  0  0  0  0
  -22.7175  -31.3021   21.3969 H   0  0  0  0  0  0
  -23.3769  -35.9600   23.3274 H   0  0  0  0  0  0
  -24.3588  -36.8930   22.2054 H   0  0  0  0  0  0
  -23.7218  -37.6470   23.6676 H   0  0  0  0  0  0
  -26.0978  -31.5496   20.6075 H   0  0  0  0  0  0
  -26.8439  -30.8371   22.0061 H   0  0  0  0  0  0
  -28.1202  -28.9708   21.2058 H   0  0  0  0  0  0
  -26.0093  -25.9263   18.9972 H   0  0  0  0  0  0
  -23.9824  -27.3062   19.0013 H   0  0  0  0  0  0
  -23.7583  -30.5884   19.4016 H   0  0  0  0  0  0
  -22.7610  -29.2412   19.8574 H   0  0  0  0  0  0
  -25.1294  -36.1931   25.0823 H   0  0  0  0  0  0
  -20.9988  -28.3273   24.1397 H   0  0  0  0  0  0
  -20.5673  -26.2305   23.3617 H   0  0  0  0  0  0
  -21.6642  -26.7434   22.1209 H   0  0  0  0  0  0
  -19.6909  -25.6299   21.1239 H   0  0  0  0  0  0
  -19.6682  -27.3203   20.6751 H   0  0  0  0  0  0
  -17.4200  -26.6695   21.4021 H   0  0  0  0  0  0
  -18.0315  -26.0064   22.9012 H   0  0  0  0  0  0
  -19.7940  -30.7281   24.2257 H   0  0  0  0  0  0
  -17.5017  -31.6265   24.5169 H   0  0  0  0  0  0
  -15.5356  -30.2989   23.7648 H   0  0  0  0  0  0
  -15.8677  -28.0815   22.7080 H   0  0  0  0  0  0
  -24.5931  -30.7034   25.7788 H   0  0  0  0  0  0
  -24.8911  -32.2868   26.4866 H   0  0  0  0  0  0
  -25.8081  -30.8906   27.0226 H   0  0  0  0  0  0
  -26.2908  -29.6750   24.1206 H   0  0  0  0  0  0
  -27.4042  -29.7257   25.4675 H   0  0  0  0  0  0
  -27.8779  -30.4277   23.9390 H   0  0  0  0  0  0
  -27.2673  -33.3620   26.2050 H   0  0  0  0  0  0
  -28.3880  -32.6849   25.0323 H   0  0  0  0  0  0
  -28.0713  -31.8441   26.5416 H   0  0  0  0  0  0
  -28.2579  -38.0117   24.7558 H   0  0  0  0  0  0
  -28.1111  -36.2652   24.6225 H   0  0  0  0  0  0
  -27.2311  -37.1365   25.8860 H   0  0  0  0  0  0
  -20.9376  -29.8772   21.6880 H   0  0  0  0  0  0
  -26.0168  -38.2850   24.1457 H   0  0  0  0  0  0
  -27.7685  -19.8501   21.4888 H   0  0  0  0  0  0
  -31.5353  -19.8538   19.4026 H   0  0  0  0  0  0
  -27.9185  -17.4271   21.7252 H   0  0  0  0  0  0
  -31.6868  -17.4289   19.6418 H   0  0  0  0  0  0
  -27.1418  -25.0115   21.0841 H   0  0  0  0  0  0
  -27.5039  -22.1794   20.3151 H   0  0  0  0  0  0
  -28.3814  -22.4255   21.8247 H   0  0  0  0  0  0
  -31.5193  -22.2767   20.0561 H   0  0  0  0  0  0
  -30.6590  -22.0252   18.5295 H   0  0  0  0  0  0
  -28.9147  -15.3621   21.2484 H   0  0  0  0  0  0
  1 25  1  0  0  0
  1 30  2  0  0  0
  1 83  1  0  0  0
  2  3  1  0  0  0
  2 25  1  0  0  0
  2 85  1  0  0  0
  2 86  1  0  0  0
  3  4  1  0  0  0
  3 87  1  0  0  0
  3 88  1  0  0  0
  4  5  1  0  0  0
  4 89  1  0  0  0
  4 90  1  0  0  0
  5  6  1  0  0  0
  5 26  1  0  0  0
  5 91  1  0  0  0
  6 25  1  0  0  0
  6 92  1  0  0  0
  6 93  1  0  0  0
  7  8  2  0  0  0
  7 26  1  0  0  0
  7 29  1  0  0  0
  8  9  1  0  0  0
  8 22  1  0  0  0
  9 10  1  0  0  0
  9 27  2  0  0  0
 10 11  2  0  0  0
 10 15  1  0  0  0
 11 12  1  0  0  0
 11 94  1  0  0  0
 12 13  2  0  0  0
 12 95  1  0  0  0
 13 14  1  0  0  0
 13 31  1  0  0  0
 14 15  2  0  0  0
 14 96  1  0  0  0
 15 97  1  0  0  0
 16 17  2  0  0  0
 16 21  1  0  0  0
 16 31  1  0  0  0
 17 18  1  0  0  0
 17 98  1  0  0  0
 18 19  2  0  0  0
 18 99  1  0  0  0
 19 20  1  0  0  0
 19 24  1  0  0  0
 20 21  2  0  0  0
 20100  1  0  0  0
 21 23  1  0  0  0
 22 28  1  0  0  0
 22 32  2  0  0  0
 26 27  1  0  0  0
 28101  1  0  0  0
 28102  1  0  0  0
 29103  1  0  0  0
 29104  1  0  0  0
 33 34  1  0  0  0
 33 66  1  0  0  0
 33 70  2  0  0  0
 34 36  1  0  0  0
 34 59  1  0  0  0
 34105  1  0  0  0
 35 44  2  0  0  0
 35 45  1  0  0  0
 35 68  1  0  0  0
 36 56  1  0  0  0
 36106  1  0  0  0
 37 39  1  0  0  0
 37 47  1  0  0  0
 37 66  1  0  0  0
 37107  1  0  0  0
 38 43  2  0  0  0
 38 46  1  0  0  0
 38 47  1  0  0  0
 39 64  1  0  0  0
 39 67  2  0  0  0
 40 52  1  0  0  0
 40 53  2  0  0  0
 40 58  1  0  0  0
 41108  1  0  0  0
 41109  1  0  0  0
 41110  1  0  0  0
 41 48  1  0  0  0
 42 43  1  0  0  0
 42 66  1  0  0  0
 42111  1  0  0  0
 42112  1  0  0  0
 43 44  1  0  0  0
 44113  1  0  0  0
 45 46  2  0  0  0
 45114  1  0  0  0
 46115  1  0  0  0
 47116  1  0  0  0
 47117  1  0  0  0
 48 56  1  0  0  0
 48 65  1  0  0  0
 48118  1  0  0  0
 49 50  1  0  0  0
 49 53  1  0  0  0
 49 64  1  0  0  0
 49119  1  0  0  0
 50 51  1  0  0  0
 50120  1  0  0  0
 50121  1  0  0  0
 51 52  1  0  0  0
 51122  1  0  0  0
 51123  1  0  0  0
 52124  1  0  0  0
 52125  1  0  0  0
 53 54  1  0  0  0
 54 55  2  0  0  0
 54126  1  0  0  0
 55 57  1  0  0  0
 55127  1  0  0  0
 56 69  2  0  0  0
 57 58  2  0  0  0
 57128  1  0  0  0
 58129  1  0  0  0
 59 60  1  0  0  0
 59 61  1  0  0  0
 59 62  1  0  0  0
 60130  1  0  0  0
 60131  1  0  0  0
 60132  1  0  0  0
 61133  1  0  0  0
 61134  1  0  0  0
 61135  1  0  0  0
 62136  1  0  0  0
 62137  1  0  0  0
 62138  1  0  0  0
 63 65  1  0  0  0
 63139  1  0  0  0
 63140  1  0  0  0
 63141  1  0  0  0
 64142  1  0  0  0
 65143  1  0  0  0
 68 79  1  0  0  0
 71 73  2  0  0  0
 71 75  1  0  0  0
 71144  1  0  0  0
 72 74  1  0  0  0
 72 75  2  0  0  0
 72145  1  0  0  0
 73 76  1  0  0  0
 73146  1  0  0  0
 74 76  2  0  0  0
 74147  1  0  0  0
 75 82  1  0  0  0
 76 83  1  0  0  0
 77 78  1  0  0  0
 77 79  2  0  0  0
 77 80  1  0  0  0
 78 81  1  0  0  0
 78 84  2  0  0  0
 79148  1  0  0  0
 80 82  1  0  0  0
 80149  1  0  0  0
 80150  1  0  0  0
 81 82  1  0  0  0
 81151  1  0  0  0
 81152  1  0  0  0
 83153  1  0  0  0
M  ISO  4   1 100  68 101  79 101  83 100
M  END
> <chiral flag>
0

> <version>
0

> <s_m_source_file>
/data/baiqing/PycharmProjects/Reinvent-master-3.2/result/LINK_invent/BTK/process_docking_weight1_custom_product_contain_oxygen_bond_distance_aromatic_linkinvent_7_9_3/rearranged_h_0089.sdf

> <i_m_source_file_index>
45

> <r_mmod_Potential_Energy-OPLS-2005>
81.4164810180664

> <r_mmod_Stretch_Energy-OPLS-2005>
80.0641403198242

> <r_mmod_Bend_Energy-OPLS-2005>
191.448287963867

> <r_mmod_Torsional_Energy-OPLS-2005>
200.871200561523

> <r_mmod_Improper_Torsional_Energy-OPLS-2005>
3.66880774497986

> <r_mmod_Van_der_Waal_Energy-OPLS-2005>
136.773208618164

> <r_mmod_Electrostatic_Energy-OPLS-2005>
-345.806396484375

> <r_mmod_Solvation_Energy-OPLS-2005>
-242.840423583984

> <b_mmod_Minimization_Converged-OPLS-2005>
0

> <r_mmod_RMS_Derivative-OPLS-2005>
0.681832134723663

$$$$
45
                    3D
 Structure written by MMmdl.
162170  0  0  1  0            999 V2000
  -30.5116  -14.7044   20.4964 C   0  0  0  0  0  0
  -30.4716  -12.4392   19.4302 C   0  0  0  0  0  0
  -29.5190  -12.5218   18.2128 C   0  0  0  0  0  0
  -28.0372  -12.3413   18.6171 C   0  0  0  0  0  0
  -27.6567  -13.1920   19.8560 C   0  0  2  0  0  0
  -28.7120  -13.0092   20.9746 C   0  0  0  0  0  0
  -25.2646  -13.8099   20.5668 C   0  0  0  0  0  0
  -24.1909  -13.0413   20.9210 C   0  0  0  0  0  0
  -24.6442  -11.6855   20.8752 C   0  0  0  0  0  0
  -23.9100  -10.4267   21.0404 C   0  0  0  0  0  0
  -24.3641   -9.4192   21.9178 C   0  0  0  0  0  0
  -23.6307   -8.2240   22.0738 C   0  0  0  0  0  0
  -22.4283   -8.0279   21.3538 C   0  0  0  0  0  0
  -21.9932   -9.0249   20.4639 C   0  0  0  0  0  0
  -22.7271  -10.2118   20.3061 C   0  0  0  0  0  0
  -21.6859   -6.0774   22.5282 C   0  0  0  0  0  0
  -21.4023   -6.5674   23.8228 C   0  0  0  0  0  0
  -21.3643   -5.6796   24.9169 C   0  0  0  0  0  0
  -21.6043   -4.3070   24.7225 C   0  0  0  0  0  0
  -21.8816   -3.8188   23.4346 C   0  0  0  0  0  0
  -21.9192   -4.7008   22.3411 C   0  0  0  0  0  0
  -22.7934  -13.5235   21.1834 C   0  0  0  0  0  0
  -22.1650   -4.2213   21.0989 F   0  0  0  0  0  0
  -21.5619   -3.4541   25.7741 F   0  0  0  0  0  0
  -30.0172  -13.4239   20.4247 N   0  0  0  0  0  0
  -26.3034  -12.9214   20.3253 N   0  0  0  0  0  0
  -25.9357  -11.6404   20.5731 N   0  0  0  0  0  0
  -22.0563  -12.8252   22.0372 N   0  0  0  0  0  0
  -25.4428  -15.1853   20.4102 N   0  0  0  0  0  0
  -31.6467  -15.0172   20.1156 O   0  0  0  0  0  0
  -21.6643   -6.8885   21.4234 O   0  0  0  0  0  0
  -22.3642  -14.5512   20.6581 O   0  0  0  0  0  0
  -24.6216  -31.8612   23.2041 C   0  0  0  0  0  0
  -25.9080  -32.4792   23.8362 C   0  0  1  0  0  0
  -27.2260  -27.3152   20.1197 C   0  0  0  0  0  0
  -25.5915  -33.8599   24.2257 N   0  0  0  0  0  0
  -23.4178  -30.4794   21.5461 C   0  0  2  0  0  0
  -24.8711  -28.9347   20.1141 C   0  0  0  0  0  0
  -22.7452  -29.4602   22.4966 C   0  0  0  0  0  0
  -18.0282  -28.1377   22.8455 C   0  0  0  0  0  0
  -24.1493  -36.7294   23.2628 C   0  0  0  0  0  0
  -25.9601  -30.7813   21.3886 C   0  0  0  0  0  0
  -26.0368  -29.4087   20.7321 C   0  0  0  0  0  0
  -27.2184  -28.6055   20.7339 C   0  0  0  0  0  0
  -26.0529  -26.9138   19.4495 C   0  0  0  0  0  0
  -24.8802  -27.6905   19.4668 C   0  0  0  0  0  0
  -23.6355  -29.8118   20.1624 C   0  0  0  0  0  0
  -25.4118  -36.3076   24.0320 C   0  0  1  0  0  0
  -20.5875  -28.3662   23.1294 C   0  0  2  0  0  0
  -20.6783  -26.9403   22.5396 C   0  0  0  0  0  0
  -19.5766  -26.6383   21.5201 C   0  0  0  0  0  0
  -18.1938  -26.7917   22.1608 C   0  0  0  0  0  0
  -19.1530  -28.8840   23.2860 C   0  0  0  0  0  0
  -18.9475  -30.1453   23.8867 C   0  0  0  0  0  0
  -17.6479  -30.6588   24.0562 C   0  0  0  0  0  0
  -25.9053  -34.9471   23.5095 C   0  0  0  0  0  0
  -16.5368  -29.9086   23.6345 C   0  0  0  0  0  0
  -16.7271  -28.6515   23.0331 C   0  0  0  0  0  0
  -26.4464  -31.6612   25.0744 C   0  0  0  0  0  0
  -25.3693  -31.3826   26.1471 C   0  0  0  0  0  0
  -27.0284  -30.3009   24.6255 C   0  0  0  0  0  0
  -27.5977  -32.4373   25.7524 C   0  0  0  0  0  0
  -27.5609  -37.1766   24.8426 C   0  0  0  0  0  0
  -21.4159  -29.3037   22.3714 N   0  0  0  0  0  0
  -26.4280  -37.3796   23.9439 N   0  0  0  0  0  0
  -24.6835  -31.0594   22.1016 N   0  0  0  0  0  0
  -23.4179  -28.8161   23.3060 O   0  0  0  0  0  0
  -28.3256  -26.4404   20.1009 O   0  0  0  0  0  0
  -26.5630  -34.8937   22.4657 O   0  0  0  0  0  0
  -23.5379  -32.1455   23.7332 O   0  0  0  0  0  0
  -29.9585  -19.1989   21.7662 C   0  0  0  0  0  0
  -29.3672  -20.5915   19.4196 C   0  0  0  0  0  0
  -29.6751  -18.3965   20.6330 C   0  0  0  0  0  0
  -29.8925  -20.6179   21.7615 C   0  0  0  0  0  0
  -29.4447  -19.1445   19.4143 C   0  0  0  0  0  0
  -29.5243  -21.3577   20.6102 C   0  0  0  0  0  0
  -29.1328  -17.0073   20.9993 C   0  0  0  0  0  0
  -28.8768  -23.8741   20.1030 C   0  0  0  0  0  0
  -26.8932  -24.7405   21.3699 C   0  0  0  0  0  0
  -29.1589  -25.4838   22.1218 C   0  0  0  0  0  0
  -28.3042  -25.1585   20.8790 C   0  0  0  0  0  0
  -30.1181  -21.3014   22.9570 N   0  0  0  0  0  0
  -29.2187  -18.5116   18.1812 N   0  0  0  0  0  0
  -29.2512  -22.7858   20.8457 N   0  0  0  0  0  0
  -29.4748  -15.6658   20.8973 N   0  0  0  0  0  0
  -27.9611  -17.1280   21.6499 N   0  3  0  0  0  0
  -28.9451  -23.8823   18.8730 O   0  0  0  0  0  0
  -31.4996  -12.6406   19.1245 H   0  0  0  0  0  0
  -30.4707  -11.4362   19.8626 H   0  0  0  0  0  0
  -29.7922  -11.7705   17.4724 H   0  0  0  0  0  0
  -29.6392  -13.4894   17.7223 H   0  0  0  0  0  0
  -27.8714  -11.2818   18.8223 H   0  0  0  0  0  0
  -27.3857  -12.5888   17.7773 H   0  0  0  0  0  0
  -27.6651  -14.2271   19.5164 H   0  0  0  0  0  0
  -28.7523  -11.9629   21.2878 H   0  0  0  0  0  0
  -28.4484  -13.5600   21.8766 H   0  0  0  0  0  0
  -25.2773   -9.5671   22.4769 H   0  0  0  0  0  0
  -24.0024   -7.4648   22.7456 H   0  0  0  0  0  0
  -21.0866   -8.8753   19.8946 H   0  0  0  0  0  0
  -22.3709  -10.9660   19.6194 H   0  0  0  0  0  0
  -21.1999   -7.6171   23.9753 H   0  0  0  0  0  0
  -21.1466   -6.0528   25.9072 H   0  0  0  0  0  0
  -22.0609   -2.7662   23.2835 H   0  0  0  0  0  0
  -22.4162  -11.9944   22.4823 H   0  0  0  0  0  0
  -21.1181  -13.1266   22.2517 H   0  0  0  0  0  0
  -24.6195  -15.7784   20.4096 H   0  0  0  0  0  0
  -26.2118  -15.5975   19.8951 H   0  0  0  0  0  0
  -26.7140  -32.5449   23.1090 H   0  0  0  0  0  0
  -25.0021  -33.9776   25.0373 H   0  0  0  0  0  0
  -22.7087  -31.2960   21.3979 H   0  0  0  0  0  0
  -23.3802  -35.9580   23.3186 H   0  0  0  0  0  0
  -24.3599  -36.9022   22.2063 H   0  0  0  0  0  0
  -23.7200  -37.6436   23.6734 H   0  0  0  0  0  0
  -26.0996  -31.5455   20.6229 H   0  0  0  0  0  0
  -26.8371  -30.8240   22.0237 H   0  0  0  0  0  0
  -28.1144  -28.9585   21.2260 H   0  0  0  0  0  0
  -26.0388  -25.9720   18.9229 H   0  0  0  0  0  0
  -23.9933  -27.3189   18.9720 H   0  0  0  0  0  0
  -23.7500  -30.5866   19.4033 H   0  0  0  0  0  0
  -22.7587  -29.2341   19.8618 H   0  0  0  0  0  0
  -25.1288  -36.1906   25.0816 H   0  0  0  0  0  0
  -20.9923  -28.3239   24.1430 H   0  0  0  0  0  0
  -20.5685  -26.2278   23.3580 H   0  0  0  0  0  0
  -21.6655  -26.7448   22.1200 H   0  0  0  0  0  0
  -19.6930  -25.6294   21.1232 H   0  0  0  0  0  0
  -19.6724  -27.3194   20.6727 H   0  0  0  0  0  0
  -17.4201  -26.6644   21.4010 H   0  0  0  0  0  0
  -18.0346  -26.0062   22.9000 H   0  0  0  0  0  0
  -19.7966  -30.7263   24.2200 H   0  0  0  0  0  0
  -17.5062  -31.6263   24.5171 H   0  0  0  0  0  0
  -15.5375  -30.2983   23.7719 H   0  0  0  0  0  0
  -15.8670  -28.0864   22.7030 H   0  0  0  0  0  0
  -24.5764  -30.7283   25.7810 H   0  0  0  0  0  0
  -24.9006  -32.3037   26.4939 H   0  0  0  0  0  0
  -25.7961  -30.8925   27.0215 H   0  0  0  0  0  0
  -26.2865  -29.6788   24.1197 H   0  0  0  0  0  0
  -27.3829  -29.7249   25.4804 H   0  0  0  0  0  0
  -27.8817  -30.4236   23.9587 H   0  0  0  0  0  0
  -27.2520  -33.3640   26.2142 H   0  0  0  0  0  0
  -28.3785  -32.7004   25.0375 H   0  0  0  0  0  0
  -28.0667  -31.8492   26.5430 H   0  0  0  0  0  0
  -28.2473  -38.0200   24.7647 H   0  0  0  0  0  0
  -28.1250  -36.2730   24.6012 H   0  0  0  0  0  0
  -27.2349  -37.1129   25.8822 H   0  0  0  0  0  0
  -20.9347  -29.8749   21.6909 H   0  0  0  0  0  0
  -26.0138  -38.2834   24.1559 H   0  0  0  0  0  0
  -30.1239  -18.6966   22.7099 H   0  0  0  0  0  0
  -29.1171  -21.1227   18.5114 H   0  0  0  0  0  0
  -26.3961  -25.5301   21.9348 H   0  0  0  0  0  0
  -26.9459  -23.8696   22.0236 H   0  0  0  0  0  0
  -26.2521  -24.4463   20.5387 H   0  0  0  0  0  0
  -29.2948  -24.6230   22.7811 H   0  0  0  0  0  0
  -28.6861  -26.2602   22.7213 H   0  0  0  0  0  0
  -30.1451  -25.8463   21.8372 H   0  0  0  0  0  0
  -30.4236  -20.7238   23.7309 H   0  0  0  0  0  0
  -30.7325  -22.1038   22.8694 H   0  0  0  0  0  0
  -29.3200  -19.0817   17.3454 H   0  0  0  0  0  0
  -29.5941  -17.5829   18.0176 H   0  0  0  0  0  0
  -29.2319  -22.9650   21.8418 H   0  0  0  0  0  0
  -28.6434  -15.1858   21.1709 H   0  0  0  0  0  0
  -27.4234  -16.3713   22.0517 H   0  0  0  0  0  0
  -27.6154  -18.0645   21.8131 H   0  0  0  0  0  0
  1 25  1  0  0  0
  1 30  2  0  0  0
  1 85  1  0  0  0
  2  3  1  0  0  0
  2 25  1  0  0  0
  2 88  1  0  0  0
  2 89  1  0  0  0
  3  4  1  0  0  0
  3 90  1  0  0  0
  3 91  1  0  0  0
  4  5  1  0  0  0
  4 92  1  0  0  0
  4 93  1  0  0  0
  5  6  1  0  0  0
  5 26  1  0  0  0
  5 94  1  0  0  0
  6 25  1  0  0  0
  6 95  1  0  0  0
  6 96  1  0  0  0
  7  8  2  0  0  0
  7 26  1  0  0  0
  7 29  1  0  0  0
  8  9  1  0  0  0
  8 22  1  0  0  0
  9 10  1  0  0  0
  9 27  2  0  0  0
 10 11  2  0  0  0
 10 15  1  0  0  0
 11 12  1  0  0  0
 11 97  1  0  0  0
 12 13  2  0  0  0
 12 98  1  0  0  0
 13 14  1  0  0  0
 13 31  1  0  0  0
 14 15  2  0  0  0
 14 99  1  0  0  0
 15100  1  0  0  0
 16 17  2  0  0  0
 16 21  1  0  0  0
 16 31  1  0  0  0
 17 18  1  0  0  0
 17101  1  0  0  0
 18 19  2  0  0  0
 18102  1  0  0  0
 19 20  1  0  0  0
 19 24  1  0  0  0
 20 21  2  0  0  0
 20103  1  0  0  0
 21 23  1  0  0  0
 22 28  1  0  0  0
 22 32  2  0  0  0
 26 27  1  0  0  0
 28104  1  0  0  0
 28105  1  0  0  0
 29106  1  0  0  0
 29107  1  0  0  0
 33 34  1  0  0  0
 33 66  1  0  0  0
 33 70  2  0  0  0
 34 36  1  0  0  0
 34 59  1  0  0  0
 34108  1  0  0  0
 35 44  2  0  0  0
 35 45  1  0  0  0
 35 68  1  0  0  0
 36 56  1  0  0  0
 36109  1  0  0  0
 37 39  1  0  0  0
 37 47  1  0  0  0
 37 66  1  0  0  0
 37110  1  0  0  0
 38 43  2  0  0  0
 38 46  1  0  0  0
 38 47  1  0  0  0
 39 64  1  0  0  0
 39 67  2  0  0  0
 40 52  1  0  0  0
 40 53  2  0  0  0
 40 58  1  0  0  0
 41111  1  0  0  0
 41112  1  0  0  0
 41113  1  0  0  0
 41 48  1  0  0  0
 42 43  1  0  0  0
 42 66  1  0  0  0
 42114  1  0  0  0
 42115  1  0  0  0
 43 44  1  0  0  0
 44116  1  0  0  0
 45 46  2  0  0  0
 45117  1  0  0  0
 46118  1  0  0  0
 47119  1  0  0  0
 47120  1  0  0  0
 48 56  1  0  0  0
 48 65  1  0  0  0
 48121  1  0  0  0
 49 50  1  0  0  0
 49 53  1  0  0  0
 49 64  1  0  0  0
 49122  1  0  0  0
 50 51  1  0  0  0
 50123  1  0  0  0
 50124  1  0  0  0
 51 52  1  0  0  0
 51125  1  0  0  0
 51126  1  0  0  0
 52127  1  0  0  0
 52128  1  0  0  0
 53 54  1  0  0  0
 54 55  2  0  0  0
 54129  1  0  0  0
 55 57  1  0  0  0
 55130  1  0  0  0
 56 69  2  0  0  0
 57 58  2  0  0  0
 57131  1  0  0  0
 58132  1  0  0  0
 59 60  1  0  0  0
 59 61  1  0  0  0
 59 62  1  0  0  0
 60133  1  0  0  0
 60134  1  0  0  0
 60135  1  0  0  0
 61136  1  0  0  0
 61137  1  0  0  0
 61138  1  0  0  0
 62139  1  0  0  0
 62140  1  0  0  0
 62141  1  0  0  0
 63 65  1  0  0  0
 63142  1  0  0  0
 63143  1  0  0  0
 63144  1  0  0  0
 64145  1  0  0  0
 65146  1  0  0  0
 68 81  1  0  0  0
 71 73  2  0  0  0
 71 74  1  0  0  0
 71147  1  0  0  0
 72 75  2  0  0  0
 72 76  1  0  0  0
 72148  1  0  0  0
 73 75  1  0  0  0
 73 77  1  0  0  0
 74 76  2  0  0  0
 74 82  1  0  0  0
 75 83  1  0  0  0
 76 84  1  0  0  0
 77 85  1  0  0  0
 77 86  2  0  0  0
 78 81  1  0  0  0
 78 84  1  0  0  0
 78 87  2  0  0  0
 79149  1  0  0  0
 79150  1  0  0  0
 79151  1  0  0  0
 79 81  1  0  0  0
 80 81  1  0  0  0
 80152  1  0  0  0
 80153  1  0  0  0
 80154  1  0  0  0
 82155  1  0  0  0
 82156  1  0  0  0
 83157  1  0  0  0
 83158  1  0  0  0
 84159  1  0  0  0
 85160  1  0  0  0
 86161  1  0  0  0
 86162  1  0  0  0
M  CHG  1  86   1
M  ISO  4   1 100  68 101  81 101  85 100
M  END
> <chiral flag>
0

> <version>
0

> <s_m_source_file>
/data/baiqing/PycharmProjects/Reinvent-master-3.2/result/LINK_invent/BTK/process_docking_weight1_custom_product_contain_oxygen_bond_distance_aromatic_linkinvent_7_9_3/rearranged_h_0089.sdf

> <i_m_source_file_index>
46

> <r_mmod_Potential_Energy-OPLS-2005>
50.9711723327637

> <r_mmod_Stretch_Energy-OPLS-2005>
99.7015686035156

> <r_mmod_Bend_Energy-OPLS-2005>
295.752380371094

> <r_mmod_Torsional_Energy-OPLS-2005>
320.251342773438

> <r_mmod_Improper_Torsional_Energy-OPLS-2005>
22.8584861755371

> <r_mmod_Van_der_Waal_Energy-OPLS-2005>
147.067565917969

> <r_mmod_Electrostatic_Energy-OPLS-2005>
-425.021484375

> <r_mmod_Solvation_Energy-OPLS-2005>
-481.622741699219

> <b_mmod_Minimization_Converged-OPLS-2005>
0

> <r_mmod_RMS_Derivative-OPLS-2005>
5.61046600341797

$$$$
46
                    3D
 Structure written by MMmdl.
148156  0  0  1  0            999 V2000
  -28.5724  -13.3011   21.8862 C   0  0  0  0  0  0
  -30.3739  -12.6461   19.8878 C   0  0  0  0  0  0
  -29.9030  -12.6359   18.3459 C   0  0  0  0  0  0
  -28.3850  -12.7691   18.0901 C   0  0  0  0  0  0
  -27.8153  -13.2564   19.3820 C   0  0  2  0  0  0
  -28.2615  -12.0275   20.2975 C   0  0  0  0  0  0
  -25.5461  -14.6522   19.7587 C   0  0  0  0  0  0
  -25.6747  -14.1004   21.0524 C   0  0  0  0  0  0
  -25.3591  -12.3724   20.2628 C   0  0  0  0  0  0
  -24.3492  -10.8937   20.6309 C   0  0  0  0  0  0
  -24.6801   -9.7483   21.5244 C   0  0  0  0  0  0
  -23.8908   -8.5601   21.8672 C   0  0  0  0  0  0
  -22.6181   -8.2957   21.3015 C   0  0  0  0  0  0
  -22.2094   -9.3526   20.4455 C   0  0  0  0  0  0
  -22.9960  -10.5531   20.1722 C   0  0  0  0  0  0
  -21.8052   -6.2199   22.5014 C   0  0  0  0  0  0
  -21.4902   -6.6552   23.8107 C   0  0  0  0  0  0
  -21.3966   -5.7401   24.8870 C   0  0  0  0  0  0
  -21.6048   -4.3643   24.6769 C   0  0  0  0  0  0
  -21.8751   -3.9042   23.3778 C   0  0  0  0  0  0
  -21.9587   -4.8155   22.3009 C   0  0  0  0  0  0
  -24.3145  -14.6035   22.7214 C   0  0  0  0  0  0
  -22.1815   -4.3171   21.0609 F   0  0  0  0  0  0
  -21.5438   -3.4922   25.7154 F   0  0  0  0  0  0
  -29.2691  -12.5358   20.9557 N   0  0  0  0  0  0
  -26.4237  -13.4673   19.3805 N   0  0  0  0  0  0
  -26.0044  -12.1940   19.2798 N   0  0  0  0  0  0
  -23.2625  -13.7000   23.1074 N   0  0  0  0  0  0
  -23.5442  -15.6151   18.9274 N   0  0  0  0  0  0
  -29.4099  -14.3064   21.8335 O   0  0  0  0  0  0
  -21.8399   -7.1122   21.4195 O   0  0  0  0  0  0
  -23.1900  -15.2124   22.7306 O   0  0  0  0  0  0
  -24.7160  -31.7616   23.1384 C   0  0  0  0  0  0
  -25.9644  -32.4221   23.7951 C   0  0  1  0  0  0
  -26.6559  -26.2078   20.1494 C   0  0  0  0  0  0
  -25.6116  -33.8097   24.1768 N   0  0  0  0  0  0
  -23.5186  -30.4008   21.5114 C   0  0  2  0  0  0
  -24.8616  -28.7004   20.0633 C   0  0  0  0  0  0
  -22.7764  -29.4192   22.4600 C   0  0  0  0  0  0
  -18.0328  -28.1419   22.8446 C   0  0  0  0  0  0
  -24.1498  -36.7029   23.2657 C   0  0  0  0  0  0
  -26.1050  -30.2956   21.4714 C   0  0  0  0  0  0
  -26.0479  -28.8381   20.7840 C   0  0  0  0  0  0
  -26.9525  -27.6051   20.8072 C   0  0  0  0  0  0
  -25.5735  -26.4402   19.3022 C   0  0  0  0  0  0
  -24.7010  -27.5517   19.2893 C   0  0  0  0  0  0
  -23.7521  -29.7570   20.1208 C   0  0  0  0  0  0
  -25.4167  -36.2748   24.0246 C   0  0  1  0  0  0
  -20.5966  -28.3774   23.1097 C   0  0  2  0  0  0
  -20.6781  -26.9419   22.5395 C   0  0  0  0  0  0
  -19.5761  -26.6349   21.5207 C   0  0  0  0  0  0
  -18.1946  -26.7944   22.1612 C   0  0  0  0  0  0
  -19.1601  -28.8922   23.2757 C   0  0  0  0  0  0
  -18.9515  -30.1504   23.8809 C   0  0  0  0  0  0
  -17.6506  -30.6603   24.0548 C   0  0  0  0  0  0
  -25.9198  -34.9157   23.4850 C   0  0  0  0  0  0
  -16.5390  -29.9086   23.6359 C   0  0  0  0  0  0
  -16.7310  -28.6508   23.0373 C   0  0  0  0  0  0
  -26.4682  -31.6459   25.0756 C   0  0  0  0  0  0
  -25.3656  -31.3917   26.1313 C   0  0  0  0  0  0
  -27.0679  -30.2750   24.7001 C   0  0  0  0  0  0
  -27.6043  -32.4439   25.7576 C   0  0  0  0  0  0
  -27.5550  -37.1670   24.8462 C   0  0  0  0  0  0
  -21.4402  -29.3001   22.3385 N   0  0  0  0  0  0
  -26.4239  -37.3567   23.9424 N   0  0  0  0  0  0
  -24.8167  -30.8673   22.0868 N   0  0  0  0  0  0
  -23.4152  -28.7743   23.2955 O   0  0  0  0  0  0
  -27.0795  -24.6263   20.1308 O   0  0  0  0  0  0
  -26.5858  -34.8803   22.4485 O   0  0  0  0  0  0
  -23.6160  -32.0983   23.6157 O   0  0  0  0  0  0
  -24.9010  -14.5041   17.5108 C   0  0  0  0  0  0
  -23.8125  -13.4217   18.6874 C   0  0  0  0  0  0
  -25.5527  -16.2389   17.9987 C   0  0  0  0  0  0
  -24.2749  -16.1889   20.8756 C   0  0  0  0  0  0
  -23.5550  -13.9253   20.5861 C   0  0  0  0  0  0
  -25.2232  -17.1960   19.5762 C   0  0  0  0  0  0
  -25.3819  -12.3946   22.5853 C   0  0  0  0  0  0
  -26.3203  -20.5305   19.7152 C   0  0  0  0  0  0
  -26.0631  -22.7271   19.9899 C   0  0  0  0  0  0
  -27.0217  -12.6790   22.6644 N   0  0  0  0  0  0
  -25.4562  -19.0835   19.7918 N   0  0  0  0  0  0
  -27.4897  -20.3052   19.3856 O   0  0  0  0  0  0
  -24.8476  -22.9336   20.0696 O   0  0  0  0  0  0
  -30.9492  -13.5563   20.0620 H   0  0  0  0  0  0
  -31.0871  -11.8375   20.0510 H   0  0  0  0  0  0
  -30.2602  -11.7239   17.8654 H   0  0  0  0  0  0
  -30.4203  -13.4459   17.8288 H   0  0  0  0  0  0
  -27.9685  -11.8206   17.7446 H   0  0  0  0  0  0
  -28.1942  -13.4884   17.2930 H   0  0  0  0  0  0
  -28.2628  -14.2414   19.5536 H   0  0  0  0  0  0
  -28.6042  -11.1486   19.7404 H   0  0  0  0  0  0
  -27.5737  -11.3956   20.8581 H   0  0  0  0  0  0
  -25.6615   -9.7737   21.9755 H   0  0  0  0  0  0
  -24.3293   -7.8209   22.5226 H   0  0  0  0  0  0
  -21.2466   -9.2610   19.9620 H   0  0  0  0  0  0
  -22.4900  -11.2592   19.5372 H   0  0  0  0  0  0
  -21.3235   -7.7064   23.9956 H   0  0  0  0  0  0
  -21.1734   -6.0999   25.8805 H   0  0  0  0  0  0
  -22.0136   -2.8491   23.1987 H   0  0  0  0  0  0
  -22.4316  -14.1691   23.4324 H   0  0  0  0  0  0
  -23.2453  -12.7096   22.9274 H   0  0  0  0  0  0
  -23.1551  -16.4279   19.3861 H   0  0  0  0  0  0
  -23.4489  -15.6315   17.9207 H   0  0  0  0  0  0
  -26.7718  -32.4471   23.0623 H   0  0  0  0  0  0
  -25.0144  -33.9096   24.9844 H   0  0  0  0  0  0
  -22.8648  -31.2612   21.3529 H   0  0  0  0  0  0
  -23.3805  -35.9307   23.3205 H   0  0  0  0  0  0
  -24.3557  -36.8834   22.2095 H   0  0  0  0  0  0
  -23.7210  -37.6136   23.6845 H   0  0  0  0  0  0
  -26.4092  -30.9964   20.6931 H   0  0  0  0  0  0
  -26.9355  -30.2928   22.1623 H   0  0  0  0  0  0
  -27.8226  -27.6599   21.4460 H   0  0  0  0  0  0
  -25.2592  -25.6056   18.6920 H   0  0  0  0  0  0
  -23.8193  -27.4742   18.6681 H   0  0  0  0  0  0
  -24.0130  -30.5409   19.4092 H   0  0  0  0  0  0
  -22.8190  -29.3293   19.7506 H   0  0  0  0  0  0
  -25.1386  -36.1435   25.0729 H   0  0  0  0  0  0
  -21.0060  -28.3419   24.1218 H   0  0  0  0  0  0
  -20.5626  -26.2403   23.3673 H   0  0  0  0  0  0
  -21.6642  -26.7331   22.1223 H   0  0  0  0  0  0
  -19.6914  -25.6236   21.1297 H   0  0  0  0  0  0
  -19.6718  -27.3111   20.6702 H   0  0  0  0  0  0
  -17.4214  -26.6687   21.4020 H   0  0  0  0  0  0
  -18.0335  -26.0107   22.9029 H   0  0  0  0  0  0
  -19.7996  -30.7337   24.2142 H   0  0  0  0  0  0
  -17.5063  -31.6279   24.5163 H   0  0  0  0  0  0
  -15.5392  -30.2967   23.7732 H   0  0  0  0  0  0
  -15.8706  -28.0802   22.7139 H   0  0  0  0  0  0
  -24.5885  -30.7197   25.7651 H   0  0  0  0  0  0
  -24.8806  -32.3186   26.4384 H   0  0  0  0  0  0
  -25.7765  -30.9341   27.0323 H   0  0  0  0  0  0
  -26.3405  -29.6146   24.2270 H   0  0  0  0  0  0
  -27.4166  -29.7474   25.5891 H   0  0  0  0  0  0
  -27.9390  -30.3764   24.0525 H   0  0  0  0  0  0
  -27.2514  -33.3860   26.1783 H   0  0  0  0  0  0
  -28.4031  -32.6808   25.0539 H   0  0  0  0  0  0
  -28.0515  -31.8848   26.5804 H   0  0  0  0  0  0
  -28.2465  -38.0058   24.7561 H   0  0  0  0  0  0
  -28.1144  -36.2575   24.6216 H   0  0  0  0  0  0
  -27.2277  -37.1205   25.8863 H   0  0  0  0  0  0
  -20.9697  -29.8734   21.6520 H   0  0  0  0  0  0
  -26.0012  -38.2574   24.1497 H   0  0  0  0  0  0
  -25.1319  -14.1232   16.5257 H   0  0  0  0  0  0
  -23.5525  -12.4478   18.3064 H   0  0  0  0  0  0
  -26.0966  -16.7686   17.2296 H   0  0  0  0  0  0
  -24.1304  -16.8592   21.7163 H   0  0  0  0  0  0
  -24.9088  -11.7282   23.3136 H   0  0  0  0  0  0
  -24.5893  -19.4266   20.1871 H   0  0  0  0  0  0
  1 25  1  0  0  0
  1 30  2  0  0  0
  1 80  1  0  0  0
  2  3  1  0  0  0
  2 25  1  0  0  0
  2 84  1  0  0  0
  2 85  1  0  0  0
  3  4  1  0  0  0
  3 86  1  0  0  0
  3 87  1  0  0  0
  4  5  1  0  0  0
  4 88  1  0  0  0
  4 89  1  0  0  0
  5  6  1  0  0  0
  5 26  1  0  0  0
  5 90  1  0  0  0
  6 25  1  0  0  0
  6 91  1  0  0  0
  6 92  1  0  0  0
  7  8  2  0  0  0
  7 26  1  0  0  0
  7 29  1  0  0  0
  8  9  1  0  0  0
  8 22  1  0  0  0
  9 10  1  0  0  0
  9 27  2  0  0  0
 10 11  2  0  0  0
 10 15  1  0  0  0
 11 12  1  0  0  0
 11 93  1  0  0  0
 12 13  2  0  0  0
 12 94  1  0  0  0
 13 14  1  0  0  0
 13 31  1  0  0  0
 14 15  2  0  0  0
 14 95  1  0  0  0
 15 96  1  0  0  0
 16 17  2  0  0  0
 16 21  1  0  0  0
 16 31  1  0  0  0
 17 18  1  0  0  0
 17 97  1  0  0  0
 18 19  2  0  0  0
 18 98  1  0  0  0
 19 20  1  0  0  0
 19 24  1  0  0  0
 20 21  2  0  0  0
 20 99  1  0  0  0
 21 23  1  0  0  0
 22 28  1  0  0  0
 22 32  2  0  0  0
 26 27  1  0  0  0
 28100  1  0  0  0
 28101  1  0  0  0
 29102  1  0  0  0
 29103  1  0  0  0
 33 34  1  0  0  0
 33 66  1  0  0  0
 33 70  2  0  0  0
 34 36  1  0  0  0
 34 59  1  0  0  0
 34104  1  0  0  0
 35 44  2  0  0  0
 35 45  1  0  0  0
 35 68  1  0  0  0
 36 56  1  0  0  0
 36105  1  0  0  0
 37 39  1  0  0  0
 37 47  1  0  0  0
 37 66  1  0  0  0
 37106  1  0  0  0
 38 43  2  0  0  0
 38 46  1  0  0  0
 38 47  1  0  0  0
 39 64  1  0  0  0
 39 67  2  0  0  0
 40 52  1  0  0  0
 40 53  2  0  0  0
 40 58  1  0  0  0
 41107  1  0  0  0
 41108  1  0  0  0
 41109  1  0  0  0
 41 48  1  0  0  0
 42 43  1  0  0  0
 42 66  1  0  0  0
 42110  1  0  0  0
 42111  1  0  0  0
 43 44  1  0  0  0
 44112  1  0  0  0
 45 46  2  0  0  0
 45113  1  0  0  0
 46114  1  0  0  0
 47115  1  0  0  0
 47116  1  0  0  0
 48 56  1  0  0  0
 48 65  1  0  0  0
 48117  1  0  0  0
 49 50  1  0  0  0
 49 53  1  0  0  0
 49 64  1  0  0  0
 49118  1  0  0  0
 50 51  1  0  0  0
 50119  1  0  0  0
 50120  1  0  0  0
 51 52  1  0  0  0
 51121  1  0  0  0
 51122  1  0  0  0
 52123  1  0  0  0
 52124  1  0  0  0
 53 54  1  0  0  0
 54 55  2  0  0  0
 54125  1  0  0  0
 55 57  1  0  0  0
 55126  1  0  0  0
 56 69  2  0  0  0
 57 58  2  0  0  0
 57127  1  0  0  0
 58128  1  0  0  0
 59 60  1  0  0  0
 59 61  1  0  0  0
 59 62  1  0  0  0
 60129  1  0  0  0
 60130  1  0  0  0
 60131  1  0  0  0
 61132  1  0  0  0
 61133  1  0  0  0
 61134  1  0  0  0
 62135  1  0  0  0
 62136  1  0  0  0
 62137  1  0  0  0
 63 65  1  0  0  0
 63138  1  0  0  0
 63139  1  0  0  0
 63140  1  0  0  0
 64141  1  0  0  0
 65142  1  0  0  0
 68 79  1  0  0  0
 71 72  2  0  0  0
 71 73  1  0  0  0
 71143  1  0  0  0
 72 75  1  0  0  0
 72144  1  0  0  0
 73 76  2  0  0  0
 73145  1  0  0  0
 74 75  2  0  0  0
 74 76  1  0  0  0
 74146  1  0  0  0
 75 77  1  0  0  0
 76 81  1  0  0  0
 77 80  2  0  0  0
 77147  1  0  0  0
 78 79  1  0  0  0
 78 81  1  0  0  0
 78 82  2  0  0  0
 79 83  2  0  0  0
 81148  1  0  0  0
M  ISO  4   1 100  68 101  79 101  80 100
M  END
> <chiral flag>
0

> <version>
0

> <s_m_source_file>
/data/baiqing/PycharmProjects/Reinvent-master-3.2/result/LINK_invent/BTK/process_docking_weight1_custom_product_contain_oxygen_bond_distance_aromatic_linkinvent_7_9_3/rearranged_h_0089.sdf

> <i_m_source_file_index>
47

> <r_mmod_Potential_Energy-OPLS-2005>
27793.943359375

> <r_mmod_Stretch_Energy-OPLS-2005>
14345.482421875

> <r_mmod_Bend_Energy-OPLS-2005>
1743.19177246094

> <r_mmod_Torsional_Energy-OPLS-2005>
658.095703125

> <r_mmod_Improper_Torsional_Energy-OPLS-2005>
157.275375366211

> <r_mmod_Van_der_Waal_Energy-OPLS-2005>
5038.1884765625

> <r_mmod_Electrostatic_Energy-OPLS-2005>
-326.587738037109

> <r_mmod_Solvation_Energy-OPLS-2005>
-217.9443359375

> <b_mmod_Minimization_Converged-OPLS-2005>
0

> <r_mmod_RMS_Derivative-OPLS-2005>
2.74151968955994

$$$$
47
                    3D
 Structure written by MMmdl.
155164  0  0  1  0            999 V2000
  -30.6093  -14.7636   20.4975 C   0  0  0  0  0  0
  -30.4424  -12.4737   19.4897 C   0  0  0  0  0  0
  -29.5195  -12.5305   18.2484 C   0  0  0  0  0  0
  -28.0418  -12.3484   18.6487 C   0  0  0  0  0  0
  -27.6488  -13.2286   19.8639 C   0  0  2  0  0  0
  -28.6891  -13.1073   20.9964 C   0  0  0  0  0  0
  -25.2531  -13.8188   20.5697 C   0  0  0  0  0  0
  -24.1808  -13.0434   20.9178 C   0  0  0  0  0  0
  -24.6396  -11.6911   20.8726 C   0  0  0  0  0  0
  -23.9072  -10.4290   21.0397 C   0  0  0  0  0  0
  -24.3620   -9.4208   21.9180 C   0  0  0  0  0  0
  -23.6291   -8.2247   22.0755 C   0  0  0  0  0  0
  -22.4275   -8.0282   21.3545 C   0  0  0  0  0  0
  -21.9909   -9.0256   20.4646 C   0  0  0  0  0  0
  -22.7242  -10.2132   20.3049 C   0  0  0  0  0  0
  -21.6852   -6.0738   22.5279 C   0  0  0  0  0  0
  -21.4014   -6.5640   23.8214 C   0  0  0  0  0  0
  -21.3657   -5.6791   24.9175 C   0  0  0  0  0  0
  -21.6044   -4.3055   24.7224 C   0  0  0  0  0  0
  -21.8819   -3.8148   23.4344 C   0  0  0  0  0  0
  -21.9194   -4.6966   22.3402 C   0  0  0  0  0  0
  -22.7830  -13.5220   21.1849 C   0  0  0  0  0  0
  -22.1661   -4.2151   21.0980 F   0  0  0  0  0  0
  -21.5628   -3.4538   25.7738 F   0  0  0  0  0  0
  -29.9950  -13.5176   20.4507 N   0  0  0  0  0  0
  -26.2967  -12.9388   20.3317 N   0  0  0  0  0  0
  -25.9329  -11.6528   20.5741 N   0  0  0  0  0  0
  -22.0482  -12.8212   22.0412 N   0  0  0  0  0  0
  -25.4233  -15.1913   20.4151 N   0  0  0  0  0  0
  -31.7497  -14.8843   20.0340 O   0  0  0  0  0  0
  -21.6639   -6.8880   21.4241 O   0  0  0  0  0  0
  -22.3511  -14.5530   20.6707 O   0  0  0  0  0  0
  -24.6347  -31.8542   23.1993 C   0  0  0  0  0  0
  -25.9161  -32.4746   23.8344 C   0  0  1  0  0  0
  -27.2165  -27.2367   20.1214 C   0  0  0  0  0  0
  -25.5940  -33.8550   24.2258 N   0  0  0  0  0  0
  -23.4323  -30.4795   21.5432 C   0  0  2  0  0  0
  -24.8806  -28.9332   20.1054 C   0  0  0  0  0  0
  -22.7520  -29.4599   22.4899 C   0  0  0  0  0  0
  -18.0294  -28.1396   22.8485 C   0  0  0  0  0  0
  -24.1482  -36.7270   23.2641 C   0  0  0  0  0  0
  -25.9834  -30.7573   21.3877 C   0  0  0  0  0  0
  -26.0544  -29.3804   20.7247 C   0  0  0  0  0  0
  -27.2226  -28.5439   20.7279 C   0  0  0  0  0  0
  -26.0209  -26.8862   19.4463 C   0  0  0  0  0  0
  -24.8709  -27.6943   19.4549 C   0  0  0  0  0  0
  -23.6520  -29.8208   20.1573 C   0  0  0  0  0  0
  -25.4110  -36.3060   24.0329 C   0  0  1  0  0  0
  -20.5901  -28.3707   23.1256 C   0  0  2  0  0  0
  -20.6781  -26.9422   22.5403 C   0  0  0  0  0  0
  -19.5752  -26.6386   21.5213 C   0  0  0  0  0  0
  -18.1931  -26.7935   22.1627 C   0  0  0  0  0  0
  -19.1550  -28.8869   23.2865 C   0  0  0  0  0  0
  -18.9472  -30.1468   23.8886 C   0  0  0  0  0  0
  -17.6471  -30.6593   24.0565 C   0  0  0  0  0  0
  -25.9061  -34.9436   23.5094 C   0  0  0  0  0  0
  -16.5361  -29.9090   23.6341 C   0  0  0  0  0  0
  -16.7282  -28.6510   23.0359 C   0  0  0  0  0  0
  -26.4516  -31.6580   25.0742 C   0  0  0  0  0  0
  -25.3726  -31.3734   26.1452 C   0  0  0  0  0  0
  -27.0380  -30.2992   24.6264 C   0  0  0  0  0  0
  -27.6060  -32.4336   25.7515 C   0  0  0  0  0  0
  -27.5573  -37.1782   24.8466 C   0  0  0  0  0  0
  -21.4224  -29.3047   22.3640 N   0  0  0  0  0  0
  -26.4278  -37.3765   23.9420 N   0  0  0  0  0  0
  -24.7026  -31.0485   22.0990 N   0  0  0  0  0  0
  -23.4208  -28.8136   23.3006 O   0  0  0  0  0  0
  -28.2775  -26.2874   20.2142 O   0  0  0  0  0  0
  -26.5633  -34.8914   22.4664 O   0  0  0  0  0  0
  -23.5490  -32.1385   23.7267 O   0  0  0  0  0  0
  -30.2282  -17.8746   19.1218 C   0  0  0  0  0  0
  -30.0560  -19.3037   19.0026 C   0  0  0  0  0  0
  -29.6700  -23.3581   21.4096 C   0  0  0  0  0  0
  -28.7773  -23.5405   20.3080 C   0  0  0  0  0  0
  -29.9443  -17.4472   20.3996 C   0  0  0  0  0  0
  -28.6794  -22.2415   19.7681 C   0  0  0  0  0  0
  -29.6705  -19.8191   20.2136 C   0  0  0  0  0  0
  -30.0373  -22.0308   21.4910 C   0  0  0  0  0  0
  -29.8540  -16.0705   21.0833 C   0  0  0  0  0  0
  -27.8563  -21.7991   18.5984 C   0  0  0  0  0  0
  -27.9666  -24.8494   19.8552 C   0  0  0  0  0  0
  -29.1844  -15.9948   22.1571 N   0  0  0  0  0  0
  -29.6161  -18.6770   21.0581 N   0  0  0  0  0  0
  -29.4534  -21.2728   20.4799 N   0  0  0  0  0  0
  -30.8684  -21.4423   22.3956 O   0  0  0  0  0  0
  -31.4822  -12.6042   19.1860 H   0  0  0  0  0  0
  -30.4019  -11.4867   19.9529 H   0  0  0  0  0  0
  -29.8086  -11.7638   17.5285 H   0  0  0  0  0  0
  -29.6457  -13.4886   17.7420 H   0  0  0  0  0  0
  -27.8946  -11.2960   18.8942 H   0  0  0  0  0  0
  -27.3889  -12.5569   17.8002 H   0  0  0  0  0  0
  -27.6589  -14.2617   19.5160 H   0  0  0  0  0  0
  -28.7366  -12.0772   21.3532 H   0  0  0  0  0  0
  -28.3859  -13.6830   21.8667 H   0  0  0  0  0  0
  -25.2765   -9.5686   22.4753 H   0  0  0  0  0  0
  -23.9999   -7.4641   22.7477 H   0  0  0  0  0  0
  -21.0841   -8.8775   19.8953 H   0  0  0  0  0  0
  -22.3702  -10.9669   19.6156 H   0  0  0  0  0  0
  -21.2004   -7.6148   23.9717 H   0  0  0  0  0  0
  -21.1477   -6.0522   25.9078 H   0  0  0  0  0  0
  -22.0600   -2.7610   23.2846 H   0  0  0  0  0  0
  -22.4096  -11.9866   22.4790 H   0  0  0  0  0  0
  -21.1108  -13.1242   22.2636 H   0  0  0  0  0  0
  -24.6653  -15.8517   20.5481 H   0  0  0  0  0  0
  -26.2965  -15.6353   20.1594 H   0  0  0  0  0  0
  -26.7228  -32.5384   23.1083 H   0  0  0  0  0  0
  -25.0067  -33.9693   25.0388 H   0  0  0  0  0  0
  -22.7290  -31.3023   21.3983 H   0  0  0  0  0  0
  -23.3754  -35.9590   23.3296 H   0  0  0  0  0  0
  -24.3576  -36.8908   22.2058 H   0  0  0  0  0  0
  -23.7224  -37.6463   23.6675 H   0  0  0  0  0  0
  -26.1305  -31.5183   20.6199 H   0  0  0  0  0  0
  -26.8586  -30.8011   22.0245 H   0  0  0  0  0  0
  -28.1130  -28.8762   21.2429 H   0  0  0  0  0  0
  -25.9223  -25.9540   18.9118 H   0  0  0  0  0  0
  -23.9773  -27.3511   18.9517 H   0  0  0  0  0  0
  -23.7772  -30.6014   19.4059 H   0  0  0  0  0  0
  -22.7696  -29.2568   19.8498 H   0  0  0  0  0  0
  -25.1287  -36.1901   25.0821 H   0  0  0  0  0  0
  -20.9997  -28.3291   24.1376 H   0  0  0  0  0  0
  -20.5684  -26.2319   23.3616 H   0  0  0  0  0  0
  -21.6644  -26.7440   22.1187 H   0  0  0  0  0  0
  -19.6913  -25.6297   21.1243 H   0  0  0  0  0  0
  -19.6687  -27.3198   20.6745 H   0  0  0  0  0  0
  -17.4198  -26.6686   21.4031 H   0  0  0  0  0  0
  -18.0330  -26.0083   22.9033 H   0  0  0  0  0  0
  -19.7949  -30.7288   24.2244 H   0  0  0  0  0  0
  -17.5026  -31.6271   24.5169 H   0  0  0  0  0  0
  -15.5362  -30.2986   23.7677 H   0  0  0  0  0  0
  -15.8681  -28.0827   22.7083 H   0  0  0  0  0  0
  -24.5913  -30.7071   25.7776 H   0  0  0  0  0  0
  -24.8900  -32.2903   26.4846 H   0  0  0  0  0  0
  -25.8031  -30.8933   27.0247 H   0  0  0  0  0  0
  -26.2989  -29.6717   24.1268 H   0  0  0  0  0  0
  -27.4031  -29.7278   25.4807 H   0  0  0  0  0  0
  -27.8876  -30.4263   23.9550 H   0  0  0  0  0  0
  -27.2665  -33.3657   26.2044 H   0  0  0  0  0  0
  -28.3886  -32.6866   25.0348 H   0  0  0  0  0  0
  -28.0704  -31.8491   26.5467 H   0  0  0  0  0  0
  -28.2571  -38.0097   24.7534 H   0  0  0  0  0  0
  -28.1089  -36.2628   24.6262 H   0  0  0  0  0  0
  -27.2297  -37.1393   25.8871 H   0  0  0  0  0  0
  -20.9418  -29.8781   21.6849 H   0  0  0  0  0  0
  -26.0154  -38.2834   24.1444 H   0  0  0  0  0  0
  -30.5183  -17.2090   18.3205 H   0  0  0  0  0  0
  -30.2144  -19.8931   18.1098 H   0  0  0  0  0  0
  -29.9907  -24.1327   22.0925 H   0  0  0  0  0  0
  -27.0373  -22.4916   18.4044 H   0  0  0  0  0  0
  -27.4137  -20.8182   18.7743 H   0  0  0  0  0  0
  -28.4642  -21.7369   17.6960 H   0  0  0  0  0  0
  -26.9705  -24.6231   20.2367 H   0  0  0  0  0  0
  -27.9012  -24.8055   18.7671 H   0  0  0  0  0  0
  -28.7656  -16.8831   22.3964 H   0  0  0  0  0  0
  -29.3836  -18.7384   22.0421 H   0  0  0  0  0  0
  -31.2102  -22.1278   22.9599 H   0  0  0  0  0  0
  1 25  1  0  0  0
  1 30  2  0  0  0
  1 79  1  0  0  0
  2  3  1  0  0  0
  2 25  1  0  0  0
  2 86  1  0  0  0
  2 87  1  0  0  0
  3  4  1  0  0  0
  3 88  1  0  0  0
  3 89  1  0  0  0
  4  5  1  0  0  0
  4 90  1  0  0  0
  4 91  1  0  0  0
  5  6  1  0  0  0
  5 26  1  0  0  0
  5 92  1  0  0  0
  6 25  1  0  0  0
  6 93  1  0  0  0
  6 94  1  0  0  0
  7  8  2  0  0  0
  7 26  1  0  0  0
  7 29  1  0  0  0
  8  9  1  0  0  0
  8 22  1  0  0  0
  9 10  1  0  0  0
  9 27  2  0  0  0
 10 11  2  0  0  0
 10 15  1  0  0  0
 11 12  1  0  0  0
 11 95  1  0  0  0
 12 13  2  0  0  0
 12 96  1  0  0  0
 13 14  1  0  0  0
 13 31  1  0  0  0
 14 15  2  0  0  0
 14 97  1  0  0  0
 15 98  1  0  0  0
 16 17  2  0  0  0
 16 21  1  0  0  0
 16 31  1  0  0  0
 17 18  1  0  0  0
 17 99  1  0  0  0
 18 19  2  0  0  0
 18100  1  0  0  0
 19 20  1  0  0  0
 19 24  1  0  0  0
 20 21  2  0  0  0
 20101  1  0  0  0
 21 23  1  0  0  0
 22 28  1  0  0  0
 22 32  2  0  0  0
 26 27  1  0  0  0
 28102  1  0  0  0
 28103  1  0  0  0
 29104  1  0  0  0
 29105  1  0  0  0
 33 34  1  0  0  0
 33 66  1  0  0  0
 33 70  2  0  0  0
 34 36  1  0  0  0
 34 59  1  0  0  0
 34106  1  0  0  0
 35 44  2  0  0  0
 35 45  1  0  0  0
 35 68  1  0  0  0
 36 56  1  0  0  0
 36107  1  0  0  0
 37 39  1  0  0  0
 37 47  1  0  0  0
 37 66  1  0  0  0
 37108  1  0  0  0
 38 43  2  0  0  0
 38 46  1  0  0  0
 38 47  1  0  0  0
 39 64  1  0  0  0
 39 67  2  0  0  0
 40 52  1  0  0  0
 40 53  2  0  0  0
 40 58  1  0  0  0
 41109  1  0  0  0
 41110  1  0  0  0
 41111  1  0  0  0
 41 48  1  0  0  0
 42 43  1  0  0  0
 42 66  1  0  0  0
 42112  1  0  0  0
 42113  1  0  0  0
 43 44  1  0  0  0
 44114  1  0  0  0
 45 46  2  0  0  0
 45115  1  0  0  0
 46116  1  0  0  0
 47117  1  0  0  0
 47118  1  0  0  0
 48 56  1  0  0  0
 48 65  1  0  0  0
 48119  1  0  0  0
 49 50  1  0  0  0
 49 53  1  0  0  0
 49 64  1  0  0  0
 49120  1  0  0  0
 50 51  1  0  0  0
 50121  1  0  0  0
 50122  1  0  0  0
 51 52  1  0  0  0
 51123  1  0  0  0
 51124  1  0  0  0
 52125  1  0  0  0
 52126  1  0  0  0
 53 54  1  0  0  0
 54 55  2  0  0  0
 54127  1  0  0  0
 55 57  1  0  0  0
 55128  1  0  0  0
 56 69  2  0  0  0
 57 58  2  0  0  0
 57129  1  0  0  0
 58130  1  0  0  0
 59 60  1  0  0  0
 59 61  1  0  0  0
 59 62  1  0  0  0
 60131  1  0  0  0
 60132  1  0  0  0
 60133  1  0  0  0
 61134  1  0  0  0
 61135  1  0  0  0
 61136  1  0  0  0
 62137  1  0  0  0
 62138  1  0  0  0
 62139  1  0  0  0
 63 65  1  0  0  0
 63140  1  0  0  0
 63141  1  0  0  0
 63142  1  0  0  0
 64143  1  0  0  0
 65144  1  0  0  0
 68 81  1  0  0  0
 71 72  1  0  0  0
 71 75  2  0  0  0
 71145  1  0  0  0
 72 77  2  0  0  0
 72146  1  0  0  0
 73 74  1  0  0  0
 73 78  2  0  0  0
 73147  1  0  0  0
 74 76  2  0  0  0
 74 81  1  0  0  0
 75 79  1  0  0  0
 75 83  1  0  0  0
 76 80  1  0  0  0
 76 84  1  0  0  0
 77 83  1  0  0  0
 77 84  1  0  0  0
 78 84  1  0  0  0
 78 85  1  0  0  0
 79 82  2  0  0  0
 80148  1  0  0  0
 80149  1  0  0  0
 80150  1  0  0  0
 81151  1  0  0  0
 81152  1  0  0  0
 82153  1  0  0  0
 83154  1  0  0  0
 85155  1  0  0  0
M  ISO  4   1 100  68 101  79 100  81 101
M  END
> <chiral flag>
0

> <version>
0

> <s_m_source_file>
/data/baiqing/PycharmProjects/Reinvent-master-3.2/result/LINK_invent/BTK/process_docking_weight1_custom_product_contain_oxygen_bond_distance_aromatic_linkinvent_7_9_3/rearranged_h_0089.sdf

> <i_m_source_file_index>
48

> <r_mmod_Potential_Energy-OPLS-2005>
339.896911621094

> <r_mmod_Stretch_Energy-OPLS-2005>
141.940170288086

> <r_mmod_Bend_Energy-OPLS-2005>
188.787246704102

> <r_mmod_Torsional_Energy-OPLS-2005>
209.304336547852

> <r_mmod_Improper_Torsional_Energy-OPLS-2005>
2.92506766319275

> <r_mmod_Van_der_Waal_Energy-OPLS-2005>
123.545906066895

> <r_mmod_Electrostatic_Energy-OPLS-2005>
-207.019836425781

> <r_mmod_Solvation_Energy-OPLS-2005>
-216.822448730469

> <b_mmod_Minimization_Converged-OPLS-2005>
0

> <r_mmod_RMS_Derivative-OPLS-2005>
0.802566766738892

$$$$
48
                    3D
 Structure written by MMmdl.
162171  0  0  1  0            999 V2000
  -30.5256  -15.0385   20.4020 C   0  0  0  0  0  0
  -30.4306  -12.6572   19.4815 C   0  0  0  0  0  0
  -29.5182  -12.5314   18.2432 C   0  0  0  0  0  0
  -28.0562  -12.3009   18.6681 C   0  0  0  0  0  0
  -27.6143  -13.2583   19.8075 C   0  0  2  0  0  0
  -28.6550  -13.3397   20.9393 C   0  0  0  0  0  0
  -25.2450  -13.8223   20.5743 C   0  0  0  0  0  0
  -24.1794  -13.0451   20.9331 C   0  0  0  0  0  0
  -24.6382  -11.6939   20.8748 C   0  0  0  0  0  0
  -23.9059  -10.4296   21.0403 C   0  0  0  0  0  0
  -24.3601   -9.4198   21.9172 C   0  0  0  0  0  0
  -23.6273   -8.2234   22.0743 C   0  0  0  0  0  0
  -22.4250   -8.0279   21.3546 C   0  0  0  0  0  0
  -21.9901   -9.0254   20.4647 C   0  0  0  0  0  0
  -22.7241  -10.2123   20.3044 C   0  0  0  0  0  0
  -21.6821   -6.0741   22.5294 C   0  0  0  0  0  0
  -21.3990   -6.5633   23.8239 C   0  0  0  0  0  0
  -21.3661   -5.6778   24.9194 C   0  0  0  0  0  0
  -21.6052   -4.3044   24.7235 C   0  0  0  0  0  0
  -21.8813   -3.8151   23.4350 C   0  0  0  0  0  0
  -21.9171   -4.6978   22.3407 C   0  0  0  0  0  0
  -22.7818  -13.5251   21.1946 C   0  0  0  0  0  0
  -22.1648   -4.2185   21.0980 F   0  0  0  0  0  0
  -21.5642   -3.4510   25.7733 F   0  0  0  0  0  0
  -29.8998  -13.7871   20.3057 N   0  0  0  0  0  0
  -26.2823  -12.9472   20.3109 N   0  0  0  0  0  0
  -25.9290  -11.6597   20.5625 N   0  0  0  0  0  0
  -22.0368  -12.8252   22.0422 N   0  0  0  0  0  0
  -25.4101  -15.1945   20.4127 N   0  0  0  0  0  0
  -31.7573  -15.0072   20.3027 O   0  0  0  0  0  0
  -21.6604   -6.8883   21.4249 O   0  0  0  0  0  0
  -22.3539  -14.5555   20.6757 O   0  0  0  0  0  0
  -24.6468  -31.8360   23.1837 C   0  0  0  0  0  0
  -25.9231  -32.4655   23.8219 C   0  0  1  0  0  0
  -27.2060  -27.0616   20.1670 C   0  0  0  0  0  0
  -25.5967  -33.8458   24.2138 N   0  0  0  0  0  0
  -23.4517  -30.4554   21.5282 C   0  0  2  0  0  0
  -24.9049  -28.8666   20.1130 C   0  0  0  0  0  0
  -22.7553  -29.4509   22.4802 C   0  0  0  0  0  0
  -18.0318  -28.1379   22.8499 C   0  0  0  0  0  0
  -24.1508  -36.7217   23.2637 C   0  0  0  0  0  0
  -26.0132  -30.6883   21.3944 C   0  0  0  0  0  0
  -26.0852  -29.2918   20.7371 C   0  0  0  0  0  0
  -27.2361  -28.4057   20.7439 C   0  0  0  0  0  0
  -26.0049  -26.7564   19.4950 C   0  0  0  0  0  0
  -24.8837  -27.6174   19.4744 C   0  0  0  0  0  0
  -23.6857  -29.7785   20.1510 C   0  0  0  0  0  0
  -25.4149  -36.2999   24.0300 C   0  0  1  0  0  0
  -20.5923  -28.3719   23.1229 C   0  0  2  0  0  0
  -20.6776  -26.9408   22.5398 C   0  0  0  0  0  0
  -19.5746  -26.6376   21.5190 C   0  0  0  0  0  0
  -18.1942  -26.7926   22.1623 C   0  0  0  0  0  0
  -19.1572  -28.8864   23.2865 C   0  0  0  0  0  0
  -18.9482  -30.1468   23.8886 C   0  0  0  0  0  0
  -17.6470  -30.6581   24.0553 C   0  0  0  0  0  0
  -25.9096  -34.9386   23.5022 C   0  0  0  0  0  0
  -16.5364  -29.9063   23.6339 C   0  0  0  0  0  0
  -16.7298  -28.6472   23.0384 C   0  0  0  0  0  0
  -26.4558  -31.6562   25.0677 C   0  0  0  0  0  0
  -25.3705  -31.3762   26.1340 C   0  0  0  0  0  0
  -27.0431  -30.2947   24.6317 C   0  0  0  0  0  0
  -27.6075  -32.4342   25.7464 C   0  0  0  0  0  0
  -27.5584  -37.1759   24.8466 C   0  0  0  0  0  0
  -21.4244  -29.3033   22.3560 N   0  0  0  0  0  0
  -26.4294  -37.3722   23.9403 N   0  0  0  0  0  0
  -24.7233  -31.0162   22.0891 N   0  0  0  0  0  0
  -23.4182  -28.8065   23.2973 O   0  0  0  0  0  0
  -28.2346  -26.0351   20.2622 O   0  0  0  0  0  0
  -26.5675  -34.8890   22.4602 O   0  0  0  0  0  0
  -23.5591  -32.1267   23.7044 O   0  0  0  0  0  0
  -27.8427  -20.0546   21.2476 C   0  0  0  0  0  0
  -28.1484  -17.5663   21.2653 C   0  0  0  0  0  0
  -29.7000  -19.0142   20.1155 C   0  0  0  0  0  0
  -27.4189  -18.7432   21.6166 C   0  0  0  0  0  0
  -29.0066  -20.3056   20.4913 C   0  0  0  0  0  0
  -29.3331  -17.6085   20.4948 C   0  0  0  0  0  0
  -30.4504  -22.9187   22.7194 C   0  0  0  0  0  0
  -26.1079  -18.6109   22.3396 C   0  0  0  0  0  0
  -31.2284  -21.8460   21.9367 C   0  0  0  0  0  0
  -29.0379  -23.2678   22.2419 C   0  0  0  0  0  0
  -30.8676  -21.7467   20.4255 C   0  0  0  0  0  0
  -28.9744  -23.2168   20.7117 C   0  0  2  0  0  0
  -28.0022  -24.4727   20.0654 C   0  0  0  0  0  0
  -29.4058  -21.7460   20.2014 N   0  0  0  0  0  0
  -26.0188  -17.6439   23.2393 N   0  0  0  0  0  0
  -29.8959  -16.2574   19.9591 N   0  0  0  0  0  0
  -30.9308  -23.4544   23.7227 O   0  0  0  0  0  0
  -25.1827  -19.3955   22.1443 O   0  0  0  0  0  0
  -31.4596  -12.8341   19.1656 H   0  0  0  0  0  0
  -30.4529  -11.7235   20.0466 H   0  0  0  0  0  0
  -29.8613  -11.7220   17.5968 H   0  0  0  0  0  0
  -29.5882  -13.4453   17.6511 H   0  0  0  0  0  0
  -27.9725  -11.2672   19.0043 H   0  0  0  0  0  0
  -27.3902  -12.3942   17.8088 H   0  0  0  0  0  0
  -27.5583  -14.2487   19.3508 H   0  0  0  0  0  0
  -28.7684  -12.3728   21.4334 H   0  0  0  0  0  0
  -28.3394  -14.0488   21.7061 H   0  0  0  0  0  0
  -25.2752   -9.5658   22.4741 H   0  0  0  0  0  0
  -23.9996   -7.4608   22.7444 H   0  0  0  0  0  0
  -21.0841   -8.8760   19.8944 H   0  0  0  0  0  0
  -22.3714  -10.9637   19.6132 H   0  0  0  0  0  0
  -21.1949   -7.6129   23.9777 H   0  0  0  0  0  0
  -21.1493   -6.0470   25.9108 H   0  0  0  0  0  0
  -22.0572   -2.7615   23.2809 H   0  0  0  0  0  0
  -22.3920  -11.9953   22.4926 H   0  0  0  0  0  0
  -21.0939  -13.1266   22.2452 H   0  0  0  0  0  0
  -24.6386  -15.8365   20.5514 H   0  0  0  0  0  0
  -26.2127  -15.6297   19.9747 H   0  0  0  0  0  0
  -26.7241  -32.5273   23.0893 H   0  0  0  0  0  0
  -25.0092  -33.9564   25.0275 H   0  0  0  0  0  0
  -22.7569  -31.2840   21.3672 H   0  0  0  0  0  0
  -23.3783  -35.9528   23.3285 H   0  0  0  0  0  0
  -24.3554  -36.8880   22.2044 H   0  0  0  0  0  0
  -23.7273  -37.6401   23.6702 H   0  0  0  0  0  0
  -26.1809  -31.4427   20.6234 H   0  0  0  0  0  0
  -26.8718  -30.7339   22.0536 H   0  0  0  0  0  0
  -28.1353  -28.7192   21.2564 H   0  0  0  0  0  0
  -25.9050  -25.7969   19.0075 H   0  0  0  0  0  0
  -23.9857  -27.2905   18.9714 H   0  0  0  0  0  0
  -23.8322  -30.5477   19.3903 H   0  0  0  0  0  0
  -22.7986  -29.2251   19.8381 H   0  0  0  0  0  0
  -25.1349  -36.1763   25.0783 H   0  0  0  0  0  0
  -21.0062  -28.3304   24.1329 H   0  0  0  0  0  0
  -20.5626  -26.2296   23.3601 H   0  0  0  0  0  0
  -21.6641  -26.7358   22.1211 H   0  0  0  0  0  0
  -19.6875  -25.6270   21.1247 H   0  0  0  0  0  0
  -19.6717  -27.3145   20.6686 H   0  0  0  0  0  0
  -17.4198  -26.6707   21.4037 H   0  0  0  0  0  0
  -18.0374  -26.0044   22.8999 H   0  0  0  0  0  0
  -19.7946  -30.7313   24.2244 H   0  0  0  0  0  0
  -17.5003  -31.6272   24.5129 H   0  0  0  0  0  0
  -15.5354  -30.2946   23.7672 H   0  0  0  0  0  0
  -15.8710  -28.0768   22.7138 H   0  0  0  0  0  0
  -24.5899  -30.7126   25.7606 H   0  0  0  0  0  0
  -24.8889  -32.2942   26.4690 H   0  0  0  0  0  0
  -25.7930  -30.8946   27.0160 H   0  0  0  0  0  0
  -26.3060  -29.6634   24.1336 H   0  0  0  0  0  0
  -27.4016  -29.7295   25.4926 H   0  0  0  0  0  0
  -27.8980  -30.4149   23.9663 H   0  0  0  0  0  0
  -27.2673  -33.3672   26.1958 H   0  0  0  0  0  0
  -28.3918  -32.6845   25.0310 H   0  0  0  0  0  0
  -28.0689  -31.8513   26.5445 H   0  0  0  0  0  0
  -28.2574  -38.0082   24.7504 H   0  0  0  0  0  0
  -28.1109  -36.2594   24.6304 H   0  0  0  0  0  0
  -27.2271  -37.1403   25.8864 H   0  0  0  0  0  0
  -20.9419  -29.8736   21.6760 H   0  0  0  0  0  0
  -26.0149  -38.2770   24.1432 H   0  0  0  0  0  0
  -27.2319  -20.8944   21.5512 H   0  0  0  0  0  0
  -27.7348  -16.6003   21.5211 H   0  0  0  0  0  0
  -30.5648  -19.0853   19.4736 H   0  0  0  0  0  0
  -31.0386  -20.8883   22.4215 H   0  0  0  0  0  0
  -32.2955  -22.0392   22.0483 H   0  0  0  0  0  0
  -28.7825  -24.2678   22.5963 H   0  0  0  0  0  0
  -28.3216  -22.5827   22.6903 H   0  0  0  0  0  0
  -31.3734  -20.8843   19.9996 H   0  0  0  0  0  0
  -31.3308  -22.5715   19.8798 H   0  0  0  0  0  0
  -29.8621  -23.7815   20.4329 H   0  0  0  0  0  0
  -26.9830  -24.2664   20.3945 H   0  0  0  0  0  0
  -27.9863  -24.3221   18.9861 H   0  0  0  0  0  0
  -26.7969  -17.0283   23.4081 H   0  0  0  0  0  0
  -25.1612  -17.5232   23.7588 H   0  0  0  0  0  0
  -30.4151  -16.4723   19.1186 H   0  0  0  0  0  0
  1 25  1  0  0  0
  1 30  2  0  0  0
  1 86  1  0  0  0
  2  3  1  0  0  0
  2 25  1  0  0  0
  2 89  1  0  0  0
  2 90  1  0  0  0
  3  4  1  0  0  0
  3 91  1  0  0  0
  3 92  1  0  0  0
  4  5  1  0  0  0
  4 93  1  0  0  0
  4 94  1  0  0  0
  5  6  1  0  0  0
  5 26  1  0  0  0
  5 95  1  0  0  0
  6 25  1  0  0  0
  6 96  1  0  0  0
  6 97  1  0  0  0
  7  8  2  0  0  0
  7 26  1  0  0  0
  7 29  1  0  0  0
  8  9  1  0  0  0
  8 22  1  0  0  0
  9 10  1  0  0  0
  9 27  2  0  0  0
 10 11  2  0  0  0
 10 15  1  0  0  0
 11 12  1  0  0  0
 11 98  1  0  0  0
 12 13  2  0  0  0
 12 99  1  0  0  0
 13 14  1  0  0  0
 13 31  1  0  0  0
 14 15  2  0  0  0
 14100  1  0  0  0
 15101  1  0  0  0
 16 17  2  0  0  0
 16 21  1  0  0  0
 16 31  1  0  0  0
 17 18  1  0  0  0
 17102  1  0  0  0
 18 19  2  0  0  0
 18103  1  0  0  0
 19 20  1  0  0  0
 19 24  1  0  0  0
 20 21  2  0  0  0
 20104  1  0  0  0
 21 23  1  0  0  0
 22 28  1  0  0  0
 22 32  2  0  0  0
 26 27  1  0  0  0
 28105  1  0  0  0
 28106  1  0  0  0
 29107  1  0  0  0
 29108  1  0  0  0
 33 34  1  0  0  0
 33 66  1  0  0  0
 33 70  2  0  0  0
 34 36  1  0  0  0
 34 59  1  0  0  0
 34109  1  0  0  0
 35 44  2  0  0  0
 35 45  1  0  0  0
 35 68  1  0  0  0
 36 56  1  0  0  0
 36110  1  0  0  0
 37 39  1  0  0  0
 37 47  1  0  0  0
 37 66  1  0  0  0
 37111  1  0  0  0
 38 43  2  0  0  0
 38 46  1  0  0  0
 38 47  1  0  0  0
 39 64  1  0  0  0
 39 67  2  0  0  0
 40 52  1  0  0  0
 40 53  2  0  0  0
 40 58  1  0  0  0
 41112  1  0  0  0
 41113  1  0  0  0
 41114  1  0  0  0
 41 48  1  0  0  0
 42 43  1  0  0  0
 42 66  1  0  0  0
 42115  1  0  0  0
 42116  1  0  0  0
 43 44  1  0  0  0
 44117  1  0  0  0
 45 46  2  0  0  0
 45118  1  0  0  0
 46119  1  0  0  0
 47120  1  0  0  0
 47121  1  0  0  0
 48 56  1  0  0  0
 48 65  1  0  0  0
 48122  1  0  0  0
 49 50  1  0  0  0
 49 53  1  0  0  0
 49 64  1  0  0  0
 49123  1  0  0  0
 50 51  1  0  0  0
 50124  1  0  0  0
 50125  1  0  0  0
 51 52  1  0  0  0
 51126  1  0  0  0
 51127  1  0  0  0
 52128  1  0  0  0
 52129  1  0  0  0
 53 54  1  0  0  0
 54 55  2  0  0  0
 54130  1  0  0  0
 55 57  1  0  0  0
 55131  1  0  0  0
 56 69  2  0  0  0
 57 58  2  0  0  0
 57132  1  0  0  0
 58133  1  0  0  0
 59 60  1  0  0  0
 59 61  1  0  0  0
 59 62  1  0  0  0
 60134  1  0  0  0
 60135  1  0  0  0
 60136  1  0  0  0
 61137  1  0  0  0
 61138  1  0  0  0
 61139  1  0  0  0
 62140  1  0  0  0
 62141  1  0  0  0
 62142  1  0  0  0
 63 65  1  0  0  0
 63143  1  0  0  0
 63144  1  0  0  0
 63145  1  0  0  0
 64146  1  0  0  0
 65147  1  0  0  0
 68 83  1  0  0  0
 71 74  2  0  0  0
 71 75  1  0  0  0
 71148  1  0  0  0
 72 74  1  0  0  0
 72 76  2  0  0  0
 72149  1  0  0  0
 73 75  2  0  0  0
 73 76  1  0  0  0
 73150  1  0  0  0
 74 78  1  0  0  0
 75 84  1  0  0  0
 76 86  1  0  0  0
 77 79  1  0  0  0
 77 80  1  0  0  0
 77 87  2  0  0  0
 78 85  1  0  0  0
 78 88  2  0  0  0
 79 81  1  0  0  0
 79151  1  0  0  0
 79152  1  0  0  0
 80 82  1  0  0  0
 80153  1  0  0  0
 80154  1  0  0  0
 81 84  1  0  0  0
 81155  1  0  0  0
 81156  1  0  0  0
 82 83  1  0  0  0
 82 84  1  0  0  0
 82157  1  0  0  0
 83158  1  0  0  0
 83159  1  0  0  0
 85160  1  0  0  0
 85161  1  0  0  0
 86162  1  0  0  0
M  ISO  4   1 100  68 101  83 101  86 100
M  END
> <chiral flag>
0

> <version>
0

> <s_m_source_file>
/data/baiqing/PycharmProjects/Reinvent-master-3.2/result/LINK_invent/BTK/process_docking_weight1_custom_product_contain_oxygen_bond_distance_aromatic_linkinvent_7_9_3/rearranged_h_0089.sdf

> <i_m_source_file_index>
49

> <r_mmod_Potential_Energy-OPLS-2005>
640.443786621094

> <r_mmod_Stretch_Energy-OPLS-2005>
346.484802246094

> <r_mmod_Bend_Energy-OPLS-2005>
405.140747070312

> <r_mmod_Torsional_Energy-OPLS-2005>
283.023101806641

> <r_mmod_Improper_Torsional_Energy-OPLS-2005>
37.0764541625977

> <r_mmod_Van_der_Waal_Energy-OPLS-2005>
144.261520385742

> <r_mmod_Electrostatic_Energy-OPLS-2005>
-574.792358398438

> <r_mmod_Solvation_Energy-OPLS-2005>
-269.990509033203

> <b_mmod_Minimization_Converged-OPLS-2005>
0

> <r_mmod_RMS_Derivative-OPLS-2005>
4.26411628723145

$$$$
49
                    3D
 Structure written by MMmdl.
149157  0  0  1  0            999 V2000
  -30.5966  -14.8257   20.4448 C   0  0  0  0  0  0
  -30.4301  -12.5066   19.4884 C   0  0  0  0  0  0
  -29.5150  -12.5148   18.2440 C   0  0  0  0  0  0
  -28.0438  -12.3231   18.6579 C   0  0  0  0  0  0
  -27.6343  -13.2390   19.8419 C   0  0  2  0  0  0
  -28.6764  -13.2226   20.9808 C   0  0  0  0  0  0
  -25.2472  -13.8178   20.5680 C   0  0  0  0  0  0
  -24.1787  -13.0420   20.9239 C   0  0  0  0  0  0
  -24.6396  -11.6906   20.8758 C   0  0  0  0  0  0
  -23.9077  -10.4279   21.0414 C   0  0  0  0  0  0
  -24.3618   -9.4191   21.9190 C   0  0  0  0  0  0
  -23.6287   -8.2227   22.0752 C   0  0  0  0  0  0
  -22.4261   -8.0276   21.3548 C   0  0  0  0  0  0
  -21.9907   -9.0253   20.4646 C   0  0  0  0  0  0
  -22.7247  -10.2130   20.3061 C   0  0  0  0  0  0
  -21.6845   -6.0724   22.5277 C   0  0  0  0  0  0
  -21.4002   -6.5629   23.8210 C   0  0  0  0  0  0
  -21.3658   -5.6786   24.9180 C   0  0  0  0  0  0
  -21.6047   -4.3049   24.7234 C   0  0  0  0  0  0
  -21.8821   -3.8136   23.4356 C   0  0  0  0  0  0
  -21.9189   -4.6950   22.3407 C   0  0  0  0  0  0
  -22.7809  -13.5206   21.1883 C   0  0  0  0  0  0
  -22.1663   -4.2135   21.0988 F   0  0  0  0  0  0
  -21.5635   -3.4540   25.7752 F   0  0  0  0  0  0
  -29.9670  -13.5933   20.3900 N   0  0  0  0  0  0
  -26.2900  -12.9405   20.3236 N   0  0  0  0  0  0
  -25.9326  -11.6541   20.5734 N   0  0  0  0  0  0
  -22.0442  -12.8202   22.0437 N   0  0  0  0  0  0
  -25.4131  -15.1890   20.4025 N   0  0  0  0  0  0
  -31.8013  -14.8574   20.1734 O   0  0  0  0  0  0
  -21.6629   -6.8869   21.4240 O   0  0  0  0  0  0
  -22.3504  -14.5508   20.6715 O   0  0  0  0  0  0
  -24.6354  -31.8516   23.1948 C   0  0  0  0  0  0
  -25.9159  -32.4733   23.8313 C   0  0  1  0  0  0
  -27.2188  -27.2222   20.1497 C   0  0  0  0  0  0
  -25.5937  -33.8535   24.2236 N   0  0  0  0  0  0
  -23.4350  -30.4718   21.5391 C   0  0  2  0  0  0
  -24.8841  -28.9078   20.1159 C   0  0  0  0  0  0
  -22.7529  -29.4585   22.4908 C   0  0  0  0  0  0
  -18.0296  -28.1389   22.8484 C   0  0  0  0  0  0
  -24.1487  -36.7269   23.2642 C   0  0  0  0  0  0
  -25.9837  -30.7528   21.3805 C   0  0  0  0  0  0
  -26.0573  -29.3694   20.7283 C   0  0  0  0  0  0
  -27.2310  -28.5406   20.7306 C   0  0  0  0  0  0
  -26.0240  -26.8332   19.5112 C   0  0  0  0  0  0
  -24.8733  -27.6486   19.4946 C   0  0  0  0  0  0
  -23.6574  -29.8008   20.1579 C   0  0  0  0  0  0
  -25.4116  -36.3059   24.0327 C   0  0  1  0  0  0
  -20.5903  -28.3702   23.1261 C   0  0  2  0  0  0
  -20.6784  -26.9415   22.5409 C   0  0  0  0  0  0
  -19.5758  -26.6384   21.5216 C   0  0  0  0  0  0
  -18.1938  -26.7930   22.1626 C   0  0  0  0  0  0
  -19.1550  -28.8865   23.2864 C   0  0  0  0  0  0
  -18.9470  -30.1466   23.8884 C   0  0  0  0  0  0
  -17.6467  -30.6588   24.0561 C   0  0  0  0  0  0
  -25.9061  -34.9429   23.5089 C   0  0  0  0  0  0
  -16.5358  -29.9085   23.6331 C   0  0  0  0  0  0
  -16.7282  -28.6503   23.0354 C   0  0  0  0  0  0
  -26.4515  -31.6570   25.0716 C   0  0  0  0  0  0
  -25.3722  -31.3725   26.1423 C   0  0  0  0  0  0
  -27.0371  -30.2982   24.6230 C   0  0  0  0  0  0
  -27.6064  -32.4317   25.7489 C   0  0  0  0  0  0
  -27.5579  -37.1790   24.8470 C   0  0  0  0  0  0
  -21.4233  -29.3040   22.3648 N   0  0  0  0  0  0
  -26.4291  -37.3761   23.9412 N   0  0  0  0  0  0
  -24.7040  -31.0450   22.0940 N   0  0  0  0  0  0
  -23.4209  -28.8136   23.3032 O   0  0  0  0  0  0
  -28.2863  -26.2860   20.1462 O   0  0  0  0  0  0
  -26.5641  -34.8916   22.4663 O   0  0  0  0  0  0
  -23.5494  -32.1349   23.7221 O   0  0  0  0  0  0
  -28.5818  -23.7249   20.5602 C   0  0  0  0  0  0
  -27.8336  -18.3110   20.2479 C   0  0  0  0  0  0
  -26.9039  -19.3689   20.1371 C   0  0  0  0  0  0
  -29.5639  -19.9818   20.5640 C   0  0  0  0  0  0
  -29.2040  -18.5572   20.4675 C   0  0  0  0  0  0
  -28.6317  -21.1129   20.4511 C   0  0  0  0  0  0
  -27.2786  -20.7307   20.2306 C   0  0  0  0  0  0
  -28.1196  -24.9939   20.7565 C   0  0  0  0  0  0
  -30.2193  -17.3486   20.5304 C   0  0  0  0  0  0
  -28.9935  -22.5351   20.6288 N   0  0  0  0  0  0
  -26.2662  -21.6845   20.1189 N   0  0  0  0  0  0
  -29.8290  -15.9975   20.5750 N   0  0  0  0  0  0
  -31.4127  -17.6667   20.5376 O   0  0  0  0  0  0
  -31.4707  -12.6328   19.1848 H   0  0  0  0  0  0
  -30.3849  -11.5419   19.9970 H   0  0  0  0  0  0
  -29.8136  -11.7301   17.5476 H   0  0  0  0  0  0
  -29.6296  -13.4587   17.7081 H   0  0  0  0  0  0
  -27.9187  -11.2778   18.9423 H   0  0  0  0  0  0
  -27.3851  -12.4865   17.8047 H   0  0  0  0  0  0
  -27.6136  -14.2507   19.4375 H   0  0  0  0  0  0
  -28.7318  -12.2370   21.4455 H   0  0  0  0  0  0
  -28.3961  -13.9210   21.7709 H   0  0  0  0  0  0
  -25.2758   -9.5662   22.4775 H   0  0  0  0  0  0
  -23.9988   -7.4612   22.7464 H   0  0  0  0  0  0
  -21.0840   -8.8780   19.8951 H   0  0  0  0  0  0
  -22.3701  -10.9681   19.6180 H   0  0  0  0  0  0
  -21.1981   -7.6134   23.9715 H   0  0  0  0  0  0
  -21.1482   -6.0514   25.9087 H   0  0  0  0  0  0
  -22.0598   -2.7598   23.2866 H   0  0  0  0  0  0
  -22.4036  -11.9872   22.4855 H   0  0  0  0  0  0
  -21.1062  -13.1250   22.2622 H   0  0  0  0  0  0
  -26.2311  -15.6102   19.9857 H   0  0  0  0  0  0
  -24.6298  -15.8285   20.4788 H   0  0  0  0  0  0
  -26.7224  -32.5373   23.1051 H   0  0  0  0  0  0
  -25.0068  -33.9658   25.0373 H   0  0  0  0  0  0
  -22.7323  -31.2940   21.3878 H   0  0  0  0  0  0
  -23.3758  -35.9594   23.3300 H   0  0  0  0  0  0
  -24.3580  -36.8897   22.2059 H   0  0  0  0  0  0
  -23.7229  -37.6463   23.6671 H   0  0  0  0  0  0
  -26.1264  -31.5094   20.6074 H   0  0  0  0  0  0
  -26.8595  -30.8051   22.0160 H   0  0  0  0  0  0
  -28.1326  -28.8904   21.2139 H   0  0  0  0  0  0
  -25.9744  -25.8632   19.0367 H   0  0  0  0  0  0
  -23.9764  -27.2894   19.0083 H   0  0  0  0  0  0
  -23.7865  -30.5732   19.3992 H   0  0  0  0  0  0
  -22.7751  -29.2366   19.8515 H   0  0  0  0  0  0
  -25.1300  -36.1904   25.0821 H   0  0  0  0  0  0
  -20.9991  -28.3283   24.1384 H   0  0  0  0  0  0
  -20.5683  -26.2315   23.3619 H   0  0  0  0  0  0
  -21.6650  -26.7435   22.1202 H   0  0  0  0  0  0
  -19.6916  -25.6296   21.1246 H   0  0  0  0  0  0
  -19.6690  -27.3194   20.6746 H   0  0  0  0  0  0
  -17.4207  -26.6678   21.4028 H   0  0  0  0  0  0
  -18.0333  -26.0076   22.9025 H   0  0  0  0  0  0
  -19.7947  -30.7287   24.2247 H   0  0  0  0  0  0
  -17.5020  -31.6265   24.5165 H   0  0  0  0  0  0
  -15.5357  -30.2979   23.7666 H   0  0  0  0  0  0
  -15.8685  -28.0818   22.7073 H   0  0  0  0  0  0
  -24.5914  -30.7058   25.7744 H   0  0  0  0  0  0
  -24.8894  -32.2892   26.4818 H   0  0  0  0  0  0
  -25.8029  -30.8923   27.0217 H   0  0  0  0  0  0
  -26.2969  -29.6710   24.1248 H   0  0  0  0  0  0
  -27.4034  -29.7265   25.4768 H   0  0  0  0  0  0
  -27.8854  -30.4245   23.9498 H   0  0  0  0  0  0
  -27.2677  -33.3633   26.2032 H   0  0  0  0  0  0
  -28.3891  -32.6844   25.0324 H   0  0  0  0  0  0
  -28.0709  -31.8456   26.5428 H   0  0  0  0  0  0
  -28.2600  -38.0085   24.7520 H   0  0  0  0  0  0
  -28.1072  -36.2617   24.6296 H   0  0  0  0  0  0
  -27.2298  -37.1439   25.8873 H   0  0  0  0  0  0
  -20.9440  -29.8743   21.6820 H   0  0  0  0  0  0
  -26.0168  -38.2836   24.1411 H   0  0  0  0  0  0
  -27.4736  -17.2978   20.1550 H   0  0  0  0  0  0
  -25.8654  -19.1120   19.9787 H   0  0  0  0  0  0
  -30.6048  -20.2169   20.7355 H   0  0  0  0  0  0
  -27.5083  -25.1454   21.6349 H   0  0  0  0  0  0
  -26.5407  -22.6349   19.9002 H   0  0  0  0  0  0
  -25.3874  -21.4168   19.6890 H   0  0  0  0  0  0
  -28.8403  -15.8474   20.6678 H   0  0  0  0  0  0
  1 25  1  0  0  0
  1 30  2  0  0  0
  1 82  1  0  0  0
  2  3  1  0  0  0
  2 25  1  0  0  0
  2 84  1  0  0  0
  2 85  1  0  0  0
  3  4  1  0  0  0
  3 86  1  0  0  0
  3 87  1  0  0  0
  4  5  1  0  0  0
  4 88  1  0  0  0
  4 89  1  0  0  0
  5  6  1  0  0  0
  5 26  1  0  0  0
  5 90  1  0  0  0
  6 25  1  0  0  0
  6 91  1  0  0  0
  6 92  1  0  0  0
  7  8  2  0  0  0
  7 26  1  0  0  0
  7 29  1  0  0  0
  8  9  1  0  0  0
  8 22  1  0  0  0
  9 10  1  0  0  0
  9 27  2  0  0  0
 10 11  2  0  0  0
 10 15  1  0  0  0
 11 12  1  0  0  0
 11 93  1  0  0  0
 12 13  2  0  0  0
 12 94  1  0  0  0
 13 14  1  0  0  0
 13 31  1  0  0  0
 14 15  2  0  0  0
 14 95  1  0  0  0
 15 96  1  0  0  0
 16 17  2  0  0  0
 16 21  1  0  0  0
 16 31  1  0  0  0
 17 18  1  0  0  0
 17 97  1  0  0  0
 18 19  2  0  0  0
 18 98  1  0  0  0
 19 20  1  0  0  0
 19 24  1  0  0  0
 20 21  2  0  0  0
 20 99  1  0  0  0
 21 23  1  0  0  0
 22 28  1  0  0  0
 22 32  2  0  0  0
 26 27  1  0  0  0
 28100  1  0  0  0
 28101  1  0  0  0
 29102  1  0  0  0
 29103  1  0  0  0
 33 34  1  0  0  0
 33 66  1  0  0  0
 33 70  2  0  0  0
 34 36  1  0  0  0
 34 59  1  0  0  0
 34104  1  0  0  0
 35 44  2  0  0  0
 35 45  1  0  0  0
 35 68  1  0  0  0
 36 56  1  0  0  0
 36105  1  0  0  0
 37 39  1  0  0  0
 37 47  1  0  0  0
 37 66  1  0  0  0
 37106  1  0  0  0
 38 43  2  0  0  0
 38 46  1  0  0  0
 38 47  1  0  0  0
 39 64  1  0  0  0
 39 67  2  0  0  0
 40 52  1  0  0  0
 40 53  2  0  0  0
 40 58  1  0  0  0
 41107  1  0  0  0
 41108  1  0  0  0
 41109  1  0  0  0
 41 48  1  0  0  0
 42 43  1  0  0  0
 42 66  1  0  0  0
 42110  1  0  0  0
 42111  1  0  0  0
 43 44  1  0  0  0
 44112  1  0  0  0
 45 46  2  0  0  0
 45113  1  0  0  0
 46114  1  0  0  0
 47115  1  0  0  0
 47116  1  0  0  0
 48 56  1  0  0  0
 48 65  1  0  0  0
 48117  1  0  0  0
 49 50  1  0  0  0
 49 53  1  0  0  0
 49 64  1  0  0  0
 49118  1  0  0  0
 50 51  1  0  0  0
 50119  1  0  0  0
 50120  1  0  0  0
 51 52  1  0  0  0
 51121  1  0  0  0
 51122  1  0  0  0
 52123  1  0  0  0
 52124  1  0  0  0
 53 54  1  0  0  0
 54 55  2  0  0  0
 54125  1  0  0  0
 55 57  1  0  0  0
 55126  1  0  0  0
 56 69  2  0  0  0
 57 58  2  0  0  0
 57127  1  0  0  0
 58128  1  0  0  0
 59 60  1  0  0  0
 59 61  1  0  0  0
 59 62  1  0  0  0
 60129  1  0  0  0
 60130  1  0  0  0
 60131  1  0  0  0
 61132  1  0  0  0
 61133  1  0  0  0
 61134  1  0  0  0
 62135  1  0  0  0
 62136  1  0  0  0
 62137  1  0  0  0
 63 65  1  0  0  0
 63138  1  0  0  0
 63139  1  0  0  0
 63140  1  0  0  0
 64141  1  0  0  0
 65142  1  0  0  0
 68 78  1  0  0  0
 71 78  2  0  0  0
 71 80  2  0  0  0
 72 73  2  0  0  0
 72 75  1  0  0  0
 72143  1  0  0  0
 73 77  1  0  0  0
 73144  1  0  0  0
 74 75  2  0  0  0
 74 76  1  0  0  0
 74145  1  0  0  0
 75 79  1  0  0  0
 76 77  2  0  0  0
 76 80  1  0  0  0
 77 81  1  0  0  0
 78146  1  0  0  0
 79 82  1  0  0  0
 79 83  2  0  0  0
 81147  1  0  0  0
 81148  1  0  0  0
 82149  1  0  0  0
M  ISO  4   1 100  68 101  78 101  82 100
M  END
> <chiral flag>
0

> <version>
0

> <s_m_source_file>
/data/baiqing/PycharmProjects/Reinvent-master-3.2/result/LINK_invent/BTK/process_docking_weight1_custom_product_contain_oxygen_bond_distance_aromatic_linkinvent_7_9_3/rearranged_h_0089.sdf

> <i_m_source_file_index>
50

> <r_mmod_Potential_Energy-OPLS-2005>
54.2511940002441

> <r_mmod_Stretch_Energy-OPLS-2005>
144.98503112793

> <r_mmod_Bend_Energy-OPLS-2005>
166.653335571289

> <r_mmod_Torsional_Energy-OPLS-2005>
189.340270996094

> <r_mmod_Improper_Torsional_Energy-OPLS-2005>
9.40165901184082

> <r_mmod_Van_der_Waal_Energy-OPLS-2005>
140.392074584961

> <r_mmod_Electrostatic_Energy-OPLS-2005>
-481.984100341797

> <r_mmod_Solvation_Energy-OPLS-2005>
-232.997497558594

> <b_mmod_Minimization_Converged-OPLS-2005>
0

> <r_mmod_RMS_Derivative-OPLS-2005>
1.31774282455444

$$$$
50
                    3D
 Structure written by MMmdl.
154163  0  0  1  0            999 V2000
  -30.6458  -14.6414   20.6074 C   0  0  0  0  0  0
  -30.4402  -12.4263   19.4594 C   0  0  0  0  0  0
  -29.5102  -12.5439   18.2297 C   0  0  0  0  0  0
  -28.0321  -12.3643   18.6298 C   0  0  0  0  0  0
  -27.6541  -13.2146   19.8682 C   0  0  2  0  0  0
  -28.6878  -13.0243   20.9945 C   0  0  0  0  0  0
  -25.2548  -13.8158   20.5677 C   0  0  0  0  0  0
  -24.1821  -13.0421   20.9194 C   0  0  0  0  0  0
  -24.6375  -11.6898   20.8726 C   0  0  0  0  0  0
  -23.9046  -10.4285   21.0392 C   0  0  0  0  0  0
  -24.3611   -9.4211   21.9180 C   0  0  0  0  0  0
  -23.6297   -8.2238   22.0746 C   0  0  0  0  0  0
  -22.4274   -8.0278   21.3529 C   0  0  0  0  0  0
  -21.9910   -9.0253   20.4633 C   0  0  0  0  0  0
  -22.7225  -10.2131   20.3042 C   0  0  0  0  0  0
  -21.6853   -6.0742   22.5281 C   0  0  0  0  0  0
  -21.4014   -6.5640   23.8212 C   0  0  0  0  0  0
  -21.3659   -5.6789   24.9179 C   0  0  0  0  0  0
  -21.6039   -4.3058   24.7232 C   0  0  0  0  0  0
  -21.8821   -3.8155   23.4344 C   0  0  0  0  0  0
  -21.9196   -4.6967   22.3398 C   0  0  0  0  0  0
  -22.7845  -13.5214   21.1883 C   0  0  0  0  0  0
  -22.1666   -4.2157   21.0972 F   0  0  0  0  0  0
  -21.5626   -3.4535   25.7739 F   0  0  0  0  0  0
  -30.0106  -13.4200   20.4729 N   0  0  0  0  0  0
  -26.2970  -12.9330   20.3308 N   0  0  0  0  0  0
  -25.9307  -11.6484   20.5718 N   0  0  0  0  0  0
  -22.0491  -12.8204   22.0428 N   0  0  0  0  0  0
  -25.4255  -15.1872   20.4097 N   0  0  0  0  0  0
  -31.7226  -14.8526   20.0369 O   0  0  0  0  0  0
  -21.6631   -6.8880   21.4241 O   0  0  0  0  0  0
  -22.3539  -14.5546   20.6756 O   0  0  0  0  0  0
  -24.6271  -31.8583   23.2038 C   0  0  0  0  0  0
  -25.9119  -32.4772   23.8358 C   0  0  1  0  0  0
  -27.2296  -27.3240   20.1200 C   0  0  0  0  0  0
  -25.5940  -33.8565   24.2283 N   0  0  0  0  0  0
  -23.4210  -30.4789   21.5474 C   0  0  2  0  0  0
  -24.8704  -28.9326   20.1134 C   0  0  0  0  0  0
  -22.7480  -29.4578   22.4973 C   0  0  0  0  0  0
  -18.0265  -28.1398   22.8471 C   0  0  0  0  0  0
  -24.1479  -36.7267   23.2634 C   0  0  0  0  0  0
  -25.9608  -30.7922   21.3705 C   0  0  0  0  0  0
  -26.0384  -29.4166   20.7174 C   0  0  0  0  0  0
  -27.2255  -28.6234   20.7118 C   0  0  0  0  0  0
  -26.0417  -26.8883   19.4970 C   0  0  0  0  0  0
  -24.8714  -27.6712   19.4960 C   0  0  0  0  0  0
  -23.6369  -29.8127   20.1615 C   0  0  0  0  0  0
  -25.4099  -36.3067   24.0333 C   0  0  1  0  0  0
  -20.5865  -28.3660   23.1308 C   0  0  2  0  0  0
  -20.6752  -26.9384   22.5422 C   0  0  0  0  0  0
  -19.5727  -26.6380   21.5224 C   0  0  0  0  0  0
  -18.1904  -26.7939   22.1617 C   0  0  0  0  0  0
  -19.1522  -28.8854   23.2873 C   0  0  0  0  0  0
  -18.9441  -30.1465   23.8872 C   0  0  0  0  0  0
  -17.6439  -30.6586   24.0559 C   0  0  0  0  0  0
  -25.9051  -34.9442   23.5103 C   0  0  0  0  0  0
  -16.5326  -29.9079   23.6348 C   0  0  0  0  0  0
  -16.7251  -28.6512   23.0342 C   0  0  0  0  0  0
  -26.4508  -31.6578   25.0713 C   0  0  0  0  0  0
  -25.3749  -31.3751   26.1447 C   0  0  0  0  0  0
  -27.0313  -30.2981   24.6154 C   0  0  0  0  0  0
  -27.6069  -32.4306   25.7493 C   0  0  0  0  0  0
  -27.5591  -37.1747   24.8435 C   0  0  0  0  0  0
  -21.4191  -29.3014   22.3716 N   0  0  0  0  0  0
  -26.4259  -37.3778   23.9448 N   0  0  0  0  0  0
  -24.6881  -31.0604   22.0975 N   0  0  0  0  0  0
  -23.4196  -28.8102   23.3045 O   0  0  0  0  0  0
  -28.3269  -26.4529   20.1331 O   0  0  0  0  0  0
  -26.5591  -34.8917   22.4657 O   0  0  0  0  0  0
  -23.5431  -32.1379   23.7370 O   0  0  0  0  0  0
  -30.4193  -17.8647   19.9978 C   0  0  0  0  0  0
  -30.2692  -19.2624   19.7155 C   0  0  0  0  0  0
  -28.8915  -19.5209   21.6459 C   0  0  0  0  0  0
  -29.8311  -17.2355   21.1344 C   0  0  0  0  0  0
  -29.5106  -20.1464   20.5368 C   0  0  0  0  0  0
  -29.0482  -18.1332   21.9392 C   0  0  0  0  0  0
  -28.7631  -23.9638   20.3379 C   0  0  0  0  0  0
  -29.8640  -23.7625   19.3888 C   0  0  0  0  0  0
  -28.1102  -25.1462   20.6218 C   0  0  0  0  0  0
  -30.0296  -15.7444   21.5586 C   0  0  0  0  0  0
  -28.4906  -22.5504   20.9249 C   0  0  0  0  0  0
  -30.2697  -22.2770   19.3390 C   0  0  0  0  0  0
  -29.7362  -15.3975   22.7454 N   0  0  0  0  0  0
  -29.3885  -21.5608   20.2678 N   0  0  0  0  0  0
  -30.4198  -24.6256   18.7030 O   0  0  0  0  0  0
  -28.4136  -17.6806   23.0503 F   0  0  0  0  0  0
  -31.4784  -12.5681   19.1554 H   0  0  0  0  0  0
  -30.3986  -11.4192   19.8784 H   0  0  0  0  0  0
  -29.7853  -11.8050   17.4762 H   0  0  0  0  0  0
  -29.6447  -13.5212   17.7646 H   0  0  0  0  0  0
  -27.8714  -11.3079   18.8478 H   0  0  0  0  0  0
  -27.3793  -12.6062   17.7901 H   0  0  0  0  0  0
  -27.6868  -14.2586   19.5584 H   0  0  0  0  0  0
  -28.7118  -11.9801   21.3105 H   0  0  0  0  0  0
  -28.3663  -13.5673   21.8780 H   0  0  0  0  0  0
  -25.2755   -9.5695   22.4746 H   0  0  0  0  0  0
  -24.0019   -7.4626   22.7450 H   0  0  0  0  0  0
  -21.0847   -8.8758   19.8939 H   0  0  0  0  0  0
  -22.3679  -10.9668   19.6143 H   0  0  0  0  0  0
  -21.2000   -7.6149   23.9724 H   0  0  0  0  0  0
  -21.1473   -6.0516   25.9083 H   0  0  0  0  0  0
  -22.0597   -2.7619   23.2834 H   0  0  0  0  0  0
  -22.4110  -11.9840   22.4790 H   0  0  0  0  0  0
  -21.1117  -13.1227   22.2649 H   0  0  0  0  0  0
  -24.6609  -15.8438   20.5222 H   0  0  0  0  0  0
  -26.2837  -15.6277   20.1059 H   0  0  0  0  0  0
  -26.7187  -32.5453   23.1105 H   0  0  0  0  0  0
  -25.0196  -33.9725   25.0496 H   0  0  0  0  0  0
  -22.7139  -31.2990   21.4066 H   0  0  0  0  0  0
  -23.3768  -35.9568   23.3228 H   0  0  0  0  0  0
  -24.3627  -36.8944   22.2063 H   0  0  0  0  0  0
  -23.7164  -37.6426   23.6676 H   0  0  0  0  0  0
  -26.0884  -31.5529   20.5988 H   0  0  0  0  0  0
  -26.8434  -30.8464   21.9958 H   0  0  0  0  0  0
  -28.1246  -28.9908   21.1874 H   0  0  0  0  0  0
  -26.0118  -25.9184   19.0226 H   0  0  0  0  0  0
  -23.9749  -27.2901   19.0259 H   0  0  0  0  0  0
  -23.7563  -30.5894   19.4051 H   0  0  0  0  0  0
  -22.7593  -29.2404   19.8568 H   0  0  0  0  0  0
  -25.1274  -36.1919   25.0809 H   0  0  0  0  0  0
  -20.9943  -28.3213   24.1439 H   0  0  0  0  0  0
  -20.5666  -26.2256   23.3610 H   0  0  0  0  0  0
  -21.6623  -26.7430   22.1215 H   0  0  0  0  0  0
  -19.6866  -25.6295   21.1252 H   0  0  0  0  0  0
  -19.6696  -27.3215   20.6780 H   0  0  0  0  0  0
  -17.4194  -26.6690   21.3996 H   0  0  0  0  0  0
  -18.0273  -26.0111   22.9038 H   0  0  0  0  0  0
  -19.7924  -30.7289   24.2213 H   0  0  0  0  0  0
  -17.5003  -31.6270   24.5159 H   0  0  0  0  0  0
  -15.5325  -30.2958   23.7710 H   0  0  0  0  0  0
  -15.8654  -28.0843   22.7040 H   0  0  0  0  0  0
  -24.5974  -30.7008   25.7836 H   0  0  0  0  0  0
  -24.8880  -32.2934   26.4747 H   0  0  0  0  0  0
  -25.8105  -30.9066   27.0279 H   0  0  0  0  0  0
  -26.2855  -29.6758   24.1167 H   0  0  0  0  0  0
  -27.3992  -29.7215   25.4661 H   0  0  0  0  0  0
  -27.8772  -30.4255   23.9383 H   0  0  0  0  0  0
  -27.2680  -33.3650   26.1996 H   0  0  0  0  0  0
  -28.3918  -32.6775   25.0326 H   0  0  0  0  0  0
  -28.0666  -31.8455   26.5473 H   0  0  0  0  0  0
  -28.2480  -38.0163   24.7672 H   0  0  0  0  0  0
  -28.1192  -36.2710   24.6003 H   0  0  0  0  0  0
  -27.2355  -37.1095   25.8834 H   0  0  0  0  0  0
  -20.9375  -29.8776   21.6954 H   0  0  0  0  0  0
  -26.0127  -38.2811   24.1601 H   0  0  0  0  0  0
  -31.0246  -17.2775   19.3237 H   0  0  0  0  0  0
  -30.7607  -19.6506   18.8349 H   0  0  0  0  0  0
  -28.2875  -20.1094   22.3201 H   0  0  0  0  0  0
  -27.3036  -25.1404   21.3406 H   0  0  0  0  0  0
  -27.4471  -22.2746   20.7650 H   0  0  0  0  0  0
  -28.6682  -22.5736   22.0013 H   0  0  0  0  0  0
  -31.3113  -22.1718   19.6428 H   0  0  0  0  0  0
  -30.1581  -21.8994   18.3229 H   0  0  0  0  0  0
  -29.3490  -16.1791   23.2657 H   0  0  0  0  0  0
  1 25  1  0  0  0
  1 30  2  0  0  0
  1 80  1  0  0  0
  2  3  1  0  0  0
  2 25  1  0  0  0
  2 87  1  0  0  0
  2 88  1  0  0  0
  3  4  1  0  0  0
  3 89  1  0  0  0
  3 90  1  0  0  0
  4  5  1  0  0  0
  4 91  1  0  0  0
  4 92  1  0  0  0
  5  6  1  0  0  0
  5 26  1  0  0  0
  5 93  1  0  0  0
  6 25  1  0  0  0
  6 94  1  0  0  0
  6 95  1  0  0  0
  7  8  2  0  0  0
  7 26  1  0  0  0
  7 29  1  0  0  0
  8  9  1  0  0  0
  8 22  1  0  0  0
  9 10  1  0  0  0
  9 27  2  0  0  0
 10 11  2  0  0  0
 10 15  1  0  0  0
 11 12  1  0  0  0
 11 96  1  0  0  0
 12 13  2  0  0  0
 12 97  1  0  0  0
 13 14  1  0  0  0
 13 31  1  0  0  0
 14 15  2  0  0  0
 14 98  1  0  0  0
 15 99  1  0  0  0
 16 17  2  0  0  0
 16 21  1  0  0  0
 16 31  1  0  0  0
 17 18  1  0  0  0
 17100  1  0  0  0
 18 19  2  0  0  0
 18101  1  0  0  0
 19 20  1  0  0  0
 19 24  1  0  0  0
 20 21  2  0  0  0
 20102  1  0  0  0
 21 23  1  0  0  0
 22 28  1  0  0  0
 22 32  2  0  0  0
 26 27  1  0  0  0
 28103  1  0  0  0
 28104  1  0  0  0
 29105  1  0  0  0
 29106  1  0  0  0
 33 34  1  0  0  0
 33 66  1  0  0  0
 33 70  2  0  0  0
 34 36  1  0  0  0
 34 59  1  0  0  0
 34107  1  0  0  0
 35 44  2  0  0  0
 35 45  1  0  0  0
 35 68  1  0  0  0
 36 56  1  0  0  0
 36108  1  0  0  0
 37 39  1  0  0  0
 37 47  1  0  0  0
 37 66  1  0  0  0
 37109  1  0  0  0
 38 43  2  0  0  0
 38 46  1  0  0  0
 38 47  1  0  0  0
 39 64  1  0  0  0
 39 67  2  0  0  0
 40 52  1  0  0  0
 40 53  2  0  0  0
 40 58  1  0  0  0
 41110  1  0  0  0
 41111  1  0  0  0
 41112  1  0  0  0
 41 48  1  0  0  0
 42 43  1  0  0  0
 42 66  1  0  0  0
 42113  1  0  0  0
 42114  1  0  0  0
 43 44  1  0  0  0
 44115  1  0  0  0
 45 46  2  0  0  0
 45116  1  0  0  0
 46117  1  0  0  0
 47118  1  0  0  0
 47119  1  0  0  0
 48 56  1  0  0  0
 48 65  1  0  0  0
 48120  1  0  0  0
 49 50  1  0  0  0
 49 53  1  0  0  0
 49 64  1  0  0  0
 49121  1  0  0  0
 50 51  1  0  0  0
 50122  1  0  0  0
 50123  1  0  0  0
 51 52  1  0  0  0
 51124  1  0  0  0
 51125  1  0  0  0
 52126  1  0  0  0
 52127  1  0  0  0
 53 54  1  0  0  0
 54 55  2  0  0  0
 54128  1  0  0  0
 55 57  1  0  0  0
 55129  1  0  0  0
 56 69  2  0  0  0
 57 58  2  0  0  0
 57130  1  0  0  0
 58131  1  0  0  0
 59 60  1  0  0  0
 59 61  1  0  0  0
 59 62  1  0  0  0
 60132  1  0  0  0
 60133  1  0  0  0
 60134  1  0  0  0
 61135  1  0  0  0
 61136  1  0  0  0
 61137  1  0  0  0
 62138  1  0  0  0
 62139  1  0  0  0
 62140  1  0  0  0
 63 65  1  0  0  0
 63141  1  0  0  0
 63142  1  0  0  0
 63143  1  0  0  0
 64144  1  0  0  0
 65145  1  0  0  0
 68 79  1  0  0  0
 71 72  2  0  0  0
 71 74  1  0  0  0
 71146  1  0  0  0
 72 75  1  0  0  0
 72147  1  0  0  0
 73 75  2  0  0  0
 73 76  1  0  0  0
 73148  1  0  0  0
 74 76  2  0  0  0
 74 80  1  0  0  0
 75 84  1  0  0  0
 76 86  1  0  0  0
 77 78  1  0  0  0
 77 79  2  0  0  0
 77 81  1  0  0  0
 78 82  1  0  0  0
 78 85  2  0  0  0
 79149  1  0  0  0
 80 83  2  0  0  0
 81 84  1  0  0  0
 81150  1  0  0  0
 81151  1  0  0  0
 82 84  1  0  0  0
 82152  1  0  0  0
 82153  1  0  0  0
 83154  1  0  0  0
M  ISO  4   1 100  68 101  79 101  80 100
M  END
> <chiral flag>
0

> <version>
0

> <s_m_source_file>
/data/baiqing/PycharmProjects/Reinvent-master-3.2/result/LINK_invent/BTK/process_docking_weight1_custom_product_contain_oxygen_bond_distance_aromatic_linkinvent_7_9_3/rearranged_h_0089.sdf

> <i_m_source_file_index>
51

> <r_mmod_Potential_Energy-OPLS-2005>
267.776794433594

> <r_mmod_Stretch_Energy-OPLS-2005>
92.5927429199219

> <r_mmod_Bend_Energy-OPLS-2005>
196.673599243164

> <r_mmod_Torsional_Energy-OPLS-2005>
189.447860717773

> <r_mmod_Improper_Torsional_Energy-OPLS-2005>
2.54894423484802

> <r_mmod_Van_der_Waal_Energy-OPLS-2005>
149.137115478516

> <r_mmod_Electrostatic_Energy-OPLS-2005>
-184.036483764648

> <r_mmod_Solvation_Energy-OPLS-2005>
-226.365432739258

> <b_mmod_Minimization_Converged-OPLS-2005>
0

> <r_mmod_RMS_Derivative-OPLS-2005>
3.00761771202087

$$$$
51
                    3D
 Structure written by MMmdl.
156164  0  0  1  0            999 V2000
  -30.7182  -14.4751   20.5213 C   0  0  0  0  0  0
  -30.3976  -12.2892   19.4553 C   0  0  0  0  0  0
  -29.4991  -12.4889   18.2172 C   0  0  0  0  0  0
  -28.0112  -12.3737   18.6124 C   0  0  0  0  0  0
  -27.6492  -13.2220   19.8644 C   0  0  2  0  0  0
  -28.6830  -13.0456   21.0009 C   0  0  0  0  0  0
  -25.2486  -13.8153   20.5613 C   0  0  0  0  0  0
  -24.1772  -13.0430   20.9189 C   0  0  0  0  0  0
  -24.6344  -11.6902   20.8729 C   0  0  0  0  0  0
  -23.9021  -10.4287   21.0396 C   0  0  0  0  0  0
  -24.3585   -9.4217   21.9177 C   0  0  0  0  0  0
  -23.6289   -8.2247   22.0761 C   0  0  0  0  0  0
  -22.4254   -8.0256   21.3575 C   0  0  0  0  0  0
  -21.9875   -9.0228   20.4661 C   0  0  0  0  0  0
  -22.7193  -10.2107   20.3071 C   0  0  0  0  0  0
  -21.6855   -6.0716   22.5275 C   0  0  0  0  0  0
  -21.4006   -6.5633   23.8199 C   0  0  0  0  0  0
  -21.3674   -5.6791   24.9158 C   0  0  0  0  0  0
  -21.6054   -4.3051   24.7219 C   0  0  0  0  0  0
  -21.8823   -3.8141   23.4331 C   0  0  0  0  0  0
  -21.9190   -4.6947   22.3386 C   0  0  0  0  0  0
  -22.7790  -13.5236   21.1853 C   0  0  0  0  0  0
  -22.1654   -4.2129   21.0970 F   0  0  0  0  0  0
  -21.5637   -3.4550   25.7747 F   0  0  0  0  0  0
  -30.0144  -13.3123   20.4441 N   0  0  0  0  0  0
  -26.2930  -12.9368   20.3261 N   0  0  0  0  0  0
  -25.9270  -11.6512   20.5708 N   0  0  0  0  0  0
  -22.0430  -12.8237   22.0412 N   0  0  0  0  0  0
  -25.4199  -15.1855   20.3906 N   0  0  0  0  0  0
  -31.8780  -14.5600   20.1021 O   0  0  0  0  0  0
  -21.6654   -6.8835   21.4231 O   0  0  0  0  0  0
  -22.3486  -14.5570   20.6737 O   0  0  0  0  0  0
  -24.6123  -31.8692   23.2132 C   0  0  0  0  0  0
  -25.9036  -32.4834   23.8403 C   0  0  1  0  0  0
  -27.2233  -27.4510   20.1006 C   0  0  0  0  0  0
  -25.5897  -33.8637   24.2324 N   0  0  0  0  0  0
  -23.4000  -30.4951   21.5512 C   0  0  2  0  0  0
  -24.8464  -28.9652   20.1113 C   0  0  0  0  0  0
  -22.7388  -29.4678   22.4983 C   0  0  0  0  0  0
  -18.0265  -28.1373   22.8488 C   0  0  0  0  0  0
  -24.1486  -36.7327   23.2641 C   0  0  0  0  0  0
  -25.9274  -30.8414   21.3656 C   0  0  0  0  0  0
  -26.0032  -29.4763   20.7138 C   0  0  0  0  0  0
  -27.1986  -28.7225   20.7130 C   0  0  0  0  0  0
  -26.0614  -26.9573   19.4785 C   0  0  0  0  0  0
  -24.8683  -27.7030   19.4910 C   0  0  0  0  0  0
  -23.6065  -29.8281   20.1644 C   0  0  0  0  0  0
  -25.4108  -36.3124   24.0332 C   0  0  1  0  0  0
  -20.5856  -28.3665   23.1316 C   0  0  2  0  0  0
  -20.6759  -26.9406   22.5417 C   0  0  0  0  0  0
  -19.5744  -26.6382   21.5206 C   0  0  0  0  0  0
  -18.1916  -26.7918   22.1608 C   0  0  0  0  0  0
  -19.1520  -28.8825   23.2899 C   0  0  0  0  0  0
  -18.9446  -30.1434   23.8914 C   0  0  0  0  0  0
  -17.6449  -30.6575   24.0555 C   0  0  0  0  0  0
  -25.9036  -34.9485   23.5131 C   0  0  0  0  0  0
  -16.5343  -29.9080   23.6328 C   0  0  0  0  0  0
  -16.7252  -28.6500   23.0345 C   0  0  0  0  0  0
  -26.4460  -31.6607   25.0730 C   0  0  0  0  0  0
  -25.3739  -31.3705   26.1493 C   0  0  0  0  0  0
  -27.0292  -30.3047   24.6118 C   0  0  0  0  0  0
  -27.6037  -32.4320   25.7486 C   0  0  0  0  0  0
  -27.5578  -37.1819   24.8455 C   0  0  0  0  0  0
  -21.4119  -29.3039   22.3720 N   0  0  0  0  0  0
  -26.4289  -37.3808   23.9407 N   0  0  0  0  0  0
  -24.6643  -31.0815   22.1024 N   0  0  0  0  0  0
  -23.4172  -28.8232   23.3022 O   0  0  0  0  0  0
  -28.3574  -26.6797   20.0891 O   0  0  0  0  0  0
  -26.5603  -34.8931   22.4689 O   0  0  0  0  0  0
  -23.5319  -32.1437   23.7546 O   0  0  0  0  0  0
  -30.5951  -19.2653   21.3490 C   0  0  0  0  0  0
  -30.0856  -20.5574   21.5695 C   0  0  0  0  0  0
  -28.3573  -18.4413   20.8645 C   0  0  0  0  0  0
  -29.7486  -18.2060   20.9436 C   0  0  0  0  0  0
  -28.7100  -20.8250   21.3893 C   0  0  0  0  0  0
  -27.8401  -19.7442   21.0890 C   0  0  0  0  0  0
  -30.3866  -16.9532   20.4866 C   0  0  0  0  0  0
  -27.8623  -24.5365   21.2421 C   0  0  0  0  0  0
  -28.7637  -23.2864   21.0550 C   0  0  0  0  0  0
  -28.5608  -25.9154   21.2897 C   0  0  0  0  0  0
  -26.4657  -19.9661   20.9639 N   0  0  0  0  0  0
  -28.1889  -22.1488   21.4971 N   0  0  0  0  0  0
  -30.0064  -15.6949   20.8594 N   0  0  0  0  0  0
  -31.4030  -17.1480   19.6319 N   0  3  0  0  0  0
  -26.6359  -24.4330   21.3760 O   0  0  0  0  0  0
  -29.8859  -23.3561   20.5410 O   0  0  0  0  0  0
  -31.4555  -12.3339   19.1802 H   0  0  0  0  0  0
  -30.2486  -11.2924   19.8755 H   0  0  0  0  0  0
  -29.7428  -11.7464   17.4545 H   0  0  0  0  0  0
  -29.6859  -13.4653   17.7671 H   0  0  0  0  0  0
  -27.7963  -11.3183   18.7954 H   0  0  0  0  0  0
  -27.3775  -12.6690   17.7734 H   0  0  0  0  0  0
  -27.6808  -14.2645   19.5445 H   0  0  0  0  0  0
  -28.6455  -12.0271   21.3979 H   0  0  0  0  0  0
  -28.4562  -13.7007   21.8431 H   0  0  0  0  0  0
  -25.2720   -9.5738   22.4730 H   0  0  0  0  0  0
  -24.0033   -7.4653   22.7468 H   0  0  0  0  0  0
  -21.0824   -8.8743   19.8952 H   0  0  0  0  0  0
  -22.3661  -10.9643   19.6177 H   0  0  0  0  0  0
  -21.2010   -7.6140   23.9689 H   0  0  0  0  0  0
  -21.1491   -6.0519   25.9065 H   0  0  0  0  0  0
  -22.0602   -2.7603   23.2836 H   0  0  0  0  0  0
  -22.4063  -11.9918   22.4808 H   0  0  0  0  0  0
  -21.1053  -13.1263   22.2629 H   0  0  0  0  0  0
  -24.6304  -15.8207   20.4472 H   0  0  0  0  0  0
  -26.2171  -15.5922   19.9189 H   0  0  0  0  0  0
  -26.7125  -32.5551   23.1180 H   0  0  0  0  0  0
  -25.0018  -33.9792   25.0450 H   0  0  0  0  0  0
  -22.6891  -31.3120   21.4138 H   0  0  0  0  0  0
  -23.3745  -35.9664   23.3306 H   0  0  0  0  0  0
  -24.3588  -36.8942   22.2058 H   0  0  0  0  0  0
  -23.7239  -37.6531   23.6655 H   0  0  0  0  0  0
  -26.0388  -31.6119   20.6013 H   0  0  0  0  0  0
  -26.8158  -30.8914   21.9852 H   0  0  0  0  0  0
  -28.0921  -29.1109   21.1812 H   0  0  0  0  0  0
  -26.0787  -25.9874   19.0021 H   0  0  0  0  0  0
  -23.9821  -27.3014   19.0200 H   0  0  0  0  0  0
  -23.7099  -30.6011   19.4023 H   0  0  0  0  0  0
  -22.7317  -29.2430   19.8737 H   0  0  0  0  0  0
  -25.1283  -36.1983   25.0823 H   0  0  0  0  0  0
  -20.9946  -28.3239   24.1435 H   0  0  0  0  0  0
  -20.5652  -26.2277   23.3612 H   0  0  0  0  0  0
  -21.6637  -26.7457   22.1231 H   0  0  0  0  0  0
  -19.6917  -25.6296   21.1230 H   0  0  0  0  0  0
  -19.6672  -27.3198   20.6743 H   0  0  0  0  0  0
  -17.4192  -26.6674   21.4004 H   0  0  0  0  0  0
  -18.0306  -26.0053   22.8998 H   0  0  0  0  0  0
  -19.7928  -30.7234   24.2301 H   0  0  0  0  0  0
  -17.5019  -31.6268   24.5142 H   0  0  0  0  0  0
  -15.5349  -30.2984   23.7653 H   0  0  0  0  0  0
  -15.8655  -28.0826   22.7052 H   0  0  0  0  0  0
  -24.5886  -30.7091   25.7815 H   0  0  0  0  0  0
  -24.8983  -32.2867   26.4999 H   0  0  0  0  0  0
  -25.8111  -30.8813   27.0208 H   0  0  0  0  0  0
  -26.2845  -29.6812   24.1174 H   0  0  0  0  0  0
  -27.4033  -29.7279   25.4578 H   0  0  0  0  0  0
  -27.8680  -30.4331   23.9285 H   0  0  0  0  0  0
  -27.2656  -33.3591   26.2115 H   0  0  0  0  0  0
  -28.3828  -32.6924   25.0315 H   0  0  0  0  0  0
  -28.0743  -31.8429   26.5365 H   0  0  0  0  0  0
  -28.2597  -38.0118   24.7527 H   0  0  0  0  0  0
  -28.1064  -36.2652   24.6234 H   0  0  0  0  0  0
  -27.2306  -37.1436   25.8861 H   0  0  0  0  0  0
  -20.9272  -29.8742   21.6935 H   0  0  0  0  0  0
  -26.0172  -38.2880   24.1411 H   0  0  0  0  0  0
  -31.6611  -19.1037   21.4439 H   0  0  0  0  0  0
  -30.7725  -21.3459   21.8366 H   0  0  0  0  0  0
  -27.6955  -17.6419   20.5655 H   0  0  0  0  0  0
  -29.6316  -25.7735   21.4324 H   0  0  0  0  0  0
  -28.2028  -26.4685   22.1613 H   0  0  0  0  0  0
  -25.9344  -19.3039   20.4099 H   0  0  0  0  0  0
  -26.1531  -20.9160   20.8134 H   0  0  0  0  0  0
  -27.2344  -22.2442   21.8149 H   0  0  0  0  0  0
  -29.1227  -15.6731   21.3400 H   0  0  0  0  0  0
  -31.6622  -18.0696   19.3205 H   0  0  0  0  0  0
  -31.9701  -16.3449   19.3802 H   0  0  0  0  0  0
  1 25  1  0  0  0
  1 30  2  0  0  0
  1 83  1  0  0  0
  2  3  1  0  0  0
  2 25  1  0  0  0
  2 87  1  0  0  0
  2 88  1  0  0  0
  3  4  1  0  0  0
  3 89  1  0  0  0
  3 90  1  0  0  0
  4  5  1  0  0  0
  4 91  1  0  0  0
  4 92  1  0  0  0
  5  6  1  0  0  0
  5 26  1  0  0  0
  5 93  1  0  0  0
  6 25  1  0  0  0
  6 94  1  0  0  0
  6 95  1  0  0  0
  7  8  2  0  0  0
  7 26  1  0  0  0
  7 29  1  0  0  0
  8  9  1  0  0  0
  8 22  1  0  0  0
  9 10  1  0  0  0
  9 27  2  0  0  0
 10 11  2  0  0  0
 10 15  1  0  0  0
 11 12  1  0  0  0
 11 96  1  0  0  0
 12 13  2  0  0  0
 12 97  1  0  0  0
 13 14  1  0  0  0
 13 31  1  0  0  0
 14 15  2  0  0  0
 14 98  1  0  0  0
 15 99  1  0  0  0
 16 17  2  0  0  0
 16 21  1  0  0  0
 16 31  1  0  0  0
 17 18  1  0  0  0
 17100  1  0  0  0
 18 19  2  0  0  0
 18101  1  0  0  0
 19 20  1  0  0  0
 19 24  1  0  0  0
 20 21  2  0  0  0
 20102  1  0  0  0
 21 23  1  0  0  0
 22 28  1  0  0  0
 22 32  2  0  0  0
 26 27  1  0  0  0
 28103  1  0  0  0
 28104  1  0  0  0
 29105  1  0  0  0
 29106  1  0  0  0
 33 34  1  0  0  0
 33 66  1  0  0  0
 33 70  2  0  0  0
 34 36  1  0  0  0
 34 59  1  0  0  0
 34107  1  0  0  0
 35 44  2  0  0  0
 35 45  1  0  0  0
 35 68  1  0  0  0
 36 56  1  0  0  0
 36108  1  0  0  0
 37 39  1  0  0  0
 37 47  1  0  0  0
 37 66  1  0  0  0
 37109  1  0  0  0
 38 43  2  0  0  0
 38 46  1  0  0  0
 38 47  1  0  0  0
 39 64  1  0  0  0
 39 67  2  0  0  0
 40 52  1  0  0  0
 40 53  2  0  0  0
 40 58  1  0  0  0
 41110  1  0  0  0
 41111  1  0  0  0
 41112  1  0  0  0
 41 48  1  0  0  0
 42 43  1  0  0  0
 42 66  1  0  0  0
 42113  1  0  0  0
 42114  1  0  0  0
 43 44  1  0  0  0
 44115  1  0  0  0
 45 46  2  0  0  0
 45116  1  0  0  0
 46117  1  0  0  0
 47118  1  0  0  0
 47119  1  0  0  0
 48 56  1  0  0  0
 48 65  1  0  0  0
 48120  1  0  0  0
 49 50  1  0  0  0
 49 53  1  0  0  0
 49 64  1  0  0  0
 49121  1  0  0  0
 50 51  1  0  0  0
 50122  1  0  0  0
 50123  1  0  0  0
 51 52  1  0  0  0
 51124  1  0  0  0
 51125  1  0  0  0
 52126  1  0  0  0
 52127  1  0  0  0
 53 54  1  0  0  0
 54 55  2  0  0  0
 54128  1  0  0  0
 55 57  1  0  0  0
 55129  1  0  0  0
 56 69  2  0  0  0
 57 58  2  0  0  0
 57130  1  0  0  0
 58131  1  0  0  0
 59 60  1  0  0  0
 59 61  1  0  0  0
 59 62  1  0  0  0
 60132  1  0  0  0
 60133  1  0  0  0
 60134  1  0  0  0
 61135  1  0  0  0
 61136  1  0  0  0
 61137  1  0  0  0
 62138  1  0  0  0
 62139  1  0  0  0
 62140  1  0  0  0
 63 65  1  0  0  0
 63141  1  0  0  0
 63142  1  0  0  0
 63143  1  0  0  0
 64144  1  0  0  0
 65145  1  0  0  0
 68 80  1  0  0  0
 71 72  2  0  0  0
 71 74  1  0  0  0
 71146  1  0  0  0
 72 75  1  0  0  0
 72147  1  0  0  0
 73 74  2  0  0  0
 73 76  1  0  0  0
 73148  1  0  0  0
 74 77  1  0  0  0
 75 76  2  0  0  0
 75 82  1  0  0  0
 76 81  1  0  0  0
 77 83  1  0  0  0
 77 84  2  0  0  0
 78 79  1  0  0  0
 78 80  1  0  0  0
 78 85  2  0  0  0
 79 82  1  0  0  0
 79 86  2  0  0  0
 80149  1  0  0  0
 80150  1  0  0  0
 81151  1  0  0  0
 81152  1  0  0  0
 82153  1  0  0  0
 83154  1  0  0  0
 84155  1  0  0  0
 84156  1  0  0  0
M  CHG  1  84   1
M  ISO  4   1 100  68 101  80 101  83 100
M  END
> <chiral flag>
0

> <version>
0

> <s_m_source_file>
/data/baiqing/PycharmProjects/Reinvent-master-3.2/result/LINK_invent/BTK/process_docking_weight1_custom_product_contain_oxygen_bond_distance_aromatic_linkinvent_7_9_3/rearranged_h_0089.sdf

> <i_m_source_file_index>
52

> <r_mmod_Potential_Energy-OPLS-2005>
-325.603302001953

> <r_mmod_Stretch_Energy-OPLS-2005>
39.6016693115234

> <r_mmod_Bend_Energy-OPLS-2005>
104.754608154297

> <r_mmod_Torsional_Energy-OPLS-2005>
269.600616455078

> <r_mmod_Improper_Torsional_Energy-OPLS-2005>
11.4197444915771

> <r_mmod_Van_der_Waal_Energy-OPLS-2005>
172.060958862305

> <r_mmod_Electrostatic_Energy-OPLS-2005>
-484.583221435547

> <r_mmod_Solvation_Energy-OPLS-2005>
-455.227935791016

> <b_mmod_Minimization_Converged-OPLS-2005>
0

> <r_mmod_RMS_Derivative-OPLS-2005>
3.8773889541626

$$$$
52
                    3D
 Structure written by MMmdl.
153161  0  0  1  0            999 V2000
  -30.6087  -14.7262   20.5400 C   0  0  0  0  0  0
  -30.4459  -12.4613   19.4738 C   0  0  0  0  0  0
  -29.5181  -12.5419   18.2378 C   0  0  0  0  0  0
  -28.0394  -12.3585   18.6363 C   0  0  0  0  0  0
  -27.6523  -13.2207   19.8656 C   0  0  2  0  0  0
  -28.6910  -13.0578   20.9925 C   0  0  0  0  0  0
  -25.2548  -13.8168   20.5676 C   0  0  0  0  0  0
  -24.1818  -13.0429   20.9172 C   0  0  0  0  0  0
  -24.6393  -11.6902   20.8719 C   0  0  0  0  0  0
  -23.9065  -10.4287   21.0396 C   0  0  0  0  0  0
  -24.3616   -9.4207   21.9179 C   0  0  0  0  0  0
  -23.6291   -8.2244   22.0753 C   0  0  0  0  0  0
  -22.4273   -8.0279   21.3545 C   0  0  0  0  0  0
  -21.9906   -9.0252   20.4646 C   0  0  0  0  0  0
  -22.7235  -10.2129   20.3049 C   0  0  0  0  0  0
  -21.6853   -6.0735   22.5280 C   0  0  0  0  0  0
  -21.4014   -6.5639   23.8213 C   0  0  0  0  0  0
  -21.3660   -5.6792   24.9175 C   0  0  0  0  0  0
  -21.6043   -4.3054   24.7226 C   0  0  0  0  0  0
  -21.8819   -3.8146   23.4348 C   0  0  0  0  0  0
  -21.9193   -4.6963   22.3404 C   0  0  0  0  0  0
  -22.7843  -13.5223   21.1849 C   0  0  0  0  0  0
  -22.1661   -4.2149   21.0981 F   0  0  0  0  0  0
  -21.5629   -3.4537   25.7739 F   0  0  0  0  0  0
  -30.0010  -13.4799   20.4603 N   0  0  0  0  0  0
  -26.2977  -12.9353   20.3298 N   0  0  0  0  0  0
  -25.9319  -11.6501   20.5714 N   0  0  0  0  0  0
  -22.0493  -12.8215   22.0412 N   0  0  0  0  0  0
  -25.4257  -15.1892   20.4122 N   0  0  0  0  0  0
  -31.7181  -14.8976   20.0204 O   0  0  0  0  0  0
  -21.6638   -6.8877   21.4241 O   0  0  0  0  0  0
  -22.3526  -14.5535   20.6709 O   0  0  0  0  0  0
  -24.6314  -31.8552   23.1986 C   0  0  0  0  0  0
  -25.9140  -32.4755   23.8334 C   0  0  1  0  0  0
  -27.2300  -27.2763   20.1114 C   0  0  0  0  0  0
  -25.5939  -33.8558   24.2258 N   0  0  0  0  0  0
  -23.4285  -30.4778   21.5416 C   0  0  2  0  0  0
  -24.8777  -28.9286   20.1068 C   0  0  0  0  0  0
  -22.7507  -29.4598   22.4907 C   0  0  0  0  0  0
  -18.0294  -28.1383   22.8486 C   0  0  0  0  0  0
  -24.1492  -36.7282   23.2640 C   0  0  0  0  0  0
  -25.9744  -30.7713   21.3779 C   0  0  0  0  0  0
  -26.0495  -29.3959   20.7164 C   0  0  0  0  0  0
  -27.2265  -28.5795   20.7140 C   0  0  0  0  0  0
  -26.0271  -26.8685   19.4899 C   0  0  0  0  0  0
  -24.8706  -27.6714   19.4848 C   0  0  0  0  0  0
  -23.6467  -29.8128   20.1573 C   0  0  0  0  0  0
  -25.4119  -36.3070   24.0327 C   0  0  1  0  0  0
  -20.5899  -28.3697   23.1267 C   0  0  2  0  0  0
  -20.6779  -26.9413   22.5408 C   0  0  0  0  0  0
  -19.5755  -26.6381   21.5211 C   0  0  0  0  0  0
  -18.1936  -26.7926   22.1623 C   0  0  0  0  0  0
  -19.1548  -28.8857   23.2871 C   0  0  0  0  0  0
  -18.9468  -30.1458   23.8889 C   0  0  0  0  0  0
  -17.6466  -30.6586   24.0560 C   0  0  0  0  0  0
  -25.9060  -34.9439   23.5094 C   0  0  0  0  0  0
  -16.5357  -29.9082   23.6329 C   0  0  0  0  0  0
  -16.7280  -28.6497   23.0354 C   0  0  0  0  0  0
  -26.4506  -31.6580   25.0723 C   0  0  0  0  0  0
  -25.3727  -31.3729   26.1442 C   0  0  0  0  0  0
  -27.0353  -30.2997   24.6212 C   0  0  0  0  0  0
  -27.6060  -32.4321   25.7496 C   0  0  0  0  0  0
  -27.5579  -37.1798   24.8465 C   0  0  0  0  0  0
  -21.4213  -29.3043   22.3654 N   0  0  0  0  0  0
  -26.4291  -37.3770   23.9408 N   0  0  0  0  0  0
  -24.6970  -31.0523   22.0958 N   0  0  0  0  0  0
  -23.4207  -28.8139   23.3006 O   0  0  0  0  0  0
  -28.3021  -26.3558   20.1950 O   0  0  0  0  0  0
  -26.5630  -34.8913   22.4662 O   0  0  0  0  0  0
  -23.5465  -32.1367   23.7286 O   0  0  0  0  0  0
  -29.8633  -18.5120   21.7687 C   0  0  0  0  0  0
  -29.6549  -19.8917   21.4307 C   0  0  0  0  0  0
  -29.6788  -17.8704   19.4812 C   0  0  0  0  0  0
  -29.8700  -17.4321   20.8220 C   0  0  0  0  0  0
  -29.4296  -20.3098   20.0939 C   0  0  0  0  0  0
  -29.4589  -19.2490   19.1326 C   0  0  0  0  0  0
  -28.4660  -25.3790   19.1900 C   0  0  0  0  0  0
  -29.8975  -15.9412   21.3112 C   0  0  0  0  0  0
  -28.7410  -24.0115   19.1273 C   0  0  0  0  0  0
  -28.9643  -22.9493   20.1797 C   0  0  0  0  0  0
  -29.3659  -15.7295   22.4432 N   0  0  0  0  0  0
  -29.2334  -19.5606   17.7902 N   0  0  0  0  0  0
  -29.1988  -21.6982   19.6288 N   0  0  0  0  0  0
  -28.9426  -23.1416   21.3964 O   0  0  0  0  0  0
  -28.8127  -23.5450   17.8657 O   0  0  0  0  0  0
  -31.4842  -12.6035   19.1707 H   0  0  0  0  0  0
  -30.4098  -11.4637   19.9142 H   0  0  0  0  0  0
  -29.8034  -11.7891   17.5020 H   0  0  0  0  0  0
  -29.6462  -13.5096   17.7501 H   0  0  0  0  0  0
  -27.8853  -11.3028   18.8635 H   0  0  0  0  0  0
  -27.3873  -12.5862   17.7923 H   0  0  0  0  0  0
  -27.6743  -14.2613   19.5411 H   0  0  0  0  0  0
  -28.7348  -12.0153   21.3111 H   0  0  0  0  0  0
  -28.3736  -13.5917   21.8822 H   0  0  0  0  0  0
  -25.2762   -9.5685   22.4750 H   0  0  0  0  0  0
  -24.0001   -7.4636   22.7472 H   0  0  0  0  0  0
  -21.0837   -8.8770   19.8953 H   0  0  0  0  0  0
  -22.3694  -10.9666   19.6155 H   0  0  0  0  0  0
  -21.2005   -7.6147   23.9717 H   0  0  0  0  0  0
  -21.1482   -6.0522   25.9079 H   0  0  0  0  0  0
  -22.0598   -2.7608   23.2848 H   0  0  0  0  0  0
  -22.4106  -11.9872   22.4793 H   0  0  0  0  0  0
  -21.1114  -13.1245   22.2629 H   0  0  0  0  0  0
  -24.6655  -15.8484   20.5382 H   0  0  0  0  0  0
  -26.2917  -15.6324   20.1327 H   0  0  0  0  0  0
  -26.7208  -32.5406   23.1079 H   0  0  0  0  0  0
  -25.0088  -33.9696   25.0406 H   0  0  0  0  0  0
  -22.7249  -31.3001   21.3961 H   0  0  0  0  0  0
  -23.3756  -35.9613   23.3299 H   0  0  0  0  0  0
  -24.3585  -36.8908   22.2055 H   0  0  0  0  0  0
  -23.7242  -37.6481   23.6666 H   0  0  0  0  0  0
  -26.1137  -31.5349   20.6113 H   0  0  0  0  0  0
  -26.8514  -30.8187   22.0118 H   0  0  0  0  0  0
  -28.1208  -28.9272   21.2119 H   0  0  0  0  0  0
  -25.9518  -25.8909   19.0358 H   0  0  0  0  0  0
  -23.9699  -27.3025   19.0133 H   0  0  0  0  0  0
  -23.7687  -30.5895   19.4016 H   0  0  0  0  0  0
  -22.7659  -29.2449   19.8525 H   0  0  0  0  0  0
  -25.1300  -36.1916   25.0820 H   0  0  0  0  0  0
  -20.9992  -28.3273   24.1387 H   0  0  0  0  0  0
  -20.5673  -26.2307   23.3614 H   0  0  0  0  0  0
  -21.6647  -26.7431   22.1204 H   0  0  0  0  0  0
  -19.6914  -25.6290   21.1244 H   0  0  0  0  0  0
  -19.6689  -27.3188   20.6738 H   0  0  0  0  0  0
  -17.4203  -26.6676   21.4026 H   0  0  0  0  0  0
  -18.0336  -26.0067   22.9018 H   0  0  0  0  0  0
  -19.7945  -30.7276   24.2253 H   0  0  0  0  0  0
  -17.5021  -31.6265   24.5163 H   0  0  0  0  0  0
  -15.5357  -30.2980   23.7658 H   0  0  0  0  0  0
  -15.8680  -28.0811   22.7076 H   0  0  0  0  0  0
  -24.5919  -30.7057   25.7772 H   0  0  0  0  0  0
  -24.8898  -32.2894   26.4841 H   0  0  0  0  0  0
  -25.8048  -30.8931   27.0233 H   0  0  0  0  0  0
  -26.2938  -29.6742   24.1229 H   0  0  0  0  0  0
  -27.4024  -29.7264   25.4736 H   0  0  0  0  0  0
  -27.8822  -30.4268   23.9464 H   0  0  0  0  0  0
  -27.2674  -33.3634   26.2049 H   0  0  0  0  0  0
  -28.3885  -32.6859   25.0331 H   0  0  0  0  0  0
  -28.0712  -31.8457   26.5430 H   0  0  0  0  0  0
  -28.2595  -38.0096   24.7513 H   0  0  0  0  0  0
  -28.1074  -36.2627   24.6290 H   0  0  0  0  0  0
  -27.2296  -37.1445   25.8867 H   0  0  0  0  0  0
  -20.9398  -29.8767   21.6860 H   0  0  0  0  0  0
  -26.0168  -38.2842   24.1409 H   0  0  0  0  0  0
  -29.9991  -18.2826   22.8164 H   0  0  0  0  0  0
  -29.6588  -20.6283   22.2216 H   0  0  0  0  0  0
  -29.6477  -17.1191   18.7048 H   0  0  0  0  0  0
  -28.3453  -25.8921   18.2447 H   0  0  0  0  0  0
  -28.9730  -16.5819   22.8222 H   0  0  0  0  0  0
  -29.0604  -18.7834   17.1613 H   0  0  0  0  0  0
  -28.6046  -20.3310   17.5939 H   0  0  0  0  0  0
  -29.1929  -21.7749   18.6198 H   0  0  0  0  0  0
  -28.6655  -24.2745   17.2784 H   0  0  0  0  0  0
  1 25  1  0  0  0
  1 30  2  0  0  0
  1 78  1  0  0  0
  2  3  1  0  0  0
  2 25  1  0  0  0
  2 86  1  0  0  0
  2 87  1  0  0  0
  3  4  1  0  0  0
  3 88  1  0  0  0
  3 89  1  0  0  0
  4  5  1  0  0  0
  4 90  1  0  0  0
  4 91  1  0  0  0
  5  6  1  0  0  0
  5 26  1  0  0  0
  5 92  1  0  0  0
  6 25  1  0  0  0
  6 93  1  0  0  0
  6 94  1  0  0  0
  7  8  2  0  0  0
  7 26  1  0  0  0
  7 29  1  0  0  0
  8  9  1  0  0  0
  8 22  1  0  0  0
  9 10  1  0  0  0
  9 27  2  0  0  0
 10 11  2  0  0  0
 10 15  1  0  0  0
 11 12  1  0  0  0
 11 95  1  0  0  0
 12 13  2  0  0  0
 12 96  1  0  0  0
 13 14  1  0  0  0
 13 31  1  0  0  0
 14 15  2  0  0  0
 14 97  1  0  0  0
 15 98  1  0  0  0
 16 17  2  0  0  0
 16 21  1  0  0  0
 16 31  1  0  0  0
 17 18  1  0  0  0
 17 99  1  0  0  0
 18 19  2  0  0  0
 18100  1  0  0  0
 19 20  1  0  0  0
 19 24  1  0  0  0
 20 21  2  0  0  0
 20101  1  0  0  0
 21 23  1  0  0  0
 22 28  1  0  0  0
 22 32  2  0  0  0
 26 27  1  0  0  0
 28102  1  0  0  0
 28103  1  0  0  0
 29104  1  0  0  0
 29105  1  0  0  0
 33 34  1  0  0  0
 33 66  1  0  0  0
 33 70  2  0  0  0
 34 36  1  0  0  0
 34 59  1  0  0  0
 34106  1  0  0  0
 35 44  2  0  0  0
 35 45  1  0  0  0
 35 68  1  0  0  0
 36 56  1  0  0  0
 36107  1  0  0  0
 37 39  1  0  0  0
 37 47  1  0  0  0
 37 66  1  0  0  0
 37108  1  0  0  0
 38 43  2  0  0  0
 38 46  1  0  0  0
 38 47  1  0  0  0
 39 64  1  0  0  0
 39 67  2  0  0  0
 40 52  1  0  0  0
 40 53  2  0  0  0
 40 58  1  0  0  0
 41109  1  0  0  0
 41110  1  0  0  0
 41111  1  0  0  0
 41 48  1  0  0  0
 42 43  1  0  0  0
 42 66  1  0  0  0
 42112  1  0  0  0
 42113  1  0  0  0
 43 44  1  0  0  0
 44114  1  0  0  0
 45 46  2  0  0  0
 45115  1  0  0  0
 46116  1  0  0  0
 47117  1  0  0  0
 47118  1  0  0  0
 48 56  1  0  0  0
 48 65  1  0  0  0
 48119  1  0  0  0
 49 50  1  0  0  0
 49 53  1  0  0  0
 49 64  1  0  0  0
 49120  1  0  0  0
 50 51  1  0  0  0
 50121  1  0  0  0
 50122  1  0  0  0
 51 52  1  0  0  0
 51123  1  0  0  0
 51124  1  0  0  0
 52125  1  0  0  0
 52126  1  0  0  0
 53 54  1  0  0  0
 54 55  2  0  0  0
 54127  1  0  0  0
 55 57  1  0  0  0
 55128  1  0  0  0
 56 69  2  0  0  0
 57 58  2  0  0  0
 57129  1  0  0  0
 58130  1  0  0  0
 59 60  1  0  0  0
 59 61  1  0  0  0
 59 62  1  0  0  0
 60131  1  0  0  0
 60132  1  0  0  0
 60133  1  0  0  0
 61134  1  0  0  0
 61135  1  0  0  0
 61136  1  0  0  0
 62137  1  0  0  0
 62138  1  0  0  0
 62139  1  0  0  0
 63 65  1  0  0  0
 63140  1  0  0  0
 63141  1  0  0  0
 63142  1  0  0  0
 64143  1  0  0  0
 65144  1  0  0  0
 68 77  1  0  0  0
 71 72  2  0  0  0
 71 74  1  0  0  0
 71145  1  0  0  0
 72 75  1  0  0  0
 72146  1  0  0  0
 73 74  2  0  0  0
 73 76  1  0  0  0
 73147  1  0  0  0
 74 78  1  0  0  0
 75 76  2  0  0  0
 75 83  1  0  0  0
 76 82  1  0  0  0
 77 79  2  0  0  0
 77148  1  0  0  0
 78 81  2  0  0  0
 79 80  1  0  0  0
 79 85  1  0  0  0
 80 83  1  0  0  0
 80 84  2  0  0  0
 81149  1  0  0  0
 82150  1  0  0  0
 82151  1  0  0  0
 83152  1  0  0  0
 85153  1  0  0  0
M  ISO  4   1 100  68 101  77 101  78 100
M  END
> <chiral flag>
0

> <version>
0

> <s_m_source_file>
/data/baiqing/PycharmProjects/Reinvent-master-3.2/result/LINK_invent/BTK/process_docking_weight1_custom_product_contain_oxygen_bond_distance_aromatic_linkinvent_7_9_3/rearranged_h_0089.sdf

> <i_m_source_file_index>
53

> <r_mmod_Potential_Energy-OPLS-2005>
199.137542724609

> <r_mmod_Stretch_Energy-OPLS-2005>
122.768974304199

> <r_mmod_Bend_Energy-OPLS-2005>
230.791900634766

> <r_mmod_Torsional_Energy-OPLS-2005>
202.260070800781

> <r_mmod_Improper_Torsional_Energy-OPLS-2005>
7.56483936309814

> <r_mmod_Van_der_Waal_Energy-OPLS-2005>
158.306381225586

> <r_mmod_Electrostatic_Energy-OPLS-2005>
-359.921142578125

> <r_mmod_Solvation_Energy-OPLS-2005>
-239.974716186523

> <b_mmod_Minimization_Converged-OPLS-2005>
0

> <r_mmod_RMS_Derivative-OPLS-2005>
0.306850671768188

$$$$
53
                    3D
 Structure written by MMmdl.
157166  0  0  1  0            999 V2000
  -30.6273  -14.6758   20.5904 C   0  0  0  0  0  0
  -30.4459  -12.4449   19.4593 C   0  0  0  0  0  0
  -29.5105  -12.5181   18.2305 C   0  0  0  0  0  0
  -28.0362  -12.3358   18.6414 C   0  0  0  0  0  0
  -27.6521  -13.2114   19.8603 C   0  0  2  0  0  0
  -28.6876  -13.0483   20.9869 C   0  0  0  0  0  0
  -25.2576  -13.8160   20.5675 C   0  0  0  0  0  0
  -24.1833  -13.0437   20.9180 C   0  0  0  0  0  0
  -24.6385  -11.6903   20.8727 C   0  0  0  0  0  0
  -23.9057  -10.4292   21.0404 C   0  0  0  0  0  0
  -24.3614   -9.4207   21.9179 C   0  0  0  0  0  0
  -23.6289   -8.2250   22.0756 C   0  0  0  0  0  0
  -22.4274   -8.0285   21.3549 C   0  0  0  0  0  0
  -21.9900   -9.0258   20.4651 C   0  0  0  0  0  0
  -22.7230  -10.2136   20.3056 C   0  0  0  0  0  0
  -21.6853   -6.0740   22.5281 C   0  0  0  0  0  0
  -21.4017   -6.5640   23.8217 C   0  0  0  0  0  0
  -21.3651   -5.6788   24.9174 C   0  0  0  0  0  0
  -21.6043   -4.3053   24.7224 C   0  0  0  0  0  0
  -21.8817   -3.8147   23.4344 C   0  0  0  0  0  0
  -21.9199   -4.6968   22.3401 C   0  0  0  0  0  0
  -22.7862  -13.5245   21.1859 C   0  0  0  0  0  0
  -22.1663   -4.2157   21.0980 F   0  0  0  0  0  0
  -21.5625   -3.4531   25.7733 F   0  0  0  0  0  0
  -30.0009  -13.4526   20.4517 N   0  0  0  0  0  0
  -26.2973  -12.9321   20.3266 N   0  0  0  0  0  0
  -25.9305  -11.6485   20.5718 N   0  0  0  0  0  0
  -22.0502  -12.8234   22.0407 N   0  0  0  0  0  0
  -25.4334  -15.1881   20.4118 N   0  0  0  0  0  0
  -31.7273  -14.8695   20.0617 O   0  0  0  0  0  0
  -21.6639   -6.8883   21.4243 O   0  0  0  0  0  0
  -22.3550  -14.5564   20.6724 O   0  0  0  0  0  0
  -24.6315  -31.8546   23.1968 C   0  0  0  0  0  0
  -25.9145  -32.4748   23.8312 C   0  0  1  0  0  0
  -27.2257  -27.2794   20.1210 C   0  0  0  0  0  0
  -25.5943  -33.8556   24.2227 N   0  0  0  0  0  0
  -23.4277  -30.4758   21.5389 C   0  0  2  0  0  0
  -24.8766  -28.9208   20.1116 C   0  0  0  0  0  0
  -22.7504  -29.4597   22.4899 C   0  0  0  0  0  0
  -18.0291  -28.1398   22.8458 C   0  0  0  0  0  0
  -24.1495  -36.7276   23.2632 C   0  0  0  0  0  0
  -25.9736  -30.7701   21.3773 C   0  0  0  0  0  0
  -26.0481  -29.3951   20.7171 C   0  0  0  0  0  0
  -27.2293  -28.5876   20.7073 C   0  0  0  0  0  0
  -26.0341  -26.8646   19.4918 C   0  0  0  0  0  0
  -24.8738  -27.6625   19.4879 C   0  0  0  0  0  0
  -23.6462  -29.8059   20.1564 C   0  0  0  0  0  0
  -25.4114  -36.3059   24.0320 C   0  0  1  0  0  0
  -20.5895  -28.3705   23.1271 C   0  0  2  0  0  0
  -20.6776  -26.9414   22.5433 C   0  0  0  0  0  0
  -19.5774  -26.6384   21.5216 C   0  0  0  0  0  0
  -18.1933  -26.7946   22.1582 C   0  0  0  0  0  0
  -19.1543  -28.8865   23.2861 C   0  0  0  0  0  0
  -18.9467  -30.1458   23.8899 C   0  0  0  0  0  0
  -17.6471  -30.6593   24.0575 C   0  0  0  0  0  0
  -25.9063  -34.9440   23.5074 C   0  0  0  0  0  0
  -16.5364  -29.9091   23.6341 C   0  0  0  0  0  0
  -16.7280  -28.6515   23.0342 C   0  0  0  0  0  0
  -26.4482  -31.6585   25.0726 C   0  0  0  0  0  0
  -25.3676  -31.3856   26.1452 C   0  0  0  0  0  0
  -27.0250  -30.2948   24.6269 C   0  0  0  0  0  0
  -27.6072  -32.4302   25.7469 C   0  0  0  0  0  0
  -27.5597  -37.1768   24.8438 C   0  0  0  0  0  0
  -21.4209  -29.3048   22.3654 N   0  0  0  0  0  0
  -26.4282  -37.3770   23.9424 N   0  0  0  0  0  0
  -24.6958  -31.0520   22.0935 N   0  0  0  0  0  0
  -23.4213  -28.8145   23.3001 O   0  0  0  0  0  0
  -28.3175  -26.3894   20.1242 O   0  0  0  0  0  0
  -26.5632  -34.8926   22.4642 O   0  0  0  0  0  0
  -23.5468  -32.1353   23.7273 O   0  0  0  0  0  0
  -28.7249  -17.8791   21.4609 C   0  0  0  0  0  0
  -28.5495  -19.2634   21.1718 C   0  0  0  0  0  0
  -30.5517  -17.8523   19.9579 C   0  0  0  0  0  0
  -29.7592  -17.1032   20.8694 C   0  0  0  0  0  0
  -29.4022  -19.9625   20.2768 C   0  0  0  0  0  0
  -29.0490  -23.3998   18.8630 C   0  0  0  0  0  0
  -28.6522  -23.6890   20.1087 C   0  0  0  0  0  0
  -29.3795  -21.9792   18.7691 C   0  0  0  0  0  0
  -28.7527  -22.4016   20.8402 C   0  0  0  0  0  0
  -29.1222  -24.3223   17.6573 C   0  0  0  0  0  0
  -29.8086  -15.4656   22.7307 C   0  0  0  0  0  0
  -28.0993  -25.0403   20.7391 C   0  0  0  0  0  0
  -30.3847  -19.1956   19.6928 N   0  0  0  0  0  0
  -29.1812  -21.4114   19.9835 N   0  0  0  0  0  0
  -29.9835  -15.6935   21.2851 N   0  0  0  0  0  0
  -29.7357  -21.3924   17.7396 O   0  0  0  0  0  0
  -28.5048  -22.2394   22.0401 O   0  0  0  0  0  0
  -31.4806  -12.6002   19.1481 H   0  0  0  0  0  0
  -30.4239  -11.4477   19.9024 H   0  0  0  0  0  0
  -29.7901  -11.7529   17.5052 H   0  0  0  0  0  0
  -29.6351  -13.4781   17.7288 H   0  0  0  0  0  0
  -27.8931  -11.2833   18.8901 H   0  0  0  0  0  0
  -27.3743  -12.5425   17.7996 H   0  0  0  0  0  0
  -27.6796  -14.2507   19.5326 H   0  0  0  0  0  0
  -28.7223  -12.0109   21.3238 H   0  0  0  0  0  0
  -28.3650  -13.6089   21.8561 H   0  0  0  0  0  0
  -25.2768   -9.5682   22.4738 H   0  0  0  0  0  0
  -24.0006   -7.4638   22.7468 H   0  0  0  0  0  0
  -21.0834   -8.8777   19.8951 H   0  0  0  0  0  0
  -22.3697  -10.9677   19.6161 H   0  0  0  0  0  0
  -21.2005   -7.6143   23.9722 H   0  0  0  0  0  0
  -21.1469   -6.0514   25.9078 H   0  0  0  0  0  0
  -22.0602   -2.7613   23.2841 H   0  0  0  0  0  0
  -22.4125  -11.9889   22.4779 H   0  0  0  0  0  0
  -21.1124  -13.1266   22.2636 H   0  0  0  0  0  0
  -24.6733  -15.8479   20.5329 H   0  0  0  0  0  0
  -26.2857  -15.6194   20.0768 H   0  0  0  0  0  0
  -26.7222  -32.5385   23.1060 H   0  0  0  0  0  0
  -25.0133  -33.9698   25.0402 H   0  0  0  0  0  0
  -22.7248  -31.2977   21.3895 H   0  0  0  0  0  0
  -23.3780  -35.9588   23.3246 H   0  0  0  0  0  0
  -24.3601  -36.8942   22.2058 H   0  0  0  0  0  0
  -23.7223  -37.6453   23.6686 H   0  0  0  0  0  0
  -26.1201  -31.5326   20.6112 H   0  0  0  0  0  0
  -26.8483  -30.8110   22.0149 H   0  0  0  0  0  0
  -28.1308  -28.9460   21.1850 H   0  0  0  0  0  0
  -25.9935  -25.8992   19.0084 H   0  0  0  0  0  0
  -23.9779  -27.2946   19.0070 H   0  0  0  0  0  0
  -23.7712  -30.5802   19.3982 H   0  0  0  0  0  0
  -22.7656  -29.2378   19.8515 H   0  0  0  0  0  0
  -25.1296  -36.1889   25.0814 H   0  0  0  0  0  0
  -20.9981  -28.3295   24.1396 H   0  0  0  0  0  0
  -20.5632  -26.2331   23.3644 H   0  0  0  0  0  0
  -21.6654  -26.7406   22.1269 H   0  0  0  0  0  0
  -19.6948  -25.6293   21.1250 H   0  0  0  0  0  0
  -19.6752  -27.3196   20.6750 H   0  0  0  0  0  0
  -17.4230  -26.6732   21.3951 H   0  0  0  0  0  0
  -18.0286  -26.0072   22.8951 H   0  0  0  0  0  0
  -19.7952  -30.7261   24.2278 H   0  0  0  0  0  0
  -17.5035  -31.6272   24.5179 H   0  0  0  0  0  0
  -15.5370  -30.3003   23.7672 H   0  0  0  0  0  0
  -15.8669  -28.0849   22.7054 H   0  0  0  0  0  0
  -24.6037  -30.6912   25.7927 H   0  0  0  0  0  0
  -24.8636  -32.3043   26.4489 H   0  0  0  0  0  0
  -25.8015  -30.9467   27.0448 H   0  0  0  0  0  0
  -26.2817  -29.6757   24.1239 H   0  0  0  0  0  0
  -27.3774  -29.7190   25.4836 H   0  0  0  0  0  0
  -27.8782  -30.4119   23.9584 H   0  0  0  0  0  0
  -27.2759  -33.3716   26.1868 H   0  0  0  0  0  0
  -28.3977  -32.6644   25.0322 H   0  0  0  0  0  0
  -28.0601  -31.8501   26.5518 H   0  0  0  0  0  0
  -28.2576  -38.0103   24.7529 H   0  0  0  0  0  0
  -28.1125  -36.2642   24.6165 H   0  0  0  0  0  0
  -27.2351  -37.1304   25.8848 H   0  0  0  0  0  0
  -20.9401  -29.8775   21.6855 H   0  0  0  0  0  0
  -26.0153  -38.2829   24.1490 H   0  0  0  0  0  0
  -28.0446  -17.4210   22.1624 H   0  0  0  0  0  0
  -27.7365  -19.7795   21.6619 H   0  0  0  0  0  0
  -31.3848  -17.3868   19.4523 H   0  0  0  0  0  0
  -28.7820  -25.3304   17.8870 H   0  0  0  0  0  0
  -28.5058  -23.9341   16.8459 H   0  0  0  0  0  0
  -30.1494  -24.3837   17.2976 H   0  0  0  0  0  0
  -30.2104  -16.2995   23.3086 H   0  0  0  0  0  0
  -30.3193  -14.5689   23.0904 H   0  0  0  0  0  0
  -28.7543  -15.3762   22.9927 H   0  0  0  0  0  0
  -28.5420  -25.1052   21.7332 H   0  0  0  0  0  0
  -27.0387  -24.8733   20.9258 H   0  0  0  0  0  0
  1 25  1  0  0  0
  1 30  2  0  0  0
  1 85  1  0  0  0
  2  3  1  0  0  0
  2 25  1  0  0  0
  2 88  1  0  0  0
  2 89  1  0  0  0
  3  4  1  0  0  0
  3 90  1  0  0  0
  3 91  1  0  0  0
  4  5  1  0  0  0
  4 92  1  0  0  0
  4 93  1  0  0  0
  5  6  1  0  0  0
  5 26  1  0  0  0
  5 94  1  0  0  0
  6 25  1  0  0  0
  6 95  1  0  0  0
  6 96  1  0  0  0
  7  8  2  0  0  0
  7 26  1  0  0  0
  7 29  1  0  0  0
  8  9  1  0  0  0
  8 22  1  0  0  0
  9 10  1  0  0  0
  9 27  2  0  0  0
 10 11  2  0  0  0
 10 15  1  0  0  0
 11 12  1  0  0  0
 11 97  1  0  0  0
 12 13  2  0  0  0
 12 98  1  0  0  0
 13 14  1  0  0  0
 13 31  1  0  0  0
 14 15  2  0  0  0
 14 99  1  0  0  0
 15100  1  0  0  0
 16 17  2  0  0  0
 16 21  1  0  0  0
 16 31  1  0  0  0
 17 18  1  0  0  0
 17101  1  0  0  0
 18 19  2  0  0  0
 18102  1  0  0  0
 19 20  1  0  0  0
 19 24  1  0  0  0
 20 21  2  0  0  0
 20103  1  0  0  0
 21 23  1  0  0  0
 22 28  1  0  0  0
 22 32  2  0  0  0
 26 27  1  0  0  0
 28104  1  0  0  0
 28105  1  0  0  0
 29106  1  0  0  0
 29107  1  0  0  0
 33 34  1  0  0  0
 33 66  1  0  0  0
 33 70  2  0  0  0
 34 36  1  0  0  0
 34 59  1  0  0  0
 34108  1  0  0  0
 35 44  2  0  0  0
 35 45  1  0  0  0
 35 68  1  0  0  0
 36 56  1  0  0  0
 36109  1  0  0  0
 37 39  1  0  0  0
 37 47  1  0  0  0
 37 66  1  0  0  0
 37110  1  0  0  0
 38 43  2  0  0  0
 38 46  1  0  0  0
 38 47  1  0  0  0
 39 64  1  0  0  0
 39 67  2  0  0  0
 40 52  1  0  0  0
 40 53  2  0  0  0
 40 58  1  0  0  0
 41111  1  0  0  0
 41112  1  0  0  0
 41113  1  0  0  0
 41 48  1  0  0  0
 42 43  1  0  0  0
 42 66  1  0  0  0
 42114  1  0  0  0
 42115  1  0  0  0
 43 44  1  0  0  0
 44116  1  0  0  0
 45 46  2  0  0  0
 45117  1  0  0  0
 46118  1  0  0  0
 47119  1  0  0  0
 47120  1  0  0  0
 48 56  1  0  0  0
 48 65  1  0  0  0
 48121  1  0  0  0
 49 50  1  0  0  0
 49 53  1  0  0  0
 49 64  1  0  0  0
 49122  1  0  0  0
 50 51  1  0  0  0
 50123  1  0  0  0
 50124  1  0  0  0
 51 52  1  0  0  0
 51125  1  0  0  0
 51126  1  0  0  0
 52127  1  0  0  0
 52128  1  0  0  0
 53 54  1  0  0  0
 54 55  2  0  0  0
 54129  1  0  0  0
 55 57  1  0  0  0
 55130  1  0  0  0
 56 69  2  0  0  0
 57 58  2  0  0  0
 57131  1  0  0  0
 58132  1  0  0  0
 59 60  1  0  0  0
 59 61  1  0  0  0
 59 62  1  0  0  0
 60133  1  0  0  0
 60134  1  0  0  0
 60135  1  0  0  0
 61136  1  0  0  0
 61137  1  0  0  0
 61138  1  0  0  0
 62139  1  0  0  0
 62140  1  0  0  0
 62141  1  0  0  0
 63 65  1  0  0  0
 63142  1  0  0  0
 63143  1  0  0  0
 63144  1  0  0  0
 64145  1  0  0  0
 65146  1  0  0  0
 68 82  1  0  0  0
 71 72  2  0  0  0
 71 74  1  0  0  0
 71147  1  0  0  0
 72 75  1  0  0  0
 72148  1  0  0  0
 73 74  2  0  0  0
 73 83  1  0  0  0
 73149  1  0  0  0
 74 85  1  0  0  0
 75 83  2  0  0  0
 75 84  1  0  0  0
 76 77  2  0  0  0
 76 78  1  0  0  0
 76 80  1  0  0  0
 77 79  1  0  0  0
 77 82  1  0  0  0
 78 84  1  0  0  0
 78 86  2  0  0  0
 79 84  1  0  0  0
 79 87  2  0  0  0
 80150  1  0  0  0
 80151  1  0  0  0
 80152  1  0  0  0
 81 85  1  0  0  0
 81153  1  0  0  0
 81154  1  0  0  0
 81155  1  0  0  0
 82156  1  0  0  0
 82157  1  0  0  0
M  ISO  4   1 100  68 101  82 101  85 100
M  END
> <chiral flag>
0

> <version>
0

> <s_m_source_file>
/data/baiqing/PycharmProjects/Reinvent-master-3.2/result/LINK_invent/BTK/process_docking_weight1_custom_product_contain_oxygen_bond_distance_aromatic_linkinvent_7_9_3/rearranged_h_0089.sdf

> <i_m_source_file_index>
54

> <r_mmod_Potential_Energy-OPLS-2005>
153.039276123047

> <r_mmod_Stretch_Energy-OPLS-2005>
109.150360107422

> <r_mmod_Bend_Energy-OPLS-2005>
204.731887817383

> <r_mmod_Torsional_Energy-OPLS-2005>
312.494171142578

> <r_mmod_Improper_Torsional_Energy-OPLS-2005>
3.09117603302002

> <r_mmod_Van_der_Waal_Energy-OPLS-2005>
147.123870849609

> <r_mmod_Electrostatic_Energy-OPLS-2005>
-463.0166015625

> <r_mmod_Solvation_Energy-OPLS-2005>
-224.331298828125

> <b_mmod_Minimization_Converged-OPLS-2005>
0

> <r_mmod_RMS_Derivative-OPLS-2005>
1.894935131073

$$$$
54
                    3D
 Structure written by MMmdl.
162171  0  0  1  0            999 V2000
  -30.6675  -14.6025   20.6194 C   0  0  0  0  0  0
  -30.4344  -12.4169   19.4270 C   0  0  0  0  0  0
  -29.4944  -12.5512   18.2101 C   0  0  0  0  0  0
  -28.0193  -12.3841   18.6275 C   0  0  0  0  0  0
  -27.6589  -13.2215   19.8854 C   0  0  2  0  0  0
  -28.7136  -13.0022   20.9924 C   0  0  0  0  0  0
  -25.2508  -13.8176   20.5639 C   0  0  0  0  0  0
  -24.1793  -13.0434   20.9172 C   0  0  0  0  0  0
  -24.6386  -11.6911   20.8761 C   0  0  0  0  0  0
  -23.9048  -10.4291   21.0415 C   0  0  0  0  0  0
  -24.3594   -9.4210   21.9199 C   0  0  0  0  0  0
  -23.6275   -8.2242   22.0768 C   0  0  0  0  0  0
  -22.4261   -8.0272   21.3548 C   0  0  0  0  0  0
  -21.9891   -9.0247   20.4657 C   0  0  0  0  0  0
  -22.7222  -10.2128   20.3062 C   0  0  0  0  0  0
  -21.6847   -6.0719   22.5270 C   0  0  0  0  0  0
  -21.4007   -6.5615   23.8205 C   0  0  0  0  0  0
  -21.3665   -5.6768   24.9169 C   0  0  0  0  0  0
  -21.6053   -4.3032   24.7218 C   0  0  0  0  0  0
  -21.8817   -3.8129   23.4340 C   0  0  0  0  0  0
  -21.9190   -4.6950   22.3398 C   0  0  0  0  0  0
  -22.7807  -13.5236   21.1819 C   0  0  0  0  0  0
  -22.1659   -4.2139   21.0972 F   0  0  0  0  0  0
  -21.5648   -3.4510   25.7730 F   0  0  0  0  0  0
  -30.0155  -13.4028   20.4495 N   0  0  0  0  0  0
  -26.3013  -12.9397   20.3453 N   0  0  0  0  0  0
  -25.9336  -11.6540   20.5848 N   0  0  0  0  0  0
  -22.0454  -12.8242   22.0383 N   0  0  0  0  0  0
  -25.4087  -15.1878   20.3893 N   0  0  0  0  0  0
  -31.7393  -14.8088   20.0349 O   0  0  0  0  0  0
  -21.6635   -6.8858   21.4230 O   0  0  0  0  0  0
  -22.3497  -14.5557   20.6693 O   0  0  0  0  0  0
  -24.6254  -31.8596   23.2032 C   0  0  0  0  0  0
  -25.9109  -32.4776   23.8359 C   0  0  1  0  0  0
  -27.2257  -27.3259   20.1191 C   0  0  0  0  0  0
  -25.5929  -33.8577   24.2289 N   0  0  0  0  0  0
  -23.4191  -30.4833   21.5454 C   0  0  2  0  0  0
  -24.8657  -28.9351   20.1151 C   0  0  0  0  0  0
  -22.7473  -29.4626   22.4942 C   0  0  0  0  0  0
  -18.0281  -28.1381   22.8483 C   0  0  0  0  0  0
  -24.1486  -36.7284   23.2645 C   0  0  0  0  0  0
  -25.9594  -30.7915   21.3740 C   0  0  0  0  0  0
  -26.0332  -29.4188   20.7188 C   0  0  0  0  0  0
  -27.2178  -28.6263   20.7089 C   0  0  0  0  0  0
  -26.0384  -26.8936   19.4875 C   0  0  0  0  0  0
  -24.8693  -27.6785   19.4904 C   0  0  0  0  0  0
  -23.6344  -29.8154   20.1620 C   0  0  0  0  0  0
  -25.4112  -36.3083   24.0336 C   0  0  1  0  0  0
  -20.5883  -28.3685   23.1278 C   0  0  2  0  0  0
  -20.6772  -26.9406   22.5405 C   0  0  0  0  0  0
  -19.5748  -26.6382   21.5205 C   0  0  0  0  0  0
  -18.1926  -26.7927   22.1611 C   0  0  0  0  0  0
  -19.1537  -28.8844   23.2876 C   0  0  0  0  0  0
  -18.9459  -30.1448   23.8892 C   0  0  0  0  0  0
  -17.6463  -30.6586   24.0551 C   0  0  0  0  0  0
  -25.9049  -34.9447   23.5107 C   0  0  0  0  0  0
  -16.5350  -29.9083   23.6331 C   0  0  0  0  0  0
  -16.7272  -28.6496   23.0356 C   0  0  0  0  0  0
  -26.4503  -31.6583   25.0725 C   0  0  0  0  0  0
  -25.3741  -31.3705   26.1453 C   0  0  0  0  0  0
  -27.0354  -30.3013   24.6172 C   0  0  0  0  0  0
  -27.6067  -32.4316   25.7497 C   0  0  0  0  0  0
  -27.5580  -37.1795   24.8467 C   0  0  0  0  0  0
  -21.4184  -29.3042   22.3673 N   0  0  0  0  0  0
  -26.4290  -37.3776   23.9417 N   0  0  0  0  0  0
  -24.6865  -31.0624   22.0974 N   0  0  0  0  0  0
  -23.4199  -28.8163   23.3013 O   0  0  0  0  0  0
  -28.3561  -26.4996   20.1271 O   0  0  0  0  0  0
  -26.5613  -34.8913   22.4672 O   0  0  0  0  0  0
  -23.5419  -32.1387   23.7362 O   0  0  0  0  0  0
  -27.6204  -18.9597   21.4049 C   0  0  0  0  0  0
  -27.2154  -17.7461   21.9780 C   0  0  0  0  0  0
  -29.7437  -17.9430   20.8095 C   0  0  0  0  0  0
  -28.9120  -19.1314   20.8578 C   0  0  0  0  0  0
  -29.3318  -16.6698   21.3630 C   0  0  0  0  0  0
  -28.0720  -16.6246   22.0175 C   0  0  0  0  0  0
  -29.4654  -22.7575   19.8841 C   0  0  0  0  0  0
  -30.5322  -22.0863   19.1635 C   0  0  0  0  0  0
  -28.7594  -21.7158   20.6425 C   0  0  0  0  0  0
  -29.2461  -24.1189   19.7936 C   0  0  0  0  0  0
  -30.4933  -20.6052   19.5015 C   0  0  0  0  0  0
  -31.0455  -15.5896   22.7615 C   0  0  0  0  0  0
  -26.6332  -15.5170   23.6159 C   0  0  0  0  0  0
  -28.1902  -25.0611   20.4375 C   0  0  0  0  0  0
  -29.3230  -20.4698   20.3766 N   0  0  0  0  0  0
  -30.2158  -15.5111   21.5534 N   0  0  0  0  0  0
  -31.3598  -22.5922   18.3964 O   0  0  0  0  0  0
  -27.8199  -21.9354   21.4160 O   0  0  0  0  0  0
  -27.7409  -15.4869   22.7208 O   0  0  0  0  0  0
  -31.4720  -12.5538   19.1155 H   0  0  0  0  0  0
  -30.3861  -11.4056   19.8339 H   0  0  0  0  0  0
  -29.7531  -11.8135   17.4481 H   0  0  0  0  0  0
  -29.6306  -13.5304   17.7473 H   0  0  0  0  0  0
  -27.8499  -11.3261   18.8290 H   0  0  0  0  0  0
  -27.3618  -12.6468   17.7971 H   0  0  0  0  0  0
  -27.6959  -14.2708   19.5932 H   0  0  0  0  0  0
  -28.7351  -11.9491   21.2777 H   0  0  0  0  0  0
  -28.4832  -13.5188   21.9123 H   0  0  0  0  0  0
  -25.2742   -9.5694   22.4775 H   0  0  0  0  0  0
  -24.0006   -7.4637   22.7487 H   0  0  0  0  0  0
  -21.0826   -8.8756   19.8956 H   0  0  0  0  0  0
  -22.3696  -10.9665   19.6157 H   0  0  0  0  0  0
  -21.1986   -7.6121   23.9703 H   0  0  0  0  0  0
  -21.1493   -6.0500   25.9071 H   0  0  0  0  0  0
  -22.0595   -2.7592   23.2856 H   0  0  0  0  0  0
  -22.4061  -11.9891   22.4756 H   0  0  0  0  0  0
  -21.1093  -13.1310   22.2597 H   0  0  0  0  0  0
  -24.6488  -15.8417   20.5361 H   0  0  0  0  0  0
  -26.2795  -15.6399   20.1441 H   0  0  0  0  0  0
  -26.7170  -32.5451   23.1103 H   0  0  0  0  0  0
  -25.0090  -33.9721   25.0444 H   0  0  0  0  0  0
  -22.7125  -31.3038   21.4019 H   0  0  0  0  0  0
  -23.3756  -35.9608   23.3301 H   0  0  0  0  0  0
  -24.3572  -36.8910   22.2059 H   0  0  0  0  0  0
  -23.7229  -37.6481   23.6663 H   0  0  0  0  0  0
  -26.0907  -31.5537   20.6043 H   0  0  0  0  0  0
  -26.8400  -30.8402   22.0036 H   0  0  0  0  0  0
  -28.1174  -28.9948   21.1816 H   0  0  0  0  0  0
  -25.9995  -25.9420   18.9783 H   0  0  0  0  0  0
  -23.9763  -27.3076   19.0062 H   0  0  0  0  0  0
  -23.7531  -30.5896   19.4039 H   0  0  0  0  0  0
  -22.7561  -29.2427   19.8610 H   0  0  0  0  0  0
  -25.1288  -36.1929   25.0828 H   0  0  0  0  0  0
  -20.9976  -28.3260   24.1399 H   0  0  0  0  0  0
  -20.5664  -26.2294   23.3604 H   0  0  0  0  0  0
  -21.6640  -26.7432   22.1201 H   0  0  0  0  0  0
  -19.6910  -25.6286   21.1246 H   0  0  0  0  0  0
  -19.6699  -27.3185   20.6728 H   0  0  0  0  0  0
  -17.4200  -26.6676   21.4009 H   0  0  0  0  0  0
  -18.0330  -26.0069   22.9004 H   0  0  0  0  0  0
  -19.7935  -30.7255   24.2274 H   0  0  0  0  0  0
  -17.5021  -31.6270   24.5146 H   0  0  0  0  0  0
  -15.5351  -30.2982   23.7662 H   0  0  0  0  0  0
  -15.8672  -28.0811   22.7084 H   0  0  0  0  0  0
  -24.5917  -30.7057   25.7774 H   0  0  0  0  0  0
  -24.8924  -32.2854   26.4904 H   0  0  0  0  0  0
  -25.8068  -30.8861   27.0214 H   0  0  0  0  0  0
  -26.2916  -29.6755   24.1225 H   0  0  0  0  0  0
  -27.4091  -29.7284   25.4670 H   0  0  0  0  0  0
  -27.8772  -30.4310   23.9368 H   0  0  0  0  0  0
  -27.2683  -33.3618   26.2069 H   0  0  0  0  0  0
  -28.3881  -32.6865   25.0327 H   0  0  0  0  0  0
  -28.0733  -31.8440   26.5413 H   0  0  0  0  0  0
  -28.2590  -38.0101   24.7522 H   0  0  0  0  0  0
  -28.1078  -36.2626   24.6275 H   0  0  0  0  0  0
  -27.2290  -37.1434   25.8868 H   0  0  0  0  0  0
  -20.9367  -29.8756   21.6874 H   0  0  0  0  0  0
  -26.0169  -38.2849   24.1420 H   0  0  0  0  0  0
  -26.9012  -19.7629   21.4312 H   0  0  0  0  0  0
  -26.2325  -17.7199   22.4242 H   0  0  0  0  0  0
  -30.7399  -18.0133   20.3971 H   0  0  0  0  0  0
  -29.9218  -24.6651   19.1513 H   0  0  0  0  0  0
  -31.4063  -20.3169   20.0224 H   0  0  0  0  0  0
  -30.3841  -20.0070   18.5968 H   0  0  0  0  0  0
  -30.9907  -16.5756   23.2253 H   0  0  0  0  0  0
  -32.1016  -15.3848   22.5721 H   0  0  0  0  0  0
  -30.6965  -14.8597   23.4935 H   0  0  0  0  0  0
  -26.5651  -14.5588   24.1312 H   0  0  0  0  0  0
  -25.6854  -15.6676   23.0990 H   0  0  0  0  0  0
  -26.7521  -16.2916   24.3749 H   0  0  0  0  0  0
  -28.2679  -24.9541   21.5198 H   0  0  0  0  0  0
  -27.2071  -24.6718   20.1782 H   0  0  0  0  0  0
  1 25  1  0  0  0
  1 30  2  0  0  0
  1 86  1  0  0  0
  2  3  1  0  0  0
  2 25  1  0  0  0
  2 90  1  0  0  0
  2 91  1  0  0  0
  3  4  1  0  0  0
  3 92  1  0  0  0
  3 93  1  0  0  0
  4  5  1  0  0  0
  4 94  1  0  0  0
  4 95  1  0  0  0
  5  6  1  0  0  0
  5 26  1  0  0  0
  5 96  1  0  0  0
  6 25  1  0  0  0
  6 97  1  0  0  0
  6 98  1  0  0  0
  7  8  2  0  0  0
  7 26  1  0  0  0
  7 29  1  0  0  0
  8  9  1  0  0  0
  8 22  1  0  0  0
  9 10  1  0  0  0
  9 27  2  0  0  0
 10 11  2  0  0  0
 10 15  1  0  0  0
 11 12  1  0  0  0
 11 99  1  0  0  0
 12 13  2  0  0  0
 12100  1  0  0  0
 13 14  1  0  0  0
 13 31  1  0  0  0
 14 15  2  0  0  0
 14101  1  0  0  0
 15102  1  0  0  0
 16 17  2  0  0  0
 16 21  1  0  0  0
 16 31  1  0  0  0
 17 18  1  0  0  0
 17103  1  0  0  0
 18 19  2  0  0  0
 18104  1  0  0  0
 19 20  1  0  0  0
 19 24  1  0  0  0
 20 21  2  0  0  0
 20105  1  0  0  0
 21 23  1  0  0  0
 22 28  1  0  0  0
 22 32  2  0  0  0
 26 27  1  0  0  0
 28106  1  0  0  0
 28107  1  0  0  0
 29108  1  0  0  0
 29109  1  0  0  0
 33 34  1  0  0  0
 33 66  1  0  0  0
 33 70  2  0  0  0
 34 36  1  0  0  0
 34 59  1  0  0  0
 34110  1  0  0  0
 35 44  2  0  0  0
 35 45  1  0  0  0
 35 68  1  0  0  0
 36 56  1  0  0  0
 36111  1  0  0  0
 37 39  1  0  0  0
 37 47  1  0  0  0
 37 66  1  0  0  0
 37112  1  0  0  0
 38 43  2  0  0  0
 38 46  1  0  0  0
 38 47  1  0  0  0
 39 64  1  0  0  0
 39 67  2  0  0  0
 40 52  1  0  0  0
 40 53  2  0  0  0
 40 58  1  0  0  0
 41113  1  0  0  0
 41114  1  0  0  0
 41115  1  0  0  0
 41 48  1  0  0  0
 42 43  1  0  0  0
 42 66  1  0  0  0
 42116  1  0  0  0
 42117  1  0  0  0
 43 44  1  0  0  0
 44118  1  0  0  0
 45 46  2  0  0  0
 45119  1  0  0  0
 46120  1  0  0  0
 47121  1  0  0  0
 47122  1  0  0  0
 48 56  1  0  0  0
 48 65  1  0  0  0
 48123  1  0  0  0
 49 50  1  0  0  0
 49 53  1  0  0  0
 49 64  1  0  0  0
 49124  1  0  0  0
 50 51  1  0  0  0
 50125  1  0  0  0
 50126  1  0  0  0
 51 52  1  0  0  0
 51127  1  0  0  0
 51128  1  0  0  0
 52129  1  0  0  0
 52130  1  0  0  0
 53 54  1  0  0  0
 54 55  2  0  0  0
 54131  1  0  0  0
 55 57  1  0  0  0
 55132  1  0  0  0
 56 69  2  0  0  0
 57 58  2  0  0  0
 57133  1  0  0  0
 58134  1  0  0  0
 59 60  1  0  0  0
 59 61  1  0  0  0
 59 62  1  0  0  0
 60135  1  0  0  0
 60136  1  0  0  0
 60137  1  0  0  0
 61138  1  0  0  0
 61139  1  0  0  0
 61140  1  0  0  0
 62141  1  0  0  0
 62142  1  0  0  0
 62143  1  0  0  0
 63 65  1  0  0  0
 63144  1  0  0  0
 63145  1  0  0  0
 63146  1  0  0  0
 64147  1  0  0  0
 65148  1  0  0  0
 68 84  1  0  0  0
 71 72  2  0  0  0
 71 74  1  0  0  0
 71149  1  0  0  0
 72 76  1  0  0  0
 72150  1  0  0  0
 73 74  2  0  0  0
 73 75  1  0  0  0
 73151  1  0  0  0
 74 85  1  0  0  0
 75 76  2  0  0  0
 75 86  1  0  0  0
 76 89  1  0  0  0
 77 78  1  0  0  0
 77 79  1  0  0  0
 77 80  2  0  0  0
 78 81  1  0  0  0
 78 87  2  0  0  0
 79 85  1  0  0  0
 79 88  2  0  0  0
 80 84  1  0  0  0
 80152  1  0  0  0
 81 85  1  0  0  0
 81153  1  0  0  0
 81154  1  0  0  0
 82 86  1  0  0  0
 82155  1  0  0  0
 82156  1  0  0  0
 82157  1  0  0  0
 83 89  1  0  0  0
 83158  1  0  0  0
 83159  1  0  0  0
 83160  1  0  0  0
 84161  1  0  0  0
 84162  1  0  0  0
M  ISO  4   1 100  68 101  84 101  86 100
M  END
> <chiral flag>
0

> <version>
0

> <s_m_source_file>
/data/baiqing/PycharmProjects/Reinvent-master-3.2/result/LINK_invent/BTK/process_docking_weight1_custom_product_contain_oxygen_bond_distance_aromatic_linkinvent_7_9_3/rearranged_h_0089.sdf

> <i_m_source_file_index>
55

> <r_mmod_Potential_Energy-OPLS-2005>
269.059234619141

> <r_mmod_Stretch_Energy-OPLS-2005>
91.6765518188477

> <r_mmod_Bend_Energy-OPLS-2005>
204.371231079102

> <r_mmod_Torsional_Energy-OPLS-2005>
355.920745849609

> <r_mmod_Improper_Torsional_Energy-OPLS-2005>
6.24584627151489

> <r_mmod_Van_der_Waal_Energy-OPLS-2005>
145.209060668945

> <r_mmod_Electrostatic_Energy-OPLS-2005>
-358.840667724609

> <r_mmod_Solvation_Energy-OPLS-2005>
-213.781707763672

> <b_mmod_Minimization_Converged-OPLS-2005>
0

> <r_mmod_RMS_Derivative-OPLS-2005>
1.91652321815491

$$$$
55
                    3D
 Structure written by MMmdl.
162171  0  0  1  0            999 V2000
  -30.7153  -14.4457   20.6265 C   0  0  0  0  0  0
  -30.4205  -12.3140   19.4073 C   0  0  0  0  0  0
  -29.4874  -12.5193   18.1975 C   0  0  0  0  0  0
  -28.0103  -12.3734   18.6124 C   0  0  0  0  0  0
  -27.6603  -13.2056   19.8751 C   0  0  2  0  0  0
  -28.7007  -12.9687   20.9911 C   0  0  0  0  0  0
  -25.2585  -13.8160   20.5683 C   0  0  0  0  0  0
  -24.1834  -13.0436   20.9172 C   0  0  0  0  0  0
  -24.6389  -11.6903   20.8730 C   0  0  0  0  0  0
  -23.9059  -10.4288   21.0402 C   0  0  0  0  0  0
  -24.3615   -9.4208   21.9183 C   0  0  0  0  0  0
  -23.6290   -8.2244   22.0756 C   0  0  0  0  0  0
  -22.4273   -8.0279   21.3544 C   0  0  0  0  0  0
  -21.9906   -9.0252   20.4645 C   0  0  0  0  0  0
  -22.7232  -10.2131   20.3054 C   0  0  0  0  0  0
  -21.6854   -6.0734   22.5280 C   0  0  0  0  0  0
  -21.4014   -6.5640   23.8211 C   0  0  0  0  0  0
  -21.3659   -5.6794   24.9172 C   0  0  0  0  0  0
  -21.6042   -4.3055   24.7225 C   0  0  0  0  0  0
  -21.8820   -3.8146   23.4347 C   0  0  0  0  0  0
  -21.9192   -4.6962   22.3403 C   0  0  0  0  0  0
  -22.7856  -13.5235   21.1841 C   0  0  0  0  0  0
  -22.1661   -4.2152   21.0979 F   0  0  0  0  0  0
  -21.5628   -3.4538   25.7735 F   0  0  0  0  0  0
  -30.0319  -13.2833   20.4433 N   0  0  0  0  0  0
  -26.3014  -12.9326   20.3362 N   0  0  0  0  0  0
  -25.9312  -11.6484   20.5759 N   0  0  0  0  0  0
  -22.0501  -12.8224   22.0396 N   0  0  0  0  0  0
  -25.4321  -15.1879   20.4108 N   0  0  0  0  0  0
  -31.8112  -14.6686   20.1036 O   0  0  0  0  0  0
  -21.6637   -6.8877   21.4242 O   0  0  0  0  0  0
  -22.3540  -14.5540   20.6690 O   0  0  0  0  0  0
  -24.6156  -31.8673   23.2097 C   0  0  0  0  0  0
  -25.9044  -32.4818   23.8394 C   0  0  1  0  0  0
  -27.2327  -27.4331   20.1017 C   0  0  0  0  0  0
  -25.5901  -33.8615   24.2333 N   0  0  0  0  0  0
  -23.4031  -30.4907   21.5504 C   0  0  2  0  0  0
  -24.8482  -28.9526   20.1186 C   0  0  0  0  0  0
  -22.7412  -29.4664   22.5002 C   0  0  0  0  0  0
  -18.0274  -28.1384   22.8499 C   0  0  0  0  0  0
  -24.1484  -36.7307   23.2640 C   0  0  0  0  0  0
  -25.9307  -30.8348   21.3591 C   0  0  0  0  0  0
  -26.0096  -29.4679   20.7084 C   0  0  0  0  0  0
  -27.2084  -28.7184   20.6896 C   0  0  0  0  0  0
  -26.0530  -26.9265   19.5157 C   0  0  0  0  0  0
  -24.8648  -27.6811   19.5186 C   0  0  0  0  0  0
  -23.6108  -29.8207   20.1659 C   0  0  0  0  0  0
  -25.4103  -36.3108   24.0347 C   0  0  1  0  0  0
  -20.5863  -28.3668   23.1323 C   0  0  2  0  0  0
  -20.6767  -26.9405   22.5420 C   0  0  0  0  0  0
  -19.5744  -26.6391   21.5218 C   0  0  0  0  0  0
  -18.1920  -26.7933   22.1623 C   0  0  0  0  0  0
  -19.1523  -28.8843   23.2910 C   0  0  0  0  0  0
  -18.9452  -30.1449   23.8920 C   0  0  0  0  0  0
  -17.6452  -30.6587   24.0572 C   0  0  0  0  0  0
  -25.9031  -34.9474   23.5137 C   0  0  0  0  0  0
  -16.5343  -29.9090   23.6331 C   0  0  0  0  0  0
  -16.7262  -28.6507   23.0353 C   0  0  0  0  0  0
  -26.4473  -31.6592   25.0716 C   0  0  0  0  0  0
  -25.3749  -31.3675   26.1468 C   0  0  0  0  0  0
  -27.0303  -30.3046   24.6066 C   0  0  0  0  0  0
  -27.6057  -32.4301   25.7473 C   0  0  0  0  0  0
  -27.5584  -37.1801   24.8465 C   0  0  0  0  0  0
  -21.4141  -29.3035   22.3730 N   0  0  0  0  0  0
  -26.4286  -37.3793   23.9425 N   0  0  0  0  0  0
  -24.6684  -31.0779   22.0990 N   0  0  0  0  0  0
  -23.4180  -28.8216   23.3054 O   0  0  0  0  0  0
  -28.3978  -26.6975   20.0808 O   0  0  0  0  0  0
  -26.5588  -34.8929   22.4694 O   0  0  0  0  0  0
  -23.5351  -32.1417   23.7502 O   0  0  0  0  0  0
  -30.6247  -18.3294   19.9889 C   0  0  0  0  0  0
  -30.2355  -19.5774   19.4557 C   0  0  0  0  0  0
  -29.2237  -18.7314   21.9216 C   0  0  0  0  0  0
  -30.1413  -17.9035   21.2399 C   0  0  0  0  0  0
  -29.3462  -20.4460   20.1467 C   0  0  0  0  0  0
  -28.8286  -19.9803   21.3885 C   0  0  0  0  0  0
  -28.3701  -24.3056   18.4778 C   0  0  0  0  0  0
  -28.6286  -24.2235   19.7988 C   0  0  0  0  0  0
  -28.5745  -23.1583   17.5898 C   0  0  0  0  0  0
  -29.2392  -21.9082   18.1734 C   0  0  0  0  0  0
  -29.1478  -22.9272   20.4662 C   0  0  2  0  0  0
  -30.6195  -23.1001   20.8914 C   0  0  0  0  0  0
  -30.6730  -16.6201   21.8829 C   0  0  0  0  0  0
  -28.3443  -25.4116   20.7280 C   0  0  0  0  0  0
  -28.9999  -21.7248   19.6123 N   0  0  0  0  0  0
  -30.0963  -15.3673   21.3838 N   0  0  0  0  0  0
  -28.2441  -23.1725   16.4023 O   0  0  0  0  0  0
  -27.9341  -20.7191   22.0892 F   0  0  0  0  0  0
  -31.4636  -12.4212   19.1040 H   0  0  0  0  0  0
  -30.3280  -11.2979   19.7942 H   0  0  0  0  0  0
  -29.7258  -11.8034   17.4101 H   0  0  0  0  0  0
  -29.6505  -13.5103   17.7709 H   0  0  0  0  0  0
  -27.8214  -11.3155   18.8005 H   0  0  0  0  0  0
  -27.3580  -12.6542   17.7847 H   0  0  0  0  0  0
  -27.7100  -14.2564   19.5889 H   0  0  0  0  0  0
  -28.6784  -11.9257   21.3108 H   0  0  0  0  0  0
  -28.4517  -13.5458   21.8822 H   0  0  0  0  0  0
  -25.2763   -9.5686   22.4754 H   0  0  0  0  0  0
  -24.0001   -7.4637   22.7477 H   0  0  0  0  0  0
  -21.0839   -8.8765   19.8951 H   0  0  0  0  0  0
  -22.3692  -10.9668   19.6161 H   0  0  0  0  0  0
  -21.2004   -7.6148   23.9717 H   0  0  0  0  0  0
  -21.1480   -6.0522   25.9075 H   0  0  0  0  0  0
  -22.0600   -2.7610   23.2846 H   0  0  0  0  0  0
  -22.4113  -11.9878   22.4773 H   0  0  0  0  0  0
  -21.1123  -13.1254   22.2614 H   0  0  0  0  0  0
  -24.6697  -15.8475   20.5212 H   0  0  0  0  0  0
  -26.2919  -15.6254   20.1035 H   0  0  0  0  0  0
  -26.7118  -32.5528   23.1162 H   0  0  0  0  0  0
  -25.0088  -33.9773   25.0503 H   0  0  0  0  0  0
  -22.6926  -31.3080   21.4104 H   0  0  0  0  0  0
  -23.3754  -35.9629   23.3292 H   0  0  0  0  0  0
  -24.3590  -36.8926   22.2058 H   0  0  0  0  0  0
  -23.7221  -37.6505   23.6653 H   0  0  0  0  0  0
  -26.0393  -31.5994   20.5889 H   0  0  0  0  0  0
  -26.8201  -30.8909   21.9751 H   0  0  0  0  0  0
  -28.1093  -29.1157   21.1361 H   0  0  0  0  0  0
  -26.0464  -25.9499   19.0543 H   0  0  0  0  0  0
  -23.9710  -27.2770   19.0632 H   0  0  0  0  0  0
  -23.7211  -30.5939   19.4044 H   0  0  0  0  0  0
  -22.7339  -29.2418   19.8704 H   0  0  0  0  0  0
  -25.1276  -36.1972   25.0838 H   0  0  0  0  0  0
  -20.9955  -28.3228   24.1444 H   0  0  0  0  0  0
  -20.5684  -26.2272   23.3605 H   0  0  0  0  0  0
  -21.6640  -26.7457   22.1202 H   0  0  0  0  0  0
  -19.6906  -25.6307   21.1240 H   0  0  0  0  0  0
  -19.6686  -27.3215   20.6761 H   0  0  0  0  0  0
  -17.4194  -26.6699   21.4018 H   0  0  0  0  0  0
  -18.0307  -26.0064   22.9003 H   0  0  0  0  0  0
  -19.7924  -30.7268   24.2295 H   0  0  0  0  0  0
  -17.5001  -31.6272   24.5163 H   0  0  0  0  0  0
  -15.5347  -30.2998   23.7643 H   0  0  0  0  0  0
  -15.8660  -28.0833   22.7060 H   0  0  0  0  0  0
  -24.5942  -30.6997   25.7809 H   0  0  0  0  0  0
  -24.8917  -32.2816   26.4929 H   0  0  0  0  0  0
  -25.8118  -30.8846   27.0220 H   0  0  0  0  0  0
  -26.2832  -29.6801   24.1153 H   0  0  0  0  0  0
  -27.4136  -29.7283   25.4498 H   0  0  0  0  0  0
  -27.8637  -30.4392   23.9166 H   0  0  0  0  0  0
  -27.2694  -33.3606   26.2060 H   0  0  0  0  0  0
  -28.3856  -32.6845   25.0283 H   0  0  0  0  0  0
  -28.0728  -31.8410   26.5375 H   0  0  0  0  0  0
  -28.2585  -38.0118   24.7548 H   0  0  0  0  0  0
  -28.1099  -36.2652   24.6239 H   0  0  0  0  0  0
  -27.2312  -37.1388   25.8870 H   0  0  0  0  0  0
  -20.9307  -29.8740   21.6935 H   0  0  0  0  0  0
  -26.0178  -38.2868   24.1445 H   0  0  0  0  0  0
  -31.3305  -17.7144   19.4472 H   0  0  0  0  0  0
  -30.6727  -19.8563   18.5096 H   0  0  0  0  0  0
  -28.8297  -18.4255   22.8797 H   0  0  0  0  0  0
  -27.9921  -25.2141   18.0372 H   0  0  0  0  0  0
  -30.3102  -21.9851   17.9837 H   0  0  0  0  0  0
  -28.8692  -21.0428   17.6222 H   0  0  0  0  0  0
  -28.5382  -22.8050   21.3606 H   0  0  0  0  0  0
  -31.2682  -23.2601   20.0297 H   0  0  0  0  0  0
  -30.9902  -22.2261   21.4274 H   0  0  0  0  0  0
  -30.7550  -23.9480   21.5612 H   0  0  0  0  0  0
  -30.4904  -16.6606   22.9577 H   0  0  0  0  0  0
  -31.7601  -16.6109   21.7810 H   0  0  0  0  0  0
  -29.0975  -25.4388   21.5135 H   0  0  0  0  0  0
  -27.3957  -25.2384   21.2393 H   0  0  0  0  0  0
  -29.1878  -15.1140   21.7413 H   0  0  0  0  0  0
  1 25  1  0  0  0
  1 30  2  0  0  0
  1 86  1  0  0  0
  2  3  1  0  0  0
  2 25  1  0  0  0
  2 89  1  0  0  0
  2 90  1  0  0  0
  3  4  1  0  0  0
  3 91  1  0  0  0
  3 92  1  0  0  0
  4  5  1  0  0  0
  4 93  1  0  0  0
  4 94  1  0  0  0
  5  6  1  0  0  0
  5 26  1  0  0  0
  5 95  1  0  0  0
  6 25  1  0  0  0
  6 96  1  0  0  0
  6 97  1  0  0  0
  7  8  2  0  0  0
  7 26  1  0  0  0
  7 29  1  0  0  0
  8  9  1  0  0  0
  8 22  1  0  0  0
  9 10  1  0  0  0
  9 27  2  0  0  0
 10 11  2  0  0  0
 10 15  1  0  0  0
 11 12  1  0  0  0
 11 98  1  0  0  0
 12 13  2  0  0  0
 12 99  1  0  0  0
 13 14  1  0  0  0
 13 31  1  0  0  0
 14 15  2  0  0  0
 14100  1  0  0  0
 15101  1  0  0  0
 16 17  2  0  0  0
 16 21  1  0  0  0
 16 31  1  0  0  0
 17 18  1  0  0  0
 17102  1  0  0  0
 18 19  2  0  0  0
 18103  1  0  0  0
 19 20  1  0  0  0
 19 24  1  0  0  0
 20 21  2  0  0  0
 20104  1  0  0  0
 21 23  1  0  0  0
 22 28  1  0  0  0
 22 32  2  0  0  0
 26 27  1  0  0  0
 28105  1  0  0  0
 28106  1  0  0  0
 29107  1  0  0  0
 29108  1  0  0  0
 33 34  1  0  0  0
 33 66  1  0  0  0
 33 70  2  0  0  0
 34 36  1  0  0  0
 34 59  1  0  0  0
 34109  1  0  0  0
 35 44  2  0  0  0
 35 45  1  0  0  0
 35 68  1  0  0  0
 36 56  1  0  0  0
 36110  1  0  0  0
 37 39  1  0  0  0
 37 47  1  0  0  0
 37 66  1  0  0  0
 37111  1  0  0  0
 38 43  2  0  0  0
 38 46  1  0  0  0
 38 47  1  0  0  0
 39 64  1  0  0  0
 39 67  2  0  0  0
 40 52  1  0  0  0
 40 53  2  0  0  0
 40 58  1  0  0  0
 41112  1  0  0  0
 41113  1  0  0  0
 41114  1  0  0  0
 41 48  1  0  0  0
 42 43  1  0  0  0
 42 66  1  0  0  0
 42115  1  0  0  0
 42116  1  0  0  0
 43 44  1  0  0  0
 44117  1  0  0  0
 45 46  2  0  0  0
 45118  1  0  0  0
 46119  1  0  0  0
 47120  1  0  0  0
 47121  1  0  0  0
 48 56  1  0  0  0
 48 65  1  0  0  0
 48122  1  0  0  0
 49 50  1  0  0  0
 49 53  1  0  0  0
 49 64  1  0  0  0
 49123  1  0  0  0
 50 51  1  0  0  0
 50124  1  0  0  0
 50125  1  0  0  0
 51 52  1  0  0  0
 51126  1  0  0  0
 51127  1  0  0  0
 52128  1  0  0  0
 52129  1  0  0  0
 53 54  1  0  0  0
 54 55  2  0  0  0
 54130  1  0  0  0
 55 57  1  0  0  0
 55131  1  0  0  0
 56 69  2  0  0  0
 57 58  2  0  0  0
 57132  1  0  0  0
 58133  1  0  0  0
 59 60  1  0  0  0
 59 61  1  0  0  0
 59 62  1  0  0  0
 60134  1  0  0  0
 60135  1  0  0  0
 60136  1  0  0  0
 61137  1  0  0  0
 61138  1  0  0  0
 61139  1  0  0  0
 62140  1  0  0  0
 62141  1  0  0  0
 62142  1  0  0  0
 63 65  1  0  0  0
 63143  1  0  0  0
 63144  1  0  0  0
 63145  1  0  0  0
 64146  1  0  0  0
 65147  1  0  0  0
 68 84  1  0  0  0
 71 72  2  0  0  0
 71 74  1  0  0  0
 71148  1  0  0  0
 72 75  1  0  0  0
 72149  1  0  0  0
 73 74  2  0  0  0
 73 76  1  0  0  0
 73150  1  0  0  0
 74 83  1  0  0  0
 75 76  2  0  0  0
 75 85  1  0  0  0
 76 88  1  0  0  0
 77 78  2  0  0  0
 77 79  1  0  0  0
 77151  1  0  0  0
 78 81  1  0  0  0
 78 84  1  0  0  0
 79 80  1  0  0  0
 79 87  2  0  0  0
 80 85  1  0  0  0
 80152  1  0  0  0
 80153  1  0  0  0
 81 82  1  0  0  0
 81 85  1  0  0  0
 81154  1  0  0  0
 82155  1  0  0  0
 82156  1  0  0  0
 82157  1  0  0  0
 83 86  1  0  0  0
 83158  1  0  0  0
 83159  1  0  0  0
 84160  1  0  0  0
 84161  1  0  0  0
 86162  1  0  0  0
M  ISO  4   1 100  68 101  84 101  86 100
M  END
> <chiral flag>
0

> <version>
0

> <s_m_source_file>
/data/baiqing/PycharmProjects/Reinvent-master-3.2/result/LINK_invent/BTK/process_docking_weight1_custom_product_contain_oxygen_bond_distance_aromatic_linkinvent_7_9_3/rearranged_h_0089.sdf

> <i_m_source_file_index>
56

> <r_mmod_Potential_Energy-OPLS-2005>
-62.6875953674316

> <r_mmod_Stretch_Energy-OPLS-2005>
43.2874374389648

> <r_mmod_Bend_Energy-OPLS-2005>
101.057167053223

> <r_mmod_Torsional_Energy-OPLS-2005>
220.770980834961

> <r_mmod_Improper_Torsional_Energy-OPLS-2005>
4.69500064849854

> <r_mmod_Van_der_Waal_Energy-OPLS-2005>
166.540649414062

> <r_mmod_Electrostatic_Energy-OPLS-2005>
-385.076049804688

> <r_mmod_Solvation_Energy-OPLS-2005>
-224.21923828125

> <b_mmod_Minimization_Converged-OPLS-2005>
0

> <r_mmod_RMS_Derivative-OPLS-2005>
0.766446709632874

$$$$
56
                    3D
 Structure written by MMmdl.
156164  0  0  1  0            999 V2000
  -30.6209  -14.5999   20.5033 C   0  0  0  0  0  0
  -30.4400  -12.3682   19.4300 C   0  0  0  0  0  0
  -29.5005  -12.4894   18.2102 C   0  0  0  0  0  0
  -28.0237  -12.3301   18.6308 C   0  0  0  0  0  0
  -27.6498  -13.2035   19.8578 C   0  0  2  0  0  0
  -28.7000  -13.0533   20.9813 C   0  0  0  0  0  0
  -25.2561  -13.8140   20.5677 C   0  0  0  0  0  0
  -24.1821  -13.0421   20.9198 C   0  0  0  0  0  0
  -24.6374  -11.6890   20.8754 C   0  0  0  0  0  0
  -23.9044  -10.4282   21.0424 C   0  0  0  0  0  0
  -24.3601   -9.4199   21.9198 C   0  0  0  0  0  0
  -23.6281   -8.2232   22.0758 C   0  0  0  0  0  0
  -22.4265   -8.0272   21.3544 C   0  0  0  0  0  0
  -21.9898   -9.0249   20.4649 C   0  0  0  0  0  0
  -22.7223  -10.2128   20.3066 C   0  0  0  0  0  0
  -21.6845   -6.0728   22.5279 C   0  0  0  0  0  0
  -21.4013   -6.5634   23.8214 C   0  0  0  0  0  0
  -21.3661   -5.6789   24.9177 C   0  0  0  0  0  0
  -21.6043   -4.3052   24.7228 C   0  0  0  0  0  0
  -21.8821   -3.8142   23.4351 C   0  0  0  0  0  0
  -21.9192   -4.6956   22.3405 C   0  0  0  0  0  0
  -22.7848  -13.5225   21.1865 C   0  0  0  0  0  0
  -22.1661   -4.2142   21.0983 F   0  0  0  0  0  0
  -21.5631   -3.4537   25.7743 F   0  0  0  0  0  0
  -30.0113  -13.3839   20.4040 N   0  0  0  0  0  0
  -26.2971  -12.9290   20.3311 N   0  0  0  0  0  0
  -25.9296  -11.6463   20.5768 N   0  0  0  0  0  0
  -22.0489  -12.8221   22.0422 N   0  0  0  0  0  0
  -25.4257  -15.1866   20.4074 N   0  0  0  0  0  0
  -31.8126  -14.7682   20.2313 O   0  0  0  0  0  0
  -21.6629   -6.8869   21.4240 O   0  0  0  0  0  0
  -22.3544  -14.5540   20.6724 O   0  0  0  0  0  0
  -24.6196  -31.8635   23.2055 C   0  0  0  0  0  0
  -25.9067  -32.4794   23.8361 C   0  0  1  0  0  0
  -27.2281  -27.3671   20.1234 C   0  0  0  0  0  0
  -25.5912  -33.8591   24.2297 N   0  0  0  0  0  0
  -23.4113  -30.4861   21.5471 C   0  0  2  0  0  0
  -24.8585  -28.9351   20.1228 C   0  0  0  0  0  0
  -22.7431  -29.4636   22.4960 C   0  0  0  0  0  0
  -18.0272  -28.1368   22.8474 C   0  0  0  0  0  0
  -24.1489  -36.7312   23.2641 C   0  0  0  0  0  0
  -25.9455  -30.8082   21.3680 C   0  0  0  0  0  0
  -26.0221  -29.4337   20.7233 C   0  0  0  0  0  0
  -27.2130  -28.6601   20.7155 C   0  0  0  0  0  0
  -26.0497  -26.8971   19.5130 C   0  0  0  0  0  0
  -24.8700  -27.6679   19.5139 C   0  0  0  0  0  0
  -23.6261  -29.8157   20.1635 C   0  0  0  0  0  0
  -25.4110  -36.3098   24.0336 C   0  0  1  0  0  0
  -20.5873  -28.3675   23.1289 C   0  0  2  0  0  0
  -20.6773  -26.9398   22.5409 C   0  0  0  0  0  0
  -19.5760  -26.6374   21.5200 C   0  0  0  0  0  0
  -18.1935  -26.7912   22.1609 C   0  0  0  0  0  0
  -19.1520  -28.8836   23.2881 C   0  0  0  0  0  0
  -18.9455  -30.1442   23.8894 C   0  0  0  0  0  0
  -17.6459  -30.6576   24.0565 C   0  0  0  0  0  0
  -25.9041  -34.9461   23.5116 C   0  0  0  0  0  0
  -16.5348  -29.9084   23.6319 C   0  0  0  0  0  0
  -16.7263  -28.6503   23.0332 C   0  0  0  0  0  0
  -26.4481  -31.6582   25.0707 C   0  0  0  0  0  0
  -25.3737  -31.3709   26.1456 C   0  0  0  0  0  0
  -27.0308  -30.3014   24.6103 C   0  0  0  0  0  0
  -27.6038  -32.4324   25.7479 C   0  0  0  0  0  0
  -27.5581  -37.1816   24.8466 C   0  0  0  0  0  0
  -21.4154  -29.3041   22.3694 N   0  0  0  0  0  0
  -26.4293  -37.3785   23.9407 N   0  0  0  0  0  0
  -24.6771  -31.0688   22.0987 N   0  0  0  0  0  0
  -23.4170  -28.8173   23.3022 O   0  0  0  0  0  0
  -28.3796  -26.5951   20.0315 O   0  0  0  0  0  0
  -26.5605  -34.8930   22.4679 O   0  0  0  0  0  0
  -23.5377  -32.1413   23.7420 O   0  0  0  0  0  0
  -29.6399  -19.4097   22.5898 C   0  0  0  0  0  0
  -29.7109  -18.1821   20.4853 C   0  0  0  0  0  0
  -29.9231  -16.9795   22.6022 C   0  0  0  0  0  0
  -29.5992  -19.4368   21.1764 C   0  0  0  0  0  0
  -29.8044  -18.2009   23.2962 C   0  0  0  0  0  0
  -29.8678  -16.9411   21.1919 C   0  0  0  0  0  0
  -29.4940  -20.7817   20.4984 C   0  0  0  0  0  0
  -28.1321  -24.1215   20.7541 C   0  0  0  0  0  0
  -28.3505  -26.0308   22.4561 C   0  0  0  0  0  0
  -28.6945  -25.5676   21.0254 C   0  0  2  0  0  0
  -28.7921  -21.7740   20.9719 N   0  0  0  0  0  0
  -29.8303  -18.2106   24.6914 N   0  0  0  0  0  0
  -29.7516  -15.6481   20.5575 N   0  0  0  0  0  0
  -28.9912  -23.0841   20.5266 N   0  0  0  0  0  0
  -26.9135  -23.9290   20.8209 O   0  0  0  0  0  0
  -31.4792  -12.5048   19.1242 H   0  0  0  0  0  0
  -30.3795  -11.3710   19.8698 H   0  0  0  0  0  0
  -29.7564  -11.7382   17.4617 H   0  0  0  0  0  0
  -29.6425  -13.4597   17.7309 H   0  0  0  0  0  0
  -27.8629  -11.2774   18.8680 H   0  0  0  0  0  0
  -27.3653  -12.5563   17.7911 H   0  0  0  0  0  0
  -27.6633  -14.2358   19.5103 H   0  0  0  0  0  0
  -28.7074  -12.0338   21.3697 H   0  0  0  0  0  0
  -28.4620  -13.6971   21.8307 H   0  0  0  0  0  0
  -25.2747   -9.5672   22.4772 H   0  0  0  0  0  0
  -23.9992   -7.4616   22.7472 H   0  0  0  0  0  0
  -21.0832   -8.8771   19.8949 H   0  0  0  0  0  0
  -22.3691  -10.9672   19.6177 H   0  0  0  0  0  0
  -21.2005   -7.6141   23.9717 H   0  0  0  0  0  0
  -21.1481   -6.0518   25.9080 H   0  0  0  0  0  0
  -22.0599   -2.7604   23.2854 H   0  0  0  0  0  0
  -22.4091  -11.9864   22.4787 H   0  0  0  0  0  0
  -21.1119  -13.1269   22.2649 H   0  0  0  0  0  0
  -24.6545  -15.8361   20.5181 H   0  0  0  0  0  0
  -26.2646  -15.6324   20.0608 H   0  0  0  0  0  0
  -26.7138  -32.5493   23.1117 H   0  0  0  0  0  0
  -25.0079  -33.9726   25.0454 H   0  0  0  0  0  0
  -22.7035  -31.3050   21.4035 H   0  0  0  0  0  0
  -23.3740  -35.9655   23.3311 H   0  0  0  0  0  0
  -24.3582  -36.8919   22.2054 H   0  0  0  0  0  0
  -23.7253  -37.6525   23.6647 H   0  0  0  0  0  0
  -26.0629  -31.5669   20.5928 H   0  0  0  0  0  0
  -26.8324  -30.8655   21.9873 H   0  0  0  0  0  0
  -28.1176  -29.0485   21.1636 H   0  0  0  0  0  0
  -26.0492  -25.9281   19.0327 H   0  0  0  0  0  0
  -23.9778  -27.2784   19.0425 H   0  0  0  0  0  0
  -23.7506  -30.5912   19.4072 H   0  0  0  0  0  0
  -22.7463  -29.2465   19.8585 H   0  0  0  0  0  0
  -25.1286  -36.1959   25.0827 H   0  0  0  0  0  0
  -20.9964  -28.3258   24.1408 H   0  0  0  0  0  0
  -20.5683  -26.2280   23.3604 H   0  0  0  0  0  0
  -21.6650  -26.7441   22.1199 H   0  0  0  0  0  0
  -19.6936  -25.6282   21.1231 H   0  0  0  0  0  0
  -19.6709  -27.3185   20.6727 H   0  0  0  0  0  0
  -17.4202  -26.6638   21.4008 H   0  0  0  0  0  0
  -18.0355  -26.0035   22.8995 H   0  0  0  0  0  0
  -19.7940  -30.7249   24.2262 H   0  0  0  0  0  0
  -17.5024  -31.6258   24.5169 H   0  0  0  0  0  0
  -15.5357  -30.3002   23.7645 H   0  0  0  0  0  0
  -15.8656  -28.0852   22.7032 H   0  0  0  0  0  0
  -24.5913  -30.7044   25.7820 H   0  0  0  0  0  0
  -24.8929  -32.2875   26.4889 H   0  0  0  0  0  0
  -25.8102  -30.8910   27.0221 H   0  0  0  0  0  0
  -26.2859  -29.6784   24.1145 H   0  0  0  0  0  0
  -27.4051  -29.7247   25.4566 H   0  0  0  0  0  0
  -27.8701  -30.4323   23.9269 H   0  0  0  0  0  0
  -27.2630  -33.3618   26.2053 H   0  0  0  0  0  0
  -28.3850  -32.6895   25.0316 H   0  0  0  0  0  0
  -28.0686  -31.8448   26.5407 H   0  0  0  0  0  0
  -28.2605  -38.0109   24.7501 H   0  0  0  0  0  0
  -28.1073  -36.2637   24.6303 H   0  0  0  0  0  0
  -27.2296  -37.1482   25.8870 H   0  0  0  0  0  0
  -20.9319  -29.8782   21.6931 H   0  0  0  0  0  0
  -26.0182  -38.2861   24.1411 H   0  0  0  0  0  0
  -29.5599  -20.3386   23.1395 H   0  0  0  0  0  0
  -29.6455  -18.1735   19.4058 H   0  0  0  0  0  0
  -30.0082  -16.0554   23.1575 H   0  0  0  0  0  0
  -30.0660  -20.9209   19.5797 H   0  0  0  0  0  0
  -28.8438  -26.9733   22.6944 H   0  0  0  0  0  0
  -28.6720  -25.2942   23.1932 H   0  0  0  0  0  0
  -27.2767  -26.1686   22.5894 H   0  0  0  0  0  0
  -29.7800  -25.4764   20.9811 H   0  0  0  0  0  0
  -29.4770  -19.0266   25.1828 H   0  0  0  0  0  0
  -29.6442  -17.3450   25.1901 H   0  0  0  0  0  0
  -28.7991  -15.3443   20.4339 H   0  0  0  0  0  0
  -29.9473  -23.3046   20.2756 H   0  0  0  0  0  0
  1 25  1  0  0  0
  1 30  2  0  0  0
  1 83  1  0  0  0
  2  3  1  0  0  0
  2 25  1  0  0  0
  2 86  1  0  0  0
  2 87  1  0  0  0
  3  4  1  0  0  0
  3 88  1  0  0  0
  3 89  1  0  0  0
  4  5  1  0  0  0
  4 90  1  0  0  0
  4 91  1  0  0  0
  5  6  1  0  0  0
  5 26  1  0  0  0
  5 92  1  0  0  0
  6 25  1  0  0  0
  6 93  1  0  0  0
  6 94  1  0  0  0
  7  8  2  0  0  0
  7 26  1  0  0  0
  7 29  1  0  0  0
  8  9  1  0  0  0
  8 22  1  0  0  0
  9 10  1  0  0  0
  9 27  2  0  0  0
 10 11  2  0  0  0
 10 15  1  0  0  0
 11 12  1  0  0  0
 11 95  1  0  0  0
 12 13  2  0  0  0
 12 96  1  0  0  0
 13 14  1  0  0  0
 13 31  1  0  0  0
 14 15  2  0  0  0
 14 97  1  0  0  0
 15 98  1  0  0  0
 16 17  2  0  0  0
 16 21  1  0  0  0
 16 31  1  0  0  0
 17 18  1  0  0  0
 17 99  1  0  0  0
 18 19  2  0  0  0
 18100  1  0  0  0
 19 20  1  0  0  0
 19 24  1  0  0  0
 20 21  2  0  0  0
 20101  1  0  0  0
 21 23  1  0  0  0
 22 28  1  0  0  0
 22 32  2  0  0  0
 26 27  1  0  0  0
 28102  1  0  0  0
 28103  1  0  0  0
 29104  1  0  0  0
 29105  1  0  0  0
 33 34  1  0  0  0
 33 66  1  0  0  0
 33 70  2  0  0  0
 34 36  1  0  0  0
 34 59  1  0  0  0
 34106  1  0  0  0
 35 44  2  0  0  0
 35 45  1  0  0  0
 35 68  1  0  0  0
 36 56  1  0  0  0
 36107  1  0  0  0
 37 39  1  0  0  0
 37 47  1  0  0  0
 37 66  1  0  0  0
 37108  1  0  0  0
 38 43  2  0  0  0
 38 46  1  0  0  0
 38 47  1  0  0  0
 39 64  1  0  0  0
 39 67  2  0  0  0
 40 52  1  0  0  0
 40 53  2  0  0  0
 40 58  1  0  0  0
 41109  1  0  0  0
 41110  1  0  0  0
 41111  1  0  0  0
 41 48  1  0  0  0
 42 43  1  0  0  0
 42 66  1  0  0  0
 42112  1  0  0  0
 42113  1  0  0  0
 43 44  1  0  0  0
 44114  1  0  0  0
 45 46  2  0  0  0
 45115  1  0  0  0
 46116  1  0  0  0
 47117  1  0  0  0
 47118  1  0  0  0
 48 56  1  0  0  0
 48 65  1  0  0  0
 48119  1  0  0  0
 49 50  1  0  0  0
 49 53  1  0  0  0
 49 64  1  0  0  0
 49120  1  0  0  0
 50 51  1  0  0  0
 50121  1  0  0  0
 50122  1  0  0  0
 51 52  1  0  0  0
 51123  1  0  0  0
 51124  1  0  0  0
 52125  1  0  0  0
 52126  1  0  0  0
 53 54  1  0  0  0
 54 55  2  0  0  0
 54127  1  0  0  0
 55 57  1  0  0  0
 55128  1  0  0  0
 56 69  2  0  0  0
 57 58  2  0  0  0
 57129  1  0  0  0
 58130  1  0  0  0
 59 60  1  0  0  0
 59 61  1  0  0  0
 59 62  1  0  0  0
 60131  1  0  0  0
 60132  1  0  0  0
 60133  1  0  0  0
 61134  1  0  0  0
 61135  1  0  0  0
 61136  1  0  0  0
 62137  1  0  0  0
 62138  1  0  0  0
 62139  1  0  0  0
 63 65  1  0  0  0
 63140  1  0  0  0
 63141  1  0  0  0
 63142  1  0  0  0
 64143  1  0  0  0
 65144  1  0  0  0
 68 80  1  0  0  0
 71 74  2  0  0  0
 71 75  1  0  0  0
 71145  1  0  0  0
 72 74  1  0  0  0
 72 76  2  0  0  0
 72146  1  0  0  0
 73 75  2  0  0  0
 73 76  1  0  0  0
 73147  1  0  0  0
 74 77  1  0  0  0
 75 82  1  0  0  0
 76 83  1  0  0  0
 77 81  2  0  0  0
 77148  1  0  0  0
 78 80  1  0  0  0
 78 84  1  0  0  0
 78 85  2  0  0  0
 79149  1  0  0  0
 79150  1  0  0  0
 79151  1  0  0  0
 79 80  1  0  0  0
 80152  1  0  0  0
 81 84  1  0  0  0
 82153  1  0  0  0
 82154  1  0  0  0
 83155  1  0  0  0
 84156  1  0  0  0
M  ISO  4   1 100  68 101  80 101  83 100
M  END
> <chiral flag>
0

> <version>
0

> <s_m_source_file>
/data/baiqing/PycharmProjects/Reinvent-master-3.2/result/LINK_invent/BTK/process_docking_weight1_custom_product_contain_oxygen_bond_distance_aromatic_linkinvent_7_9_3/rearranged_h_0089.sdf

> <i_m_source_file_index>
57

> <r_mmod_Potential_Energy-OPLS-2005>
107.023040771484

> <r_mmod_Stretch_Energy-OPLS-2005>
62.0476989746094

> <r_mmod_Bend_Energy-OPLS-2005>
125.043235778809

> <r_mmod_Torsional_Energy-OPLS-2005>
304.646026611328

> <r_mmod_Improper_Torsional_Energy-OPLS-2005>
16.7890434265137

> <r_mmod_Van_der_Waal_Energy-OPLS-2005>
133.863082885742

> <r_mmod_Electrostatic_Energy-OPLS-2005>
-308.801086425781

> <r_mmod_Solvation_Energy-OPLS-2005>
-261.057678222656

> <b_mmod_Minimization_Converged-OPLS-2005>
0

> <r_mmod_RMS_Derivative-OPLS-2005>
1.51692843437195

$$$$
57
                    3D
 Structure written by MMmdl.
154163  0  0  1  0            999 V2000
  -30.6827  -14.6066   20.5720 C   0  0  0  0  0  0
  -30.4274  -12.3823   19.4849 C   0  0  0  0  0  0
  -29.5183  -12.5144   18.2411 C   0  0  0  0  0  0
  -28.0372  -12.3486   18.6295 C   0  0  0  0  0  0
  -27.6515  -13.2194   19.8508 C   0  0  2  0  0  0
  -28.6762  -13.0754   20.9907 C   0  0  0  0  0  0
  -25.2552  -13.8177   20.5636 C   0  0  0  0  0  0
  -24.1825  -13.0439   20.9158 C   0  0  0  0  0  0
  -24.6394  -11.6912   20.8699 C   0  0  0  0  0  0
  -23.9065  -10.4295   21.0392 C   0  0  0  0  0  0
  -24.3619   -9.4215   21.9174 C   0  0  0  0  0  0
  -23.6293   -8.2250   22.0753 C   0  0  0  0  0  0
  -22.4274   -8.0283   21.3546 C   0  0  0  0  0  0
  -21.9906   -9.0253   20.4647 C   0  0  0  0  0  0
  -22.7234  -10.2132   20.3048 C   0  0  0  0  0  0
  -21.6855   -6.0735   22.5279 C   0  0  0  0  0  0
  -21.4016   -6.5639   23.8212 C   0  0  0  0  0  0
  -21.3660   -5.6792   24.9174 C   0  0  0  0  0  0
  -21.6045   -4.3055   24.7225 C   0  0  0  0  0  0
  -21.8819   -3.8146   23.4347 C   0  0  0  0  0  0
  -21.9194   -4.6962   22.3402 C   0  0  0  0  0  0
  -22.7852  -13.5232   21.1852 C   0  0  0  0  0  0
  -22.1661   -4.2148   21.0980 F   0  0  0  0  0  0
  -21.5628   -3.4539   25.7738 F   0  0  0  0  0  0
  -30.0164  -13.4045   20.4767 N   0  0  0  0  0  0
  -26.2960  -12.9361   20.3183 N   0  0  0  0  0  0
  -25.9309  -11.6513   20.5654 N   0  0  0  0  0  0
  -22.0507  -12.8219   22.0415 N   0  0  0  0  0  0
  -25.4281  -15.1899   20.4102 N   0  0  0  0  0  0
  -31.7713  -14.7715   20.0069 O   0  0  0  0  0  0
  -21.6642   -6.8877   21.4241 O   0  0  0  0  0  0
  -22.3529  -14.5541   20.6710 O   0  0  0  0  0  0
  -24.6258  -31.8611   23.2042 C   0  0  0  0  0  0
  -25.9111  -32.4787   23.8364 C   0  0  1  0  0  0
  -27.2218  -27.3283   20.1140 C   0  0  0  0  0  0
  -25.5931  -33.8587   24.2292 N   0  0  0  0  0  0
  -23.4182  -30.4868   21.5470 C   0  0  2  0  0  0
  -24.8633  -28.9453   20.1119 C   0  0  0  0  0  0
  -22.7468  -29.4637   22.4941 C   0  0  0  0  0  0
  -18.0286  -28.1384   22.8489 C   0  0  0  0  0  0
  -24.1489  -36.7296   23.2638 C   0  0  0  0  0  0
  -25.9591  -30.7964   21.3724 C   0  0  0  0  0  0
  -26.0335  -29.4252   20.7136 C   0  0  0  0  0  0
  -27.2168  -28.6296   20.7027 C   0  0  0  0  0  0
  -26.0252  -26.9009   19.4904 C   0  0  0  0  0  0
  -24.8610  -27.6885   19.4916 C   0  0  0  0  0  0
  -23.6317  -29.8245   20.1615 C   0  0  0  0  0  0
  -25.4112  -36.3089   24.0331 C   0  0  1  0  0  0
  -20.5886  -28.3689   23.1282 C   0  0  2  0  0  0
  -20.6774  -26.9415   22.5405 C   0  0  0  0  0  0
  -19.5750  -26.6386   21.5209 C   0  0  0  0  0  0
  -18.1931  -26.7926   22.1625 C   0  0  0  0  0  0
  -19.1538  -28.8853   23.2883 C   0  0  0  0  0  0
  -18.9462  -30.1455   23.8901 C   0  0  0  0  0  0
  -17.6462  -30.6587   24.0566 C   0  0  0  0  0  0
  -25.9049  -34.9456   23.5108 C   0  0  0  0  0  0
  -16.5353  -29.9088   23.6329 C   0  0  0  0  0  0
  -16.7273  -28.6504   23.0353 C   0  0  0  0  0  0
  -26.4497  -31.6590   25.0727 C   0  0  0  0  0  0
  -25.3734  -31.3718   26.1455 C   0  0  0  0  0  0
  -27.0332  -30.3016   24.6164 C   0  0  0  0  0  0
  -27.6060  -32.4316   25.7497 C   0  0  0  0  0  0
  -27.5578  -37.1804   24.8467 C   0  0  0  0  0  0
  -21.4182  -29.3047   22.3679 N   0  0  0  0  0  0
  -26.4292  -37.3781   23.9409 N   0  0  0  0  0  0
  -24.6867  -31.0637   22.0985 N   0  0  0  0  0  0
  -23.4196  -28.8169   23.3009 O   0  0  0  0  0  0
  -28.3401  -26.4811   20.1620 O   0  0  0  0  0  0
  -26.5613  -34.8920   22.4671 O   0  0  0  0  0  0
  -23.5424  -32.1399   23.7381 O   0  0  0  0  0  0
  -30.4887  -17.8287   19.5635 C   0  0  0  0  0  0
  -30.3377  -19.2332   19.3971 C   0  0  0  0  0  0
  -29.3143  -19.3904   21.5745 C   0  0  0  0  0  0
  -29.2130  -17.1066   22.8849 C   0  0  0  0  0  0
  -29.4840  -17.9802   21.7855 C   0  0  0  0  0  0
  -30.0849  -17.1819   20.7582 C   0  0  0  0  0  0
  -29.7487  -20.0545   20.3930 C   0  0  0  0  0  0
  -29.6836  -15.8602   22.5565 C   0  0  0  0  0  0
  -28.9277  -22.4962   20.6892 C   0  0  0  0  0  0
  -29.2814  -24.0101   20.3983 C   0  0  0  0  0  0
  -28.0883  -25.0213   20.1337 C   0  0  0  0  0  0
  -30.1306  -15.8308   21.2204 N   0  0  0  0  0  0
  -29.7267  -21.5040   20.1867 N   0  0  0  0  0  0
  -27.9384  -22.2384   21.3789 O   0  0  0  0  0  0
  -29.8193  -14.7568   23.3473 O   0  0  0  0  0  0
  -31.4756  -12.4764   19.1959 H   0  0  0  0  0  0
  -30.3359  -11.3852   19.9189 H   0  0  0  0  0  0
  -29.7925  -11.7688   17.4935 H   0  0  0  0  0  0
  -29.6707  -13.4880   17.7724 H   0  0  0  0  0  0
  -27.8708  -11.2953   18.8582 H   0  0  0  0  0  0
  -27.3934  -12.5807   17.7802 H   0  0  0  0  0  0
  -27.6752  -14.2568   19.5155 H   0  0  0  0  0  0
  -28.6709  -12.0611   21.3920 H   0  0  0  0  0  0
  -28.3493  -13.7147   21.8019 H   0  0  0  0  0  0
  -25.2767   -9.5691   22.4744 H   0  0  0  0  0  0
  -24.0005   -7.4643   22.7473 H   0  0  0  0  0  0
  -21.0836   -8.8768   19.8956 H   0  0  0  0  0  0
  -22.3689  -10.9666   19.6153 H   0  0  0  0  0  0
  -21.2009   -7.6148   23.9713 H   0  0  0  0  0  0
  -21.1482   -6.0524   25.9077 H   0  0  0  0  0  0
  -22.0598   -2.7608   23.2846 H   0  0  0  0  0  0
  -22.4127  -11.9874   22.4786 H   0  0  0  0  0  0
  -21.1128  -13.1242   22.2640 H   0  0  0  0  0  0
  -24.6678  -15.8493   20.5343 H   0  0  0  0  0  0
  -26.2879  -15.6301   20.1073 H   0  0  0  0  0  0
  -26.7175  -32.5461   23.1110 H   0  0  0  0  0  0
  -25.0087  -33.9737   25.0442 H   0  0  0  0  0  0
  -22.7116  -31.3074   21.4058 H   0  0  0  0  0  0
  -23.3752  -35.9628   23.3305 H   0  0  0  0  0  0
  -24.3578  -36.8909   22.2050 H   0  0  0  0  0  0
  -23.7241  -37.6500   23.6652 H   0  0  0  0  0  0
  -26.0873  -31.5610   20.6050 H   0  0  0  0  0  0
  -26.8410  -30.8452   21.9996 H   0  0  0  0  0  0
  -28.1152  -28.9945   21.1806 H   0  0  0  0  0  0
  -25.9538  -25.9434   18.9987 H   0  0  0  0  0  0
  -23.9645  -27.3155   19.0159 H   0  0  0  0  0  0
  -23.7508  -30.6022   19.4063 H   0  0  0  0  0  0
  -22.7519  -29.2544   19.8584 H   0  0  0  0  0  0
  -25.1291  -36.1941   25.0823 H   0  0  0  0  0  0
  -20.9984  -28.3264   24.1400 H   0  0  0  0  0  0
  -20.5674  -26.2303   23.3605 H   0  0  0  0  0  0
  -21.6642  -26.7442   22.1199 H   0  0  0  0  0  0
  -19.6916  -25.6299   21.1238 H   0  0  0  0  0  0
  -19.6686  -27.3198   20.6740 H   0  0  0  0  0  0
  -17.4198  -26.6675   21.4030 H   0  0  0  0  0  0
  -18.0337  -26.0064   22.9017 H   0  0  0  0  0  0
  -19.7939  -30.7270   24.2272 H   0  0  0  0  0  0
  -17.5018  -31.6267   24.5167 H   0  0  0  0  0  0
  -15.5357  -30.2995   23.7647 H   0  0  0  0  0  0
  -15.8672  -28.0825   22.7069 H   0  0  0  0  0  0
  -24.5920  -30.7054   25.7783 H   0  0  0  0  0  0
  -24.8913  -32.2879   26.4878 H   0  0  0  0  0  0
  -25.8065  -30.8901   27.0231 H   0  0  0  0  0  0
  -26.2898  -29.6777   24.1191 H   0  0  0  0  0  0
  -27.4040  -29.7261   25.4657 H   0  0  0  0  0  0
  -27.8764  -30.4308   23.9373 H   0  0  0  0  0  0
  -27.2678  -33.3619   26.2071 H   0  0  0  0  0  0
  -28.3873  -32.6869   25.0325 H   0  0  0  0  0  0
  -28.0725  -31.8441   26.5416 H   0  0  0  0  0  0
  -28.2600  -38.0097   24.7507 H   0  0  0  0  0  0
  -28.1069  -36.2628   24.6300 H   0  0  0  0  0  0
  -27.2295  -37.1460   25.8870 H   0  0  0  0  0  0
  -20.9357  -29.8779   21.6900 H   0  0  0  0  0  0
  -26.0176  -38.2857   24.1410 H   0  0  0  0  0  0
  -30.9473  -17.2479   18.7752 H   0  0  0  0  0  0
  -30.6955  -19.6827   18.4794 H   0  0  0  0  0  0
  -28.8811  -19.9706   22.3769 H   0  0  0  0  0  0
  -28.7953  -17.4161   23.8326 H   0  0  0  0  0  0
  -29.9811  -24.0604   19.5638 H   0  0  0  0  0  0
  -29.8350  -24.3623   21.2686 H   0  0  0  0  0  0
  -27.2951  -24.8081   20.8523 H   0  0  0  0  0  0
  -27.6959  -24.7580   19.1520 H   0  0  0  0  0  0
  -30.4298  -21.8464   19.5440 H   0  0  0  0  0  0
  -29.5191  -14.9830   24.2232 H   0  0  0  0  0  0
  1 25  1  0  0  0
  1 30  2  0  0  0
  1 82  1  0  0  0
  2  3  1  0  0  0
  2 25  1  0  0  0
  2 86  1  0  0  0
  2 87  1  0  0  0
  3  4  1  0  0  0
  3 88  1  0  0  0
  3 89  1  0  0  0
  4  5  1  0  0  0
  4 90  1  0  0  0
  4 91  1  0  0  0
  5  6  1  0  0  0
  5 26  1  0  0  0
  5 92  1  0  0  0
  6 25  1  0  0  0
  6 93  1  0  0  0
  6 94  1  0  0  0
  7  8  2  0  0  0
  7 26  1  0  0  0
  7 29  1  0  0  0
  8  9  1  0  0  0
  8 22  1  0  0  0
  9 10  1  0  0  0
  9 27  2  0  0  0
 10 11  2  0  0  0
 10 15  1  0  0  0
 11 12  1  0  0  0
 11 95  1  0  0  0
 12 13  2  0  0  0
 12 96  1  0  0  0
 13 14  1  0  0  0
 13 31  1  0  0  0
 14 15  2  0  0  0
 14 97  1  0  0  0
 15 98  1  0  0  0
 16 17  2  0  0  0
 16 21  1  0  0  0
 16 31  1  0  0  0
 17 18  1  0  0  0
 17 99  1  0  0  0
 18 19  2  0  0  0
 18100  1  0  0  0
 19 20  1  0  0  0
 19 24  1  0  0  0
 20 21  2  0  0  0
 20101  1  0  0  0
 21 23  1  0  0  0
 22 28  1  0  0  0
 22 32  2  0  0  0
 26 27  1  0  0  0
 28102  1  0  0  0
 28103  1  0  0  0
 29104  1  0  0  0
 29105  1  0  0  0
 33 34  1  0  0  0
 33 66  1  0  0  0
 33 70  2  0  0  0
 34 36  1  0  0  0
 34 59  1  0  0  0
 34106  1  0  0  0
 35 44  2  0  0  0
 35 45  1  0  0  0
 35 68  1  0  0  0
 36 56  1  0  0  0
 36107  1  0  0  0
 37 39  1  0  0  0
 37 47  1  0  0  0
 37 66  1  0  0  0
 37108  1  0  0  0
 38 43  2  0  0  0
 38 46  1  0  0  0
 38 47  1  0  0  0
 39 64  1  0  0  0
 39 67  2  0  0  0
 40 52  1  0  0  0
 40 53  2  0  0  0
 40 58  1  0  0  0
 41109  1  0  0  0
 41110  1  0  0  0
 41111  1  0  0  0
 41 48  1  0  0  0
 42 43  1  0  0  0
 42 66  1  0  0  0
 42112  1  0  0  0
 42113  1  0  0  0
 43 44  1  0  0  0
 44114  1  0  0  0
 45 46  2  0  0  0
 45115  1  0  0  0
 46116  1  0  0  0
 47117  1  0  0  0
 47118  1  0  0  0
 48 56  1  0  0  0
 48 65  1  0  0  0
 48119  1  0  0  0
 49 50  1  0  0  0
 49 53  1  0  0  0
 49 64  1  0  0  0
 49120  1  0  0  0
 50 51  1  0  0  0
 50121  1  0  0  0
 50122  1  0  0  0
 51 52  1  0  0  0
 51123  1  0  0  0
 51124  1  0  0  0
 52125  1  0  0  0
 52126  1  0  0  0
 53 54  1  0  0  0
 54 55  2  0  0  0
 54127  1  0  0  0
 55 57  1  0  0  0
 55128  1  0  0  0
 56 69  2  0  0  0
 57 58  2  0  0  0
 57129  1  0  0  0
 58130  1  0  0  0
 59 60  1  0  0  0
 59 61  1  0  0  0
 59 62  1  0  0  0
 60131  1  0  0  0
 60132  1  0  0  0
 60133  1  0  0  0
 61134  1  0  0  0
 61135  1  0  0  0
 61136  1  0  0  0
 62137  1  0  0  0
 62138  1  0  0  0
 62139  1  0  0  0
 63 65  1  0  0  0
 63140  1  0  0  0
 63141  1  0  0  0
 63142  1  0  0  0
 64143  1  0  0  0
 65144  1  0  0  0
 68 81  1  0  0  0
 71 72  2  0  0  0
 71 76  1  0  0  0
 71145  1  0  0  0
 72 77  1  0  0  0
 72146  1  0  0  0
 73 75  1  0  0  0
 73 77  2  0  0  0
 73147  1  0  0  0
 74 75  1  0  0  0
 74 78  2  0  0  0
 74148  1  0  0  0
 75 76  2  0  0  0
 76 82  1  0  0  0
 77 83  1  0  0  0
 78 82  1  0  0  0
 78 85  1  0  0  0
 79 80  1  0  0  0
 79 83  1  0  0  0
 79 84  2  0  0  0
 80 81  1  0  0  0
 80149  1  0  0  0
 80150  1  0  0  0
 81151  1  0  0  0
 81152  1  0  0  0
 83153  1  0  0  0
 85154  1  0  0  0
M  ISO  4   1 100  68 101  81 101  82 100
M  END
> <chiral flag>
0

> <version>
0

> <s_m_source_file>
/data/baiqing/PycharmProjects/Reinvent-master-3.2/result/LINK_invent/BTK/process_docking_weight1_custom_product_contain_oxygen_bond_distance_aromatic_linkinvent_7_9_3/rearranged_h_0089.sdf

> <i_m_source_file_index>
58

> <r_mmod_Potential_Energy-OPLS-2005>
106.330612182617

> <r_mmod_Stretch_Energy-OPLS-2005>
80.3421783447266

> <r_mmod_Bend_Energy-OPLS-2005>
139.496307373047

> <r_mmod_Torsional_Energy-OPLS-2005>
218.761367797852

> <r_mmod_Improper_Torsional_Energy-OPLS-2005>
3.95411705970764

> <r_mmod_Van_der_Waal_Energy-OPLS-2005>
143.141143798828

> <r_mmod_Electrostatic_Energy-OPLS-2005>
-287.541259765625

> <r_mmod_Solvation_Energy-OPLS-2005>
-233.303848266602

> <b_mmod_Minimization_Converged-OPLS-2005>
0

> <r_mmod_RMS_Derivative-OPLS-2005>
0.432579398155212

$$$$
58
                    3D
 Structure written by MMmdl.
154163  0  0  1  0            999 V2000
  -30.6134  -14.6571   20.4908 C   0  0  0  0  0  0
  -30.4440  -12.4030   19.4494 C   0  0  0  0  0  0
  -29.5090  -12.5077   18.2236 C   0  0  0  0  0  0
  -28.0321  -12.3407   18.6375 C   0  0  0  0  0  0
  -27.6533  -13.2135   19.8634 C   0  0  2  0  0  0
  -28.7015  -13.0753   20.9905 C   0  0  0  0  0  0
  -25.2572  -13.8180   20.5706 C   0  0  0  0  0  0
  -24.1830  -13.0437   20.9175 C   0  0  0  0  0  0
  -24.6394  -11.6908   20.8730 C   0  0  0  0  0  0
  -23.9061  -10.4290   21.0399 C   0  0  0  0  0  0
  -24.3613   -9.4208   21.9179 C   0  0  0  0  0  0
  -23.6287   -8.2245   22.0756 C   0  0  0  0  0  0
  -22.4269   -8.0282   21.3547 C   0  0  0  0  0  0
  -21.9901   -9.0255   20.4651 C   0  0  0  0  0  0
  -22.7232  -10.2131   20.3054 C   0  0  0  0  0  0
  -21.6853   -6.0731   22.5277 C   0  0  0  0  0  0
  -21.4015   -6.5636   23.8209 C   0  0  0  0  0  0
  -21.3659   -5.6791   24.9173 C   0  0  0  0  0  0
  -21.6044   -4.3053   24.7226 C   0  0  0  0  0  0
  -21.8820   -3.8143   23.4348 C   0  0  0  0  0  0
  -21.9193   -4.6958   22.3402 C   0  0  0  0  0  0
  -22.7850  -13.5231   21.1839 C   0  0  0  0  0  0
  -22.1660   -4.2142   21.0979 F   0  0  0  0  0  0
  -21.5629   -3.4537   25.7740 F   0  0  0  0  0  0
  -30.0144  -13.4250   20.4227 N   0  0  0  0  0  0
  -26.2995  -12.9347   20.3334 N   0  0  0  0  0  0
  -25.9322  -11.6501   20.5758 N   0  0  0  0  0  0
  -22.0493  -12.8234   22.0406 N   0  0  0  0  0  0
  -25.4236  -15.1922   20.4197 N   0  0  0  0  0  0
  -31.7838  -14.8230   20.1361 O   0  0  0  0  0  0
  -21.6639   -6.8875   21.4240 O   0  0  0  0  0  0
  -22.3528  -14.5533   20.6687 O   0  0  0  0  0  0
  -24.6295  -31.8602   23.2043 C   0  0  0  0  0  0
  -25.9133  -32.4783   23.8372 C   0  0  1  0  0  0
  -27.2166  -27.3010   20.1032 C   0  0  0  0  0  0
  -25.5938  -33.8583   24.2290 N   0  0  0  0  0  0
  -23.4237  -30.4878   21.5489 C   0  0  2  0  0  0
  -24.8675  -28.9503   20.1109 C   0  0  0  0  0  0
  -22.7492  -29.4631   22.4933 C   0  0  0  0  0  0
  -18.0294  -28.1390   22.8492 C   0  0  0  0  0  0
  -24.1489  -36.7295   23.2636 C   0  0  0  0  0  0
  -25.9698  -30.7840   21.3812 C   0  0  0  0  0  0
  -26.0423  -29.4127   20.7181 C   0  0  0  0  0  0
  -27.2197  -28.6004   20.7070 C   0  0  0  0  0  0
  -26.0117  -26.9099   19.4654 C   0  0  0  0  0  0
  -24.8553  -27.7038   19.4777 C   0  0  0  0  0  0
  -23.6390  -29.8332   20.1623 C   0  0  0  0  0  0
  -25.4111  -36.3084   24.0328 C   0  0  1  0  0  0
  -20.5897  -28.3698   23.1277 C   0  0  2  0  0  0
  -20.6782  -26.9418   22.5407 C   0  0  0  0  0  0
  -19.5752  -26.6386   21.5215 C   0  0  0  0  0  0
  -18.1936  -26.7936   22.1631 C   0  0  0  0  0  0
  -19.1547  -28.8861   23.2882 C   0  0  0  0  0  0
  -18.9466  -30.1463   23.8899 C   0  0  0  0  0  0
  -17.6464  -30.6590   24.0568 C   0  0  0  0  0  0
  -25.9054  -34.9453   23.5109 C   0  0  0  0  0  0
  -16.5357  -29.9088   23.6331 C   0  0  0  0  0  0
  -16.7280  -28.6506   23.0352 C   0  0  0  0  0  0
  -26.4495  -31.6591   25.0749 C   0  0  0  0  0  0
  -25.3714  -31.3743   26.1470 C   0  0  0  0  0  0
  -27.0332  -30.3009   24.6218 C   0  0  0  0  0  0
  -27.6059  -32.4320   25.7515 C   0  0  0  0  0  0
  -27.5580  -37.1801   24.8461 C   0  0  0  0  0  0
  -21.4201  -29.3053   22.3672 N   0  0  0  0  0  0
  -26.4285  -37.3781   23.9414 N   0  0  0  0  0  0
  -24.6937  -31.0597   22.1014 N   0  0  0  0  0  0
  -23.4207  -28.8156   23.3008 O   0  0  0  0  0  0
  -28.3097  -26.4057   20.1526 O   0  0  0  0  0  0
  -26.5620  -34.8918   22.4675 O   0  0  0  0  0  0
  -23.5450  -32.1415   23.7348 O   0  0  0  0  0  0
  -28.7686  -19.2521   19.8537 C   0  0  0  0  0  0
  -30.8129  -19.3858   21.0976 C   0  0  0  0  0  0
  -29.7581  -20.0986   20.4393 C   0  0  0  0  0  0
  -28.8193  -17.8260   19.9308 C   0  0  0  0  0  0
  -29.8762  -17.1416   20.5892 C   0  0  0  0  0  0
  -30.8784  -17.9583   21.1749 C   0  0  0  0  0  0
  -30.3040  -23.7922   20.2766 C   0  0  0  0  0  0
  -28.9751  -23.7912   20.1880 C   0  0  0  0  0  0
  -30.7781  -22.4210   20.3785 C   0  0  0  0  0  0
  -28.5751  -22.3745   20.2578 C   0  0  0  0  0  0
  -27.9723  -24.9693   19.9358 C   0  0  0  0  0  0
  -29.6982  -21.5931   20.3650 N   0  0  0  0  0  0
  -27.8006  -17.0738   19.3380 N   0  0  0  0  0  0
  -29.7673  -15.6948   20.7630 N   0  0  0  0  0  0
  -31.9630  -22.0733   20.4312 O   0  0  0  0  0  0
  -27.4132  -21.9528   20.2376 O   0  0  0  0  0  0
  -31.8896  -17.3841   21.8715 F   0  0  0  0  0  0
  -31.4837  -12.5379   19.1451 H   0  0  0  0  0  0
  -30.3884  -11.4092   19.8957 H   0  0  0  0  0  0
  -29.7753  -11.7546   17.4807 H   0  0  0  0  0  0
  -29.6457  -13.4756   17.7387 H   0  0  0  0  0  0
  -27.8730  -11.2877   18.8724 H   0  0  0  0  0  0
  -27.3761  -12.5665   17.7960 H   0  0  0  0  0  0
  -27.6643  -14.2450   19.5162 H   0  0  0  0  0  0
  -28.7182  -12.0545   21.3744 H   0  0  0  0  0  0
  -28.4469  -13.7086   21.8419 H   0  0  0  0  0  0
  -25.2757   -9.5683   22.4752 H   0  0  0  0  0  0
  -23.9996   -7.4636   22.7475 H   0  0  0  0  0  0
  -21.0831   -8.8776   19.8957 H   0  0  0  0  0  0
  -22.3691  -10.9671   19.6164 H   0  0  0  0  0  0
  -21.2010   -7.6143   23.9711 H   0  0  0  0  0  0
  -21.1479   -6.0520   25.9074 H   0  0  0  0  0  0
  -22.0599   -2.7605   23.2852 H   0  0  0  0  0  0
  -22.4109  -11.9901   22.4804 H   0  0  0  0  0  0
  -21.1114  -13.1271   22.2611 H   0  0  0  0  0  0
  -24.6483  -15.8333   20.5441 H   0  0  0  0  0  0
  -26.2753  -15.6724   20.1350 H   0  0  0  0  0  0
  -26.7201  -32.5442   23.1119 H   0  0  0  0  0  0
  -25.0070  -33.9727   25.0426 H   0  0  0  0  0  0
  -22.7189  -31.3100   21.4096 H   0  0  0  0  0  0
  -23.3750  -35.9627   23.3292 H   0  0  0  0  0  0
  -24.3587  -36.8923   22.2053 H   0  0  0  0  0  0
  -23.7238  -37.6493   23.6661 H   0  0  0  0  0  0
  -26.1055  -31.5487   20.6153 H   0  0  0  0  0  0
  -26.8488  -30.8290   22.0124 H   0  0  0  0  0  0
  -28.1172  -28.9488   21.1991 H   0  0  0  0  0  0
  -25.9073  -25.9672   18.9521 H   0  0  0  0  0  0
  -23.9568  -27.3444   18.9949 H   0  0  0  0  0  0
  -23.7634  -30.6148   19.4118 H   0  0  0  0  0  0
  -22.7570  -29.2689   19.8543 H   0  0  0  0  0  0
  -25.1283  -36.1939   25.0819 H   0  0  0  0  0  0
  -20.9990  -28.3274   24.1395 H   0  0  0  0  0  0
  -20.5686  -26.2306   23.3607 H   0  0  0  0  0  0
  -21.6652  -26.7447   22.1197 H   0  0  0  0  0  0
  -19.6909  -25.6296   21.1245 H   0  0  0  0  0  0
  -19.6682  -27.3197   20.6744 H   0  0  0  0  0  0
  -17.4199  -26.6685   21.4038 H   0  0  0  0  0  0
  -18.0334  -26.0078   22.9025 H   0  0  0  0  0  0
  -19.7940  -30.7286   24.2262 H   0  0  0  0  0  0
  -17.5015  -31.6270   24.5172 H   0  0  0  0  0  0
  -15.5355  -30.2986   23.7656 H   0  0  0  0  0  0
  -15.8683  -28.0825   22.7057 H   0  0  0  0  0  0
  -24.5892  -30.7085   25.7805 H   0  0  0  0  0  0
  -24.8895  -32.2910   26.4880 H   0  0  0  0  0  0
  -25.8026  -30.8935   27.0259 H   0  0  0  0  0  0
  -26.2916  -29.6771   24.1215 H   0  0  0  0  0  0
  -27.3989  -29.7261   25.4737 H   0  0  0  0  0  0
  -27.8805  -30.4291   23.9478 H   0  0  0  0  0  0
  -27.2680  -33.3623   26.2094 H   0  0  0  0  0  0
  -28.3866  -32.6873   25.0336 H   0  0  0  0  0  0
  -28.0727  -31.8439   26.5428 H   0  0  0  0  0  0
  -28.2585  -38.0110   24.7525 H   0  0  0  0  0  0
  -28.1084  -36.2641   24.6255 H   0  0  0  0  0  0
  -27.2306  -37.1422   25.8866 H   0  0  0  0  0  0
  -20.9373  -29.8793   21.6902 H   0  0  0  0  0  0
  -26.0164  -38.2853   24.1427 H   0  0  0  0  0  0
  -27.9402  -19.6983   19.3229 H   0  0  0  0  0  0
  -31.6029  -19.9281   21.5941 H   0  0  0  0  0  0
  -30.9365  -24.6640   20.2211 H   0  0  0  0  0  0
  -27.0946  -24.7331   20.5409 H   0  0  0  0  0  0
  -27.6879  -24.8458   18.8906 H   0  0  0  0  0  0
  -27.1652  -17.5979   18.7454 H   0  0  0  0  0  0
  -28.1260  -16.2475   18.8510 H   0  0  0  0  0  0
  -28.8144  -15.3957   20.8943 H   0  0  0  0  0  0
  1 25  1  0  0  0
  1 30  2  0  0  0
  1 84  1  0  0  0
  2  3  1  0  0  0
  2 25  1  0  0  0
  2 88  1  0  0  0
  2 89  1  0  0  0
  3  4  1  0  0  0
  3 90  1  0  0  0
  3 91  1  0  0  0
  4  5  1  0  0  0
  4 92  1  0  0  0
  4 93  1  0  0  0
  5  6  1  0  0  0
  5 26  1  0  0  0
  5 94  1  0  0  0
  6 25  1  0  0  0
  6 95  1  0  0  0
  6 96  1  0  0  0
  7  8  2  0  0  0
  7 26  1  0  0  0
  7 29  1  0  0  0
  8  9  1  0  0  0
  8 22  1  0  0  0
  9 10  1  0  0  0
  9 27  2  0  0  0
 10 11  2  0  0  0
 10 15  1  0  0  0
 11 12  1  0  0  0
 11 97  1  0  0  0
 12 13  2  0  0  0
 12 98  1  0  0  0
 13 14  1  0  0  0
 13 31  1  0  0  0
 14 15  2  0  0  0
 14 99  1  0  0  0
 15100  1  0  0  0
 16 17  2  0  0  0
 16 21  1  0  0  0
 16 31  1  0  0  0
 17 18  1  0  0  0
 17101  1  0  0  0
 18 19  2  0  0  0
 18102  1  0  0  0
 19 20  1  0  0  0
 19 24  1  0  0  0
 20 21  2  0  0  0
 20103  1  0  0  0
 21 23  1  0  0  0
 22 28  1  0  0  0
 22 32  2  0  0  0
 26 27  1  0  0  0
 28104  1  0  0  0
 28105  1  0  0  0
 29106  1  0  0  0
 29107  1  0  0  0
 33 34  1  0  0  0
 33 66  1  0  0  0
 33 70  2  0  0  0
 34 36  1  0  0  0
 34 59  1  0  0  0
 34108  1  0  0  0
 35 44  2  0  0  0
 35 45  1  0  0  0
 35 68  1  0  0  0
 36 56  1  0  0  0
 36109  1  0  0  0
 37 39  1  0  0  0
 37 47  1  0  0  0
 37 66  1  0  0  0
 37110  1  0  0  0
 38 43  2  0  0  0
 38 46  1  0  0  0
 38 47  1  0  0  0
 39 64  1  0  0  0
 39 67  2  0  0  0
 40 52  1  0  0  0
 40 53  2  0  0  0
 40 58  1  0  0  0
 41111  1  0  0  0
 41112  1  0  0  0
 41113  1  0  0  0
 41 48  1  0  0  0
 42 43  1  0  0  0
 42 66  1  0  0  0
 42114  1  0  0  0
 42115  1  0  0  0
 43 44  1  0  0  0
 44116  1  0  0  0
 45 46  2  0  0  0
 45117  1  0  0  0
 46118  1  0  0  0
 47119  1  0  0  0
 47120  1  0  0  0
 48 56  1  0  0  0
 48 65  1  0  0  0
 48121  1  0  0  0
 49 50  1  0  0  0
 49 53  1  0  0  0
 49 64  1  0  0  0
 49122  1  0  0  0
 50 51  1  0  0  0
 50123  1  0  0  0
 50124  1  0  0  0
 51 52  1  0  0  0
 51125  1  0  0  0
 51126  1  0  0  0
 52127  1  0  0  0
 52128  1  0  0  0
 53 54  1  0  0  0
 54 55  2  0  0  0
 54129  1  0  0  0
 55 57  1  0  0  0
 55130  1  0  0  0
 56 69  2  0  0  0
 57 58  2  0  0  0
 57131  1  0  0  0
 58132  1  0  0  0
 59 60  1  0  0  0
 59 61  1  0  0  0
 59 62  1  0  0  0
 60133  1  0  0  0
 60134  1  0  0  0
 60135  1  0  0  0
 61136  1  0  0  0
 61137  1  0  0  0
 61138  1  0  0  0
 62139  1  0  0  0
 62140  1  0  0  0
 62141  1  0  0  0
 63 65  1  0  0  0
 63142  1  0  0  0
 63143  1  0  0  0
 63144  1  0  0  0
 64145  1  0  0  0
 65146  1  0  0  0
 68 81  1  0  0  0
 71 73  2  0  0  0
 71 74  1  0  0  0
 71147  1  0  0  0
 72 73  1  0  0  0
 72 76  2  0  0  0
 72148  1  0  0  0
 73 82  1  0  0  0
 74 75  2  0  0  0
 74 83  1  0  0  0
 75 76  1  0  0  0
 75 84  1  0  0  0
 76 87  1  0  0  0
 77 78  2  0  0  0
 77 79  1  0  0  0
 77149  1  0  0  0
 78 80  1  0  0  0
 78 81  1  0  0  0
 79 82  1  0  0  0
 79 85  2  0  0  0
 80 82  1  0  0  0
 80 86  2  0  0  0
 81150  1  0  0  0
 81151  1  0  0  0
 83152  1  0  0  0
 83153  1  0  0  0
 84154  1  0  0  0
M  ISO  4   1 100  68 101  81 101  84 100
M  END
> <chiral flag>
0

> <version>
0

> <s_m_source_file>
/data/baiqing/PycharmProjects/Reinvent-master-3.2/result/LINK_invent/BTK/process_docking_weight1_custom_product_contain_oxygen_bond_distance_aromatic_linkinvent_7_9_3/rearranged_h_0089.sdf

> <i_m_source_file_index>
59

> <r_mmod_Potential_Energy-OPLS-2005>
20.0699424743652

> <r_mmod_Stretch_Energy-OPLS-2005>
88.8897933959961

> <r_mmod_Bend_Energy-OPLS-2005>
186.997985839844

> <r_mmod_Torsional_Energy-OPLS-2005>
256.117340087891

> <r_mmod_Improper_Torsional_Energy-OPLS-2005>
11.6548099517822

> <r_mmod_Van_der_Waal_Energy-OPLS-2005>
154.465744018555

> <r_mmod_Electrostatic_Energy-OPLS-2005>
-498.013946533203

> <r_mmod_Solvation_Energy-OPLS-2005>
-238.517074584961

> <b_mmod_Minimization_Converged-OPLS-2005>
0

> <r_mmod_RMS_Derivative-OPLS-2005>
0.785273790359497

$$$$
59
                    3D
 Structure written by MMmdl.
156164  0  0  1  0            999 V2000
  -30.7139  -14.5390   20.5223 C   0  0  0  0  0  0
  -30.4215  -12.3302   19.4484 C   0  0  0  0  0  0
  -29.5021  -12.4460   18.2154 C   0  0  0  0  0  0
  -28.0183  -12.3494   18.6263 C   0  0  0  0  0  0
  -27.6527  -13.2190   19.8618 C   0  0  2  0  0  0
  -28.6996  -13.0808   20.9878 C   0  0  0  0  0  0
  -25.2553  -13.8179   20.5697 C   0  0  0  0  0  0
  -24.1817  -13.0444   20.9180 C   0  0  0  0  0  0
  -24.6388  -11.6915   20.8744 C   0  0  0  0  0  0
  -23.9063  -10.4296   21.0414 C   0  0  0  0  0  0
  -24.3611   -9.4202   21.9194 C   0  0  0  0  0  0
  -23.6282   -8.2240   22.0760 C   0  0  0  0  0  0
  -22.4267   -8.0276   21.3545 C   0  0  0  0  0  0
  -21.9904   -9.0257   20.4657 C   0  0  0  0  0  0
  -22.7234  -10.2138   20.3068 C   0  0  0  0  0  0
  -21.6850   -6.0729   22.5278 C   0  0  0  0  0  0
  -21.4015   -6.5635   23.8212 C   0  0  0  0  0  0
  -21.3661   -5.6788   24.9173 C   0  0  0  0  0  0
  -21.6042   -4.3050   24.7224 C   0  0  0  0  0  0
  -21.8816   -3.8142   23.4348 C   0  0  0  0  0  0
  -21.9193   -4.6958   22.3402 C   0  0  0  0  0  0
  -22.7842  -13.5244   21.1846 C   0  0  0  0  0  0
  -22.1666   -4.2148   21.0981 F   0  0  0  0  0  0
  -21.5628   -3.4532   25.7738 F   0  0  0  0  0  0
  -30.0190  -13.3703   20.4093 N   0  0  0  0  0  0
  -26.2994  -12.9367   20.3357 N   0  0  0  0  0  0
  -25.9319  -11.6520   20.5781 N   0  0  0  0  0  0
  -22.0475  -12.8261   22.0414 N   0  0  0  0  0  0
  -25.4287  -15.1900   20.4128 N   0  0  0  0  0  0
  -31.8837  -14.6465   20.1509 O   0  0  0  0  0  0
  -21.6632   -6.8870   21.4240 O   0  0  0  0  0  0
  -22.3530  -14.5553   20.6692 O   0  0  0  0  0  0
  -24.6204  -31.8672   23.2112 C   0  0  0  0  0  0
  -25.9097  -32.4811   23.8398 C   0  0  1  0  0  0
  -27.2264  -27.3943   20.1014 C   0  0  0  0  0  0
  -25.5961  -33.8609   24.2344 N   0  0  0  0  0  0
  -23.4085  -30.4963   21.5532 C   0  0  2  0  0  0
  -24.8535  -28.9679   20.1137 C   0  0  0  0  0  0
  -22.7447  -29.4668   22.4985 C   0  0  0  0  0  0
  -18.0285  -28.1359   22.8464 C   0  0  0  0  0  0
  -24.1499  -36.7308   23.2626 C   0  0  0  0  0  0
  -25.9450  -30.8220   21.3721 C   0  0  0  0  0  0
  -26.0202  -29.4568   20.7137 C   0  0  0  0  0  0
  -27.2093  -28.6801   20.7031 C   0  0  0  0  0  0
  -26.0351  -26.9514   19.4691 C   0  0  0  0  0  0
  -24.8581  -27.7161   19.4869 C   0  0  0  0  0  0
  -23.6190  -29.8383   20.1659 C   0  0  0  0  0  0
  -25.4114  -36.3101   24.0337 C   0  0  1  0  0  0
  -20.5885  -28.3658   23.1293 C   0  0  2  0  0  0
  -20.6792  -26.9428   22.5318 C   0  0  0  0  0  0
  -19.5778  -26.6499   21.5088 C   0  0  0  0  0  0
  -18.1953  -26.7939   22.1525 C   0  0  0  0  0  0
  -19.1530  -28.8808   23.2894 C   0  0  0  0  0  0
  -18.9450  -30.1398   23.8935 C   0  0  0  0  0  0
  -17.6461  -30.6542   24.0594 C   0  0  0  0  0  0
  -25.9047  -34.9464   23.5129 C   0  0  0  0  0  0
  -16.5349  -29.9060   23.6339 C   0  0  0  0  0  0
  -16.7271  -28.6485   23.0334 C   0  0  0  0  0  0
  -26.4512  -31.6579   25.0724 C   0  0  0  0  0  0
  -25.3772  -31.3702   26.1466 C   0  0  0  0  0  0
  -27.0341  -30.3015   24.6112 C   0  0  0  0  0  0
  -27.6098  -32.4277   25.7493 C   0  0  0  0  0  0
  -27.5586  -37.1815   24.8463 C   0  0  0  0  0  0
  -21.4164  -29.3082   22.3756 N   0  0  0  0  0  0
  -26.4301  -37.3783   23.9405 N   0  0  0  0  0  0
  -24.6764  -31.0763   22.1031 N   0  0  0  0  0  0
  -23.4216  -28.8157   23.2987 O   0  0  0  0  0  0
  -28.3630  -26.5851   20.1638 O   0  0  0  0  0  0
  -26.5563  -34.8911   22.4667 O   0  0  0  0  0  0
  -23.5387  -32.1445   23.7489 O   0  0  0  0  0  0
  -29.1869  -18.6877   17.9330 C   0  0  0  0  0  0
  -29.3375  -16.3573   18.5825 C   0  0  0  0  0  0
  -29.8002  -18.1058   20.2306 C   0  0  0  0  0  0
  -29.0715  -17.3283   17.6055 C   0  0  0  0  0  0
  -29.5367  -19.1021   19.2359 C   0  0  0  0  0  0
  -29.7246  -16.7114   19.8968 C   0  0  0  0  0  0
  -29.2765  -21.3635   20.3752 C   0  0  0  0  0  0
  -28.6129  -22.6891   19.9167 C   0  0  0  0  0  0
  -29.1635  -24.0866   20.3589 C   0  0  0  0  0  0
  -28.1302  -25.1715   19.9274 C   0  0  0  0  0  0
  -28.7010  -16.9462   16.3160 N   0  0  0  0  0  0
  -29.6055  -20.5313   19.3696 N   0  0  0  0  0  0
  -30.0171  -15.6591   20.8434 N   0  0  0  0  0  0
  -29.4551  -21.1131   21.5688 O   0  0  0  0  0  0
  -31.4675  -12.4184   19.1480 H   0  0  0  0  0  0
  -30.3252  -11.3445   19.9076 H   0  0  0  0  0  0
  -29.7364  -11.6517   17.5057 H   0  0  0  0  0  0
  -29.7000  -13.3733   17.6807 H   0  0  0  0  0  0
  -27.8171  -11.3002   18.8468 H   0  0  0  0  0  0
  -27.3770  -12.6096   17.7841 H   0  0  0  0  0  0
  -27.6637  -14.2568   19.5320 H   0  0  0  0  0  0
  -28.6848  -12.0738   21.4072 H   0  0  0  0  0  0
  -28.4655  -13.7556   21.8127 H   0  0  0  0  0  0
  -25.2753   -9.5675   22.4772 H   0  0  0  0  0  0
  -23.9986   -7.4630   22.7486 H   0  0  0  0  0  0
  -21.0834   -8.8786   19.8961 H   0  0  0  0  0  0
  -22.3699  -10.9680   19.6183 H   0  0  0  0  0  0
  -21.2010   -7.6145   23.9713 H   0  0  0  0  0  0
  -21.1488   -6.0520   25.9077 H   0  0  0  0  0  0
  -22.0594   -2.7602   23.2851 H   0  0  0  0  0  0
  -22.4068  -11.9950   22.4861 H   0  0  0  0  0  0
  -21.1092  -13.1320   22.2592 H   0  0  0  0  0  0
  -24.6705  -15.8529   20.5324 H   0  0  0  0  0  0
  -26.3024  -15.6276   20.1453 H   0  0  0  0  0  0
  -26.7170  -32.5504   23.1153 H   0  0  0  0  0  0
  -25.0221  -33.9771   25.0565 H   0  0  0  0  0  0
  -22.6970  -31.3142   21.4191 H   0  0  0  0  0  0
  -23.3758  -35.9647   23.3291 H   0  0  0  0  0  0
  -24.3595  -36.8898   22.2036 H   0  0  0  0  0  0
  -23.7250  -37.6517   23.6629 H   0  0  0  0  0  0
  -26.0667  -31.5895   20.6064 H   0  0  0  0  0  0
  -26.8297  -30.8665   21.9962 H   0  0  0  0  0  0
  -28.1043  -29.0535   21.1806 H   0  0  0  0  0  0
  -25.9712  -26.0011   18.9615 H   0  0  0  0  0  0
  -23.9650  -27.3352   19.0117 H   0  0  0  0  0  0
  -23.7363  -30.6187   19.4131 H   0  0  0  0  0  0
  -22.7422  -29.2635   19.8620 H   0  0  0  0  0  0
  -25.1287  -36.1982   25.0832 H   0  0  0  0  0  0
  -20.9948  -28.3150   24.1415 H   0  0  0  0  0  0
  -20.5704  -26.2232   23.3443 H   0  0  0  0  0  0
  -21.6661  -26.7501   22.1074 H   0  0  0  0  0  0
  -19.6982  -25.6487   21.0926 H   0  0  0  0  0  0
  -19.6694  -27.3467   20.6742 H   0  0  0  0  0  0
  -17.4226  -26.6710   21.3929 H   0  0  0  0  0  0
  -18.0386  -26.0009   22.8845 H   0  0  0  0  0  0
  -19.7936  -30.7178   24.2332 H   0  0  0  0  0  0
  -17.5007  -31.6209   24.5221 H   0  0  0  0  0  0
  -15.5347  -30.2958   23.7649 H   0  0  0  0  0  0
  -15.8670  -28.0830   22.7018 H   0  0  0  0  0  0
  -24.5985  -30.7004   25.7807 H   0  0  0  0  0  0
  -24.8939  -32.2866   26.4869 H   0  0  0  0  0  0
  -25.8129  -30.8918   27.0250 H   0  0  0  0  0  0
  -26.2904  -29.6769   24.1155 H   0  0  0  0  0  0
  -27.4090  -29.7250   25.4578 H   0  0  0  0  0  0
  -27.8749  -30.4316   23.9293 H   0  0  0  0  0  0
  -27.2750  -33.3584   26.2090 H   0  0  0  0  0  0
  -28.3913  -32.6800   25.0315 H   0  0  0  0  0  0
  -28.0766  -31.8378   26.5392 H   0  0  0  0  0  0
  -28.2602  -38.0112   24.7500 H   0  0  0  0  0  0
  -28.1075  -36.2638   24.6309 H   0  0  0  0  0  0
  -27.2294  -37.1481   25.8861 H   0  0  0  0  0  0
  -20.9303  -29.8924   21.7095 H   0  0  0  0  0  0
  -26.0189  -38.2864   24.1401 H   0  0  0  0  0  0
  -28.9908  -19.4289   17.1701 H   0  0  0  0  0  0
  -29.2512  -15.3219   18.3068 H   0  0  0  0  0  0
  -30.0884  -18.4089   21.2279 H   0  0  0  0  0  0
  -27.5799  -22.6089   20.2583 H   0  0  0  0  0  0
  -28.5437  -22.6868   18.8282 H   0  0  0  0  0  0
  -30.1328  -24.2784   19.8940 H   0  0  0  0  0  0
  -29.3144  -24.1125   21.4380 H   0  0  0  0  0  0
  -27.2094  -24.8925   20.4418 H   0  0  0  0  0  0
  -27.9529  -25.0493   18.8579 H   0  0  0  0  0  0
  -28.2810  -17.6346   15.6983 H   0  0  0  0  0  0
  -28.3608  -16.0045   16.1480 H   0  0  0  0  0  0
  -29.5597  -21.0082   18.4796 H   0  0  0  0  0  0
  -30.2047  -15.9814   21.7822 H   0  0  0  0  0  0
  1 25  1  0  0  0
  1 30  2  0  0  0
  1 83  1  0  0  0
  2  3  1  0  0  0
  2 25  1  0  0  0
  2 85  1  0  0  0
  2 86  1  0  0  0
  3  4  1  0  0  0
  3 87  1  0  0  0
  3 88  1  0  0  0
  4  5  1  0  0  0
  4 89  1  0  0  0
  4 90  1  0  0  0
  5  6  1  0  0  0
  5 26  1  0  0  0
  5 91  1  0  0  0
  6 25  1  0  0  0
  6 92  1  0  0  0
  6 93  1  0  0  0
  7  8  2  0  0  0
  7 26  1  0  0  0
  7 29  1  0  0  0
  8  9  1  0  0  0
  8 22  1  0  0  0
  9 10  1  0  0  0
  9 27  2  0  0  0
 10 11  2  0  0  0
 10 15  1  0  0  0
 11 12  1  0  0  0
 11 94  1  0  0  0
 12 13  2  0  0  0
 12 95  1  0  0  0
 13 14  1  0  0  0
 13 31  1  0  0  0
 14 15  2  0  0  0
 14 96  1  0  0  0
 15 97  1  0  0  0
 16 17  2  0  0  0
 16 21  1  0  0  0
 16 31  1  0  0  0
 17 18  1  0  0  0
 17 98  1  0  0  0
 18 19  2  0  0  0
 18 99  1  0  0  0
 19 20  1  0  0  0
 19 24  1  0  0  0
 20 21  2  0  0  0
 20100  1  0  0  0
 21 23  1  0  0  0
 22 28  1  0  0  0
 22 32  2  0  0  0
 26 27  1  0  0  0
 28101  1  0  0  0
 28102  1  0  0  0
 29103  1  0  0  0
 29104  1  0  0  0
 33 34  1  0  0  0
 33 66  1  0  0  0
 33 70  2  0  0  0
 34 36  1  0  0  0
 34 59  1  0  0  0
 34105  1  0  0  0
 35 44  2  0  0  0
 35 45  1  0  0  0
 35 68  1  0  0  0
 36 56  1  0  0  0
 36106  1  0  0  0
 37 39  1  0  0  0
 37 47  1  0  0  0
 37 66  1  0  0  0
 37107  1  0  0  0
 38 43  2  0  0  0
 38 46  1  0  0  0
 38 47  1  0  0  0
 39 64  1  0  0  0
 39 67  2  0  0  0
 40 52  1  0  0  0
 40 53  2  0  0  0
 40 58  1  0  0  0
 41108  1  0  0  0
 41109  1  0  0  0
 41110  1  0  0  0
 41 48  1  0  0  0
 42 43  1  0  0  0
 42 66  1  0  0  0
 42111  1  0  0  0
 42112  1  0  0  0
 43 44  1  0  0  0
 44113  1  0  0  0
 45 46  2  0  0  0
 45114  1  0  0  0
 46115  1  0  0  0
 47116  1  0  0  0
 47117  1  0  0  0
 48 56  1  0  0  0
 48 65  1  0  0  0
 48118  1  0  0  0
 49 50  1  0  0  0
 49 53  1  0  0  0
 49 64  1  0  0  0
 49119  1  0  0  0
 50 51  1  0  0  0
 50120  1  0  0  0
 50121  1  0  0  0
 51 52  1  0  0  0
 51122  1  0  0  0
 51123  1  0  0  0
 52124  1  0  0  0
 52125  1  0  0  0
 53 54  1  0  0  0
 54 55  2  0  0  0
 54126  1  0  0  0
 55 57  1  0  0  0
 55127  1  0  0  0
 56 69  2  0  0  0
 57 58  2  0  0  0
 57128  1  0  0  0
 58129  1  0  0  0
 59 60  1  0  0  0
 59 61  1  0  0  0
 59 62  1  0  0  0
 60130  1  0  0  0
 60131  1  0  0  0
 60132  1  0  0  0
 61133  1  0  0  0
 61134  1  0  0  0
 61135  1  0  0  0
 62136  1  0  0  0
 62137  1  0  0  0
 62138  1  0  0  0
 63 65  1  0  0  0
 63139  1  0  0  0
 63140  1  0  0  0
 63141  1  0  0  0
 64142  1  0  0  0
 65143  1  0  0  0
 68 80  1  0  0  0
 71 74  2  0  0  0
 71 75  1  0  0  0
 71144  1  0  0  0
 72 74  1  0  0  0
 72 76  2  0  0  0
 72145  1  0  0  0
 73 75  2  0  0  0
 73 76  1  0  0  0
 73146  1  0  0  0
 74 81  1  0  0  0
 75 82  1  0  0  0
 76 83  1  0  0  0
 77 78  1  0  0  0
 77 82  1  0  0  0
 77 84  2  0  0  0
 78 79  1  0  0  0
 78147  1  0  0  0
 78148  1  0  0  0
 79 80  1  0  0  0
 79149  1  0  0  0
 79150  1  0  0  0
 80151  1  0  0  0
 80152  1  0  0  0
 81153  1  0  0  0
 81154  1  0  0  0
 82155  1  0  0  0
 83156  1  0  0  0
M  ISO  4   1 100  68 101  80 101  83 100
M  END
> <chiral flag>
0

> <version>
0

> <s_m_source_file>
/data/baiqing/PycharmProjects/Reinvent-master-3.2/result/LINK_invent/BTK/process_docking_weight1_custom_product_contain_oxygen_bond_distance_aromatic_linkinvent_7_9_3/rearranged_h_0089.sdf

> <i_m_source_file_index>
60

> <r_mmod_Potential_Energy-OPLS-2005>
72.2983016967773

> <r_mmod_Stretch_Energy-OPLS-2005>
49.893856048584

> <r_mmod_Bend_Energy-OPLS-2005>
144.066833496094

> <r_mmod_Torsional_Energy-OPLS-2005>
299.358215332031

> <r_mmod_Improper_Torsional_Energy-OPLS-2005>
11.6412668228149

> <r_mmod_Van_der_Waal_Energy-OPLS-2005>
152.751312255859

> <r_mmod_Electrostatic_Energy-OPLS-2005>
-368.512664794922

> <r_mmod_Solvation_Energy-OPLS-2005>
-245.355255126953

> <b_mmod_Minimization_Converged-OPLS-2005>
0

> <r_mmod_RMS_Derivative-OPLS-2005>
2.11890125274658

$$$$
60
                    3D
 Structure written by MMmdl.
153161  0  0  1  0            999 V2000
  -30.7203  -14.4458   20.5844 C   0  0  0  0  0  0
  -30.4153  -12.2919   19.4211 C   0  0  0  0  0  0
  -29.4911  -12.5043   18.2044 C   0  0  0  0  0  0
  -28.0113  -12.3747   18.6148 C   0  0  0  0  0  0
  -27.6633  -13.2086   19.8773 C   0  0  2  0  0  0
  -28.7039  -12.9783   20.9978 C   0  0  0  0  0  0
  -25.2588  -13.8166   20.5664 C   0  0  0  0  0  0
  -24.1849  -13.0445   20.9197 C   0  0  0  0  0  0
  -24.6403  -11.6911   20.8757 C   0  0  0  0  0  0
  -23.9062  -10.4302   21.0421 C   0  0  0  0  0  0
  -24.3614   -9.4216   21.9191 C   0  0  0  0  0  0
  -23.6298   -8.2247   22.0750 C   0  0  0  0  0  0
  -22.4284   -8.0278   21.3532 C   0  0  0  0  0  0
  -21.9913   -9.0257   20.4642 C   0  0  0  0  0  0
  -22.7239  -10.2141   20.3062 C   0  0  0  0  0  0
  -21.6849   -6.0744   22.5283 C   0  0  0  0  0  0
  -21.4016   -6.5647   23.8220 C   0  0  0  0  0  0
  -21.3657   -5.6793   24.9181 C   0  0  0  0  0  0
  -21.6044   -4.3055   24.7228 C   0  0  0  0  0  0
  -21.8816   -3.8154   23.4348 C   0  0  0  0  0  0
  -21.9197   -4.6974   22.3410 C   0  0  0  0  0  0
  -22.7870  -13.5246   21.1867 C   0  0  0  0  0  0
  -22.1660   -4.2162   21.0983 F   0  0  0  0  0  0
  -21.5630   -3.4535   25.7740 F   0  0  0  0  0  0
  -30.0393  -13.2744   20.4509 N   0  0  0  0  0  0
  -26.3032  -12.9346   20.3369 N   0  0  0  0  0  0
  -25.9326  -11.6504   20.5769 N   0  0  0  0  0  0
  -22.0501  -12.8225   22.0411 N   0  0  0  0  0  0
  -25.4280  -15.1872   20.3986 N   0  0  0  0  0  0
  -31.8259  -14.6209   20.0660 O   0  0  0  0  0  0
  -21.6633   -6.8884   21.4240 O   0  0  0  0  0  0
  -22.3552  -14.5551   20.6718 O   0  0  0  0  0  0
  -24.6132  -31.8665   23.2097 C   0  0  0  0  0  0
  -25.9028  -32.4817   23.8390 C   0  0  1  0  0  0
  -27.2390  -27.4332   20.0900 C   0  0  0  0  0  0
  -25.5879  -33.8614   24.2332 N   0  0  0  0  0  0
  -23.4001  -30.4907   21.5496 C   0  0  2  0  0  0
  -24.8441  -28.9538   20.1155 C   0  0  0  0  0  0
  -22.7396  -29.4654   22.4992 C   0  0  0  0  0  0
  -18.0271  -28.1374   22.8493 C   0  0  0  0  0  0
  -24.1484  -36.7308   23.2639 C   0  0  0  0  0  0
  -25.9287  -30.8315   21.3608 C   0  0  0  0  0  0
  -26.0034  -29.4648   20.7109 C   0  0  0  0  0  0
  -27.1960  -28.7098   20.6994 C   0  0  0  0  0  0
  -26.0539  -26.9263   19.5057 C   0  0  0  0  0  0
  -24.8642  -27.6823   19.5153 C   0  0  0  0  0  0
  -23.6068  -29.8222   20.1635 C   0  0  0  0  0  0
  -25.4103  -36.3113   24.0344 C   0  0  1  0  0  0
  -20.5860  -28.3650   23.1329 C   0  0  2  0  0  0
  -20.6770  -26.9386   22.5426 C   0  0  0  0  0  0
  -19.5755  -26.6386   21.5217 C   0  0  0  0  0  0
  -18.1929  -26.7925   22.1617 C   0  0  0  0  0  0
  -19.1523  -28.8831   23.2914 C   0  0  0  0  0  0
  -18.9451  -30.1438   23.8913 C   0  0  0  0  0  0
  -17.6457  -30.6586   24.0563 C   0  0  0  0  0  0
  -25.9028  -34.9475   23.5144 C   0  0  0  0  0  0
  -16.5348  -29.9088   23.6318 C   0  0  0  0  0  0
  -16.7259  -28.6499   23.0347 C   0  0  0  0  0  0
  -26.4456  -31.6593   25.0715 C   0  0  0  0  0  0
  -25.3735  -31.3701   26.1477 C   0  0  0  0  0  0
  -27.0272  -30.3041   24.6066 C   0  0  0  0  0  0
  -27.6045  -32.4298   25.7464 C   0  0  0  0  0  0
  -27.5585  -37.1810   24.8471 C   0  0  0  0  0  0
  -21.4127  -29.3027   22.3748 N   0  0  0  0  0  0
  -26.4292  -37.3799   23.9418 N   0  0  0  0  0  0
  -24.6660  -31.0784   22.0984 N   0  0  0  0  0  0
  -23.4179  -28.8199   23.3026 O   0  0  0  0  0  0
  -28.4422  -26.7558   20.1124 O   0  0  0  0  0  0
  -26.5603  -34.8929   22.4709 O   0  0  0  0  0  0
  -23.5331  -32.1415   23.7504 O   0  0  0  0  0  0
  -31.6042  -18.8581   20.7714 C   0  0  0  0  0  0
  -31.4969  -17.4537   20.8481 C   0  0  0  0  0  0
  -29.2550  -19.0809   21.3282 C   0  0  0  0  0  0
  -30.4858  -19.6939   20.9960 C   0  0  0  0  0  0
  -30.2576  -16.8399   21.1524 C   0  0  0  0  0  0
  -29.1417  -17.6733   21.4074 C   0  0  0  0  0  0
  -30.6520  -21.1985   20.9367 C   0  0  0  0  0  0
  -28.7368  -24.3095   20.3556 C   0  0  0  0  0  0
  -29.6505  -23.1078   19.9098 C   0  0  0  0  0  0
  -28.6300  -25.5194   19.3974 C   0  0  0  0  0  0
  -29.5650  -21.8808   20.4956 N   0  5  0  0  0  0
  -27.9090  -17.1113   21.7415 N   0  0  0  0  0  0
  -30.0707  -15.4230   21.2447 N   0  0  0  0  0  0
  -31.7472  -21.6691   21.2643 O   0  0  0  0  0  0
  -28.1276  -24.3023   21.4343 O   0  0  0  0  0  0
  -30.4288  -23.3377   18.9725 O   0  0  0  0  0  0
  -31.4614  -12.3731   19.1211 H   0  0  0  0  0  0
  -30.2996  -11.2796   19.8124 H   0  0  0  0  0  0
  -29.7244  -11.7795   17.4234 H   0  0  0  0  0  0
  -29.6707  -13.4882   17.7694 H   0  0  0  0  0  0
  -27.8104  -11.3188   18.8000 H   0  0  0  0  0  0
  -27.3650  -12.6637   17.7854 H   0  0  0  0  0  0
  -27.7116  -14.2592   19.5888 H   0  0  0  0  0  0
  -28.6731  -11.9404   21.3340 H   0  0  0  0  0  0
  -28.4652  -13.5723   21.8811 H   0  0  0  0  0  0
  -25.2760   -9.5691   22.4759 H   0  0  0  0  0  0
  -24.0016   -7.4632   22.7454 H   0  0  0  0  0  0
  -21.0853   -8.8771   19.8937 H   0  0  0  0  0  0
  -22.3701  -10.9678   19.6167 H   0  0  0  0  0  0
  -21.1993   -7.6151   23.9730 H   0  0  0  0  0  0
  -21.1483   -6.0519   25.9083 H   0  0  0  0  0  0
  -22.0598   -2.7616   23.2844 H   0  0  0  0  0  0
  -22.4119  -11.9887   22.4802 H   0  0  0  0  0  0
  -21.1113  -13.1239   22.2618 H   0  0  0  0  0  0
  -24.6509  -15.8321   20.4909 H   0  0  0  0  0  0
  -26.2476  -15.6151   19.9870 H   0  0  0  0  0  0
  -26.7075  -32.5520   23.1131 H   0  0  0  0  0  0
  -25.0054  -33.9769   25.0496 H   0  0  0  0  0  0
  -22.6901  -31.3086   21.4112 H   0  0  0  0  0  0
  -23.3751  -35.9632   23.3313 H   0  0  0  0  0  0
  -24.3588  -36.8910   22.2053 H   0  0  0  0  0  0
  -23.7240  -37.6521   23.6631 H   0  0  0  0  0  0
  -26.0448  -31.5951   20.5899 H   0  0  0  0  0  0
  -26.8167  -30.8839   21.9788 H   0  0  0  0  0  0
  -28.0920  -29.1042   21.1589 H   0  0  0  0  0  0
  -26.0112  -25.9483   19.0523 H   0  0  0  0  0  0
  -23.9674  -27.2761   19.0666 H   0  0  0  0  0  0
  -23.7176  -30.5989   19.4057 H   0  0  0  0  0  0
  -22.7297  -29.2436   19.8669 H   0  0  0  0  0  0
  -25.1290  -36.1977   25.0838 H   0  0  0  0  0  0
  -20.9937  -28.3178   24.1452 H   0  0  0  0  0  0
  -20.5688  -26.2230   23.3592 H   0  0  0  0  0  0
  -21.6642  -26.7452   22.1212 H   0  0  0  0  0  0
  -19.6917  -25.6305   21.1220 H   0  0  0  0  0  0
  -19.6704  -27.3224   20.6769 H   0  0  0  0  0  0
  -17.4209  -26.6667   21.4006 H   0  0  0  0  0  0
  -18.0314  -26.0075   22.9018 H   0  0  0  0  0  0
  -19.7932  -30.7246   24.2287 H   0  0  0  0  0  0
  -17.5022  -31.6267   24.5161 H   0  0  0  0  0  0
  -15.5351  -30.3003   23.7652 H   0  0  0  0  0  0
  -15.8650  -28.0834   22.7054 H   0  0  0  0  0  0
  -24.5886  -30.7070   25.7823 H   0  0  0  0  0  0
  -24.8950  -32.2864   26.4949 H   0  0  0  0  0  0
  -25.8099  -30.8852   27.0224 H   0  0  0  0  0  0
  -26.2802  -29.6815   24.1129 H   0  0  0  0  0  0
  -27.4092  -29.7256   25.4491 H   0  0  0  0  0  0
  -27.8610  -30.4396   23.9173 H   0  0  0  0  0  0
  -27.2693  -33.3613   26.2044 H   0  0  0  0  0  0
  -28.3842  -32.6837   25.0264 H   0  0  0  0  0  0
  -28.0709  -31.8414   26.5378 H   0  0  0  0  0  0
  -28.2619  -38.0098   24.7531 H   0  0  0  0  0  0
  -28.1076  -36.2638   24.6281 H   0  0  0  0  0  0
  -27.2310  -37.1454   25.8879 H   0  0  0  0  0  0
  -20.9269  -29.8732   21.6970 H   0  0  0  0  0  0
  -26.0181  -38.2878   24.1419 H   0  0  0  0  0  0
  -32.5634  -19.2991   20.5390 H   0  0  0  0  0  0
  -32.3882  -16.8698   20.6759 H   0  0  0  0  0  0
  -28.3943  -19.7033   21.5309 H   0  0  0  0  0  0
  -27.8774  -25.3270   18.6367 H   0  0  0  0  0  0
  -29.5686  -25.6243   18.8551 H   0  0  0  0  0  0
  -27.0864  -17.7033   21.7128 H   0  0  0  0  0  0
  -27.7048  -16.1493   21.5121 H   0  0  0  0  0  0
  -29.1979  -15.1465   21.6626 H   0  0  0  0  0  0
  1 25  1  0  0  0
  1 30  2  0  0  0
  1 83  1  0  0  0
  2  3  1  0  0  0
  2 25  1  0  0  0
  2 87  1  0  0  0
  2 88  1  0  0  0
  3  4  1  0  0  0
  3 89  1  0  0  0
  3 90  1  0  0  0
  4  5  1  0  0  0
  4 91  1  0  0  0
  4 92  1  0  0  0
  5  6  1  0  0  0
  5 26  1  0  0  0
  5 93  1  0  0  0
  6 25  1  0  0  0
  6 94  1  0  0  0
  6 95  1  0  0  0
  7  8  2  0  0  0
  7 26  1  0  0  0
  7 29  1  0  0  0
  8  9  1  0  0  0
  8 22  1  0  0  0
  9 10  1  0  0  0
  9 27  2  0  0  0
 10 11  2  0  0  0
 10 15  1  0  0  0
 11 12  1  0  0  0
 11 96  1  0  0  0
 12 13  2  0  0  0
 12 97  1  0  0  0
 13 14  1  0  0  0
 13 31  1  0  0  0
 14 15  2  0  0  0
 14 98  1  0  0  0
 15 99  1  0  0  0
 16 17  2  0  0  0
 16 21  1  0  0  0
 16 31  1  0  0  0
 17 18  1  0  0  0
 17100  1  0  0  0
 18 19  2  0  0  0
 18101  1  0  0  0
 19 20  1  0  0  0
 19 24  1  0  0  0
 20 21  2  0  0  0
 20102  1  0  0  0
 21 23  1  0  0  0
 22 28  1  0  0  0
 22 32  2  0  0  0
 26 27  1  0  0  0
 28103  1  0  0  0
 28104  1  0  0  0
 29105  1  0  0  0
 29106  1  0  0  0
 33 34  1  0  0  0
 33 66  1  0  0  0
 33 70  2  0  0  0
 34 36  1  0  0  0
 34 59  1  0  0  0
 34107  1  0  0  0
 35 44  2  0  0  0
 35 45  1  0  0  0
 35 68  1  0  0  0
 36 56  1  0  0  0
 36108  1  0  0  0
 37 39  1  0  0  0
 37 47  1  0  0  0
 37 66  1  0  0  0
 37109  1  0  0  0
 38 43  2  0  0  0
 38 46  1  0  0  0
 38 47  1  0  0  0
 39 64  1  0  0  0
 39 67  2  0  0  0
 40 52  1  0  0  0
 40 53  2  0  0  0
 40 58  1  0  0  0
 41110  1  0  0  0
 41111  1  0  0  0
 41112  1  0  0  0
 41 48  1  0  0  0
 42 43  1  0  0  0
 42 66  1  0  0  0
 42113  1  0  0  0
 42114  1  0  0  0
 43 44  1  0  0  0
 44115  1  0  0  0
 45 46  2  0  0  0
 45116  1  0  0  0
 46117  1  0  0  0
 47118  1  0  0  0
 47119  1  0  0  0
 48 56  1  0  0  0
 48 65  1  0  0  0
 48120  1  0  0  0
 49 50  1  0  0  0
 49 53  1  0  0  0
 49 64  1  0  0  0
 49121  1  0  0  0
 50 51  1  0  0  0
 50122  1  0  0  0
 50123  1  0  0  0
 51 52  1  0  0  0
 51124  1  0  0  0
 51125  1  0  0  0
 52126  1  0  0  0
 52127  1  0  0  0
 53 54  1  0  0  0
 54 55  2  0  0  0
 54128  1  0  0  0
 55 57  1  0  0  0
 55129  1  0  0  0
 56 69  2  0  0  0
 57 58  2  0  0  0
 57130  1  0  0  0
 58131  1  0  0  0
 59 60  1  0  0  0
 59 61  1  0  0  0
 59 62  1  0  0  0
 60132  1  0  0  0
 60133  1  0  0  0
 60134  1  0  0  0
 61135  1  0  0  0
 61136  1  0  0  0
 61137  1  0  0  0
 62138  1  0  0  0
 62139  1  0  0  0
 62140  1  0  0  0
 63 65  1  0  0  0
 63141  1  0  0  0
 63142  1  0  0  0
 63143  1  0  0  0
 64144  1  0  0  0
 65145  1  0  0  0
 68 80  1  0  0  0
 71 72  2  0  0  0
 71 74  1  0  0  0
 71146  1  0  0  0
 72 75  1  0  0  0
 72147  1  0  0  0
 73 74  2  0  0  0
 73 76  1  0  0  0
 73148  1  0  0  0
 74 77  1  0  0  0
 75 76  2  0  0  0
 75 83  1  0  0  0
 76 82  1  0  0  0
 77 81  1  0  0  0
 77 84  2  0  0  0
 78 79  1  0  0  0
 78 80  1  0  0  0
 78 85  2  0  0  0
 79 81  1  0  0  0
 79 86  2  0  0  0
 80149  1  0  0  0
 80150  1  0  0  0
 82151  1  0  0  0
 82152  1  0  0  0
 83153  1  0  0  0
M  CHG  1  81  -1
M  ISO  4   1 100  68 101  80 101  83 100
M  END
> <chiral flag>
0

> <version>
0

> <s_m_source_file>
/data/baiqing/PycharmProjects/Reinvent-master-3.2/result/LINK_invent/BTK/process_docking_weight1_custom_product_contain_oxygen_bond_distance_aromatic_linkinvent_7_9_3/rearranged_h_0089.sdf

> <i_m_source_file_index>
61

> <r_mmod_Potential_Energy-OPLS-2005>
-285.848541259766

> <r_mmod_Stretch_Energy-OPLS-2005>
41.4219551086426

> <r_mmod_Bend_Energy-OPLS-2005>
119.960693359375

> <r_mmod_Torsional_Energy-OPLS-2005>
250.108322143555

> <r_mmod_Improper_Torsional_Energy-OPLS-2005>
6.38930368423462

> <r_mmod_Van_der_Waal_Energy-OPLS-2005>
168.611968994141

> <r_mmod_Electrostatic_Energy-OPLS-2005>
-380.944793701172

> <r_mmod_Solvation_Energy-OPLS-2005>
-502.760864257812

> <b_mmod_Minimization_Converged-OPLS-2005>
0

> <r_mmod_RMS_Derivative-OPLS-2005>
2.06552410125732

$$$$
61
                    3D
 Structure written by MMmdl.
148156  0  0  1  0            999 V2000
  -30.6276  -14.6878   20.4976 C   0  0  0  0  0  0
  -30.4231  -12.4146   19.4588 C   0  0  0  0  0  0
  -29.4982  -12.4989   18.2241 C   0  0  0  0  0  0
  -28.0257  -12.3294   18.6417 C   0  0  0  0  0  0
  -27.6447  -13.2218   19.8505 C   0  0  2  0  0  0
  -28.6865  -13.1231   20.9843 C   0  0  0  0  0  0
  -25.2563  -13.8194   20.5681 C   0  0  0  0  0  0
  -24.1815  -13.0453   20.9166 C   0  0  0  0  0  0
  -24.6382  -11.6922   20.8723 C   0  0  0  0  0  0
  -23.9070  -10.4303   21.0415 C   0  0  0  0  0  0
  -24.3629   -9.4222   21.9197 C   0  0  0  0  0  0
  -23.6294   -8.2259   22.0768 C   0  0  0  0  0  0
  -22.4282   -8.0292   21.3556 C   0  0  0  0  0  0
  -21.9919   -9.0270   20.4661 C   0  0  0  0  0  0
  -22.7253  -10.2148   20.3066 C   0  0  0  0  0  0
  -21.6856   -6.0750   22.5278 C   0  0  0  0  0  0
  -21.4017   -6.5656   23.8205 C   0  0  0  0  0  0
  -21.3654   -5.6817   24.9171 C   0  0  0  0  0  0
  -21.6026   -4.3074   24.7233 C   0  0  0  0  0  0
  -21.8818   -3.8160   23.4353 C   0  0  0  0  0  0
  -21.9194   -4.6972   22.3401 C   0  0  0  0  0  0
  -22.7859  -13.5261   21.1848 C   0  0  0  0  0  0
  -22.1660   -4.2155   21.0984 F   0  0  0  0  0  0
  -21.5623   -3.4545   25.7744 F   0  0  0  0  0  0
  -30.0018  -13.4625   20.4160 N   0  0  0  0  0  0
  -26.2953  -12.9364   20.3267 N   0  0  0  0  0  0
  -25.9296  -11.6511   20.5729 N   0  0  0  0  0  0
  -22.0505  -12.8239   22.0400 N   0  0  0  0  0  0
  -25.4367  -15.1905   20.4140 N   0  0  0  0  0  0
  -31.7685  -14.8061   20.0472 O   0  0  0  0  0  0
  -21.6654   -6.8884   21.4247 O   0  0  0  0  0  0
  -22.3555  -14.5602   20.6752 O   0  0  0  0  0  0
  -24.6293  -31.8588   23.2010 C   0  0  0  0  0  0
  -25.9121  -32.4798   23.8340 C   0  0  1  0  0  0
  -27.2188  -27.2980   20.1257 C   0  0  0  0  0  0
  -25.5930  -33.8589   24.2302 N   0  0  0  0  0  0
  -23.4241  -30.4790   21.5500 C   0  0  2  0  0  0
  -24.8681  -28.9287   20.1139 C   0  0  0  0  0  0
  -22.7494  -29.4585   22.4988 C   0  0  0  0  0  0
  -18.0279  -28.1371   22.8505 C   0  0  0  0  0  0
  -24.1494  -36.7250   23.2653 C   0  0  0  0  0  0
  -25.9638  -30.7835   21.3705 C   0  0  0  0  0  0
  -26.0372  -29.4060   20.7184 C   0  0  0  0  0  0
  -27.2188  -28.6021   20.7130 C   0  0  0  0  0  0
  -26.0284  -26.8770   19.4941 C   0  0  0  0  0  0
  -24.8655  -27.6705   19.4906 C   0  0  0  0  0  0
  -23.6364  -29.8119   20.1652 C   0  0  0  0  0  0
  -25.4123  -36.3087   24.0367 C   0  0  1  0  0  0
  -20.5882  -28.3652   23.1316 C   0  0  2  0  0  0
  -20.6765  -26.9388   22.5421 C   0  0  0  0  0  0
  -19.5732  -26.6370   21.5230 C   0  0  0  0  0  0
  -18.1910  -26.7926   22.1624 C   0  0  0  0  0  0
  -19.1531  -28.8838   23.2896 C   0  0  0  0  0  0
  -18.9442  -30.1449   23.8897 C   0  0  0  0  0  0
  -17.6431  -30.6572   24.0554 C   0  0  0  0  0  0
  -25.9048  -34.9464   23.5124 C   0  0  0  0  0  0
  -16.5327  -29.9050   23.6348 C   0  0  0  0  0  0
  -16.7262  -28.6469   23.0378 C   0  0  0  0  0  0
  -26.4516  -31.6601   25.0689 C   0  0  0  0  0  0
  -25.3748  -31.3649   26.1394 C   0  0  0  0  0  0
  -27.0398  -30.3080   24.6064 C   0  0  0  0  0  0
  -27.6117  -32.4318   25.7397 C   0  0  0  0  0  0
  -27.5593  -37.1760   24.8476 C   0  0  0  0  0  0
  -21.4204  -29.3001   22.3723 N   0  0  0  0  0  0
  -26.4294  -37.3792   23.9439 N   0  0  0  0  0  0
  -24.6928  -31.0562   22.0992 N   0  0  0  0  0  0
  -23.4213  -28.8146   23.3089 O   0  0  0  0  0  0
  -28.3212  -26.4270   20.1363 O   0  0  0  0  0  0
  -26.5594  -34.8945   22.4680 O   0  0  0  0  0  0
  -23.5445  -32.1371   23.7346 O   0  0  0  0  0  0
  -29.0247  -19.3854   21.2827 C   0  0  0  0  0  0
  -29.1182  -18.0320   21.4771 C   0  0  0  0  0  0
  -30.5449  -19.5493   19.4106 C   0  0  0  0  0  0
  -29.7062  -20.2015   20.2577 C   0  0  0  0  0  0
  -29.9268  -17.0340   20.7030 C   0  0  0  0  0  0
  -28.1244  -25.0610   20.4698 C   0  0  0  0  0  0
  -28.9587  -24.0042   20.1638 C   0  0  0  0  0  0
  -28.6871  -22.5790   20.5823 C   0  0  0  0  0  0
  -29.8516  -15.7593   21.0336 N   0  0  0  0  0  0
  -29.5869  -21.6465   20.1129 N   0  0  0  0  0  0
  -27.7251  -22.2513   21.2806 O   0  0  0  0  0  0
  -30.0695  -24.2576   19.4552 O   0  0  0  0  0  0
  -30.9187  -17.7726   19.3660 S   0  0  0  0  0  0
  -31.4673  -12.5118   19.1623 H   0  0  0  0  0  0
  -30.3355  -11.4299   19.9201 H   0  0  0  0  0  0
  -29.7600  -11.7256   17.5010 H   0  0  0  0  0  0
  -29.6327  -13.4545   17.7129 H   0  0  0  0  0  0
  -27.8748  -11.2790   18.8980 H   0  0  0  0  0  0
  -27.3630  -12.5298   17.7982 H   0  0  0  0  0  0
  -27.6556  -14.2481   19.4837 H   0  0  0  0  0  0
  -28.6985  -12.1210   21.4150 H   0  0  0  0  0  0
  -28.4118  -13.7895   21.8034 H   0  0  0  0  0  0
  -25.2769   -9.5700   22.4792 H   0  0  0  0  0  0
  -24.0000   -7.4652   22.7494 H   0  0  0  0  0  0
  -21.0845   -8.8791   19.8962 H   0  0  0  0  0  0
  -22.3709  -10.9693   19.6188 H   0  0  0  0  0  0
  -21.2013   -7.6173   23.9713 H   0  0  0  0  0  0
  -21.1467   -6.0550   25.9078 H   0  0  0  0  0  0
  -22.0598   -2.7612   23.2855 H   0  0  0  0  0  0
  -22.4090  -11.9824   22.4681 H   0  0  0  0  0  0
  -21.1167  -13.1323   22.2689 H   0  0  0  0  0  0
  -24.6960  -15.8704   20.5467 H   0  0  0  0  0  0
  -26.3220  -15.6113   20.1573 H   0  0  0  0  0  0
  -26.7178  -32.5463   23.1079 H   0  0  0  0  0  0
  -25.0188  -33.9744   25.0512 H   0  0  0  0  0  0
  -22.7171  -31.3001   21.4085 H   0  0  0  0  0  0
  -23.3827  -35.9504   23.3285 H   0  0  0  0  0  0
  -24.3591  -36.8868   22.2069 H   0  0  0  0  0  0
  -23.7151  -37.6412   23.6666 H   0  0  0  0  0  0
  -26.0863  -31.5428   20.5975 H   0  0  0  0  0  0
  -26.8512  -30.8410   21.9902 H   0  0  0  0  0  0
  -28.1209  -28.9647   21.1873 H   0  0  0  0  0  0
  -25.9889  -25.9102   19.0144 H   0  0  0  0  0  0
  -23.9686  -27.2993   19.0118 H   0  0  0  0  0  0
  -23.7544  -30.5893   19.4092 H   0  0  0  0  0  0
  -22.7556  -29.2419   19.8648 H   0  0  0  0  0  0
  -25.1312  -36.1947   25.0862 H   0  0  0  0  0  0
  -20.9947  -28.3187   24.1443 H   0  0  0  0  0  0
  -20.5684  -26.2254   23.3612 H   0  0  0  0  0  0
  -21.6630  -26.7422   22.1190 H   0  0  0  0  0  0
  -19.6877  -25.6282   21.1246 H   0  0  0  0  0  0
  -19.6684  -27.3203   20.6785 H   0  0  0  0  0  0
  -17.4210  -26.6747   21.3989 H   0  0  0  0  0  0
  -18.0238  -26.0047   22.8982 H   0  0  0  0  0  0
  -19.7912  -30.7275   24.2265 H   0  0  0  0  0  0
  -17.4974  -31.6266   24.5138 H   0  0  0  0  0  0
  -15.5320  -30.2930   23.7685 H   0  0  0  0  0  0
  -15.8666  -28.0764   22.7109 H   0  0  0  0  0  0
  -24.6000  -30.6936   25.7659 H   0  0  0  0  0  0
  -24.8844  -32.2762   26.4821 H   0  0  0  0  0  0
  -25.8074  -30.8805   27.0156 H   0  0  0  0  0  0
  -26.2941  -29.6765   24.1221 H   0  0  0  0  0  0
  -27.4349  -29.7385   25.4479 H   0  0  0  0  0  0
  -27.8685  -30.4488   23.9120 H   0  0  0  0  0  0
  -27.2831  -33.3687   26.1904 H   0  0  0  0  0  0
  -28.3913  -32.6747   25.0158 H   0  0  0  0  0  0
  -28.0805  -31.8467   26.5318 H   0  0  0  0  0  0
  -28.2596  -38.0084   24.7628 H   0  0  0  0  0  0
  -28.1116  -36.2628   24.6201 H   0  0  0  0  0  0
  -27.2313  -37.1269   25.8876 H   0  0  0  0  0  0
  -20.9406  -29.8682   21.6878 H   0  0  0  0  0  0
  -26.0196  -38.2862   24.1481 H   0  0  0  0  0  0
  -28.3945  -19.9054   21.9886 H   0  0  0  0  0  0
  -28.5611  -17.5953   22.2936 H   0  0  0  0  0  0
  -31.0728  -20.1145   18.6544 H   0  0  0  0  0  0
  -27.2075  -24.9146   21.0287 H   0  0  0  0  0  0
  -30.3031  -22.0886   19.5509 H   0  0  0  0  0  0
  -30.0667  -25.1865   19.2606 H   0  0  0  0  0  0
  1 25  1  0  0  0
  1 30  2  0  0  0
  1 79  1  0  0  0
  2  3  1  0  0  0
  2 25  1  0  0  0
  2 84  1  0  0  0
  2 85  1  0  0  0
  3  4  1  0  0  0
  3 86  1  0  0  0
  3 87  1  0  0  0
  4  5  1  0  0  0
  4 88  1  0  0  0
  4 89  1  0  0  0
  5  6  1  0  0  0
  5 26  1  0  0  0
  5 90  1  0  0  0
  6 25  1  0  0  0
  6 91  1  0  0  0
  6 92  1  0  0  0
  7  8  2  0  0  0
  7 26  1  0  0  0
  7 29  1  0  0  0
  8  9  1  0  0  0
  8 22  1  0  0  0
  9 10  1  0  0  0
  9 27  2  0  0  0
 10 11  2  0  0  0
 10 15  1  0  0  0
 11 12  1  0  0  0
 11 93  1  0  0  0
 12 13  2  0  0  0
 12 94  1  0  0  0
 13 14  1  0  0  0
 13 31  1  0  0  0
 14 15  2  0  0  0
 14 95  1  0  0  0
 15 96  1  0  0  0
 16 17  2  0  0  0
 16 21  1  0  0  0
 16 31  1  0  0  0
 17 18  1  0  0  0
 17 97  1  0  0  0
 18 19  2  0  0  0
 18 98  1  0  0  0
 19 20  1  0  0  0
 19 24  1  0  0  0
 20 21  2  0  0  0
 20 99  1  0  0  0
 21 23  1  0  0  0
 22 28  1  0  0  0
 22 32  2  0  0  0
 26 27  1  0  0  0
 28100  1  0  0  0
 28101  1  0  0  0
 29102  1  0  0  0
 29103  1  0  0  0
 33 34  1  0  0  0
 33 66  1  0  0  0
 33 70  2  0  0  0
 34 36  1  0  0  0
 34 59  1  0  0  0
 34104  1  0  0  0
 35 44  2  0  0  0
 35 45  1  0  0  0
 35 68  1  0  0  0
 36 56  1  0  0  0
 36105  1  0  0  0
 37 39  1  0  0  0
 37 47  1  0  0  0
 37 66  1  0  0  0
 37106  1  0  0  0
 38 43  2  0  0  0
 38 46  1  0  0  0
 38 47  1  0  0  0
 39 64  1  0  0  0
 39 67  2  0  0  0
 40 52  1  0  0  0
 40 53  2  0  0  0
 40 58  1  0  0  0
 41107  1  0  0  0
 41108  1  0  0  0
 41109  1  0  0  0
 41 48  1  0  0  0
 42 43  1  0  0  0
 42 66  1  0  0  0
 42110  1  0  0  0
 42111  1  0  0  0
 43 44  1  0  0  0
 44112  1  0  0  0
 45 46  2  0  0  0
 45113  1  0  0  0
 46114  1  0  0  0
 47115  1  0  0  0
 47116  1  0  0  0
 48 56  1  0  0  0
 48 65  1  0  0  0
 48117  1  0  0  0
 49 50  1  0  0  0
 49 53  1  0  0  0
 49 64  1  0  0  0
 49118  1  0  0  0
 50 51  1  0  0  0
 50119  1  0  0  0
 50120  1  0  0  0
 51 52  1  0  0  0
 51121  1  0  0  0
 51122  1  0  0  0
 52123  1  0  0  0
 52124  1  0  0  0
 53 54  1  0  0  0
 54 55  2  0  0  0
 54125  1  0  0  0
 55 57  1  0  0  0
 55126  1  0  0  0
 56 69  2  0  0  0
 57 58  2  0  0  0
 57127  1  0  0  0
 58128  1  0  0  0
 59 60  1  0  0  0
 59 61  1  0  0  0
 59 62  1  0  0  0
 60129  1  0  0  0
 60130  1  0  0  0
 60131  1  0  0  0
 61132  1  0  0  0
 61133  1  0  0  0
 61134  1  0  0  0
 62135  1  0  0  0
 62136  1  0  0  0
 62137  1  0  0  0
 63 65  1  0  0  0
 63138  1  0  0  0
 63139  1  0  0  0
 63140  1  0  0  0
 64141  1  0  0  0
 65142  1  0  0  0
 68 76  1  0  0  0
 71 72  2  0  0  0
 71 74  1  0  0  0
 71143  1  0  0  0
 72 75  1  0  0  0
 72144  1  0  0  0
 73 74  2  0  0  0
 73 83  1  0  0  0
 73145  1  0  0  0
 74 80  1  0  0  0
 75 79  2  0  0  0
 75 83  1  0  0  0
 76 77  2  0  0  0
 76146  1  0  0  0
 77 78  1  0  0  0
 77 82  1  0  0  0
 78 80  1  0  0  0
 78 81  2  0  0  0
 80147  1  0  0  0
 82148  1  0  0  0
M  ISO  4   1 100  68 101  76 101  79 100
M  END
> <chiral flag>
0

> <version>
0

> <s_m_source_file>
/data/baiqing/PycharmProjects/Reinvent-master-3.2/result/LINK_invent/BTK/process_docking_weight1_custom_product_contain_oxygen_bond_distance_aromatic_linkinvent_7_9_3/rearranged_h_0089.sdf

> <i_m_source_file_index>
62

> <r_mmod_Potential_Energy-OPLS-2005>
38.110595703125

> <r_mmod_Stretch_Energy-OPLS-2005>
93.0256118774414

> <r_mmod_Bend_Energy-OPLS-2005>
170.929885864258

> <r_mmod_Torsional_Energy-OPLS-2005>
175.265151977539

> <r_mmod_Improper_Torsional_Energy-OPLS-2005>
2.13432455062866

> <r_mmod_Van_der_Waal_Energy-OPLS-2005>
140.033966064453

> <r_mmod_Electrostatic_Energy-OPLS-2005>
-407.411499023438

> <r_mmod_Solvation_Energy-OPLS-2005>
-196.388198852539

> <b_mmod_Minimization_Converged-OPLS-2005>
0

> <r_mmod_RMS_Derivative-OPLS-2005>
3.39400005340576

$$$$
62
                    3D
 Structure written by MMmdl.
160169  0  0  1  0            999 V2000
  -30.6299  -14.7127   20.6211 C   0  0  0  0  0  0
  -30.4368  -12.4781   19.4827 C   0  0  0  0  0  0
  -29.5149  -12.5574   18.2454 C   0  0  0  0  0  0
  -28.0447  -12.3544   18.6412 C   0  0  0  0  0  0
  -27.6454  -13.2281   19.8582 C   0  0  2  0  0  0
  -28.6718  -13.1109   21.0000 C   0  0  0  0  0  0
  -25.2536  -13.8177   20.5726 C   0  0  0  0  0  0
  -24.1797  -13.0422   20.9144 C   0  0  0  0  0  0
  -24.6371  -11.6890   20.8665 C   0  0  0  0  0  0
  -23.9037  -10.4273   21.0350 C   0  0  0  0  0  0
  -24.3593   -9.4218   21.9149 C   0  0  0  0  0  0
  -23.6258   -8.2263   22.0759 C   0  0  0  0  0  0
  -22.4248   -8.0281   21.3543 C   0  0  0  0  0  0
  -21.9861   -9.0247   20.4654 C   0  0  0  0  0  0
  -22.7189  -10.2119   20.3039 C   0  0  0  0  0  0
  -21.6844   -6.0717   22.5278 C   0  0  0  0  0  0
  -21.4006   -6.5618   23.8213 C   0  0  0  0  0  0
  -21.3685   -5.6783   24.9183 C   0  0  0  0  0  0
  -21.6060   -4.3047   24.7241 C   0  0  0  0  0  0
  -21.8802   -3.8120   23.4360 C   0  0  0  0  0  0
  -21.9193   -4.6939   22.3416 C   0  0  0  0  0  0
  -22.7838  -13.5241   21.1863 C   0  0  0  0  0  0
  -22.1644   -4.2107   21.1007 F   0  0  0  0  0  0
  -21.5642   -3.4557   25.7766 F   0  0  0  0  0  0
  -29.9931  -13.4928   20.4723 N   0  0  0  0  0  0
  -26.2933  -12.9370   20.3240 N   0  0  0  0  0  0
  -25.9290  -11.6504   20.5618 N   0  0  0  0  0  0
  -22.0458  -12.8250   22.0407 N   0  0  0  0  0  0
  -25.4296  -15.1915   20.4395 N   0  0  0  0  0  0
  -31.7150  -14.9003   20.0586 O   0  0  0  0  0  0
  -21.6631   -6.8862   21.4242 O   0  0  0  0  0  0
  -22.3542  -14.5570   20.6754 O   0  0  0  0  0  0
  -24.6278  -31.8577   23.1975 C   0  0  0  0  0  0
  -25.9130  -32.4766   23.8306 C   0  0  1  0  0  0
  -27.2226  -27.2745   20.1496 C   0  0  0  0  0  0
  -25.5948  -33.8567   24.2250 N   0  0  0  0  0  0
  -23.4233  -30.4774   21.5406 C   0  0  2  0  0  0
  -24.8735  -28.9142   20.1228 C   0  0  0  0  0  0
  -22.7460  -29.4620   22.4916 C   0  0  0  0  0  0
  -18.0294  -28.1357   22.8484 C   0  0  0  0  0  0
  -24.1492  -36.7280   23.2635 C   0  0  0  0  0  0
  -25.9679  -30.7744   21.3745 C   0  0  0  0  0  0
  -26.0448  -29.3924   20.7299 C   0  0  0  0  0  0
  -27.2255  -28.5837   20.7337 C   0  0  0  0  0  0
  -26.0334  -26.8497   19.5278 C   0  0  0  0  0  0
  -24.8705  -27.6453   19.5170 C   0  0  0  0  0  0
  -23.6437  -29.8022   20.1604 C   0  0  0  0  0  0
  -25.4122  -36.3070   24.0315 C   0  0  1  0  0  0
  -20.5892  -28.3684   23.1265 C   0  0  2  0  0  0
  -20.6798  -26.9403   22.5428 C   0  0  0  0  0  0
  -19.5782  -26.6349   21.5208 C   0  0  0  0  0  0
  -18.1958  -26.7905   22.1621 C   0  0  0  0  0  0
  -19.1539  -28.8826   23.2874 C   0  0  0  0  0  0
  -18.9486  -30.1433   23.8892 C   0  0  0  0  0  0
  -17.6483  -30.6566   24.0559 C   0  0  0  0  0  0
  -25.9053  -34.9443   23.5076 C   0  0  0  0  0  0
  -16.5365  -29.9049   23.6340 C   0  0  0  0  0  0
  -16.7292  -28.6478   23.0360 C   0  0  0  0  0  0
  -26.4488  -31.6586   25.0686 C   0  0  0  0  0  0
  -25.3720  -31.3775   26.1416 C   0  0  0  0  0  0
  -27.0335  -30.2997   24.6182 C   0  0  0  0  0  0
  -27.6028  -32.4340   25.7484 C   0  0  0  0  0  0
  -27.5580  -37.1791   24.8464 C   0  0  0  0  0  0
  -21.4161  -29.3067   22.3677 N   0  0  0  0  0  0
  -26.4299  -37.3770   23.9403 N   0  0  0  0  0  0
  -24.6917  -31.0547   22.0945 N   0  0  0  0  0  0
  -23.4166  -28.8159   23.3010 O   0  0  0  0  0  0
  -28.3323  -26.4187   20.0596 O   0  0  0  0  0  0
  -26.5631  -34.8924   22.4640 O   0  0  0  0  0  0
  -23.5430  -32.1430   23.7251 O   0  0  0  0  0  0
  -30.0498  -19.5898   21.7055 C   0  0  0  0  0  0
  -30.4160  -18.2099   21.8480 C   0  0  0  0  0  0
  -27.0538  -23.1556   20.8511 C   0  0  0  0  0  0
  -28.8967  -17.5980   20.1131 C   0  0  0  0  0  0
  -28.3297  -23.7902   20.7945 C   0  0  0  0  0  0
  -29.0747  -20.0344   20.7684 C   0  0  0  0  0  0
  -29.8324  -17.1467   21.0884 C   0  0  0  0  0  0
  -28.5373  -18.9851   19.9526 C   0  0  0  0  0  0
  -29.2285  -22.7089   20.6632 C   0  0  0  0  0  0
  -27.2197  -21.7933   20.8498 C   0  0  0  0  0  0
  -29.3585  -16.0431   23.7635 C   0  0  0  0  0  0
  -30.0237  -15.3725   22.8029 C   0  0  0  0  0  0
  -30.7161  -22.7720   20.4970 C   0  0  0  0  0  0
  -28.5772  -25.3475   21.0570 C   0  0  0  0  0  0
  -28.5628  -21.4383   20.7349 N   0  0  0  0  0  0
  -30.0692  -15.7027   21.4284 N   0  0  0  0  0  0
  -26.2580  -20.8420   21.0075 O   0  0  0  0  0  0
  -27.6334  -19.2888   18.9906 F   0  0  0  0  0  0
  -31.4734  -12.6278   19.1716 H   0  0  0  0  0  0
  -30.4047  -11.4802   19.9243 H   0  0  0  0  0  0
  -29.8107  -11.8120   17.5058 H   0  0  0  0  0  0
  -29.6386  -13.5307   17.7667 H   0  0  0  0  0  0
  -27.9070  -11.2995   18.8822 H   0  0  0  0  0  0
  -27.3910  -12.5640   17.7933 H   0  0  0  0  0  0
  -27.6500  -14.2632   19.5149 H   0  0  0  0  0  0
  -28.7021  -12.0952   21.3992 H   0  0  0  0  0  0
  -28.3415  -13.7444   21.8234 H   0  0  0  0  0  0
  -25.2747   -9.5705   22.4717 H   0  0  0  0  0  0
  -23.9968   -7.4660   22.7513 H   0  0  0  0  0  0
  -21.0770   -8.8762   19.8970 H   0  0  0  0  0  0
  -22.3625  -10.9661   19.6152 H   0  0  0  0  0  0
  -21.1959   -7.6123   23.9701 H   0  0  0  0  0  0
  -21.1539   -6.0526   25.9089 H   0  0  0  0  0  0
  -22.0555   -2.7575   23.2894 H   0  0  0  0  0  0
  -22.3978  -11.9886   22.4823 H   0  0  0  0  0  0
  -21.1105  -13.1321   22.2603 H   0  0  0  0  0  0
  -24.6910  -15.8545   20.6440 H   0  0  0  0  0  0
  -26.3228  -15.6354   20.2699 H   0  0  0  0  0  0
  -26.7192  -32.5426   23.1048 H   0  0  0  0  0  0
  -25.0099  -33.9694   25.0400 H   0  0  0  0  0  0
  -22.7184  -31.2990   21.3883 H   0  0  0  0  0  0
  -23.3750  -35.9614   23.3304 H   0  0  0  0  0  0
  -24.3584  -36.8895   22.2045 H   0  0  0  0  0  0
  -23.7253  -37.6484   23.6659 H   0  0  0  0  0  0
  -26.1023  -31.5269   20.5970 H   0  0  0  0  0  0
  -26.8476  -30.8316   22.0054 H   0  0  0  0  0  0
  -28.1336  -28.9516   21.1903 H   0  0  0  0  0  0
  -26.0091  -25.8800   19.0518 H   0  0  0  0  0  0
  -23.9716  -27.2677   19.0494 H   0  0  0  0  0  0
  -23.7698  -30.5754   19.4018 H   0  0  0  0  0  0
  -22.7621  -29.2330   19.8567 H   0  0  0  0  0  0
  -25.1299  -36.1895   25.0806 H   0  0  0  0  0  0
  -20.9972  -28.3267   24.1395 H   0  0  0  0  0  0
  -20.5652  -26.2317   23.3635 H   0  0  0  0  0  0
  -21.6673  -26.7403   22.1267 H   0  0  0  0  0  0
  -19.6940  -25.6238   21.1279 H   0  0  0  0  0  0
  -19.6714  -27.3108   20.6697 H   0  0  0  0  0  0
  -18.0401  -26.0073   22.9053 H   0  0  0  0  0  0
  -17.4223  -26.6610   21.4048 H   0  0  0  0  0  0
  -19.7976  -30.7247   24.2227 H   0  0  0  0  0  0
  -17.5031  -31.6262   24.5141 H   0  0  0  0  0  0
  -15.5366  -30.2981   23.7622 H   0  0  0  0  0  0
  -15.8673  -28.0799   22.7078 H   0  0  0  0  0  0
  -24.5875  -30.7136   25.7770 H   0  0  0  0  0  0
  -24.8935  -32.2960   26.4811 H   0  0  0  0  0  0
  -25.8023  -30.8982   27.0213 H   0  0  0  0  0  0
  -26.2924  -29.6751   24.1179 H   0  0  0  0  0  0
  -27.3983  -29.7253   25.4705 H   0  0  0  0  0  0
  -27.8804  -30.4268   23.9446 H   0  0  0  0  0  0
  -27.2607  -33.3634   26.2063 H   0  0  0  0  0  0
  -28.3844  -32.6926   25.0328 H   0  0  0  0  0  0
  -28.0693  -31.8477   26.5414 H   0  0  0  0  0  0
  -28.2585  -38.0094   24.7495 H   0  0  0  0  0  0
  -28.1080  -36.2616   24.6298 H   0  0  0  0  0  0
  -27.2295  -37.1451   25.8868 H   0  0  0  0  0  0
  -20.9320  -29.8820   21.6932 H   0  0  0  0  0  0
  -26.0158  -38.2832   24.1422 H   0  0  0  0  0  0
  -30.5018  -20.3084   22.3765 H   0  0  0  0  0  0
  -31.1311  -17.9618   22.6205 H   0  0  0  0  0  0
  -26.1068  -23.6658   20.9719 H   0  0  0  0  0  0
  -28.3867  -16.8677   19.5032 H   0  0  0  0  0  0
  -28.7763  -16.9295   23.5565 H   0  0  0  0  0  0
  -29.3836  -15.7066   24.7918 H   0  0  0  0  0  0
  -30.5875  -14.4832   23.0626 H   0  0  0  0  0  0
  -31.1235  -23.7122   20.8649 H   0  0  0  0  0  0
  -30.9784  -22.6973   19.4413 H   0  0  0  0  0  0
  -31.2315  -21.9709   21.0203 H   0  0  0  0  0  0
  -29.6317  -25.4434   21.3175 H   0  0  0  0  0  0
  -28.0494  -25.6099   21.9773 H   0  0  0  0  0  0
  -25.4360  -21.2853   21.1872 H   0  0  0  0  0  0
  1 25  1  0  0  0
  1 30  2  0  0  0
  1 86  1  0  0  0
  2  3  1  0  0  0
  2 25  1  0  0  0
  2 89  1  0  0  0
  2 90  1  0  0  0
  3  4  1  0  0  0
  3 91  1  0  0  0
  3 92  1  0  0  0
  4  5  1  0  0  0
  4 93  1  0  0  0
  4 94  1  0  0  0
  5  6  1  0  0  0
  5 26  1  0  0  0
  5 95  1  0  0  0
  6 25  1  0  0  0
  6 96  1  0  0  0
  6 97  1  0  0  0
  7  8  2  0  0  0
  7 26  1  0  0  0
  7 29  1  0  0  0
  8  9  1  0  0  0
  8 22  1  0  0  0
  9 10  1  0  0  0
  9 27  2  0  0  0
 10 11  2  0  0  0
 10 15  1  0  0  0
 11 12  1  0  0  0
 11 98  1  0  0  0
 12 13  2  0  0  0
 12 99  1  0  0  0
 13 14  1  0  0  0
 13 31  1  0  0  0
 14 15  2  0  0  0
 14100  1  0  0  0
 15101  1  0  0  0
 16 17  2  0  0  0
 16 21  1  0  0  0
 16 31  1  0  0  0
 17 18  1  0  0  0
 17102  1  0  0  0
 18 19  2  0  0  0
 18103  1  0  0  0
 19 20  1  0  0  0
 19 24  1  0  0  0
 20 21  2  0  0  0
 20104  1  0  0  0
 21 23  1  0  0  0
 22 28  1  0  0  0
 22 32  2  0  0  0
 26 27  1  0  0  0
 28105  1  0  0  0
 28106  1  0  0  0
 29107  1  0  0  0
 29108  1  0  0  0
 33 34  1  0  0  0
 33 66  1  0  0  0
 33 70  2  0  0  0
 34 36  1  0  0  0
 34 59  1  0  0  0
 34109  1  0  0  0
 35 44  2  0  0  0
 35 45  1  0  0  0
 35 68  1  0  0  0
 36 56  1  0  0  0
 36110  1  0  0  0
 37 39  1  0  0  0
 37 47  1  0  0  0
 37 66  1  0  0  0
 37111  1  0  0  0
 38 43  2  0  0  0
 38 46  1  0  0  0
 38 47  1  0  0  0
 39 64  1  0  0  0
 39 67  2  0  0  0
 40 52  1  0  0  0
 40 53  2  0  0  0
 40 58  1  0  0  0
 41112  1  0  0  0
 41113  1  0  0  0
 41114  1  0  0  0
 41 48  1  0  0  0
 42 43  1  0  0  0
 42 66  1  0  0  0
 42115  1  0  0  0
 42116  1  0  0  0
 43 44  1  0  0  0
 44117  1  0  0  0
 45 46  2  0  0  0
 45118  1  0  0  0
 46119  1  0  0  0
 47120  1  0  0  0
 47121  1  0  0  0
 48 56  1  0  0  0
 48 65  1  0  0  0
 48122  1  0  0  0
 49 50  1  0  0  0
 49 53  1  0  0  0
 49 64  1  0  0  0
 49123  1  0  0  0
 50 51  1  0  0  0
 50124  1  0  0  0
 50125  1  0  0  0
 51 52  1  0  0  0
 51126  1  0  0  0
 51127  1  0  0  0
 52128  1  0  0  0
 52129  1  0  0  0
 53 54  1  0  0  0
 54 55  2  0  0  0
 54130  1  0  0  0
 55 57  1  0  0  0
 55131  1  0  0  0
 56 69  2  0  0  0
 57 58  2  0  0  0
 57132  1  0  0  0
 58133  1  0  0  0
 59 60  1  0  0  0
 59 61  1  0  0  0
 59 62  1  0  0  0
 60134  1  0  0  0
 60135  1  0  0  0
 60136  1  0  0  0
 61137  1  0  0  0
 61138  1  0  0  0
 61139  1  0  0  0
 62140  1  0  0  0
 62141  1  0  0  0
 62142  1  0  0  0
 63 65  1  0  0  0
 63143  1  0  0  0
 63144  1  0  0  0
 63145  1  0  0  0
 64146  1  0  0  0
 65147  1  0  0  0
 68 84  1  0  0  0
 71 72  2  0  0  0
 71 76  1  0  0  0
 71148  1  0  0  0
 72 77  1  0  0  0
 72149  1  0  0  0
 73 75  1  0  0  0
 73 80  2  0  0  0
 73150  1  0  0  0
 74 77  2  0  0  0
 74 78  1  0  0  0
 74151  1  0  0  0
 75 79  2  0  0  0
 75 84  1  0  0  0
 76 78  2  0  0  0
 76 85  1  0  0  0
 77 86  1  0  0  0
 78 88  1  0  0  0
 79 83  1  0  0  0
 79 85  1  0  0  0
 80 85  1  0  0  0
 80 87  1  0  0  0
 81 82  2  0  0  0
 81152  1  0  0  0
 81153  1  0  0  0
 82 86  1  0  0  0
 82154  1  0  0  0
 83155  1  0  0  0
 83156  1  0  0  0
 83157  1  0  0  0
 84158  1  0  0  0
 84159  1  0  0  0
 87160  1  0  0  0
M  ISO  4   1 100  68 101  84 101  86 100
M  END
> <chiral flag>
0

> <version>
0

> <s_m_source_file>
/data/baiqing/PycharmProjects/Reinvent-master-3.2/result/LINK_invent/BTK/process_docking_weight1_custom_product_contain_oxygen_bond_distance_aromatic_linkinvent_7_9_3/rearranged_h_0089.sdf

> <i_m_source_file_index>
63

> <r_mmod_Potential_Energy-OPLS-2005>
379.052307128906

> <r_mmod_Stretch_Energy-OPLS-2005>
120.525505065918

> <r_mmod_Bend_Energy-OPLS-2005>
170.816528320312

> <r_mmod_Torsional_Energy-OPLS-2005>
359.745513916016

> <r_mmod_Improper_Torsional_Energy-OPLS-2005>
5.40285921096802

> <r_mmod_Van_der_Waal_Energy-OPLS-2005>
137.583679199219

> <r_mmod_Electrostatic_Energy-OPLS-2005>
-278.326934814453

> <r_mmod_Solvation_Energy-OPLS-2005>
-206.822311401367

> <b_mmod_Minimization_Converged-OPLS-2005>
0

> <r_mmod_RMS_Derivative-OPLS-2005>
4.65696287155151

$$$$
63
                    3D
 Structure written by MMmdl.
151159  0  0  1  0            999 V2000
  -30.6596  -14.6122   20.4829 C   0  0  0  0  0  0
  -30.4312  -12.3661   19.4628 C   0  0  0  0  0  0
  -29.5075  -12.4850   18.2309 C   0  0  0  0  0  0
  -28.0279  -12.3438   18.6401 C   0  0  0  0  0  0
  -27.6544  -13.2130   19.8715 C   0  0  2  0  0  0
  -28.7021  -13.0808   21.0012 C   0  0  0  0  0  0
  -25.2567  -13.8158   20.5710 C   0  0  0  0  0  0
  -24.1825  -13.0431   20.9200 C   0  0  0  0  0  0
  -24.6388  -11.6900   20.8756 C   0  0  0  0  0  0
  -23.9056  -10.4287   21.0413 C   0  0  0  0  0  0
  -24.3609   -9.4202   21.9188 C   0  0  0  0  0  0
  -23.6287   -8.2237   22.0754 C   0  0  0  0  0  0
  -22.4270   -8.0277   21.3543 C   0  0  0  0  0  0
  -21.9904   -9.0252   20.4647 C   0  0  0  0  0  0
  -22.7231  -10.2132   20.3059 C   0  0  0  0  0  0
  -21.6850   -6.0733   22.5279 C   0  0  0  0  0  0
  -21.4012   -6.5638   23.8212 C   0  0  0  0  0  0
  -21.3659   -5.6792   24.9175 C   0  0  0  0  0  0
  -21.6045   -4.3055   24.7226 C   0  0  0  0  0  0
  -21.8820   -3.8146   23.4347 C   0  0  0  0  0  0
  -21.9192   -4.6962   22.3402 C   0  0  0  0  0  0
  -22.7847  -13.5230   21.1852 C   0  0  0  0  0  0
  -22.1661   -4.2147   21.0980 F   0  0  0  0  0  0
  -21.5629   -3.4539   25.7739 F   0  0  0  0  0  0
  -30.0231  -13.3995   20.4359 N   0  0  0  0  0  0
  -26.2999  -12.9329   20.3385 N   0  0  0  0  0  0
  -25.9322  -11.6489   20.5808 N   0  0  0  0  0  0
  -22.0484  -12.8228   22.0408 N   0  0  0  0  0  0
  -25.4284  -15.1878   20.4114 N   0  0  0  0  0  0
  -31.8102  -14.7549   20.0610 O   0  0  0  0  0  0
  -21.6635   -6.8875   21.4240 O   0  0  0  0  0  0
  -22.3538  -14.5537   20.6697 O   0  0  0  0  0  0
  -24.6235  -31.8622   23.2063 C   0  0  0  0  0  0
  -25.9092  -32.4796   23.8382 C   0  0  1  0  0  0
  -27.2256  -27.3559   20.1099 C   0  0  0  0  0  0
  -25.5917  -33.8596   24.2305 N   0  0  0  0  0  0
  -23.4180  -30.4870   21.5465 C   0  0  2  0  0  0
  -24.8703  -28.9588   20.0982 C   0  0  0  0  0  0
  -22.7474  -29.4627   22.4928 C   0  0  0  0  0  0
  -18.0287  -28.1383   22.8487 C   0  0  0  0  0  0
  -24.1488  -36.7303   23.2638 C   0  0  0  0  0  0
  -25.9575  -30.8037   21.3766 C   0  0  0  0  0  0
  -26.0364  -29.4377   20.7120 C   0  0  0  0  0  0
  -27.2204  -28.6437   20.7188 C   0  0  0  0  0  0
  -26.0510  -26.9398   19.4421 C   0  0  0  0  0  0
  -24.8780  -27.7136   19.4524 C   0  0  0  0  0  0
  -23.6325  -29.8290   20.1582 C   0  0  0  0  0  0
  -25.4112  -36.3096   24.0333 C   0  0  1  0  0  0
  -20.5888  -28.3687   23.1282 C   0  0  2  0  0  0
  -20.6775  -26.9410   22.5409 C   0  0  0  0  0  0
  -19.5751  -26.6383   21.5212 C   0  0  0  0  0  0
  -18.1932  -26.7926   22.1625 C   0  0  0  0  0  0
  -19.1540  -28.8851   23.2881 C   0  0  0  0  0  0
  -18.9463  -30.1453   23.8897 C   0  0  0  0  0  0
  -17.6463  -30.6586   24.0563 C   0  0  0  0  0  0
  -25.9044  -34.9462   23.5117 C   0  0  0  0  0  0
  -16.5354  -29.9085   23.6329 C   0  0  0  0  0  0
  -16.7275  -28.6502   23.0351 C   0  0  0  0  0  0
  -26.4488  -31.6594   25.0738 C   0  0  0  0  0  0
  -25.3730  -31.3721   26.1469 C   0  0  0  0  0  0
  -27.0330  -30.3022   24.6176 C   0  0  0  0  0  0
  -27.6052  -32.4325   25.7504 C   0  0  0  0  0  0
  -27.5580  -37.1808   24.8466 C   0  0  0  0  0  0
  -21.4188  -29.3041   22.3675 N   0  0  0  0  0  0
  -26.4295  -37.3784   23.9406 N   0  0  0  0  0  0
  -24.6845  -31.0658   22.1003 N   0  0  0  0  0  0
  -23.4207  -28.8160   23.2994 O   0  0  0  0  0  0
  -28.2536  -26.4168   20.2496 O   0  0  0  0  0  0
  -26.5609  -34.8921   22.4681 O   0  0  0  0  0  0
  -23.5402  -32.1406   23.7401 O   0  0  0  0  0  0
  -29.1858  -19.3663   18.7878 C   0  0  0  0  0  0
  -28.9319  -18.1101   18.2084 C   0  0  0  0  0  0
  -30.0575  -18.2447   20.7733 C   0  0  0  0  0  0
  -29.7634  -19.4694   20.0713 C   0  0  0  0  0  0
  -29.7901  -16.9523   20.1974 C   0  0  0  0  0  0
  -29.2335  -16.9216   18.8963 C   0  0  0  0  0  0
  -28.2319  -23.9364   20.9516 C   0  0  0  0  0  0
  -27.8016  -25.2362   20.8666 C   0  0  0  0  0  0
  -30.1653  -20.8617   20.5704 C   0  0  0  0  0  0
  -29.4444  -23.2368   20.5001 C   0  0  0  0  0  0
  -29.9386  -15.6893   20.9079 N   0  0  0  0  0  0
  -29.2625  -21.8788   20.4409 N   0  0  0  0  0  0
  -31.2864  -21.0038   21.0697 O   0  0  0  0  0  0
  -30.5204  -23.7980   20.2693 O   0  0  0  0  0  0
  -28.9575  -15.7430   18.2941 F   0  0  0  0  0  0
  -31.4754  -12.4669   19.1616 H   0  0  0  0  0  0
  -30.3474  -11.3748   19.9109 H   0  0  0  0  0  0
  -29.7632  -11.7214   17.4952 H   0  0  0  0  0  0
  -29.6681  -13.4437   17.7376 H   0  0  0  0  0  0
  -27.8516  -11.2917   18.8666 H   0  0  0  0  0  0
  -27.3785  -12.5849   17.7978 H   0  0  0  0  0  0
  -27.6626  -14.2466   19.5369 H   0  0  0  0  0  0
  -28.7046  -12.0670   21.4041 H   0  0  0  0  0  0
  -28.4533  -13.7336   21.8389 H   0  0  0  0  0  0
  -25.2754   -9.5679   22.4763 H   0  0  0  0  0  0
  -23.9997   -7.4627   22.7472 H   0  0  0  0  0  0
  -21.0836   -8.8770   19.8952 H   0  0  0  0  0  0
  -22.3690  -10.9673   19.6170 H   0  0  0  0  0  0
  -21.2003   -7.6146   23.9715 H   0  0  0  0  0  0
  -21.1481   -6.0522   25.9078 H   0  0  0  0  0  0
  -22.0600   -2.7608   23.2847 H   0  0  0  0  0  0
  -22.4094  -11.9889   22.4800 H   0  0  0  0  0  0
  -21.1103  -13.1260   22.2611 H   0  0  0  0  0  0
  -24.6611  -15.8430   20.5129 H   0  0  0  0  0  0
  -26.2770  -15.6208   20.0701 H   0  0  0  0  0  0
  -26.7164  -32.5483   23.1140 H   0  0  0  0  0  0
  -25.0066  -33.9749   25.0450 H   0  0  0  0  0  0
  -22.7103  -31.3068   21.4073 H   0  0  0  0  0  0
  -23.3747  -35.9640   23.3309 H   0  0  0  0  0  0
  -24.3580  -36.8912   22.2051 H   0  0  0  0  0  0
  -23.7245  -37.6512   23.6650 H   0  0  0  0  0  0
  -26.0876  -31.5723   20.6135 H   0  0  0  0  0  0
  -26.8377  -30.8492   22.0060 H   0  0  0  0  0  0
  -28.1033  -28.9871   21.2393 H   0  0  0  0  0  0
  -26.0235  -25.9722   18.9605 H   0  0  0  0  0  0
  -23.9868  -27.3420   18.9656 H   0  0  0  0  0  0
  -23.7428  -30.6098   19.4048 H   0  0  0  0  0  0
  -22.7553  -29.2534   19.8568 H   0  0  0  0  0  0
  -25.1290  -36.1957   25.0826 H   0  0  0  0  0  0
  -20.9984  -28.3262   24.1401 H   0  0  0  0  0  0
  -20.5676  -26.2297   23.3609 H   0  0  0  0  0  0
  -21.6644  -26.7439   22.1202 H   0  0  0  0  0  0
  -19.6913  -25.6294   21.1241 H   0  0  0  0  0  0
  -19.6688  -27.3194   20.6742 H   0  0  0  0  0  0
  -17.4201  -26.6672   21.4028 H   0  0  0  0  0  0
  -18.0334  -26.0068   22.9021 H   0  0  0  0  0  0
  -19.7939  -30.7268   24.2267 H   0  0  0  0  0  0
  -17.5019  -31.6266   24.5164 H   0  0  0  0  0  0
  -15.5354  -30.2988   23.7652 H   0  0  0  0  0  0
  -15.8674  -28.0821   22.7066 H   0  0  0  0  0  0
  -24.5907  -30.7067   25.7800 H   0  0  0  0  0  0
  -24.8918  -32.2883   26.4902 H   0  0  0  0  0  0
  -25.8063  -30.8897   27.0239 H   0  0  0  0  0  0
  -26.2902  -29.6778   24.1197 H   0  0  0  0  0  0
  -27.4032  -29.7269   25.4672 H   0  0  0  0  0  0
  -27.8770  -30.4315   23.9397 H   0  0  0  0  0  0
  -27.2665  -33.3620   26.2092 H   0  0  0  0  0  0
  -28.3856  -32.6893   25.0329 H   0  0  0  0  0  0
  -28.0728  -31.8445   26.5412 H   0  0  0  0  0  0
  -28.2605  -38.0098   24.7505 H   0  0  0  0  0  0
  -28.1068  -36.2629   24.6302 H   0  0  0  0  0  0
  -27.2297  -37.1471   25.8869 H   0  0  0  0  0  0
  -20.9359  -29.8776   21.6900 H   0  0  0  0  0  0
  -26.0182  -38.2864   24.1398 H   0  0  0  0  0  0
  -28.9710  -20.2574   18.2135 H   0  0  0  0  0  0
  -28.5041  -18.0533   17.2180 H   0  0  0  0  0  0
  -30.4960  -18.3029   21.7595 H   0  0  0  0  0  0
  -27.5454  -23.3117   21.5057 H   0  0  0  0  0  0
  -26.8701  -25.4263   21.3859 H   0  0  0  0  0  0
  -29.1067  -15.4148   21.4074 H   0  0  0  0  0  0
  -28.3104  -21.5699   20.3283 H   0  0  0  0  0  0
  1 25  1  0  0  0
  1 30  2  0  0  0
  1 81  1  0  0  0
  2  3  1  0  0  0
  2 25  1  0  0  0
  2 86  1  0  0  0
  2 87  1  0  0  0
  3  4  1  0  0  0
  3 88  1  0  0  0
  3 89  1  0  0  0
  4  5  1  0  0  0
  4 90  1  0  0  0
  4 91  1  0  0  0
  5  6  1  0  0  0
  5 26  1  0  0  0
  5 92  1  0  0  0
  6 25  1  0  0  0
  6 93  1  0  0  0
  6 94  1  0  0  0
  7  8  2  0  0  0
  7 26  1  0  0  0
  7 29  1  0  0  0
  8  9  1  0  0  0
  8 22  1  0  0  0
  9 10  1  0  0  0
  9 27  2  0  0  0
 10 11  2  0  0  0
 10 15  1  0  0  0
 11 12  1  0  0  0
 11 95  1  0  0  0
 12 13  2  0  0  0
 12 96  1  0  0  0
 13 14  1  0  0  0
 13 31  1  0  0  0
 14 15  2  0  0  0
 14 97  1  0  0  0
 15 98  1  0  0  0
 16 17  2  0  0  0
 16 21  1  0  0  0
 16 31  1  0  0  0
 17 18  1  0  0  0
 17 99  1  0  0  0
 18 19  2  0  0  0
 18100  1  0  0  0
 19 20  1  0  0  0
 19 24  1  0  0  0
 20 21  2  0  0  0
 20101  1  0  0  0
 21 23  1  0  0  0
 22 28  1  0  0  0
 22 32  2  0  0  0
 26 27  1  0  0  0
 28102  1  0  0  0
 28103  1  0  0  0
 29104  1  0  0  0
 29105  1  0  0  0
 33 34  1  0  0  0
 33 66  1  0  0  0
 33 70  2  0  0  0
 34 36  1  0  0  0
 34 59  1  0  0  0
 34106  1  0  0  0
 35 44  2  0  0  0
 35 45  1  0  0  0
 35 68  1  0  0  0
 36 56  1  0  0  0
 36107  1  0  0  0
 37 39  1  0  0  0
 37 47  1  0  0  0
 37 66  1  0  0  0
 37108  1  0  0  0
 38 43  2  0  0  0
 38 46  1  0  0  0
 38 47  1  0  0  0
 39 64  1  0  0  0
 39 67  2  0  0  0
 40 52  1  0  0  0
 40 53  2  0  0  0
 40 58  1  0  0  0
 41109  1  0  0  0
 41110  1  0  0  0
 41111  1  0  0  0
 41 48  1  0  0  0
 42 43  1  0  0  0
 42 66  1  0  0  0
 42112  1  0  0  0
 42113  1  0  0  0
 43 44  1  0  0  0
 44114  1  0  0  0
 45 46  2  0  0  0
 45115  1  0  0  0
 46116  1  0  0  0
 47117  1  0  0  0
 47118  1  0  0  0
 48 56  1  0  0  0
 48 65  1  0  0  0
 48119  1  0  0  0
 49 50  1  0  0  0
 49 53  1  0  0  0
 49 64  1  0  0  0
 49120  1  0  0  0
 50 51  1  0  0  0
 50121  1  0  0  0
 50122  1  0  0  0
 51 52  1  0  0  0
 51123  1  0  0  0
 51124  1  0  0  0
 52125  1  0  0  0
 52126  1  0  0  0
 53 54  1  0  0  0
 54 55  2  0  0  0
 54127  1  0  0  0
 55 57  1  0  0  0
 55128  1  0  0  0
 56 69  2  0  0  0
 57 58  2  0  0  0
 57129  1  0  0  0
 58130  1  0  0  0
 59 60  1  0  0  0
 59 61  1  0  0  0
 59 62  1  0  0  0
 60131  1  0  0  0
 60132  1  0  0  0
 60133  1  0  0  0
 61134  1  0  0  0
 61135  1  0  0  0
 61136  1  0  0  0
 62137  1  0  0  0
 62138  1  0  0  0
 62139  1  0  0  0
 63 65  1  0  0  0
 63140  1  0  0  0
 63141  1  0  0  0
 63142  1  0  0  0
 64143  1  0  0  0
 65144  1  0  0  0
 68 78  1  0  0  0
 71 72  2  0  0  0
 71 74  1  0  0  0
 71145  1  0  0  0
 72 76  1  0  0  0
 72146  1  0  0  0
 73 74  2  0  0  0
 73 75  1  0  0  0
 73147  1  0  0  0
 74 79  1  0  0  0
 75 76  2  0  0  0
 75 81  1  0  0  0
 76 85  1  0  0  0
 77 78  2  0  0  0
 77 80  1  0  0  0
 77148  1  0  0  0
 78149  1  0  0  0
 79 82  1  0  0  0
 79 83  2  0  0  0
 80 82  1  0  0  0
 80 84  2  0  0  0
 81150  1  0  0  0
 82151  1  0  0  0
M  ISO  4   1 100  68 101  78 101  81 100
M  END
> <chiral flag>
0

> <version>
0

> <s_m_source_file>
/data/baiqing/PycharmProjects/Reinvent-master-3.2/result/LINK_invent/BTK/process_docking_weight1_custom_product_contain_oxygen_bond_distance_aromatic_linkinvent_7_9_3/rearranged_h_0089.sdf

> <i_m_source_file_index>
64

> <r_mmod_Potential_Energy-OPLS-2005>
-54.9478302001953

> <r_mmod_Stretch_Energy-OPLS-2005>
64.4987335205078

> <r_mmod_Bend_Energy-OPLS-2005>
159.395767211914

> <r_mmod_Torsional_Energy-OPLS-2005>
294.438079833984

> <r_mmod_Improper_Torsional_Energy-OPLS-2005>
7.6679515838623

> <r_mmod_Van_der_Waal_Energy-OPLS-2005>
150.435577392578

> <r_mmod_Electrostatic_Energy-OPLS-2005>
-499.857421875

> <r_mmod_Solvation_Energy-OPLS-2005>
-281.929748535156

> <b_mmod_Minimization_Converged-OPLS-2005>
0

> <r_mmod_RMS_Derivative-OPLS-2005>
0.0837531015276909

$$$$
64
                    3D
 Structure written by MMmdl.
156164  0  0  1  0            999 V2000
  -30.5742  -14.8322   20.4160 C   0  0  0  0  0  0
  -30.4323  -12.5023   19.4969 C   0  0  0  0  0  0
  -29.5173  -12.5163   18.2513 C   0  0  0  0  0  0
  -28.0432  -12.3319   18.6609 C   0  0  0  0  0  0
  -27.6370  -13.2446   19.8481 C   0  0  2  0  0  0
  -28.6783  -13.2107   20.9891 C   0  0  0  0  0  0
  -25.2475  -13.8224   20.5704 C   0  0  0  0  0  0
  -24.1780  -13.0445   20.9197 C   0  0  0  0  0  0
  -24.6387  -11.6928   20.8735 C   0  0  0  0  0  0
  -23.9071  -10.4294   21.0408 C   0  0  0  0  0  0
  -24.3615   -9.4203   21.9187 C   0  0  0  0  0  0
  -23.6293   -8.2237   22.0755 C   0  0  0  0  0  0
  -22.4276   -8.0279   21.3541 C   0  0  0  0  0  0
  -21.9906   -9.0254   20.4651 C   0  0  0  0  0  0
  -22.7240  -10.2129   20.3059 C   0  0  0  0  0  0
  -21.6862   -6.0723   22.5272 C   0  0  0  0  0  0
  -21.4020   -6.5623   23.8205 C   0  0  0  0  0  0
  -21.3660   -5.6776   24.9165 C   0  0  0  0  0  0
  -21.6048   -4.3043   24.7220 C   0  0  0  0  0  0
  -21.8820   -3.8132   23.4341 C   0  0  0  0  0  0
  -21.9189   -4.6948   22.3394 C   0  0  0  0  0  0
  -22.7796  -13.5219   21.1855 C   0  0  0  0  0  0
  -22.1658   -4.2131   21.0973 F   0  0  0  0  0  0
  -21.5628   -3.4530   25.7731 F   0  0  0  0  0  0
  -29.9729  -13.5841   20.4080 N   0  0  0  0  0  0
  -26.2910  -12.9455   20.3261 N   0  0  0  0  0  0
  -25.9326  -11.6580   20.5735 N   0  0  0  0  0  0
  -22.0443  -12.8225   22.0424 N   0  0  0  0  0  0
  -25.4154  -15.1956   20.4143 N   0  0  0  0  0  0
  -31.7664  -14.9052   20.0958 O   0  0  0  0  0  0
  -21.6639   -6.8878   21.4237 O   0  0  0  0  0  0
  -22.3463  -14.5510   20.6689 O   0  0  0  0  0  0
  -24.6372  -31.8498   23.1953 C   0  0  0  0  0  0
  -25.9157  -32.4735   23.8323 C   0  0  1  0  0  0
  -27.2149  -27.2069   20.1426 C   0  0  0  0  0  0
  -25.5923  -33.8537   24.2240 N   0  0  0  0  0  0
  -23.4396  -30.4711   21.5384 C   0  0  2  0  0  0
  -24.8919  -28.9139   20.1074 C   0  0  0  0  0  0
  -22.7544  -29.4567   22.4877 C   0  0  0  0  0  0
  -18.0298  -28.1396   22.8479 C   0  0  0  0  0  0
  -24.1487  -36.7272   23.2642 C   0  0  0  0  0  0
  -25.9920  -30.7450   21.3865 C   0  0  0  0  0  0
  -26.0668  -29.3644   20.7261 C   0  0  0  0  0  0
  -27.2353  -28.5224   20.7352 C   0  0  0  0  0  0
  -26.0255  -26.8468   19.4774 C   0  0  0  0  0  0
  -24.8798  -27.6659   19.4677 C   0  0  0  0  0  0
  -23.6647  -29.8062   20.1552 C   0  0  0  0  0  0
  -25.4114  -36.3065   24.0328 C   0  0  1  0  0  0
  -20.5908  -28.3713   23.1244 C   0  0  2  0  0  0
  -20.6779  -26.9419   22.5407 C   0  0  0  0  0  0
  -19.5758  -26.6381   21.5213 C   0  0  0  0  0  0
  -18.1934  -26.7931   22.1623 C   0  0  0  0  0  0
  -19.1552  -28.8872   23.2852 C   0  0  0  0  0  0
  -18.9473  -30.1465   23.8883 C   0  0  0  0  0  0
  -17.6470  -30.6594   24.0560 C   0  0  0  0  0  0
  -25.9059  -34.9430   23.5094 C   0  0  0  0  0  0
  -16.5362  -29.9089   23.6337 C   0  0  0  0  0  0
  -16.7277  -28.6506   23.0357 C   0  0  0  0  0  0
  -26.4504  -31.6578   25.0737 C   0  0  0  0  0  0
  -25.3701  -31.3745   26.1439 C   0  0  0  0  0  0
  -27.0351  -30.2981   24.6272 C   0  0  0  0  0  0
  -27.6068  -32.4308   25.7506 C   0  0  0  0  0  0
  -27.5583  -37.1796   24.8465 C   0  0  0  0  0  0
  -21.4242  -29.3046   22.3627 N   0  0  0  0  0  0
  -26.4292  -37.3764   23.9411 N   0  0  0  0  0  0
  -24.7088  -31.0410   22.0965 N   0  0  0  0  0  0
  -23.4210  -28.8094   23.2984 O   0  0  0  0  0  0
  -28.2097  -26.1871   20.2252 O   0  0  0  0  0  0
  -26.5652  -34.8913   22.4677 O   0  0  0  0  0  0
  -23.5498  -32.1351   23.7197 O   0  0  0  0  0  0
  -30.1243  -18.7109   17.9170 C   0  0  0  0  0  0
  -29.4135  -18.6551   20.5822 C   0  0  0  0  0  0
  -29.6845  -19.9083   18.5186 C   0  0  0  0  0  0
  -30.2163  -17.4846   18.6046 C   0  0  0  0  0  0
  -29.3436  -19.9670   19.8979 C   0  0  0  0  0  0
  -29.8555  -17.3776   19.9765 C   0  0  0  0  0  0
  -27.8112  -25.0037   20.9406 C   0  0  0  0  0  0
  -28.0453  -23.6063   21.0018 C   0  0  0  0  0  0
  -28.9500  -22.6527   20.2282 C   0  0  0  0  0  0
  -27.2230  -22.8896   22.0796 C   0  0  0  0  0  0
  -29.5443  -21.0074   17.6751 N   0  0  0  0  0  0
  -30.6131  -16.3774   17.8523 N   0  0  0  0  0  0
  -28.8316  -21.2650   20.5082 N   0  0  0  0  0  0
  -29.8061  -15.9953   20.6093 N   0  0  0  0  0  0
  -29.7973  -23.0751   19.4399 O   0  0  0  0  0  0
  -31.4739  -12.6261   19.1961 H   0  0  0  0  0  0
  -30.3847  -11.5348   20.0001 H   0  0  0  0  0  0
  -29.8162  -11.7321   17.5537 H   0  0  0  0  0  0
  -29.6320  -13.4609   17.7173 H   0  0  0  0  0  0
  -27.9114  -11.2868   18.9398 H   0  0  0  0  0  0
  -27.3876  -12.5045   17.8060 H   0  0  0  0  0  0
  -27.6209  -14.2595   19.4496 H   0  0  0  0  0  0
  -28.7281  -12.2181   21.4390 H   0  0  0  0  0  0
  -28.4010  -13.8998   21.7874 H   0  0  0  0  0  0
  -25.2763   -9.5668   22.4747 H   0  0  0  0  0  0
  -23.9995   -7.4631   22.7478 H   0  0  0  0  0  0
  -21.0828   -8.8782   19.8968 H   0  0  0  0  0  0
  -22.3708  -10.9662   19.6159 H   0  0  0  0  0  0
  -21.2024   -7.6134   23.9702 H   0  0  0  0  0  0
  -21.1488   -6.0507   25.9063 H   0  0  0  0  0  0
  -22.0604   -2.7597   23.2841 H   0  0  0  0  0  0
  -22.4052  -11.9909   22.4858 H   0  0  0  0  0  0
  -21.1054  -13.1258   22.2608 H   0  0  0  0  0  0
  -24.6507  -15.8517   20.5326 H   0  0  0  0  0  0
  -26.2653  -15.6332   20.0832 H   0  0  0  0  0  0
  -26.7232  -32.5373   23.1071 H   0  0  0  0  0  0
  -25.0028  -33.9672   25.0357 H   0  0  0  0  0  0
  -22.7393  -31.2950   21.3872 H   0  0  0  0  0  0
  -23.3765  -35.9591   23.3296 H   0  0  0  0  0  0
  -24.3570  -36.8903   22.2059 H   0  0  0  0  0  0
  -23.7233  -37.6463   23.6671 H   0  0  0  0  0  0
  -26.1425  -31.5043   20.6179 H   0  0  0  0  0  0
  -26.8639  -30.7929   22.0257 H   0  0  0  0  0  0
  -28.1256  -28.8490   21.2539 H   0  0  0  0  0  0
  -25.9631  -25.8779   19.0017 H   0  0  0  0  0  0
  -23.9819  -27.3155   18.9760 H   0  0  0  0  0  0
  -23.7984  -30.5827   19.4013 H   0  0  0  0  0  0
  -22.7822  -29.2442   19.8463 H   0  0  0  0  0  0
  -25.1306  -36.1913   25.0824 H   0  0  0  0  0  0
  -21.0003  -28.3295   24.1363 H   0  0  0  0  0  0
  -20.5663  -26.2325   23.3617 H   0  0  0  0  0  0
  -21.6644  -26.7421   22.1213 H   0  0  0  0  0  0
  -19.6912  -25.6288   21.1250 H   0  0  0  0  0  0
  -19.6691  -27.3185   20.6735 H   0  0  0  0  0  0
  -17.4201  -26.6675   21.4026 H   0  0  0  0  0  0
  -18.0333  -26.0080   22.9032 H   0  0  0  0  0  0
  -19.7944  -30.7284   24.2247 H   0  0  0  0  0  0
  -17.5024  -31.6273   24.5169 H   0  0  0  0  0  0
  -15.5360  -30.2988   23.7672 H   0  0  0  0  0  0
  -15.8673  -28.0822   22.7083 H   0  0  0  0  0  0
  -24.5871  -30.7113   25.7747 H   0  0  0  0  0  0
  -24.8902  -32.2918   26.4863 H   0  0  0  0  0  0
  -25.7985  -30.8907   27.0227 H   0  0  0  0  0  0
  -26.2958  -29.6722   24.1267 H   0  0  0  0  0  0
  -27.3969  -29.7256   25.4825 H   0  0  0  0  0  0
  -27.8862  -30.4233   23.9574 H   0  0  0  0  0  0
  -27.2702  -33.3611   26.2089 H   0  0  0  0  0  0
  -28.3875  -32.6861   25.0328 H   0  0  0  0  0  0
  -28.0742  -31.8429   26.5418 H   0  0  0  0  0  0
  -28.2606  -38.0092   24.7517 H   0  0  0  0  0  0
  -28.1077  -36.2628   24.6285 H   0  0  0  0  0  0
  -27.2297  -37.1431   25.8865 H   0  0  0  0  0  0
  -20.9439  -29.8783   21.6839 H   0  0  0  0  0  0
  -26.0172  -38.2834   24.1413 H   0  0  0  0  0  0
  -30.3638  -18.7243   16.8623 H   0  0  0  0  0  0
  -29.0956  -18.6258   21.6136 H   0  0  0  0  0  0
  -27.0921  -25.3532   21.6682 H   0  0  0  0  0  0
  -26.5319  -23.5510   22.6043 H   0  0  0  0  0  0
  -27.8769  -22.4576   22.8384 H   0  0  0  0  0  0
  -26.6071  -22.0971   21.6520 H   0  0  0  0  0  0
  -30.0914  -21.0038   16.8220 H   0  0  0  0  0  0
  -29.6136  -21.9065   18.1600 H   0  0  0  0  0  0
  -31.0389  -16.5722   16.9535 H   0  0  0  0  0  0
  -31.1567  -15.6920   18.3724 H   0  0  0  0  0  0
  -28.2078  -21.1153   21.2878 H   0  0  0  0  0  0
  -28.9371  -15.8048   21.0839 H   0  0  0  0  0  0
  1 25  1  0  0  0
  1 30  2  0  0  0
  1 84  1  0  0  0
  2  3  1  0  0  0
  2 25  1  0  0  0
  2 86  1  0  0  0
  2 87  1  0  0  0
  3  4  1  0  0  0
  3 88  1  0  0  0
  3 89  1  0  0  0
  4  5  1  0  0  0
  4 90  1  0  0  0
  4 91  1  0  0  0
  5  6  1  0  0  0
  5 26  1  0  0  0
  5 92  1  0  0  0
  6 25  1  0  0  0
  6 93  1  0  0  0
  6 94  1  0  0  0
  7  8  2  0  0  0
  7 26  1  0  0  0
  7 29  1  0  0  0
  8  9  1  0  0  0
  8 22  1  0  0  0
  9 10  1  0  0  0
  9 27  2  0  0  0
 10 11  2  0  0  0
 10 15  1  0  0  0
 11 12  1  0  0  0
 11 95  1  0  0  0
 12 13  2  0  0  0
 12 96  1  0  0  0
 13 14  1  0  0  0
 13 31  1  0  0  0
 14 15  2  0  0  0
 14 97  1  0  0  0
 15 98  1  0  0  0
 16 17  2  0  0  0
 16 21  1  0  0  0
 16 31  1  0  0  0
 17 18  1  0  0  0
 17 99  1  0  0  0
 18 19  2  0  0  0
 18100  1  0  0  0
 19 20  1  0  0  0
 19 24  1  0  0  0
 20 21  2  0  0  0
 20101  1  0  0  0
 21 23  1  0  0  0
 22 28  1  0  0  0
 22 32  2  0  0  0
 26 27  1  0  0  0
 28102  1  0  0  0
 28103  1  0  0  0
 29104  1  0  0  0
 29105  1  0  0  0
 33 34  1  0  0  0
 33 66  1  0  0  0
 33 70  2  0  0  0
 34 36  1  0  0  0
 34 59  1  0  0  0
 34106  1  0  0  0
 35 44  2  0  0  0
 35 45  1  0  0  0
 35 68  1  0  0  0
 36 56  1  0  0  0
 36107  1  0  0  0
 37 39  1  0  0  0
 37 47  1  0  0  0
 37 66  1  0  0  0
 37108  1  0  0  0
 38 43  2  0  0  0
 38 46  1  0  0  0
 38 47  1  0  0  0
 39 64  1  0  0  0
 39 67  2  0  0  0
 40 52  1  0  0  0
 40 53  2  0  0  0
 40 58  1  0  0  0
 41109  1  0  0  0
 41110  1  0  0  0
 41111  1  0  0  0
 41 48  1  0  0  0
 42 43  1  0  0  0
 42 66  1  0  0  0
 42112  1  0  0  0
 42113  1  0  0  0
 43 44  1  0  0  0
 44114  1  0  0  0
 45 46  2  0  0  0
 45115  1  0  0  0
 46116  1  0  0  0
 47117  1  0  0  0
 47118  1  0  0  0
 48 56  1  0  0  0
 48 65  1  0  0  0
 48119  1  0  0  0
 49 50  1  0  0  0
 49 53  1  0  0  0
 49 64  1  0  0  0
 49120  1  0  0  0
 50 51  1  0  0  0
 50121  1  0  0  0
 50122  1  0  0  0
 51 52  1  0  0  0
 51123  1  0  0  0
 51124  1  0  0  0
 52125  1  0  0  0
 52126  1  0  0  0
 53 54  1  0  0  0
 54 55  2  0  0  0
 54127  1  0  0  0
 55 57  1  0  0  0
 55128  1  0  0  0
 56 69  2  0  0  0
 57 58  2  0  0  0
 57129  1  0  0  0
 58130  1  0  0  0
 59 60  1  0  0  0
 59 61  1  0  0  0
 59 62  1  0  0  0
 60131  1  0  0  0
 60132  1  0  0  0
 60133  1  0  0  0
 61134  1  0  0  0
 61135  1  0  0  0
 61136  1  0  0  0
 62137  1  0  0  0
 62138  1  0  0  0
 62139  1  0  0  0
 63 65  1  0  0  0
 63140  1  0  0  0
 63141  1  0  0  0
 63142  1  0  0  0
 64143  1  0  0  0
 65144  1  0  0  0
 68 77  1  0  0  0
 71 73  2  0  0  0
 71 74  1  0  0  0
 71145  1  0  0  0
 72 75  2  0  0  0
 72 76  1  0  0  0
 72146  1  0  0  0
 73 75  1  0  0  0
 73 81  1  0  0  0
 74 76  2  0  0  0
 74 82  1  0  0  0
 75 83  1  0  0  0
 76 84  1  0  0  0
 77 78  2  0  0  0
 77147  1  0  0  0
 78 79  1  0  0  0
 78 80  1  0  0  0
 79 83  1  0  0  0
 79 85  2  0  0  0
 80148  1  0  0  0
 80149  1  0  0  0
 80150  1  0  0  0
 81151  1  0  0  0
 81152  1  0  0  0
 82153  1  0  0  0
 82154  1  0  0  0
 83155  1  0  0  0
 84156  1  0  0  0
M  ISO  4   1 100  68 101  77 101  84 100
M  END
> <chiral flag>
0

> <version>
0

> <s_m_source_file>
/data/baiqing/PycharmProjects/Reinvent-master-3.2/result/LINK_invent/BTK/process_docking_weight1_custom_product_contain_oxygen_bond_distance_aromatic_linkinvent_7_9_3/rearranged_h_0089.sdf

> <i_m_source_file_index>
65

> <r_mmod_Potential_Energy-OPLS-2005>
239.469619750977

> <r_mmod_Stretch_Energy-OPLS-2005>
184.74479675293

> <r_mmod_Bend_Energy-OPLS-2005>
255.666931152344

> <r_mmod_Torsional_Energy-OPLS-2005>
279.025512695312

> <r_mmod_Improper_Torsional_Energy-OPLS-2005>
15.7097015380859

> <r_mmod_Van_der_Waal_Energy-OPLS-2005>
169.792602539062

> <r_mmod_Electrostatic_Energy-OPLS-2005>
-571.100036621094

> <r_mmod_Solvation_Energy-OPLS-2005>
-232.182189941406

> <b_mmod_Minimization_Converged-OPLS-2005>
0

> <r_mmod_RMS_Derivative-OPLS-2005>
1.96687388420105

$$$$
65
                    3D
 Structure written by MMmdl.
152160  0  0  1  0            999 V2000
  -30.6182  -14.6389   20.5220 C   0  0  0  0  0  0
  -30.4419  -12.3974   19.4511 C   0  0  0  0  0  0
  -29.5090  -12.5178   18.2250 C   0  0  0  0  0  0
  -28.0324  -12.3513   18.6360 C   0  0  0  0  0  0
  -27.6568  -13.2158   19.8686 C   0  0  2  0  0  0
  -28.7004  -13.0548   20.9972 C   0  0  0  0  0  0
  -25.2573  -13.8168   20.5682 C   0  0  0  0  0  0
  -24.1836  -13.0436   20.9182 C   0  0  0  0  0  0
  -24.6401  -11.6906   20.8733 C   0  0  0  0  0  0
  -23.9067  -10.4291   21.0403 C   0  0  0  0  0  0
  -24.3617   -9.4207   21.9183 C   0  0  0  0  0  0
  -23.6289   -8.2244   22.0753 C   0  0  0  0  0  0
  -22.4273   -8.0281   21.3542 C   0  0  0  0  0  0
  -21.9907   -9.0258   20.4648 C   0  0  0  0  0  0
  -22.7237  -10.2136   20.3056 C   0  0  0  0  0  0
  -21.6852   -6.0735   22.5278 C   0  0  0  0  0  0
  -21.4015   -6.5640   23.8211 C   0  0  0  0  0  0
  -21.3659   -5.6793   24.9173 C   0  0  0  0  0  0
  -21.6044   -4.3055   24.7225 C   0  0  0  0  0  0
  -21.8819   -3.8147   23.4345 C   0  0  0  0  0  0
  -21.9193   -4.6962   22.3401 C   0  0  0  0  0  0
  -22.7858  -13.5234   21.1847 C   0  0  0  0  0  0
  -22.1661   -4.2148   21.0979 F   0  0  0  0  0  0
  -21.5627   -3.4540   25.7737 F   0  0  0  0  0  0
  -30.0179  -13.4079   20.4415 N   0  0  0  0  0  0
  -26.3006  -12.9348   20.3335 N   0  0  0  0  0  0
  -25.9332  -11.6503   20.5760 N   0  0  0  0  0  0
  -22.0501  -12.8231   22.0406 N   0  0  0  0  0  0
  -25.4293  -15.1888   20.4098 N   0  0  0  0  0  0
  -31.7568  -14.8302   20.0835 O   0  0  0  0  0  0
  -21.6637   -6.8879   21.4239 O   0  0  0  0  0  0
  -22.3546  -14.5542   20.6697 O   0  0  0  0  0  0
  -24.6267  -31.8598   23.2033 C   0  0  0  0  0  0
  -25.9114  -32.4779   23.8359 C   0  0  1  0  0  0
  -27.2239  -27.3144   20.1123 C   0  0  0  0  0  0
  -25.5928  -33.8580   24.2283 N   0  0  0  0  0  0
  -23.4206  -30.4845   21.5458 C   0  0  2  0  0  0
  -24.8673  -28.9425   20.1094 C   0  0  0  0  0  0
  -22.7479  -29.4624   22.4930 C   0  0  0  0  0  0
  -18.0288  -28.1386   22.8485 C   0  0  0  0  0  0
  -24.1490  -36.7296   23.2638 C   0  0  0  0  0  0
  -25.9631  -30.7878   21.3770 C   0  0  0  0  0  0
  -26.0365  -29.4156   20.7179 C   0  0  0  0  0  0
  -27.2164  -28.6121   20.7134 C   0  0  0  0  0  0
  -26.0318  -26.9041   19.4678 C   0  0  0  0  0  0
  -24.8673  -27.6921   19.4760 C   0  0  0  0  0  0
  -23.6358  -29.8228   20.1601 C   0  0  0  0  0  0
  -25.4114  -36.3084   24.0328 C   0  0  1  0  0  0
  -20.5889  -28.3691   23.1279 C   0  0  2  0  0  0
  -20.6777  -26.9413   22.5410 C   0  0  0  0  0  0
  -19.5753  -26.6384   21.5212 C   0  0  0  0  0  0
  -18.1933  -26.7928   22.1624 C   0  0  0  0  0  0
  -19.1541  -28.8855   23.2878 C   0  0  0  0  0  0
  -18.9463  -30.1456   23.8895 C   0  0  0  0  0  0
  -17.6463  -30.6586   24.0564 C   0  0  0  0  0  0
  -25.9051  -34.9452   23.5105 C   0  0  0  0  0  0
  -16.5354  -29.9086   23.6329 C   0  0  0  0  0  0
  -16.7275  -28.6504   23.0348 C   0  0  0  0  0  0
  -26.4498  -31.6588   25.0728 C   0  0  0  0  0  0
  -25.3733  -31.3728   26.1457 C   0  0  0  0  0  0
  -27.0339  -30.3010   24.6186 C   0  0  0  0  0  0
  -27.6057  -32.4323   25.7497 C   0  0  0  0  0  0
  -27.5581  -37.1803   24.8464 C   0  0  0  0  0  0
  -21.4192  -29.3044   22.3672 N   0  0  0  0  0  0
  -26.4293  -37.3778   23.9408 N   0  0  0  0  0  0
  -24.6889  -31.0606   22.0987 N   0  0  0  0  0  0
  -23.4201  -28.8158   23.3008 O   0  0  0  0  0  0
  -28.3337  -26.4520   20.1772 O   0  0  0  0  0  0
  -26.5619  -34.8918   22.4671 O   0  0  0  0  0  0
  -23.5429  -32.1397   23.7357 O   0  0  0  0  0  0
  -30.0373  -17.9160   22.0614 C   0  0  0  0  0  0
  -29.5710  -19.2123   19.6256 C   0  0  0  0  0  0
  -29.9233  -19.3367   22.0071 C   0  0  0  0  0  0
  -29.9290  -17.1011   20.9050 C   0  0  0  0  0  0
  -29.6733  -20.0276   20.7898 C   0  0  0  0  0  0
  -29.6927  -17.7858   19.6808 C   0  0  0  0  0  0
  -29.1164  -23.9553   20.4547 C   0  0  0  0  0  0
  -28.9668  -22.4056   20.0209 C   0  0  0  0  0  0
  -28.1073  -25.0149   19.8615 C   0  0  0  0  0  0
  -30.0281  -20.0682   23.1917 N   0  0  0  0  0  0
  -29.5975  -21.4940   20.8247 N   0  0  0  0  0  0
  -29.8511  -15.6465   21.0364 N   0  0  0  0  0  0
  -29.9961  -24.3088   21.2511 O   0  0  0  0  0  0
  -28.3176  -22.0788   19.0218 O   0  0  0  0  0  0
  -29.5306  -17.0650   18.5448 F   0  0  0  0  0  0
  -31.4822  -12.5295   19.1485 H   0  0  0  0  0  0
  -30.3825  -11.3973   19.8835 H   0  0  0  0  0  0
  -29.7738  -11.7724   17.4741 H   0  0  0  0  0  0
  -29.6489  -13.4913   17.7520 H   0  0  0  0  0  0
  -27.8703  -11.2968   18.8625 H   0  0  0  0  0  0
  -27.3773  -12.5853   17.7959 H   0  0  0  0  0  0
  -27.6808  -14.2544   19.5377 H   0  0  0  0  0  0
  -28.7128  -12.0266   21.3615 H   0  0  0  0  0  0
  -28.4392  -13.6670   21.8613 H   0  0  0  0  0  0
  -25.2764   -9.5681   22.4756 H   0  0  0  0  0  0
  -23.9996   -7.4637   22.7475 H   0  0  0  0  0  0
  -21.0834   -8.8782   19.8959 H   0  0  0  0  0  0
  -22.3696  -10.9677   19.6166 H   0  0  0  0  0  0
  -21.2009   -7.6149   23.9714 H   0  0  0  0  0  0
  -21.1480   -6.0523   25.9076 H   0  0  0  0  0  0
  -22.0598   -2.7608   23.2847 H   0  0  0  0  0  0
  -22.4112  -11.9891   22.4794 H   0  0  0  0  0  0
  -21.1124  -13.1270   22.2622 H   0  0  0  0  0  0
  -24.6619  -15.8435   20.5142 H   0  0  0  0  0  0
  -26.2790  -15.6257   20.0753 H   0  0  0  0  0  0
  -26.7182  -32.5447   23.1107 H   0  0  0  0  0  0
  -25.0074  -33.9726   25.0427 H   0  0  0  0  0  0
  -22.7146  -31.3055   21.4041 H   0  0  0  0  0  0
  -23.3749  -35.9633   23.3304 H   0  0  0  0  0  0
  -24.3581  -36.8913   22.2052 H   0  0  0  0  0  0
  -23.7249  -37.6501   23.6658 H   0  0  0  0  0  0
  -26.0972  -31.5514   20.6095 H   0  0  0  0  0  0
  -26.8429  -30.8351   22.0071 H   0  0  0  0  0  0
  -28.1107  -28.9687   21.2053 H   0  0  0  0  0  0
  -25.9627  -25.9573   18.9536 H   0  0  0  0  0  0
  -23.9736  -27.3269   18.9887 H   0  0  0  0  0  0
  -23.7562  -30.6011   19.4058 H   0  0  0  0  0  0
  -22.7554  -29.2538   19.8556 H   0  0  0  0  0  0
  -25.1294  -36.1938   25.0821 H   0  0  0  0  0  0
  -20.9983  -28.3269   24.1399 H   0  0  0  0  0  0
  -20.5678  -26.2302   23.3611 H   0  0  0  0  0  0
  -21.6646  -26.7441   22.1204 H   0  0  0  0  0  0
  -19.6915  -25.6294   21.1242 H   0  0  0  0  0  0
  -19.6690  -27.3193   20.6742 H   0  0  0  0  0  0
  -17.4202  -26.6672   21.4028 H   0  0  0  0  0  0
  -18.0336  -26.0071   22.9022 H   0  0  0  0  0  0
  -19.7940  -30.7273   24.2263 H   0  0  0  0  0  0
  -17.5018  -31.6265   24.5168 H   0  0  0  0  0  0
  -15.5355  -30.2988   23.7652 H   0  0  0  0  0  0
  -15.8676  -28.0825   22.7060 H   0  0  0  0  0  0
  -24.5908  -30.7075   25.7790 H   0  0  0  0  0  0
  -24.8925  -32.2895   26.4881 H   0  0  0  0  0  0
  -25.8061  -30.8908   27.0232 H   0  0  0  0  0  0
  -26.2912  -29.6760   24.1212 H   0  0  0  0  0  0
  -27.4036  -29.7267   25.4692 H   0  0  0  0  0  0
  -27.8785  -30.4293   23.9412 H   0  0  0  0  0  0
  -27.2667  -33.3621   26.2078 H   0  0  0  0  0  0
  -28.3864  -32.6888   25.0322 H   0  0  0  0  0  0
  -28.0730  -31.8446   26.5409 H   0  0  0  0  0  0
  -28.2600  -38.0098   24.7507 H   0  0  0  0  0  0
  -28.1074  -36.2629   24.6293 H   0  0  0  0  0  0
  -27.2298  -37.1457   25.8867 H   0  0  0  0  0  0
  -20.9369  -29.8773   21.6888 H   0  0  0  0  0  0
  -26.0174  -38.2854   24.1406 H   0  0  0  0  0  0
  -30.1836  -17.4333   23.0169 H   0  0  0  0  0  0
  -29.3902  -19.6730   18.6664 H   0  0  0  0  0  0
  -27.1311  -24.7114   20.2395 H   0  0  0  0  0  0
  -28.0828  -24.8936   18.7784 H   0  0  0  0  0  0
  -29.9937  -19.5416   24.0590 H   0  0  0  0  0  0
  -29.4667  -20.9098   23.2579 H   0  0  0  0  0  0
  -30.0482  -21.9140   21.6274 H   0  0  0  0  0  0
  -29.0037  -15.3143   21.4698 H   0  0  0  0  0  0
  1 25  1  0  0  0
  1 30  2  0  0  0
  1 82  1  0  0  0
  2  3  1  0  0  0
  2 25  1  0  0  0
  2 86  1  0  0  0
  2 87  1  0  0  0
  3  4  1  0  0  0
  3 88  1  0  0  0
  3 89  1  0  0  0
  4  5  1  0  0  0
  4 90  1  0  0  0
  4 91  1  0  0  0
  5  6  1  0  0  0
  5 26  1  0  0  0
  5 92  1  0  0  0
  6 25  1  0  0  0
  6 93  1  0  0  0
  6 94  1  0  0  0
  7  8  2  0  0  0
  7 26  1  0  0  0
  7 29  1  0  0  0
  8  9  1  0  0  0
  8 22  1  0  0  0
  9 10  1  0  0  0
  9 27  2  0  0  0
 10 11  2  0  0  0
 10 15  1  0  0  0
 11 12  1  0  0  0
 11 95  1  0  0  0
 12 13  2  0  0  0
 12 96  1  0  0  0
 13 14  1  0  0  0
 13 31  1  0  0  0
 14 15  2  0  0  0
 14 97  1  0  0  0
 15 98  1  0  0  0
 16 17  2  0  0  0
 16 21  1  0  0  0
 16 31  1  0  0  0
 17 18  1  0  0  0
 17 99  1  0  0  0
 18 19  2  0  0  0
 18100  1  0  0  0
 19 20  1  0  0  0
 19 24  1  0  0  0
 20 21  2  0  0  0
 20101  1  0  0  0
 21 23  1  0  0  0
 22 28  1  0  0  0
 22 32  2  0  0  0
 26 27  1  0  0  0
 28102  1  0  0  0
 28103  1  0  0  0
 29104  1  0  0  0
 29105  1  0  0  0
 33 34  1  0  0  0
 33 66  1  0  0  0
 33 70  2  0  0  0
 34 36  1  0  0  0
 34 59  1  0  0  0
 34106  1  0  0  0
 35 44  2  0  0  0
 35 45  1  0  0  0
 35 68  1  0  0  0
 36 56  1  0  0  0
 36107  1  0  0  0
 37 39  1  0  0  0
 37 47  1  0  0  0
 37 66  1  0  0  0
 37108  1  0  0  0
 38 43  2  0  0  0
 38 46  1  0  0  0
 38 47  1  0  0  0
 39 64  1  0  0  0
 39 67  2  0  0  0
 40 52  1  0  0  0
 40 53  2  0  0  0
 40 58  1  0  0  0
 41109  1  0  0  0
 41110  1  0  0  0
 41111  1  0  0  0
 41 48  1  0  0  0
 42 43  1  0  0  0
 42 66  1  0  0  0
 42112  1  0  0  0
 42113  1  0  0  0
 43 44  1  0  0  0
 44114  1  0  0  0
 45 46  2  0  0  0
 45115  1  0  0  0
 46116  1  0  0  0
 47117  1  0  0  0
 47118  1  0  0  0
 48 56  1  0  0  0
 48 65  1  0  0  0
 48119  1  0  0  0
 49 50  1  0  0  0
 49 53  1  0  0  0
 49 64  1  0  0  0
 49120  1  0  0  0
 50 51  1  0  0  0
 50121  1  0  0  0
 50122  1  0  0  0
 51 52  1  0  0  0
 51123  1  0  0  0
 51124  1  0  0  0
 52125  1  0  0  0
 52126  1  0  0  0
 53 54  1  0  0  0
 54 55  2  0  0  0
 54127  1  0  0  0
 55 57  1  0  0  0
 55128  1  0  0  0
 56 69  2  0  0  0
 57 58  2  0  0  0
 57129  1  0  0  0
 58130  1  0  0  0
 59 60  1  0  0  0
 59 61  1  0  0  0
 59 62  1  0  0  0
 60131  1  0  0  0
 60132  1  0  0  0
 60133  1  0  0  0
 61134  1  0  0  0
 61135  1  0  0  0
 61136  1  0  0  0
 62137  1  0  0  0
 62138  1  0  0  0
 62139  1  0  0  0
 63 65  1  0  0  0
 63140  1  0  0  0
 63141  1  0  0  0
 63142  1  0  0  0
 64143  1  0  0  0
 65144  1  0  0  0
 68 79  1  0  0  0
 71 73  2  0  0  0
 71 74  1  0  0  0
 71145  1  0  0  0
 72 75  2  0  0  0
 72 76  1  0  0  0
 72146  1  0  0  0
 73 75  1  0  0  0
 73 80  1  0  0  0
 74 76  2  0  0  0
 74 82  1  0  0  0
 75 81  1  0  0  0
 76 85  1  0  0  0
 77 78  1  0  0  0
 77 79  1  0  0  0
 77 83  2  0  0  0
 78 81  1  0  0  0
 78 84  2  0  0  0
 79147  1  0  0  0
 79148  1  0  0  0
 80149  1  0  0  0
 80150  1  0  0  0
 81151  1  0  0  0
 82152  1  0  0  0
M  ISO  4   1 100  68 101  79 101  82 100
M  END
> <chiral flag>
0

> <version>
0

> <s_m_source_file>
/data/baiqing/PycharmProjects/Reinvent-master-3.2/result/LINK_invent/BTK/process_docking_weight1_custom_product_contain_oxygen_bond_distance_aromatic_linkinvent_7_9_3/rearranged_h_0089.sdf

> <i_m_source_file_index>
66

> <r_mmod_Potential_Energy-OPLS-2005>
-17.2929630279541

> <r_mmod_Stretch_Energy-OPLS-2005>
83.5726699829102

> <r_mmod_Bend_Energy-OPLS-2005>
135.093780517578

> <r_mmod_Torsional_Energy-OPLS-2005>
251.525985717773

> <r_mmod_Improper_Torsional_Energy-OPLS-2005>
8.3425235748291

> <r_mmod_Van_der_Waal_Energy-OPLS-2005>
146.209381103516

> <r_mmod_Electrostatic_Energy-OPLS-2005>
-440.282653808594

> <r_mmod_Solvation_Energy-OPLS-2005>
-251.822723388672

> <b_mmod_Minimization_Converged-OPLS-2005>
0

> <r_mmod_RMS_Derivative-OPLS-2005>
0.323427885770798

$$$$
66
                    3D
 Structure written by MMmdl.
157166  0  0  1  0            999 V2000
  -30.7677  -14.4334   20.6409 C   0  0  0  0  0  0
  -30.4103  -12.3137   19.4275 C   0  0  0  0  0  0
  -29.4930  -12.5078   18.2074 C   0  0  0  0  0  0
  -28.0133  -12.3669   18.6120 C   0  0  0  0  0  0
  -27.6526  -13.2141   19.8644 C   0  0  2  0  0  0
  -28.6906  -13.0263   20.9948 C   0  0  0  0  0  0
  -25.2540  -13.8184   20.5678 C   0  0  0  0  0  0
  -24.1801  -13.0467   20.9203 C   0  0  0  0  0  0
  -24.6371  -11.6933   20.8740 C   0  0  0  0  0  0
  -23.9061  -10.4324   21.0408 C   0  0  0  0  0  0
  -24.3611   -9.4228   21.9171 C   0  0  0  0  0  0
  -23.6288   -8.2263   22.0746 C   0  0  0  0  0  0
  -22.4262   -8.0305   21.3562 C   0  0  0  0  0  0
  -21.9909   -9.0279   20.4667 C   0  0  0  0  0  0
  -22.7242  -10.2154   20.3068 C   0  0  0  0  0  0
  -21.6856   -6.0745   22.5292 C   0  0  0  0  0  0
  -21.4010   -6.5638   23.8233 C   0  0  0  0  0  0
  -21.3659   -5.6786   24.9193 C   0  0  0  0  0  0
  -21.6051   -4.3053   24.7232 C   0  0  0  0  0  0
  -21.8814   -3.8159   23.4343 C   0  0  0  0  0  0
  -21.9188   -4.6979   22.3410 C   0  0  0  0  0  0
  -22.7820  -13.5261   21.1862 C   0  0  0  0  0  0
  -22.1654   -4.2169   21.0989 F   0  0  0  0  0  0
  -21.5632   -3.4537   25.7734 F   0  0  0  0  0  0
  -30.0212  -13.3133   20.4360 N   0  0  0  0  0  0
  -26.2962  -12.9377   20.3295 N   0  0  0  0  0  0
  -25.9275  -11.6530   20.5711 N   0  0  0  0  0  0
  -22.0433  -12.8296   22.0415 N   0  0  0  0  0  0
  -25.4270  -15.1912   20.4089 N   0  0  0  0  0  0
  -31.8950  -14.5559   20.1514 O   0  0  0  0  0  0
  -21.6650   -6.8882   21.4253 O   0  0  0  0  0  0
  -22.3537  -14.5579   20.6699 O   0  0  0  0  0  0
  -24.6198  -31.8692   23.2113 C   0  0  0  0  0  0
  -25.9117  -32.4809   23.8386 C   0  0  1  0  0  0
  -27.1976  -27.4078   20.0779 C   0  0  0  0  0  0
  -25.5984  -33.8612   24.2330 N   0  0  0  0  0  0
  -23.4007  -30.5008   21.5570 C   0  0  2  0  0  0
  -24.8345  -28.9750   20.1111 C   0  0  0  0  0  0
  -22.7421  -29.4662   22.5002 C   0  0  0  0  0  0
  -18.0262  -28.1353   22.8481 C   0  0  0  0  0  0
  -24.1499  -36.7309   23.2625 C   0  0  0  0  0  0
  -25.9364  -30.8275   21.3672 C   0  0  0  0  0  0
  -26.0045  -29.4644   20.7058 C   0  0  0  0  0  0
  -27.1919  -28.6904   20.6860 C   0  0  0  0  0  0
  -26.0027  -26.9538   19.4684 C   0  0  0  0  0  0
  -24.8289  -27.7181   19.4937 C   0  0  0  0  0  0
  -23.6046  -29.8505   20.1658 C   0  0  0  0  0  0
  -25.4120  -36.3101   24.0316 C   0  0  1  0  0  0
  -20.5861  -28.3647   23.1327 C   0  0  2  0  0  0
  -20.6761  -26.9396   22.5418 C   0  0  0  0  0  0
  -19.5737  -26.6368   21.5211 C   0  0  0  0  0  0
  -18.1915  -26.7892   22.1607 C   0  0  0  0  0  0
  -19.1523  -28.8812   23.2890 C   0  0  0  0  0  0
  -18.9456  -30.1421   23.8891 C   0  0  0  0  0  0
  -17.6466  -30.6565   24.0558 C   0  0  0  0  0  0
  -25.9064  -34.9469   23.5111 C   0  0  0  0  0  0
  -16.5348  -29.9069   23.6321 C   0  0  0  0  0  0
  -16.7255  -28.6488   23.0327 C   0  0  0  0  0  0
  -26.4506  -31.6581   25.0727 C   0  0  0  0  0  0
  -25.3785  -31.3737   26.1499 C   0  0  0  0  0  0
  -27.0321  -30.2998   24.6138 C   0  0  0  0  0  0
  -27.6048  -32.4299   25.7532 C   0  0  0  0  0  0
  -27.5578  -37.1822   24.8459 C   0  0  0  0  0  0
  -21.4149  -29.3019   22.3747 N   0  0  0  0  0  0
  -26.4289  -37.3806   23.9404 N   0  0  0  0  0  0
  -24.6710  -31.0791   22.1028 N   0  0  0  0  0  0
  -23.4196  -28.8194   23.3031 O   0  0  0  0  0  0
  -28.3309  -26.6095   20.1025 O   0  0  0  0  0  0
  -26.5604  -34.8923   22.4657 O   0  0  0  0  0  0
  -23.5393  -32.1460   23.7509 O   0  0  0  0  0  0
  -30.5587  -18.8379   22.7068 C   0  0  0  0  0  0
  -30.4001  -20.2170   22.4576 C   0  0  0  0  0  0
  -29.7835  -18.3376   20.4547 C   0  0  0  0  0  0
  -30.3074  -17.8874   21.6892 C   0  0  0  0  0  0
  -29.9867  -20.6742   21.1828 C   0  0  0  0  0  0
  -29.6341  -19.7197   20.1966 C   0  0  0  0  0  0
  -30.5238  -24.7668   20.3825 C   0  0  0  0  0  0
  -31.3772  -22.6169   20.9623 C   0  0  0  0  0  0
  -29.2670  -24.2826   20.2916 C   0  0  0  0  0  0
  -31.6331  -23.9097   20.7208 C   0  0  0  0  0  0
  -28.9998  -22.8404   20.5218 C   0  0  0  0  0  0
  -30.8357  -16.4825   21.8436 C   0  0  0  0  0  0
  -28.0880  -25.1872   19.9555 C   0  0  0  0  0  0
  -30.0799  -22.0723   20.8723 N   0  0  0  0  0  0
  -30.1668  -15.4653   21.2683 N   0  0  0  0  0  0
  -27.8659  -22.3543   20.4211 O   0  0  0  0  0  0
  -31.8799  -16.3182   22.4875 O   0  0  0  0  0  0
  -32.8824  -24.3854   20.7804 O   0  0  0  0  0  0
  -29.2507  -20.1189   18.9602 F   0  0  0  0  0  0
  -31.4604  -12.3903   19.1320 H   0  0  0  0  0  0
  -30.2966  -11.3079   19.8344 H   0  0  0  0  0  0
  -29.7432  -11.7776   17.4383 H   0  0  0  0  0  0
  -29.6670  -13.4897   17.7644 H   0  0  0  0  0  0
  -27.8254  -11.3085   18.8064 H   0  0  0  0  0  0
  -27.3697  -12.6487   17.7761 H   0  0  0  0  0  0
  -27.6893  -14.2586   19.5493 H   0  0  0  0  0  0
  -28.6652  -12.0037   21.3748 H   0  0  0  0  0  0
  -28.4441  -13.6635   21.8474 H   0  0  0  0  0  0
  -25.2754   -9.5716   22.4741 H   0  0  0  0  0  0
  -24.0033   -7.4652   22.7440 H   0  0  0  0  0  0
  -21.0864   -8.8809   19.8948 H   0  0  0  0  0  0
  -22.3715  -10.9698   19.6180 H   0  0  0  0  0  0
  -21.1997   -7.6154   23.9756 H   0  0  0  0  0  0
  -21.1476   -6.0506   25.9102 H   0  0  0  0  0  0
  -22.0581   -2.7614   23.2846 H   0  0  0  0  0  0
  -22.4027  -11.9989   22.4880 H   0  0  0  0  0  0
  -21.1036  -13.1336   22.2538 H   0  0  0  0  0  0
  -24.6555  -15.8413   20.5178 H   0  0  0  0  0  0
  -26.2726  -15.6348   20.0749 H   0  0  0  0  0  0
  -26.7185  -32.5506   23.1137 H   0  0  0  0  0  0
  -25.0204  -33.9764   25.0527 H   0  0  0  0  0  0
  -22.6894  -31.3194   21.4329 H   0  0  0  0  0  0
  -23.3751  -35.9662   23.3317 H   0  0  0  0  0  0
  -24.3577  -36.8890   22.2032 H   0  0  0  0  0  0
  -23.7273  -37.6523   23.6632 H   0  0  0  0  0  0
  -26.0639  -31.5979   20.6041 H   0  0  0  0  0  0
  -26.8158  -30.8625   21.9987 H   0  0  0  0  0  0
  -28.0890  -29.0662   21.1573 H   0  0  0  0  0  0
  -25.9392  -26.0017   18.9644 H   0  0  0  0  0  0
  -23.9297  -27.3324   19.0329 H   0  0  0  0  0  0
  -23.7274  -30.6379   19.4212 H   0  0  0  0  0  0
  -22.7224  -29.2846   19.8580 H   0  0  0  0  0  0
  -25.1310  -36.1932   25.0807 H   0  0  0  0  0  0
  -20.9914  -28.3202   24.1457 H   0  0  0  0  0  0
  -20.5651  -26.2280   23.3610 H   0  0  0  0  0  0
  -21.6649  -26.7444   22.1231 H   0  0  0  0  0  0
  -19.6916  -25.6294   21.1201 H   0  0  0  0  0  0
  -19.6648  -27.3216   20.6772 H   0  0  0  0  0  0
  -17.4200  -26.6647   21.3987 H   0  0  0  0  0  0
  -18.0306  -26.0020   22.8987 H   0  0  0  0  0  0
  -19.7955  -30.7228   24.2241 H   0  0  0  0  0  0
  -17.5038  -31.6240   24.5182 H   0  0  0  0  0  0
  -15.5355  -30.2959   23.7662 H   0  0  0  0  0  0
  -15.8658  -28.0809   22.7013 H   0  0  0  0  0  0
  -24.5947  -30.7064   25.7915 H   0  0  0  0  0  0
  -24.9010  -32.2915   26.4926 H   0  0  0  0  0  0
  -25.8153  -30.8960   27.0277 H   0  0  0  0  0  0
  -26.2883  -29.6776   24.1143 H   0  0  0  0  0  0
  -27.4011  -29.7205   25.4612 H   0  0  0  0  0  0
  -27.8762  -30.4287   23.9361 H   0  0  0  0  0  0
  -27.2625  -33.3583   26.2126 H   0  0  0  0  0  0
  -28.3880  -32.6863   25.0394 H   0  0  0  0  0  0
  -28.0698  -31.8419   26.5457 H   0  0  0  0  0  0
  -28.2611  -38.0105   24.7494 H   0  0  0  0  0  0
  -28.1035  -36.2624   24.6291 H   0  0  0  0  0  0
  -27.2287  -37.1507   25.8860 H   0  0  0  0  0  0
  -20.9315  -29.8829   21.7049 H   0  0  0  0  0  0
  -26.0148  -38.2876   24.1394 H   0  0  0  0  0  0
  -30.9612  -18.5174   23.6590 H   0  0  0  0  0  0
  -30.6685  -20.9241   23.2318 H   0  0  0  0  0  0
  -29.5950  -17.6366   19.6532 H   0  0  0  0  0  0
  -30.6940  -25.8188   20.2075 H   0  0  0  0  0  0
  -32.1469  -21.8970   21.2016 H   0  0  0  0  0  0
  -27.2603  -24.8938   20.6066 H   0  0  0  0  0  0
  -27.8082  -24.9535   18.9260 H   0  0  0  0  0  0
  -29.1662  -15.5305   21.2141 H   0  0  0  0  0  0
  -32.8614  -25.2966   20.5144 H   0  0  0  0  0  0
  1 25  1  0  0  0
  1 30  2  0  0  0
  1 85  1  0  0  0
  2  3  1  0  0  0
  2 25  1  0  0  0
  2 90  1  0  0  0
  2 91  1  0  0  0
  3  4  1  0  0  0
  3 92  1  0  0  0
  3 93  1  0  0  0
  4  5  1  0  0  0
  4 94  1  0  0  0
  4 95  1  0  0  0
  5  6  1  0  0  0
  5 26  1  0  0  0
  5 96  1  0  0  0
  6 25  1  0  0  0
  6 97  1  0  0  0
  6 98  1  0  0  0
  7  8  2  0  0  0
  7 26  1  0  0  0
  7 29  1  0  0  0
  8  9  1  0  0  0
  8 22  1  0  0  0
  9 10  1  0  0  0
  9 27  2  0  0  0
 10 11  2  0  0  0
 10 15  1  0  0  0
 11 12  1  0  0  0
 11 99  1  0  0  0
 12 13  2  0  0  0
 12100  1  0  0  0
 13 14  1  0  0  0
 13 31  1  0  0  0
 14 15  2  0  0  0
 14101  1  0  0  0
 15102  1  0  0  0
 16 17  2  0  0  0
 16 21  1  0  0  0
 16 31  1  0  0  0
 17 18  1  0  0  0
 17103  1  0  0  0
 18 19  2  0  0  0
 18104  1  0  0  0
 19 20  1  0  0  0
 19 24  1  0  0  0
 20 21  2  0  0  0
 20105  1  0  0  0
 21 23  1  0  0  0
 22 28  1  0  0  0
 22 32  2  0  0  0
 26 27  1  0  0  0
 28106  1  0  0  0
 28107  1  0  0  0
 29108  1  0  0  0
 29109  1  0  0  0
 33 34  1  0  0  0
 33 66  1  0  0  0
 33 70  2  0  0  0
 34 36  1  0  0  0
 34 59  1  0  0  0
 34110  1  0  0  0
 35 44  2  0  0  0
 35 45  1  0  0  0
 35 68  1  0  0  0
 36 56  1  0  0  0
 36111  1  0  0  0
 37 39  1  0  0  0
 37 47  1  0  0  0
 37 66  1  0  0  0
 37112  1  0  0  0
 38 43  2  0  0  0
 38 46  1  0  0  0
 38 47  1  0  0  0
 39 64  1  0  0  0
 39 67  2  0  0  0
 40 52  1  0  0  0
 40 53  2  0  0  0
 40 58  1  0  0  0
 41113  1  0  0  0
 41114  1  0  0  0
 41115  1  0  0  0
 41 48  1  0  0  0
 42 43  1  0  0  0
 42 66  1  0  0  0
 42116  1  0  0  0
 42117  1  0  0  0
 43 44  1  0  0  0
 44118  1  0  0  0
 45 46  2  0  0  0
 45119  1  0  0  0
 46120  1  0  0  0
 47121  1  0  0  0
 47122  1  0  0  0
 48 56  1  0  0  0
 48 65  1  0  0  0
 48123  1  0  0  0
 49 50  1  0  0  0
 49 53  1  0  0  0
 49 64  1  0  0  0
 49124  1  0  0  0
 50 51  1  0  0  0
 50125  1  0  0  0
 50126  1  0  0  0
 51 52  1  0  0  0
 51127  1  0  0  0
 51128  1  0  0  0
 52129  1  0  0  0
 52130  1  0  0  0
 53 54  1  0  0  0
 54 55  2  0  0  0
 54131  1  0  0  0
 55 57  1  0  0  0
 55132  1  0  0  0
 56 69  2  0  0  0
 57 58  2  0  0  0
 57133  1  0  0  0
 58134  1  0  0  0
 59 60  1  0  0  0
 59 61  1  0  0  0
 59 62  1  0  0  0
 60135  1  0  0  0
 60136  1  0  0  0
 60137  1  0  0  0
 61138  1  0  0  0
 61139  1  0  0  0
 61140  1  0  0  0
 62141  1  0  0  0
 62142  1  0  0  0
 62143  1  0  0  0
 63 65  1  0  0  0
 63144  1  0  0  0
 63145  1  0  0  0
 63146  1  0  0  0
 64147  1  0  0  0
 65148  1  0  0  0
 68 83  1  0  0  0
 71 72  2  0  0  0
 71 74  1  0  0  0
 71149  1  0  0  0
 72 75  1  0  0  0
 72150  1  0  0  0
 73 74  2  0  0  0
 73 76  1  0  0  0
 73151  1  0  0  0
 74 82  1  0  0  0
 75 76  2  0  0  0
 75 84  1  0  0  0
 76 89  1  0  0  0
 77 79  2  0  0  0
 77 80  1  0  0  0
 77152  1  0  0  0
 78 80  2  0  0  0
 78 84  1  0  0  0
 78153  1  0  0  0
 79 81  1  0  0  0
 79 83  1  0  0  0
 80 88  1  0  0  0
 81 84  1  0  0  0
 81 86  2  0  0  0
 82 85  1  0  0  0
 82 87  2  0  0  0
 83154  1  0  0  0
 83155  1  0  0  0
 85156  1  0  0  0
 88157  1  0  0  0
M  ISO  4   1 100  68 101  83 101  85 100
M  END
> <chiral flag>
0

> <version>
0

> <s_m_source_file>
/data/baiqing/PycharmProjects/Reinvent-master-3.2/result/LINK_invent/BTK/process_docking_weight1_custom_product_contain_oxygen_bond_distance_aromatic_linkinvent_7_9_3/rearranged_h_0089.sdf

> <i_m_source_file_index>
67

> <r_mmod_Potential_Energy-OPLS-2005>
-47.2060623168945

> <r_mmod_Stretch_Energy-OPLS-2005>
45.8119697570801

> <r_mmod_Bend_Energy-OPLS-2005>
100.208427429199

> <r_mmod_Torsional_Energy-OPLS-2005>
300.255859375

> <r_mmod_Improper_Torsional_Energy-OPLS-2005>
5.60995578765869

> <r_mmod_Van_der_Waal_Energy-OPLS-2005>
199.009155273438

> <r_mmod_Electrostatic_Energy-OPLS-2005>
-478.361663818359

> <r_mmod_Solvation_Energy-OPLS-2005>
-239.338424682617

> <b_mmod_Minimization_Converged-OPLS-2005>
0

> <r_mmod_RMS_Derivative-OPLS-2005>
3.76011347770691

$$$$
67
                    3D
 Structure written by MMmdl.
164172  0  0  1  0            999 V2000
  -30.7703  -14.3879   20.7280 C   0  0  0  0  0  0
  -30.4365  -12.3303   19.3809 C   0  0  0  0  0  0
  -29.4880  -12.5431   18.1867 C   0  0  0  0  0  0
  -28.0173  -12.3784   18.6070 C   0  0  0  0  0  0
  -27.6725  -13.2004   19.8742 C   0  0  2  0  0  0
  -28.7165  -12.9498   20.9875 C   0  0  0  0  0  0
  -25.2640  -13.8152   20.5646 C   0  0  0  0  0  0
  -24.1870  -13.0446   20.9147 C   0  0  0  0  0  0
  -24.6393  -11.6904   20.8688 C   0  0  0  0  0  0
  -23.9034  -10.4305   21.0374 C   0  0  0  0  0  0
  -24.3583   -9.4230   21.9167 C   0  0  0  0  0  0
  -23.6279   -8.2259   22.0747 C   0  0  0  0  0  0
  -22.4269   -8.0285   21.3532 C   0  0  0  0  0  0
  -21.9872   -9.0265   20.4651 C   0  0  0  0  0  0
  -22.7185  -10.2159   20.3047 C   0  0  0  0  0  0
  -21.6861   -6.0732   22.5261 C   0  0  0  0  0  0
  -21.4036   -6.5628   23.8197 C   0  0  0  0  0  0
  -21.3665   -5.6771   24.9150 C   0  0  0  0  0  0
  -21.6042   -4.3035   24.7196 C   0  0  0  0  0  0
  -21.8823   -3.8136   23.4315 C   0  0  0  0  0  0
  -21.9192   -4.6960   22.3378 C   0  0  0  0  0  0
  -22.7896  -13.5274   21.1793 C   0  0  0  0  0  0
  -22.1655   -4.2141   21.0962 F   0  0  0  0  0  0
  -21.5615   -3.4525   25.7715 F   0  0  0  0  0  0
  -30.0674  -13.2527   20.4639 N   0  0  0  0  0  0
  -26.3077  -12.9305   20.3331 N   0  0  0  0  0  0
  -25.9324  -11.6465   20.5715 N   0  0  0  0  0  0
  -22.0500  -12.8335   22.0377 N   0  0  0  0  0  0
  -25.4414  -15.1874   20.4087 N   0  0  0  0  0  0
  -31.6995  -14.8021   20.0287 O   0  0  0  0  0  0
  -21.6641   -6.8882   21.4235 O   0  0  0  0  0  0
  -22.3599  -14.5571   20.6601 O   0  0  0  0  0  0
  -24.6154  -31.8674   23.2086 C   0  0  0  0  0  0
  -25.9040  -32.4823   23.8395 C   0  0  1  0  0  0
  -27.2583  -27.4451   20.0899 C   0  0  0  0  0  0
  -25.5912  -33.8621   24.2341 N   0  0  0  0  0  0
  -23.4054  -30.4889   21.5471 C   0  0  2  0  0  0
  -24.8552  -28.9514   20.1187 C   0  0  0  0  0  0
  -22.7420  -29.4640   22.4956 C   0  0  0  0  0  0
  -18.0274  -28.1394   22.8474 C   0  0  0  0  0  0
  -24.1482  -36.7300   23.2645 C   0  0  0  0  0  0
  -25.9328  -30.8341   21.3614 C   0  0  0  0  0  0
  -26.0112  -29.4662   20.7147 C   0  0  0  0  0  0
  -27.2084  -28.7179   20.7032 C   0  0  0  0  0  0
  -26.0746  -26.9360   19.5019 C   0  0  0  0  0  0
  -24.8797  -27.6816   19.5143 C   0  0  0  0  0  0
  -23.6190  -29.8193   20.1625 C   0  0  0  0  0  0
  -25.4102  -36.3105   24.0341 C   0  0  1  0  0  0
  -20.5867  -28.3671   23.1314 C   0  0  2  0  0  0
  -20.6772  -26.9411   22.5413 C   0  0  0  0  0  0
  -19.5753  -26.6401   21.5213 C   0  0  0  0  0  0
  -18.1927  -26.7941   22.1618 C   0  0  0  0  0  0
  -19.1523  -28.8843   23.2906 C   0  0  0  0  0  0
  -18.9458  -30.1449   23.8931 C   0  0  0  0  0  0
  -17.6471  -30.6598   24.0566 C   0  0  0  0  0  0
  -25.9046  -34.9476   23.5129 C   0  0  0  0  0  0
  -16.5359  -29.9108   23.6327 C   0  0  0  0  0  0
  -16.7269  -28.6524   23.0336 C   0  0  0  0  0  0
  -26.4499  -31.6605   25.0708 C   0  0  0  0  0  0
  -25.3780  -31.3690   26.1469 C   0  0  0  0  0  0
  -27.0333  -30.3061   24.6044 C   0  0  0  0  0  0
  -27.6099  -32.4316   25.7446 C   0  0  0  0  0  0
  -27.5584  -37.1798   24.8463 C   0  0  0  0  0  0
  -21.4152  -29.3035   22.3719 N   0  0  0  0  0  0
  -26.4279  -37.3794   23.9431 N   0  0  0  0  0  0
  -24.6692  -31.0778   22.0982 N   0  0  0  0  0  0
  -23.4183  -28.8186   23.3014 O   0  0  0  0  0  0
  -28.4630  -26.7645   20.0950 O   0  0  0  0  0  0
  -26.5587  -34.8922   22.4693 O   0  0  0  0  0  0
  -23.5347  -32.1421   23.7494 O   0  0  0  0  0  0
  -30.1233  -18.6773   23.7936 C   0  0  0  0  0  0
  -30.5580  -17.4118   21.7366 C   0  0  0  0  0  0
  -30.2790  -16.2589   23.8775 C   0  0  0  0  0  0
  -30.3447  -18.6544   22.4023 C   0  0  0  0  0  0
  -30.0939  -17.4872   24.5341 C   0  0  0  0  0  0
  -30.4957  -16.1996   22.4844 C   0  0  0  0  0  0
  -30.2508  -19.9748   21.6937 C   0  0  0  0  0  0
  -30.6807  -22.7124   20.1381 C   0  0  0  0  0  0
  -33.1153  -22.0030   20.3434 C   0  0  0  0  0  0
  -30.5702  -24.2176   20.4587 C   0  0  0  0  0  0
  -30.0700  -25.1155   19.2950 C   0  0  0  0  0  0
  -28.5857  -25.5367   19.3719 C   0  0  0  0  0  0
  -31.7124  -21.8979   20.9713 C   0  0  2  0  0  0
  -29.8517  -17.5249   25.9052 N   0  0  0  0  0  0
  -30.5125  -14.8760   21.9507 N   0  0  0  0  0  0
  -31.3961  -20.4706   21.2060 N   0  0  0  0  0  0
  -29.1965  -20.6113   21.7406 O   0  0  0  0  0  0
  -30.0083  -22.2162   19.2301 O   0  0  0  0  0  0
  -31.4716  -12.4650   19.0622 H   0  0  0  0  0  0
  -30.3725  -11.3045   19.7445 H   0  0  0  0  0  0
  -29.7322  -11.8437   17.3858 H   0  0  0  0  0  0
  -29.6351  -13.5405   17.7706 H   0  0  0  0  0  0
  -27.8322  -11.3204   18.7888 H   0  0  0  0  0  0
  -27.3625  -12.6645   17.7828 H   0  0  0  0  0  0
  -27.7269  -14.2521   19.5944 H   0  0  0  0  0  0
  -28.6858  -11.9052   21.3065 H   0  0  0  0  0  0
  -28.4410  -13.5347   21.8651 H   0  0  0  0  0  0
  -25.2724   -9.5740   22.4724 H   0  0  0  0  0  0
  -23.9977   -7.4679   22.7487 H   0  0  0  0  0  0
  -21.0778   -8.8799   19.8992 H   0  0  0  0  0  0
  -22.3617  -10.9697   19.6156 H   0  0  0  0  0  0
  -21.2067   -7.6141   23.9693 H   0  0  0  0  0  0
  -21.1467   -6.0500   25.9046 H   0  0  0  0  0  0
  -22.0604   -2.7600   23.2800 H   0  0  0  0  0  0
  -22.4079  -12.0046   22.4866 H   0  0  0  0  0  0
  -21.1142  -13.1475   22.2528 H   0  0  0  0  0  0
  -24.6933  -15.8574   20.5516 H   0  0  0  0  0  0
  -26.2982  -15.6165   20.0781 H   0  0  0  0  0  0
  -26.7111  -32.5530   23.1172 H   0  0  0  0  0  0
  -25.0081  -33.9786   25.0492 H   0  0  0  0  0  0
  -22.6946  -31.3056   21.4051 H   0  0  0  0  0  0
  -23.3747  -35.9634   23.3297 H   0  0  0  0  0  0
  -24.3577  -36.8898   22.2059 H   0  0  0  0  0  0
  -23.7217  -37.6497   23.6659 H   0  0  0  0  0  0
  -26.0367  -31.5954   20.5867 H   0  0  0  0  0  0
  -26.8262  -30.8971   21.9714 H   0  0  0  0  0  0
  -28.1028  -29.1172   21.1608 H   0  0  0  0  0  0
  -26.0538  -25.9640   19.0318 H   0  0  0  0  0  0
  -23.9885  -27.2764   19.0568 H   0  0  0  0  0  0
  -23.7410  -30.5949   19.4048 H   0  0  0  0  0  0
  -22.7423  -29.2462   19.8575 H   0  0  0  0  0  0
  -25.1280  -36.1980   25.0829 H   0  0  0  0  0  0
  -20.9980  -28.3253   24.1427 H   0  0  0  0  0  0
  -20.5675  -26.2295   23.3596 H   0  0  0  0  0  0
  -21.6640  -26.7461   22.1217 H   0  0  0  0  0  0
  -19.6913  -25.6322   21.1210 H   0  0  0  0  0  0
  -19.6692  -27.3234   20.6756 H   0  0  0  0  0  0
  -17.4206  -26.6687   21.4009 H   0  0  0  0  0  0
  -18.0325  -26.0088   22.9020 H   0  0  0  0  0  0
  -19.7936  -30.7244   24.2322 H   0  0  0  0  0  0
  -17.5030  -31.6271   24.5181 H   0  0  0  0  0  0
  -15.5358  -30.3037   23.7622 H   0  0  0  0  0  0
  -15.8664  -28.0871   22.7032 H   0  0  0  0  0  0
  -24.5955  -30.7028   25.7810 H   0  0  0  0  0  0
  -24.8969  -32.2835   26.4954 H   0  0  0  0  0  0
  -25.8155  -30.8844   27.0204 H   0  0  0  0  0  0
  -26.2847  -29.6778   24.1200 H   0  0  0  0  0  0
  -27.4247  -29.7338   25.4463 H   0  0  0  0  0  0
  -27.8622  -30.4395   23.9084 H   0  0  0  0  0  0
  -27.2750  -33.3603   26.2084 H   0  0  0  0  0  0
  -28.3880  -32.6889   25.0243 H   0  0  0  0  0  0
  -28.0825  -31.8398   26.5296 H   0  0  0  0  0  0
  -28.2611  -38.0095   24.7553 H   0  0  0  0  0  0
  -28.1071  -36.2633   24.6249 H   0  0  0  0  0  0
  -27.2311  -37.1399   25.8865 H   0  0  0  0  0  0
  -20.9324  -29.8774   21.6950 H   0  0  0  0  0  0
  -26.0165  -38.2859   24.1480 H   0  0  0  0  0  0
  -29.9565  -19.6296   24.2830 H   0  0  0  0  0  0
  -30.6901  -17.4009   20.6638 H   0  0  0  0  0  0
  -30.2267  -15.3409   24.4472 H   0  0  0  0  0  0
  -33.4007  -23.0437   20.1799 H   0  0  0  0  0  0
  -33.1615  -21.4928   19.3806 H   0  0  0  0  0  0
  -33.8763  -21.5619   20.9883 H   0  0  0  0  0  0
  -31.5607  -24.5588   20.7556 H   0  0  0  0  0  0
  -29.9396  -24.3464   21.3386 H   0  0  0  0  0  0
  -30.2419  -24.6113   18.3428 H   0  0  0  0  0  0
  -30.6891  -26.0127   19.2431 H   0  0  0  0  0  0
  -27.9807  -24.7524   19.8303 H   0  0  0  0  0  0
  -28.2171  -25.6790   18.3535 H   0  0  0  0  0  0
  -31.7627  -22.3656   21.9563 H   0  0  0  0  0  0
  -29.4617  -18.3742   26.3022 H   0  0  0  0  0  0
  -29.4737  -16.6911   26.3441 H   0  0  0  0  0  0
  -30.0494  -14.1914   22.5300 H   0  0  0  0  0  0
  -32.1832  -19.8401   21.2270 H   0  0  0  0  0  0
  1 25  1  0  0  0
  1 30  2  0  0  0
  1 85  1  0  0  0
  2  3  1  0  0  0
  2 25  1  0  0  0
  2 89  1  0  0  0
  2 90  1  0  0  0
  3  4  1  0  0  0
  3 91  1  0  0  0
  3 92  1  0  0  0
  4  5  1  0  0  0
  4 93  1  0  0  0
  4 94  1  0  0  0
  5  6  1  0  0  0
  5 26  1  0  0  0
  5 95  1  0  0  0
  6 25  1  0  0  0
  6 96  1  0  0  0
  6 97  1  0  0  0
  7  8  2  0  0  0
  7 26  1  0  0  0
  7 29  1  0  0  0
  8  9  1  0  0  0
  8 22  1  0  0  0
  9 10  1  0  0  0
  9 27  2  0  0  0
 10 11  2  0  0  0
 10 15  1  0  0  0
 11 12  1  0  0  0
 11 98  1  0  0  0
 12 13  2  0  0  0
 12 99  1  0  0  0
 13 14  1  0  0  0
 13 31  1  0  0  0
 14 15  2  0  0  0
 14100  1  0  0  0
 15101  1  0  0  0
 16 17  2  0  0  0
 16 21  1  0  0  0
 16 31  1  0  0  0
 17 18  1  0  0  0
 17102  1  0  0  0
 18 19  2  0  0  0
 18103  1  0  0  0
 19 20  1  0  0  0
 19 24  1  0  0  0
 20 21  2  0  0  0
 20104  1  0  0  0
 21 23  1  0  0  0
 22 28  1  0  0  0
 22 32  2  0  0  0
 26 27  1  0  0  0
 28105  1  0  0  0
 28106  1  0  0  0
 29107  1  0  0  0
 29108  1  0  0  0
 33 34  1  0  0  0
 33 66  1  0  0  0
 33 70  2  0  0  0
 34 36  1  0  0  0
 34 59  1  0  0  0
 34109  1  0  0  0
 35 44  2  0  0  0
 35 45  1  0  0  0
 35 68  1  0  0  0
 36 56  1  0  0  0
 36110  1  0  0  0
 37 39  1  0  0  0
 37 47  1  0  0  0
 37 66  1  0  0  0
 37111  1  0  0  0
 38 43  2  0  0  0
 38 46  1  0  0  0
 38 47  1  0  0  0
 39 64  1  0  0  0
 39 67  2  0  0  0
 40 52  1  0  0  0
 40 53  2  0  0  0
 40 58  1  0  0  0
 41112  1  0  0  0
 41113  1  0  0  0
 41114  1  0  0  0
 41 48  1  0  0  0
 42 43  1  0  0  0
 42 66  1  0  0  0
 42115  1  0  0  0
 42116  1  0  0  0
 43 44  1  0  0  0
 44117  1  0  0  0
 45 46  2  0  0  0
 45118  1  0  0  0
 46119  1  0  0  0
 47120  1  0  0  0
 47121  1  0  0  0
 48 56  1  0  0  0
 48 65  1  0  0  0
 48122  1  0  0  0
 49 50  1  0  0  0
 49 53  1  0  0  0
 49 64  1  0  0  0
 49123  1  0  0  0
 50 51  1  0  0  0
 50124  1  0  0  0
 50125  1  0  0  0
 51 52  1  0  0  0
 51126  1  0  0  0
 51127  1  0  0  0
 52128  1  0  0  0
 52129  1  0  0  0
 53 54  1  0  0  0
 54 55  2  0  0  0
 54130  1  0  0  0
 55 57  1  0  0  0
 55131  1  0  0  0
 56 69  2  0  0  0
 57 58  2  0  0  0
 57132  1  0  0  0
 58133  1  0  0  0
 59 60  1  0  0  0
 59 61  1  0  0  0
 59 62  1  0  0  0
 60134  1  0  0  0
 60135  1  0  0  0
 60136  1  0  0  0
 61137  1  0  0  0
 61138  1  0  0  0
 61139  1  0  0  0
 62140  1  0  0  0
 62141  1  0  0  0
 62142  1  0  0  0
 63 65  1  0  0  0
 63143  1  0  0  0
 63144  1  0  0  0
 63145  1  0  0  0
 64146  1  0  0  0
 65147  1  0  0  0
 68 82  1  0  0  0
 71 74  2  0  0  0
 71 75  1  0  0  0
 71148  1  0  0  0
 72 74  1  0  0  0
 72 76  2  0  0  0
 72149  1  0  0  0
 73 75  2  0  0  0
 73 76  1  0  0  0
 73150  1  0  0  0
 74 77  1  0  0  0
 75 84  1  0  0  0
 76 85  1  0  0  0
 77 86  1  0  0  0
 77 87  2  0  0  0
 78 80  1  0  0  0
 78 83  1  0  0  0
 78 88  2  0  0  0
 79151  1  0  0  0
 79152  1  0  0  0
 79153  1  0  0  0
 79 83  1  0  0  0
 80 81  1  0  0  0
 80154  1  0  0  0
 80155  1  0  0  0
 81 82  1  0  0  0
 81156  1  0  0  0
 81157  1  0  0  0
 82158  1  0  0  0
 82159  1  0  0  0
 83 86  1  0  0  0
 83160  1  0  0  0
 84161  1  0  0  0
 84162  1  0  0  0
 85163  1  0  0  0
 86164  1  0  0  0
M  ISO  4   1 100  68 101  82 101  85 100
M  END
> <chiral flag>
0

> <version>
0

> <s_m_source_file>
/data/baiqing/PycharmProjects/Reinvent-master-3.2/result/LINK_invent/BTK/process_docking_weight1_custom_product_contain_oxygen_bond_distance_aromatic_linkinvent_7_9_3/rearranged_h_0089.sdf

> <i_m_source_file_index>
68

> <r_mmod_Potential_Energy-OPLS-2005>
-179.826538085938

> <r_mmod_Stretch_Energy-OPLS-2005>
39.9396667480469

> <r_mmod_Bend_Energy-OPLS-2005>
122.873687744141

> <r_mmod_Torsional_Energy-OPLS-2005>
256.772552490234

> <r_mmod_Improper_Torsional_Energy-OPLS-2005>
12.9375743865967

> <r_mmod_Van_der_Waal_Energy-OPLS-2005>
151.642959594727

> <r_mmod_Electrostatic_Energy-OPLS-2005>
-517.251708984375

> <r_mmod_Solvation_Energy-OPLS-2005>
-258.871307373047

> <b_mmod_Minimization_Converged-OPLS-2005>
0

> <r_mmod_RMS_Derivative-OPLS-2005>
3.99033212661743

$$$$
68
                    3D
 Structure written by MMmdl.
157165  0  0  1  0            999 V2000
  -30.7273  -14.5205   20.5334 C   0  0  0  0  0  0
  -30.4090  -12.3248   19.4488 C   0  0  0  0  0  0
  -29.4953  -12.4981   18.2195 C   0  0  0  0  0  0
  -28.0183  -12.3565   18.6303 C   0  0  0  0  0  0
  -27.6551  -13.2209   19.8681 C   0  0  2  0  0  0
  -28.6983  -13.0686   20.9998 C   0  0  0  0  0  0
  -25.2557  -13.8190   20.5697 C   0  0  0  0  0  0
  -24.1824  -13.0447   20.9186 C   0  0  0  0  0  0
  -24.6396  -11.6920   20.8735 C   0  0  0  0  0  0
  -23.9066  -10.4298   21.0396 C   0  0  0  0  0  0
  -24.3616   -9.4214   21.9174 C   0  0  0  0  0  0
  -23.6292   -8.2250   22.0750 C   0  0  0  0  0  0
  -22.4274   -8.0284   21.3544 C   0  0  0  0  0  0
  -21.9906   -9.0257   20.4645 C   0  0  0  0  0  0
  -22.7234  -10.2137   20.3050 C   0  0  0  0  0  0
  -21.6858   -6.0733   22.5277 C   0  0  0  0  0  0
  -21.4021   -6.5637   23.8210 C   0  0  0  0  0  0
  -21.3659   -5.6791   24.9172 C   0  0  0  0  0  0
  -21.6041   -4.3053   24.7224 C   0  0  0  0  0  0
  -21.8820   -3.8145   23.4346 C   0  0  0  0  0  0
  -21.9196   -4.6961   22.3401 C   0  0  0  0  0  0
  -22.7845  -13.5236   21.1846 C   0  0  0  0  0  0
  -22.1663   -4.2146   21.0979 F   0  0  0  0  0  0
  -21.5626   -3.4537   25.7737 F   0  0  0  0  0  0
  -30.0255  -13.3535   20.4349 N   0  0  0  0  0  0
  -26.2998  -12.9387   20.3354 N   0  0  0  0  0  0
  -25.9329  -11.6532   20.5769 N   0  0  0  0  0  0
  -22.0490  -12.8229   22.0405 N   0  0  0  0  0  0
  -25.4267  -15.1911   20.4113 N   0  0  0  0  0  0
  -31.8704  -14.5998   20.0828 O   0  0  0  0  0  0
  -21.6642   -6.8877   21.4239 O   0  0  0  0  0  0
  -22.3529  -14.5541   20.6692 O   0  0  0  0  0  0
  -24.6189  -31.8663   23.2101 C   0  0  0  0  0  0
  -25.9069  -32.4813   23.8399 C   0  0  1  0  0  0
  -27.2184  -27.3923   20.1054 C   0  0  0  0  0  0
  -25.5914  -33.8612   24.2324 N   0  0  0  0  0  0
  -23.4087  -30.4929   21.5506 C   0  0  2  0  0  0
  -24.8556  -28.9660   20.1050 C   0  0  0  0  0  0
  -22.7435  -29.4649   22.4957 C   0  0  0  0  0  0
  -18.0280  -28.1378   22.8490 C   0  0  0  0  0  0
  -24.1487  -36.7307   23.2631 C   0  0  0  0  0  0
  -25.9441  -30.8184   21.3738 C   0  0  0  0  0  0
  -26.0194  -29.4530   20.7154 C   0  0  0  0  0  0
  -27.2055  -28.6722   20.7178 C   0  0  0  0  0  0
  -26.0452  -26.9560   19.4467 C   0  0  0  0  0  0
  -24.8657  -27.7181   19.4642 C   0  0  0  0  0  0
  -23.6194  -29.8355   20.1618 C   0  0  0  0  0  0
  -25.4103  -36.3101   24.0334 C   0  0  1  0  0  0
  -20.5876  -28.3670   23.1300 C   0  0  2  0  0  0
  -20.6770  -26.9400   22.5412 C   0  0  0  0  0  0
  -19.5747  -26.6384   21.5209 C   0  0  0  0  0  0
  -18.1927  -26.7924   22.1621 C   0  0  0  0  0  0
  -19.1531  -28.8840   23.2894 C   0  0  0  0  0  0
  -18.9458  -30.1445   23.8906 C   0  0  0  0  0  0
  -17.6459  -30.6581   24.0565 C   0  0  0  0  0  0
  -25.9040  -34.9468   23.5126 C   0  0  0  0  0  0
  -16.5349  -29.9081   23.6325 C   0  0  0  0  0  0
  -16.7269  -28.6498   23.0346 C   0  0  0  0  0  0
  -26.4483  -31.6595   25.0735 C   0  0  0  0  0  0
  -25.3742  -31.3716   26.1478 C   0  0  0  0  0  0
  -27.0312  -30.3027   24.6138 C   0  0  0  0  0  0
  -27.6058  -32.4315   25.7493 C   0  0  0  0  0  0
  -27.5591  -37.1787   24.8448 C   0  0  0  0  0  0
  -21.4156  -29.3035   22.3698 N   0  0  0  0  0  0
  -26.4280  -37.3798   23.9429 N   0  0  0  0  0  0
  -24.6753  -31.0736   22.1023 N   0  0  0  0  0  0
  -23.4193  -28.8180   23.3001 O   0  0  0  0  0  0
  -28.3160  -26.5423   20.1738 O   0  0  0  0  0  0
  -26.5600  -34.8923   22.4686 O   0  0  0  0  0  0
  -23.5369  -32.1434   23.7468 O   0  0  0  0  0  0
  -32.1805  -18.7708   20.7756 C   0  0  0  0  0  0
  -31.2172  -19.7664   21.0011 C   0  0  0  0  0  0
  -31.8231  -17.4130   20.7870 C   0  0  0  0  0  0
  -29.5237  -18.0482   21.2151 C   0  0  0  0  0  0
  -29.8632  -19.4425   21.2529 C   0  0  0  0  0  0
  -30.4786  -17.0115   20.9875 C   0  0  0  0  0  0
  -28.8599  -24.1423   20.4201 C   0  0  0  0  0  0
  -28.0274  -25.2136   20.4880 C   0  0  0  0  0  0
  -28.3166  -22.8022   20.6966 C   0  0  0  0  0  0
  -28.8820  -20.5137   23.1605 C   0  0  0  0  0  0
  -28.1169  -19.4110   23.8818 C   0  0  0  0  0  0
  -28.8455  -20.5210   21.6131 C   0  0  1  0  0  0
  -30.0638  -15.6171   20.9938 N   0  0  0  0  0  0
  -29.2059  -21.8842   21.1294 N   0  0  0  0  0  0
  -27.1228  -22.5161   20.5777 O   0  0  0  0  0  0
  -29.4961  -21.3524   23.8304 O   0  0  0  0  0  0
  -31.4567  -12.3879   19.1502 H   0  0  0  0  0  0
  -30.2875  -11.3296   19.8793 H   0  0  0  0  0  0
  -29.7436  -11.7591   17.4566 H   0  0  0  0  0  0
  -29.6634  -13.4764   17.7661 H   0  0  0  0  0  0
  -27.8388  -11.3032   18.8486 H   0  0  0  0  0  0
  -27.3682  -12.6074   17.7913 H   0  0  0  0  0  0
  -27.6810  -14.2590   19.5365 H   0  0  0  0  0  0
  -28.6797  -12.0559   21.4051 H   0  0  0  0  0  0
  -28.4616  -13.7278   21.8361 H   0  0  0  0  0  0
  -25.2761   -9.5693   22.4748 H   0  0  0  0  0  0
  -24.0004   -7.4642   22.7468 H   0  0  0  0  0  0
  -21.0838   -8.8773   19.8953 H   0  0  0  0  0  0
  -22.3686  -10.9674   19.6161 H   0  0  0  0  0  0
  -21.2017   -7.6145   23.9713 H   0  0  0  0  0  0
  -21.1477   -6.0520   25.9075 H   0  0  0  0  0  0
  -22.0599   -2.7607   23.2849 H   0  0  0  0  0  0
  -22.4108  -11.9894   22.4800 H   0  0  0  0  0  0
  -21.1108  -13.1253   22.2607 H   0  0  0  0  0  0
  -24.6580  -15.8445   20.5142 H   0  0  0  0  0  0
  -26.2754  -15.6291   20.0768 H   0  0  0  0  0  0
  -26.7139  -32.5512   23.1158 H   0  0  0  0  0  0
  -25.0070  -33.9773   25.0473 H   0  0  0  0  0  0
  -22.6988  -31.3115   21.4144 H   0  0  0  0  0  0
  -23.3758  -35.9628   23.3265 H   0  0  0  0  0  0
  -24.3600  -36.8952   22.2053 H   0  0  0  0  0  0
  -23.7222  -37.6495   23.6665 H   0  0  0  0  0  0
  -26.0677  -31.5859   20.6084 H   0  0  0  0  0  0
  -26.8279  -30.8662   21.9980 H   0  0  0  0  0  0
  -28.0954  -29.0304   21.2162 H   0  0  0  0  0  0
  -26.0269  -26.0010   18.9402 H   0  0  0  0  0  0
  -23.9758  -27.3424   18.9779 H   0  0  0  0  0  0
  -23.7298  -30.6164   19.4084 H   0  0  0  0  0  0
  -22.7417  -29.2603   19.8611 H   0  0  0  0  0  0
  -25.1270  -36.1956   25.0824 H   0  0  0  0  0  0
  -20.9972  -28.3243   24.1418 H   0  0  0  0  0  0
  -20.5668  -26.2276   23.3603 H   0  0  0  0  0  0
  -21.6641  -26.7436   22.1206 H   0  0  0  0  0  0
  -19.6907  -25.6298   21.1230 H   0  0  0  0  0  0
  -19.6686  -27.3201   20.6745 H   0  0  0  0  0  0
  -17.4194  -26.6671   21.4027 H   0  0  0  0  0  0
  -18.0330  -26.0066   22.9016 H   0  0  0  0  0  0
  -19.7934  -30.7262   24.2277 H   0  0  0  0  0  0
  -17.5013  -31.6260   24.5166 H   0  0  0  0  0  0
  -15.5350  -30.2985   23.7646 H   0  0  0  0  0  0
  -15.8668  -28.0820   22.7056 H   0  0  0  0  0  0
  -24.5917  -30.7057   25.7822 H   0  0  0  0  0  0
  -24.8932  -32.2876   26.4917 H   0  0  0  0  0  0
  -25.8091  -30.8895   27.0242 H   0  0  0  0  0  0
  -26.2864  -29.6791   24.1177 H   0  0  0  0  0  0
  -27.4048  -29.7262   25.4611 H   0  0  0  0  0  0
  -27.8720  -30.4327   23.9320 H   0  0  0  0  0  0
  -27.2676  -33.3604   26.2098 H   0  0  0  0  0  0
  -28.3851  -32.6893   25.0309 H   0  0  0  0  0  0
  -28.0746  -31.8424   26.5386 H   0  0  0  0  0  0
  -28.2549  -38.0144   24.7591 H   0  0  0  0  0  0
  -28.1146  -36.2684   24.6141 H   0  0  0  0  0  0
  -27.2333  -37.1277   25.8852 H   0  0  0  0  0  0
  -20.9311  -29.8769   21.6935 H   0  0  0  0  0  0
  -26.0161  -38.2859   24.1496 H   0  0  0  0  0  0
  -33.2123  -19.0502   20.6113 H   0  0  0  0  0  0
  -31.5492  -20.7947   21.0153 H   0  0  0  0  0  0
  -32.6263  -16.7090   20.6412 H   0  0  0  0  0  0
  -28.4947  -17.7690   21.3952 H   0  0  0  0  0  0
  -29.8947  -24.2702   20.1379 H   0  0  0  0  0  0
  -27.0024  -25.0787   20.8109 H   0  0  0  0  0  0
  -27.2929  -19.0490   23.2675 H   0  0  0  0  0  0
  -27.7086  -19.7832   24.8206 H   0  0  0  0  0  0
  -28.7822  -18.5756   24.0980 H   0  0  0  0  0  0
  -27.8533  -20.2275   21.2663 H   0  0  0  0  0  0
  -29.1157  -15.4373   21.2866 H   0  0  0  0  0  0
  -30.1590  -22.1786   21.2779 H   0  0  0  0  0  0
  1 25  1  0  0  0
  1 30  2  0  0  0
  1 83  1  0  0  0
  2  3  1  0  0  0
  2 25  1  0  0  0
  2 87  1  0  0  0
  2 88  1  0  0  0
  3  4  1  0  0  0
  3 89  1  0  0  0
  3 90  1  0  0  0
  4  5  1  0  0  0
  4 91  1  0  0  0
  4 92  1  0  0  0
  5  6  1  0  0  0
  5 26  1  0  0  0
  5 93  1  0  0  0
  6 25  1  0  0  0
  6 94  1  0  0  0
  6 95  1  0  0  0
  7  8  2  0  0  0
  7 26  1  0  0  0
  7 29  1  0  0  0
  8  9  1  0  0  0
  8 22  1  0  0  0
  9 10  1  0  0  0
  9 27  2  0  0  0
 10 11  2  0  0  0
 10 15  1  0  0  0
 11 12  1  0  0  0
 11 96  1  0  0  0
 12 13  2  0  0  0
 12 97  1  0  0  0
 13 14  1  0  0  0
 13 31  1  0  0  0
 14 15  2  0  0  0
 14 98  1  0  0  0
 15 99  1  0  0  0
 16 17  2  0  0  0
 16 21  1  0  0  0
 16 31  1  0  0  0
 17 18  1  0  0  0
 17100  1  0  0  0
 18 19  2  0  0  0
 18101  1  0  0  0
 19 20  1  0  0  0
 19 24  1  0  0  0
 20 21  2  0  0  0
 20102  1  0  0  0
 21 23  1  0  0  0
 22 28  1  0  0  0
 22 32  2  0  0  0
 26 27  1  0  0  0
 28103  1  0  0  0
 28104  1  0  0  0
 29105  1  0  0  0
 29106  1  0  0  0
 33 34  1  0  0  0
 33 66  1  0  0  0
 33 70  2  0  0  0
 34 36  1  0  0  0
 34 59  1  0  0  0
 34107  1  0  0  0
 35 44  2  0  0  0
 35 45  1  0  0  0
 35 68  1  0  0  0
 36 56  1  0  0  0
 36108  1  0  0  0
 37 39  1  0  0  0
 37 47  1  0  0  0
 37 66  1  0  0  0
 37109  1  0  0  0
 38 43  2  0  0  0
 38 46  1  0  0  0
 38 47  1  0  0  0
 39 64  1  0  0  0
 39 67  2  0  0  0
 40 52  1  0  0  0
 40 53  2  0  0  0
 40 58  1  0  0  0
 41110  1  0  0  0
 41111  1  0  0  0
 41112  1  0  0  0
 41 48  1  0  0  0
 42 43  1  0  0  0
 42 66  1  0  0  0
 42113  1  0  0  0
 42114  1  0  0  0
 43 44  1  0  0  0
 44115  1  0  0  0
 45 46  2  0  0  0
 45116  1  0  0  0
 46117  1  0  0  0
 47118  1  0  0  0
 47119  1  0  0  0
 48 56  1  0  0  0
 48 65  1  0  0  0
 48120  1  0  0  0
 49 50  1  0  0  0
 49 53  1  0  0  0
 49 64  1  0  0  0
 49121  1  0  0  0
 50 51  1  0  0  0
 50122  1  0  0  0
 50123  1  0  0  0
 51 52  1  0  0  0
 51124  1  0  0  0
 51125  1  0  0  0
 52126  1  0  0  0
 52127  1  0  0  0
 53 54  1  0  0  0
 54 55  2  0  0  0
 54128  1  0  0  0
 55 57  1  0  0  0
 55129  1  0  0  0
 56 69  2  0  0  0
 57 58  2  0  0  0
 57130  1  0  0  0
 58131  1  0  0  0
 59 60  1  0  0  0
 59 61  1  0  0  0
 59 62  1  0  0  0
 60132  1  0  0  0
 60133  1  0  0  0
 60134  1  0  0  0
 61135  1  0  0  0
 61136  1  0  0  0
 61137  1  0  0  0
 62138  1  0  0  0
 62139  1  0  0  0
 62140  1  0  0  0
 63 65  1  0  0  0
 63141  1  0  0  0
 63142  1  0  0  0
 63143  1  0  0  0
 64144  1  0  0  0
 65145  1  0  0  0
 68 78  1  0  0  0
 71 72  2  0  0  0
 71 73  1  0  0  0
 71146  1  0  0  0
 72 75  1  0  0  0
 72147  1  0  0  0
 73 76  2  0  0  0
 73148  1  0  0  0
 74 75  2  0  0  0
 74 76  1  0  0  0
 74149  1  0  0  0
 75 82  1  0  0  0
 76 83  1  0  0  0
 77 78  2  0  0  0
 77 79  1  0  0  0
 77150  1  0  0  0
 78151  1  0  0  0
 79 84  1  0  0  0
 79 85  2  0  0  0
 80 81  1  0  0  0
 80 82  1  0  0  0
 80 86  2  0  0  0
 81152  1  0  0  0
 81153  1  0  0  0
 81154  1  0  0  0
 82 84  1  0  0  0
 82155  1  0  0  0
 83156  1  0  0  0
 84157  1  0  0  0
M  ISO  4   1 100  68 101  78 101  83 100
M  END
> <chiral flag>
0

> <version>
0

> <s_m_source_file>
/data/baiqing/PycharmProjects/Reinvent-master-3.2/result/LINK_invent/BTK/process_docking_weight1_custom_product_contain_oxygen_bond_distance_aromatic_linkinvent_7_9_3/rearranged_h_0089.sdf

> <i_m_source_file_index>
69

> <r_mmod_Potential_Energy-OPLS-2005>
-155.75862121582

> <r_mmod_Stretch_Energy-OPLS-2005>
53.7599830627441

> <r_mmod_Bend_Energy-OPLS-2005>
109.839736938477

> <r_mmod_Torsional_Energy-OPLS-2005>
200.416152954102

> <r_mmod_Improper_Torsional_Energy-OPLS-2005>
4.25744342803955

> <r_mmod_Van_der_Waal_Energy-OPLS-2005>
170.764190673828

> <r_mmod_Electrostatic_Energy-OPLS-2005>
-484.431701660156

> <r_mmod_Solvation_Energy-OPLS-2005>
-238.153198242188

> <b_mmod_Minimization_Converged-OPLS-2005>
0

> <r_mmod_RMS_Derivative-OPLS-2005>
0.45453217625618

$$$$
69
                    3D
 Structure written by MMmdl.
155163  0  0  1  0            999 V2000
  -30.5243  -14.8950   20.4922 C   0  0  0  0  0  0
  -30.4552  -12.5607   19.5007 C   0  0  0  0  0  0
  -29.5274  -12.5466   18.2583 C   0  0  0  0  0  0
  -28.0529  -12.3389   18.6579 C   0  0  0  0  0  0
  -27.6441  -13.2297   19.8579 C   0  0  2  0  0  0
  -28.6819  -13.1319   20.9904 C   0  0  0  0  0  0
  -25.2518  -13.8187   20.5667 C   0  0  0  0  0  0
  -24.1802  -13.0432   20.9170 C   0  0  0  0  0  0
  -24.6397  -11.6911   20.8720 C   0  0  0  0  0  0
  -23.9074  -10.4296   21.0397 C   0  0  0  0  0  0
  -24.3622   -9.4213   21.9183 C   0  0  0  0  0  0
  -23.6287   -8.2254   22.0754 C   0  0  0  0  0  0
  -22.4268   -8.0289   21.3544 C   0  0  0  0  0  0
  -21.9913   -9.0263   20.4647 C   0  0  0  0  0  0
  -22.7242  -10.2140   20.3055 C   0  0  0  0  0  0
  -21.6857   -6.0729   22.5279 C   0  0  0  0  0  0
  -21.4017   -6.5632   23.8209 C   0  0  0  0  0  0
  -21.3657   -5.6786   24.9176 C   0  0  0  0  0  0
  -21.6042   -4.3049   24.7233 C   0  0  0  0  0  0
  -21.8821   -3.8137   23.4353 C   0  0  0  0  0  0
  -21.9198   -4.6953   22.3406 C   0  0  0  0  0  0
  -22.7821  -13.5207   21.1845 C   0  0  0  0  0  0
  -22.1665   -4.2128   21.0985 F   0  0  0  0  0  0
  -21.5633   -3.4536   25.7749 F   0  0  0  0  0  0
  -29.9689  -13.6078   20.4475 N   0  0  0  0  0  0
  -26.2946  -12.9380   20.3278 N   0  0  0  0  0  0
  -25.9323  -11.6525   20.5717 N   0  0  0  0  0  0
  -22.0479  -12.8190   22.0412 N   0  0  0  0  0  0
  -25.4222  -15.1909   20.4055 N   0  0  0  0  0  0
  -31.6587  -15.0433   20.0183 O   0  0  0  0  0  0
  -21.6646   -6.8873   21.4238 O   0  0  0  0  0  0
  -22.3501  -14.5517   20.6702 O   0  0  0  0  0  0
  -24.6412  -31.8440   23.1882 C   0  0  0  0  0  0
  -25.9193  -32.4689   23.8254 C   0  0  1  0  0  0
  -27.2264  -27.1569   20.1305 C   0  0  0  0  0  0
  -25.5952  -33.8499   24.2176 N   0  0  0  0  0  0
  -23.4433  -30.4651   21.5327 C   0  0  2  0  0  0
  -24.8908  -28.8944   20.1040 C   0  0  0  0  0  0
  -22.7556  -29.4554   22.4849 C   0  0  0  0  0  0
  -18.0300  -28.1389   22.8474 C   0  0  0  0  0  0
  -24.1488  -36.7252   23.2645 C   0  0  0  0  0  0
  -25.9973  -30.7230   21.3839 C   0  0  0  0  0  0
  -26.0660  -29.3379   20.7205 C   0  0  0  0  0  0
  -27.2273  -28.4831   20.7197 C   0  0  0  0  0  0
  -26.0125  -26.7978   19.5051 C   0  0  0  0  0  0
  -24.8757  -27.6361   19.4832 C   0  0  0  0  0  0
  -23.6666  -29.7946   20.1505 C   0  0  0  0  0  0
  -25.4122  -36.3030   24.0312 C   0  0  1  0  0  0
  -20.5913  -28.3716   23.1228 C   0  0  2  0  0  0
  -20.6784  -26.9419   22.5401 C   0  0  0  0  0  0
  -19.5761  -26.6374   21.5208 C   0  0  0  0  0  0
  -18.1939  -26.7928   22.1615 C   0  0  0  0  0  0
  -19.1561  -28.8870   23.2841 C   0  0  0  0  0  0
  -18.9485  -30.1462   23.8871 C   0  0  0  0  0  0
  -17.6488  -30.6585   24.0558 C   0  0  0  0  0  0
  -25.9080  -34.9406   23.5055 C   0  0  0  0  0  0
  -16.5374  -29.9086   23.6334 C   0  0  0  0  0  0
  -16.7288  -28.6501   23.0355 C   0  0  0  0  0  0
  -26.4526  -31.6563   25.0699 C   0  0  0  0  0  0
  -25.3719  -31.3755   26.1402 C   0  0  0  0  0  0
  -27.0402  -30.2959   24.6290 C   0  0  0  0  0  0
  -27.6040  -32.4346   25.7486 C   0  0  0  0  0  0
  -27.5569  -37.1787   24.8467 C   0  0  0  0  0  0
  -21.4253  -29.3046   22.3602 N   0  0  0  0  0  0
  -26.4281  -37.3747   23.9404 N   0  0  0  0  0  0
  -24.7135  -31.0322   22.0898 N   0  0  0  0  0  0
  -23.4204  -28.8104   23.2998 O   0  0  0  0  0  0
  -28.3242  -26.2320   20.2542 O   0  0  0  0  0  0
  -26.5674  -34.8907   22.4637 O   0  0  0  0  0  0
  -23.5542  -32.1311   23.7126 O   0  0  0  0  0  0
  -28.6638  -18.6105   21.3819 C   0  0  0  0  0  0
  -28.4934  -20.0312   21.1484 C   0  0  0  0  0  0
  -30.3612  -18.4802   19.7652 C   0  0  0  0  0  0
  -29.6127  -17.7288   20.7303 C   0  0  0  0  0  0
  -29.2587  -20.7676   20.1981 C   0  0  0  0  0  0
  -30.1916  -19.9064   19.5136 C   0  0  0  0  0  0
  -29.7245  -16.1716   21.1806 C   0  0  0  0  0  0
  -28.5093  -23.4117   20.3438 C   0  0  0  0  0  0
  -30.1442  -25.0952   19.3486 C   0  0  0  0  0  0
  -27.9921  -24.7384   18.1684 C   0  0  0  0  0  0
  -28.6350  -24.8710   19.5644 C   0  0  0  0  0  0
  -29.1340  -15.9226   22.2731 N   0  0  0  0  0  0
  -29.1443  -22.2487   19.8472 N   0  0  0  0  0  0
  -27.8380  -23.3581   21.3758 O   0  0  0  0  0  0
  -30.9721  -20.4734   18.5627 F   0  0  0  0  0  0
  -31.4863  -12.7362   19.1896 H   0  0  0  0  0  0
  -30.4679  -11.5822   19.9847 H   0  0  0  0  0  0
  -29.8367  -11.7661   17.5626 H   0  0  0  0  0  0
  -29.6280  -13.4899   17.7192 H   0  0  0  0  0  0
  -27.9254  -11.2878   18.9209 H   0  0  0  0  0  0
  -27.3959  -12.5219   17.8071 H   0  0  0  0  0  0
  -27.6455  -14.2574   19.4946 H   0  0  0  0  0  0
  -28.7653  -12.0989   21.3310 H   0  0  0  0  0  0
  -28.3459  -13.6710   21.8696 H   0  0  0  0  0  0
  -25.2776   -9.5664   22.4749 H   0  0  0  0  0  0
  -23.9985   -7.4639   22.7465 H   0  0  0  0  0  0
  -21.0855   -8.8786   19.8946 H   0  0  0  0  0  0
  -22.3715  -10.9675   19.6157 H   0  0  0  0  0  0
  -21.2010   -7.6137   23.9697 H   0  0  0  0  0  0
  -21.1474   -6.0526   25.9070 H   0  0  0  0  0  0
  -22.0602   -2.7595   23.2871 H   0  0  0  0  0  0
  -22.4121  -11.9874   22.4820 H   0  0  0  0  0  0
  -21.1095  -13.1196   22.2641 H   0  0  0  0  0  0
  -24.6568  -15.8479   20.5057 H   0  0  0  0  0  0
  -26.2836  -15.6285   20.1041 H   0  0  0  0  0  0
  -26.7259  -32.5293   23.0981 H   0  0  0  0  0  0
  -25.0068  -33.9598   25.0305 H   0  0  0  0  0  0
  -22.7441  -31.2904   21.3802 H   0  0  0  0  0  0
  -23.3753  -35.9583   23.3314 H   0  0  0  0  0  0
  -24.3563  -36.8879   22.2056 H   0  0  0  0  0  0
  -23.7244  -37.6448   23.6687 H   0  0  0  0  0  0
  -26.1565  -31.4801   20.6152 H   0  0  0  0  0  0
  -26.8659  -30.7670   22.0290 H   0  0  0  0  0  0
  -28.1218  -28.8204   21.2245 H   0  0  0  0  0  0
  -25.8831  -25.8212   19.0760 H   0  0  0  0  0  0
  -23.9727  -27.2828   19.0053 H   0  0  0  0  0  0
  -23.8005  -30.5686   19.3944 H   0  0  0  0  0  0
  -22.7811  -29.2355   19.8420 H   0  0  0  0  0  0
  -25.1314  -36.1854   25.0803 H   0  0  0  0  0  0
  -20.9998  -28.3317   24.1352 H   0  0  0  0  0  0
  -20.5679  -26.2337   23.3625 H   0  0  0  0  0  0
  -21.6652  -26.7424   22.1204 H   0  0  0  0  0  0
  -19.6930  -25.6278   21.1255 H   0  0  0  0  0  0
  -19.6693  -27.3173   20.6725 H   0  0  0  0  0  0
  -17.4205  -26.6658   21.4018 H   0  0  0  0  0  0
  -18.0349  -26.0073   22.9015 H   0  0  0  0  0  0
  -19.7961  -30.7282   24.2230 H   0  0  0  0  0  0
  -17.5044  -31.6267   24.5154 H   0  0  0  0  0  0
  -15.5382  -30.2991   23.7669 H   0  0  0  0  0  0
  -15.8676  -28.0823   22.7087 H   0  0  0  0  0  0
  -24.5877  -30.7135   25.7722 H   0  0  0  0  0  0
  -24.8947  -32.2949   26.4803 H   0  0  0  0  0  0
  -25.8001  -30.8928   27.0197 H   0  0  0  0  0  0
  -26.3028  -29.6669   24.1297 H   0  0  0  0  0  0
  -27.4015  -29.7263   25.4864 H   0  0  0  0  0  0
  -27.8929  -30.4183   23.9609 H   0  0  0  0  0  0
  -27.2607  -33.3655   26.2011 H   0  0  0  0  0  0
  -28.3878  -32.6904   25.0344 H   0  0  0  0  0  0
  -28.0696  -31.8526   26.5452 H   0  0  0  0  0  0
  -28.2596  -38.0077   24.7503 H   0  0  0  0  0  0
  -28.1060  -36.2605   24.6317 H   0  0  0  0  0  0
  -27.2287  -37.1456   25.8874 H   0  0  0  0  0  0
  -20.9471  -29.8757   21.6772 H   0  0  0  0  0  0
  -26.0150  -38.2814   24.1415 H   0  0  0  0  0  0
  -28.0011  -18.1919   22.1256 H   0  0  0  0  0  0
  -27.7379  -20.5541   21.7166 H   0  0  0  0  0  0
  -31.1135  -17.9559   19.1951 H   0  0  0  0  0  0
  -30.6188  -24.2777   18.8054 H   0  0  0  0  0  0
  -30.6646  -25.1960   20.3021 H   0  0  0  0  0  0
  -30.3284  -26.0061   18.7783 H   0  0  0  0  0  0
  -28.5789  -24.0826   17.5251 H   0  0  0  0  0  0
  -27.9211  -25.7012   17.6627 H   0  0  0  0  0  0
  -27.0016  -24.2885   18.2141 H   0  0  0  0  0  0
  -28.7032  -16.7556   22.6516 H   0  0  0  0  0  0
  -29.6900  -22.4692   19.0255 H   0  0  0  0  0  0
  1 25  1  0  0  0
  1 30  2  0  0  0
  1 77  1  0  0  0
  2  3  1  0  0  0
  2 25  1  0  0  0
  2 86  1  0  0  0
  2 87  1  0  0  0
  3  4  1  0  0  0
  3 88  1  0  0  0
  3 89  1  0  0  0
  4  5  1  0  0  0
  4 90  1  0  0  0
  4 91  1  0  0  0
  5  6  1  0  0  0
  5 26  1  0  0  0
  5 92  1  0  0  0
  6 25  1  0  0  0
  6 93  1  0  0  0
  6 94  1  0  0  0
  7  8  2  0  0  0
  7 26  1  0  0  0
  7 29  1  0  0  0
  8  9  1  0  0  0
  8 22  1  0  0  0
  9 10  1  0  0  0
  9 27  2  0  0  0
 10 11  2  0  0  0
 10 15  1  0  0  0
 11 12  1  0  0  0
 11 95  1  0  0  0
 12 13  2  0  0  0
 12 96  1  0  0  0
 13 14  1  0  0  0
 13 31  1  0  0  0
 14 15  2  0  0  0
 14 97  1  0  0  0
 15 98  1  0  0  0
 16 17  2  0  0  0
 16 21  1  0  0  0
 16 31  1  0  0  0
 17 18  1  0  0  0
 17 99  1  0  0  0
 18 19  2  0  0  0
 18100  1  0  0  0
 19 20  1  0  0  0
 19 24  1  0  0  0
 20 21  2  0  0  0
 20101  1  0  0  0
 21 23  1  0  0  0
 22 28  1  0  0  0
 22 32  2  0  0  0
 26 27  1  0  0  0
 28102  1  0  0  0
 28103  1  0  0  0
 29104  1  0  0  0
 29105  1  0  0  0
 33 34  1  0  0  0
 33 66  1  0  0  0
 33 70  2  0  0  0
 34 36  1  0  0  0
 34 59  1  0  0  0
 34106  1  0  0  0
 35 44  2  0  0  0
 35 45  1  0  0  0
 35 68  1  0  0  0
 36 56  1  0  0  0
 36107  1  0  0  0
 37 39  1  0  0  0
 37 47  1  0  0  0
 37 66  1  0  0  0
 37108  1  0  0  0
 38 43  2  0  0  0
 38 46  1  0  0  0
 38 47  1  0  0  0
 39 64  1  0  0  0
 39 67  2  0  0  0
 40 52  1  0  0  0
 40 53  2  0  0  0
 40 58  1  0  0  0
 41109  1  0  0  0
 41110  1  0  0  0
 41111  1  0  0  0
 41 48  1  0  0  0
 42 43  1  0  0  0
 42 66  1  0  0  0
 42112  1  0  0  0
 42113  1  0  0  0
 43 44  1  0  0  0
 44114  1  0  0  0
 45 46  2  0  0  0
 45115  1  0  0  0
 46116  1  0  0  0
 47117  1  0  0  0
 47118  1  0  0  0
 48 56  1  0  0  0
 48 65  1  0  0  0
 48119  1  0  0  0
 49 50  1  0  0  0
 49 53  1  0  0  0
 49 64  1  0  0  0
 49120  1  0  0  0
 50 51  1  0  0  0
 50121  1  0  0  0
 50122  1  0  0  0
 51 52  1  0  0  0
 51123  1  0  0  0
 51124  1  0  0  0
 52125  1  0  0  0
 52126  1  0  0  0
 53 54  1  0  0  0
 54 55  2  0  0  0
 54127  1  0  0  0
 55 57  1  0  0  0
 55128  1  0  0  0
 56 69  2  0  0  0
 57 58  2  0  0  0
 57129  1  0  0  0
 58130  1  0  0  0
 59 60  1  0  0  0
 59 61  1  0  0  0
 59 62  1  0  0  0
 60131  1  0  0  0
 60132  1  0  0  0
 60133  1  0  0  0
 61134  1  0  0  0
 61135  1  0  0  0
 61136  1  0  0  0
 62137  1  0  0  0
 62138  1  0  0  0
 62139  1  0  0  0
 63 65  1  0  0  0
 63140  1  0  0  0
 63141  1  0  0  0
 63142  1  0  0  0
 64143  1  0  0  0
 65144  1  0  0  0
 68 81  1  0  0  0
 71 72  2  0  0  0
 71 74  1  0  0  0
 71145  1  0  0  0
 72 75  1  0  0  0
 72146  1  0  0  0
 73 74  2  0  0  0
 73 76  1  0  0  0
 73147  1  0  0  0
 74 77  1  0  0  0
 75 76  2  0  0  0
 75 83  1  0  0  0
 76 85  1  0  0  0
 77 82  2  0  0  0
 78 81  1  0  0  0
 78 83  1  0  0  0
 78 84  2  0  0  0
 79148  1  0  0  0
 79149  1  0  0  0
 79150  1  0  0  0
 79 81  1  0  0  0
 80 81  1  0  0  0
 80151  1  0  0  0
 80152  1  0  0  0
 80153  1  0  0  0
 82154  1  0  0  0
 83155  1  0  0  0
M  ISO  4   1 100  68 101  77 100  81 101
M  END
> <chiral flag>
0

> <version>
0

> <s_m_source_file>
/data/baiqing/PycharmProjects/Reinvent-master-3.2/result/LINK_invent/BTK/process_docking_weight1_custom_product_contain_oxygen_bond_distance_aromatic_linkinvent_7_9_3/rearranged_h_0089.sdf

> <i_m_source_file_index>
70

> <r_mmod_Potential_Energy-OPLS-2005>
546.443542480469

> <r_mmod_Stretch_Energy-OPLS-2005>
241.139617919922

> <r_mmod_Bend_Energy-OPLS-2005>
311.652038574219

> <r_mmod_Torsional_Energy-OPLS-2005>
214.285980224609

> <r_mmod_Improper_Torsional_Energy-OPLS-2005>
2.63929271697998

> <r_mmod_Van_der_Waal_Energy-OPLS-2005>
144.986968994141

> <r_mmod_Electrostatic_Energy-OPLS-2005>
-305.728729248047

> <r_mmod_Solvation_Energy-OPLS-2005>
-220.028274536133

> <b_mmod_Minimization_Converged-OPLS-2005>
0

> <r_mmod_RMS_Derivative-OPLS-2005>
1.73087179660797

$$$$
70
                    3D
 Structure written by MMmdl.
150158  0  0  1  0            999 V2000
  -30.6023  -14.6861   20.4894 C   0  0  0  0  0  0
  -30.4451  -12.4195   19.4598 C   0  0  0  0  0  0
  -29.5129  -12.5131   18.2301 C   0  0  0  0  0  0
  -28.0363  -12.3433   18.6418 C   0  0  0  0  0  0
  -27.6533  -13.2194   19.8643 C   0  0  2  0  0  0
  -28.6996  -13.0894   20.9944 C   0  0  0  0  0  0
  -25.2547  -13.8164   20.5679 C   0  0  0  0  0  0
  -24.1813  -13.0424   20.9158 C   0  0  0  0  0  0
  -24.6395  -11.6902   20.8720 C   0  0  0  0  0  0
  -23.9063  -10.4286   21.0395 C   0  0  0  0  0  0
  -24.3614   -9.4205   21.9176 C   0  0  0  0  0  0
  -23.6287   -8.2243   22.0753 C   0  0  0  0  0  0
  -22.4268   -8.0279   21.3546 C   0  0  0  0  0  0
  -21.9902   -9.0251   20.4646 C   0  0  0  0  0  0
  -22.7232  -10.2129   20.3050 C   0  0  0  0  0  0
  -21.6854   -6.0728   22.5276 C   0  0  0  0  0  0
  -21.4018   -6.5632   23.8211 C   0  0  0  0  0  0
  -21.3659   -5.6785   24.9174 C   0  0  0  0  0  0
  -21.6043   -4.3049   24.7224 C   0  0  0  0  0  0
  -21.8820   -3.8140   23.4346 C   0  0  0  0  0  0
  -21.9194   -4.6955   22.3400 C   0  0  0  0  0  0
  -22.7839  -13.5221   21.1832 C   0  0  0  0  0  0
  -22.1663   -4.2142   21.0977 F   0  0  0  0  0  0
  -21.5626   -3.4535   25.7737 F   0  0  0  0  0  0
  -30.0115  -13.4467   20.4300 N   0  0  0  0  0  0
  -26.2994  -12.9356   20.3337 N   0  0  0  0  0  0
  -25.9331  -11.6505   20.5757 N   0  0  0  0  0  0
  -22.0486  -12.8226   22.0403 N   0  0  0  0  0  0
  -25.4227  -15.1888   20.4140 N   0  0  0  0  0  0
  -31.7645  -14.8538   20.1066 O   0  0  0  0  0  0
  -21.6637   -6.8873   21.4240 O   0  0  0  0  0  0
  -22.3518  -14.5527   20.6683 O   0  0  0  0  0  0
  -24.6276  -31.8579   23.2014 C   0  0  0  0  0  0
  -25.9116  -32.4768   23.8348 C   0  0  1  0  0  0
  -27.2274  -27.3013   20.1247 C   0  0  0  0  0  0
  -25.5921  -33.8569   24.2275 N   0  0  0  0  0  0
  -23.4232  -30.4800   21.5440 C   0  0  2  0  0  0
  -24.8728  -28.9313   20.1118 C   0  0  0  0  0  0
  -22.7484  -29.4610   22.4931 C   0  0  0  0  0  0
  -18.0285  -28.1389   22.8484 C   0  0  0  0  0  0
  -24.1488  -36.7292   23.2637 C   0  0  0  0  0  0
  -25.9658  -30.7819   21.3775 C   0  0  0  0  0  0
  -26.0413  -29.4065   20.7221 C   0  0  0  0  0  0
  -27.2219  -28.6016   20.7223 C   0  0  0  0  0  0
  -26.0404  -26.8865   19.4816 C   0  0  0  0  0  0
  -24.8745  -27.6763   19.4827 C   0  0  0  0  0  0
  -23.6406  -29.8135   20.1599 C   0  0  0  0  0  0
  -25.4109  -36.3076   24.0330 C   0  0  1  0  0  0
  -20.5886  -28.3692   23.1282 C   0  0  2  0  0  0
  -20.6777  -26.9412   22.5413 C   0  0  0  0  0  0
  -19.5753  -26.6383   21.5215 C   0  0  0  0  0  0
  -18.1931  -26.7931   22.1623 C   0  0  0  0  0  0
  -19.1538  -28.8858   23.2878 C   0  0  0  0  0  0
  -18.9460  -30.1458   23.8895 C   0  0  0  0  0  0
  -17.6459  -30.6589   24.0562 C   0  0  0  0  0  0
  -25.9048  -34.9446   23.5105 C   0  0  0  0  0  0
  -16.5350  -29.9087   23.6331 C   0  0  0  0  0  0
  -16.7270  -28.6505   23.0351 C   0  0  0  0  0  0
  -26.4492  -31.6582   25.0725 C   0  0  0  0  0  0
  -25.3719  -31.3737   26.1451 C   0  0  0  0  0  0
  -27.0334  -30.2998   24.6202 C   0  0  0  0  0  0
  -27.6053  -32.4317   25.7490 C   0  0  0  0  0  0
  -27.5587  -37.1788   24.8454 C   0  0  0  0  0  0
  -21.4196  -29.3039   22.3672 N   0  0  0  0  0  0
  -26.4284  -37.3776   23.9418 N   0  0  0  0  0  0
  -24.6908  -31.0570   22.0977 N   0  0  0  0  0  0
  -23.4197  -28.8149   23.3020 O   0  0  0  0  0  0
  -28.3282  -26.4251   20.1453 O   0  0  0  0  0  0
  -26.5622  -34.8917   22.4675 O   0  0  0  0  0  0
  -23.5434  -32.1388   23.7328 O   0  0  0  0  0  0
  -30.7636  -19.4068   20.0556 C   0  0  0  0  0  0
  -30.8747  -17.9815   20.1798 C   0  0  0  0  0  0
  -28.5285  -19.3341   20.9146 C   0  0  0  0  0  0
  -29.5916  -20.1389   20.4158 C   0  0  0  0  0  0
  -29.8046  -17.1891   20.6781 C   0  0  0  0  0  0
  -28.6355  -17.9136   21.0389 C   0  0  0  0  0  0
  -28.1086  -25.0501   20.4229 C   0  0  0  0  0  0
  -28.9623  -23.9902   20.1910 C   0  0  0  0  0  0
  -28.6016  -22.5679   20.5330 C   0  0  0  0  0  0
  -29.5527  -21.6116   20.2496 N   0  0  0  0  0  0
  -29.7778  -15.7258   20.8472 N   0  0  0  0  0  0
  -27.5213  -22.2598   21.0396 O   0  0  0  0  0  0
  -30.1605  -24.2319   19.6384 O   0  0  0  0  0  0
  -27.5747  -17.2173   21.5144 F   0  0  0  0  0  0
  -31.4846  -12.5543   19.1561 H   0  0  0  0  0  0
  -30.3914  -11.4270   19.9102 H   0  0  0  0  0  0
  -29.7845  -11.7571   17.4921 H   0  0  0  0  0  0
  -29.6469  -13.4789   17.7409 H   0  0  0  0  0  0
  -27.8801  -11.2906   18.8798 H   0  0  0  0  0  0
  -27.3811  -12.5644   17.7985 H   0  0  0  0  0  0
  -27.6650  -14.2522   19.5151 H   0  0  0  0  0  0
  -28.7220  -12.0694   21.3813 H   0  0  0  0  0  0
  -28.4382  -13.7223   21.8438 H   0  0  0  0  0  0
  -25.2760   -9.5682   22.4747 H   0  0  0  0  0  0
  -23.9995   -7.4636   22.7475 H   0  0  0  0  0  0
  -21.0832   -8.8770   19.8954 H   0  0  0  0  0  0
  -22.3690  -10.9666   19.6158 H   0  0  0  0  0  0
  -21.2016   -7.6141   23.9713 H   0  0  0  0  0  0
  -21.1477   -6.0516   25.9076 H   0  0  0  0  0  0
  -22.0600   -2.7603   23.2848 H   0  0  0  0  0  0
  -22.4099  -11.9892   22.4799 H   0  0  0  0  0  0
  -21.1112  -13.1270   22.2614 H   0  0  0  0  0  0
  -24.6613  -15.8414   20.5615 H   0  0  0  0  0  0
  -26.2981  -15.6516   20.2056 H   0  0  0  0  0  0
  -26.7184  -32.5435   23.1095 H   0  0  0  0  0  0
  -25.0056  -33.9710   25.0410 H   0  0  0  0  0  0
  -22.7179  -31.3010   21.3992 H   0  0  0  0  0  0
  -23.3756  -35.9616   23.3275 H   0  0  0  0  0  0
  -24.3592  -36.8934   22.2056 H   0  0  0  0  0  0
  -23.7230  -37.6482   23.6675 H   0  0  0  0  0  0
  -26.0993  -31.5440   20.6085 H   0  0  0  0  0  0
  -26.8452  -30.8325   22.0078 H   0  0  0  0  0  0
  -28.1182  -28.9590   21.2097 H   0  0  0  0  0  0
  -26.0048  -25.9256   18.9881 H   0  0  0  0  0  0
  -23.9810  -27.3082   18.9974 H   0  0  0  0  0  0
  -23.7605  -30.5898   19.4033 H   0  0  0  0  0  0
  -22.7606  -29.2433   19.8570 H   0  0  0  0  0  0
  -25.1283  -36.1925   25.0821 H   0  0  0  0  0  0
  -20.9972  -28.3269   24.1405 H   0  0  0  0  0  0
  -20.5679  -26.2297   23.3613 H   0  0  0  0  0  0
  -21.6646  -26.7447   22.1205 H   0  0  0  0  0  0
  -19.6914  -25.6293   21.1247 H   0  0  0  0  0  0
  -19.6692  -27.3190   20.6743 H   0  0  0  0  0  0
  -17.4201  -26.6675   21.4027 H   0  0  0  0  0  0
  -18.0329  -26.0077   22.9022 H   0  0  0  0  0  0
  -19.7936  -30.7276   24.2263 H   0  0  0  0  0  0
  -17.5014  -31.6272   24.5161 H   0  0  0  0  0  0
  -15.5352  -30.2988   23.7660 H   0  0  0  0  0  0
  -15.8669  -28.0822   22.7071 H   0  0  0  0  0  0
  -24.5880  -30.7101   25.7781 H   0  0  0  0  0  0
  -24.8926  -32.2912   26.4876 H   0  0  0  0  0  0
  -25.8030  -30.8910   27.0229 H   0  0  0  0  0  0
  -26.2915  -29.6748   24.1217 H   0  0  0  0  0  0
  -27.4004  -29.7258   25.4722 H   0  0  0  0  0  0
  -27.8797  -30.4271   23.9447 H   0  0  0  0  0  0
  -27.2664  -33.3614   26.2075 H   0  0  0  0  0  0
  -28.3854  -32.6884   25.0309 H   0  0  0  0  0  0
  -28.0733  -31.8439   26.5397 H   0  0  0  0  0  0
  -28.2569  -38.0122   24.7555 H   0  0  0  0  0  0
  -28.1119  -36.2657   24.6204 H   0  0  0  0  0  0
  -27.2319  -37.1346   25.8858 H   0  0  0  0  0  0
  -20.9377  -29.8755   21.6874 H   0  0  0  0  0  0
  -26.0164  -38.2842   24.1452 H   0  0  0  0  0  0
  -31.6166  -19.9458   19.6667 H   0  0  0  0  0  0
  -31.7985  -17.5059   19.8832 H   0  0  0  0  0  0
  -27.5965  -19.7889   21.2115 H   0  0  0  0  0  0
  -27.1386  -24.8862   20.8759 H   0  0  0  0  0  0
  -30.3835  -22.0286   19.8485 H   0  0  0  0  0  0
  -28.8880  -15.4006   21.1947 H   0  0  0  0  0  0
  -30.2117  -25.1691   19.4958 H   0  0  0  0  0  0
  1 25  1  0  0  0
  1 30  2  0  0  0
  1 81  1  0  0  0
  2  3  1  0  0  0
  2 25  1  0  0  0
  2 85  1  0  0  0
  2 86  1  0  0  0
  3  4  1  0  0  0
  3 87  1  0  0  0
  3 88  1  0  0  0
  4  5  1  0  0  0
  4 89  1  0  0  0
  4 90  1  0  0  0
  5  6  1  0  0  0
  5 26  1  0  0  0
  5 91  1  0  0  0
  6 25  1  0  0  0
  6 92  1  0  0  0
  6 93  1  0  0  0
  7  8  2  0  0  0
  7 26  1  0  0  0
  7 29  1  0  0  0
  8  9  1  0  0  0
  8 22  1  0  0  0
  9 10  1  0  0  0
  9 27  2  0  0  0
 10 11  2  0  0  0
 10 15  1  0  0  0
 11 12  1  0  0  0
 11 94  1  0  0  0
 12 13  2  0  0  0
 12 95  1  0  0  0
 13 14  1  0  0  0
 13 31  1  0  0  0
 14 15  2  0  0  0
 14 96  1  0  0  0
 15 97  1  0  0  0
 16 17  2  0  0  0
 16 21  1  0  0  0
 16 31  1  0  0  0
 17 18  1  0  0  0
 17 98  1  0  0  0
 18 19  2  0  0  0
 18 99  1  0  0  0
 19 20  1  0  0  0
 19 24  1  0  0  0
 20 21  2  0  0  0
 20100  1  0  0  0
 21 23  1  0  0  0
 22 28  1  0  0  0
 22 32  2  0  0  0
 26 27  1  0  0  0
 28101  1  0  0  0
 28102  1  0  0  0
 29103  1  0  0  0
 29104  1  0  0  0
 33 34  1  0  0  0
 33 66  1  0  0  0
 33 70  2  0  0  0
 34 36  1  0  0  0
 34 59  1  0  0  0
 34105  1  0  0  0
 35 44  2  0  0  0
 35 45  1  0  0  0
 35 68  1  0  0  0
 36 56  1  0  0  0
 36106  1  0  0  0
 37 39  1  0  0  0
 37 47  1  0  0  0
 37 66  1  0  0  0
 37107  1  0  0  0
 38 43  2  0  0  0
 38 46  1  0  0  0
 38 47  1  0  0  0
 39 64  1  0  0  0
 39 67  2  0  0  0
 40 52  1  0  0  0
 40 53  2  0  0  0
 40 58  1  0  0  0
 41108  1  0  0  0
 41109  1  0  0  0
 41110  1  0  0  0
 41 48  1  0  0  0
 42 43  1  0  0  0
 42 66  1  0  0  0
 42111  1  0  0  0
 42112  1  0  0  0
 43 44  1  0  0  0
 44113  1  0  0  0
 45 46  2  0  0  0
 45114  1  0  0  0
 46115  1  0  0  0
 47116  1  0  0  0
 47117  1  0  0  0
 48 56  1  0  0  0
 48 65  1  0  0  0
 48118  1  0  0  0
 49 50  1  0  0  0
 49 53  1  0  0  0
 49 64  1  0  0  0
 49119  1  0  0  0
 50 51  1  0  0  0
 50120  1  0  0  0
 50121  1  0  0  0
 51 52  1  0  0  0
 51122  1  0  0  0
 51123  1  0  0  0
 52124  1  0  0  0
 52125  1  0  0  0
 53 54  1  0  0  0
 54 55  2  0  0  0
 54126  1  0  0  0
 55 57  1  0  0  0
 55127  1  0  0  0
 56 69  2  0  0  0
 57 58  2  0  0  0
 57128  1  0  0  0
 58129  1  0  0  0
 59 60  1  0  0  0
 59 61  1  0  0  0
 59 62  1  0  0  0
 60130  1  0  0  0
 60131  1  0  0  0
 60132  1  0  0  0
 61133  1  0  0  0
 61134  1  0  0  0
 61135  1  0  0  0
 62136  1  0  0  0
 62137  1  0  0  0
 62138  1  0  0  0
 63 65  1  0  0  0
 63139  1  0  0  0
 63140  1  0  0  0
 63141  1  0  0  0
 64142  1  0  0  0
 65143  1  0  0  0
 68 77  1  0  0  0
 71 72  2  0  0  0
 71 74  1  0  0  0
 71144  1  0  0  0
 72 75  1  0  0  0
 72145  1  0  0  0
 73 74  2  0  0  0
 73 76  1  0  0  0
 73146  1  0  0  0
 74 80  1  0  0  0
 75 76  2  0  0  0
 75 81  1  0  0  0
 76 84  1  0  0  0
 77 78  2  0  0  0
 77147  1  0  0  0
 78 79  1  0  0  0
 78 83  1  0  0  0
 79 80  1  0  0  0
 79 82  2  0  0  0
 80148  1  0  0  0
 81149  1  0  0  0
 83150  1  0  0  0
M  ISO  4   1 100  68 101  77 101  81 100
M  END
> <chiral flag>
0

> <version>
0

> <s_m_source_file>
/data/baiqing/PycharmProjects/Reinvent-master-3.2/result/LINK_invent/BTK/process_docking_weight1_custom_product_contain_oxygen_bond_distance_aromatic_linkinvent_7_9_3/rearranged_h_0089.sdf

> <i_m_source_file_index>
71

> <r_mmod_Potential_Energy-OPLS-2005>
-27.2929592132568

> <r_mmod_Stretch_Energy-OPLS-2005>
88.6991806030273

> <r_mmod_Bend_Energy-OPLS-2005>
147.536422729492

> <r_mmod_Torsional_Energy-OPLS-2005>
205.766189575195

> <r_mmod_Improper_Torsional_Energy-OPLS-2005>
3.61781811714172

> <r_mmod_Van_der_Waal_Energy-OPLS-2005>
145.098480224609

> <r_mmod_Electrostatic_Energy-OPLS-2005>
-467.958587646484

> <r_mmod_Solvation_Energy-OPLS-2005>
-211.342819213867

> <b_mmod_Minimization_Converged-OPLS-2005>
0

> <r_mmod_RMS_Derivative-OPLS-2005>
0.558009803295135

$$$$
71
                    3D
 Structure written by MMmdl.
155163  0  0  1  0            999 V2000
  -30.5397  -14.9972   20.3408 C   0  0  0  0  0  0
  -30.4574  -12.5995   19.4739 C   0  0  0  0  0  0
  -29.5191  -12.4071   18.2584 C   0  0  0  0  0  0
  -28.0483  -12.2470   18.6902 C   0  0  0  0  0  0
  -27.6216  -13.2161   19.8225 C   0  0  2  0  0  0
  -28.6854  -13.3178   20.9346 C   0  0  0  0  0  0
  -25.2508  -13.8131   20.5786 C   0  0  0  0  0  0
  -24.1776  -13.0404   20.9256 C   0  0  0  0  0  0
  -24.6346  -11.6877   20.8800 C   0  0  0  0  0  0
  -23.9033  -10.4266   21.0437 C   0  0  0  0  0  0
  -24.3601   -9.4181   21.9204 C   0  0  0  0  0  0
  -23.6277   -8.2221   22.0752 C   0  0  0  0  0  0
  -22.4260   -8.0264   21.3540 C   0  0  0  0  0  0
  -21.9898   -9.0237   20.4644 C   0  0  0  0  0  0
  -22.7219  -10.2116   20.3068 C   0  0  0  0  0  0
  -21.6842   -6.0731   22.5282 C   0  0  0  0  0  0
  -21.4009   -6.5639   23.8213 C   0  0  0  0  0  0
  -21.3649   -5.6787   24.9176 C   0  0  0  0  0  0
  -21.6045   -4.3053   24.7219 C   0  0  0  0  0  0
  -21.8824   -3.8140   23.4344 C   0  0  0  0  0  0
  -21.9191   -4.6962   22.3402 C   0  0  0  0  0  0
  -22.7807  -13.5219   21.1889 C   0  0  0  0  0  0
  -22.1666   -4.2152   21.0981 F   0  0  0  0  0  0
  -21.5625   -3.4534   25.7734 F   0  0  0  0  0  0
  -29.9385  -13.7320   20.2844 N   0  0  0  0  0  0
  -26.2880  -12.9286   20.3313 N   0  0  0  0  0  0
  -25.9275  -11.6461   20.5835 N   0  0  0  0  0  0
  -22.0431  -12.8222   22.0438 N   0  0  0  0  0  0
  -25.4240  -15.1855   20.4260 N   0  0  0  0  0  0
  -31.7753  -15.0131   20.3309 O   0  0  0  0  0  0
  -21.6624   -6.8868   21.4239 O   0  0  0  0  0  0
  -22.3518  -14.5528   20.6715 O   0  0  0  0  0  0
  -24.6432  -31.8462   23.1898 C   0  0  0  0  0  0
  -25.9207  -32.4708   23.8289 C   0  0  1  0  0  0
  -27.2245  -27.1409   20.1579 C   0  0  0  0  0  0
  -25.5962  -33.8515   24.2211 N   0  0  0  0  0  0
  -23.4483  -30.4652   21.5347 C   0  0  2  0  0  0
  -24.9009  -28.8964   20.1131 C   0  0  0  0  0  0
  -22.7572  -29.4562   22.4862 C   0  0  0  0  0  0
  -18.0305  -28.1399   22.8484 C   0  0  0  0  0  0
  -24.1490  -36.7253   23.2641 C   0  0  0  0  0  0
  -26.0049  -30.7214   21.3897 C   0  0  0  0  0  0
  -26.0781  -29.3323   20.7348 C   0  0  0  0  0  0
  -27.2404  -28.4714   20.7412 C   0  0  0  0  0  0
  -26.0211  -26.8166   19.4868 C   0  0  0  0  0  0
  -24.8861  -27.6520   19.4714 C   0  0  0  0  0  0
  -23.6763  -29.7953   20.1547 C   0  0  0  0  0  0
  -25.4123  -36.3041   24.0319 C   0  0  1  0  0  0
  -20.5924  -28.3737   23.1233 C   0  0  2  0  0  0
  -20.6798  -26.9440   22.5402 C   0  0  0  0  0  0
  -19.5765  -26.6390   21.5218 C   0  0  0  0  0  0
  -18.1947  -26.7938   22.1629 C   0  0  0  0  0  0
  -19.1563  -28.8885   23.2853 C   0  0  0  0  0  0
  -18.9478  -30.1479   23.8886 C   0  0  0  0  0  0
  -17.6472  -30.6597   24.0568 C   0  0  0  0  0  0
  -25.9078  -34.9414   23.5073 C   0  0  0  0  0  0
  -16.5363  -29.9090   23.6337 C   0  0  0  0  0  0
  -16.7288  -28.6504   23.0367 C   0  0  0  0  0  0
  -26.4528  -31.6563   25.0717 C   0  0  0  0  0  0
  -25.3714  -31.3751   26.1415 C   0  0  0  0  0  0
  -27.0371  -30.2954   24.6283 C   0  0  0  0  0  0
  -27.6075  -32.4303   25.7494 C   0  0  0  0  0  0
  -27.5576  -37.1782   24.8465 C   0  0  0  0  0  0
  -21.4266  -29.3058   22.3602 N   0  0  0  0  0  0
  -26.4284  -37.3755   23.9414 N   0  0  0  0  0  0
  -24.7185  -31.0322   22.0930 N   0  0  0  0  0  0
  -23.4210  -28.8108   23.3016 O   0  0  0  0  0  0
  -28.2709  -26.1451   20.2284 O   0  0  0  0  0  0
  -26.5655  -34.8906   22.4646 O   0  0  0  0  0  0
  -23.5548  -32.1332   23.7110 O   0  0  0  0  0  0
  -30.0687  -20.1304   19.6479 C   0  0  0  0  0  0
  -30.4004  -18.7149   19.5398 C   0  0  0  0  0  0
  -28.9402  -18.2046   21.3180 C   0  0  0  0  0  0
  -29.1070  -20.6660   20.5670 C   0  0  0  0  0  0
  -29.8240  -17.6500   20.3334 C   0  0  0  0  0  0
  -28.5954  -19.6161   21.4165 C   0  0  0  0  0  0
  -27.3288  -16.6147   17.2969 C   0  0  0  0  0  0
  -27.9741  -16.6779   18.4760 C   0  0  0  0  0  0
  -28.8920  -23.2996   20.3127 C   0  0  0  0  0  0
  -29.2909  -16.0609   18.6448 C   0  0  0  0  0  0
  -27.8924  -24.6340   20.2633 C   0  0  0  0  0  0
  -28.5079  -22.0437   20.6116 N   0  0  0  0  0  0
  -27.6397  -19.9870   22.3609 N   0  0  0  0  0  0
  -29.8184  -16.1657   19.8986 N   0  0  0  0  0  0
  -29.9287  -15.5966   17.6925 O   0  0  0  0  0  0
  -31.4750  -12.7895   19.1289 H   0  0  0  0  0  0
  -30.5064  -11.6905   20.0750 H   0  0  0  0  0  0
  -29.8301  -11.5233   17.6996 H   0  0  0  0  0  0
  -29.6119  -13.2275   17.5548 H   0  0  0  0  0  0
  -27.9350  -11.2188   19.0372 H   0  0  0  0  0  0
  -27.3861  -12.3502   17.8296 H   0  0  0  0  0  0
  -27.5412  -14.1843   19.3468 H   0  0  0  0  0  0
  -28.8041  -12.3685   21.4580 H   0  0  0  0  0  0
  -28.3870  -14.0561   21.6812 H   0  0  0  0  0  0
  -25.2750   -9.5658   22.4784 H   0  0  0  0  0  0
  -23.9980   -7.4608   22.7469 H   0  0  0  0  0  0
  -21.0833   -8.8755   19.8954 H   0  0  0  0  0  0
  -22.3681  -10.9661   19.6182 H   0  0  0  0  0  0
  -21.2005   -7.6147   23.9719 H   0  0  0  0  0  0
  -21.1466   -6.0519   25.9078 H   0  0  0  0  0  0
  -22.0614   -2.7604   23.2847 H   0  0  0  0  0  0
  -22.4024  -11.9879   22.4835 H   0  0  0  0  0  0
  -21.1054  -13.1265   22.2626 H   0  0  0  0  0  0
  -24.6629  -15.8432   20.5555 H   0  0  0  0  0  0
  -26.2879  -15.6273   20.1471 H   0  0  0  0  0  0
  -26.7277  -32.5327   23.1026 H   0  0  0  0  0  0
  -25.0117  -33.9641   25.0364 H   0  0  0  0  0  0
  -22.7516  -31.2917   21.3785 H   0  0  0  0  0  0
  -23.3770  -35.9567   23.3275 H   0  0  0  0  0  0
  -24.3583  -36.8909   22.2061 H   0  0  0  0  0  0
  -23.7217  -37.6431   23.6688 H   0  0  0  0  0  0
  -26.1579  -31.4737   20.6150 H   0  0  0  0  0  0
  -26.8766  -30.7763   22.0294 H   0  0  0  0  0  0
  -28.1337  -28.7999   21.2536 H   0  0  0  0  0  0
  -25.9121  -25.8805   18.9662 H   0  0  0  0  0  0
  -23.9925  -27.3171   18.9623 H   0  0  0  0  0  0
  -23.8104  -30.5686   19.3977 H   0  0  0  0  0  0
  -22.7937  -29.2333   19.8444 H   0  0  0  0  0  0
  -25.1307  -36.1875   25.0810 H   0  0  0  0  0  0
  -21.0018  -28.3323   24.1355 H   0  0  0  0  0  0
  -20.5710  -26.2350   23.3626 H   0  0  0  0  0  0
  -21.6660  -26.7461   22.1181 H   0  0  0  0  0  0
  -19.6932  -25.6294   21.1265 H   0  0  0  0  0  0
  -19.6695  -27.3193   20.6742 H   0  0  0  0  0  0
  -17.4218  -26.6689   21.4032 H   0  0  0  0  0  0
  -18.0345  -26.0079   22.9024 H   0  0  0  0  0  0
  -19.7955  -30.7302   24.2252 H   0  0  0  0  0  0
  -17.5024  -31.6278   24.5166 H   0  0  0  0  0  0
  -15.5365  -30.2993   23.7665 H   0  0  0  0  0  0
  -15.8684  -28.0815   22.7102 H   0  0  0  0  0  0
  -24.5887  -30.7110   25.7724 H   0  0  0  0  0  0
  -24.8914  -32.2936   26.4803 H   0  0  0  0  0  0
  -25.7993  -30.8934   27.0217 H   0  0  0  0  0  0
  -26.2968  -29.6687   24.1296 H   0  0  0  0  0  0
  -27.3989  -29.7241   25.4842 H   0  0  0  0  0  0
  -27.8883  -30.4180   23.9584 H   0  0  0  0  0  0
  -27.2708  -33.3650   26.1990 H   0  0  0  0  0  0
  -28.3935  -32.6779   25.0343 H   0  0  0  0  0  0
  -28.0684  -31.8465   26.5475 H   0  0  0  0  0  0
  -28.2578  -38.0094   24.7534 H   0  0  0  0  0  0
  -28.1086  -36.2626   24.6265 H   0  0  0  0  0  0
  -27.2299  -37.1399   25.8868 H   0  0  0  0  0  0
  -20.9479  -29.8765   21.6776 H   0  0  0  0  0  0
  -26.0151  -38.2820   24.1429 H   0  0  0  0  0  0
  -30.5194  -20.8053   18.9346 H   0  0  0  0  0  0
  -31.0622  -18.4379   18.7315 H   0  0  0  0  0  0
  -28.4164  -17.5094   21.9586 H   0  0  0  0  0  0
  -26.3591  -17.0746   17.1718 H   0  0  0  0  0  0
  -27.7504  -16.1090   16.4400 H   0  0  0  0  0  0
  -27.4904  -17.1952   19.2906 H   0  0  0  0  0  0
  -29.9255  -23.5144   20.0312 H   0  0  0  0  0  0
  -27.1949  -24.5244   21.0944 H   0  0  0  0  0  0
  -27.3045  -24.4411   19.3704 H   0  0  0  0  0  0
  -27.5242  -19.4243   23.1974 H   0  0  0  0  0  0
  -27.5530  -20.9859   22.5247 H   0  0  0  0  0  0
  1 25  1  0  0  0
  1 30  2  0  0  0
  1 84  1  0  0  0
  2  3  1  0  0  0
  2 25  1  0  0  0
  2 86  1  0  0  0
  2 87  1  0  0  0
  3  4  1  0  0  0
  3 88  1  0  0  0
  3 89  1  0  0  0
  4  5  1  0  0  0
  4 90  1  0  0  0
  4 91  1  0  0  0
  5  6  1  0  0  0
  5 26  1  0  0  0
  5 92  1  0  0  0
  6 25  1  0  0  0
  6 93  1  0  0  0
  6 94  1  0  0  0
  7  8  2  0  0  0
  7 26  1  0  0  0
  7 29  1  0  0  0
  8  9  1  0  0  0
  8 22  1  0  0  0
  9 10  1  0  0  0
  9 27  2  0  0  0
 10 11  2  0  0  0
 10 15  1  0  0  0
 11 12  1  0  0  0
 11 95  1  0  0  0
 12 13  2  0  0  0
 12 96  1  0  0  0
 13 14  1  0  0  0
 13 31  1  0  0  0
 14 15  2  0  0  0
 14 97  1  0  0  0
 15 98  1  0  0  0
 16 17  2  0  0  0
 16 21  1  0  0  0
 16 31  1  0  0  0
 17 18  1  0  0  0
 17 99  1  0  0  0
 18 19  2  0  0  0
 18100  1  0  0  0
 19 20  1  0  0  0
 19 24  1  0  0  0
 20 21  2  0  0  0
 20101  1  0  0  0
 21 23  1  0  0  0
 22 28  1  0  0  0
 22 32  2  0  0  0
 26 27  1  0  0  0
 28102  1  0  0  0
 28103  1  0  0  0
 29104  1  0  0  0
 29105  1  0  0  0
 33 34  1  0  0  0
 33 66  1  0  0  0
 33 70  2  0  0  0
 34 36  1  0  0  0
 34 59  1  0  0  0
 34106  1  0  0  0
 35 44  2  0  0  0
 35 45  1  0  0  0
 35 68  1  0  0  0
 36 56  1  0  0  0
 36107  1  0  0  0
 37 39  1  0  0  0
 37 47  1  0  0  0
 37 66  1  0  0  0
 37108  1  0  0  0
 38 43  2  0  0  0
 38 46  1  0  0  0
 38 47  1  0  0  0
 39 64  1  0  0  0
 39 67  2  0  0  0
 40 52  1  0  0  0
 40 53  2  0  0  0
 40 58  1  0  0  0
 41109  1  0  0  0
 41110  1  0  0  0
 41111  1  0  0  0
 41 48  1  0  0  0
 42 43  1  0  0  0
 42 66  1  0  0  0
 42112  1  0  0  0
 42113  1  0  0  0
 43 44  1  0  0  0
 44114  1  0  0  0
 45 46  2  0  0  0
 45115  1  0  0  0
 46116  1  0  0  0
 47117  1  0  0  0
 47118  1  0  0  0
 48 56  1  0  0  0
 48 65  1  0  0  0
 48119  1  0  0  0
 49 50  1  0  0  0
 49 53  1  0  0  0
 49 64  1  0  0  0
 49120  1  0  0  0
 50 51  1  0  0  0
 50121  1  0  0  0
 50122  1  0  0  0
 51 52  1  0  0  0
 51123  1  0  0  0
 51124  1  0  0  0
 52125  1  0  0  0
 52126  1  0  0  0
 53 54  1  0  0  0
 54 55  2  0  0  0
 54127  1  0  0  0
 55 57  1  0  0  0
 55128  1  0  0  0
 56 69  2  0  0  0
 57 58  2  0  0  0
 57129  1  0  0  0
 58130  1  0  0  0
 59 60  1  0  0  0
 59 61  1  0  0  0
 59 62  1  0  0  0
 60131  1  0  0  0
 60132  1  0  0  0
 60133  1  0  0  0
 61134  1  0  0  0
 61135  1  0  0  0
 61136  1  0  0  0
 62137  1  0  0  0
 62138  1  0  0  0
 62139  1  0  0  0
 63 65  1  0  0  0
 63140  1  0  0  0
 63141  1  0  0  0
 63142  1  0  0  0
 64143  1  0  0  0
 65144  1  0  0  0
 68 81  1  0  0  0
 71 72  2  0  0  0
 71 74  1  0  0  0
 71145  1  0  0  0
 72 75  1  0  0  0
 72146  1  0  0  0
 73 75  2  0  0  0
 73 76  1  0  0  0
 73147  1  0  0  0
 74 76  2  0  0  0
 74 82  1  0  0  0
 75 84  1  0  0  0
 76 83  1  0  0  0
 77 78  2  0  0  0
 77148  1  0  0  0
 77149  1  0  0  0
 78 80  1  0  0  0
 78150  1  0  0  0
 79 81  1  0  0  0
 79 82  2  0  0  0
 79151  1  0  0  0
 80 84  1  0  0  0
 80 85  2  0  0  0
 81152  1  0  0  0
 81153  1  0  0  0
 83154  1  0  0  0
 83155  1  0  0  0
M  ISO  4   1 100  68 101  81 101  84 100
M  END
> <chiral flag>
0

> <version>
0

> <s_m_source_file>
/data/baiqing/PycharmProjects/Reinvent-master-3.2/result/LINK_invent/BTK/process_docking_weight1_custom_product_contain_oxygen_bond_distance_aromatic_linkinvent_7_9_3/rearranged_h_0089.sdf

> <i_m_source_file_index>
72

> <r_mmod_Potential_Energy-OPLS-2005>
702.998046875

> <r_mmod_Stretch_Energy-OPLS-2005>
243.805755615234

> <r_mmod_Bend_Energy-OPLS-2005>
276.049896240234

> <r_mmod_Torsional_Energy-OPLS-2005>
368.908905029297

> <r_mmod_Improper_Torsional_Energy-OPLS-2005>
27.1663932800293

> <r_mmod_Van_der_Waal_Energy-OPLS-2005>
155.640121459961

> <r_mmod_Electrostatic_Energy-OPLS-2005>
-376.717864990234

> <r_mmod_Solvation_Energy-OPLS-2005>
-215.391525268555

> <b_mmod_Minimization_Converged-OPLS-2005>
0

> <r_mmod_RMS_Derivative-OPLS-2005>
1.42125284671783

$$$$
72
                    3D
 Structure written by MMmdl.
149157  0  0  1  0            999 V2000
  -30.6973  -14.6722   20.4675 C   0  0  0  0  0  0
  -30.4091  -12.4140   19.4645 C   0  0  0  0  0  0
  -29.4958  -12.4919   18.2258 C   0  0  0  0  0  0
  -28.0234  -12.3308   18.6448 C   0  0  0  0  0  0
  -27.6382  -13.2362   19.8465 C   0  0  2  0  0  0
  -28.6867  -13.1846   20.9796 C   0  0  0  0  0  0
  -25.2496  -13.8216   20.5719 C   0  0  0  0  0  0
  -24.1790  -13.0449   20.9208 C   0  0  0  0  0  0
  -24.6390  -11.6930   20.8754 C   0  0  0  0  0  0
  -23.9074  -10.4298   21.0406 C   0  0  0  0  0  0
  -24.3623   -9.4212   21.9185 C   0  0  0  0  0  0
  -23.6301   -8.2245   22.0753 C   0  0  0  0  0  0
  -22.4283   -8.0282   21.3544 C   0  0  0  0  0  0
  -21.9917   -9.0255   20.4646 C   0  0  0  0  0  0
  -22.7244  -10.2136   20.3056 C   0  0  0  0  0  0
  -21.6854   -6.0737   22.5279 C   0  0  0  0  0  0
  -21.4017   -6.5642   23.8213 C   0  0  0  0  0  0
  -21.3659   -5.6794   24.9174 C   0  0  0  0  0  0
  -21.6044   -4.3058   24.7225 C   0  0  0  0  0  0
  -21.8820   -3.8148   23.4348 C   0  0  0  0  0  0
  -21.9194   -4.6963   22.3403 C   0  0  0  0  0  0
  -22.7810  -13.5221   21.1864 C   0  0  0  0  0  0
  -22.1662   -4.2149   21.0981 F   0  0  0  0  0  0
  -21.5626   -3.4540   25.7738 F   0  0  0  0  0  0
  -29.9897  -13.4969   20.3838 N   0  0  0  0  0  0
  -26.2927  -12.9436   20.3300 N   0  0  0  0  0  0
  -25.9324  -11.6571   20.5770 N   0  0  0  0  0  0
  -22.0463  -12.8210   22.0423 N   0  0  0  0  0  0
  -25.4181  -15.1943   20.4170 N   0  0  0  0  0  0
  -31.8937  -14.6466   20.1690 O   0  0  0  0  0  0
  -21.6644   -6.8881   21.4243 O   0  0  0  0  0  0
  -22.3488  -14.5522   20.6709 O   0  0  0  0  0  0
  -24.6278  -31.8587   23.2026 C   0  0  0  0  0  0
  -25.9122  -32.4772   23.8356 C   0  0  1  0  0  0
  -27.2109  -27.3048   20.1246 C   0  0  0  0  0  0
  -25.5935  -33.8575   24.2283 N   0  0  0  0  0  0
  -23.4218  -30.4840   21.5449 C   0  0  2  0  0  0
  -24.8681  -28.9401   20.1075 C   0  0  0  0  0  0
  -22.7480  -29.4626   22.4926 C   0  0  0  0  0  0
  -18.0289  -28.1386   22.8493 C   0  0  0  0  0  0
  -24.1489  -36.7291   23.2639 C   0  0  0  0  0  0
  -25.9647  -30.7855   21.3762 C   0  0  0  0  0  0
  -26.0384  -29.4125   20.7178 C   0  0  0  0  0  0
  -27.2177  -28.6062   20.7177 C   0  0  0  0  0  0
  -26.0282  -26.8980   19.4721 C   0  0  0  0  0  0
  -24.8660  -27.6893   19.4730 C   0  0  0  0  0  0
  -23.6367  -29.8217   20.1589 C   0  0  0  0  0  0
  -25.4114  -36.3081   24.0330 C   0  0  1  0  0  0
  -20.5892  -28.3690   23.1280 C   0  0  2  0  0  0
  -20.6780  -26.9411   22.5410 C   0  0  0  0  0  0
  -19.5752  -26.6386   21.5215 C   0  0  0  0  0  0
  -18.1933  -26.7930   22.1632 C   0  0  0  0  0  0
  -19.1542  -28.8855   23.2883 C   0  0  0  0  0  0
  -18.9465  -30.1460   23.8895 C   0  0  0  0  0  0
  -17.6463  -30.6588   24.0565 C   0  0  0  0  0  0
  -25.9050  -34.9450   23.5104 C   0  0  0  0  0  0
  -16.5355  -29.9086   23.6333 C   0  0  0  0  0  0
  -16.7276  -28.6504   23.0354 C   0  0  0  0  0  0
  -26.4500  -31.6584   25.0727 C   0  0  0  0  0  0
  -25.3733  -31.3736   26.1455 C   0  0  0  0  0  0
  -27.0337  -30.3006   24.6187 C   0  0  0  0  0  0
  -27.6064  -32.4316   25.7492 C   0  0  0  0  0  0
  -27.5578  -37.1800   24.8465 C   0  0  0  0  0  0
  -21.4192  -29.3047   22.3671 N   0  0  0  0  0  0
  -26.4291  -37.3776   23.9408 N   0  0  0  0  0  0
  -24.6902  -31.0592   22.0980 N   0  0  0  0  0  0
  -23.4195  -28.8159   23.3005 O   0  0  0  0  0  0
  -28.2793  -26.3966   20.1742 O   0  0  0  0  0  0
  -26.5612  -34.8922   22.4666 O   0  0  0  0  0  0
  -23.5440  -32.1391   23.7349 O   0  0  0  0  0  0
  -30.5839  -19.6159   20.0669 C   0  0  0  0  0  0
  -30.0702  -20.9489   20.0721 C   0  0  0  0  0  0
  -28.0604  -20.1111   21.0695 C   0  0  0  0  0  0
  -29.8753  -18.4853   20.5815 C   0  0  0  0  0  0
  -28.7908  -21.2480   20.6046 C   0  0  0  0  0  0
  -28.5738  -18.7720   21.0677 C   0  0  0  0  0  0
  -28.6752  -23.7381   20.3971 C   0  0  0  0  0  0
  -30.6157  -17.1284   20.7321 C   0  0  0  0  0  0
  -27.9554  -25.0892   20.8143 C   0  0  0  0  0  0
  -28.2191  -22.5664   20.7612 N   0  0  0  0  0  0
  -30.0283  -15.8761   20.6419 N   0  0  0  0  0  0
  -31.8337  -17.2486   20.9187 O   0  0  0  0  0  0
  -27.8150  -17.7715   21.5787 F   0  0  0  0  0  0
  -31.4538  -12.4891   19.1586 H   0  0  0  0  0  0
  -30.3155  -11.4426   19.9533 H   0  0  0  0  0  0
  -29.7665  -11.7172   17.5071 H   0  0  0  0  0  0
  -29.6367  -13.4472   17.7169 H   0  0  0  0  0  0
  -27.8742  -11.2832   18.9096 H   0  0  0  0  0  0
  -27.3641  -12.5248   17.7979 H   0  0  0  0  0  0
  -27.6295  -14.2557   19.4602 H   0  0  0  0  0  0
  -28.7084  -12.1990   21.4471 H   0  0  0  0  0  0
  -28.4384  -13.8963   21.7686 H   0  0  0  0  0  0
  -25.2769   -9.5687   22.4759 H   0  0  0  0  0  0
  -24.0009   -7.4635   22.7473 H   0  0  0  0  0  0
  -21.0846   -8.8771   19.8953 H   0  0  0  0  0  0
  -22.3700  -10.9673   19.6163 H   0  0  0  0  0  0
  -21.2011   -7.6151   23.9716 H   0  0  0  0  0  0
  -21.1480   -6.0525   25.9078 H   0  0  0  0  0  0
  -22.0599   -2.7610   23.2847 H   0  0  0  0  0  0
  -22.4088  -11.9878   22.4817 H   0  0  0  0  0  0
  -21.1076  -13.1223   22.2627 H   0  0  0  0  0  0
  -24.6572  -15.8504   20.5544 H   0  0  0  0  0  0
  -26.2793  -15.6450   20.1375 H   0  0  0  0  0  0
  -26.7183  -32.5434   23.1098 H   0  0  0  0  0  0
  -25.0099  -33.9722   25.0439 H   0  0  0  0  0  0
  -22.7174  -31.3063   21.4033 H   0  0  0  0  0  0
  -23.3754  -35.9620   23.3301 H   0  0  0  0  0  0
  -24.3586  -36.8905   22.2053 H   0  0  0  0  0  0
  -23.7240  -37.6497   23.6654 H   0  0  0  0  0  0
  -26.0983  -31.5482   20.6077 H   0  0  0  0  0  0
  -26.8451  -30.8336   22.0053 H   0  0  0  0  0  0
  -28.1120  -28.9582   21.2129 H   0  0  0  0  0  0
  -25.9904  -25.9375   18.9776 H   0  0  0  0  0  0
  -23.9720  -27.3257   18.9851 H   0  0  0  0  0  0
  -23.7562  -30.5997   19.4038 H   0  0  0  0  0  0
  -22.7560  -29.2523   19.8551 H   0  0  0  0  0  0
  -25.1295  -36.1930   25.0823 H   0  0  0  0  0  0
  -20.9992  -28.3259   24.1398 H   0  0  0  0  0  0
  -20.5693  -26.2294   23.3609 H   0  0  0  0  0  0
  -21.6646  -26.7445   22.1193 H   0  0  0  0  0  0
  -19.6907  -25.6298   21.1241 H   0  0  0  0  0  0
  -19.6683  -27.3202   20.6750 H   0  0  0  0  0  0
  -17.4203  -26.6683   21.4031 H   0  0  0  0  0  0
  -18.0331  -26.0073   22.9027 H   0  0  0  0  0  0
  -19.7938  -30.7282   24.2255 H   0  0  0  0  0  0
  -17.5017  -31.6268   24.5164 H   0  0  0  0  0  0
  -15.5355  -30.2986   23.7661 H   0  0  0  0  0  0
  -15.8678  -28.0823   22.7064 H   0  0  0  0  0  0
  -24.5895  -30.7097   25.7791 H   0  0  0  0  0  0
  -24.8945  -32.2912   26.4881 H   0  0  0  0  0  0
  -25.8060  -30.8908   27.0227 H   0  0  0  0  0  0
  -26.2906  -29.6759   24.1214 H   0  0  0  0  0  0
  -27.4035  -29.7258   25.4690 H   0  0  0  0  0  0
  -27.8780  -30.4295   23.9410 H   0  0  0  0  0  0
  -27.2681  -33.3628   26.2052 H   0  0  0  0  0  0
  -28.3882  -32.6852   25.0319 H   0  0  0  0  0  0
  -28.0720  -31.8445   26.5419 H   0  0  0  0  0  0
  -28.2596  -38.0096   24.7515 H   0  0  0  0  0  0
  -28.1071  -36.2630   24.6285 H   0  0  0  0  0  0
  -27.2300  -37.1440   25.8868 H   0  0  0  0  0  0
  -20.9363  -29.8771   21.6887 H   0  0  0  0  0  0
  -26.0170  -38.2848   24.1417 H   0  0  0  0  0  0
  -31.5872  -19.4706   19.6908 H   0  0  0  0  0  0
  -30.6994  -21.7426   19.6943 H   0  0  0  0  0  0
  -27.0741  -20.2665   21.4829 H   0  0  0  0  0  0
  -29.5915  -23.8624   19.8142 H   0  0  0  0  0  0
  -28.1613  -25.2289   21.8759 H   0  0  0  0  0  0
  -26.8853  -24.8858   20.7799 H   0  0  0  0  0  0
  -29.0227  -15.8514   20.6549 H   0  0  0  0  0  0
  1 25  1  0  0  0
  1 30  2  0  0  0
  1 81  1  0  0  0
  2  3  1  0  0  0
  2 25  1  0  0  0
  2 84  1  0  0  0
  2 85  1  0  0  0
  3  4  1  0  0  0
  3 86  1  0  0  0
  3 87  1  0  0  0
  4  5  1  0  0  0
  4 88  1  0  0  0
  4 89  1  0  0  0
  5  6  1  0  0  0
  5 26  1  0  0  0
  5 90  1  0  0  0
  6 25  1  0  0  0
  6 91  1  0  0  0
  6 92  1  0  0  0
  7  8  2  0  0  0
  7 26  1  0  0  0
  7 29  1  0  0  0
  8  9  1  0  0  0
  8 22  1  0  0  0
  9 10  1  0  0  0
  9 27  2  0  0  0
 10 11  2  0  0  0
 10 15  1  0  0  0
 11 12  1  0  0  0
 11 93  1  0  0  0
 12 13  2  0  0  0
 12 94  1  0  0  0
 13 14  1  0  0  0
 13 31  1  0  0  0
 14 15  2  0  0  0
 14 95  1  0  0  0
 15 96  1  0  0  0
 16 17  2  0  0  0
 16 21  1  0  0  0
 16 31  1  0  0  0
 17 18  1  0  0  0
 17 97  1  0  0  0
 18 19  2  0  0  0
 18 98  1  0  0  0
 19 20  1  0  0  0
 19 24  1  0  0  0
 20 21  2  0  0  0
 20 99  1  0  0  0
 21 23  1  0  0  0
 22 28  1  0  0  0
 22 32  2  0  0  0
 26 27  1  0  0  0
 28100  1  0  0  0
 28101  1  0  0  0
 29102  1  0  0  0
 29103  1  0  0  0
 33 34  1  0  0  0
 33 66  1  0  0  0
 33 70  2  0  0  0
 34 36  1  0  0  0
 34 59  1  0  0  0
 34104  1  0  0  0
 35 44  2  0  0  0
 35 45  1  0  0  0
 35 68  1  0  0  0
 36 56  1  0  0  0
 36105  1  0  0  0
 37 39  1  0  0  0
 37 47  1  0  0  0
 37 66  1  0  0  0
 37106  1  0  0  0
 38 43  2  0  0  0
 38 46  1  0  0  0
 38 47  1  0  0  0
 39 64  1  0  0  0
 39 67  2  0  0  0
 40 52  1  0  0  0
 40 53  2  0  0  0
 40 58  1  0  0  0
 41107  1  0  0  0
 41108  1  0  0  0
 41109  1  0  0  0
 41 48  1  0  0  0
 42 43  1  0  0  0
 42 66  1  0  0  0
 42110  1  0  0  0
 42111  1  0  0  0
 43 44  1  0  0  0
 44112  1  0  0  0
 45 46  2  0  0  0
 45113  1  0  0  0
 46114  1  0  0  0
 47115  1  0  0  0
 47116  1  0  0  0
 48 56  1  0  0  0
 48 65  1  0  0  0
 48117  1  0  0  0
 49 50  1  0  0  0
 49 53  1  0  0  0
 49 64  1  0  0  0
 49118  1  0  0  0
 50 51  1  0  0  0
 50119  1  0  0  0
 50120  1  0  0  0
 51 52  1  0  0  0
 51121  1  0  0  0
 51122  1  0  0  0
 52123  1  0  0  0
 52124  1  0  0  0
 53 54  1  0  0  0
 54 55  2  0  0  0
 54125  1  0  0  0
 55 57  1  0  0  0
 55126  1  0  0  0
 56 69  2  0  0  0
 57 58  2  0  0  0
 57127  1  0  0  0
 58128  1  0  0  0
 59 60  1  0  0  0
 59 61  1  0  0  0
 59 62  1  0  0  0
 60129  1  0  0  0
 60130  1  0  0  0
 60131  1  0  0  0
 61132  1  0  0  0
 61133  1  0  0  0
 61134  1  0  0  0
 62135  1  0  0  0
 62136  1  0  0  0
 62137  1  0  0  0
 63 65  1  0  0  0
 63138  1  0  0  0
 63139  1  0  0  0
 63140  1  0  0  0
 64141  1  0  0  0
 65142  1  0  0  0
 68 79  1  0  0  0
 71 72  2  0  0  0
 71 74  1  0  0  0
 71143  1  0  0  0
 72 75  1  0  0  0
 72144  1  0  0  0
 73 75  2  0  0  0
 73 76  1  0  0  0
 73145  1  0  0  0
 74 76  2  0  0  0
 74 78  1  0  0  0
 75 80  1  0  0  0
 76 83  1  0  0  0
 77 79  1  0  0  0
 77 80  2  0  0  0
 77146  1  0  0  0
 78 81  1  0  0  0
 78 82  2  0  0  0
 79147  1  0  0  0
 79148  1  0  0  0
 81149  1  0  0  0
M  ISO  4   1 100  68 101  79 101  81 100
M  END
> <chiral flag>
0

> <version>
0

> <s_m_source_file>
/data/baiqing/PycharmProjects/Reinvent-master-3.2/result/LINK_invent/BTK/process_docking_weight1_custom_product_contain_oxygen_bond_distance_aromatic_linkinvent_7_9_3/rearranged_h_0089.sdf

> <i_m_source_file_index>
73

> <r_mmod_Potential_Energy-OPLS-2005>
112.583511352539

> <r_mmod_Stretch_Energy-OPLS-2005>
91.4567794799805

> <r_mmod_Bend_Energy-OPLS-2005>
169.932464599609

> <r_mmod_Torsional_Energy-OPLS-2005>
239.018981933594

> <r_mmod_Improper_Torsional_Energy-OPLS-2005>
6.20280027389526

> <r_mmod_Van_der_Waal_Energy-OPLS-2005>
156.562911987305

> <r_mmod_Electrostatic_Energy-OPLS-2005>
-402.642517089844

> <r_mmod_Solvation_Energy-OPLS-2005>
-216.218353271484

> <b_mmod_Minimization_Converged-OPLS-2005>
0

> <r_mmod_RMS_Derivative-OPLS-2005>
0.673451483249664

$$$$
73
                    3D
 Structure written by MMmdl.
153162  0  0  1  0            999 V2000
  -30.6252  -14.7447   20.4375 C   0  0  0  0  0  0
  -30.4287  -12.4433   19.4983 C   0  0  0  0  0  0
  -29.5229  -12.5228   18.2485 C   0  0  0  0  0  0
  -28.0407  -12.3685   18.6416 C   0  0  0  0  0  0
  -27.6480  -13.2429   19.8604 C   0  0  2  0  0  0
  -28.6881  -13.1771   20.9999 C   0  0  0  0  0  0
  -25.2559  -13.8234   20.5710 C   0  0  0  0  0  0
  -24.1821  -13.0482   20.9174 C   0  0  0  0  0  0
  -24.6410  -11.6952   20.8719 C   0  0  0  0  0  0
  -23.9077  -10.4318   21.0399 C   0  0  0  0  0  0
  -24.3616   -9.4222   21.9168 C   0  0  0  0  0  0
  -23.6284   -8.2259   22.0746 C   0  0  0  0  0  0
  -22.4271   -8.0297   21.3536 C   0  0  0  0  0  0
  -21.9910   -9.0274   20.4644 C   0  0  0  0  0  0
  -22.7253  -10.2146   20.3053 C   0  0  0  0  0  0
  -21.6859   -6.0737   22.5257 C   0  0  0  0  0  0
  -21.4021   -6.5633   23.8196 C   0  0  0  0  0  0
  -21.3670   -5.6788   24.9151 C   0  0  0  0  0  0
  -21.6044   -4.3049   24.7209 C   0  0  0  0  0  0
  -21.8828   -3.8147   23.4327 C   0  0  0  0  0  0
  -21.9197   -4.6963   22.3383 C   0  0  0  0  0  0
  -22.7839  -13.5259   21.1845 C   0  0  0  0  0  0
  -22.1670   -4.2160   21.0955 F   0  0  0  0  0  0
  -21.5629   -3.4535   25.7720 F   0  0  0  0  0  0
  -29.9969  -13.5160   20.4286 N   0  0  0  0  0  0
  -26.2973  -12.9451   20.3312 N   0  0  0  0  0  0
  -25.9344  -11.6587   20.5723 N   0  0  0  0  0  0
  -22.0472  -12.8232   22.0381 N   0  0  0  0  0  0
  -25.4405  -15.1937   20.4198 N   0  0  0  0  0  0
  -31.8039  -14.8222   20.0827 O   0  0  0  0  0  0
  -21.6639   -6.8885   21.4228 O   0  0  0  0  0  0
  -22.3547  -14.5593   20.6723 O   0  0  0  0  0  0
  -24.6385  -31.8526   23.1960 C   0  0  0  0  0  0
  -25.9211  -32.4733   23.8313 C   0  0  1  0  0  0
  -27.2089  -27.2156   20.1168 C   0  0  0  0  0  0
  -25.6006  -33.8531   24.2250 N   0  0  0  0  0  0
  -23.4348  -30.4769   21.5424 C   0  0  2  0  0  0
  -24.8788  -28.9240   20.1054 C   0  0  0  0  0  0
  -22.7549  -29.4601   22.4922 C   0  0  0  0  0  0
  -18.0310  -28.1423   22.8461 C   0  0  0  0  0  0
  -24.1504  -36.7267   23.2625 C   0  0  0  0  0  0
  -25.9859  -30.7474   21.3851 C   0  0  0  0  0  0
  -26.0560  -29.3680   20.7238 C   0  0  0  0  0  0
  -27.2218  -28.5246   20.7245 C   0  0  0  0  0  0
  -26.0113  -26.8744   19.4391 C   0  0  0  0  0  0
  -24.8658  -27.6880   19.4510 C   0  0  0  0  0  0
  -23.6517  -29.8138   20.1593 C   0  0  0  0  0  0
  -25.4128  -36.3036   24.0312 C   0  0  1  0  0  0
  -20.5899  -28.3731   23.1266 C   0  0  2  0  0  0
  -20.6804  -26.9449   22.5392 C   0  0  0  0  0  0
  -19.5780  -26.6395   21.5201 C   0  0  0  0  0  0
  -18.1960  -26.7961   22.1599 C   0  0  0  0  0  0
  -19.1555  -28.8898   23.2850 C   0  0  0  0  0  0
  -18.9461  -30.1500   23.8852 C   0  0  0  0  0  0
  -17.6455  -30.6612   24.0546 C   0  0  0  0  0  0
  -25.9061  -34.9417   23.5065 C   0  0  0  0  0  0
  -16.5350  -29.9087   23.6345 C   0  0  0  0  0  0
  -16.7289  -28.6520   23.0342 C   0  0  0  0  0  0
  -26.4530  -31.6574   25.0732 C   0  0  0  0  0  0
  -25.3730  -31.3784   26.1450 C   0  0  0  0  0  0
  -27.0322  -30.2951   24.6276 C   0  0  0  0  0  0
  -27.6098  -32.4293   25.7517 C   0  0  0  0  0  0
  -27.5588  -37.1795   24.8457 C   0  0  0  0  0  0
  -21.4247  -29.3070   22.3672 N   0  0  0  0  0  0
  -26.4298  -37.3741   23.9393 N   0  0  0  0  0  0
  -24.7056  -31.0454   22.0966 N   0  0  0  0  0  0
  -23.4235  -28.8150   23.3039 O   0  0  0  0  0  0
  -28.2596  -26.2506   20.2042 O   0  0  0  0  0  0
  -26.5593  -34.8904   22.4614 O   0  0  0  0  0  0
  -23.5534  -32.1387   23.7249 O   0  0  0  0  0  0
  -30.3880  -18.4201   17.8907 C   0  0  0  0  0  0
  -30.0279  -19.6631   18.4467 C   0  0  0  0  0  0
  -30.3663  -17.2368   18.6534 C   0  0  0  0  0  0
  -29.6060  -18.5409   20.5657 C   0  0  0  0  0  0
  -28.7435  -22.2528   19.5501 C   0  0  0  0  0  0
  -29.7090  -21.7565   21.4658 C   0  0  0  0  0  0
  -28.7019  -23.4624   20.2628 C   0  0  0  0  0  0
  -29.6335  -19.7883   19.7970 C   0  0  0  0  0  0
  -29.9734  -17.2321   20.0108 C   0  0  0  0  0  0
  -29.3373  -23.0912   21.4955 C   0  0  0  0  0  0
  -27.9316  -24.8120   19.8328 C   0  0  0  0  0  0
  -29.3497  -21.1765   20.2577 N   0  0  0  0  0  0
  -29.8879  -15.9014   20.6875 N   0  0  0  0  0  0
  -29.5190  -23.9249   22.5582 O   0  0  0  0  0  0
  -31.4774  -12.5379   19.2148 H   0  0  0  0  0  0
  -30.3403  -11.4676   19.9752 H   0  0  0  0  0  0
  -29.8042  -11.7583   17.5231 H   0  0  0  0  0  0
  -29.6719  -13.4841   17.7537 H   0  0  0  0  0  0
  -27.8601  -11.3168   18.8608 H   0  0  0  0  0  0
  -27.4056  -12.6148   17.7900 H   0  0  0  0  0  0
  -27.6468  -14.2689   19.4946 H   0  0  0  0  0  0
  -28.7113  -12.1850   21.4521 H   0  0  0  0  0  0
  -28.4273  -13.8687   21.8027 H   0  0  0  0  0  0
  -25.2762   -9.5700   22.4747 H   0  0  0  0  0  0
  -24.0011   -7.4658   22.7462 H   0  0  0  0  0  0
  -21.0841   -8.8803   19.8942 H   0  0  0  0  0  0
  -22.3719  -10.9683   19.6175 H   0  0  0  0  0  0
  -21.2025   -7.6154   23.9706 H   0  0  0  0  0  0
  -21.1486   -6.0503   25.9057 H   0  0  0  0  0  0
  -22.0607   -2.7614   23.2797 H   0  0  0  0  0  0
  -22.4063  -11.9847   22.4696 H   0  0  0  0  0  0
  -21.1133  -13.1312   22.2667 H   0  0  0  0  0  0
  -24.7030  -15.8776   20.5493 H   0  0  0  0  0  0
  -26.3181  -15.6114   20.1345 H   0  0  0  0  0  0
  -26.7278  -32.5372   23.1039 H   0  0  0  0  0  0
  -25.0255  -33.9644   25.0470 H   0  0  0  0  0  0
  -22.7298  -31.2984   21.3998 H   0  0  0  0  0  0
  -23.3762  -35.9596   23.3261 H   0  0  0  0  0  0
  -24.3598  -36.8911   22.2039 H   0  0  0  0  0  0
  -23.7257  -37.6468   23.6661 H   0  0  0  0  0  0
  -26.1286  -31.5077   20.6159 H   0  0  0  0  0  0
  -26.8622  -30.7951   22.0194 H   0  0  0  0  0  0
  -28.1146  -28.8489   21.2402 H   0  0  0  0  0  0
  -25.9068  -25.9442   18.8997 H   0  0  0  0  0  0
  -23.9701  -27.3467   18.9483 H   0  0  0  0  0  0
  -23.7706  -30.5885   19.4019 H   0  0  0  0  0  0
  -22.7693  -29.2467   19.8578 H   0  0  0  0  0  0
  -25.1309  -36.1850   25.0797 H   0  0  0  0  0  0
  -20.9954  -28.3298   24.1400 H   0  0  0  0  0  0
  -20.5740  -26.2328   23.3599 H   0  0  0  0  0  0
  -21.6679  -26.7517   22.1168 H   0  0  0  0  0  0
  -19.6943  -25.6285   21.1293 H   0  0  0  0  0  0
  -19.6737  -27.3143   20.6688 H   0  0  0  0  0  0
  -17.4232  -26.6691   21.4004 H   0  0  0  0  0  0
  -18.0364  -26.0139   22.9031 H   0  0  0  0  0  0
  -19.7927  -30.7350   24.2191 H   0  0  0  0  0  0
  -17.4997  -31.6282   24.5161 H   0  0  0  0  0  0
  -15.5339  -30.2949   23.7735 H   0  0  0  0  0  0
  -15.8694  -28.0832   22.7058 H   0  0  0  0  0  0
  -24.5898  -30.7127   25.7808 H   0  0  0  0  0  0
  -24.8935  -32.2974   26.4825 H   0  0  0  0  0  0
  -25.8029  -30.9011   27.0259 H   0  0  0  0  0  0
  -26.2883  -29.6742   24.1269 H   0  0  0  0  0  0
  -27.3886  -29.7198   25.4829 H   0  0  0  0  0  0
  -27.8837  -30.4150   23.9575 H   0  0  0  0  0  0
  -27.2733  -33.3636   26.2020 H   0  0  0  0  0  0
  -28.3960  -32.6769   25.0371 H   0  0  0  0  0  0
  -28.0693  -31.8450   26.5494 H   0  0  0  0  0  0
  -28.2581  -38.0118   24.7497 H   0  0  0  0  0  0
  -28.1109  -36.2636   24.6273 H   0  0  0  0  0  0
  -27.2316  -37.1435   25.8869 H   0  0  0  0  0  0
  -20.9467  -29.8771   21.6835 H   0  0  0  0  0  0
  -26.0169  -38.2822   24.1355 H   0  0  0  0  0  0
  -30.6892  -18.3674   16.8537 H   0  0  0  0  0  0
  -30.0790  -20.5369   17.8118 H   0  0  0  0  0  0
  -30.6347  -16.3163   18.1535 H   0  0  0  0  0  0
  -29.2970  -18.5976   21.5993 H   0  0  0  0  0  0
  -28.3503  -22.0518   18.5635 H   0  0  0  0  0  0
  -30.2152  -21.1473   22.2041 H   0  0  0  0  0  0
  -26.9335  -24.6033   20.2190 H   0  0  0  0  0  0
  -27.8531  -24.7768   18.7456 H   0  0  0  0  0  0
  -29.0487  -15.7544   21.2285 H   0  0  0  0  0  0
  -29.9425  -23.4977   23.2983 H   0  0  0  0  0  0
  1 25  1  0  0  0
  1 30  2  0  0  0
  1 83  1  0  0  0
  2  3  1  0  0  0
  2 25  1  0  0  0
  2 85  1  0  0  0
  2 86  1  0  0  0
  3  4  1  0  0  0
  3 87  1  0  0  0
  3 88  1  0  0  0
  4  5  1  0  0  0
  4 89  1  0  0  0
  4 90  1  0  0  0
  5  6  1  0  0  0
  5 26  1  0  0  0
  5 91  1  0  0  0
  6 25  1  0  0  0
  6 92  1  0  0  0
  6 93  1  0  0  0
  7  8  2  0  0  0
  7 26  1  0  0  0
  7 29  1  0  0  0
  8  9  1  0  0  0
  8 22  1  0  0  0
  9 10  1  0  0  0
  9 27  2  0  0  0
 10 11  2  0  0  0
 10 15  1  0  0  0
 11 12  1  0  0  0
 11 94  1  0  0  0
 12 13  2  0  0  0
 12 95  1  0  0  0
 13 14  1  0  0  0
 13 31  1  0  0  0
 14 15  2  0  0  0
 14 96  1  0  0  0
 15 97  1  0  0  0
 16 17  2  0  0  0
 16 21  1  0  0  0
 16 31  1  0  0  0
 17 18  1  0  0  0
 17 98  1  0  0  0
 18 19  2  0  0  0
 18 99  1  0  0  0
 19 20  1  0  0  0
 19 24  1  0  0  0
 20 21  2  0  0  0
 20100  1  0  0  0
 21 23  1  0  0  0
 22 28  1  0  0  0
 22 32  2  0  0  0
 26 27  1  0  0  0
 28101  1  0  0  0
 28102  1  0  0  0
 29103  1  0  0  0
 29104  1  0  0  0
 33 34  1  0  0  0
 33 66  1  0  0  0
 33 70  2  0  0  0
 34 36  1  0  0  0
 34 59  1  0  0  0
 34105  1  0  0  0
 35 44  2  0  0  0
 35 45  1  0  0  0
 35 68  1  0  0  0
 36 56  1  0  0  0
 36106  1  0  0  0
 37 39  1  0  0  0
 37 47  1  0  0  0
 37 66  1  0  0  0
 37107  1  0  0  0
 38 43  2  0  0  0
 38 46  1  0  0  0
 38 47  1  0  0  0
 39 64  1  0  0  0
 39 67  2  0  0  0
 40 52  1  0  0  0
 40 53  2  0  0  0
 40 58  1  0  0  0
 41108  1  0  0  0
 41109  1  0  0  0
 41110  1  0  0  0
 41 48  1  0  0  0
 42 43  1  0  0  0
 42 66  1  0  0  0
 42111  1  0  0  0
 42112  1  0  0  0
 43 44  1  0  0  0
 44113  1  0  0  0
 45 46  2  0  0  0
 45114  1  0  0  0
 46115  1  0  0  0
 47116  1  0  0  0
 47117  1  0  0  0
 48 56  1  0  0  0
 48 65  1  0  0  0
 48118  1  0  0  0
 49 50  1  0  0  0
 49 53  1  0  0  0
 49 64  1  0  0  0
 49119  1  0  0  0
 50 51  1  0  0  0
 50120  1  0  0  0
 50121  1  0  0  0
 51 52  1  0  0  0
 51122  1  0  0  0
 51123  1  0  0  0
 52124  1  0  0  0
 52125  1  0  0  0
 53 54  1  0  0  0
 54 55  2  0  0  0
 54126  1  0  0  0
 55 57  1  0  0  0
 55127  1  0  0  0
 56 69  2  0  0  0
 57 58  2  0  0  0
 57128  1  0  0  0
 58129  1  0  0  0
 59 60  1  0  0  0
 59 61  1  0  0  0
 59 62  1  0  0  0
 60130  1  0  0  0
 60131  1  0  0  0
 60132  1  0  0  0
 61133  1  0  0  0
 61134  1  0  0  0
 61135  1  0  0  0
 62136  1  0  0  0
 62137  1  0  0  0
 62138  1  0  0  0
 63 65  1  0  0  0
 63139  1  0  0  0
 63140  1  0  0  0
 63141  1  0  0  0
 64142  1  0  0  0
 65143  1  0  0  0
 68 81  1  0  0  0
 71 72  2  0  0  0
 71 73  1  0  0  0
 71144  1  0  0  0
 72 78  1  0  0  0
 72145  1  0  0  0
 73 79  2  0  0  0
 73146  1  0  0  0
 74 78  2  0  0  0
 74 79  1  0  0  0
 74147  1  0  0  0
 75 77  2  0  0  0
 75 82  1  0  0  0
 75148  1  0  0  0
 76 80  2  0  0  0
 76 82  1  0  0  0
 76149  1  0  0  0
 77 80  1  0  0  0
 77 81  1  0  0  0
 78 82  1  0  0  0
 79 83  1  0  0  0
 80 84  1  0  0  0
 81150  1  0  0  0
 81151  1  0  0  0
 83152  1  0  0  0
 84153  1  0  0  0
M  ISO  4   1 100  68 101  81 101  83 100
M  END
> <chiral flag>
0

> <version>
0

> <s_m_source_file>
/data/baiqing/PycharmProjects/Reinvent-master-3.2/result/LINK_invent/BTK/process_docking_weight1_custom_product_contain_oxygen_bond_distance_aromatic_linkinvent_7_9_3/rearranged_h_0089.sdf

> <i_m_source_file_index>
74

> <r_mmod_Potential_Energy-OPLS-2005>
218.226318359375

> <r_mmod_Stretch_Energy-OPLS-2005>
138.724960327148

> <r_mmod_Bend_Energy-OPLS-2005>
178.738098144531

> <r_mmod_Torsional_Energy-OPLS-2005>
247.083587646484

> <r_mmod_Improper_Torsional_Energy-OPLS-2005>
5.84656190872192

> <r_mmod_Van_der_Waal_Energy-OPLS-2005>
140.55158996582

> <r_mmod_Electrostatic_Energy-OPLS-2005>
-349.470062255859

> <r_mmod_Solvation_Energy-OPLS-2005>
-247.206787109375

> <b_mmod_Minimization_Converged-OPLS-2005>
0

> <r_mmod_RMS_Derivative-OPLS-2005>
3.17603063583374

$$$$
74
                    3D
 Structure written by MMmdl.
156164  0  0  1  0            999 V2000
  -30.6067  -14.7528   20.3585 C   0  0  0  0  0  0
  -30.4460  -12.4215   19.4752 C   0  0  0  0  0  0
  -29.5218  -12.3638   18.2372 C   0  0  0  0  0  0
  -28.0285  -12.3103   18.6381 C   0  0  0  0  0  0
  -27.6399  -13.2221   19.8393 C   0  0  2  0  0  0
  -28.6964  -13.1895   20.9606 C   0  0  0  0  0  0
  -25.2538  -13.8158   20.5715 C   0  0  0  0  0  0
  -24.1806  -13.0417   20.9208 C   0  0  0  0  0  0
  -24.6389  -11.6898   20.8771 C   0  0  0  0  0  0
  -23.9058  -10.4281   21.0419 C   0  0  0  0  0  0
  -24.3603   -9.4195   21.9191 C   0  0  0  0  0  0
  -23.6274   -8.2235   22.0764 C   0  0  0  0  0  0
  -22.4259   -8.0271   21.3545 C   0  0  0  0  0  0
  -21.9900   -9.0246   20.4650 C   0  0  0  0  0  0
  -22.7231  -10.2125   20.3059 C   0  0  0  0  0  0
  -21.6853   -6.0718   22.5279 C   0  0  0  0  0  0
  -21.4016   -6.5630   23.8212 C   0  0  0  0  0  0
  -21.3665   -5.6787   24.9179 C   0  0  0  0  0  0
  -21.6053   -4.3051   24.7233 C   0  0  0  0  0  0
  -21.8819   -3.8135   23.4355 C   0  0  0  0  0  0
  -21.9189   -4.6947   22.3410 C   0  0  0  0  0  0
  -22.7831  -13.5221   21.1838 C   0  0  0  0  0  0
  -22.1640   -4.2129   21.0985 F   0  0  0  0  0  0
  -21.5638   -3.4537   25.7748 F   0  0  0  0  0  0
  -29.9838  -13.5236   20.3442 N   0  0  0  0  0  0
  -26.2964  -12.9347   20.3325 N   0  0  0  0  0  0
  -25.9331  -11.6509   20.5831 N   0  0  0  0  0  0
  -22.0472  -12.8214   22.0395 N   0  0  0  0  0  0
  -25.4231  -15.1876   20.4144 N   0  0  0  0  0  0
  -31.8374  -14.8111   20.2840 O   0  0  0  0  0  0
  -21.6634   -6.8858   21.4236 O   0  0  0  0  0  0
  -22.3525  -14.5518   20.6669 O   0  0  0  0  0  0
  -24.6277  -31.8576   23.2011 C   0  0  0  0  0  0
  -25.9127  -32.4756   23.8338 C   0  0  1  0  0  0
  -27.2266  -27.3065   20.1140 C   0  0  0  0  0  0
  -25.5938  -33.8559   24.2259 N   0  0  0  0  0  0
  -23.4205  -30.4808   21.5442 C   0  0  2  0  0  0
  -24.8668  -28.9361   20.1094 C   0  0  0  0  0  0
  -22.7486  -29.4598   22.4927 C   0  0  0  0  0  0
  -18.0285  -28.1388   22.8484 C   0  0  0  0  0  0
  -24.1491  -36.7281   23.2641 C   0  0  0  0  0  0
  -25.9629  -30.7850   21.3733 C   0  0  0  0  0  0
  -26.0357  -29.4117   20.7152 C   0  0  0  0  0  0
  -27.2155  -28.6076   20.7090 C   0  0  0  0  0  0
  -26.0289  -26.8845   19.4891 C   0  0  0  0  0  0
  -24.8663  -27.6784   19.4886 C   0  0  0  0  0  0
  -23.6349  -29.8169   20.1589 C   0  0  0  0  0  0
  -25.4112  -36.3061   24.0324 C   0  0  1  0  0  0
  -20.5888  -28.3681   23.1291 C   0  0  2  0  0  0
  -20.6774  -26.9399   22.5415 C   0  0  0  0  0  0
  -19.5749  -26.6380   21.5217 C   0  0  0  0  0  0
  -18.1928  -26.7933   22.1624 C   0  0  0  0  0  0
  -19.1541  -28.8850   23.2883 C   0  0  0  0  0  0
  -18.9463  -30.1460   23.8884 C   0  0  0  0  0  0
  -17.6458  -30.6583   24.0568 C   0  0  0  0  0  0
  -25.9052  -34.9435   23.5082 C   0  0  0  0  0  0
  -16.5347  -29.9076   23.6343 C   0  0  0  0  0  0
  -16.7272  -28.6507   23.0341 C   0  0  0  0  0  0
  -26.4502  -31.6575   25.0713 C   0  0  0  0  0  0
  -25.3736  -31.3705   26.1436 C   0  0  0  0  0  0
  -27.0352  -30.3002   24.6177 C   0  0  0  0  0  0
  -27.6060  -32.4308   25.7489 C   0  0  0  0  0  0
  -27.5567  -37.1793   24.8462 C   0  0  0  0  0  0
  -21.4195  -29.3032   22.3686 N   0  0  0  0  0  0
  -26.4280  -37.3761   23.9407 N   0  0  0  0  0  0
  -24.6891  -31.0584   22.0962 N   0  0  0  0  0  0
  -23.4214  -28.8137   23.3000 O   0  0  0  0  0  0
  -28.3529  -26.4638   20.1762 O   0  0  0  0  0  0
  -26.5626  -34.8905   22.4649 O   0  0  0  0  0  0
  -23.5440  -32.1358   23.7352 O   0  0  0  0  0  0
  -28.5729  -17.9672   19.8767 C   0  0  0  0  0  0
  -28.4526  -19.3815   19.9968 C   0  0  0  0  0  0
  -30.7019  -18.0104   20.9807 C   0  0  0  0  0  0
  -29.7156  -17.2289   20.3150 C   0  0  0  0  0  0
  -29.4648  -20.1723   20.5983 C   0  0  0  0  0  0
  -30.5788  -19.4380   21.1142 C   0  0  0  0  0  0
  -30.3384  -16.6328   17.5916 C   0  0  0  0  0  0
  -29.7426  -15.7814   18.4496 C   0  0  0  0  0  0
  -28.2830  -25.0873   19.8492 C   0  0  0  0  0  0
  -28.8170  -24.0280   20.5531 C   0  0  0  0  0  0
  -28.6682  -22.6020   20.0878 C   0  0  0  0  0  0
  -31.6099  -20.1425   21.7380 N   0  0  0  0  0  0
  -29.4012  -21.6395   20.7489 N   0  0  0  0  0  0
  -29.8639  -15.8235   19.8528 N   0  0  0  0  0  0
  -27.9366  -22.2941   19.1447 O   0  0  0  0  0  0
  -29.4647  -24.2784   21.7019 O   0  0  0  0  0  0
  -31.4841  -12.5528   19.1626 H   0  0  0  0  0  0
  -30.4115  -11.4758   20.0182 H   0  0  0  0  0  0
  -29.7613  -11.4705   17.6571 H   0  0  0  0  0  0
  -29.7324  -13.1785   17.5505 H   0  0  0  0  0  0
  -27.8176  -11.2717   18.8941 H   0  0  0  0  0  0
  -27.3991  -12.5361   17.7760 H   0  0  0  0  0  0
  -27.6070  -14.2383   19.4562 H   0  0  0  0  0  0
  -28.7381  -12.2083   21.4356 H   0  0  0  0  0  0
  -28.4500  -13.9085   21.7436 H   0  0  0  0  0  0
  -25.2741   -9.5666   22.4774 H   0  0  0  0  0  0
  -23.9977   -7.4632   22.7486 H   0  0  0  0  0  0
  -21.0836   -8.8753   19.8954 H   0  0  0  0  0  0
  -22.3678  -10.9655   19.6171 H   0  0  0  0  0  0
  -21.1990   -7.6137   23.9705 H   0  0  0  0  0  0
  -21.1490   -6.0520   25.9081 H   0  0  0  0  0  0
  -22.0586   -2.7592   23.2864 H   0  0  0  0  0  0
  -22.4078  -11.9870   22.4786 H   0  0  0  0  0  0
  -21.1100  -13.1260   22.2604 H   0  0  0  0  0  0
  -24.6613  -15.8460   20.5363 H   0  0  0  0  0  0
  -26.2898  -15.6286   20.1353 H   0  0  0  0  0  0
  -26.7185  -32.5416   23.1077 H   0  0  0  0  0  0
  -25.0090  -33.9697   25.0409 H   0  0  0  0  0  0
  -22.7150  -31.3023   21.4021 H   0  0  0  0  0  0
  -23.3749  -35.9619   23.3297 H   0  0  0  0  0  0
  -24.3587  -36.8913   22.2057 H   0  0  0  0  0  0
  -23.7252  -37.6478   23.6674 H   0  0  0  0  0  0
  -26.0971  -31.5472   20.6046 H   0  0  0  0  0  0
  -26.8438  -30.8331   22.0018 H   0  0  0  0  0  0
  -28.1132  -28.9681   21.1902 H   0  0  0  0  0  0
  -25.9496  -25.9201   19.0126 H   0  0  0  0  0  0
  -23.9683  -27.3069   19.0141 H   0  0  0  0  0  0
  -23.7536  -30.5941   19.4032 H   0  0  0  0  0  0
  -22.7550  -29.2463   19.8567 H   0  0  0  0  0  0
  -25.1297  -36.1894   25.0816 H   0  0  0  0  0  0
  -20.9981  -28.3239   24.1410 H   0  0  0  0  0  0
  -20.5691  -26.2266   23.3608 H   0  0  0  0  0  0
  -21.6635  -26.7432   22.1187 H   0  0  0  0  0  0
  -19.6907  -25.6299   21.1230 H   0  0  0  0  0  0
  -19.6696  -27.3213   20.6771 H   0  0  0  0  0  0
  -17.4199  -26.6691   21.4027 H   0  0  0  0  0  0
  -18.0320  -26.0078   22.9023 H   0  0  0  0  0  0
  -19.7935  -30.7296   24.2233 H   0  0  0  0  0  0
  -17.5005  -31.6270   24.5168 H   0  0  0  0  0  0
  -15.5347  -30.2968   23.7687 H   0  0  0  0  0  0
  -15.8676  -28.0839   22.7032 H   0  0  0  0  0  0
  -24.5941  -30.7016   25.7768 H   0  0  0  0  0  0
  -24.8894  -32.2865   26.4837 H   0  0  0  0  0  0
  -25.8066  -30.8906   27.0230 H   0  0  0  0  0  0
  -26.2928  -29.6742   24.1210 H   0  0  0  0  0  0
  -27.4064  -29.7259   25.4684 H   0  0  0  0  0  0
  -27.8794  -30.4287   23.9394 H   0  0  0  0  0  0
  -27.2683  -33.3636   26.2021 H   0  0  0  0  0  0
  -28.3902  -32.6820   25.0332 H   0  0  0  0  0  0
  -28.0694  -31.8457   26.5445 H   0  0  0  0  0  0
  -28.2570  -38.0104   24.7512 H   0  0  0  0  0  0
  -28.1076  -36.2631   24.6281 H   0  0  0  0  0  0
  -27.2287  -37.1429   25.8866 H   0  0  0  0  0  0
  -20.9372  -29.8749   21.6897 H   0  0  0  0  0  0
  -26.0149  -38.2826   24.1431 H   0  0  0  0  0  0
  -27.7805  -17.4457   19.3596 H   0  0  0  0  0  0
  -27.5654  -19.8494   19.5961 H   0  0  0  0  0  0
  -31.6010  -17.5208   21.3281 H   0  0  0  0  0  0
  -30.1750  -16.5528   16.5264 H   0  0  0  0  0  0
  -30.9967  -17.4206   17.9326 H   0  0  0  0  0  0
  -29.0734  -15.0220   18.0929 H   0  0  0  0  0  0
  -27.7631  -24.9204   18.9172 H   0  0  0  0  0  0
  -32.4912  -19.6493   21.8380 H   0  0  0  0  0  0
  -31.7665  -21.0982   21.4399 H   0  0  0  0  0  0
  -30.0631  -21.9954   21.4192 H   0  0  0  0  0  0
  -29.4893  -23.4718   22.1985 H   0  0  0  0  0  0
  1 25  1  0  0  0
  1 30  2  0  0  0
  1 84  1  0  0  0
  2  3  1  0  0  0
  2 25  1  0  0  0
  2 87  1  0  0  0
  2 88  1  0  0  0
  3  4  1  0  0  0
  3 89  1  0  0  0
  3 90  1  0  0  0
  4  5  1  0  0  0
  4 91  1  0  0  0
  4 92  1  0  0  0
  5  6  1  0  0  0
  5 26  1  0  0  0
  5 93  1  0  0  0
  6 25  1  0  0  0
  6 94  1  0  0  0
  6 95  1  0  0  0
  7  8  2  0  0  0
  7 26  1  0  0  0
  7 29  1  0  0  0
  8  9  1  0  0  0
  8 22  1  0  0  0
  9 10  1  0  0  0
  9 27  2  0  0  0
 10 11  2  0  0  0
 10 15  1  0  0  0
 11 12  1  0  0  0
 11 96  1  0  0  0
 12 13  2  0  0  0
 12 97  1  0  0  0
 13 14  1  0  0  0
 13 31  1  0  0  0
 14 15  2  0  0  0
 14 98  1  0  0  0
 15 99  1  0  0  0
 16 17  2  0  0  0
 16 21  1  0  0  0
 16 31  1  0  0  0
 17 18  1  0  0  0
 17100  1  0  0  0
 18 19  2  0  0  0
 18101  1  0  0  0
 19 20  1  0  0  0
 19 24  1  0  0  0
 20 21  2  0  0  0
 20102  1  0  0  0
 21 23  1  0  0  0
 22 28  1  0  0  0
 22 32  2  0  0  0
 26 27  1  0  0  0
 28103  1  0  0  0
 28104  1  0  0  0
 29105  1  0  0  0
 29106  1  0  0  0
 33 34  1  0  0  0
 33 66  1  0  0  0
 33 70  2  0  0  0
 34 36  1  0  0  0
 34 59  1  0  0  0
 34107  1  0  0  0
 35 44  2  0  0  0
 35 45  1  0  0  0
 35 68  1  0  0  0
 36 56  1  0  0  0
 36108  1  0  0  0
 37 39  1  0  0  0
 37 47  1  0  0  0
 37 66  1  0  0  0
 37109  1  0  0  0
 38 43  2  0  0  0
 38 46  1  0  0  0
 38 47  1  0  0  0
 39 64  1  0  0  0
 39 67  2  0  0  0
 40 52  1  0  0  0
 40 53  2  0  0  0
 40 58  1  0  0  0
 41110  1  0  0  0
 41111  1  0  0  0
 41112  1  0  0  0
 41 48  1  0  0  0
 42 43  1  0  0  0
 42 66  1  0  0  0
 42113  1  0  0  0
 42114  1  0  0  0
 43 44  1  0  0  0
 44115  1  0  0  0
 45 46  2  0  0  0
 45116  1  0  0  0
 46117  1  0  0  0
 47118  1  0  0  0
 47119  1  0  0  0
 48 56  1  0  0  0
 48 65  1  0  0  0
 48120  1  0  0  0
 49 50  1  0  0  0
 49 53  1  0  0  0
 49 64  1  0  0  0
 49121  1  0  0  0
 50 51  1  0  0  0
 50122  1  0  0  0
 50123  1  0  0  0
 51 52  1  0  0  0
 51124  1  0  0  0
 51125  1  0  0  0
 52126  1  0  0  0
 52127  1  0  0  0
 53 54  1  0  0  0
 54 55  2  0  0  0
 54128  1  0  0  0
 55 57  1  0  0  0
 55129  1  0  0  0
 56 69  2  0  0  0
 57 58  2  0  0  0
 57130  1  0  0  0
 58131  1  0  0  0
 59 60  1  0  0  0
 59 61  1  0  0  0
 59 62  1  0  0  0
 60132  1  0  0  0
 60133  1  0  0  0
 60134  1  0  0  0
 61135  1  0  0  0
 61136  1  0  0  0
 61137  1  0  0  0
 62138  1  0  0  0
 62139  1  0  0  0
 62140  1  0  0  0
 63 65  1  0  0  0
 63141  1  0  0  0
 63142  1  0  0  0
 63143  1  0  0  0
 64144  1  0  0  0
 65145  1  0  0  0
 68 79  1  0  0  0
 71 72  2  0  0  0
 71 74  1  0  0  0
 71146  1  0  0  0
 72 75  1  0  0  0
 72147  1  0  0  0
 73 74  2  0  0  0
 73 76  1  0  0  0
 73148  1  0  0  0
 74 84  1  0  0  0
 75 76  2  0  0  0
 75 83  1  0  0  0
 76 82  1  0  0  0
 77 78  2  0  0  0
 77149  1  0  0  0
 77150  1  0  0  0
 78 84  1  0  0  0
 78151  1  0  0  0
 79 80  2  0  0  0
 79152  1  0  0  0
 80 81  1  0  0  0
 80 86  1  0  0  0
 81 83  1  0  0  0
 81 85  2  0  0  0
 82153  1  0  0  0
 82154  1  0  0  0
 83155  1  0  0  0
 86156  1  0  0  0
M  ISO  4   1 100  68 101  79 101  84 100
M  END
> <chiral flag>
0

> <version>
0

> <s_m_source_file>
/data/baiqing/PycharmProjects/Reinvent-master-3.2/result/LINK_invent/BTK/process_docking_weight1_custom_product_contain_oxygen_bond_distance_aromatic_linkinvent_7_9_3/rearranged_h_0089.sdf

> <i_m_source_file_index>
75

> <r_mmod_Potential_Energy-OPLS-2005>
266.163635253906

> <r_mmod_Stretch_Energy-OPLS-2005>
97.243782043457

> <r_mmod_Bend_Energy-OPLS-2005>
159.388717651367

> <r_mmod_Torsional_Energy-OPLS-2005>
363.334167480469

> <r_mmod_Improper_Torsional_Energy-OPLS-2005>
29.5418930053711

> <r_mmod_Van_der_Waal_Energy-OPLS-2005>
160.344314575195

> <r_mmod_Electrostatic_Energy-OPLS-2005>
-395.890350341797

> <r_mmod_Solvation_Energy-OPLS-2005>
-235.111145019531

> <b_mmod_Minimization_Converged-OPLS-2005>
0

> <r_mmod_RMS_Derivative-OPLS-2005>
1.79246544837952

$$$$
75
                    3D
 Structure written by MMmdl.
151159  0  0  1  0            999 V2000
  -30.5662  -14.6872   20.4043 C   0  0  0  0  0  0
  -30.4381  -12.3992   19.4454 C   0  0  0  0  0  0
  -29.4976  -12.4787   18.2222 C   0  0  0  0  0  0
  -28.0264  -12.3029   18.6488 C   0  0  0  0  0  0
  -27.6419  -13.2045   19.8512 C   0  0  2  0  0  0
  -28.6920  -13.0876   20.9772 C   0  0  0  0  0  0
  -25.2595  -13.8107   20.5818 C   0  0  0  0  0  0
  -24.1810  -13.0394   20.9201 C   0  0  0  0  0  0
  -24.6358  -11.6866   20.8738 C   0  0  0  0  0  0
  -23.9021  -10.4264   21.0383 C   0  0  0  0  0  0
  -24.3583   -9.4186   21.9157 C   0  0  0  0  0  0
  -23.6273   -8.2215   22.0744 C   0  0  0  0  0  0
  -22.4250   -8.0250   21.3539 C   0  0  0  0  0  0
  -21.9873   -9.0222   20.4637 C   0  0  0  0  0  0
  -22.7191  -10.2106   20.3046 C   0  0  0  0  0  0
  -21.6839   -6.0700   22.5279 C   0  0  0  0  0  0
  -21.4000   -6.5619   23.8199 C   0  0  0  0  0  0
  -21.3677   -5.6785   24.9177 C   0  0  0  0  0  0
  -21.6063   -4.3054   24.7238 C   0  0  0  0  0  0
  -21.8816   -3.8133   23.4368 C   0  0  0  0  0  0
  -21.9194   -4.6934   22.3415 C   0  0  0  0  0  0
  -22.7848  -13.5214   21.1869 C   0  0  0  0  0  0
  -22.1652   -4.2105   21.0988 F   0  0  0  0  0  0
  -21.5653   -3.4561   25.7767 F   0  0  0  0  0  0
  -29.9998  -13.4360   20.3997 N   0  0  0  0  0  0
  -26.2962  -12.9266   20.3324 N   0  0  0  0  0  0
  -25.9275  -11.6448   20.5784 N   0  0  0  0  0  0
  -22.0485  -12.8231   22.0432 N   0  0  0  0  0  0
  -25.4479  -15.1847   20.4514 N   0  0  0  0  0  0
  -31.7475  -14.8557   20.0802 O   0  0  0  0  0  0
  -21.6624   -6.8848   21.4248 O   0  0  0  0  0  0
  -22.3566  -14.5526   20.6694 O   0  0  0  0  0  0
  -24.6309  -31.8555   23.2026 C   0  0  0  0  0  0
  -25.9155  -32.4730   23.8345 C   0  0  1  0  0  0
  -27.2126  -27.2958   20.0858 C   0  0  0  0  0  0
  -25.5957  -33.8556   24.2237 N   0  0  0  0  0  0
  -23.4250  -30.4794   21.5504 C   0  0  2  0  0  0
  -24.8673  -28.9350   20.1150 C   0  0  0  0  0  0
  -22.7488  -29.4578   22.4960 C   0  0  0  0  0  0
  -18.0260  -28.1380   22.8463 C   0  0  0  0  0  0
  -24.1503  -36.7309   23.2643 C   0  0  0  0  0  0
  -25.9754  -30.7678   21.3915 C   0  0  0  0  0  0
  -26.0404  -29.3995   20.7217 C   0  0  0  0  0  0
  -27.2167  -28.5879   20.7041 C   0  0  0  0  0  0
  -26.0176  -26.8915   19.4523 C   0  0  0  0  0  0
  -24.8578  -27.6888   19.4747 C   0  0  0  0  0  0
  -23.6437  -29.8282   20.1637 C   0  0  0  0  0  0
  -25.4128  -36.3081   24.0316 C   0  0  1  0  0  0
  -20.5848  -28.3711   23.1275 C   0  0  2  0  0  0
  -20.6732  -26.9425   22.5400 C   0  0  0  0  0  0
  -19.5731  -26.6397   21.5175 C   0  0  0  0  0  0
  -18.1906  -26.7929   22.1598 C   0  0  0  0  0  0
  -19.1503  -28.8865   23.2862 C   0  0  0  0  0  0
  -18.9411  -30.1461   23.8898 C   0  0  0  0  0  0
  -17.6408  -30.6570   24.0558 C   0  0  0  0  0  0
  -25.9075  -34.9447   23.5066 C   0  0  0  0  0  0
  -16.5303  -29.9073   23.6300 C   0  0  0  0  0  0
  -16.7239  -28.6522   23.0294 C   0  0  0  0  0  0
  -26.4502  -31.6583   25.0774 C   0  0  0  0  0  0
  -25.3692  -31.3791   26.1463 C   0  0  0  0  0  0
  -27.0357  -30.2988   24.6353 C   0  0  0  0  0  0
  -27.6026  -32.4383   25.7524 C   0  0  0  0  0  0
  -27.5584  -37.1808   24.8451 C   0  0  0  0  0  0
  -21.4197  -29.3034   22.3671 N   0  0  0  0  0  0
  -26.4303  -37.3783   23.9399 N   0  0  0  0  0  0
  -24.6948  -31.0528   22.1024 N   0  0  0  0  0  0
  -23.4191  -28.8121   23.3048 O   0  0  0  0  0  0
  -28.3319  -26.4514   20.0349 O   0  0  0  0  0  0
  -26.5630  -34.8918   22.4635 O   0  0  0  0  0  0
  -23.5468  -32.1383   23.7328 O   0  0  0  0  0  0
  -30.3135  -19.1783   18.9725 C   0  0  0  0  0  0
  -28.9510  -19.4936   20.9215 C   0  0  0  0  0  0
  -30.3723  -17.7672   19.2089 C   0  0  0  0  0  0
  -28.9881  -18.0786   21.1444 C   0  0  0  0  0  0
  -29.6162  -20.0957   19.8219 C   0  0  0  0  0  0
  -29.7248  -17.1728   20.3263 C   0  0  0  0  0  0
  -29.7755  -21.6311   19.6098 C   0  0  0  0  0  0
  -28.9209  -24.0629   19.7316 C   0  0  0  0  0  0
  -29.9499  -24.5722   19.0282 N   0  0  0  0  0  0
  -29.6907  -15.7291   20.6154 N   0  0  0  0  0  0
  -28.7845  -22.6862   19.9530 N   0  0  0  0  0  0
  -28.0531  -25.0441   20.1903 N   0  3  0  0  0  0
  -30.8368  -21.9970   19.0878 O   0  0  0  0  0  0
  -31.4746  -12.5414   19.1302 H   0  0  0  0  0  0
  -30.3979  -11.4143   19.9123 H   0  0  0  0  0  0
  -29.7634  -11.7174   17.4891 H   0  0  0  0  0  0
  -29.6125  -13.4433   17.7260 H   0  0  0  0  0  0
  -27.8863  -11.2573   18.9254 H   0  0  0  0  0  0
  -27.3630  -12.4815   17.8022 H   0  0  0  0  0  0
  -27.6456  -14.2276   19.4757 H   0  0  0  0  0  0
  -28.7077  -12.0680   21.3684 H   0  0  0  0  0  0
  -28.4392  -13.7379   21.8177 H   0  0  0  0  0  0
  -25.2707   -9.5701   22.4741 H   0  0  0  0  0  0
  -23.9994   -7.4614   22.7463 H   0  0  0  0  0  0
  -21.0797   -8.8745   19.8919 H   0  0  0  0  0  0
  -22.3624  -10.9663   19.6187 H   0  0  0  0  0  0
  -21.1950   -7.6117   23.9699 H   0  0  0  0  0  0
  -21.1517   -6.0514   25.9070 H   0  0  0  0  0  0
  -22.0570   -2.7592   23.2882 H   0  0  0  0  0  0
  -22.4131  -11.9849   22.4720 H   0  0  0  0  0  0
  -21.1114  -13.1249   22.2688 H   0  0  0  0  0  0
  -24.7186  -15.8600   20.6573 H   0  0  0  0  0  0
  -26.3395  -15.6147   20.2490 H   0  0  0  0  0  0
  -26.7234  -32.5351   23.1089 H   0  0  0  0  0  0
  -25.0100  -33.9713   25.0362 H   0  0  0  0  0  0
  -22.7214  -31.3021   21.4151 H   0  0  0  0  0  0
  -23.3767  -35.9645   23.3303 H   0  0  0  0  0  0
  -24.3608  -36.8932   22.2067 H   0  0  0  0  0  0
  -23.7247  -37.6513   23.6654 H   0  0  0  0  0  0
  -26.1402  -31.5447   20.6420 H   0  0  0  0  0  0
  -26.8444  -30.7877   22.0390 H   0  0  0  0  0  0
  -28.1252  -28.9423   21.1703 H   0  0  0  0  0  0
  -25.9664  -25.9491   18.9286 H   0  0  0  0  0  0
  -23.9558  -27.3451   18.9884 H   0  0  0  0  0  0
  -23.7874  -30.6194   19.4296 H   0  0  0  0  0  0
  -22.7533  -29.2862   19.8387 H   0  0  0  0  0  0
  -25.1297  -36.1953   25.0809 H   0  0  0  0  0  0
  -20.9967  -28.3273   24.1391 H   0  0  0  0  0  0
  -20.5631  -26.2297   23.3598 H   0  0  0  0  0  0
  -21.6623  -26.7508   22.1210 H   0  0  0  0  0  0
  -19.6901  -25.6307   21.1220 H   0  0  0  0  0  0
  -19.6649  -27.3211   20.6694 H   0  0  0  0  0  0
  -17.4187  -26.6697   21.3974 H   0  0  0  0  0  0
  -18.0313  -26.0103   22.9009 H   0  0  0  0  0  0
  -19.7877  -30.7227   24.2303 H   0  0  0  0  0  0
  -17.4925  -31.6246   24.5164 H   0  0  0  0  0  0
  -15.5281  -30.2947   23.7599 H   0  0  0  0  0  0
  -15.8650  -28.0811   22.7003 H   0  0  0  0  0  0
  -24.5817  -30.7218   25.7758 H   0  0  0  0  0  0
  -24.8956  -32.3003   26.4884 H   0  0  0  0  0  0
  -25.7945  -30.8919   27.0242 H   0  0  0  0  0  0
  -26.2985  -29.6732   24.1341 H   0  0  0  0  0  0
  -27.3923  -29.7277   25.4923 H   0  0  0  0  0  0
  -27.8881  -30.4216   23.9688 H   0  0  0  0  0  0
  -27.2563  -33.3639   26.2139 H   0  0  0  0  0  0
  -28.3765  -32.7062   25.0319 H   0  0  0  0  0  0
  -28.0797  -31.8558   26.5410 H   0  0  0  0  0  0
  -28.2590  -38.0119   24.7498 H   0  0  0  0  0  0
  -28.1081  -36.2643   24.6246 H   0  0  0  0  0  0
  -27.2306  -37.1413   25.8857 H   0  0  0  0  0  0
  -20.9415  -29.8707   21.6803 H   0  0  0  0  0  0
  -26.0182  -38.2862   24.1401 H   0  0  0  0  0  0
  -30.8502  -19.5728   18.1208 H   0  0  0  0  0  0
  -28.4229  -20.1229   21.6263 H   0  0  0  0  0  0
  -30.9189  -17.1417   18.5129 H   0  0  0  0  0  0
  -28.4478  -17.6822   21.9912 H   0  0  0  0  0  0
  -30.6780  -23.9564   18.6853 H   0  0  0  0  0  0
  -29.9990  -25.5673   18.8573 H   0  0  0  0  0  0
  -28.8071  -15.4049   20.9783 H   0  0  0  0  0  0
  -27.9126  -22.4232   20.3809 H   0  0  0  0  0  0
  -27.2079  -24.8395   20.7080 H   0  0  0  0  0  0
  1 25  1  0  0  0
  1 30  2  0  0  0
  1 80  1  0  0  0
  2  3  1  0  0  0
  2 25  1  0  0  0
  2 84  1  0  0  0
  2 85  1  0  0  0
  3  4  1  0  0  0
  3 86  1  0  0  0
  3 87  1  0  0  0
  4  5  1  0  0  0
  4 88  1  0  0  0
  4 89  1  0  0  0
  5  6  1  0  0  0
  5 26  1  0  0  0
  5 90  1  0  0  0
  6 25  1  0  0  0
  6 91  1  0  0  0
  6 92  1  0  0  0
  7  8  2  0  0  0
  7 26  1  0  0  0
  7 29  1  0  0  0
  8  9  1  0  0  0
  8 22  1  0  0  0
  9 10  1  0  0  0
  9 27  2  0  0  0
 10 11  2  0  0  0
 10 15  1  0  0  0
 11 12  1  0  0  0
 11 93  1  0  0  0
 12 13  2  0  0  0
 12 94  1  0  0  0
 13 14  1  0  0  0
 13 31  1  0  0  0
 14 15  2  0  0  0
 14 95  1  0  0  0
 15 96  1  0  0  0
 16 17  2  0  0  0
 16 21  1  0  0  0
 16 31  1  0  0  0
 17 18  1  0  0  0
 17 97  1  0  0  0
 18 19  2  0  0  0
 18 98  1  0  0  0
 19 20  1  0  0  0
 19 24  1  0  0  0
 20 21  2  0  0  0
 20 99  1  0  0  0
 21 23  1  0  0  0
 22 28  1  0  0  0
 22 32  2  0  0  0
 26 27  1  0  0  0
 28100  1  0  0  0
 28101  1  0  0  0
 29102  1  0  0  0
 29103  1  0  0  0
 33 34  1  0  0  0
 33 66  1  0  0  0
 33 70  2  0  0  0
 34 36  1  0  0  0
 34 59  1  0  0  0
 34104  1  0  0  0
 35 44  2  0  0  0
 35 45  1  0  0  0
 35 68  1  0  0  0
 36 56  1  0  0  0
 36105  1  0  0  0
 37 39  1  0  0  0
 37 47  1  0  0  0
 37 66  1  0  0  0
 37106  1  0  0  0
 38 43  2  0  0  0
 38 46  1  0  0  0
 38 47  1  0  0  0
 39 64  1  0  0  0
 39 67  2  0  0  0
 40 52  1  0  0  0
 40 53  2  0  0  0
 40 58  1  0  0  0
 41107  1  0  0  0
 41108  1  0  0  0
 41109  1  0  0  0
 41 48  1  0  0  0
 42 43  1  0  0  0
 42 66  1  0  0  0
 42110  1  0  0  0
 42111  1  0  0  0
 43 44  1  0  0  0
 44112  1  0  0  0
 45 46  2  0  0  0
 45113  1  0  0  0
 46114  1  0  0  0
 47115  1  0  0  0
 47116  1  0  0  0
 48 56  1  0  0  0
 48 65  1  0  0  0
 48117  1  0  0  0
 49 50  1  0  0  0
 49 53  1  0  0  0
 49 64  1  0  0  0
 49118  1  0  0  0
 50 51  1  0  0  0
 50119  1  0  0  0
 50120  1  0  0  0
 51 52  1  0  0  0
 51121  1  0  0  0
 51122  1  0  0  0
 52123  1  0  0  0
 52124  1  0  0  0
 53 54  1  0  0  0
 54 55  2  0  0  0
 54125  1  0  0  0
 55 57  1  0  0  0
 55126  1  0  0  0
 56 69  2  0  0  0
 57 58  2  0  0  0
 57127  1  0  0  0
 58128  1  0  0  0
 59 60  1  0  0  0
 59 61  1  0  0  0
 59 62  1  0  0  0
 60129  1  0  0  0
 60130  1  0  0  0
 60131  1  0  0  0
 61132  1  0  0  0
 61133  1  0  0  0
 61134  1  0  0  0
 62135  1  0  0  0
 62136  1  0  0  0
 62137  1  0  0  0
 63 65  1  0  0  0
 63138  1  0  0  0
 63139  1  0  0  0
 63140  1  0  0  0
 64141  1  0  0  0
 65142  1  0  0  0
 68 82  1  0  0  0
 71 73  2  0  0  0
 71 75  1  0  0  0
 71143  1  0  0  0
 72 74  1  0  0  0
 72 75  2  0  0  0
 72144  1  0  0  0
 73 76  1  0  0  0
 73145  1  0  0  0
 74 76  2  0  0  0
 74146  1  0  0  0
 75 77  1  0  0  0
 76 80  1  0  0  0
 77 81  1  0  0  0
 77 83  2  0  0  0
 78 79  1  0  0  0
 78 81  1  0  0  0
 78 82  2  0  0  0
 79147  1  0  0  0
 79148  1  0  0  0
 80149  1  0  0  0
 81150  1  0  0  0
 82151  1  0  0  0
M  CHG  1  82   1
M  ISO  4   1 100  68 101  80 100  82 101
M  END
> <chiral flag>
0

> <version>
0

> <s_m_source_file>
/data/baiqing/PycharmProjects/Reinvent-master-3.2/result/LINK_invent/BTK/process_docking_weight1_custom_product_contain_oxygen_bond_distance_aromatic_linkinvent_7_9_3/rearranged_h_0089.sdf

> <i_m_source_file_index>
76

> <r_mmod_Potential_Energy-OPLS-2005>
-127.591430664062

> <r_mmod_Stretch_Energy-OPLS-2005>
92.5886535644531

> <r_mmod_Bend_Energy-OPLS-2005>
152.782531738281

> <r_mmod_Torsional_Energy-OPLS-2005>
229.495422363281

> <r_mmod_Improper_Torsional_Energy-OPLS-2005>
5.18377828598022

> <r_mmod_Van_der_Waal_Energy-OPLS-2005>
154.473266601562

> <r_mmod_Electrostatic_Energy-OPLS-2005>
-336.903076171875

> <r_mmod_Solvation_Energy-OPLS-2005>
-490.933227539062

> <b_mmod_Minimization_Converged-OPLS-2005>
0

> <r_mmod_RMS_Derivative-OPLS-2005>
6.3542308807373

$$$$
76
                    3D
 Structure written by MMmdl.
154163  0  0  1  0            999 V2000
  -30.6056  -14.6946   20.4693 C   0  0  0  0  0  0
  -30.4458  -12.4216   19.4555 C   0  0  0  0  0  0
  -29.5111  -12.5062   18.2275 C   0  0  0  0  0  0
  -28.0349  -12.3382   18.6426 C   0  0  0  0  0  0
  -27.6500  -13.2201   19.8605 C   0  0  2  0  0  0
  -28.7015  -13.1055   20.9879 C   0  0  0  0  0  0
  -25.2532  -13.8148   20.5749 C   0  0  0  0  0  0
  -24.1804  -13.0394   20.9183 C   0  0  0  0  0  0
  -24.6398  -11.6880   20.8724 C   0  0  0  0  0  0
  -23.9068  -10.4270   21.0390 C   0  0  0  0  0  0
  -24.3615   -9.4194   21.9177 C   0  0  0  0  0  0
  -23.6288   -8.2234   22.0751 C   0  0  0  0  0  0
  -22.4270   -8.0274   21.3543 C   0  0  0  0  0  0
  -21.9906   -9.0244   20.4643 C   0  0  0  0  0  0
  -22.7237  -10.2117   20.3046 C   0  0  0  0  0  0
  -21.6852   -6.0730   22.5278 C   0  0  0  0  0  0
  -21.4014   -6.5635   23.8211 C   0  0  0  0  0  0
  -21.3661   -5.6788   24.9174 C   0  0  0  0  0  0
  -21.6044   -4.3052   24.7225 C   0  0  0  0  0  0
  -21.8820   -3.8143   23.4348 C   0  0  0  0  0  0
  -21.9193   -4.6959   22.3403 C   0  0  0  0  0  0
  -22.7825  -13.5189   21.1850 C   0  0  0  0  0  0
  -22.1662   -4.2146   21.0981 F   0  0  0  0  0  0
  -21.5629   -3.4535   25.7738 F   0  0  0  0  0  0
  -30.0103  -13.4574   20.4135 N   0  0  0  0  0  0
  -26.2986  -12.9361   20.3351 N   0  0  0  0  0  0
  -25.9334  -11.6504   20.5761 N   0  0  0  0  0  0
  -22.0476  -12.8188   22.0417 N   0  0  0  0  0  0
  -25.4087  -15.1892   20.4331 N   0  0  0  0  0  0
  -31.7879  -14.8494   20.1490 O   0  0  0  0  0  0
  -21.6633   -6.8872   21.4240 O   0  0  0  0  0  0
  -22.3506  -14.5500   20.6706 O   0  0  0  0  0  0
  -24.6280  -31.8580   23.2022 C   0  0  0  0  0  0
  -25.9120  -32.4770   23.8357 C   0  0  1  0  0  0
  -27.2235  -27.2957   20.1230 C   0  0  0  0  0  0
  -25.5929  -33.8573   24.2277 N   0  0  0  0  0  0
  -23.4241  -30.4820   21.5436 C   0  0  2  0  0  0
  -24.8736  -28.9370   20.1077 C   0  0  0  0  0  0
  -22.7489  -29.4616   22.4917 C   0  0  0  0  0  0
  -18.0289  -28.1382   22.8485 C   0  0  0  0  0  0
  -24.1490  -36.7291   23.2638 C   0  0  0  0  0  0
  -25.9676  -30.7797   21.3804 C   0  0  0  0  0  0
  -26.0418  -29.4048   20.7240 C   0  0  0  0  0  0
  -27.2189  -28.5931   20.7289 C   0  0  0  0  0  0
  -26.0400  -26.9010   19.4577 C   0  0  0  0  0  0
  -24.8755  -27.6906   19.4649 C   0  0  0  0  0  0
  -23.6417  -29.8184   20.1581 C   0  0  0  0  0  0
  -25.4114  -36.3079   24.0326 C   0  0  1  0  0  0
  -20.5892  -28.3694   23.1268 C   0  0  2  0  0  0
  -20.6775  -26.9416   22.5399 C   0  0  0  0  0  0
  -19.5748  -26.6383   21.5206 C   0  0  0  0  0  0
  -18.1932  -26.7922   22.1626 C   0  0  0  0  0  0
  -19.1542  -28.8856   23.2872 C   0  0  0  0  0  0
  -18.9463  -30.1455   23.8895 C   0  0  0  0  0  0
  -17.6462  -30.6586   24.0561 C   0  0  0  0  0  0
  -25.9051  -34.9448   23.5102 C   0  0  0  0  0  0
  -16.5354  -29.9082   23.6327 C   0  0  0  0  0  0
  -16.7276  -28.6496   23.0355 C   0  0  0  0  0  0
  -26.4499  -31.6583   25.0733 C   0  0  0  0  0  0
  -25.3735  -31.3732   26.1465 C   0  0  0  0  0  0
  -27.0333  -30.2998   24.6204 C   0  0  0  0  0  0
  -27.6063  -32.4318   25.7498 C   0  0  0  0  0  0
  -27.5577  -37.1802   24.8465 C   0  0  0  0  0  0
  -21.4199  -29.3048   22.3660 N   0  0  0  0  0  0
  -26.4291  -37.3774   23.9407 N   0  0  0  0  0  0
  -24.6917  -31.0570   22.0987 N   0  0  0  0  0  0
  -23.4202  -28.8150   23.3002 O   0  0  0  0  0  0
  -28.3123  -26.4001   20.1689 O   0  0  0  0  0  0
  -26.5620  -34.8918   22.4669 O   0  0  0  0  0  0
  -23.5436  -32.1394   23.7329 O   0  0  0  0  0  0
  -30.8406  -19.4754   20.7932 C   0  0  0  0  0  0
  -30.9328  -18.0438   20.8587 C   0  0  0  0  0  0
  -28.5585  -19.3182   20.0795 C   0  0  0  0  0  0
  -29.6450  -20.1715   20.4241 C   0  0  0  0  0  0
  -29.8318  -17.2085   20.5289 C   0  0  0  0  0  0
  -28.6574  -17.8919   20.1110 C   0  0  0  0  0  0
  -28.8866  -23.9153   20.2912 C   0  0  0  0  0  0
  -30.3131  -23.9074   20.0556 C   0  0  0  0  0  0
  -28.4826  -22.4982   20.4705 C   0  0  0  0  0  0
  -28.0465  -25.0137   20.3526 C   0  0  0  0  0  0
  -30.7986  -22.4613   20.1571 C   0  0  0  0  0  0
  -29.5770  -21.6585   20.3540 N   0  0  0  0  0  0
  -27.5745  -17.1289   19.6770 N   0  0  0  0  0  0
  -29.7522  -15.7480   20.6839 N   0  0  0  0  0  0
  -31.0538  -24.8702   19.8280 O   0  0  0  0  0  0
  -27.3303  -22.1095   20.6967 O   0  0  0  0  0  0
  -31.4850  -12.5575   19.1505 H   0  0  0  0  0  0
  -30.3935  -11.4338   19.9159 H   0  0  0  0  0  0
  -29.7818  -11.7445   17.4950 H   0  0  0  0  0  0
  -29.6440  -13.4686   17.7305 H   0  0  0  0  0  0
  -27.8807  -11.2863   18.8870 H   0  0  0  0  0  0
  -27.3780  -12.5519   17.7988 H   0  0  0  0  0  0
  -27.6520  -14.2483   19.5015 H   0  0  0  0  0  0
  -28.7270  -12.0925   21.3913 H   0  0  0  0  0  0
  -28.4466  -13.7551   21.8267 H   0  0  0  0  0  0
  -25.2762   -9.5672   22.4750 H   0  0  0  0  0  0
  -23.9994   -7.4629   22.7474 H   0  0  0  0  0  0
  -21.0837   -8.8765   19.8953 H   0  0  0  0  0  0
  -22.3699  -10.9656   19.6153 H   0  0  0  0  0  0
  -21.2007   -7.6144   23.9715 H   0  0  0  0  0  0
  -21.1482   -6.0518   25.9078 H   0  0  0  0  0  0
  -22.0601   -2.7605   23.2847 H   0  0  0  0  0  0
  -22.4095  -11.9851   22.4804 H   0  0  0  0  0  0
  -21.1100  -13.1217   22.2630 H   0  0  0  0  0  0
  -24.6297  -15.8202   20.5816 H   0  0  0  0  0  0
  -26.2701  -15.6954   20.2268 H   0  0  0  0  0  0
  -26.7189  -32.5433   23.1103 H   0  0  0  0  0  0
  -25.0076  -33.9716   25.0423 H   0  0  0  0  0  0
  -22.7191  -31.3033   21.3995 H   0  0  0  0  0  0
  -23.3750  -35.9624   23.3291 H   0  0  0  0  0  0
  -24.3585  -36.8922   22.2053 H   0  0  0  0  0  0
  -23.7243  -37.6492   23.6666 H   0  0  0  0  0  0
  -26.1035  -31.5403   20.6102 H   0  0  0  0  0  0
  -26.8462  -30.8293   22.0115 H   0  0  0  0  0  0
  -28.1117  -28.9419   21.2288 H   0  0  0  0  0  0
  -25.9968  -25.9525   18.9415 H   0  0  0  0  0  0
  -23.9850  -27.3314   18.9675 H   0  0  0  0  0  0
  -23.7615  -30.5955   19.4021 H   0  0  0  0  0  0
  -22.7615  -29.2480   19.8555 H   0  0  0  0  0  0
  -25.1295  -36.1928   25.0818 H   0  0  0  0  0  0
  -20.9989  -28.3266   24.1385 H   0  0  0  0  0  0
  -20.5672  -26.2308   23.3602 H   0  0  0  0  0  0
  -21.6642  -26.7437   22.1195 H   0  0  0  0  0  0
  -19.6908  -25.6291   21.1238 H   0  0  0  0  0  0
  -19.6675  -27.3188   20.6730 H   0  0  0  0  0  0
  -17.4197  -26.6663   21.4037 H   0  0  0  0  0  0
  -18.0343  -26.0066   22.9029 H   0  0  0  0  0  0
  -19.7941  -30.7268   24.2268 H   0  0  0  0  0  0
  -17.5019  -31.6268   24.5155 H   0  0  0  0  0  0
  -15.5355  -30.2986   23.7649 H   0  0  0  0  0  0
  -15.8676  -28.0812   22.7079 H   0  0  0  0  0  0
  -24.5870  -30.7134   25.7786 H   0  0  0  0  0  0
  -24.8981  -32.2909   26.4939 H   0  0  0  0  0  0
  -25.8054  -30.8854   27.0213 H   0  0  0  0  0  0
  -26.2903  -29.6750   24.1232 H   0  0  0  0  0  0
  -27.4017  -29.7258   25.4716 H   0  0  0  0  0  0
  -27.8786  -30.4266   23.9436 H   0  0  0  0  0  0
  -27.2682  -33.3628   26.2058 H   0  0  0  0  0  0
  -28.3879  -32.6859   25.0326 H   0  0  0  0  0  0
  -28.0720  -31.8452   26.5426 H   0  0  0  0  0  0
  -28.2596  -38.0099   24.7510 H   0  0  0  0  0  0
  -28.1073  -36.2629   24.6293 H   0  0  0  0  0  0
  -27.2296  -37.1455   25.8870 H   0  0  0  0  0  0
  -20.9377  -29.8786   21.6883 H   0  0  0  0  0  0
  -26.0168  -38.2848   24.1403 H   0  0  0  0  0  0
  -31.7214  -20.0412   21.0615 H   0  0  0  0  0  0
  -31.8581  -17.5939   21.1897 H   0  0  0  0  0  0
  -27.6304  -19.7627   19.7502 H   0  0  0  0  0  0
  -27.0061  -24.8382   20.5860 H   0  0  0  0  0  0
  -31.4773  -22.3608   21.0032 H   0  0  0  0  0  0
  -31.3148  -22.1685   19.2435 H   0  0  0  0  0  0
  -26.8323  -17.6713   19.2477 H   0  0  0  0  0  0
  -27.8547  -16.3902   19.0422 H   0  0  0  0  0  0
  -28.7986  -15.4445   20.8112 H   0  0  0  0  0  0
  1 25  1  0  0  0
  1 30  2  0  0  0
  1 84  1  0  0  0
  2  3  1  0  0  0
  2 25  1  0  0  0
  2 87  1  0  0  0
  2 88  1  0  0  0
  3  4  1  0  0  0
  3 89  1  0  0  0
  3 90  1  0  0  0
  4  5  1  0  0  0
  4 91  1  0  0  0
  4 92  1  0  0  0
  5  6  1  0  0  0
  5 26  1  0  0  0
  5 93  1  0  0  0
  6 25  1  0  0  0
  6 94  1  0  0  0
  6 95  1  0  0  0
  7  8  2  0  0  0
  7 26  1  0  0  0
  7 29  1  0  0  0
  8  9  1  0  0  0
  8 22  1  0  0  0
  9 10  1  0  0  0
  9 27  2  0  0  0
 10 11  2  0  0  0
 10 15  1  0  0  0
 11 12  1  0  0  0
 11 96  1  0  0  0
 12 13  2  0  0  0
 12 97  1  0  0  0
 13 14  1  0  0  0
 13 31  1  0  0  0
 14 15  2  0  0  0
 14 98  1  0  0  0
 15 99  1  0  0  0
 16 17  2  0  0  0
 16 21  1  0  0  0
 16 31  1  0  0  0
 17 18  1  0  0  0
 17100  1  0  0  0
 18 19  2  0  0  0
 18101  1  0  0  0
 19 20  1  0  0  0
 19 24  1  0  0  0
 20 21  2  0  0  0
 20102  1  0  0  0
 21 23  1  0  0  0
 22 28  1  0  0  0
 22 32  2  0  0  0
 26 27  1  0  0  0
 28103  1  0  0  0
 28104  1  0  0  0
 29105  1  0  0  0
 29106  1  0  0  0
 33 34  1  0  0  0
 33 66  1  0  0  0
 33 70  2  0  0  0
 34 36  1  0  0  0
 34 59  1  0  0  0
 34107  1  0  0  0
 35 44  2  0  0  0
 35 45  1  0  0  0
 35 68  1  0  0  0
 36 56  1  0  0  0
 36108  1  0  0  0
 37 39  1  0  0  0
 37 47  1  0  0  0
 37 66  1  0  0  0
 37109  1  0  0  0
 38 43  2  0  0  0
 38 46  1  0  0  0
 38 47  1  0  0  0
 39 64  1  0  0  0
 39 67  2  0  0  0
 40 52  1  0  0  0
 40 53  2  0  0  0
 40 58  1  0  0  0
 41110  1  0  0  0
 41111  1  0  0  0
 41112  1  0  0  0
 41 48  1  0  0  0
 42 43  1  0  0  0
 42 66  1  0  0  0
 42113  1  0  0  0
 42114  1  0  0  0
 43 44  1  0  0  0
 44115  1  0  0  0
 45 46  2  0  0  0
 45116  1  0  0  0
 46117  1  0  0  0
 47118  1  0  0  0
 47119  1  0  0  0
 48 56  1  0  0  0
 48 65  1  0  0  0
 48120  1  0  0  0
 49 50  1  0  0  0
 49 53  1  0  0  0
 49 64  1  0  0  0
 49121  1  0  0  0
 50 51  1  0  0  0
 50122  1  0  0  0
 50123  1  0  0  0
 51 52  1  0  0  0
 51124  1  0  0  0
 51125  1  0  0  0
 52126  1  0  0  0
 52127  1  0  0  0
 53 54  1  0  0  0
 54 55  2  0  0  0
 54128  1  0  0  0
 55 57  1  0  0  0
 55129  1  0  0  0
 56 69  2  0  0  0
 57 58  2  0  0  0
 57130  1  0  0  0
 58131  1  0  0  0
 59 60  1  0  0  0
 59 61  1  0  0  0
 59 62  1  0  0  0
 60132  1  0  0  0
 60133  1  0  0  0
 60134  1  0  0  0
 61135  1  0  0  0
 61136  1  0  0  0
 61137  1  0  0  0
 62138  1  0  0  0
 62139  1  0  0  0
 62140  1  0  0  0
 63 65  1  0  0  0
 63141  1  0  0  0
 63142  1  0  0  0
 63143  1  0  0  0
 64144  1  0  0  0
 65145  1  0  0  0
 68 80  1  0  0  0
 71 72  2  0  0  0
 71 74  1  0  0  0
 71146  1  0  0  0
 72 75  1  0  0  0
 72147  1  0  0  0
 73 74  2  0  0  0
 73 76  1  0  0  0
 73148  1  0  0  0
 74 82  1  0  0  0
 75 76  2  0  0  0
 75 84  1  0  0  0
 76 83  1  0  0  0
 77 78  1  0  0  0
 77 79  1  0  0  0
 77 80  2  0  0  0
 78 81  1  0  0  0
 78 85  2  0  0  0
 79 82  1  0  0  0
 79 86  2  0  0  0
 80149  1  0  0  0
 81 82  1  0  0  0
 81150  1  0  0  0
 81151  1  0  0  0
 83152  1  0  0  0
 83153  1  0  0  0
 84154  1  0  0  0
M  ISO  4   1 100  68 101  80 101  84 100
M  END
> <chiral flag>
0

> <version>
0

> <s_m_source_file>
/data/baiqing/PycharmProjects/Reinvent-master-3.2/result/LINK_invent/BTK/process_docking_weight1_custom_product_contain_oxygen_bond_distance_aromatic_linkinvent_7_9_3/rearranged_h_0089.sdf

> <i_m_source_file_index>
77

> <r_mmod_Potential_Energy-OPLS-2005>
49.6900634765625

> <r_mmod_Stretch_Energy-OPLS-2005>
91.4275665283203

> <r_mmod_Bend_Energy-OPLS-2005>
194.03092956543

> <r_mmod_Torsional_Energy-OPLS-2005>
266.795471191406

> <r_mmod_Improper_Torsional_Energy-OPLS-2005>
11.3412895202637

> <r_mmod_Van_der_Waal_Energy-OPLS-2005>
145.440322875977

> <r_mmod_Electrostatic_Energy-OPLS-2005>
-491.798919677734

> <r_mmod_Solvation_Energy-OPLS-2005>
-235.021926879883

> <b_mmod_Minimization_Converged-OPLS-2005>
0

> <r_mmod_RMS_Derivative-OPLS-2005>
0.613715350627899

$$$$
77
                    3D
 Structure written by MMmdl.
159168  0  0  1  0            999 V2000
  -30.6769  -14.4956   20.6257 C   0  0  0  0  0  0
  -30.4387  -12.3409   19.4170 C   0  0  0  0  0  0
  -29.4944  -12.5286   18.2093 C   0  0  0  0  0  0
  -28.0199  -12.3507   18.6230 C   0  0  0  0  0  0
  -27.6618  -13.1867   19.8765 C   0  0  2  0  0  0
  -28.7045  -12.9555   20.9968 C   0  0  0  0  0  0
  -25.2574  -13.8091   20.5673 C   0  0  0  0  0  0
  -24.1799  -13.0390   20.9114 C   0  0  0  0  0  0
  -24.6352  -11.6860   20.8698 C   0  0  0  0  0  0
  -23.9020  -10.4266   21.0393 C   0  0  0  0  0  0
  -24.3585   -9.4197   21.9179 C   0  0  0  0  0  0
  -23.6271   -8.2231   22.0751 C   0  0  0  0  0  0
  -22.4255   -8.0263   21.3540 C   0  0  0  0  0  0
  -21.9878   -9.0230   20.4639 C   0  0  0  0  0  0
  -22.7195  -10.2112   20.3043 C   0  0  0  0  0  0
  -21.6847   -6.0726   22.5281 C   0  0  0  0  0  0
  -21.4010   -6.5635   23.8214 C   0  0  0  0  0  0
  -21.3656   -5.6790   24.9177 C   0  0  0  0  0  0
  -21.6045   -4.3052   24.7228 C   0  0  0  0  0  0
  -21.8820   -3.8142   23.4350 C   0  0  0  0  0  0
  -21.9190   -4.6956   22.3405 C   0  0  0  0  0  0
  -22.7837  -13.5213   21.1825 C   0  0  0  0  0  0
  -22.1659   -4.2144   21.0985 F   0  0  0  0  0  0
  -21.5629   -3.4535   25.7743 F   0  0  0  0  0  0
  -30.0419  -13.2949   20.4674 N   0  0  0  0  0  0
  -26.3013  -12.9232   20.3382 N   0  0  0  0  0  0
  -25.9277  -11.6409   20.5753 N   0  0  0  0  0  0
  -22.0490  -12.8207   22.0395 N   0  0  0  0  0  0
  -25.4317  -15.1803   20.4218 N   0  0  0  0  0  0
  -31.7316  -14.7729   20.0465 O   0  0  0  0  0  0
  -21.6626   -6.8861   21.4243 O   0  0  0  0  0  0
  -22.3526  -14.5539   20.6713 O   0  0  0  0  0  0
  -24.6158  -31.8668   23.2086 C   0  0  0  0  0  0
  -25.9051  -32.4812   23.8383 C   0  0  1  0  0  0
  -27.2396  -27.4209   20.1028 C   0  0  0  0  0  0
  -25.5903  -33.8611   24.2323 N   0  0  0  0  0  0
  -23.4052  -30.4893   21.5496 C   0  0  2  0  0  0
  -24.8534  -28.9520   20.1168 C   0  0  0  0  0  0
  -22.7416  -29.4655   22.4988 C   0  0  0  0  0  0
  -18.0275  -28.1375   22.8492 C   0  0  0  0  0  0
  -24.1489  -36.7311   23.2639 C   0  0  0  0  0  0
  -25.9348  -30.8292   21.3632 C   0  0  0  0  0  0
  -26.0148  -29.4618   20.7112 C   0  0  0  0  0  0
  -27.2124  -28.7063   20.6961 C   0  0  0  0  0  0
  -26.0615  -26.9333   19.4942 C   0  0  0  0  0  0
  -24.8727  -27.6873   19.5039 C   0  0  0  0  0  0
  -23.6149  -29.8198   20.1653 C   0  0  0  0  0  0
  -25.4111  -36.3106   24.0335 C   0  0  1  0  0  0
  -20.5865  -28.3664   23.1314 C   0  0  2  0  0  0
  -20.6764  -26.9401   22.5417 C   0  0  0  0  0  0
  -19.5743  -26.6384   21.5213 C   0  0  0  0  0  0
  -18.1922  -26.7920   22.1623 C   0  0  0  0  0  0
  -19.1524  -28.8836   23.2898 C   0  0  0  0  0  0
  -18.9451  -30.1443   23.8906 C   0  0  0  0  0  0
  -17.6453  -30.6580   24.0567 C   0  0  0  0  0  0
  -25.9036  -34.9468   23.5126 C   0  0  0  0  0  0
  -16.5344  -29.9084   23.6325 C   0  0  0  0  0  0
  -16.7264  -28.6501   23.0346 C   0  0  0  0  0  0
  -26.4477  -31.6582   25.0708 C   0  0  0  0  0  0
  -25.3746  -31.3699   26.1461 C   0  0  0  0  0  0
  -27.0298  -30.3017   24.6081 C   0  0  0  0  0  0
  -27.6052  -32.4298   25.7470 C   0  0  0  0  0  0
  -27.5582  -37.1813   24.8467 C   0  0  0  0  0  0
  -21.4141  -29.3030   22.3721 N   0  0  0  0  0  0
  -26.4298  -37.3787   23.9404 N   0  0  0  0  0  0
  -24.6703  -31.0762   22.0990 N   0  0  0  0  0  0
  -23.4180  -28.8203   23.3042 O   0  0  0  0  0  0
  -28.4012  -26.6697   20.0903 O   0  0  0  0  0  0
  -26.5599  -34.8923   22.4690 O   0  0  0  0  0  0
  -23.5345  -32.1424   23.7471 O   0  0  0  0  0  0
  -30.3089  -20.0645   21.5328 C   0  0  0  0  0  0
  -29.7654  -19.6783   19.2038 C   0  0  0  0  0  0
  -29.8135  -17.7709   20.7658 C   0  0  0  0  0  0
  -30.0527  -20.5902   20.2445 C   0  0  0  0  0  0
  -30.2106  -18.6737   21.8010 C   0  0  0  0  0  0
  -29.6276  -18.2973   19.4631 C   0  0  0  0  0  0
  -30.1999  -24.6510   19.1130 C   0  0  0  0  0  0
  -31.0213  -22.4068   18.9851 C   0  0  0  0  0  0
  -29.2976  -24.3135   20.0612 C   0  0  0  0  0  0
  -31.1073  -23.6748   18.5532 C   0  0  0  0  0  0
  -29.2317  -22.9083   20.5482 C   0  0  0  0  0  0
  -29.2902  -16.3730   21.0457 C   0  0  0  0  0  0
  -28.3022  -25.3333   20.6411 C   0  0  0  0  0  0
  -30.1001  -22.0063   19.9705 N   0  0  0  0  0  0
  -30.4585  -18.2667   23.1183 N   0  0  0  0  0  0
  -30.0690  -15.3542   21.4668 N   0  0  0  0  0  0
  -28.4319  -22.5589   21.4244 O   0  0  0  0  0  0
  -28.0684  -16.2137   21.0022 O   0  0  0  0  0  0
  -32.0046  -24.0163   17.6222 O   0  0  0  0  0  0
  -29.2590  -17.4811   18.4441 F   0  0  0  0  0  0
  -31.4770  -12.4762   19.1080 H   0  0  0  0  0  0
  -30.3747  -11.3197   19.7959 H   0  0  0  0  0  0
  -29.7473  -11.8228   17.4170 H   0  0  0  0  0  0
  -29.6339  -13.5246   17.7863 H   0  0  0  0  0  0
  -27.8507  -11.2912   18.8219 H   0  0  0  0  0  0
  -27.3599  -12.6115   17.7945 H   0  0  0  0  0  0
  -27.7024  -14.2263   19.5603 H   0  0  0  0  0  0
  -28.6922  -11.9089   21.3043 H   0  0  0  0  0  0
  -28.4326  -13.5106   21.8951 H   0  0  0  0  0  0
  -25.2740   -9.5681   22.4743 H   0  0  0  0  0  0
  -23.9988   -7.4624   22.7469 H   0  0  0  0  0  0
  -21.0812   -8.8738   19.8948 H   0  0  0  0  0  0
  -22.3657  -10.9642   19.6144 H   0  0  0  0  0  0
  -21.2001   -7.6143   23.9714 H   0  0  0  0  0  0
  -21.1477   -6.0523   25.9081 H   0  0  0  0  0  0
  -22.0602   -2.7604   23.2853 H   0  0  0  0  0  0
  -22.4105  -11.9852   22.4746 H   0  0  0  0  0  0
  -21.1121  -13.1248   22.2646 H   0  0  0  0  0  0
  -24.6949  -15.8403   20.6415 H   0  0  0  0  0  0
  -26.3593  -15.6056   20.4256 H   0  0  0  0  0  0
  -26.7121  -32.5528   23.1148 H   0  0  0  0  0  0
  -25.0059  -33.9771   25.0471 H   0  0  0  0  0  0
  -22.6941  -31.3058   21.4095 H   0  0  0  0  0  0
  -23.3743  -35.9656   23.3316 H   0  0  0  0  0  0
  -24.3582  -36.8910   22.2051 H   0  0  0  0  0  0
  -23.7251  -37.6525   23.6646 H   0  0  0  0  0  0
  -26.0478  -31.5949   20.5943 H   0  0  0  0  0  0
  -26.8218  -30.8829   21.9827 H   0  0  0  0  0  0
  -28.1113  -29.0991   21.1504 H   0  0  0  0  0  0
  -26.0597  -25.9718   19.0002 H   0  0  0  0  0  0
  -23.9826  -27.2920   19.0345 H   0  0  0  0  0  0
  -23.7223  -30.5939   19.4039 H   0  0  0  0  0  0
  -22.7383  -29.2394   19.8715 H   0  0  0  0  0  0
  -25.1289  -36.1973   25.0828 H   0  0  0  0  0  0
  -20.9958  -28.3232   24.1434 H   0  0  0  0  0  0
  -20.5667  -26.2274   23.3605 H   0  0  0  0  0  0
  -21.6636  -26.7443   22.1212 H   0  0  0  0  0  0
  -19.6907  -25.6300   21.1230 H   0  0  0  0  0  0
  -19.6682  -27.3203   20.6749 H   0  0  0  0  0  0
  -17.4195  -26.6667   21.4023 H   0  0  0  0  0  0
  -18.0325  -26.0057   22.9012 H   0  0  0  0  0  0
  -19.7928  -30.7258   24.2274 H   0  0  0  0  0  0
  -17.5009  -31.6261   24.5169 H   0  0  0  0  0  0
  -15.5346  -30.2992   23.7639 H   0  0  0  0  0  0
  -15.8662  -28.0828   22.7049 H   0  0  0  0  0  0
  -24.5904  -30.7064   25.7802 H   0  0  0  0  0  0
  -24.8962  -32.2861   26.4928 H   0  0  0  0  0  0
  -25.8099  -30.8849   27.0206 H   0  0  0  0  0  0
  -26.2835  -29.6783   24.1140 H   0  0  0  0  0  0
  -27.4068  -29.7248   25.4535 H   0  0  0  0  0  0
  -27.8674  -30.4325   23.9226 H   0  0  0  0  0  0
  -27.2666  -33.3580   26.2084 H   0  0  0  0  0  0
  -28.3842  -32.6884   25.0289 H   0  0  0  0  0  0
  -28.0741  -31.8402   26.5356 H   0  0  0  0  0  0
  -28.2612  -38.0096   24.7497 H   0  0  0  0  0  0
  -28.1062  -36.2627   24.6316 H   0  0  0  0  0  0
  -27.2297  -37.1493   25.8870 H   0  0  0  0  0  0
  -20.9302  -29.8748   21.6940 H   0  0  0  0  0  0
  -26.0186  -38.2871   24.1392 H   0  0  0  0  0  0
  -30.5596  -20.7503   22.3309 H   0  0  0  0  0  0
  -29.5879  -20.0413   18.2016 H   0  0  0  0  0  0
  -30.2337  -25.6709   18.7560 H   0  0  0  0  0  0
  -31.6631  -21.6147   18.6244 H   0  0  0  0  0  0
  -28.4767  -25.4064   21.7154 H   0  0  0  0  0  0
  -27.3027  -24.9138   20.5296 H   0  0  0  0  0  0
  -30.9382  -18.9139   23.7376 H   0  0  0  0  0  0
  -30.7215  -17.3025   23.2991 H   0  0  0  0  0  0
  -29.4731  -14.7723   22.0307 H   0  0  0  0  0  0
  -31.8992  -24.9425   17.4378 H   0  0  0  0  0  0
  1 25  1  0  0  0
  1 30  2  0  0  0
  1 86  1  0  0  0
  2  3  1  0  0  0
  2 25  1  0  0  0
  2 91  1  0  0  0
  2 92  1  0  0  0
  3  4  1  0  0  0
  3 93  1  0  0  0
  3 94  1  0  0  0
  4  5  1  0  0  0
  4 95  1  0  0  0
  4 96  1  0  0  0
  5  6  1  0  0  0
  5 26  1  0  0  0
  5 97  1  0  0  0
  6 25  1  0  0  0
  6 98  1  0  0  0
  6 99  1  0  0  0
  7  8  2  0  0  0
  7 26  1  0  0  0
  7 29  1  0  0  0
  8  9  1  0  0  0
  8 22  1  0  0  0
  9 10  1  0  0  0
  9 27  2  0  0  0
 10 11  2  0  0  0
 10 15  1  0  0  0
 11 12  1  0  0  0
 11100  1  0  0  0
 12 13  2  0  0  0
 12101  1  0  0  0
 13 14  1  0  0  0
 13 31  1  0  0  0
 14 15  2  0  0  0
 14102  1  0  0  0
 15103  1  0  0  0
 16 17  2  0  0  0
 16 21  1  0  0  0
 16 31  1  0  0  0
 17 18  1  0  0  0
 17104  1  0  0  0
 18 19  2  0  0  0
 18105  1  0  0  0
 19 20  1  0  0  0
 19 24  1  0  0  0
 20 21  2  0  0  0
 20106  1  0  0  0
 21 23  1  0  0  0
 22 28  1  0  0  0
 22 32  2  0  0  0
 26 27  1  0  0  0
 28107  1  0  0  0
 28108  1  0  0  0
 29109  1  0  0  0
 29110  1  0  0  0
 33 34  1  0  0  0
 33 66  1  0  0  0
 33 70  2  0  0  0
 34 36  1  0  0  0
 34 59  1  0  0  0
 34111  1  0  0  0
 35 44  2  0  0  0
 35 45  1  0  0  0
 35 68  1  0  0  0
 36 56  1  0  0  0
 36112  1  0  0  0
 37 39  1  0  0  0
 37 47  1  0  0  0
 37 66  1  0  0  0
 37113  1  0  0  0
 38 43  2  0  0  0
 38 46  1  0  0  0
 38 47  1  0  0  0
 39 64  1  0  0  0
 39 67  2  0  0  0
 40 52  1  0  0  0
 40 53  2  0  0  0
 40 58  1  0  0  0
 41114  1  0  0  0
 41115  1  0  0  0
 41116  1  0  0  0
 41 48  1  0  0  0
 42 43  1  0  0  0
 42 66  1  0  0  0
 42117  1  0  0  0
 42118  1  0  0  0
 43 44  1  0  0  0
 44119  1  0  0  0
 45 46  2  0  0  0
 45120  1  0  0  0
 46121  1  0  0  0
 47122  1  0  0  0
 47123  1  0  0  0
 48 56  1  0  0  0
 48 65  1  0  0  0
 48124  1  0  0  0
 49 50  1  0  0  0
 49 53  1  0  0  0
 49 64  1  0  0  0
 49125  1  0  0  0
 50 51  1  0  0  0
 50126  1  0  0  0
 50127  1  0  0  0
 51 52  1  0  0  0
 51128  1  0  0  0
 51129  1  0  0  0
 52130  1  0  0  0
 52131  1  0  0  0
 53 54  1  0  0  0
 54 55  2  0  0  0
 54132  1  0  0  0
 55 57  1  0  0  0
 55133  1  0  0  0
 56 69  2  0  0  0
 57 58  2  0  0  0
 57134  1  0  0  0
 58135  1  0  0  0
 59 60  1  0  0  0
 59 61  1  0  0  0
 59 62  1  0  0  0
 60136  1  0  0  0
 60137  1  0  0  0
 60138  1  0  0  0
 61139  1  0  0  0
 61140  1  0  0  0
 61141  1  0  0  0
 62142  1  0  0  0
 62143  1  0  0  0
 62144  1  0  0  0
 63 65  1  0  0  0
 63145  1  0  0  0
 63146  1  0  0  0
 63147  1  0  0  0
 64148  1  0  0  0
 65149  1  0  0  0
 68 83  1  0  0  0
 71 74  2  0  0  0
 71 75  1  0  0  0
 71150  1  0  0  0
 72 74  1  0  0  0
 72 76  2  0  0  0
 72151  1  0  0  0
 73 75  2  0  0  0
 73 76  1  0  0  0
 73 82  1  0  0  0
 74 84  1  0  0  0
 75 85  1  0  0  0
 76 90  1  0  0  0
 77 79  2  0  0  0
 77 80  1  0  0  0
 77152  1  0  0  0
 78 80  2  0  0  0
 78 84  1  0  0  0
 78153  1  0  0  0
 79 81  1  0  0  0
 79 83  1  0  0  0
 80 89  1  0  0  0
 81 84  1  0  0  0
 81 87  2  0  0  0
 82 86  1  0  0  0
 82 88  2  0  0  0
 83154  1  0  0  0
 83155  1  0  0  0
 85156  1  0  0  0
 85157  1  0  0  0
 86158  1  0  0  0
 89159  1  0  0  0
M  ISO  4   1 100  68 101  83 101  86 100
M  END
> <chiral flag>
0

> <version>
0

> <s_m_source_file>
/data/baiqing/PycharmProjects/Reinvent-master-3.2/result/LINK_invent/BTK/process_docking_weight1_custom_product_contain_oxygen_bond_distance_aromatic_linkinvent_7_9_3/rearranged_h_0089.sdf

> <i_m_source_file_index>
78

> <r_mmod_Potential_Energy-OPLS-2005>
210.665237426758

> <r_mmod_Stretch_Energy-OPLS-2005>
52.401180267334

> <r_mmod_Bend_Energy-OPLS-2005>
130.2919921875

> <r_mmod_Torsional_Energy-OPLS-2005>
384.587493896484

> <r_mmod_Improper_Torsional_Energy-OPLS-2005>
16.2482872009277

> <r_mmod_Van_der_Waal_Energy-OPLS-2005>
176.572692871094

> <r_mmod_Electrostatic_Energy-OPLS-2005>
-336.754180908203

> <r_mmod_Solvation_Energy-OPLS-2005>
-227.495590209961

> <b_mmod_Minimization_Converged-OPLS-2005>
0

> <r_mmod_RMS_Derivative-OPLS-2005>
1.07058894634247

$$$$
78
                    3D
 Structure written by MMmdl.
154162  0  0  1  0            999 V2000
  -30.7568  -14.4463   20.4275 C   0  0  0  0  0  0
  -30.3881  -12.2577   19.4478 C   0  0  0  0  0  0
  -29.4871  -12.4618   18.2147 C   0  0  0  0  0  0
  -28.0086  -12.3455   18.6253 C   0  0  0  0  0  0
  -27.6509  -13.2193   19.8589 C   0  0  2  0  0  0
  -28.6965  -13.0833   20.9908 C   0  0  0  0  0  0
  -25.2545  -13.8191   20.5690 C   0  0  0  0  0  0
  -24.1814  -13.0454   20.9201 C   0  0  0  0  0  0
  -24.6389  -11.6928   20.8754 C   0  0  0  0  0  0
  -23.9064  -10.4302   21.0407 C   0  0  0  0  0  0
  -24.3621   -9.4213   21.9180 C   0  0  0  0  0  0
  -23.6300   -8.2243   22.0749 C   0  0  0  0  0  0
  -22.4278   -8.0282   21.3544 C   0  0  0  0  0  0
  -21.9914   -9.0252   20.4644 C   0  0  0  0  0  0
  -22.7240  -10.2136   20.3054 C   0  0  0  0  0  0
  -21.6857   -6.0735   22.5275 C   0  0  0  0  0  0
  -21.4013   -6.5640   23.8210 C   0  0  0  0  0  0
  -21.3659   -5.6797   24.9173 C   0  0  0  0  0  0
  -21.6045   -4.3056   24.7227 C   0  0  0  0  0  0
  -21.8818   -3.8147   23.4349 C   0  0  0  0  0  0
  -21.9194   -4.6962   22.3403 C   0  0  0  0  0  0
  -22.7836  -13.5238   21.1868 C   0  0  0  0  0  0
  -22.1663   -4.2148   21.0982 F   0  0  0  0  0  0
  -21.5629   -3.4541   25.7739 F   0  0  0  0  0  0
  -30.0282  -13.3023   20.4165 N   0  0  0  0  0  0
  -26.2981  -12.9388   20.3333 N   0  0  0  0  0  0
  -25.9318  -11.6537   20.5779 N   0  0  0  0  0  0
  -22.0485  -12.8216   22.0418 N   0  0  0  0  0  0
  -25.4261  -15.1907   20.4080 N   0  0  0  0  0  0
  -31.9704  -14.4331   20.2104 O   0  0  0  0  0  0
  -21.6647   -6.8875   21.4237 O   0  0  0  0  0  0
  -22.3523  -14.5550   20.6722 O   0  0  0  0  0  0
  -24.6128  -31.8693   23.2136 C   0  0  0  0  0  0
  -25.9033  -32.4832   23.8417 C   0  0  1  0  0  0
  -27.2226  -27.4631   20.0917 C   0  0  0  0  0  0
  -25.5914  -33.8631   24.2354 N   0  0  0  0  0  0
  -23.3976  -30.4960   21.5542 C   0  0  2  0  0  0
  -24.8393  -28.9676   20.1137 C   0  0  0  0  0  0
  -22.7392  -29.4670   22.5014 C   0  0  0  0  0  0
  -18.0269  -28.1374   22.8497 C   0  0  0  0  0  0
  -24.1487  -36.7317   23.2641 C   0  0  0  0  0  0
  -25.9225  -30.8484   21.3559 C   0  0  0  0  0  0
  -25.9991  -29.4859   20.7020 C   0  0  0  0  0  0
  -27.1978  -28.7423   20.6832 C   0  0  0  0  0  0
  -26.0470  -26.9519   19.4982 C   0  0  0  0  0  0
  -24.8558  -27.7001   19.5073 C   0  0  0  0  0  0
  -23.6008  -29.8303   20.1674 C   0  0  0  0  0  0
  -25.4107  -36.3114   24.0344 C   0  0  1  0  0  0
  -20.5852  -28.3652   23.1332 C   0  0  2  0  0  0
  -20.6754  -26.9396   22.5410 C   0  0  0  0  0  0
  -19.5731  -26.6382   21.5208 C   0  0  0  0  0  0
  -18.1916  -26.7923   22.1620 C   0  0  0  0  0  0
  -19.1516  -28.8830   23.2912 C   0  0  0  0  0  0
  -18.9443  -30.1438   23.8916 C   0  0  0  0  0  0
  -17.6447  -30.6585   24.0564 C   0  0  0  0  0  0
  -25.9026  -34.9480   23.5134 C   0  0  0  0  0  0
  -16.5340  -29.9082   23.6335 C   0  0  0  0  0  0
  -16.7258  -28.6498   23.0359 C   0  0  0  0  0  0
  -26.4477  -31.6609   25.0732 C   0  0  0  0  0  0
  -25.3767  -31.3677   26.1500 C   0  0  0  0  0  0
  -27.0310  -30.3076   24.6053 C   0  0  0  0  0  0
  -27.6068  -32.4318   25.7480 C   0  0  0  0  0  0
  -27.5580  -37.1815   24.8469 C   0  0  0  0  0  0
  -21.4123  -29.3033   22.3753 N   0  0  0  0  0  0
  -26.4294  -37.3800   23.9417 N   0  0  0  0  0  0
  -24.6636  -31.0837   22.1013 N   0  0  0  0  0  0
  -23.4180  -28.8203   23.3034 O   0  0  0  0  0  0
  -28.3841  -26.7328   20.1087 O   0  0  0  0  0  0
  -26.5568  -34.8927   22.4679 O   0  0  0  0  0  0
  -23.5329  -32.1414   23.7567 O   0  0  0  0  0  0
  -28.6910  -18.4151   20.1120 C   0  0  0  0  0  0
  -28.3466  -19.7870   20.1735 C   0  0  0  0  0  0
  -31.0495  -19.0339   20.0025 C   0  0  0  0  0  0
  -30.0467  -18.0414   19.9806 C   0  0  0  0  0  0
  -29.3596  -20.7776   20.1157 C   0  0  0  0  0  0
  -30.7142  -20.3918   20.0801 C   0  0  0  0  0  0
  -30.4814  -16.6525   19.6298 C   0  0  0  0  0  0
  -28.2900  -24.3402   19.5673 C   0  0  0  0  0  0
  -28.0158  -22.8961   20.0341 C   0  0  0  0  0  0
  -28.2387  -25.4156   20.6569 C   0  0  0  0  0  0
  -31.7260  -21.3552   20.0671 N   0  0  0  0  0  0
  -29.1331  -22.1659   19.9594 N   0  0  0  0  0  0
  -30.0631  -15.6019   20.3727 N   0  0  0  0  0  0
  -31.2486  -16.5549   18.6616 O   0  0  0  0  0  0
  -28.5704  -24.6073   18.3908 O   0  0  0  0  0  0
  -26.9104  -22.5072   20.4265 O   0  0  0  0  0  0
  -31.4395  -12.2819   19.1544 H   0  0  0  0  0  0
  -30.2247  -11.2718   19.8856 H   0  0  0  0  0  0
  -29.7207  -11.7167   17.4534 H   0  0  0  0  0  0
  -29.6761  -13.4363   17.7608 H   0  0  0  0  0  0
  -27.8178  -11.2954   18.8485 H   0  0  0  0  0  0
  -27.3615  -12.5975   17.7845 H   0  0  0  0  0  0
  -27.6717  -14.2535   19.5163 H   0  0  0  0  0  0
  -28.6525  -12.0911   21.4416 H   0  0  0  0  0  0
  -28.4932  -13.7946   21.7925 H   0  0  0  0  0  0
  -25.2763   -9.5692   22.4761 H   0  0  0  0  0  0
  -24.0013   -7.4633   22.7467 H   0  0  0  0  0  0
  -21.0845   -8.8771   19.8949 H   0  0  0  0  0  0
  -22.3693  -10.9678   19.6168 H   0  0  0  0  0  0
  -21.2001   -7.6149   23.9713 H   0  0  0  0  0  0
  -21.1484   -6.0526   25.9079 H   0  0  0  0  0  0
  -22.0597   -2.7610   23.2847 H   0  0  0  0  0  0
  -22.4122  -11.9881   22.4796 H   0  0  0  0  0  0
  -21.1102  -13.1223   22.2641 H   0  0  0  0  0  0
  -24.6569  -15.8442   20.5080 H   0  0  0  0  0  0
  -26.2717  -15.6247   20.0629 H   0  0  0  0  0  0
  -26.7118  -32.5549   23.1197 H   0  0  0  0  0  0
  -25.0119  -33.9802   25.0537 H   0  0  0  0  0  0
  -22.6856  -31.3126   21.4194 H   0  0  0  0  0  0
  -23.3739  -35.9660   23.3303 H   0  0  0  0  0  0
  -24.3585  -36.8913   22.2053 H   0  0  0  0  0  0
  -23.7243  -37.6530   23.6644 H   0  0  0  0  0  0
  -26.0247  -31.6140   20.5858 H   0  0  0  0  0  0
  -26.8149  -30.9030   21.9674 H   0  0  0  0  0  0
  -28.0965  -29.1378   21.1358 H   0  0  0  0  0  0
  -26.0417  -25.9807   19.0259 H   0  0  0  0  0  0
  -23.9616  -27.2993   19.0499 H   0  0  0  0  0  0
  -23.7048  -30.6050   19.4068 H   0  0  0  0  0  0
  -22.7252  -29.2466   19.8762 H   0  0  0  0  0  0
  -25.1276  -36.1973   25.0837 H   0  0  0  0  0  0
  -20.9940  -28.3196   24.1451 H   0  0  0  0  0  0
  -20.5656  -26.2254   23.3584 H   0  0  0  0  0  0
  -21.6632  -26.7440   22.1206 H   0  0  0  0  0  0
  -19.6890  -25.6294   21.1227 H   0  0  0  0  0  0
  -19.6681  -27.3197   20.6743 H   0  0  0  0  0  0
  -17.4192  -26.6682   21.4020 H   0  0  0  0  0  0
  -18.0317  -26.0053   22.8999 H   0  0  0  0  0  0
  -19.7920  -30.7245   24.2298 H   0  0  0  0  0  0
  -17.5006  -31.6273   24.5148 H   0  0  0  0  0  0
  -15.5344  -30.2989   23.7654 H   0  0  0  0  0  0
  -15.8656  -28.0819   22.7076 H   0  0  0  0  0  0
  -24.5952  -30.7014   25.7836 H   0  0  0  0  0  0
  -24.8958  -32.2815   26.4997 H   0  0  0  0  0  0
  -25.8152  -30.8820   27.0226 H   0  0  0  0  0  0
  -26.2824  -29.6825   24.1181 H   0  0  0  0  0  0
  -27.4185  -29.7336   25.4475 H   0  0  0  0  0  0
  -27.8610  -30.4418   23.9113 H   0  0  0  0  0  0
  -27.2705  -33.3606   26.2096 H   0  0  0  0  0  0
  -28.3864  -32.6888   25.0297 H   0  0  0  0  0  0
  -28.0762  -31.8413   26.5355 H   0  0  0  0  0  0
  -28.2609  -38.0102   24.7523 H   0  0  0  0  0  0
  -28.1057  -36.2639   24.6278 H   0  0  0  0  0  0
  -27.2300  -37.1452   25.8870 H   0  0  0  0  0  0
  -20.9265  -29.8761   21.6994 H   0  0  0  0  0  0
  -26.0173  -38.2871   24.1421 H   0  0  0  0  0  0
  -27.9100  -17.6682   20.0746 H   0  0  0  0  0  0
  -27.3014  -20.0575   20.1927 H   0  0  0  0  0  0
  -32.0860  -18.7446   19.8936 H   0  0  0  0  0  0
  -29.0535  -25.2379   21.3589 H   0  0  0  0  0  0
  -27.3135  -25.3152   21.2268 H   0  0  0  0  0  0
  -32.6746  -21.0093   20.1748 H   0  0  0  0  0  0
  -31.5772  -22.1565   20.6709 H   0  0  0  0  0  0
  -29.9572  -22.6682   19.6543 H   0  0  0  0  0  0
  -29.2080  -15.6849   20.8952 H   0  0  0  0  0  0
  1 25  1  0  0  0
  1 30  2  0  0  0
  1 83  1  0  0  0
  2  3  1  0  0  0
  2 25  1  0  0  0
  2 87  1  0  0  0
  2 88  1  0  0  0
  3  4  1  0  0  0
  3 89  1  0  0  0
  3 90  1  0  0  0
  4  5  1  0  0  0
  4 91  1  0  0  0
  4 92  1  0  0  0
  5  6  1  0  0  0
  5 26  1  0  0  0
  5 93  1  0  0  0
  6 25  1  0  0  0
  6 94  1  0  0  0
  6 95  1  0  0  0
  7  8  2  0  0  0
  7 26  1  0  0  0
  7 29  1  0  0  0
  8  9  1  0  0  0
  8 22  1  0  0  0
  9 10  1  0  0  0
  9 27  2  0  0  0
 10 11  2  0  0  0
 10 15  1  0  0  0
 11 12  1  0  0  0
 11 96  1  0  0  0
 12 13  2  0  0  0
 12 97  1  0  0  0
 13 14  1  0  0  0
 13 31  1  0  0  0
 14 15  2  0  0  0
 14 98  1  0  0  0
 15 99  1  0  0  0
 16 17  2  0  0  0
 16 21  1  0  0  0
 16 31  1  0  0  0
 17 18  1  0  0  0
 17100  1  0  0  0
 18 19  2  0  0  0
 18101  1  0  0  0
 19 20  1  0  0  0
 19 24  1  0  0  0
 20 21  2  0  0  0
 20102  1  0  0  0
 21 23  1  0  0  0
 22 28  1  0  0  0
 22 32  2  0  0  0
 26 27  1  0  0  0
 28103  1  0  0  0
 28104  1  0  0  0
 29105  1  0  0  0
 29106  1  0  0  0
 33 34  1  0  0  0
 33 66  1  0  0  0
 33 70  2  0  0  0
 34 36  1  0  0  0
 34 59  1  0  0  0
 34107  1  0  0  0
 35 44  2  0  0  0
 35 45  1  0  0  0
 35 68  1  0  0  0
 36 56  1  0  0  0
 36108  1  0  0  0
 37 39  1  0  0  0
 37 47  1  0  0  0
 37 66  1  0  0  0
 37109  1  0  0  0
 38 43  2  0  0  0
 38 46  1  0  0  0
 38 47  1  0  0  0
 39 64  1  0  0  0
 39 67  2  0  0  0
 40 52  1  0  0  0
 40 53  2  0  0  0
 40 58  1  0  0  0
 41110  1  0  0  0
 41111  1  0  0  0
 41112  1  0  0  0
 41 48  1  0  0  0
 42 43  1  0  0  0
 42 66  1  0  0  0
 42113  1  0  0  0
 42114  1  0  0  0
 43 44  1  0  0  0
 44115  1  0  0  0
 45 46  2  0  0  0
 45116  1  0  0  0
 46117  1  0  0  0
 47118  1  0  0  0
 47119  1  0  0  0
 48 56  1  0  0  0
 48 65  1  0  0  0
 48120  1  0  0  0
 49 50  1  0  0  0
 49 53  1  0  0  0
 49 64  1  0  0  0
 49121  1  0  0  0
 50 51  1  0  0  0
 50122  1  0  0  0
 50123  1  0  0  0
 51 52  1  0  0  0
 51124  1  0  0  0
 51125  1  0  0  0
 52126  1  0  0  0
 52127  1  0  0  0
 53 54  1  0  0  0
 54 55  2  0  0  0
 54128  1  0  0  0
 55 57  1  0  0  0
 55129  1  0  0  0
 56 69  2  0  0  0
 57 58  2  0  0  0
 57130  1  0  0  0
 58131  1  0  0  0
 59 60  1  0  0  0
 59 61  1  0  0  0
 59 62  1  0  0  0
 60132  1  0  0  0
 60133  1  0  0  0
 60134  1  0  0  0
 61135  1  0  0  0
 61136  1  0  0  0
 61137  1  0  0  0
 62138  1  0  0  0
 62139  1  0  0  0
 62140  1  0  0  0
 63 65  1  0  0  0
 63141  1  0  0  0
 63142  1  0  0  0
 63143  1  0  0  0
 64144  1  0  0  0
 65145  1  0  0  0
 68 80  1  0  0  0
 71 72  2  0  0  0
 71 74  1  0  0  0
 71146  1  0  0  0
 72 75  1  0  0  0
 72147  1  0  0  0
 73 74  2  0  0  0
 73 76  1  0  0  0
 73148  1  0  0  0
 74 77  1  0  0  0
 75 76  2  0  0  0
 75 82  1  0  0  0
 76 81  1  0  0  0
 77 83  1  0  0  0
 77 84  2  0  0  0
 78 79  1  0  0  0
 78 80  1  0  0  0
 78 85  2  0  0  0
 79 82  1  0  0  0
 79 86  2  0  0  0
 80149  1  0  0  0
 80150  1  0  0  0
 81151  1  0  0  0
 81152  1  0  0  0
 82153  1  0  0  0
 83154  1  0  0  0
M  ISO  4   1 100  68 101  80 101  83 100
M  END
> <chiral flag>
0

> <version>
0

> <s_m_source_file>
/data/baiqing/PycharmProjects/Reinvent-master-3.2/result/LINK_invent/BTK/process_docking_weight1_custom_product_contain_oxygen_bond_distance_aromatic_linkinvent_7_9_3/rearranged_h_0089.sdf

> <i_m_source_file_index>
79

> <r_mmod_Potential_Energy-OPLS-2005>
-113.080001831055

> <r_mmod_Stretch_Energy-OPLS-2005>
32.8401794433594

> <r_mmod_Bend_Energy-OPLS-2005>
108.319076538086

> <r_mmod_Torsional_Energy-OPLS-2005>
309.858612060547

> <r_mmod_Improper_Torsional_Energy-OPLS-2005>
14.2726488113403

> <r_mmod_Van_der_Waal_Energy-OPLS-2005>
170.271148681641

> <r_mmod_Electrostatic_Energy-OPLS-2005>
-511.136474609375

> <r_mmod_Solvation_Energy-OPLS-2005>
-266.957946777344

> <b_mmod_Minimization_Converged-OPLS-2005>
0

> <r_mmod_RMS_Derivative-OPLS-2005>
1.33593249320984

$$$$
79
                    3D
 Structure written by MMmdl.
157166  0  0  1  0            999 V2000
  -30.6685  -14.5831   20.4779 C   0  0  0  0  0  0
  -30.4162  -12.3436   19.4704 C   0  0  0  0  0  0
  -29.5038  -12.4954   18.2338 C   0  0  0  0  0  0
  -28.0245  -12.3537   18.6379 C   0  0  0  0  0  0
  -27.6544  -13.2212   19.8711 C   0  0  2  0  0  0
  -28.6948  -13.0791   21.0074 C   0  0  0  0  0  0
  -25.2553  -13.8190   20.5696 C   0  0  0  0  0  0
  -24.1820  -13.0450   20.9183 C   0  0  0  0  0  0
  -24.6392  -11.6921   20.8739 C   0  0  0  0  0  0
  -23.9064  -10.4300   21.0404 C   0  0  0  0  0  0
  -24.3614   -9.4214   21.9184 C   0  0  0  0  0  0
  -23.6292   -8.2247   22.0755 C   0  0  0  0  0  0
  -22.4276   -8.0282   21.3543 C   0  0  0  0  0  0
  -21.9909   -9.0255   20.4643 C   0  0  0  0  0  0
  -22.7235  -10.2137   20.3054 C   0  0  0  0  0  0
  -21.6856   -6.0733   22.5276 C   0  0  0  0  0  0
  -21.4016   -6.5637   23.8207 C   0  0  0  0  0  0
  -21.3660   -5.6792   24.9170 C   0  0  0  0  0  0
  -21.6046   -4.3055   24.7222 C   0  0  0  0  0  0
  -21.8820   -3.8145   23.4344 C   0  0  0  0  0  0
  -21.9193   -4.6960   22.3400 C   0  0  0  0  0  0
  -22.7842  -13.5236   21.1845 C   0  0  0  0  0  0
  -22.1663   -4.2147   21.0980 F   0  0  0  0  0  0
  -21.5628   -3.4540   25.7736 F   0  0  0  0  0  0
  -30.0214  -13.3772   20.4498 N   0  0  0  0  0  0
  -26.2990  -12.9382   20.3358 N   0  0  0  0  0  0
  -25.9327  -11.6529   20.5778 N   0  0  0  0  0  0
  -22.0492  -12.8222   22.0401 N   0  0  0  0  0  0
  -25.4279  -15.1911   20.4107 N   0  0  0  0  0  0
  -31.8183  -14.6838   20.0395 O   0  0  0  0  0  0
  -21.6644   -6.8877   21.4240 O   0  0  0  0  0  0
  -22.3526  -14.5547   20.6705 O   0  0  0  0  0  0
  -24.6198  -31.8616   23.2048 C   0  0  0  0  0  0
  -25.9064  -32.4786   23.8357 C   0  0  1  0  0  0
  -27.2275  -27.3624   20.1066 C   0  0  0  0  0  0
  -25.5903  -33.8588   24.2286 N   0  0  0  0  0  0
  -23.4111  -30.4842   21.5461 C   0  0  2  0  0  0
  -24.8573  -28.9435   20.1061 C   0  0  0  0  0  0
  -22.7439  -29.4622   22.4954 C   0  0  0  0  0  0
  -18.0273  -28.1376   22.8483 C   0  0  0  0  0  0
  -24.1487  -36.7294   23.2641 C   0  0  0  0  0  0
  -25.9464  -30.8043   21.3694 C   0  0  0  0  0  0
  -26.0194  -29.4350   20.7120 C   0  0  0  0  0  0
  -27.2023  -28.6509   20.7096 C   0  0  0  0  0  0
  -26.0478  -26.9117   19.4720 C   0  0  0  0  0  0
  -24.8705  -27.6851   19.4815 C   0  0  0  0  0  0
  -23.6218  -29.8167   20.1601 C   0  0  0  0  0  0
  -25.4114  -36.3089   24.0331 C   0  0  1  0  0  0
  -20.5870  -28.3666   23.1305 C   0  0  2  0  0  0
  -20.6763  -26.9395   22.5421 C   0  0  0  0  0  0
  -19.5744  -26.6380   21.5214 C   0  0  0  0  0  0
  -18.1919  -26.7922   22.1619 C   0  0  0  0  0  0
  -19.1524  -28.8838   23.2889 C   0  0  0  0  0  0
  -18.9455  -30.1447   23.8896 C   0  0  0  0  0  0
  -17.6457  -30.6583   24.0567 C   0  0  0  0  0  0
  -25.9045  -34.9454   23.5108 C   0  0  0  0  0  0
  -16.5346  -29.9084   23.6335 C   0  0  0  0  0  0
  -16.7263  -28.6503   23.0348 C   0  0  0  0  0  0
  -26.4477  -31.6592   25.0710 C   0  0  0  0  0  0
  -25.3731  -31.3722   26.1455 C   0  0  0  0  0  0
  -27.0319  -30.3028   24.6128 C   0  0  0  0  0  0
  -27.6032  -32.4339   25.7477 C   0  0  0  0  0  0
  -27.5579  -37.1801   24.8467 C   0  0  0  0  0  0
  -21.4158  -29.3022   22.3706 N   0  0  0  0  0  0
  -26.4296  -37.3781   23.9405 N   0  0  0  0  0  0
  -24.6776  -31.0662   22.0976 N   0  0  0  0  0  0
  -23.4188  -28.8159   23.3011 O   0  0  0  0  0  0
  -28.3802  -26.5830   20.1947 O   0  0  0  0  0  0
  -26.5618  -34.8916   22.4678 O   0  0  0  0  0  0
  -23.5378  -32.1401   23.7408 O   0  0  0  0  0  0
  -29.6146  -19.0742   23.6146 C   0  0  0  0  0  0
  -29.8868  -17.9963   22.7563 C   0  0  0  0  0  0
  -29.1074  -20.2801   23.1027 C   0  0  0  0  0  0
  -29.1657  -19.3554   20.8507 C   0  0  0  0  0  0
  -29.6780  -18.1101   21.3653 C   0  0  0  0  0  0
  -28.8504  -20.4541   21.7205 C   0  0  0  0  0  0
  -26.8774  -24.1718   21.3089 C   0  0  0  0  0  0
  -26.9733  -21.9040   22.0448 C   0  0  0  0  0  0
  -27.9957  -24.0378   20.5632 C   0  0  0  0  0  0
  -26.3282  -23.0769   22.0666 C   0  0  0  0  0  0
  -28.7209  -22.7155   20.5721 C   0  0  0  0  0  0
  -30.1532  -16.9681   20.4718 C   0  0  0  0  0  0
  -28.4771  -25.2183   19.6646 C   0  0  0  0  0  0
  -28.1770  -21.6954   21.3399 N   0  0  0  0  0  0
  -29.9549  -15.6765   20.8768 N   0  0  0  0  0  0
  -29.7558  -22.5282   19.9223 O   0  0  0  0  0  0
  -30.6960  -17.2688   19.4025 O   0  0  0  0  0  0
  -25.1977  -23.2182   22.7666 O   0  0  0  0  0  0
  -31.4651  -12.4155   19.1775 H   0  0  0  0  0  0
  -30.3033  -11.3502   19.9079 H   0  0  0  0  0  0
  -29.7575  -11.7460   17.4829 H   0  0  0  0  0  0
  -29.6688  -13.4669   17.7651 H   0  0  0  0  0  0
  -27.8444  -11.3010   18.8591 H   0  0  0  0  0  0
  -27.3771  -12.6010   17.7960 H   0  0  0  0  0  0
  -27.6767  -14.2578   19.5345 H   0  0  0  0  0  0
  -28.6816  -12.0677   21.4159 H   0  0  0  0  0  0
  -28.4506  -13.7400   21.8403 H   0  0  0  0  0  0
  -25.2760   -9.5692   22.4757 H   0  0  0  0  0  0
  -24.0001   -7.4642   22.7476 H   0  0  0  0  0  0
  -21.0841   -8.8772   19.8950 H   0  0  0  0  0  0
  -22.3694  -10.9673   19.6163 H   0  0  0  0  0  0
  -21.2010   -7.6147   23.9710 H   0  0  0  0  0  0
  -21.1481   -6.0524   25.9073 H   0  0  0  0  0  0
  -22.0599   -2.7608   23.2847 H   0  0  0  0  0  0
  -22.4111  -11.9871   22.4766 H   0  0  0  0  0  0
  -21.1114  -13.1246   22.2628 H   0  0  0  0  0  0
  -24.6632  -15.8485   20.5186 H   0  0  0  0  0  0
  -26.2805  -15.6277   20.0841 H   0  0  0  0  0  0
  -26.7114  -32.5469   23.1094 H   0  0  0  0  0  0
  -25.0050  -33.9737   25.0429 H   0  0  0  0  0  0
  -22.7036  -31.3038   21.4044 H   0  0  0  0  0  0
  -23.3751  -35.9626   23.3319 H   0  0  0  0  0  0
  -24.3578  -36.8906   22.2053 H   0  0  0  0  0  0
  -23.7239  -37.6500   23.6655 H   0  0  0  0  0  0
  -26.0732  -31.5696   20.6028 H   0  0  0  0  0  0
  -26.8290  -30.8524   21.9954 H   0  0  0  0  0  0
  -28.0945  -29.0204   21.1960 H   0  0  0  0  0  0
  -26.0038  -25.9457   18.9927 H   0  0  0  0  0  0
  -23.9781  -27.3018   19.0067 H   0  0  0  0  0  0
  -23.7324  -30.5927   19.4017 H   0  0  0  0  0  0
  -22.7442  -29.2398   19.8628 H   0  0  0  0  0  0
  -25.1296  -36.1946   25.0826 H   0  0  0  0  0  0
  -20.9955  -28.3230   24.1429 H   0  0  0  0  0  0
  -20.5671  -26.2262   23.3607 H   0  0  0  0  0  0
  -21.6630  -26.7439   22.1208 H   0  0  0  0  0  0
  -19.6914  -25.6295   21.1233 H   0  0  0  0  0  0
  -19.6694  -27.3197   20.6750 H   0  0  0  0  0  0
  -17.4196  -26.6670   21.4017 H   0  0  0  0  0  0
  -18.0316  -26.0067   22.9015 H   0  0  0  0  0  0
  -19.7937  -30.7263   24.2257 H   0  0  0  0  0  0
  -17.5016  -31.6263   24.5167 H   0  0  0  0  0  0
  -15.5348  -30.2988   23.7664 H   0  0  0  0  0  0
  -15.8659  -28.0832   22.7056 H   0  0  0  0  0  0
  -24.5896  -30.7074   25.7803 H   0  0  0  0  0  0
  -24.8929  -32.2884   26.4902 H   0  0  0  0  0  0
  -25.8075  -30.8899   27.0217 H   0  0  0  0  0  0
  -26.2872  -29.6784   24.1175 H   0  0  0  0  0  0
  -27.4069  -29.7278   25.4606 H   0  0  0  0  0  0
  -27.8716  -30.4348   23.9299 H   0  0  0  0  0  0
  -27.2631  -33.3636   26.2053 H   0  0  0  0  0  0
  -28.3838  -32.6915   25.0306 H   0  0  0  0  0  0
  -28.0699  -31.8472   26.5401 H   0  0  0  0  0  0
  -28.2604  -38.0091   24.7516 H   0  0  0  0  0  0
  -28.1067  -36.2623   24.6297 H   0  0  0  0  0  0
  -27.2292  -37.1460   25.8869 H   0  0  0  0  0  0
  -20.9321  -29.8756   21.6940 H   0  0  0  0  0  0
  -26.0182  -38.2858   24.1414 H   0  0  0  0  0  0
  -29.7967  -18.9773   24.6762 H   0  0  0  0  0  0
  -30.3015  -17.0886   23.1735 H   0  0  0  0  0  0
  -28.8901  -21.0803   23.7974 H   0  0  0  0  0  0
  -28.9997  -19.4556   19.7870 H   0  0  0  0  0  0
  -26.3503  -25.1120   21.3140 H   0  0  0  0  0  0
  -26.6097  -21.0363   22.5778 H   0  0  0  0  0  0
  -28.0094  -25.1412   18.6832 H   0  0  0  0  0  0
  -29.5398  -25.0729   19.4710 H   0  0  0  0  0  0
  -29.2045  -15.5212   21.5282 H   0  0  0  0  0  0
  -24.8945  -24.1115   22.6573 H   0  0  0  0  0  0
  1 25  1  0  0  0
  1 30  2  0  0  0
  1 85  1  0  0  0
  2  3  1  0  0  0
  2 25  1  0  0  0
  2 89  1  0  0  0
  2 90  1  0  0  0
  3  4  1  0  0  0
  3 91  1  0  0  0
  3 92  1  0  0  0
  4  5  1  0  0  0
  4 93  1  0  0  0
  4 94  1  0  0  0
  5  6  1  0  0  0
  5 26  1  0  0  0
  5 95  1  0  0  0
  6 25  1  0  0  0
  6 96  1  0  0  0
  6 97  1  0  0  0
  7  8  2  0  0  0
  7 26  1  0  0  0
  7 29  1  0  0  0
  8  9  1  0  0  0
  8 22  1  0  0  0
  9 10  1  0  0  0
  9 27  2  0  0  0
 10 11  2  0  0  0
 10 15  1  0  0  0
 11 12  1  0  0  0
 11 98  1  0  0  0
 12 13  2  0  0  0
 12 99  1  0  0  0
 13 14  1  0  0  0
 13 31  1  0  0  0
 14 15  2  0  0  0
 14100  1  0  0  0
 15101  1  0  0  0
 16 17  2  0  0  0
 16 21  1  0  0  0
 16 31  1  0  0  0
 17 18  1  0  0  0
 17102  1  0  0  0
 18 19  2  0  0  0
 18103  1  0  0  0
 19 20  1  0  0  0
 19 24  1  0  0  0
 20 21  2  0  0  0
 20104  1  0  0  0
 21 23  1  0  0  0
 22 28  1  0  0  0
 22 32  2  0  0  0
 26 27  1  0  0  0
 28105  1  0  0  0
 28106  1  0  0  0
 29107  1  0  0  0
 29108  1  0  0  0
 33 34  1  0  0  0
 33 66  1  0  0  0
 33 70  2  0  0  0
 34 36  1  0  0  0
 34 59  1  0  0  0
 34109  1  0  0  0
 35 44  2  0  0  0
 35 45  1  0  0  0
 35 68  1  0  0  0
 36 56  1  0  0  0
 36110  1  0  0  0
 37 39  1  0  0  0
 37 47  1  0  0  0
 37 66  1  0  0  0
 37111  1  0  0  0
 38 43  2  0  0  0
 38 46  1  0  0  0
 38 47  1  0  0  0
 39 64  1  0  0  0
 39 67  2  0  0  0
 40 52  1  0  0  0
 40 53  2  0  0  0
 40 58  1  0  0  0
 41112  1  0  0  0
 41113  1  0  0  0
 41114  1  0  0  0
 41 48  1  0  0  0
 42 43  1  0  0  0
 42 66  1  0  0  0
 42115  1  0  0  0
 42116  1  0  0  0
 43 44  1  0  0  0
 44117  1  0  0  0
 45 46  2  0  0  0
 45118  1  0  0  0
 46119  1  0  0  0
 47120  1  0  0  0
 47121  1  0  0  0
 48 56  1  0  0  0
 48 65  1  0  0  0
 48122  1  0  0  0
 49 50  1  0  0  0
 49 53  1  0  0  0
 49 64  1  0  0  0
 49123  1  0  0  0
 50 51  1  0  0  0
 50124  1  0  0  0
 50125  1  0  0  0
 51 52  1  0  0  0
 51126  1  0  0  0
 51127  1  0  0  0
 52128  1  0  0  0
 52129  1  0  0  0
 53 54  1  0  0  0
 54 55  2  0  0  0
 54130  1  0  0  0
 55 57  1  0  0  0
 55131  1  0  0  0
 56 69  2  0  0  0
 57 58  2  0  0  0
 57132  1  0  0  0
 58133  1  0  0  0
 59 60  1  0  0  0
 59 61  1  0  0  0
 59 62  1  0  0  0
 60134  1  0  0  0
 60135  1  0  0  0
 60136  1  0  0  0
 61137  1  0  0  0
 61138  1  0  0  0
 61139  1  0  0  0
 62140  1  0  0  0
 62141  1  0  0  0
 62142  1  0  0  0
 63 65  1  0  0  0
 63143  1  0  0  0
 63144  1  0  0  0
 63145  1  0  0  0
 64146  1  0  0  0
 65147  1  0  0  0
 68 83  1  0  0  0
 71 72  2  0  0  0
 71 73  1  0  0  0
 71148  1  0  0  0
 72 75  1  0  0  0
 72149  1  0  0  0
 73 76  2  0  0  0
 73150  1  0  0  0
 74 75  2  0  0  0
 74 76  1  0  0  0
 74151  1  0  0  0
 75 82  1  0  0  0
 76 84  1  0  0  0
 77 79  2  0  0  0
 77 80  1  0  0  0
 77152  1  0  0  0
 78 80  2  0  0  0
 78 84  1  0  0  0
 78153  1  0  0  0
 79 81  1  0  0  0
 79 83  1  0  0  0
 80 88  1  0  0  0
 81 84  1  0  0  0
 81 86  2  0  0  0
 82 85  1  0  0  0
 82 87  2  0  0  0
 83154  1  0  0  0
 83155  1  0  0  0
 85156  1  0  0  0
 88157  1  0  0  0
M  ISO  4   1 100  68 101  83 101  85 100
M  END
> <chiral flag>
0

> <version>
0

> <s_m_source_file>
/data/baiqing/PycharmProjects/Reinvent-master-3.2/result/LINK_invent/BTK/process_docking_weight1_custom_product_contain_oxygen_bond_distance_aromatic_linkinvent_7_9_3/rearranged_h_0089.sdf

> <i_m_source_file_index>
80

> <r_mmod_Potential_Energy-OPLS-2005>
47.1568870544434

> <r_mmod_Stretch_Energy-OPLS-2005>
74.520881652832

> <r_mmod_Bend_Energy-OPLS-2005>
135.460433959961

> <r_mmod_Torsional_Energy-OPLS-2005>
279.342468261719

> <r_mmod_Improper_Torsional_Energy-OPLS-2005>
4.68193483352661

> <r_mmod_Van_der_Waal_Energy-OPLS-2005>
176.96549987793

> <r_mmod_Electrostatic_Energy-OPLS-2005>
-412.140899658203

> <r_mmod_Solvation_Energy-OPLS-2005>
-245.156448364258

> <b_mmod_Minimization_Converged-OPLS-2005>
0

> <r_mmod_RMS_Derivative-OPLS-2005>
0.849058151245117

$$$$
80
                    3D
 Structure written by MMmdl.
151159  0  0  1  0            999 V2000
  -30.6689  -14.5349   20.5259 C   0  0  0  0  0  0
  -30.4284  -12.3294   19.4411 C   0  0  0  0  0  0
  -29.5016  -12.4969   18.2171 C   0  0  0  0  0  0
  -28.0230  -12.3503   18.6286 C   0  0  0  0  0  0
  -27.6589  -13.2084   19.8698 C   0  0  2  0  0  0
  -28.7008  -13.0187   20.9958 C   0  0  0  0  0  0
  -25.2592  -13.8160   20.5698 C   0  0  0  0  0  0
  -24.1842  -13.0437   20.9186 C   0  0  0  0  0  0
  -24.6398  -11.6903   20.8743 C   0  0  0  0  0  0
  -23.9073  -10.4290   21.0417 C   0  0  0  0  0  0
  -24.3619   -9.4198   21.9194 C   0  0  0  0  0  0
  -23.6281   -8.2239   22.0759 C   0  0  0  0  0  0
  -22.4262   -8.0291   21.3550 C   0  0  0  0  0  0
  -21.9910   -9.0272   20.4650 C   0  0  0  0  0  0
  -22.7253  -10.2140   20.3058 C   0  0  0  0  0  0
  -21.6846   -6.0750   22.5289 C   0  0  0  0  0  0
  -21.4010   -6.5655   23.8226 C   0  0  0  0  0  0
  -21.3650   -5.6802   24.9190 C   0  0  0  0  0  0
  -21.6037   -4.3064   24.7233 C   0  0  0  0  0  0
  -21.8815   -3.8158   23.4353 C   0  0  0  0  0  0
  -21.9187   -4.6978   22.3410 C   0  0  0  0  0  0
  -22.7867  -13.5241   21.1844 C   0  0  0  0  0  0
  -22.1654   -4.2166   21.0985 F   0  0  0  0  0  0
  -21.5625   -3.4540   25.7741 F   0  0  0  0  0  0
  -30.0280  -13.3328   20.4420 N   0  0  0  0  0  0
  -26.3015  -12.9328   20.3344 N   0  0  0  0  0  0
  -25.9324  -11.6492   20.5762 N   0  0  0  0  0  0
  -22.0487  -12.8245   22.0390 N   0  0  0  0  0  0
  -25.4348  -15.1880   20.4165 N   0  0  0  0  0  0
  -31.8199  -14.6855   20.1085 O   0  0  0  0  0  0
  -21.6623   -6.8892   21.4249 O   0  0  0  0  0  0
  -22.3565  -14.5559   20.6703 O   0  0  0  0  0  0
  -24.6196  -31.8644   23.2067 C   0  0  0  0  0  0
  -25.9078  -32.4797   23.8376 C   0  0  1  0  0  0
  -27.2334  -27.4043   20.1034 C   0  0  0  0  0  0
  -25.5926  -33.8595   24.2316 N   0  0  0  0  0  0
  -23.4104  -30.4877   21.5466 C   0  0  2  0  0  0
  -24.8598  -28.9498   20.1099 C   0  0  0  0  0  0
  -22.7444  -29.4645   22.4961 C   0  0  0  0  0  0
  -18.0270  -28.1382   22.8483 C   0  0  0  0  0  0
  -24.1489  -36.7302   23.2637 C   0  0  0  0  0  0
  -25.9425  -30.8215   21.3639 C   0  0  0  0  0  0
  -26.0221  -29.4538   20.7103 C   0  0  0  0  0  0
  -27.2158  -28.6881   20.7060 C   0  0  0  0  0  0
  -26.0585  -26.9256   19.4903 C   0  0  0  0  0  0
  -24.8739  -27.6860   19.4951 C   0  0  0  0  0  0
  -23.6217  -29.8191   20.1612 C   0  0  0  0  0  0
  -25.4105  -36.3095   24.0343 C   0  0  1  0  0  0
  -20.5870  -28.3673   23.1305 C   0  0  2  0  0  0
  -20.6760  -26.9403   22.5417 C   0  0  0  0  0  0
  -19.5736  -26.6385   21.5216 C   0  0  0  0  0  0
  -18.1914  -26.7920   22.1622 C   0  0  0  0  0  0
  -19.1523  -28.8842   23.2889 C   0  0  0  0  0  0
  -18.9451  -30.1452   23.8892 C   0  0  0  0  0  0
  -17.6453  -30.6585   24.0563 C   0  0  0  0  0  0
  -25.9046  -34.9467   23.5125 C   0  0  0  0  0  0
  -16.5340  -29.9086   23.6333 C   0  0  0  0  0  0
  -16.7261  -28.6511   23.0335 C   0  0  0  0  0  0
  -26.4487  -31.6570   25.0712 C   0  0  0  0  0  0
  -25.3762  -31.3694   26.1478 C   0  0  0  0  0  0
  -27.0295  -30.2999   24.6094 C   0  0  0  0  0  0
  -27.6074  -32.4275   25.7464 C   0  0  0  0  0  0
  -27.5584  -37.1793   24.8457 C   0  0  0  0  0  0
  -21.4165  -29.3036   22.3707 N   0  0  0  0  0  0
  -26.4275  -37.3797   23.9437 N   0  0  0  0  0  0
  -24.6760  -31.0723   22.0975 N   0  0  0  0  0  0
  -23.4202  -28.8185   23.3015 O   0  0  0  0  0  0
  -28.3283  -26.5623   20.1520 O   0  0  0  0  0  0
  -26.5607  -34.8926   22.4685 O   0  0  0  0  0  0
  -23.5383  -32.1406   23.7445 O   0  0  0  0  0  0
  -31.0743  -18.9923   19.7286 C   0  0  0  0  0  0
  -28.8673  -19.2010   20.6882 C   0  0  0  0  0  0
  -31.1021  -17.6147   20.0547 C   0  0  0  0  0  0
  -28.8927  -17.8172   21.0144 C   0  0  0  0  0  0
  -29.9567  -19.8125   20.0205 C   0  0  0  0  0  0
  -29.9951  -16.9880   20.6819 C   0  0  0  0  0  0
  -28.5811  -24.2691   21.0933 C   0  0  0  0  0  0
  -28.2349  -25.5868   21.1319 C   0  0  0  0  0  0
  -29.9159  -21.2453   19.4966 C   0  0  0  0  0  0
  -29.1644  -23.5324   19.9708 C   0  0  0  0  0  0
  -29.9087  -15.5711   20.9663 N   0  0  0  0  0  0
  -29.3317  -22.2081   20.2543 N   0  0  0  0  0  0
  -30.4657  -21.4678   18.4110 O   0  0  0  0  0  0
  -29.4673  -24.0608   18.8949 O   0  0  0  0  0  0
  -31.4735  -12.4289   19.1435 H   0  0  0  0  0  0
  -30.3348  -11.3262   19.8598 H   0  0  0  0  0  0
  -29.7505  -11.7586   17.4536 H   0  0  0  0  0  0
  -29.6612  -13.4749   17.7604 H   0  0  0  0  0  0
  -27.8487  -11.2966   18.8474 H   0  0  0  0  0  0
  -27.3698  -12.5968   17.7912 H   0  0  0  0  0  0
  -27.6931  -14.2508   19.5521 H   0  0  0  0  0  0
  -28.6855  -11.9877   21.3526 H   0  0  0  0  0  0
  -28.4569  -13.6326   21.8640 H   0  0  0  0  0  0
  -25.2770   -9.5661   22.4770 H   0  0  0  0  0  0
  -23.9984   -7.4625   22.7480 H   0  0  0  0  0  0
  -21.0840   -8.8807   19.8954 H   0  0  0  0  0  0
  -22.3734  -10.9684   19.6158 H   0  0  0  0  0  0
  -21.1999   -7.6163   23.9739 H   0  0  0  0  0  0
  -21.1475   -6.0532   25.9095 H   0  0  0  0  0  0
  -22.0597   -2.7622   23.2851 H   0  0  0  0  0  0
  -22.4066  -11.9885   22.4761 H   0  0  0  0  0  0
  -21.1114  -13.1301   22.2598 H   0  0  0  0  0  0
  -24.6752  -15.8480   20.5400 H   0  0  0  0  0  0
  -26.2931  -15.6258   20.1058 H   0  0  0  0  0  0
  -26.7151  -32.5496   23.1140 H   0  0  0  0  0  0
  -25.0105  -33.9736   25.0482 H   0  0  0  0  0  0
  -22.7014  -31.3065   21.4047 H   0  0  0  0  0  0
  -23.3766  -35.9612   23.3243 H   0  0  0  0  0  0
  -24.3618  -36.8973   22.2064 H   0  0  0  0  0  0
  -23.7206  -37.6479   23.6681 H   0  0  0  0  0  0
  -26.0596  -31.5847   20.5935 H   0  0  0  0  0  0
  -26.8301  -30.8756   21.9821 H   0  0  0  0  0  0
  -28.1085  -29.0617   21.1885 H   0  0  0  0  0  0
  -26.0588  -25.9468   19.0313 H   0  0  0  0  0  0
  -23.9810  -27.2890   19.0319 H   0  0  0  0  0  0
  -23.7324  -30.5942   19.4020 H   0  0  0  0  0  0
  -22.7452  -29.2408   19.8629 H   0  0  0  0  0  0
  -25.1270  -36.1944   25.0830 H   0  0  0  0  0  0
  -20.9956  -28.3229   24.1429 H   0  0  0  0  0  0
  -20.5661  -26.2278   23.3607 H   0  0  0  0  0  0
  -21.6626  -26.7437   22.1207 H   0  0  0  0  0  0
  -19.6898  -25.6304   21.1223 H   0  0  0  0  0  0
  -19.6673  -27.3213   20.6761 H   0  0  0  0  0  0
  -17.4190  -26.6676   21.4015 H   0  0  0  0  0  0
  -18.0304  -26.0058   22.9011 H   0  0  0  0  0  0
  -19.7939  -30.7264   24.2241 H   0  0  0  0  0  0
  -17.5022  -31.6261   24.5168 H   0  0  0  0  0  0
  -15.5347  -30.2990   23.7671 H   0  0  0  0  0  0
  -15.8655  -28.0851   22.7024 H   0  0  0  0  0  0
  -24.5904  -30.7066   25.7838 H   0  0  0  0  0  0
  -24.8991  -32.2852   26.4972 H   0  0  0  0  0  0
  -25.8131  -30.8833   27.0209 H   0  0  0  0  0  0
  -26.2821  -29.6764   24.1170 H   0  0  0  0  0  0
  -27.4077  -29.7235   25.4549 H   0  0  0  0  0  0
  -27.8665  -30.4298   23.9231 H   0  0  0  0  0  0
  -27.2721  -33.3599   26.2014 H   0  0  0  0  0  0
  -28.3900  -32.6779   25.0289 H   0  0  0  0  0  0
  -28.0710  -31.8397   26.5395 H   0  0  0  0  0  0
  -28.2562  -38.0132   24.7574 H   0  0  0  0  0  0
  -28.1119  -36.2672   24.6172 H   0  0  0  0  0  0
  -27.2329  -37.1306   25.8864 H   0  0  0  0  0  0
  -20.9326  -29.8792   21.6954 H   0  0  0  0  0  0
  -26.0154  -38.2863   24.1476 H   0  0  0  0  0  0
  -31.9247  -19.4172   19.2132 H   0  0  0  0  0  0
  -27.9814  -19.7769   20.9163 H   0  0  0  0  0  0
  -31.9854  -17.0576   19.7815 H   0  0  0  0  0  0
  -28.0268  -17.3877   21.4996 H   0  0  0  0  0  0
  -28.3957  -23.7183   22.0040 H   0  0  0  0  0  0
  -27.8091  -25.9957   22.0388 H   0  0  0  0  0  0
  -29.0314  -15.2718   21.3632 H   0  0  0  0  0  0
  -29.0002  -21.8979   21.1530 H   0  0  0  0  0  0
  1 25  1  0  0  0
  1 30  2  0  0  0
  1 81  1  0  0  0
  2  3  1  0  0  0
  2 25  1  0  0  0
  2 85  1  0  0  0
  2 86  1  0  0  0
  3  4  1  0  0  0
  3 87  1  0  0  0
  3 88  1  0  0  0
  4  5  1  0  0  0
  4 89  1  0  0  0
  4 90  1  0  0  0
  5  6  1  0  0  0
  5 26  1  0  0  0
  5 91  1  0  0  0
  6 25  1  0  0  0
  6 92  1  0  0  0
  6 93  1  0  0  0
  7  8  2  0  0  0
  7 26  1  0  0  0
  7 29  1  0  0  0
  8  9  1  0  0  0
  8 22  1  0  0  0
  9 10  1  0  0  0
  9 27  2  0  0  0
 10 11  2  0  0  0
 10 15  1  0  0  0
 11 12  1  0  0  0
 11 94  1  0  0  0
 12 13  2  0  0  0
 12 95  1  0  0  0
 13 14  1  0  0  0
 13 31  1  0  0  0
 14 15  2  0  0  0
 14 96  1  0  0  0
 15 97  1  0  0  0
 16 17  2  0  0  0
 16 21  1  0  0  0
 16 31  1  0  0  0
 17 18  1  0  0  0
 17 98  1  0  0  0
 18 19  2  0  0  0
 18 99  1  0  0  0
 19 20  1  0  0  0
 19 24  1  0  0  0
 20 21  2  0  0  0
 20100  1  0  0  0
 21 23  1  0  0  0
 22 28  1  0  0  0
 22 32  2  0  0  0
 26 27  1  0  0  0
 28101  1  0  0  0
 28102  1  0  0  0
 29103  1  0  0  0
 29104  1  0  0  0
 33 34  1  0  0  0
 33 66  1  0  0  0
 33 70  2  0  0  0
 34 36  1  0  0  0
 34 59  1  0  0  0
 34105  1  0  0  0
 35 44  2  0  0  0
 35 45  1  0  0  0
 35 68  1  0  0  0
 36 56  1  0  0  0
 36106  1  0  0  0
 37 39  1  0  0  0
 37 47  1  0  0  0
 37 66  1  0  0  0
 37107  1  0  0  0
 38 43  2  0  0  0
 38 46  1  0  0  0
 38 47  1  0  0  0
 39 64  1  0  0  0
 39 67  2  0  0  0
 40 52  1  0  0  0
 40 53  2  0  0  0
 40 58  1  0  0  0
 41108  1  0  0  0
 41109  1  0  0  0
 41110  1  0  0  0
 41 48  1  0  0  0
 42 43  1  0  0  0
 42 66  1  0  0  0
 42111  1  0  0  0
 42112  1  0  0  0
 43 44  1  0  0  0
 44113  1  0  0  0
 45 46  2  0  0  0
 45114  1  0  0  0
 46115  1  0  0  0
 47116  1  0  0  0
 47117  1  0  0  0
 48 56  1  0  0  0
 48 65  1  0  0  0
 48118  1  0  0  0
 49 50  1  0  0  0
 49 53  1  0  0  0
 49 64  1  0  0  0
 49119  1  0  0  0
 50 51  1  0  0  0
 50120  1  0  0  0
 50121  1  0  0  0
 51 52  1  0  0  0
 51122  1  0  0  0
 51123  1  0  0  0
 52124  1  0  0  0
 52125  1  0  0  0
 53 54  1  0  0  0
 54 55  2  0  0  0
 54126  1  0  0  0
 55 57  1  0  0  0
 55127  1  0  0  0
 56 69  2  0  0  0
 57 58  2  0  0  0
 57128  1  0  0  0
 58129  1  0  0  0
 59 60  1  0  0  0
 59 61  1  0  0  0
 59 62  1  0  0  0
 60130  1  0  0  0
 60131  1  0  0  0
 60132  1  0  0  0
 61133  1  0  0  0
 61134  1  0  0  0
 61135  1  0  0  0
 62136  1  0  0  0
 62137  1  0  0  0
 62138  1  0  0  0
 63 65  1  0  0  0
 63139  1  0  0  0
 63140  1  0  0  0
 63141  1  0  0  0
 64142  1  0  0  0
 65143  1  0  0  0
 68 78  1  0  0  0
 71 73  2  0  0  0
 71 75  1  0  0  0
 71144  1  0  0  0
 72 74  1  0  0  0
 72 75  2  0  0  0
 72145  1  0  0  0
 73 76  1  0  0  0
 73146  1  0  0  0
 74 76  2  0  0  0
 74147  1  0  0  0
 75 79  1  0  0  0
 76 81  1  0  0  0
 77 78  2  0  0  0
 77 80  1  0  0  0
 77148  1  0  0  0
 78149  1  0  0  0
 79 82  1  0  0  0
 79 83  2  0  0  0
 80 82  1  0  0  0
 80 84  2  0  0  0
 81150  1  0  0  0
 82151  1  0  0  0
M  ISO  4   1 100  68 101  78 101  81 100
M  END
> <chiral flag>
0

> <version>
0

> <s_m_source_file>
/data/baiqing/PycharmProjects/Reinvent-master-3.2/result/LINK_invent/BTK/process_docking_weight1_custom_product_contain_oxygen_bond_distance_aromatic_linkinvent_7_9_3/rearranged_h_0089.sdf

> <i_m_source_file_index>
81

> <r_mmod_Potential_Energy-OPLS-2005>
-126.637298583984

> <r_mmod_Stretch_Energy-OPLS-2005>
47.7020263671875

> <r_mmod_Bend_Energy-OPLS-2005>
122.66480255127

> <r_mmod_Torsional_Energy-OPLS-2005>
235.770004272461

> <r_mmod_Improper_Torsional_Energy-OPLS-2005>
4.65158271789551

> <r_mmod_Van_der_Waal_Energy-OPLS-2005>
154.391845703125

> <r_mmod_Electrostatic_Energy-OPLS-2005>
-436.145172119141

> <r_mmod_Solvation_Energy-OPLS-2005>
-279.576538085938

> <b_mmod_Minimization_Converged-OPLS-2005>
0

> <r_mmod_RMS_Derivative-OPLS-2005>
1.27324020862579

$$$$
81
                    3D
 Structure written by MMmdl.
163172  0  0  1  0            999 V2000
  -30.6006  -14.8490   20.4226 C   0  0  0  0  0  0
  -30.4344  -12.5231   19.4781 C   0  0  0  0  0  0
  -29.5135  -12.5109   18.2384 C   0  0  0  0  0  0
  -28.0448  -12.3232   18.6601 C   0  0  0  0  0  0
  -27.6340  -13.2452   19.8377 C   0  0  2  0  0  0
  -28.6820  -13.2484   20.9714 C   0  0  0  0  0  0
  -25.2475  -13.8216   20.5716 C   0  0  0  0  0  0
  -24.1793  -13.0432   20.9228 C   0  0  0  0  0  0
  -24.6415  -11.6914   20.8762 C   0  0  0  0  0  0
  -23.9090  -10.4283   21.0419 C   0  0  0  0  0  0
  -24.3627   -9.4193   21.9192 C   0  0  0  0  0  0
  -23.6288   -8.2245   22.0764 C   0  0  0  0  0  0
  -22.4274   -8.0288   21.3549 C   0  0  0  0  0  0
  -21.9916   -9.0269   20.4660 C   0  0  0  0  0  0
  -22.7265  -10.2135   20.3067 C   0  0  0  0  0  0
  -21.6847   -6.0736   22.5277 C   0  0  0  0  0  0
  -21.4018   -6.5639   23.8210 C   0  0  0  0  0  0
  -21.3659   -5.6795   24.9169 C   0  0  0  0  0  0
  -21.6038   -4.3060   24.7220 C   0  0  0  0  0  0
  -21.8821   -3.8144   23.4345 C   0  0  0  0  0  0
  -21.9188   -4.6962   22.3395 C   0  0  0  0  0  0
  -22.7809  -13.5203   21.1857 C   0  0  0  0  0  0
  -22.1654   -4.2145   21.0972 F   0  0  0  0  0  0
  -21.5624   -3.4536   25.7730 F   0  0  0  0  0  0
  -29.9664  -13.6190   20.3674 N   0  0  0  0  0  0
  -26.2909  -12.9451   20.3259 N   0  0  0  0  0  0
  -25.9343  -11.6572   20.5742 N   0  0  0  0  0  0
  -22.0443  -12.8212   22.0430 N   0  0  0  0  0  0
  -25.4115  -15.1948   20.4121 N   0  0  0  0  0  0
  -31.8067  -14.8770   20.1612 O   0  0  0  0  0  0
  -21.6635   -6.8891   21.4248 O   0  0  0  0  0  0
  -22.3495  -14.5493   20.6690 O   0  0  0  0  0  0
  -24.6392  -31.8525   23.1979 C   0  0  0  0  0  0
  -25.9196  -32.4745   23.8334 C   0  0  1  0  0  0
  -27.2096  -27.2055   20.1118 C   0  0  0  0  0  0
  -25.5977  -33.8548   24.2264 N   0  0  0  0  0  0
  -23.4377  -30.4821   21.5432 C   0  0  2  0  0  0
  -24.8807  -28.9273   20.1099 C   0  0  0  0  0  0
  -22.7539  -29.4600   22.4866 C   0  0  0  0  0  0
  -18.0301  -28.1415   22.8474 C   0  0  0  0  0  0
  -24.1481  -36.7269   23.2639 C   0  0  0  0  0  0
  -25.9928  -30.7481   21.3872 C   0  0  0  0  0  0
  -26.0619  -29.3688   20.7191 C   0  0  0  0  0  0
  -27.2291  -28.5224   20.7093 C   0  0  0  0  0  0
  -25.9851  -26.8427   19.4990 C   0  0  0  0  0  0
  -24.8508  -27.6729   19.4901 C   0  0  0  0  0  0
  -23.6609  -29.8315   20.1561 C   0  0  0  0  0  0
  -25.4109  -36.3051   24.0323 C   0  0  1  0  0  0
  -20.5908  -28.3736   23.1246 C   0  0  2  0  0  0
  -20.6791  -26.9449   22.5405 C   0  0  0  0  0  0
  -19.5766  -26.6406   21.5211 C   0  0  0  0  0  0
  -18.1941  -26.7960   22.1612 C   0  0  0  0  0  0
  -19.1554  -28.8887   23.2860 C   0  0  0  0  0  0
  -18.9471  -30.1477   23.8900 C   0  0  0  0  0  0
  -17.6469  -30.6611   24.0570 C   0  0  0  0  0  0
  -25.9069  -34.9426   23.5091 C   0  0  0  0  0  0
  -16.5358  -29.9121   23.6323 C   0  0  0  0  0  0
  -16.7283  -28.6536   23.0348 C   0  0  0  0  0  0
  -26.4542  -31.6589   25.0748 C   0  0  0  0  0  0
  -25.3774  -31.3750   26.1480 C   0  0  0  0  0  0
  -27.0414  -30.2999   24.6289 C   0  0  0  0  0  0
  -27.6072  -32.4345   25.7546 C   0  0  0  0  0  0
  -27.5564  -37.1796   24.8466 C   0  0  0  0  0  0
  -21.4236  -29.3066   22.3623 N   0  0  0  0  0  0
  -26.4271  -37.3759   23.9421 N   0  0  0  0  0  0
  -24.7102  -31.0446   22.0992 N   0  0  0  0  0  0
  -23.4206  -28.8122   23.2971 O   0  0  0  0  0  0
  -28.2574  -26.2281   20.1761 O   0  0  0  0  0  0
  -26.5610  -34.8895   22.4643 O   0  0  0  0  0  0
  -23.5523  -32.1356   23.7239 O   0  0  0  0  0  0
  -29.3880  -18.6843   20.2921 C   0  0  0  0  0  0
  -31.6027  -17.8389   20.7669 C   0  0  0  0  0  0
  -31.2567  -20.2630   20.3764 C   0  0  0  0  0  0
  -30.2523  -17.5083   20.5149 C   0  0  0  0  0  0
  -29.8459  -20.0894   20.2578 C   0  0  0  0  0  0
  -32.0939  -19.1555   20.6797 C   0  0  0  0  0  0
  -34.2396  -22.9681   19.1241 C   0  0  0  0  0  0
  -28.4601  -23.6656   19.4112 C   0  0  0  0  0  0
  -28.1904  -25.0490   19.3563 C   0  0  0  0  0  0
  -29.0204  -22.6393   20.3725 C   0  0  0  0  0  0
  -32.9909  -22.8383   18.2537 C   0  0  0  0  0  0
  -34.1868  -22.3138   20.5067 C   0  0  0  0  0  0
  -32.2133  -21.5615   18.6111 C   0  0  0  0  0  0
  -32.7385  -22.1325   21.0139 C   0  0  0  0  0  0
  -31.8523  -21.4968   20.0309 N   0  0  0  0  0  0
  -28.9983  -21.3002   19.9293 N   0  0  0  0  0  0
  -29.8492  -16.0425   20.5221 N   0  0  0  0  0  0
  -35.2470  -23.5578   18.7213 O   0  0  0  0  0  0
  -29.4399  -22.9288   21.4942 O   0  0  0  0  0  0
  -33.4296  -19.3368   20.8287 F   0  0  0  0  0  0
  -31.4731  -12.6524   19.1662 H   0  0  0  0  0  0
  -30.3978  -11.5646   19.9981 H   0  0  0  0  0  0
  -29.8115  -11.7128   17.5568 H   0  0  0  0  0  0
  -29.6271  -13.4435   17.6835 H   0  0  0  0  0  0
  -27.9242  -11.2801   18.9518 H   0  0  0  0  0  0
  -27.3817  -12.4762   17.8087 H   0  0  0  0  0  0
  -27.6047  -14.2527   19.4219 H   0  0  0  0  0  0
  -28.7462  -12.2714   21.4518 H   0  0  0  0  0  0
  -28.4035  -13.9591   21.7519 H   0  0  0  0  0  0
  -25.2774   -9.5637   22.4762 H   0  0  0  0  0  0
  -23.9972   -7.4632   22.7480 H   0  0  0  0  0  0
  -21.0847   -8.8802   19.8967 H   0  0  0  0  0  0
  -22.3739  -10.9671   19.6172 H   0  0  0  0  0  0
  -21.2026   -7.6145   23.9709 H   0  0  0  0  0  0
  -21.1476   -6.0523   25.9072 H   0  0  0  0  0  0
  -22.0601   -2.7604   23.2841 H   0  0  0  0  0  0
  -22.4051  -11.9887   22.4842 H   0  0  0  0  0  0
  -21.1064  -13.1250   22.2610 H   0  0  0  0  0  0
  -24.6379  -15.8401   20.5253 H   0  0  0  0  0  0
  -26.2445  -15.6383   20.0500 H   0  0  0  0  0  0
  -26.7274  -32.5374   23.1070 H   0  0  0  0  0  0
  -25.0169  -33.9699   25.0439 H   0  0  0  0  0  0
  -22.7372  -31.3085   21.4032 H   0  0  0  0  0  0
  -23.3745  -35.9604   23.3302 H   0  0  0  0  0  0
  -24.3560  -36.8890   22.2053 H   0  0  0  0  0  0
  -23.7237  -37.6466   23.6675 H   0  0  0  0  0  0
  -26.1408  -31.5158   20.6254 H   0  0  0  0  0  0
  -26.8667  -30.7917   22.0250 H   0  0  0  0  0  0
  -28.1322  -28.8556   21.2011 H   0  0  0  0  0  0
  -25.8486  -25.8728   19.0472 H   0  0  0  0  0  0
  -23.9441  -27.3248   19.0157 H   0  0  0  0  0  0
  -23.8061  -30.6230   19.4181 H   0  0  0  0  0  0
  -22.7709  -29.2919   19.8281 H   0  0  0  0  0  0
  -25.1292  -36.1877   25.0814 H   0  0  0  0  0  0
  -20.9986  -28.3332   24.1371 H   0  0  0  0  0  0
  -20.5687  -26.2355   23.3620 H   0  0  0  0  0  0
  -21.6668  -26.7483   22.1207 H   0  0  0  0  0  0
  -19.6940  -25.6310   21.1269 H   0  0  0  0  0  0
  -19.6711  -27.3197   20.6729 H   0  0  0  0  0  0
  -17.4210  -26.6687   21.4019 H   0  0  0  0  0  0
  -18.0345  -26.0118   22.9021 H   0  0  0  0  0  0
  -19.7947  -30.7294   24.2271 H   0  0  0  0  0  0
  -17.5032  -31.6288   24.5187 H   0  0  0  0  0  0
  -15.5362  -30.3031   23.7673 H   0  0  0  0  0  0
  -15.8670  -28.0875   22.7062 H   0  0  0  0  0  0
  -24.5941  -30.7094   25.7845 H   0  0  0  0  0  0
  -24.8977  -32.2926   26.4909 H   0  0  0  0  0  0
  -25.8108  -30.8944   27.0267 H   0  0  0  0  0  0
  -26.3034  -29.6726   24.1280 H   0  0  0  0  0  0
  -27.4046  -29.7270   25.4837 H   0  0  0  0  0  0
  -27.8931  -30.4259   23.9596 H   0  0  0  0  0  0
  -27.2673  -33.3653   26.2103 H   0  0  0  0  0  0
  -28.3928  -32.6905   25.0426 H   0  0  0  0  0  0
  -28.0719  -31.8495   26.5493 H   0  0  0  0  0  0
  -28.2581  -38.0087   24.7500 H   0  0  0  0  0  0
  -28.1053  -36.2618   24.6311 H   0  0  0  0  0  0
  -27.2286  -37.1476   25.8866 H   0  0  0  0  0  0
  -20.9413  -29.8793   21.6834 H   0  0  0  0  0  0
  -26.0133  -38.2819   24.1440 H   0  0  0  0  0  0
  -28.3380  -18.5083   20.1110 H   0  0  0  0  0  0
  -32.3268  -17.0729   20.9946 H   0  0  0  0  0  0
  -28.2056  -23.2035   18.4686 H   0  0  0  0  0  0
  -27.8230  -25.3621   18.3890 H   0  0  0  0  0  0
  -33.2800  -22.8185   17.2030 H   0  0  0  0  0  0
  -32.3678  -23.7205   18.3967 H   0  0  0  0  0  0
  -34.7587  -22.9155   21.2122 H   0  0  0  0  0  0
  -34.6866  -21.3498   20.4373 H   0  0  0  0  0  0
  -32.8188  -20.6910   18.3502 H   0  0  0  0  0  0
  -31.3134  -21.4981   17.9987 H   0  0  0  0  0  0
  -32.3238  -23.1137   21.2532 H   0  0  0  0  0  0
  -32.7386  -21.5775   21.9523 H   0  0  0  0  0  0
  -28.3798  -21.1576   19.1446 H   0  0  0  0  0  0
  -28.8539  -15.8819   20.5557 H   0  0  0  0  0  0
  1 25  1  0  0  0
  1 30  2  0  0  0
  1 87  1  0  0  0
  2  3  1  0  0  0
  2 25  1  0  0  0
  2 91  1  0  0  0
  2 92  1  0  0  0
  3  4  1  0  0  0
  3 93  1  0  0  0
  3 94  1  0  0  0
  4  5  1  0  0  0
  4 95  1  0  0  0
  4 96  1  0  0  0
  5  6  1  0  0  0
  5 26  1  0  0  0
  5 97  1  0  0  0
  6 25  1  0  0  0
  6 98  1  0  0  0
  6 99  1  0  0  0
  7  8  2  0  0  0
  7 26  1  0  0  0
  7 29  1  0  0  0
  8  9  1  0  0  0
  8 22  1  0  0  0
  9 10  1  0  0  0
  9 27  2  0  0  0
 10 11  2  0  0  0
 10 15  1  0  0  0
 11 12  1  0  0  0
 11100  1  0  0  0
 12 13  2  0  0  0
 12101  1  0  0  0
 13 14  1  0  0  0
 13 31  1  0  0  0
 14 15  2  0  0  0
 14102  1  0  0  0
 15103  1  0  0  0
 16 17  2  0  0  0
 16 21  1  0  0  0
 16 31  1  0  0  0
 17 18  1  0  0  0
 17104  1  0  0  0
 18 19  2  0  0  0
 18105  1  0  0  0
 19 20  1  0  0  0
 19 24  1  0  0  0
 20 21  2  0  0  0
 20106  1  0  0  0
 21 23  1  0  0  0
 22 28  1  0  0  0
 22 32  2  0  0  0
 26 27  1  0  0  0
 28107  1  0  0  0
 28108  1  0  0  0
 29109  1  0  0  0
 29110  1  0  0  0
 33 34  1  0  0  0
 33 66  1  0  0  0
 33 70  2  0  0  0
 34 36  1  0  0  0
 34 59  1  0  0  0
 34111  1  0  0  0
 35 44  2  0  0  0
 35 45  1  0  0  0
 35 68  1  0  0  0
 36 56  1  0  0  0
 36112  1  0  0  0
 37 39  1  0  0  0
 37 47  1  0  0  0
 37 66  1  0  0  0
 37113  1  0  0  0
 38 43  2  0  0  0
 38 46  1  0  0  0
 38 47  1  0  0  0
 39 64  1  0  0  0
 39 67  2  0  0  0
 40 52  1  0  0  0
 40 53  2  0  0  0
 40 58  1  0  0  0
 41114  1  0  0  0
 41115  1  0  0  0
 41116  1  0  0  0
 41 48  1  0  0  0
 42 43  1  0  0  0
 42 66  1  0  0  0
 42117  1  0  0  0
 42118  1  0  0  0
 43 44  1  0  0  0
 44119  1  0  0  0
 45 46  2  0  0  0
 45120  1  0  0  0
 46121  1  0  0  0
 47122  1  0  0  0
 47123  1  0  0  0
 48 56  1  0  0  0
 48 65  1  0  0  0
 48124  1  0  0  0
 49 50  1  0  0  0
 49 53  1  0  0  0
 49 64  1  0  0  0
 49125  1  0  0  0
 50 51  1  0  0  0
 50126  1  0  0  0
 50127  1  0  0  0
 51 52  1  0  0  0
 51128  1  0  0  0
 51129  1  0  0  0
 52130  1  0  0  0
 52131  1  0  0  0
 53 54  1  0  0  0
 54 55  2  0  0  0
 54132  1  0  0  0
 55 57  1  0  0  0
 55133  1  0  0  0
 56 69  2  0  0  0
 57 58  2  0  0  0
 57134  1  0  0  0
 58135  1  0  0  0
 59 60  1  0  0  0
 59 61  1  0  0  0
 59 62  1  0  0  0
 60136  1  0  0  0
 60137  1  0  0  0
 60138  1  0  0  0
 61139  1  0  0  0
 61140  1  0  0  0
 61141  1  0  0  0
 62142  1  0  0  0
 62143  1  0  0  0
 62144  1  0  0  0
 63 65  1  0  0  0
 63145  1  0  0  0
 63146  1  0  0  0
 63147  1  0  0  0
 64148  1  0  0  0
 65149  1  0  0  0
 68 79  1  0  0  0
 71 74  2  0  0  0
 71 75  1  0  0  0
 71150  1  0  0  0
 72 74  1  0  0  0
 72 76  2  0  0  0
 72151  1  0  0  0
 73 75  2  0  0  0
 73 76  1  0  0  0
 73 85  1  0  0  0
 74 87  1  0  0  0
 75 86  1  0  0  0
 76 90  1  0  0  0
 77 81  1  0  0  0
 77 82  1  0  0  0
 77 88  2  0  0  0
 78 79  2  0  0  0
 78 80  1  0  0  0
 78152  1  0  0  0
 79153  1  0  0  0
 80 86  1  0  0  0
 80 89  2  0  0  0
 81 83  1  0  0  0
 81154  1  0  0  0
 81155  1  0  0  0
 82 84  1  0  0  0
 82156  1  0  0  0
 82157  1  0  0  0
 83 85  1  0  0  0
 83158  1  0  0  0
 83159  1  0  0  0
 84 85  1  0  0  0
 84160  1  0  0  0
 84161  1  0  0  0
 86162  1  0  0  0
 87163  1  0  0  0
M  ISO  4   1 100  68 101  79 101  87 100
M  END
> <chiral flag>
0

> <version>
0

> <s_m_source_file>
/data/baiqing/PycharmProjects/Reinvent-master-3.2/result/LINK_invent/BTK/process_docking_weight1_custom_product_contain_oxygen_bond_distance_aromatic_linkinvent_7_9_3/rearranged_h_0089.sdf

> <i_m_source_file_index>
82

> <r_mmod_Potential_Energy-OPLS-2005>
349.328582763672

> <r_mmod_Stretch_Energy-OPLS-2005>
175.636276245117

> <r_mmod_Bend_Energy-OPLS-2005>
254.738479614258

> <r_mmod_Torsional_Energy-OPLS-2005>
270.525268554688

> <r_mmod_Improper_Torsional_Energy-OPLS-2005>
10.784740447998

> <r_mmod_Van_der_Waal_Energy-OPLS-2005>
161.927978515625

> <r_mmod_Electrostatic_Energy-OPLS-2005>
-391.650177001953

> <r_mmod_Solvation_Energy-OPLS-2005>
-269.529235839844

> <b_mmod_Minimization_Converged-OPLS-2005>
0

> <r_mmod_RMS_Derivative-OPLS-2005>
2.57987332344055

$$$$
82
                    3D
 Structure written by MMmdl.
148156  0  0  1  0            999 V2000
  -30.2730  -15.7067   20.2898 C   0  0  0  0  0  0
  -30.4335  -13.1303   19.5111 C   0  0  0  0  0  0
  -29.5559  -12.6519   18.3166 C   0  0  0  0  0  0
  -28.1389  -12.2707   18.7795 C   0  0  0  0  0  0
  -27.5915  -13.2869   19.8033 C   0  0  2  0  0  0
  -28.6156  -13.6735   20.9007 C   0  0  0  0  0  0
  -25.2293  -13.8151   20.5853 C   0  0  0  0  0  0
  -24.1684  -13.0320   20.9327 C   0  0  0  0  0  0
  -24.6402  -11.6848   20.8795 C   0  0  0  0  0  0
  -23.9109  -10.4221   21.0420 C   0  0  0  0  0  0
  -24.3638   -9.4131   21.9201 C   0  0  0  0  0  0
  -23.6284   -8.2184   22.0759 C   0  0  0  0  0  0
  -22.4260   -8.0254   21.3556 C   0  0  0  0  0  0
  -21.9923   -9.0237   20.4658 C   0  0  0  0  0  0
  -22.7281  -10.2095   20.3067 C   0  0  0  0  0  0
  -21.6834   -6.0718   22.5281 C   0  0  0  0  0  0
  -21.3995   -6.5623   23.8215 C   0  0  0  0  0  0
  -21.3661   -5.6778   24.9182 C   0  0  0  0  0  0
  -21.6049   -4.3047   24.7231 C   0  0  0  0  0  0
  -21.8816   -3.8134   23.4355 C   0  0  0  0  0  0
  -21.9181   -4.6947   22.3406 C   0  0  0  0  0  0
  -22.7700  -13.5081   21.1937 C   0  0  0  0  0  0
  -22.1654   -4.2138   21.0985 F   0  0  0  0  0  0
  -21.5642   -3.4532   25.7751 F   0  0  0  0  0  0
  -29.7722  -14.3180   20.2207 N   0  0  0  0  0  0
  -26.2763  -12.9479   20.3275 N   0  0  0  0  0  0
  -25.9346  -11.6575   20.5725 N   0  0  0  0  0  0
  -22.0338  -12.8099   22.0487 N   0  0  0  0  0  0
  -25.3712  -15.1895   20.4327 N   0  0  0  0  0  0
  -31.5239  -15.6253   20.2858 O   0  0  0  0  0  0
  -21.6606   -6.8866   21.4249 O   0  0  0  0  0  0
  -22.3407  -14.5387   20.6761 O   0  0  0  0  0  0
  -24.6851  -31.7974   23.1513 C   0  0  0  0  0  0
  -25.9423  -32.4454   23.8069 C   0  0  1  0  0  0
  -27.2315  -26.6831   20.2135 C   0  0  0  0  0  0
  -25.5988  -33.8284   24.1942 N   0  0  0  0  0  0
  -23.5127  -30.3981   21.5049 C   0  0  2  0  0  0
  -24.9706  -28.7323   20.1194 C   0  0  0  0  0  0
  -22.7769  -29.4298   22.4707 C   0  0  0  0  0  0
  -18.0337  -28.1420   22.8455 C   0  0  0  0  0  0
  -24.1491  -36.7152   23.2652 C   0  0  0  0  0  0
  -26.0931  -30.5194   21.4239 C   0  0  0  0  0  0
  -26.1559  -29.0813   20.7769 C   0  0  0  0  0  0
  -27.2646  -28.0815   20.7987 C   0  0  0  0  0  0
  -26.0188  -26.5522   19.4874 C   0  0  0  0  0  0
  -24.9411  -27.4927   19.4540 C   0  0  0  0  0  0
  -23.7696  -29.6933   20.1405 C   0  0  0  0  0  0
  -25.4143  -36.2898   24.0282 C   0  0  1  0  0  0
  -20.5971  -28.3785   23.1139 C   0  0  2  0  0  0
  -20.6804  -26.9441   22.5404 C   0  0  0  0  0  0
  -19.5775  -26.6368   21.5219 C   0  0  0  0  0  0
  -18.1959  -26.7945   22.1621 C   0  0  0  0  0  0
  -19.1603  -28.8926   23.2779 C   0  0  0  0  0  0
  -18.9513  -30.1508   23.8826 C   0  0  0  0  0  0
  -17.6498  -30.6605   24.0544 C   0  0  0  0  0  0
  -25.9130  -34.9283   23.4955 C   0  0  0  0  0  0
  -16.5388  -29.9086   23.6344 C   0  0  0  0  0  0
  -16.7316  -28.6507   23.0371 C   0  0  0  0  0  0
  -26.4590  -31.6509   25.0710 C   0  0  0  0  0  0
  -25.3643  -31.3843   26.1316 C   0  0  0  0  0  0
  -27.0535  -30.2844   24.6644 C   0  0  0  0  0  0
  -27.6028  -32.4381   25.7532 C   0  0  0  0  0  0
  -27.5567  -37.1731   24.8462 C   0  0  0  0  0  0
  -21.4413  -29.3026   22.3456 N   0  0  0  0  0  0
  -26.4270  -37.3661   23.9408 N   0  0  0  0  0  0
  -24.7870  -30.9399   22.0785 N   0  0  0  0  0  0
  -23.4198  -28.7897   23.3061 O   0  0  0  0  0  0
  -28.2194  -25.4766   20.2643 O   0  0  0  0  0  0
  -26.5776  -34.8859   22.4573 O   0  0  0  0  0  0
  -23.5862  -32.1066   23.6443 O   0  0  0  0  0  0
  -29.7304  -19.9012   21.1171 C   0  0  0  0  0  0
  -28.2060  -21.0855   19.2831 C   0  0  0  0  0  0
  -29.3727  -21.4120   21.1333 C   0  0  0  0  0  0
  -28.5463  -22.2295   20.1791 C   0  0  0  0  0  0
  -29.3307  -18.7997   20.1730 C   0  0  0  0  0  0
  -28.4156  -16.6467   19.1038 C   0  0  0  0  0  0
  -28.5529  -19.6568   19.3102 N   0  3  0  0  0  0
  -29.8005  -22.1522   22.2394 N   0  0  0  0  0  0
  -27.8595  -23.7212   20.1593 N   0  0  0  0  0  0
  -29.4661  -17.0509   20.0398 N   0  0  0  0  0  0
  -31.4124  -13.4207   19.1270 H   0  0  0  0  0  0
  -30.6309  -12.3117   20.2052 H   0  0  0  0  0  0
  -30.0269  -11.8070   17.8134 H   0  0  0  0  0  0
  -29.4943  -13.4483   17.5742 H   0  0  0  0  0  0
  -28.1941  -11.2865   19.2476 H   0  0  0  0  0  0
  -27.4661  -12.1709   17.9271 H   0  0  0  0  0  0
  -27.4159  -14.1676   19.1941 H   0  0  0  0  0  0
  -28.9032  -12.8107   21.5034 H   0  0  0  0  0  0
  -28.1691  -14.3921   21.5897 H   0  0  0  0  0  0
  -25.2788   -9.5573   22.4784 H   0  0  0  0  0  0
  -23.9974   -7.4551   22.7472 H   0  0  0  0  0  0
  -21.0850   -8.8783   19.8961 H   0  0  0  0  0  0
  -22.3770  -10.9643   19.6174 H   0  0  0  0  0  0
  -21.1975   -7.6130   23.9714 H   0  0  0  0  0  0
  -21.1497   -6.0514   25.9089 H   0  0  0  0  0  0
  -22.0597   -2.7592   23.2857 H   0  0  0  0  0  0
  -22.3943  -11.9778   22.4922 H   0  0  0  0  0  0
  -21.0960  -13.1156   22.2674 H   0  0  0  0  0  0
  -24.5849  -15.8194   20.5514 H   0  0  0  0  0  0
  -26.1991  -15.6513   20.0910 H   0  0  0  0  0  0
  -26.7503  -32.4914   23.0775 H   0  0  0  0  0  0
  -25.0034  -33.9323   25.0027 H   0  0  0  0  0  0
  -22.8392  -31.2364   21.3133 H   0  0  0  0  0  0
  -23.3773  -35.9465   23.3279 H   0  0  0  0  0  0
  -24.3556  -36.8847   22.2077 H   0  0  0  0  0  0
  -23.7232  -37.6312   23.6752 H   0  0  0  0  0  0
  -26.3028  -31.2404   20.6333 H   0  0  0  0  0  0
  -26.9422  -30.5873   22.0912 H   0  0  0  0  0  0
  -28.1558  -28.3533   21.3471 H   0  0  0  0  0  0
  -25.8648  -25.6227   18.9587 H   0  0  0  0  0  0
  -24.0495  -27.2207   18.9058 H   0  0  0  0  0  0
  -23.9473  -30.4531   19.3794 H   0  0  0  0  0  0
  -22.8740  -29.1625   19.8146 H   0  0  0  0  0  0
  -25.1349  -36.1666   25.0775 H   0  0  0  0  0  0
  -21.0054  -28.3418   24.1265 H   0  0  0  0  0  0
  -20.5667  -26.2411   23.3675 H   0  0  0  0  0  0
  -21.6670  -26.7377   22.1226 H   0  0  0  0  0  0
  -19.6936  -25.6258   21.1305 H   0  0  0  0  0  0
  -19.6722  -27.3131   20.6714 H   0  0  0  0  0  0
  -17.4230  -26.6682   21.4028 H   0  0  0  0  0  0
  -18.0348  -26.0111   22.9039 H   0  0  0  0  0  0
  -19.7992  -30.7341   24.2167 H   0  0  0  0  0  0
  -17.5057  -31.6283   24.5160 H   0  0  0  0  0  0
  -15.5389  -30.2969   23.7721 H   0  0  0  0  0  0
  -15.8717  -28.0803   22.7134 H   0  0  0  0  0  0
  -24.5845  -30.7173   25.7616 H   0  0  0  0  0  0
  -24.8814  -32.3075   26.4532 H   0  0  0  0  0  0
  -25.7811  -30.9143   27.0233 H   0  0  0  0  0  0
  -26.3267  -29.6438   24.1638 H   0  0  0  0  0  0
  -27.3939  -29.7316   25.5411 H   0  0  0  0  0  0
  -27.9254  -30.3959   24.0198 H   0  0  0  0  0  0
  -27.2546  -33.3732   26.1927 H   0  0  0  0  0  0
  -28.3934  -32.6861   25.0441 H   0  0  0  0  0  0
  -28.0595  -31.8642   26.5602 H   0  0  0  0  0  0
  -28.2542  -38.0070   24.7530 H   0  0  0  0  0  0
  -28.1104  -36.2586   24.6260 H   0  0  0  0  0  0
  -27.2284  -37.1336   25.8866 H   0  0  0  0  0  0
  -20.9725  -29.8678   21.6511 H   0  0  0  0  0  0
  -26.0098  -38.2709   24.1423 H   0  0  0  0  0  0
  -30.3172  -19.5554   21.9534 H   0  0  0  0  0  0
  -27.5459  -21.3097   18.4557 H   0  0  0  0  0  0
  -27.5469  -16.3368   19.6717 H   0  0  0  0  0  0
  -28.7114  -15.8553   18.4131 H   0  0  0  0  0  0
  -28.0825  -17.4367   18.4384 H   0  0  0  0  0  0
  -28.1158  -19.1488   18.5350 H   0  0  0  0  0  0
  -30.6905  -21.9016   22.6494 H   0  0  0  0  0  0
  -29.6959  -23.1537   22.1159 H   0  0  0  0  0  0
  -26.9094  -23.6577   19.8063 H   0  0  0  0  0  0
  1 25  1  0  0  0
  1 30  2  0  0  0
  1 80  1  0  0  0
  2  3  1  0  0  0
  2 25  1  0  0  0
  2 81  1  0  0  0
  2 82  1  0  0  0
  3  4  1  0  0  0
  3 83  1  0  0  0
  3 84  1  0  0  0
  4  5  1  0  0  0
  4 85  1  0  0  0
  4 86  1  0  0  0
  5  6  1  0  0  0
  5 26  1  0  0  0
  5 87  1  0  0  0
  6 25  1  0  0  0
  6 88  1  0  0  0
  6 89  1  0  0  0
  7  8  2  0  0  0
  7 26  1  0  0  0
  7 29  1  0  0  0
  8  9  1  0  0  0
  8 22  1  0  0  0
  9 10  1  0  0  0
  9 27  2  0  0  0
 10 11  2  0  0  0
 10 15  1  0  0  0
 11 12  1  0  0  0
 11 90  1  0  0  0
 12 13  2  0  0  0
 12 91  1  0  0  0
 13 14  1  0  0  0
 13 31  1  0  0  0
 14 15  2  0  0  0
 14 92  1  0  0  0
 15 93  1  0  0  0
 16 17  2  0  0  0
 16 21  1  0  0  0
 16 31  1  0  0  0
 17 18  1  0  0  0
 17 94  1  0  0  0
 18 19  2  0  0  0
 18 95  1  0  0  0
 19 20  1  0  0  0
 19 24  1  0  0  0
 20 21  2  0  0  0
 20 96  1  0  0  0
 21 23  1  0  0  0
 22 28  1  0  0  0
 22 32  2  0  0  0
 26 27  1  0  0  0
 28 97  1  0  0  0
 28 98  1  0  0  0
 29 99  1  0  0  0
 29100  1  0  0  0
 33 34  1  0  0  0
 33 66  1  0  0  0
 33 70  2  0  0  0
 34 36  1  0  0  0
 34 59  1  0  0  0
 34101  1  0  0  0
 35 44  2  0  0  0
 35 45  1  0  0  0
 35 68  1  0  0  0
 36 56  1  0  0  0
 36102  1  0  0  0
 37 39  1  0  0  0
 37 47  1  0  0  0
 37 66  1  0  0  0
 37103  1  0  0  0
 38 43  2  0  0  0
 38 46  1  0  0  0
 38 47  1  0  0  0
 39 64  1  0  0  0
 39 67  2  0  0  0
 40 52  1  0  0  0
 40 53  2  0  0  0
 40 58  1  0  0  0
 41104  1  0  0  0
 41105  1  0  0  0
 41106  1  0  0  0
 41 48  1  0  0  0
 42 43  1  0  0  0
 42 66  1  0  0  0
 42107  1  0  0  0
 42108  1  0  0  0
 43 44  1  0  0  0
 44109  1  0  0  0
 45 46  2  0  0  0
 45110  1  0  0  0
 46111  1  0  0  0
 47112  1  0  0  0
 47113  1  0  0  0
 48 56  1  0  0  0
 48 65  1  0  0  0
 48114  1  0  0  0
 49 50  1  0  0  0
 49 53  1  0  0  0
 49 64  1  0  0  0
 49115  1  0  0  0
 50 51  1  0  0  0
 50116  1  0  0  0
 50117  1  0  0  0
 51 52  1  0  0  0
 51118  1  0  0  0
 51119  1  0  0  0
 52120  1  0  0  0
 52121  1  0  0  0
 53 54  1  0  0  0
 54 55  2  0  0  0
 54122  1  0  0  0
 55 57  1  0  0  0
 55123  1  0  0  0
 56 69  2  0  0  0
 57 58  2  0  0  0
 57124  1  0  0  0
 58125  1  0  0  0
 59 60  1  0  0  0
 59 61  1  0  0  0
 59 62  1  0  0  0
 60126  1  0  0  0
 60127  1  0  0  0
 60128  1  0  0  0
 61129  1  0  0  0
 61130  1  0  0  0
 61131  1  0  0  0
 62132  1  0  0  0
 62133  1  0  0  0
 62134  1  0  0  0
 63 65  1  0  0  0
 63135  1  0  0  0
 63136  1  0  0  0
 63137  1  0  0  0
 64138  1  0  0  0
 65139  1  0  0  0
 68 79  1  0  0  0
 71 73  2  0  0  0
 71 75  1  0  0  0
 71140  1  0  0  0
 72 74  2  0  0  0
 72 77  1  0  0  0
 72141  1  0  0  0
 73 74  1  0  0  0
 73 78  1  0  0  0
 74 79  1  0  0  0
 75 77  2  0  0  0
 75 80  1  0  0  0
 76 80  1  0  0  0
 76142  1  0  0  0
 76143  1  0  0  0
 76144  1  0  0  0
 77145  1  0  0  0
 78146  1  0  0  0
 78147  1  0  0  0
 79148  1  0  0  0
M  CHG  1  77   1
M  ISO  4   1 100  68 101  79 101  80 100
M  END
> <chiral flag>
0

> <version>
0

> <s_m_source_file>
/data/baiqing/PycharmProjects/Reinvent-master-3.2/result/LINK_invent/BTK/process_docking_weight1_custom_product_contain_oxygen_bond_distance_aromatic_linkinvent_7_9_3/rearranged_h_0089.sdf

> <i_m_source_file_index>
83

> <r_mmod_Potential_Energy-OPLS-2005>
2593.45190429688

> <r_mmod_Stretch_Energy-OPLS-2005>
1000.02850341797

> <r_mmod_Bend_Energy-OPLS-2005>
743.410278320312

> <r_mmod_Torsional_Energy-OPLS-2005>
290.0390625

> <r_mmod_Improper_Torsional_Energy-OPLS-2005>
18.342248916626

> <r_mmod_Van_der_Waal_Energy-OPLS-2005>
148.822723388672

> <r_mmod_Electrostatic_Energy-OPLS-2005>
-134.935745239258

> <r_mmod_Solvation_Energy-OPLS-2005>
-451.331207275391

> <b_mmod_Minimization_Converged-OPLS-2005>
0

> <r_mmod_RMS_Derivative-OPLS-2005>
2.02264738082886

$$$$
83
                    3D
 Structure written by MMmdl.
154162  0  0  1  0            999 V2000
  -30.6033  -14.6187   20.5669 C   0  0  0  0  0  0
  -30.4531  -12.3985   19.4372 C   0  0  0  0  0  0
  -29.5116  -12.5279   18.2166 C   0  0  0  0  0  0
  -28.0331  -12.3594   18.6251 C   0  0  0  0  0  0
  -27.6606  -13.2071   19.8700 C   0  0  2  0  0  0
  -28.7053  -13.0098   20.9931 C   0  0  0  0  0  0
  -25.2594  -13.8136   20.5667 C   0  0  0  0  0  0
  -24.1849  -13.0424   20.9183 C   0  0  0  0  0  0
  -24.6397  -11.6889   20.8733 C   0  0  0  0  0  0
  -23.9049  -10.4287   21.0402 C   0  0  0  0  0  0
  -24.3606   -9.4209   21.9177 C   0  0  0  0  0  0
  -23.6290   -8.2243   22.0744 C   0  0  0  0  0  0
  -22.4273   -8.0276   21.3539 C   0  0  0  0  0  0
  -21.9902   -9.0248   20.4641 C   0  0  0  0  0  0
  -22.7221  -10.2128   20.3052 C   0  0  0  0  0  0
  -21.6847   -6.0736   22.5281 C   0  0  0  0  0  0
  -21.4014   -6.5638   23.8219 C   0  0  0  0  0  0
  -21.3660   -5.6789   24.9177 C   0  0  0  0  0  0
  -21.6050   -4.3053   24.7228 C   0  0  0  0  0  0
  -21.8820   -3.8141   23.4348 C   0  0  0  0  0  0
  -21.9194   -4.6964   22.3403 C   0  0  0  0  0  0
  -22.7874  -13.5229   21.1842 C   0  0  0  0  0  0
  -22.1661   -4.2152   21.0983 F   0  0  0  0  0  0
  -21.5633   -3.4542   25.7737 F   0  0  0  0  0  0
  -30.0245  -13.3812   20.4501 N   0  0  0  0  0  0
  -26.3023  -12.9303   20.3319 N   0  0  0  0  0  0
  -25.9326  -11.6469   20.5740 N   0  0  0  0  0  0
  -22.0505  -12.8231   22.0394 N   0  0  0  0  0  0
  -25.4317  -15.1864   20.4081 N   0  0  0  0  0  0
  -31.7076  -14.8809   20.0776 O   0  0  0  0  0  0
  -21.6635   -6.8875   21.4239 O   0  0  0  0  0  0
  -22.3562  -14.5543   20.6694 O   0  0  0  0  0  0
  -24.6234  -31.8612   23.2037 C   0  0  0  0  0  0
  -25.9088  -32.4788   23.8357 C   0  0  1  0  0  0
  -27.2301  -27.3392   20.1161 C   0  0  0  0  0  0
  -25.5919  -33.8591   24.2282 N   0  0  0  0  0  0
  -23.4169  -30.4832   21.5457 C   0  0  2  0  0  0
  -24.8653  -28.9351   20.1154 C   0  0  0  0  0  0
  -22.7461  -29.4629   22.4953 C   0  0  0  0  0  0
  -18.0283  -28.1380   22.8494 C   0  0  0  0  0  0
  -24.1489  -36.7297   23.2635 C   0  0  0  0  0  0
  -25.9557  -30.7961   21.3736 C   0  0  0  0  0  0
  -26.0316  -29.4231   20.7196 C   0  0  0  0  0  0
  -27.2177  -28.6344   20.7129 C   0  0  0  0  0  0
  -26.0447  -26.8947   19.4921 C   0  0  0  0  0  0
  -24.8714  -27.6747   19.4951 C   0  0  0  0  0  0
  -23.6315  -29.8137   20.1622 C   0  0  0  0  0  0
  -25.4112  -36.3092   24.0333 C   0  0  1  0  0  0
  -20.5880  -28.3684   23.1297 C   0  0  2  0  0  0
  -20.6773  -26.9410   22.5418 C   0  0  0  0  0  0
  -19.5748  -26.6383   21.5220 C   0  0  0  0  0  0
  -18.1929  -26.7928   22.1631 C   0  0  0  0  0  0
  -19.1535  -28.8848   23.2892 C   0  0  0  0  0  0
  -18.9457  -30.1453   23.8906 C   0  0  0  0  0  0
  -17.6458  -30.6588   24.0561 C   0  0  0  0  0  0
  -25.9050  -34.9461   23.5106 C   0  0  0  0  0  0
  -16.5352  -29.9087   23.6330 C   0  0  0  0  0  0
  -16.7269  -28.6503   23.0356 C   0  0  0  0  0  0
  -26.4479  -31.6600   25.0725 C   0  0  0  0  0  0
  -25.3721  -31.3752   26.1461 C   0  0  0  0  0  0
  -27.0307  -30.3020   24.6176 C   0  0  0  0  0  0
  -27.6053  -32.4329   25.7479 C   0  0  0  0  0  0
  -27.5591  -37.1787   24.8453 C   0  0  0  0  0  0
  -21.4177  -29.3040   22.3693 N   0  0  0  0  0  0
  -26.4287  -37.3793   23.9423 N   0  0  0  0  0  0
  -24.6837  -31.0631   22.0983 N   0  0  0  0  0  0
  -23.4192  -28.8175   23.3030 O   0  0  0  0  0  0
  -28.3601  -26.5171   20.1035 O   0  0  0  0  0  0
  -26.5622  -34.8929   22.4675 O   0  0  0  0  0  0
  -23.5400  -32.1404   23.7376 O   0  0  0  0  0  0
  -32.4708  -19.1637   19.8766 C   0  0  0  0  0  0
  -31.7737  -18.0511   20.3836 C   0  0  0  0  0  0
  -31.8357  -20.4113   19.7283 C   0  0  0  0  0  0
  -29.7706  -19.4471   20.5599 C   0  0  0  0  0  0
  -30.4098  -18.1526   20.7229 C   0  0  0  0  0  0
  -30.4833  -20.6021   20.0847 C   0  0  0  0  0  0
  -28.2299  -25.1460   20.3978 C   0  0  0  0  0  0
  -29.6976  -16.9910   21.3755 C   0  0  0  0  0  0
  -29.1201  -24.1758   20.0186 C   0  0  0  0  0  0
  -28.9855  -22.7279   20.3837 C   0  0  0  0  0  0
  -30.0068  -21.9711   19.8976 N   0  0  0  0  0  0
  -29.7668  -15.6189   21.2340 N   0  0  0  0  0  0
  -28.8031  -17.3875   22.2907 N   0  3  0  0  0  0
  -28.0649  -22.2435   21.0447 O   0  0  0  0  0  0
  -30.1794  -24.5531   19.2843 O   0  0  0  0  0  0
  -31.4901  -12.5525   19.1336 H   0  0  0  0  0  0
  -30.4101  -11.3896   19.8512 H   0  0  0  0  0  0
  -29.7779  -11.7928   17.4560 H   0  0  0  0  0  0
  -29.6500  -13.5062   17.7531 H   0  0  0  0  0  0
  -27.8637  -11.3020   18.8348 H   0  0  0  0  0  0
  -27.3798  -12.6107   17.7890 H   0  0  0  0  0  0
  -27.6923  -14.2517   19.5586 H   0  0  0  0  0  0
  -28.7205  -11.9668   21.3146 H   0  0  0  0  0  0
  -28.4364  -13.5752   21.8859 H   0  0  0  0  0  0
  -25.2758   -9.5705   22.4740 H   0  0  0  0  0  0
  -24.0018   -7.4637   22.7462 H   0  0  0  0  0  0
  -21.0831   -8.8759   19.8949 H   0  0  0  0  0  0
  -22.3674  -10.9666   19.6164 H   0  0  0  0  0  0
  -21.1999   -7.6143   23.9726 H   0  0  0  0  0  0
  -21.1480   -6.0514   25.9083 H   0  0  0  0  0  0
  -22.0594   -2.7608   23.2845 H   0  0  0  0  0  0
  -22.4094  -11.9889   22.4809 H   0  0  0  0  0  0
  -21.1122  -13.1274   22.2558 H   0  0  0  0  0  0
  -24.6523  -15.8289   20.4982 H   0  0  0  0  0  0
  -26.2568  -15.6232   20.0187 H   0  0  0  0  0  0
  -26.7157  -32.5461   23.1112 H   0  0  0  0  0  0
  -25.0061  -33.9738   25.0421 H   0  0  0  0  0  0
  -22.7106  -31.3038   21.4020 H   0  0  0  0  0  0
  -23.3766  -35.9611   23.3270 H   0  0  0  0  0  0
  -24.3589  -36.8942   22.2055 H   0  0  0  0  0  0
  -23.7218  -37.6483   23.6670 H   0  0  0  0  0  0
  -26.0854  -31.5591   20.6050 H   0  0  0  0  0  0
  -26.8366  -30.8458   22.0020 H   0  0  0  0  0  0
  -28.1171  -29.0062   21.1836 H   0  0  0  0  0  0
  -26.0223  -25.9304   19.0047 H   0  0  0  0  0  0
  -23.9770  -27.2963   19.0189 H   0  0  0  0  0  0
  -23.7488  -30.5883   19.4033 H   0  0  0  0  0  0
  -22.7524  -29.2406   19.8619 H   0  0  0  0  0  0
  -25.1287  -36.1941   25.0824 H   0  0  0  0  0  0
  -20.9974  -28.3250   24.1417 H   0  0  0  0  0  0
  -20.5683  -26.2290   23.3612 H   0  0  0  0  0  0
  -21.6640  -26.7450   22.1200 H   0  0  0  0  0  0
  -19.6910  -25.6295   21.1247 H   0  0  0  0  0  0
  -19.6685  -27.3197   20.6752 H   0  0  0  0  0  0
  -17.4199  -26.6680   21.4031 H   0  0  0  0  0  0
  -18.0327  -26.0067   22.9023 H   0  0  0  0  0  0
  -19.7931  -30.7269   24.2282 H   0  0  0  0  0  0
  -17.5011  -31.6270   24.5158 H   0  0  0  0  0  0
  -15.5350  -30.2992   23.7651 H   0  0  0  0  0  0
  -15.8667  -28.0823   22.7074 H   0  0  0  0  0  0
  -24.5859  -30.7149   25.7782 H   0  0  0  0  0  0
  -24.8960  -32.2932   26.4919 H   0  0  0  0  0  0
  -25.8038  -30.8884   27.0215 H   0  0  0  0  0  0
  -26.2871  -29.6785   24.1200 H   0  0  0  0  0  0
  -27.3996  -29.7269   25.4678 H   0  0  0  0  0  0
  -27.8748  -30.4295   23.9397 H   0  0  0  0  0  0
  -27.2674  -33.3627   26.2068 H   0  0  0  0  0  0
  -28.3848  -32.6896   25.0294 H   0  0  0  0  0  0
  -28.0740  -31.8451   26.5381 H   0  0  0  0  0  0
  -28.2567  -38.0127   24.7574 H   0  0  0  0  0  0
  -28.1131  -36.2668   24.6178 H   0  0  0  0  0  0
  -27.2326  -37.1310   25.8855 H   0  0  0  0  0  0
  -20.9358  -29.8751   21.6893 H   0  0  0  0  0  0
  -26.0168  -38.2858   24.1471 H   0  0  0  0  0  0
  -33.5171  -19.0692   19.6212 H   0  0  0  0  0  0
  -32.3198  -17.1351   20.5409 H   0  0  0  0  0  0
  -32.4198  -21.2403   19.3543 H   0  0  0  0  0  0
  -28.7292  -19.5656   20.8242 H   0  0  0  0  0  0
  -27.3439  -24.9293   20.9826 H   0  0  0  0  0  0
  -30.6378  -22.5684   19.3779 H   0  0  0  0  0  0
  -28.9568  -15.2268   21.6692 H   0  0  0  0  0  0
  -28.7482  -18.3764   22.4824 H   0  0  0  0  0  0
  -28.2935  -16.7737   22.9060 H   0  0  0  0  0  0
  -30.0987  -25.4901   19.1544 H   0  0  0  0  0  0
  1 25  1  0  0  0
  1 30  2  0  0  0
  1 82  1  0  0  0
  2  3  1  0  0  0
  2 25  1  0  0  0
  2 86  1  0  0  0
  2 87  1  0  0  0
  3  4  1  0  0  0
  3 88  1  0  0  0
  3 89  1  0  0  0
  4  5  1  0  0  0
  4 90  1  0  0  0
  4 91  1  0  0  0
  5  6  1  0  0  0
  5 26  1  0  0  0
  5 92  1  0  0  0
  6 25  1  0  0  0
  6 93  1  0  0  0
  6 94  1  0  0  0
  7  8  2  0  0  0
  7 26  1  0  0  0
  7 29  1  0  0  0
  8  9  1  0  0  0
  8 22  1  0  0  0
  9 10  1  0  0  0
  9 27  2  0  0  0
 10 11  2  0  0  0
 10 15  1  0  0  0
 11 12  1  0  0  0
 11 95  1  0  0  0
 12 13  2  0  0  0
 12 96  1  0  0  0
 13 14  1  0  0  0
 13 31  1  0  0  0
 14 15  2  0  0  0
 14 97  1  0  0  0
 15 98  1  0  0  0
 16 17  2  0  0  0
 16 21  1  0  0  0
 16 31  1  0  0  0
 17 18  1  0  0  0
 17 99  1  0  0  0
 18 19  2  0  0  0
 18100  1  0  0  0
 19 20  1  0  0  0
 19 24  1  0  0  0
 20 21  2  0  0  0
 20101  1  0  0  0
 21 23  1  0  0  0
 22 28  1  0  0  0
 22 32  2  0  0  0
 26 27  1  0  0  0
 28102  1  0  0  0
 28103  1  0  0  0
 29104  1  0  0  0
 29105  1  0  0  0
 33 34  1  0  0  0
 33 66  1  0  0  0
 33 70  2  0  0  0
 34 36  1  0  0  0
 34 59  1  0  0  0
 34106  1  0  0  0
 35 44  2  0  0  0
 35 45  1  0  0  0
 35 68  1  0  0  0
 36 56  1  0  0  0
 36107  1  0  0  0
 37 39  1  0  0  0
 37 47  1  0  0  0
 37 66  1  0  0  0
 37108  1  0  0  0
 38 43  2  0  0  0
 38 46  1  0  0  0
 38 47  1  0  0  0
 39 64  1  0  0  0
 39 67  2  0  0  0
 40 52  1  0  0  0
 40 53  2  0  0  0
 40 58  1  0  0  0
 41109  1  0  0  0
 41110  1  0  0  0
 41111  1  0  0  0
 41 48  1  0  0  0
 42 43  1  0  0  0
 42 66  1  0  0  0
 42112  1  0  0  0
 42113  1  0  0  0
 43 44  1  0  0  0
 44114  1  0  0  0
 45 46  2  0  0  0
 45115  1  0  0  0
 46116  1  0  0  0
 47117  1  0  0  0
 47118  1  0  0  0
 48 56  1  0  0  0
 48 65  1  0  0  0
 48119  1  0  0  0
 49 50  1  0  0  0
 49 53  1  0  0  0
 49 64  1  0  0  0
 49120  1  0  0  0
 50 51  1  0  0  0
 50121  1  0  0  0
 50122  1  0  0  0
 51 52  1  0  0  0
 51123  1  0  0  0
 51124  1  0  0  0
 52125  1  0  0  0
 52126  1  0  0  0
 53 54  1  0  0  0
 54 55  2  0  0  0
 54127  1  0  0  0
 55 57  1  0  0  0
 55128  1  0  0  0
 56 69  2  0  0  0
 57 58  2  0  0  0
 57129  1  0  0  0
 58130  1  0  0  0
 59 60  1  0  0  0
 59 61  1  0  0  0
 59 62  1  0  0  0
 60131  1  0  0  0
 60132  1  0  0  0
 60133  1  0  0  0
 61134  1  0  0  0
 61135  1  0  0  0
 61136  1  0  0  0
 62137  1  0  0  0
 62138  1  0  0  0
 62139  1  0  0  0
 63 65  1  0  0  0
 63140  1  0  0  0
 63141  1  0  0  0
 63142  1  0  0  0
 64143  1  0  0  0
 65144  1  0  0  0
 68 77  1  0  0  0
 71 72  2  0  0  0
 71 73  1  0  0  0
 71145  1  0  0  0
 72 75  1  0  0  0
 72146  1  0  0  0
 73 76  2  0  0  0
 73147  1  0  0  0
 74 75  2  0  0  0
 74 76  1  0  0  0
 74148  1  0  0  0
 75 78  1  0  0  0
 76 81  1  0  0  0
 77 79  2  0  0  0
 77149  1  0  0  0
 78 82  1  0  0  0
 78 83  2  0  0  0
 79 80  1  0  0  0
 79 85  1  0  0  0
 80 81  1  0  0  0
 80 84  2  0  0  0
 81150  1  0  0  0
 82151  1  0  0  0
 83152  1  0  0  0
 83153  1  0  0  0
 85154  1  0  0  0
M  CHG  1  83   1
M  ISO  4   1 100  68 101  77 101  82 100
M  END
> <chiral flag>
0

> <version>
0

> <s_m_source_file>
/data/baiqing/PycharmProjects/Reinvent-master-3.2/result/LINK_invent/BTK/process_docking_weight1_custom_product_contain_oxygen_bond_distance_aromatic_linkinvent_7_9_3/rearranged_h_0089.sdf

> <i_m_source_file_index>
84

> <r_mmod_Potential_Energy-OPLS-2005>
-258.068023681641

> <r_mmod_Stretch_Energy-OPLS-2005>
74.1367111206055

> <r_mmod_Bend_Energy-OPLS-2005>
198.607330322266

> <r_mmod_Torsional_Energy-OPLS-2005>
201.480560302734

> <r_mmod_Improper_Torsional_Energy-OPLS-2005>
4.0322585105896

> <r_mmod_Van_der_Waal_Energy-OPLS-2005>
148.894104003906

> <r_mmod_Electrostatic_Energy-OPLS-2005>
-482.795166015625

> <r_mmod_Solvation_Energy-OPLS-2005>
-443.319061279297

> <b_mmod_Minimization_Converged-OPLS-2005>
0

> <r_mmod_RMS_Derivative-OPLS-2005>
1.24373888969421

$$$$
84
                    3D
 Structure written by MMmdl.
155164  0  0  1  0            999 V2000
  -30.6024  -14.6901   20.4943 C   0  0  0  0  0  0
  -30.4430  -12.4225   19.4649 C   0  0  0  0  0  0
  -29.5133  -12.5167   18.2336 C   0  0  0  0  0  0
  -28.0369  -12.3461   18.6437 C   0  0  0  0  0  0
  -27.6539  -13.2216   19.8664 C   0  0  2  0  0  0
  -28.6978  -13.0910   20.9985 C   0  0  0  0  0  0
  -25.2555  -13.8175   20.5685 C   0  0  0  0  0  0
  -24.1823  -13.0435   20.9179 C   0  0  0  0  0  0
  -24.6401  -11.6909   20.8734 C   0  0  0  0  0  0
  -23.9071  -10.4291   21.0402 C   0  0  0  0  0  0
  -24.3619   -9.4207   21.9182 C   0  0  0  0  0  0
  -23.6293   -8.2243   22.0754 C   0  0  0  0  0  0
  -22.4275   -8.0281   21.3544 C   0  0  0  0  0  0
  -21.9911   -9.0255   20.4646 C   0  0  0  0  0  0
  -22.7241  -10.2133   20.3053 C   0  0  0  0  0  0
  -21.6853   -6.0736   22.5279 C   0  0  0  0  0  0
  -21.4015   -6.5640   23.8212 C   0  0  0  0  0  0
  -21.3659   -5.6793   24.9174 C   0  0  0  0  0  0
  -21.6044   -4.3055   24.7225 C   0  0  0  0  0  0
  -21.8819   -3.8147   23.4346 C   0  0  0  0  0  0
  -21.9193   -4.6964   22.3402 C   0  0  0  0  0  0
  -22.7845  -13.5224   21.1847 C   0  0  0  0  0  0
  -22.1661   -4.2149   21.0980 F   0  0  0  0  0  0
  -21.5629   -3.4538   25.7738 F   0  0  0  0  0  0
  -30.0105  -13.4499   20.4377 N   0  0  0  0  0  0
  -26.2995  -12.9367   20.3337 N   0  0  0  0  0  0
  -25.9336  -11.6517   20.5764 N   0  0  0  0  0  0
  -22.0492  -12.8216   22.0408 N   0  0  0  0  0  0
  -25.4257  -15.1896   20.4106 N   0  0  0  0  0  0
  -31.7528  -14.8585   20.0766 O   0  0  0  0  0  0
  -21.6639   -6.8879   21.4241 O   0  0  0  0  0  0
  -22.3526  -14.5531   20.6700 O   0  0  0  0  0  0
  -24.6294  -31.8575   23.2008 C   0  0  0  0  0  0
  -25.9129  -32.4766   23.8345 C   0  0  1  0  0  0
  -27.2225  -27.2854   20.1206 C   0  0  0  0  0  0
  -25.5932  -33.8568   24.2269 N   0  0  0  0  0  0
  -23.4247  -30.4814   21.5441 C   0  0  2  0  0  0
  -24.8718  -28.9344   20.1095 C   0  0  0  0  0  0
  -22.7493  -29.4614   22.4921 C   0  0  0  0  0  0
  -18.0289  -28.1387   22.8484 C   0  0  0  0  0  0
  -24.1490  -36.7289   23.2640 C   0  0  0  0  0  0
  -25.9696  -30.7775   21.3779 C   0  0  0  0  0  0
  -26.0430  -29.4029   20.7181 C   0  0  0  0  0  0
  -27.2205  -28.5908   20.7137 C   0  0  0  0  0  0
  -26.0270  -26.8848   19.4782 C   0  0  0  0  0  0
  -24.8679  -27.6823   19.4794 C   0  0  0  0  0  0
  -23.6415  -29.8180   20.1591 C   0  0  0  0  0  0
  -25.4117  -36.3078   24.0328 C   0  0  1  0  0  0
  -20.5893  -28.3696   23.1273 C   0  0  2  0  0  0
  -20.6778  -26.9415   22.5408 C   0  0  0  0  0  0
  -19.5753  -26.6384   21.5211 C   0  0  0  0  0  0
  -18.1933  -26.7930   22.1624 C   0  0  0  0  0  0
  -19.1543  -28.8858   23.2874 C   0  0  0  0  0  0
  -18.9465  -30.1458   23.8893 C   0  0  0  0  0  0
  -17.6464  -30.6587   24.0562 C   0  0  0  0  0  0
  -25.9055  -34.9446   23.5099 C   0  0  0  0  0  0
  -16.5355  -29.9085   23.6331 C   0  0  0  0  0  0
  -16.7276  -28.6503   23.0352 C   0  0  0  0  0  0
  -26.4501  -31.6586   25.0727 C   0  0  0  0  0  0
  -25.3724  -31.3729   26.1446 C   0  0  0  0  0  0
  -27.0352  -30.3007   24.6206 C   0  0  0  0  0  0
  -27.6052  -32.4329   25.7503 C   0  0  0  0  0  0
  -27.5578  -37.1803   24.8466 C   0  0  0  0  0  0
  -21.4203  -29.3046   22.3664 N   0  0  0  0  0  0
  -26.4292  -37.3773   23.9406 N   0  0  0  0  0  0
  -24.6935  -31.0561   22.0974 N   0  0  0  0  0  0
  -23.4203  -28.8152   23.3010 O   0  0  0  0  0  0
  -28.3240  -26.4019   20.1872 O   0  0  0  0  0  0
  -26.5626  -34.8917   22.4667 O   0  0  0  0  0  0
  -23.5450  -32.1386   23.7316 O   0  0  0  0  0  0
  -30.1344  -19.3709   19.5825 C   0  0  0  0  0  0
  -29.0163  -19.3922   21.6622 C   0  0  0  0  0  0
  -29.4666  -20.1843   20.5597 C   0  0  0  0  0  0
  -30.3205  -17.9457   19.6704 C   0  0  0  0  0  0
  -29.1796  -17.9745   21.7783 C   0  0  0  0  0  0
  -29.8343  -17.1982   20.7835 C   0  0  0  0  0  0
  -29.4444  -22.6273   19.4476 C   0  0  0  0  0  0
  -28.6436  -22.6236   21.3045 C   0  0  0  0  0  0
  -29.1553  -23.8179   20.4292 C   0  0  0  0  0  0
  -28.0875  -24.9329   19.9847 C   0  0  0  0  0  0
  -29.2660  -21.6592   20.4691 N   0  0  0  0  0  0
  -30.9611  -17.2819   18.6228 N   0  0  0  0  0  0
  -28.6749  -17.3247   22.9094 N   0  0  0  0  0  0
  -29.8126  -15.7282   20.9253 N   0  0  0  0  0  0
  -29.7331  -22.5044   18.2733 O   0  0  0  0  0  0
  -27.9869  -22.4976   22.3198 O   0  0  0  0  0  0
  -31.4832  -12.5551   19.1627 H   0  0  0  0  0  0
  -30.3882  -11.4298   19.9142 H   0  0  0  0  0  0
  -29.7858  -11.7611   17.4957 H   0  0  0  0  0  0
  -29.6480  -13.4834   17.7455 H   0  0  0  0  0  0
  -27.8806  -11.2931   18.8813 H   0  0  0  0  0  0
  -27.3816  -12.5671   17.8002 H   0  0  0  0  0  0
  -27.6680  -14.2552   19.5198 H   0  0  0  0  0  0
  -28.7201  -12.0709   21.3847 H   0  0  0  0  0  0
  -28.4323  -13.7226   21.8473 H   0  0  0  0  0  0
  -25.2764   -9.5683   22.4756 H   0  0  0  0  0  0
  -24.0001   -7.4636   22.7474 H   0  0  0  0  0  0
  -21.0842   -8.8775   19.8952 H   0  0  0  0  0  0
  -22.3700  -10.9672   19.6160 H   0  0  0  0  0  0
  -21.2007   -7.6147   23.9716 H   0  0  0  0  0  0
  -21.1482   -6.0522   25.9077 H   0  0  0  0  0  0
  -22.0598   -2.7608   23.2847 H   0  0  0  0  0  0
  -22.4109  -11.9876   22.4793 H   0  0  0  0  0  0
  -21.1111  -13.1242   22.2618 H   0  0  0  0  0  0
  -24.6648  -15.8479   20.5372 H   0  0  0  0  0  0
  -26.2891  -15.6343   20.1249 H   0  0  0  0  0  0
  -26.7194  -32.5425   23.1088 H   0  0  0  0  0  0
  -25.0075  -33.9708   25.0411 H   0  0  0  0  0  0
  -22.7201  -31.3033   21.4005 H   0  0  0  0  0  0
  -23.3750  -35.9623   23.3306 H   0  0  0  0  0  0
  -24.3578  -36.8907   22.2052 H   0  0  0  0  0  0
  -23.7246  -37.6492   23.6661 H   0  0  0  0  0  0
  -26.1073  -31.5405   20.6104 H   0  0  0  0  0  0
  -26.8477  -30.8245   22.0106 H   0  0  0  0  0  0
  -28.1159  -28.9441   21.2057 H   0  0  0  0  0  0
  -25.9524  -25.9317   18.9769 H   0  0  0  0  0  0
  -23.9723  -27.3193   18.9942 H   0  0  0  0  0  0
  -23.7637  -30.5957   19.4042 H   0  0  0  0  0  0
  -22.7602  -29.2505   19.8545 H   0  0  0  0  0  0
  -25.1299  -36.1927   25.0819 H   0  0  0  0  0  0
  -20.9987  -28.3273   24.1394 H   0  0  0  0  0  0
  -20.5678  -26.2306   23.3612 H   0  0  0  0  0  0
  -21.6647  -26.7440   22.1203 H   0  0  0  0  0  0
  -19.6916  -25.6294   21.1243 H   0  0  0  0  0  0
  -19.6690  -27.3193   20.6740 H   0  0  0  0  0  0
  -17.4203  -26.6675   21.4026 H   0  0  0  0  0  0
  -18.0334  -26.0072   22.9021 H   0  0  0  0  0  0
  -19.7940  -30.7276   24.2261 H   0  0  0  0  0  0
  -17.5017  -31.6268   24.5165 H   0  0  0  0  0  0
  -15.5355  -30.2986   23.7658 H   0  0  0  0  0  0
  -15.8677  -28.0821   22.7070 H   0  0  0  0  0  0
  -24.5911  -30.7063   25.7775 H   0  0  0  0  0  0
  -24.8899  -32.2894   26.4853 H   0  0  0  0  0  0
  -25.8044  -30.8924   27.0234 H   0  0  0  0  0  0
  -26.2939  -29.6751   24.1220 H   0  0  0  0  0  0
  -27.4030  -29.7270   25.4724 H   0  0  0  0  0  0
  -27.8817  -30.4286   23.9454 H   0  0  0  0  0  0
  -27.2655  -33.3629   26.2074 H   0  0  0  0  0  0
  -28.3867  -32.6890   25.0338 H   0  0  0  0  0  0
  -28.0716  -31.8460   26.5427 H   0  0  0  0  0  0
  -28.2601  -38.0095   24.7504 H   0  0  0  0  0  0
  -28.1069  -36.2625   24.6306 H   0  0  0  0  0  0
  -27.2293  -37.1469   25.8869 H   0  0  0  0  0  0
  -20.9385  -29.8771   21.6874 H   0  0  0  0  0  0
  -26.0173  -38.2848   24.1398 H   0  0  0  0  0  0
  -30.5174  -19.8712   18.7045 H   0  0  0  0  0  0
  -28.5033  -19.8999   22.4664 H   0  0  0  0  0  0
  -30.0686  -24.2636   20.8204 H   0  0  0  0  0  0
  -27.1474  -24.6938   20.4849 H   0  0  0  0  0  0
  -27.8862  -24.8033   18.9203 H   0  0  0  0  0  0
  -31.5623  -17.8323   18.0188 H   0  0  0  0  0  0
  -31.3954  -16.3958   18.8848 H   0  0  0  0  0  0
  -28.4424  -17.9048   23.7087 H   0  0  0  0  0  0
  -29.1614  -16.4829   23.1967 H   0  0  0  0  0  0
  -28.9781  -15.4125   21.3934 H   0  0  0  0  0  0
  1 25  1  0  0  0
  1 30  2  0  0  0
  1 84  1  0  0  0
  2  3  1  0  0  0
  2 25  1  0  0  0
  2 87  1  0  0  0
  2 88  1  0  0  0
  3  4  1  0  0  0
  3 89  1  0  0  0
  3 90  1  0  0  0
  4  5  1  0  0  0
  4 91  1  0  0  0
  4 92  1  0  0  0
  5  6  1  0  0  0
  5 26  1  0  0  0
  5 93  1  0  0  0
  6 25  1  0  0  0
  6 94  1  0  0  0
  6 95  1  0  0  0
  7  8  2  0  0  0
  7 26  1  0  0  0
  7 29  1  0  0  0
  8  9  1  0  0  0
  8 22  1  0  0  0
  9 10  1  0  0  0
  9 27  2  0  0  0
 10 11  2  0  0  0
 10 15  1  0  0  0
 11 12  1  0  0  0
 11 96  1  0  0  0
 12 13  2  0  0  0
 12 97  1  0  0  0
 13 14  1  0  0  0
 13 31  1  0  0  0
 14 15  2  0  0  0
 14 98  1  0  0  0
 15 99  1  0  0  0
 16 17  2  0  0  0
 16 21  1  0  0  0
 16 31  1  0  0  0
 17 18  1  0  0  0
 17100  1  0  0  0
 18 19  2  0  0  0
 18101  1  0  0  0
 19 20  1  0  0  0
 19 24  1  0  0  0
 20 21  2  0  0  0
 20102  1  0  0  0
 21 23  1  0  0  0
 22 28  1  0  0  0
 22 32  2  0  0  0
 26 27  1  0  0  0
 28103  1  0  0  0
 28104  1  0  0  0
 29105  1  0  0  0
 29106  1  0  0  0
 33 34  1  0  0  0
 33 66  1  0  0  0
 33 70  2  0  0  0
 34 36  1  0  0  0
 34 59  1  0  0  0
 34107  1  0  0  0
 35 44  2  0  0  0
 35 45  1  0  0  0
 35 68  1  0  0  0
 36 56  1  0  0  0
 36108  1  0  0  0
 37 39  1  0  0  0
 37 47  1  0  0  0
 37 66  1  0  0  0
 37109  1  0  0  0
 38 43  2  0  0  0
 38 46  1  0  0  0
 38 47  1  0  0  0
 39 64  1  0  0  0
 39 67  2  0  0  0
 40 52  1  0  0  0
 40 53  2  0  0  0
 40 58  1  0  0  0
 41110  1  0  0  0
 41111  1  0  0  0
 41112  1  0  0  0
 41 48  1  0  0  0
 42 43  1  0  0  0
 42 66  1  0  0  0
 42113  1  0  0  0
 42114  1  0  0  0
 43 44  1  0  0  0
 44115  1  0  0  0
 45 46  2  0  0  0
 45116  1  0  0  0
 46117  1  0  0  0
 47118  1  0  0  0
 47119  1  0  0  0
 48 56  1  0  0  0
 48 65  1  0  0  0
 48120  1  0  0  0
 49 50  1  0  0  0
 49 53  1  0  0  0
 49 64  1  0  0  0
 49121  1  0  0  0
 50 51  1  0  0  0
 50122  1  0  0  0
 50123  1  0  0  0
 51 52  1  0  0  0
 51124  1  0  0  0
 51125  1  0  0  0
 52126  1  0  0  0
 52127  1  0  0  0
 53 54  1  0  0  0
 54 55  2  0  0  0
 54128  1  0  0  0
 55 57  1  0  0  0
 55129  1  0  0  0
 56 69  2  0  0  0
 57 58  2  0  0  0
 57130  1  0  0  0
 58131  1  0  0  0
 59 60  1  0  0  0
 59 61  1  0  0  0
 59 62  1  0  0  0
 60132  1  0  0  0
 60133  1  0  0  0
 60134  1  0  0  0
 61135  1  0  0  0
 61136  1  0  0  0
 61137  1  0  0  0
 62138  1  0  0  0
 62139  1  0  0  0
 62140  1  0  0  0
 63 65  1  0  0  0
 63141  1  0  0  0
 63142  1  0  0  0
 63143  1  0  0  0
 64144  1  0  0  0
 65145  1  0  0  0
 68 80  1  0  0  0
 71 73  2  0  0  0
 71 74  1  0  0  0
 71146  1  0  0  0
 72 73  1  0  0  0
 72 75  2  0  0  0
 72147  1  0  0  0
 73 81  1  0  0  0
 74 76  2  0  0  0
 74 82  1  0  0  0
 75 76  1  0  0  0
 75 83  1  0  0  0
 76 84  1  0  0  0
 77 79  1  0  0  0
 77 81  1  0  0  0
 77 85  2  0  0  0
 78 79  1  0  0  0
 78 81  1  0  0  0
 78 86  2  0  0  0
 79 80  1  0  0  0
 79148  1  0  0  0
 80149  1  0  0  0
 80150  1  0  0  0
 82151  1  0  0  0
 82152  1  0  0  0
 83153  1  0  0  0
 83154  1  0  0  0
 84155  1  0  0  0
M  ISO  4   1 100  68 101  80 101  84 100
M  END
> <chiral flag>
0

> <version>
0

> <s_m_source_file>
/data/baiqing/PycharmProjects/Reinvent-master-3.2/result/LINK_invent/BTK/process_docking_weight1_custom_product_contain_oxygen_bond_distance_aromatic_linkinvent_7_9_3/rearranged_h_0089.sdf

> <i_m_source_file_index>
85

> <r_mmod_Potential_Energy-OPLS-2005>
-77.4542083740234

> <r_mmod_Stretch_Energy-OPLS-2005>
101.06324005127

> <r_mmod_Bend_Energy-OPLS-2005>
174.301513671875

> <r_mmod_Torsional_Energy-OPLS-2005>
220.221298217773

> <r_mmod_Improper_Torsional_Energy-OPLS-2005>
12.1684827804565

> <r_mmod_Van_der_Waal_Energy-OPLS-2005>
146.586715698242

> <r_mmod_Electrostatic_Energy-OPLS-2005>
-561.303527832031

> <r_mmod_Solvation_Energy-OPLS-2005>
-236.683868408203

> <b_mmod_Minimization_Converged-OPLS-2005>
0

> <r_mmod_RMS_Derivative-OPLS-2005>
0.321589082479477

$$$$
85
                    3D
 Structure written by MMmdl.
155164  0  0  1  0            999 V2000
  -30.5977  -14.6898   20.4786 C   0  0  0  0  0  0
  -30.4454  -12.4212   19.4562 C   0  0  0  0  0  0
  -29.5112  -12.5081   18.2276 C   0  0  0  0  0  0
  -28.0349  -12.3377   18.6414 C   0  0  0  0  0  0
  -27.6504  -13.2187   19.8596 C   0  0  2  0  0  0
  -28.6983  -13.0963   20.9892 C   0  0  0  0  0  0
  -25.2545  -13.8166   20.5692 C   0  0  0  0  0  0
  -24.1816  -13.0423   20.9170 C   0  0  0  0  0  0
  -24.6396  -11.6900   20.8728 C   0  0  0  0  0  0
  -23.9066  -10.4286   21.0399 C   0  0  0  0  0  0
  -24.3617   -9.4204   21.9179 C   0  0  0  0  0  0
  -23.6287   -8.2244   22.0755 C   0  0  0  0  0  0
  -22.4267   -8.0281   21.3547 C   0  0  0  0  0  0
  -21.9904   -9.0257   20.4651 C   0  0  0  0  0  0
  -22.7238  -10.2132   20.3052 C   0  0  0  0  0  0
  -21.6853   -6.0730   22.5275 C   0  0  0  0  0  0
  -21.4018   -6.5633   23.8209 C   0  0  0  0  0  0
  -21.3659   -5.6788   24.9171 C   0  0  0  0  0  0
  -21.6040   -4.3051   24.7223 C   0  0  0  0  0  0
  -21.8822   -3.8141   23.4347 C   0  0  0  0  0  0
  -21.9196   -4.6958   22.3401 C   0  0  0  0  0  0
  -22.7840  -13.5219   21.1835 C   0  0  0  0  0  0
  -22.1660   -4.2143   21.0978 F   0  0  0  0  0  0
  -21.5627   -3.4537   25.7739 F   0  0  0  0  0  0
  -30.0074  -13.4515   20.4196 N   0  0  0  0  0  0
  -26.2982  -12.9355   20.3321 N   0  0  0  0  0  0
  -25.9327  -11.6506   20.5758 N   0  0  0  0  0  0
  -22.0487  -12.8221   22.0407 N   0  0  0  0  0  0
  -25.4197  -15.1901   20.4172 N   0  0  0  0  0  0
  -31.7757  -14.8494   20.1431 O   0  0  0  0  0  0
  -21.6635   -6.8874   21.4239 O   0  0  0  0  0  0
  -22.3514  -14.5520   20.6685 O   0  0  0  0  0  0
  -24.6267  -31.8579   23.2011 C   0  0  0  0  0  0
  -25.9108  -32.4770   23.8345 C   0  0  1  0  0  0
  -27.2293  -27.3044   20.1271 C   0  0  0  0  0  0
  -25.5914  -33.8568   24.2276 N   0  0  0  0  0  0
  -23.4218  -30.4791   21.5437 C   0  0  2  0  0  0
  -24.8706  -28.9254   20.1160 C   0  0  0  0  0  0
  -22.7474  -29.4609   22.4937 C   0  0  0  0  0  0
  -18.0281  -28.1389   22.8494 C   0  0  0  0  0  0
  -24.1478  -36.7284   23.2635 C   0  0  0  0  0  0
  -25.9627  -30.7833   21.3744 C   0  0  0  0  0  0
  -26.0382  -29.4061   20.7232 C   0  0  0  0  0  0
  -27.2203  -28.6060   20.7206 C   0  0  0  0  0  0
  -26.0421  -26.8765   19.4953 C   0  0  0  0  0  0
  -24.8736  -27.6653   19.4953 C   0  0  0  0  0  0
  -23.6393  -29.8095   20.1608 C   0  0  0  0  0  0
  -25.4100  -36.3076   24.0331 C   0  0  1  0  0  0
  -20.5881  -28.3689   23.1287 C   0  0  2  0  0  0
  -20.6766  -26.9410   22.5414 C   0  0  0  0  0  0
  -19.5741  -26.6387   21.5215 C   0  0  0  0  0  0
  -18.1921  -26.7933   22.1630 C   0  0  0  0  0  0
  -19.1535  -28.8857   23.2885 C   0  0  0  0  0  0
  -18.9459  -30.1458   23.8906 C   0  0  0  0  0  0
  -17.6460  -30.6591   24.0563 C   0  0  0  0  0  0
  -25.9046  -34.9446   23.5109 C   0  0  0  0  0  0
  -16.5350  -29.9093   23.6325 C   0  0  0  0  0  0
  -16.7267  -28.6503   23.0360 C   0  0  0  0  0  0
  -26.4490  -31.6582   25.0717 C   0  0  0  0  0  0
  -25.3731  -31.3753   26.1459 C   0  0  0  0  0  0
  -27.0300  -30.2990   24.6176 C   0  0  0  0  0  0
  -27.6065  -32.4303   25.7479 C   0  0  0  0  0  0
  -27.5585  -37.1777   24.8451 C   0  0  0  0  0  0
  -21.4184  -29.3042   22.3684 N   0  0  0  0  0  0
  -26.4275  -37.3778   23.9430 N   0  0  0  0  0  0
  -24.6893  -31.0573   22.0969 N   0  0  0  0  0  0
  -23.4190  -28.8144   23.3019 O   0  0  0  0  0  0
  -28.3537  -26.4627   20.1220 O   0  0  0  0  0  0
  -26.5619  -34.8917   22.4679 O   0  0  0  0  0  0
  -23.5430  -32.1385   23.7330 O   0  0  0  0  0  0
  -30.9901  -19.4042   20.5480 C   0  0  0  0  0  0
  -31.0179  -17.9785   20.6710 C   0  0  0  0  0  0
  -28.6216  -19.3688   20.2202 C   0  0  0  0  0  0
  -29.8002  -20.1672   20.2968 C   0  0  0  0  0  0
  -29.8380  -17.2002   20.5703 C   0  0  0  0  0  0
  -28.6425  -17.9426   20.3575 C   0  0  0  0  0  0
  -29.1168  -24.0589   20.0120 C   0  0  0  0  0  0
  -30.3222  -24.4506   19.2522 C   0  0  0  0  0  0
  -28.8643  -22.5993   20.3488 C   0  0  0  0  0  0
  -28.2276  -25.0668   20.3598 C   0  0  0  0  0  0
  -31.0880  -23.3239   18.5958 C   0  0  0  0  0  0
  -31.1578  -22.1166   19.5343 C   0  0  0  0  0  0
  -29.8527  -21.6461   20.0525 N   0  0  0  0  0  0
  -29.7464  -15.7402   20.7296 N   0  0  0  0  0  0
  -30.7215  -25.6083   19.0833 O   0  0  0  0  0  0
  -27.8115  -22.2434   20.8925 O   0  0  0  0  0  0
  -27.4762  -17.2589   20.2645 F   0  0  0  0  0  0
  -31.4834  -12.5615   19.1499 H   0  0  0  0  0  0
  -30.3971  -11.4307   19.9121 H   0  0  0  0  0  0
  -29.7834  -11.7493   17.4930 H   0  0  0  0  0  0
  -29.6436  -13.4716   17.7331 H   0  0  0  0  0  0
  -27.8812  -11.2858   18.8851 H   0  0  0  0  0  0
  -27.3787  -12.5523   17.7970 H   0  0  0  0  0  0
  -27.6574  -14.2488   19.5033 H   0  0  0  0  0  0
  -28.7228  -12.0797   21.3842 H   0  0  0  0  0  0
  -28.4409  -13.7378   21.8338 H   0  0  0  0  0  0
  -25.2765   -9.5676   22.4750 H   0  0  0  0  0  0
  -23.9997   -7.4634   22.7473 H   0  0  0  0  0  0
  -21.0834   -8.8776   19.8957 H   0  0  0  0  0  0
  -22.3697  -10.9670   19.6157 H   0  0  0  0  0  0
  -21.2011   -7.6140   23.9711 H   0  0  0  0  0  0
  -21.1474   -6.0516   25.9073 H   0  0  0  0  0  0
  -22.0603   -2.7603   23.2853 H   0  0  0  0  0  0
  -22.4101  -11.9887   22.4803 H   0  0  0  0  0  0
  -21.1113  -13.1264   22.2614 H   0  0  0  0  0  0
  -24.6502  -15.8358   20.5500 H   0  0  0  0  0  0
  -26.2790  -15.6658   20.1645 H   0  0  0  0  0  0
  -26.7174  -32.5438   23.1092 H   0  0  0  0  0  0
  -25.0038  -33.9704   25.0404 H   0  0  0  0  0  0
  -22.7167  -31.2999   21.3976 H   0  0  0  0  0  0
  -23.3756  -35.9596   23.3258 H   0  0  0  0  0  0
  -24.3584  -36.8947   22.2059 H   0  0  0  0  0  0
  -23.7203  -37.6461   23.6683 H   0  0  0  0  0  0
  -26.0914  -31.5426   20.6020 H   0  0  0  0  0  0
  -26.8442  -30.8376   22.0013 H   0  0  0  0  0  0
  -28.1196  -28.9711   21.1963 H   0  0  0  0  0  0
  -26.0124  -25.9137   19.0054 H   0  0  0  0  0  0
  -23.9794  -27.2914   19.0162 H   0  0  0  0  0  0
  -23.7627  -30.5839   19.4028 H   0  0  0  0  0  0
  -22.7585  -29.2411   19.8574 H   0  0  0  0  0  0
  -25.1268  -36.1921   25.0820 H   0  0  0  0  0  0
  -20.9972  -28.3266   24.1406 H   0  0  0  0  0  0
  -20.5654  -26.2298   23.3614 H   0  0  0  0  0  0
  -21.6638  -26.7431   22.1217 H   0  0  0  0  0  0
  -19.6895  -25.6297   21.1244 H   0  0  0  0  0  0
  -19.6673  -27.3198   20.6745 H   0  0  0  0  0  0
  -17.4186  -26.6684   21.4038 H   0  0  0  0  0  0
  -18.0317  -26.0075   22.9025 H   0  0  0  0  0  0
  -19.7936  -30.7272   24.2285 H   0  0  0  0  0  0
  -17.5013  -31.6275   24.5162 H   0  0  0  0  0  0
  -15.5353  -30.3000   23.7640 H   0  0  0  0  0  0
  -15.8666  -28.0817   22.7089 H   0  0  0  0  0  0
  -24.5858  -30.7153   25.7801 H   0  0  0  0  0  0
  -24.8984  -32.2941   26.4912 H   0  0  0  0  0  0
  -25.8049  -30.8896   27.0217 H   0  0  0  0  0  0
  -26.2854  -29.6764   24.1202 H   0  0  0  0  0  0
  -27.3976  -29.7227   25.4677 H   0  0  0  0  0  0
  -27.8743  -30.4244   23.9394 H   0  0  0  0  0  0
  -27.2698  -33.3621   26.2031 H   0  0  0  0  0  0
  -28.3889  -32.6828   25.0310 H   0  0  0  0  0  0
  -28.0708  -31.8434   26.5414 H   0  0  0  0  0  0
  -28.2559  -38.0118   24.7571 H   0  0  0  0  0  0
  -28.1125  -36.2658   24.6172 H   0  0  0  0  0  0
  -27.2322  -37.1303   25.8855 H   0  0  0  0  0  0
  -20.9362  -29.8776   21.6905 H   0  0  0  0  0  0
  -26.0153  -38.2839   24.1486 H   0  0  0  0  0  0
  -31.9413  -19.9073   20.6476 H   0  0  0  0  0  0
  -31.9635  -17.4900   20.8576 H   0  0  0  0  0  0
  -27.6694  -19.8383   20.0241 H   0  0  0  0  0  0
  -27.3198  -24.8448   20.9041 H   0  0  0  0  0  0
  -32.0910  -23.6626   18.3344 H   0  0  0  0  0  0
  -30.5849  -23.0573   17.6662 H   0  0  0  0  0  0
  -31.8136  -22.3378   20.3786 H   0  0  0  0  0  0
  -31.6436  -21.3293   18.9582 H   0  0  0  0  0  0
  -28.8046  -15.4281   20.9090 H   0  0  0  0  0  0
  1 25  1  0  0  0
  1 30  2  0  0  0
  1 84  1  0  0  0
  2  3  1  0  0  0
  2 25  1  0  0  0
  2 88  1  0  0  0
  2 89  1  0  0  0
  3  4  1  0  0  0
  3 90  1  0  0  0
  3 91  1  0  0  0
  4  5  1  0  0  0
  4 92  1  0  0  0
  4 93  1  0  0  0
  5  6  1  0  0  0
  5 26  1  0  0  0
  5 94  1  0  0  0
  6 25  1  0  0  0
  6 95  1  0  0  0
  6 96  1  0  0  0
  7  8  2  0  0  0
  7 26  1  0  0  0
  7 29  1  0  0  0
  8  9  1  0  0  0
  8 22  1  0  0  0
  9 10  1  0  0  0
  9 27  2  0  0  0
 10 11  2  0  0  0
 10 15  1  0  0  0
 11 12  1  0  0  0
 11 97  1  0  0  0
 12 13  2  0  0  0
 12 98  1  0  0  0
 13 14  1  0  0  0
 13 31  1  0  0  0
 14 15  2  0  0  0
 14 99  1  0  0  0
 15100  1  0  0  0
 16 17  2  0  0  0
 16 21  1  0  0  0
 16 31  1  0  0  0
 17 18  1  0  0  0
 17101  1  0  0  0
 18 19  2  0  0  0
 18102  1  0  0  0
 19 20  1  0  0  0
 19 24  1  0  0  0
 20 21  2  0  0  0
 20103  1  0  0  0
 21 23  1  0  0  0
 22 28  1  0  0  0
 22 32  2  0  0  0
 26 27  1  0  0  0
 28104  1  0  0  0
 28105  1  0  0  0
 29106  1  0  0  0
 29107  1  0  0  0
 33 34  1  0  0  0
 33 66  1  0  0  0
 33 70  2  0  0  0
 34 36  1  0  0  0
 34 59  1  0  0  0
 34108  1  0  0  0
 35 44  2  0  0  0
 35 45  1  0  0  0
 35 68  1  0  0  0
 36 56  1  0  0  0
 36109  1  0  0  0
 37 39  1  0  0  0
 37 47  1  0  0  0
 37 66  1  0  0  0
 37110  1  0  0  0
 38 43  2  0  0  0
 38 46  1  0  0  0
 38 47  1  0  0  0
 39 64  1  0  0  0
 39 67  2  0  0  0
 40 52  1  0  0  0
 40 53  2  0  0  0
 40 58  1  0  0  0
 41111  1  0  0  0
 41112  1  0  0  0
 41113  1  0  0  0
 41 48  1  0  0  0
 42 43  1  0  0  0
 42 66  1  0  0  0
 42114  1  0  0  0
 42115  1  0  0  0
 43 44  1  0  0  0
 44116  1  0  0  0
 45 46  2  0  0  0
 45117  1  0  0  0
 46118  1  0  0  0
 47119  1  0  0  0
 47120  1  0  0  0
 48 56  1  0  0  0
 48 65  1  0  0  0
 48121  1  0  0  0
 49 50  1  0  0  0
 49 53  1  0  0  0
 49 64  1  0  0  0
 49122  1  0  0  0
 50 51  1  0  0  0
 50123  1  0  0  0
 50124  1  0  0  0
 51 52  1  0  0  0
 51125  1  0  0  0
 51126  1  0  0  0
 52127  1  0  0  0
 52128  1  0  0  0
 53 54  1  0  0  0
 54 55  2  0  0  0
 54129  1  0  0  0
 55 57  1  0  0  0
 55130  1  0  0  0
 56 69  2  0  0  0
 57 58  2  0  0  0
 57131  1  0  0  0
 58132  1  0  0  0
 59 60  1  0  0  0
 59 61  1  0  0  0
 59 62  1  0  0  0
 60133  1  0  0  0
 60134  1  0  0  0
 60135  1  0  0  0
 61136  1  0  0  0
 61137  1  0  0  0
 61138  1  0  0  0
 62139  1  0  0  0
 62140  1  0  0  0
 62141  1  0  0  0
 63 65  1  0  0  0
 63142  1  0  0  0
 63143  1  0  0  0
 63144  1  0  0  0
 64145  1  0  0  0
 65146  1  0  0  0
 68 80  1  0  0  0
 71 72  2  0  0  0
 71 74  1  0  0  0
 71147  1  0  0  0
 72 75  1  0  0  0
 72148  1  0  0  0
 73 74  2  0  0  0
 73 76  1  0  0  0
 73149  1  0  0  0
 74 83  1  0  0  0
 75 76  2  0  0  0
 75 84  1  0  0  0
 76 87  1  0  0  0
 77 78  1  0  0  0
 77 79  1  0  0  0
 77 80  2  0  0  0
 78 81  1  0  0  0
 78 85  2  0  0  0
 79 83  1  0  0  0
 79 86  2  0  0  0
 80150  1  0  0  0
 81 82  1  0  0  0
 81151  1  0  0  0
 81152  1  0  0  0
 82 83  1  0  0  0
 82153  1  0  0  0
 82154  1  0  0  0
 84155  1  0  0  0
M  ISO  4   1 100  68 101  80 101  84 100
M  END
> <chiral flag>
0

> <version>
0

> <s_m_source_file>
/data/baiqing/PycharmProjects/Reinvent-master-3.2/result/LINK_invent/BTK/process_docking_weight1_custom_product_contain_oxygen_bond_distance_aromatic_linkinvent_7_9_3/rearranged_h_0089.sdf

> <i_m_source_file_index>
86

> <r_mmod_Potential_Energy-OPLS-2005>
109.875869750977

> <r_mmod_Stretch_Energy-OPLS-2005>
105.91820526123

> <r_mmod_Bend_Energy-OPLS-2005>
151.095565795898

> <r_mmod_Torsional_Energy-OPLS-2005>
239.721740722656

> <r_mmod_Improper_Torsional_Energy-OPLS-2005>
5.29547691345215

> <r_mmod_Van_der_Waal_Energy-OPLS-2005>
165.561996459961

> <r_mmod_Electrostatic_Energy-OPLS-2005>
-392.907104492188

> <r_mmod_Solvation_Energy-OPLS-2005>
-224.415451049805

> <b_mmod_Minimization_Converged-OPLS-2005>
0

> <r_mmod_RMS_Derivative-OPLS-2005>
0.913668215274811

$$$$
86
                    3D
 Structure written by MMmdl.
155163  0  0  1  0            999 V2000
  -27.5729  -17.3272   21.0856 C   0  0  0  0  0  0
  -29.4374  -14.8168   19.9384 C   0  0  0  0  0  0
  -29.3452  -13.5558   18.8321 C   0  0  0  0  0  0
  -28.2455  -12.5439   19.1272 C   0  0  0  0  0  0
  -27.3246  -13.4265   19.9442 C   0  0  2  0  0  0
  -27.8571  -14.2227   21.1892 C   0  0  0  0  0  0
  -25.0404  -13.8071   20.5356 C   0  0  0  0  0  0
  -24.0401  -13.0023   20.9284 C   0  0  0  0  0  0
  -24.5561  -11.6682   20.8836 C   0  0  0  0  0  0
  -23.8649  -10.4033   21.0482 C   0  0  0  0  0  0
  -24.3399   -9.4052   21.9232 C   0  0  0  0  0  0
  -23.6170   -8.2055   22.0766 C   0  0  0  0  0  0
  -22.4159   -8.0077   21.3541 C   0  0  0  0  0  0
  -21.9693   -8.9973   20.4631 C   0  0  0  0  0  0
  -22.6915  -10.1867   20.3053 C   0  0  0  0  0  0
  -21.6794   -6.0631   22.5304 C   0  0  0  0  0  0
  -21.3976   -6.5583   23.8222 C   0  0  0  0  0  0
  -21.3640   -5.6758   24.9197 C   0  0  0  0  0  0
  -21.6038   -4.3020   24.7260 C   0  0  0  0  0  0
  -21.8831   -3.8086   23.4393 C   0  0  0  0  0  0
  -21.9177   -4.6879   22.3437 C   0  0  0  0  0  0
  -22.6599  -13.4770   21.2104 C   0  0  0  0  0  0
  -22.1658   -4.2073   21.1012 F   0  0  0  0  0  0
  -21.5627   -3.4519   25.7783 F   0  0  0  0  0  0
  -28.1258  -15.6686   20.7399 N   0  0  0  0  0  0
  -26.0797  -12.9485   20.2996 N   0  0  0  0  0  0
  -25.8414  -11.6534   20.5635 N   0  0  0  0  0  0
  -21.9513  -12.7806   22.0844 N   0  0  0  0  0  0
  -25.1480  -15.1887   20.3557 N   0  0  0  0  0  0
  -28.9016  -17.3722   20.8348 O   0  0  0  0  0  0
  -21.6553   -6.8696   21.4241 O   0  0  0  0  0  0
  -22.2346  -14.5137   20.7004 O   0  0  0  0  0  0
  -24.6460  -31.9549   23.2618 C   0  0  0  0  0  0
  -25.9387  -32.5261   23.8961 C   0  0  1  0  0  0
  -27.0437  -27.6348   19.8835 C   0  0  0  0  0  0
  -25.6273  -33.9003   24.2826 N   0  0  0  0  0  0
  -23.4984  -30.5438   21.6315 C   0  0  2  0  0  0
  -25.0669  -29.5643   19.7213 C   0  0  0  0  0  0
  -23.2005  -29.3631   22.6378 C   0  0  0  0  0  0
  -18.5880  -26.2505   22.4128 C   0  0  0  0  0  0
  -24.1512  -36.7438   23.2580 C   0  0  0  0  0  0
  -26.0320  -30.9340   21.5026 C   0  0  0  0  0  0
  -26.1096  -29.7210   20.6309 C   0  0  0  0  0  0
  -27.1219  -28.7414   20.7498 C   0  0  0  0  0  0
  -26.2960  -27.7060   18.7150 C   0  0  0  0  0  0
  -25.2187  -28.6043   18.6947 C   0  0  0  0  0  0
  -23.7593  -30.2866   20.0849 C   0  0  0  0  0  0
  -25.4107  -36.3320   24.0359 C   0  0  1  0  0  0
  -22.2061  -27.0325   22.9351 C   0  0  2  0  0  0
  -22.5813  -25.2461   21.5443 C   0  0  0  0  0  0
  -20.6947  -24.1311   20.7640 C   0  0  0  0  0  0
  -18.8198  -24.7925   21.4310 C   0  0  0  0  0  0
  -20.6269  -27.4594   23.4024 C   0  0  0  0  0  0
  -20.0590  -28.9921   24.2205 C   0  0  0  0  0  0
  -18.4216  -29.4719   24.2880 C   0  0  0  0  0  0
  -25.9072  -34.9688   23.5275 C   0  0  0  0  0  0
  -17.1074  -28.6779   23.6464 C   0  0  0  0  0  0
  -17.0973  -27.2116   22.7775 C   0  0  0  0  0  0
  -26.4591  -31.6791   25.1189 C   0  0  0  0  0  0
  -25.3722  -31.3851   26.1770 C   0  0  0  0  0  0
  -27.0545  -30.3212   24.6723 C   0  0  0  0  0  0
  -27.6143  -32.4426   25.8025 C   0  0  0  0  0  0
  -27.5606  -37.1922   24.8460 C   0  0  0  0  0  0
  -22.2500  -28.4975   22.4708 N   0  0  0  0  0  0
  -26.4323  -37.3958   23.9406 N   0  0  0  0  0  0
  -24.7237  -31.1970   22.1470 N   0  0  0  0  0  0
  -23.9362  -29.0744   23.5608 O   0  0  0  0  0  0
  -26.8728  -26.4181   20.4108 O   0  0  0  0  0  0
  -26.5414  -34.8997   22.4703 O   0  0  0  0  0  0
  -23.5574  -32.2123   23.7945 O   0  0  0  0  0  0
  -18.7954  -26.9876   24.4257 C   0  0  0  0  0  0
  -19.8366  -25.4027   24.2892 C   0  0  0  0  0  0
  -19.0490  -28.3785   22.2154 C   0  0  0  0  0  0
  -20.6243  -26.2728   21.4310 C   0  0  0  0  0  0
  -20.9204  -24.7493   22.9887 C   0  0  0  0  0  0
  -20.0987  -27.6842   21.0816 C   0  0  0  0  0  0
  -24.6284  -20.6837   21.9194 C   0  0  0  0  0  0
  -25.7998  -18.9528   21.6627 C   0  0  0  0  0  0
  -22.6442  -22.4756   22.6714 C   0  0  0  0  0  0
  -22.5763  -27.5294   19.7465 C   0  0  0  0  0  0
  -24.0676  -27.1607   20.6328 C   0  0  0  0  0  0
  -25.3487  -26.0735   20.3619 C   0  0  0  0  0  0
  -21.2570  -28.1463   20.1041 N   0  0  0  0  0  0
  -22.0928  -21.7704   23.5204 O   0  0  0  0  0  0
  -22.6180  -27.1630   18.5729 O   0  0  0  0  0  0
  -29.9396  -15.6036   19.3750 H   0  0  0  0  0  0
  -30.2106  -14.5765   20.6738 H   0  0  0  0  0  0
  -30.3103  -13.0579   18.7293 H   0  0  0  0  0  0
  -29.1376  -13.9944   17.8550 H   0  0  0  0  0  0
  -28.6130  -11.7110   19.7278 H   0  0  0  0  0  0
  -27.7767  -12.1503   18.2241 H   0  0  0  0  0  0
  -27.0608  -14.1629   19.1790 H   0  0  0  0  0  0
  -28.6364  -13.6931   21.7469 H   0  0  0  0  0  0
  -27.1061  -14.3301   21.9725 H   0  0  0  0  0  0
  -25.2514   -9.5652   22.4819 H   0  0  0  0  0  0
  -23.9913   -7.4461   22.7481 H   0  0  0  0  0  0
  -21.0629   -8.8413   19.8947 H   0  0  0  0  0  0
  -22.3321  -10.9401   19.6180 H   0  0  0  0  0  0
  -21.1968   -7.6094   23.9699 H   0  0  0  0  0  0
  -21.1448   -6.0500   25.9092 H   0  0  0  0  0  0
  -22.0635   -2.7549   23.2914 H   0  0  0  0  0  0
  -22.3258  -11.9475   22.5137 H   0  0  0  0  0  0
  -21.0193  -13.0833   22.3300 H   0  0  0  0  0  0
  -24.3118  -15.7633   20.3681 H   0  0  0  0  0  0
  -25.9064  -15.5901   19.8212 H   0  0  0  0  0  0
  -26.7608  -32.5981   23.1886 H   0  0  0  0  0  0
  -25.0661  -34.0255   25.1121 H   0  0  0  0  0  0
  -22.6486  -31.2258   21.6931 H   0  0  0  0  0  0
  -23.3781  -35.9767   23.3289 H   0  0  0  0  0  0
  -24.3643  -36.8959   22.1987 H   0  0  0  0  0  0
  -23.7245  -37.6676   23.6496 H   0  0  0  0  0  0
  -26.2915  -31.8025   20.8946 H   0  0  0  0  0  0
  -26.8504  -30.8053   22.1952 H   0  0  0  0  0  0
  -27.7566  -28.7227   21.6250 H   0  0  0  0  0  0
  -26.2956  -26.8952   17.9980 H   0  0  0  0  0  0
  -24.4909  -28.5323   17.9004 H   0  0  0  0  0  0
  -23.9049  -31.2814   19.6605 H   0  0  0  0  0  0
  -22.8867  -29.9887   19.5217 H   0  0  0  0  0  0
  -25.1238  -36.2278   25.0852 H   0  0  0  0  0  0
  -22.7889  -26.8912   23.8462 H   0  0  0  0  0  0
  -23.3480  -24.6866   22.0622 H   0  0  0  0  0  0
  -23.0321  -25.2081   20.5649 H   0  0  0  0  0  0
  -20.7545  -23.0548   20.9176 H   0  0  0  0  0  0
  -20.6946  -24.1843   19.6721 H   0  0  0  0  0  0
  -18.1713  -24.8936   20.5603 H   0  0  0  0  0  0
  -18.3730  -23.9793   22.0030 H   0  0  0  0  0  0
  -20.8037  -29.6543   24.6399 H   0  0  0  0  0  0
  -18.2156  -30.4047   24.7935 H   0  0  0  0  0  0
  -16.1466  -29.1524   23.7887 H   0  0  0  0  0  0
  -16.1500  -26.8448   22.4085 H   0  0  0  0  0  0
  -24.5942  -30.7218   25.7973 H   0  0  0  0  0  0
  -24.8875  -32.2997   26.5201 H   0  0  0  0  0  0
  -25.7965  -30.8978   27.0558 H   0  0  0  0  0  0
  -26.3371  -29.6994   24.1408 H   0  0  0  0  0  0
  -27.3831  -29.7389   25.5339 H   0  0  0  0  0  0
  -27.9347  -30.4496   24.0417 H   0  0  0  0  0  0
  -27.2770  -33.3697   26.2674 H   0  0  0  0  0  0
  -28.3994  -32.7013   25.0904 H   0  0  0  0  0  0
  -28.0760  -31.8470   26.5913 H   0  0  0  0  0  0
  -28.2627  -38.0221   24.7555 H   0  0  0  0  0  0
  -28.1112  -36.2765   24.6248 H   0  0  0  0  0  0
  -27.2317  -37.1525   25.8859 H   0  0  0  0  0  0
  -21.5714  -28.7070   21.7483 H   0  0  0  0  0  0
  -26.0252  -38.3055   24.1413 H   0  0  0  0  0  0
  -18.2340  -27.2164   25.3248 H   0  0  0  0  0  0
  -19.8026  -24.7828   25.1735 H   0  0  0  0  0  0
  -18.7007  -29.3770   21.9661 H   0  0  0  0  0  0
  -20.8596  -26.1374   20.3896 H   0  0  0  0  0  0
  -25.2639  -21.3787   21.3904 H   0  0  0  0  0  0
  -25.1590  -18.2596   22.1881 H   0  0  0  0  0  0
  -24.0263  -26.9146   21.6614 H   0  0  0  0  0  0
  -24.5002  -27.9758   21.1210 H   0  0  0  0  0  0
  -25.2841  -25.2912   21.1159 H   0  0  0  0  0  0
  -25.1441  -25.5256   19.4398 H   0  0  0  0  0  0
  -20.8691  -28.6379   19.3074 H   0  0  0  0  0  0
  1 25  1  0  0  0
  1 30  2  0  0  0
  1 78  1  0  0  0
  2  3  1  0  0  0
  2 25  1  0  0  0
  2 86  1  0  0  0
  2 87  1  0  0  0
  3  4  1  0  0  0
  3 88  1  0  0  0
  3 89  1  0  0  0
  4  5  1  0  0  0
  4 90  1  0  0  0
  4 91  1  0  0  0
  5  6  1  0  0  0
  5 26  1  0  0  0
  5 92  1  0  0  0
  6 25  1  0  0  0
  6 93  1  0  0  0
  6 94  1  0  0  0
  7  8  2  0  0  0
  7 26  1  0  0  0
  7 29  1  0  0  0
  8  9  1  0  0  0
  8 22  1  0  0  0
  9 10  1  0  0  0
  9 27  2  0  0  0
 10 11  2  0  0  0
 10 15  1  0  0  0
 11 12  1  0  0  0
 11 95  1  0  0  0
 12 13  2  0  0  0
 12 96  1  0  0  0
 13 14  1  0  0  0
 13 31  1  0  0  0
 14 15  2  0  0  0
 14 97  1  0  0  0
 15 98  1  0  0  0
 16 17  2  0  0  0
 16 21  1  0  0  0
 16 31  1  0  0  0
 17 18  1  0  0  0
 17 99  1  0  0  0
 18 19  2  0  0  0
 18100  1  0  0  0
 19 20  1  0  0  0
 19 24  1  0  0  0
 20 21  2  0  0  0
 20101  1  0  0  0
 21 23  1  0  0  0
 22 28  1  0  0  0
 22 32  2  0  0  0
 26 27  1  0  0  0
 28102  1  0  0  0
 28103  1  0  0  0
 29104  1  0  0  0
 29105  1  0  0  0
 33 34  1  0  0  0
 33 66  1  0  0  0
 33 70  2  0  0  0
 34 36  1  0  0  0
 34 59  1  0  0  0
 34106  1  0  0  0
 35 44  2  0  0  0
 35 45  1  0  0  0
 35 68  1  0  0  0
 36 56  1  0  0  0
 36107  1  0  0  0
 37 39  1  0  0  0
 37 47  1  0  0  0
 37 66  1  0  0  0
 37108  1  0  0  0
 38 43  2  0  0  0
 38 46  1  0  0  0
 38 47  1  0  0  0
 39 64  1  0  0  0
 39 67  2  0  0  0
 40 52  1  0  0  0
 40 53  2  0  0  0
 40 58  1  0  0  0
 41109  1  0  0  0
 41110  1  0  0  0
 41111  1  0  0  0
 41 48  1  0  0  0
 42 43  1  0  0  0
 42 66  1  0  0  0
 42112  1  0  0  0
 42113  1  0  0  0
 43 44  1  0  0  0
 44114  1  0  0  0
 45 46  2  0  0  0
 45115  1  0  0  0
 46116  1  0  0  0
 47117  1  0  0  0
 47118  1  0  0  0
 48 56  1  0  0  0
 48 65  1  0  0  0
 48119  1  0  0  0
 49 50  1  0  0  0
 49 53  1  0  0  0
 49 64  1  0  0  0
 49120  1  0  0  0
 50 51  1  0  0  0
 50121  1  0  0  0
 50122  1  0  0  0
 51 52  1  0  0  0
 51123  1  0  0  0
 51124  1  0  0  0
 52125  1  0  0  0
 52126  1  0  0  0
 53 54  1  0  0  0
 54 55  2  0  0  0
 54127  1  0  0  0
 55 57  1  0  0  0
 55128  1  0  0  0
 56 69  2  0  0  0
 57 58  2  0  0  0
 57129  1  0  0  0
 58130  1  0  0  0
 59 60  1  0  0  0
 59 61  1  0  0  0
 59 62  1  0  0  0
 60131  1  0  0  0
 60132  1  0  0  0
 60133  1  0  0  0
 61134  1  0  0  0
 61135  1  0  0  0
 61136  1  0  0  0
 62137  1  0  0  0
 62138  1  0  0  0
 62139  1  0  0  0
 63 65  1  0  0  0
 63140  1  0  0  0
 63141  1  0  0  0
 63142  1  0  0  0
 64143  1  0  0  0
 65144  1  0  0  0
 68 82  1  0  0  0
 71 72  2  0  0  0
 71 73  1  0  0  0
 71145  1  0  0  0
 72 75  1  0  0  0
 72146  1  0  0  0
 73 76  2  0  0  0
 73147  1  0  0  0
 74 75  2  0  0  0
 74 76  1  0  0  0
 74148  1  0  0  0
 75 79  1  0  0  0
 76 83  1  0  0  0
 77 78  2  0  0  0
 77 79  1  0  0  0
 77149  1  0  0  0
 78150  1  0  0  0
 79 84  2  0  0  0
 80 81  1  0  0  0
 80 83  1  0  0  0
 80 85  2  0  0  0
 81 82  1  0  0  0
 81151  1  0  0  0
 81152  1  0  0  0
 82153  1  0  0  0
 82154  1  0  0  0
 83155  1  0  0  0
M  ISO  4   1 100  68 101  78 100  82 101
M  END
> <chiral flag>
0

> <version>
0

> <s_m_source_file>
/data/baiqing/PycharmProjects/Reinvent-master-3.2/result/LINK_invent/BTK/process_docking_weight1_custom_product_contain_oxygen_bond_distance_aromatic_linkinvent_7_9_3/rearranged_h_0089.sdf

> <i_m_source_file_index>
87

> <r_mmod_Potential_Energy-OPLS-2005>
38513.2265625

> <r_mmod_Stretch_Energy-OPLS-2005>
19932.61328125

> <r_mmod_Bend_Energy-OPLS-2005>
2266.88500976562

> <r_mmod_Torsional_Energy-OPLS-2005>
537.014892578125

> <r_mmod_Improper_Torsional_Energy-OPLS-2005>
39.1162796020508

> <r_mmod_Van_der_Waal_Energy-OPLS-2005>
5494.2431640625

> <r_mmod_Electrostatic_Energy-OPLS-2005>
-411.913879394531

> <r_mmod_Solvation_Energy-OPLS-2005>
-211.266677856445

> <b_mmod_Minimization_Converged-OPLS-2005>
0

> <r_mmod_RMS_Derivative-OPLS-2005>
1.88955438137054

$$$$
87
                    3D
 Structure written by MMmdl.
157166  0  0  1  0            999 V2000
  -30.6113  -14.6831   20.4539 C   0  0  0  0  0  0
  -30.4239  -12.4020   19.4772 C   0  0  0  0  0  0
  -29.5098  -12.4981   18.2351 C   0  0  0  0  0  0
  -28.0262  -12.3578   18.6323 C   0  0  0  0  0  0
  -27.6464  -13.2310   19.8594 C   0  0  2  0  0  0
  -28.6885  -13.1156   20.9957 C   0  0  0  0  0  0
  -25.2512  -13.8195   20.5664 C   0  0  0  0  0  0
  -24.1797  -13.0443   20.9154 C   0  0  0  0  0  0
  -24.6391  -11.6914   20.8723 C   0  0  0  0  0  0
  -23.9074  -10.4284   21.0380 C   0  0  0  0  0  0
  -24.3618   -9.4205   21.9167 C   0  0  0  0  0  0
  -23.6285   -8.2243   22.0753 C   0  0  0  0  0  0
  -22.4267   -8.0275   21.3542 C   0  0  0  0  0  0
  -21.9901   -9.0241   20.4633 C   0  0  0  0  0  0
  -22.7235  -10.2116   20.3034 C   0  0  0  0  0  0
  -21.6862   -6.0723   22.5267 C   0  0  0  0  0  0
  -21.4022   -6.5635   23.8198 C   0  0  0  0  0  0
  -21.3673   -5.6792   24.9167 C   0  0  0  0  0  0
  -21.6052   -4.3049   24.7229 C   0  0  0  0  0  0
  -21.8823   -3.8136   23.4353 C   0  0  0  0  0  0
  -21.9183   -4.6946   22.3400 C   0  0  0  0  0  0
  -22.7822  -13.5217   21.1817 C   0  0  0  0  0  0
  -22.1646   -4.2128   21.0977 F   0  0  0  0  0  0
  -21.5632   -3.4539   25.7751 F   0  0  0  0  0  0
  -30.0021  -13.4517   20.4311 N   0  0  0  0  0  0
  -26.2954  -12.9410   20.3300 N   0  0  0  0  0  0
  -25.9325  -11.6548   20.5742 N   0  0  0  0  0  0
  -22.0486  -12.8194   22.0373 N   0  0  0  0  0  0
  -25.4212  -15.1921   20.4100 N   0  0  0  0  0  0
  -31.7744  -14.8139   20.0603 O   0  0  0  0  0  0
  -21.6644   -6.8864   21.4228 O   0  0  0  0  0  0
  -22.3498  -14.5519   20.6666 O   0  0  0  0  0  0
  -24.6300  -31.8563   23.2019 C   0  0  0  0  0  0
  -25.9133  -32.4765   23.8360 C   0  0  1  0  0  0
  -27.2167  -27.2911   20.1327 C   0  0  0  0  0  0
  -25.5943  -33.8571   24.2279 N   0  0  0  0  0  0
  -23.4259  -30.4796   21.5436 C   0  0  2  0  0  0
  -24.8745  -28.9335   20.1086 C   0  0  0  0  0  0
  -22.7487  -29.4606   22.4925 C   0  0  0  0  0  0
  -18.0290  -28.1394   22.8489 C   0  0  0  0  0  0
  -24.1481  -36.7285   23.2639 C   0  0  0  0  0  0
  -25.9682  -30.7774   21.3786 C   0  0  0  0  0  0
  -26.0428  -29.4015   20.7256 C   0  0  0  0  0  0
  -27.2196  -28.5886   20.7355 C   0  0  0  0  0  0
  -26.0340  -26.8846   19.4816 C   0  0  0  0  0  0
  -24.8719  -27.6799   19.4767 C   0  0  0  0  0  0
  -23.6432  -29.8162   20.1575 C   0  0  0  0  0  0
  -25.4118  -36.3080   24.0319 C   0  0  1  0  0  0
  -20.5890  -28.3710   23.1267 C   0  0  2  0  0  0
  -20.6783  -26.9428   22.5408 C   0  0  0  0  0  0
  -19.5752  -26.6390   21.5215 C   0  0  0  0  0  0
  -18.1928  -26.7939   22.1623 C   0  0  0  0  0  0
  -19.1543  -28.8873   23.2869 C   0  0  0  0  0  0
  -18.9470  -30.1476   23.8885 C   0  0  0  0  0  0
  -17.6471  -30.6600   24.0566 C   0  0  0  0  0  0
  -25.9059  -34.9443   23.5101 C   0  0  0  0  0  0
  -16.5360  -29.9093   23.6347 C   0  0  0  0  0  0
  -16.7276  -28.6509   23.0364 C   0  0  0  0  0  0
  -26.4507  -31.6583   25.0742 C   0  0  0  0  0  0
  -25.3734  -31.3694   26.1463 C   0  0  0  0  0  0
  -27.0384  -30.3025   24.6199 C   0  0  0  0  0  0
  -27.6061  -32.4339   25.7504 C   0  0  0  0  0  0
  -27.5573  -37.1797   24.8469 C   0  0  0  0  0  0
  -21.4198  -29.3049   22.3650 N   0  0  0  0  0  0
  -26.4291  -37.3779   23.9408 N   0  0  0  0  0  0
  -24.6935  -31.0551   22.0982 N   0  0  0  0  0  0
  -23.4178  -28.8152   23.3041 O   0  0  0  0  0  0
  -28.2805  -26.3737   20.1576 O   0  0  0  0  0  0
  -26.5623  -34.8900   22.4665 O   0  0  0  0  0  0
  -23.5463  -32.1386   23.7334 O   0  0  0  0  0  0
  -29.2922  -19.4627   18.5393 C   0  0  0  0  0  0
  -29.6181  -18.3789   20.6981 C   0  0  0  0  0  0
  -29.4159  -19.6030   19.9424 C   0  0  0  0  0  0
  -29.3874  -18.2029   17.9113 C   0  0  0  0  0  0
  -29.7435  -17.0702   20.0772 C   0  0  0  0  0  0
  -29.6140  -17.0316   18.6672 C   0  0  0  0  0  0
  -28.4556  -23.9870   20.6896 C   0  0  0  0  0  0
  -29.5326  -23.4771   19.7172 C   0  0  0  0  0  0
  -27.9723  -22.8131   21.5789 C   0  0  0  0  0  0
  -30.1385  -22.0278   19.9035 C   0  0  0  0  0  0
  -27.9841  -21.3755   20.9396 C   0  0  0  0  0  0
  -27.8997  -25.1659   20.8935 N   0  0  0  0  0  0
  -29.3174  -20.9325   20.5078 N   0  0  0  0  0  0
  -29.2343  -18.0936   16.5246 N   0  0  0  0  0  0
  -29.8566  -15.7844   20.7996 N   0  0  0  0  0  0
  -29.9649  -24.1850   18.7997 O   0  0  0  0  0  0
  -29.6369  -15.8478   18.0068 F   0  0  0  0  0  0
  -31.4701  -12.5031   19.1833 H   0  0  0  0  0  0
  -30.3357  -11.4167   19.9382 H   0  0  0  0  0  0
  -29.7739  -11.7264   17.5109 H   0  0  0  0  0  0
  -29.6666  -13.4493   17.7282 H   0  0  0  0  0  0
  -27.8429  -11.3064   18.8536 H   0  0  0  0  0  0
  -27.3849  -12.6054   17.7843 H   0  0  0  0  0  0
  -27.6555  -14.2636   19.5092 H   0  0  0  0  0  0
  -28.7024  -12.1047   21.4062 H   0  0  0  0  0  0
  -28.4332  -13.7753   21.8261 H   0  0  0  0  0  0
  -25.2754   -9.5688   22.4751 H   0  0  0  0  0  0
  -23.9976   -7.4650   22.7501 H   0  0  0  0  0  0
  -21.0816   -8.8757   19.8963 H   0  0  0  0  0  0
  -22.3667  -10.9646   19.6149 H   0  0  0  0  0  0
  -21.2029   -7.6141   23.9695 H   0  0  0  0  0  0
  -21.1496   -6.0531   25.9066 H   0  0  0  0  0  0
  -22.0591   -2.7592   23.2869 H   0  0  0  0  0  0
  -22.4112  -11.9855   22.4754 H   0  0  0  0  0  0
  -21.1117  -13.1220   22.2609 H   0  0  0  0  0  0
  -24.6594  -15.8504   20.5315 H   0  0  0  0  0  0
  -26.2744  -15.6279   20.0874 H   0  0  0  0  0  0
  -26.7202  -32.5418   23.1107 H   0  0  0  0  0  0
  -25.0095  -33.9718   25.0428 H   0  0  0  0  0  0
  -22.7247  -31.3039   21.3988 H   0  0  0  0  0  0
  -23.3742  -35.9616   23.3308 H   0  0  0  0  0  0
  -24.3576  -36.8913   22.2057 H   0  0  0  0  0  0
  -23.7224  -37.6474   23.6676 H   0  0  0  0  0  0
  -26.1035  -31.5349   20.6053 H   0  0  0  0  0  0
  -26.8480  -30.8288   22.0086 H   0  0  0  0  0  0
  -28.1151  -28.9358   21.2316 H   0  0  0  0  0  0
  -26.0027  -25.9160   19.0046 H   0  0  0  0  0  0
  -23.9791  -27.3143   18.9874 H   0  0  0  0  0  0
  -23.7654  -30.5934   19.4021 H   0  0  0  0  0  0
  -22.7625  -29.2482   19.8534 H   0  0  0  0  0  0
  -25.1295  -36.1919   25.0809 H   0  0  0  0  0  0
  -20.9991  -28.3289   24.1383 H   0  0  0  0  0  0
  -20.5703  -26.2321   23.3613 H   0  0  0  0  0  0
  -21.6644  -26.7459   22.1189 H   0  0  0  0  0  0
  -19.6913  -25.6294   21.1254 H   0  0  0  0  0  0
  -19.6683  -27.3193   20.6735 H   0  0  0  0  0  0
  -17.4200  -26.6704   21.4013 H   0  0  0  0  0  0
  -18.0315  -26.0074   22.9011 H   0  0  0  0  0  0
  -19.7945  -30.7300   24.2233 H   0  0  0  0  0  0
  -17.5021  -31.6274   24.5173 H   0  0  0  0  0  0
  -15.5362  -30.2994   23.7679 H   0  0  0  0  0  0
  -15.8671  -28.0824   22.7096 H   0  0  0  0  0  0
  -24.5936  -30.7024   25.7767 H   0  0  0  0  0  0
  -24.8902  -32.2844   26.4899 H   0  0  0  0  0  0
  -25.8065  -30.8859   27.0228 H   0  0  0  0  0  0
  -26.2973  -29.6754   24.1240 H   0  0  0  0  0  0
  -27.4116  -29.7308   25.4699 H   0  0  0  0  0  0
  -27.8815  -30.4345   23.9419 H   0  0  0  0  0  0
  -27.2674  -33.3654   26.2055 H   0  0  0  0  0  0
  -28.3875  -32.6883   25.0326 H   0  0  0  0  0  0
  -28.0733  -31.8484   26.5433 H   0  0  0  0  0  0
  -28.2580  -38.0101   24.7540 H   0  0  0  0  0  0
  -28.1073  -36.2636   24.6273 H   0  0  0  0  0  0
  -27.2290  -37.1425   25.8869 H   0  0  0  0  0  0
  -20.9399  -29.8756   21.6828 H   0  0  0  0  0  0
  -26.0155  -38.2834   24.1445 H   0  0  0  0  0  0
  -29.1103  -20.3347   17.9263 H   0  0  0  0  0  0
  -29.6867  -18.4502   21.7740 H   0  0  0  0  0  0
  -26.9572  -23.0298   21.9137 H   0  0  0  0  0  0
  -28.5812  -22.8065   22.4844 H   0  0  0  0  0  0
  -31.0189  -22.1456   20.5344 H   0  0  0  0  0  0
  -30.5283  -21.7178   18.9343 H   0  0  0  0  0  0
  -27.2924  -21.3306   20.0957 H   0  0  0  0  0  0
  -27.6087  -20.6645   21.6789 H   0  0  0  0  0  0
  -28.6730  -18.7853   16.0379 H   0  0  0  0  0  0
  -29.0900  -17.1524   16.1710 H   0  0  0  0  0  0
  -29.0460  -15.5595   21.3566 H   0  0  0  0  0  0
  1 25  1  0  0  0
  1 30  2  0  0  0
  1 85  1  0  0  0
  2  3  1  0  0  0
  2 25  1  0  0  0
  2 88  1  0  0  0
  2 89  1  0  0  0
  3  4  1  0  0  0
  3 90  1  0  0  0
  3 91  1  0  0  0
  4  5  1  0  0  0
  4 92  1  0  0  0
  4 93  1  0  0  0
  5  6  1  0  0  0
  5 26  1  0  0  0
  5 94  1  0  0  0
  6 25  1  0  0  0
  6 95  1  0  0  0
  6 96  1  0  0  0
  7  8  2  0  0  0
  7 26  1  0  0  0
  7 29  1  0  0  0
  8  9  1  0  0  0
  8 22  1  0  0  0
  9 10  1  0  0  0
  9 27  2  0  0  0
 10 11  2  0  0  0
 10 15  1  0  0  0
 11 12  1  0  0  0
 11 97  1  0  0  0
 12 13  2  0  0  0
 12 98  1  0  0  0
 13 14  1  0  0  0
 13 31  1  0  0  0
 14 15  2  0  0  0
 14 99  1  0  0  0
 15100  1  0  0  0
 16 17  2  0  0  0
 16 21  1  0  0  0
 16 31  1  0  0  0
 17 18  1  0  0  0
 17101  1  0  0  0
 18 19  2  0  0  0
 18102  1  0  0  0
 19 20  1  0  0  0
 19 24  1  0  0  0
 20 21  2  0  0  0
 20103  1  0  0  0
 21 23  1  0  0  0
 22 28  1  0  0  0
 22 32  2  0  0  0
 26 27  1  0  0  0
 28104  1  0  0  0
 28105  1  0  0  0
 29106  1  0  0  0
 29107  1  0  0  0
 33 34  1  0  0  0
 33 66  1  0  0  0
 33 70  2  0  0  0
 34 36  1  0  0  0
 34 59  1  0  0  0
 34108  1  0  0  0
 35 44  2  0  0  0
 35 45  1  0  0  0
 35 68  1  0  0  0
 36 56  1  0  0  0
 36109  1  0  0  0
 37 39  1  0  0  0
 37 47  1  0  0  0
 37 66  1  0  0  0
 37110  1  0  0  0
 38 43  2  0  0  0
 38 46  1  0  0  0
 38 47  1  0  0  0
 39 64  1  0  0  0
 39 67  2  0  0  0
 40 52  1  0  0  0
 40 53  2  0  0  0
 40 58  1  0  0  0
 41111  1  0  0  0
 41112  1  0  0  0
 41113  1  0  0  0
 41 48  1  0  0  0
 42 43  1  0  0  0
 42 66  1  0  0  0
 42114  1  0  0  0
 42115  1  0  0  0
 43 44  1  0  0  0
 44116  1  0  0  0
 45 46  2  0  0  0
 45117  1  0  0  0
 46118  1  0  0  0
 47119  1  0  0  0
 47120  1  0  0  0
 48 56  1  0  0  0
 48 65  1  0  0  0
 48121  1  0  0  0
 49 50  1  0  0  0
 49 53  1  0  0  0
 49 64  1  0  0  0
 49122  1  0  0  0
 50 51  1  0  0  0
 50123  1  0  0  0
 50124  1  0  0  0
 51 52  1  0  0  0
 51125  1  0  0  0
 51126  1  0  0  0
 52127  1  0  0  0
 52128  1  0  0  0
 53 54  1  0  0  0
 54 55  2  0  0  0
 54129  1  0  0  0
 55 57  1  0  0  0
 55130  1  0  0  0
 56 69  2  0  0  0
 57 58  2  0  0  0
 57131  1  0  0  0
 58132  1  0  0  0
 59 60  1  0  0  0
 59 61  1  0  0  0
 59 62  1  0  0  0
 60133  1  0  0  0
 60134  1  0  0  0
 60135  1  0  0  0
 61136  1  0  0  0
 61137  1  0  0  0
 61138  1  0  0  0
 62139  1  0  0  0
 62140  1  0  0  0
 62141  1  0  0  0
 63 65  1  0  0  0
 63142  1  0  0  0
 63143  1  0  0  0
 63144  1  0  0  0
 64145  1  0  0  0
 65146  1  0  0  0
 68 82  1  0  0  0
 71 73  2  0  0  0
 71 74  1  0  0  0
 71147  1  0  0  0
 72 73  1  0  0  0
 72 75  2  0  0  0
 72148  1  0  0  0
 73 83  1  0  0  0
 74 76  2  0  0  0
 74 84  1  0  0  0
 75 76  1  0  0  0
 75 85  1  0  0  0
 76 87  1  0  0  0
 77 78  1  0  0  0
 77 79  1  0  0  0
 77 82  2  0  0  0
 78 80  1  0  0  0
 78 86  2  0  0  0
 79 81  1  0  0  0
 79149  1  0  0  0
 79150  1  0  0  0
 80 83  1  0  0  0
 80151  1  0  0  0
 80152  1  0  0  0
 81 83  1  0  0  0
 81153  1  0  0  0
 81154  1  0  0  0
 84155  1  0  0  0
 84156  1  0  0  0
 85157  1  0  0  0
M  ISO  4   1 100  68 101  82 101  85 100
M  END
> <chiral flag>
0

> <version>
0

> <s_m_source_file>
/data/baiqing/PycharmProjects/Reinvent-master-3.2/result/LINK_invent/BTK/process_docking_weight1_custom_product_contain_oxygen_bond_distance_aromatic_linkinvent_7_9_3/rearranged_h_0089.sdf

> <i_m_source_file_index>
88

> <r_mmod_Potential_Energy-OPLS-2005>
258.887176513672

> <r_mmod_Stretch_Energy-OPLS-2005>
100.157928466797

> <r_mmod_Bend_Energy-OPLS-2005>
163.179336547852

> <r_mmod_Torsional_Energy-OPLS-2005>
275.076110839844

> <r_mmod_Improper_Torsional_Energy-OPLS-2005>
12.2944955825806

> <r_mmod_Van_der_Waal_Energy-OPLS-2005>
145.573944091797

> <r_mmod_Electrostatic_Energy-OPLS-2005>
-238.111480712891

> <r_mmod_Solvation_Energy-OPLS-2005>
-266.590972900391

> <b_mmod_Minimization_Converged-OPLS-2005>
0

> <r_mmod_RMS_Derivative-OPLS-2005>
2.32451486587524

$$$$
88
                    3D
 Structure written by MMmdl.
155164  0  0  1  0            999 V2000
  -30.5857  -14.6889   20.4992 C   0  0  0  0  0  0
  -30.4474  -12.4242   19.4585 C   0  0  0  0  0  0
  -29.5143  -12.5209   18.2287 C   0  0  0  0  0  0
  -28.0372  -12.3441   18.6384 C   0  0  0  0  0  0
  -27.6523  -13.2162   19.8630 C   0  0  2  0  0  0
  -28.6971  -13.0775   20.9932 C   0  0  0  0  0  0
  -25.2554  -13.8156   20.5669 C   0  0  0  0  0  0
  -24.1827  -13.0431   20.9203 C   0  0  0  0  0  0
  -24.6393  -11.6902   20.8747 C   0  0  0  0  0  0
  -23.9064  -10.4291   21.0417 C   0  0  0  0  0  0
  -24.3618   -9.4208   21.9192 C   0  0  0  0  0  0
  -23.6297   -8.2238   22.0755 C   0  0  0  0  0  0
  -22.4277   -8.0279   21.3548 C   0  0  0  0  0  0
  -21.9912   -9.0252   20.4649 C   0  0  0  0  0  0
  -22.7236  -10.2132   20.3066 C   0  0  0  0  0  0
  -21.6849   -6.0742   22.5284 C   0  0  0  0  0  0
  -21.4006   -6.5642   23.8219 C   0  0  0  0  0  0
  -21.3662   -5.6789   24.9177 C   0  0  0  0  0  0
  -21.6042   -4.3053   24.7224 C   0  0  0  0  0  0
  -21.8821   -3.8151   23.4344 C   0  0  0  0  0  0
  -21.9188   -4.6970   22.3401 C   0  0  0  0  0  0
  -22.7850  -13.5233   21.1849 C   0  0  0  0  0  0
  -22.1662   -4.2157   21.0979 F   0  0  0  0  0  0
  -21.5631   -3.4535   25.7735 F   0  0  0  0  0  0
  -30.0086  -13.4431   20.4341 N   0  0  0  0  0  0
  -26.2985  -12.9339   20.3311 N   0  0  0  0  0  0
  -25.9324  -11.6501   20.5757 N   0  0  0  0  0  0
  -22.0478  -12.8241   22.0410 N   0  0  0  0  0  0
  -25.4240  -15.1868   20.4037 N   0  0  0  0  0  0
  -31.7486  -14.8729   20.1234 O   0  0  0  0  0  0
  -21.6637   -6.8881   21.4246 O   0  0  0  0  0  0
  -22.3548  -14.5538   20.6683 O   0  0  0  0  0  0
  -24.6278  -31.8583   23.2005 C   0  0  0  0  0  0
  -25.9118  -32.4767   23.8350 C   0  0  1  0  0  0
  -27.2273  -27.3015   20.1293 C   0  0  0  0  0  0
  -25.5931  -33.8571   24.2273 N   0  0  0  0  0  0
  -23.4237  -30.4798   21.5430 C   0  0  2  0  0  0
  -24.8732  -28.9289   20.1132 C   0  0  0  0  0  0
  -22.7489  -29.4616   22.4931 C   0  0  0  0  0  0
  -18.0289  -28.1381   22.8490 C   0  0  0  0  0  0
  -24.1488  -36.7286   23.2634 C   0  0  0  0  0  0
  -25.9655  -30.7832   21.3751 C   0  0  0  0  0  0
  -26.0419  -29.4076   20.7204 C   0  0  0  0  0  0
  -27.2247  -28.6056   20.7182 C   0  0  0  0  0  0
  -26.0395  -26.8783   19.4966 C   0  0  0  0  0  0
  -24.8743  -27.6700   19.4909 C   0  0  0  0  0  0
  -23.6411  -29.8113   20.1599 C   0  0  0  0  0  0
  -25.4112  -36.3079   24.0327 C   0  0  1  0  0  0
  -20.5891  -28.3691   23.1277 C   0  0  2  0  0  0
  -20.6775  -26.9415   22.5403 C   0  0  0  0  0  0
  -19.5747  -26.6384   21.5214 C   0  0  0  0  0  0
  -18.1929  -26.7921   22.1633 C   0  0  0  0  0  0
  -19.1541  -28.8854   23.2879 C   0  0  0  0  0  0
  -18.9462  -30.1456   23.8892 C   0  0  0  0  0  0
  -17.6461  -30.6585   24.0560 C   0  0  0  0  0  0
  -25.9056  -34.9449   23.5102 C   0  0  0  0  0  0
  -16.5352  -29.9079   23.6332 C   0  0  0  0  0  0
  -16.7272  -28.6495   23.0357 C   0  0  0  0  0  0
  -26.4498  -31.6573   25.0722 C   0  0  0  0  0  0
  -25.3739  -31.3739   26.1460 C   0  0  0  0  0  0
  -27.0309  -30.2982   24.6187 C   0  0  0  0  0  0
  -27.6080  -32.4291   25.7474 C   0  0  0  0  0  0
  -27.5587  -37.1788   24.8458 C   0  0  0  0  0  0
  -21.4200  -29.3044   22.3673 N   0  0  0  0  0  0
  -26.4285  -37.3782   23.9419 N   0  0  0  0  0  0
  -24.6909  -31.0579   22.0962 N   0  0  0  0  0  0
  -23.4198  -28.8164   23.3030 O   0  0  0  0  0  0
  -28.3225  -26.4206   20.1404 O   0  0  0  0  0  0
  -26.5631  -34.8923   22.4671 O   0  0  0  0  0  0
  -23.5437  -32.1386   23.7321 O   0  0  0  0  0  0
  -28.4867  -17.8781   20.7642 C   0  0  0  0  0  0
  -30.8483  -18.0263   20.4758 C   0  0  0  0  0  0
  -29.4806  -20.1612   20.4332 C   0  0  0  0  0  0
  -29.7255  -17.1843   20.6824 C   0  0  0  0  0  0
  -28.3510  -19.2982   20.6336 C   0  0  0  0  0  0
  -30.7322  -19.4525   20.3592 C   0  0  0  0  0  0
  -28.8065  -23.9418   20.2352 C   0  0  0  0  0  0
  -28.5420  -22.5861   20.7858 C   0  0  0  0  0  0
  -28.1129  -25.0882   20.5782 C   0  0  0  0  0  0
  -29.9422  -23.8329   19.2673 C   0  0  0  0  0  0
  -30.3833  -22.3601   19.3954 C   0  0  0  0  0  0
  -29.4025  -21.6507   20.2401 N   0  0  0  0  0  0
  -27.0483  -19.7984   20.6715 N   0  0  0  0  0  0
  -29.7314  -15.7140   20.8446 N   0  0  0  0  0  0
  -27.6858  -22.3357   21.6392 O   0  0  0  0  0  0
  -31.8870  -20.1360   20.1813 F   0  0  0  0  0  0
  -31.4880  -12.5651   19.1601 H   0  0  0  0  0  0
  -30.3983  -11.4287   19.9011 H   0  0  0  0  0  0
  -29.7917  -11.7731   17.4845 H   0  0  0  0  0  0
  -29.6438  -13.4917   17.7468 H   0  0  0  0  0  0
  -27.8817  -11.2906   18.8722 H   0  0  0  0  0  0
  -27.3822  -12.5672   17.7959 H   0  0  0  0  0  0
  -27.6654  -14.2498   19.5181 H   0  0  0  0  0  0
  -28.7199  -12.0540   21.3693 H   0  0  0  0  0  0
  -28.4348  -13.6997   21.8502 H   0  0  0  0  0  0
  -25.2765   -9.5680   22.4759 H   0  0  0  0  0  0
  -24.0009   -7.4626   22.7470 H   0  0  0  0  0  0
  -21.0845   -8.8765   19.8957 H   0  0  0  0  0  0
  -22.3697  -10.9669   19.6172 H   0  0  0  0  0  0
  -21.1995   -7.6149   23.9726 H   0  0  0  0  0  0
  -21.1485   -6.0516   25.9079 H   0  0  0  0  0  0
  -22.0597   -2.7613   23.2833 H   0  0  0  0  0  0
  -22.4085  -11.9908   22.4821 H   0  0  0  0  0  0
  -21.1098  -13.1286   22.2601 H   0  0  0  0  0  0
  -24.6392  -15.8250   20.4723 H   0  0  0  0  0  0
  -26.2436  -15.6132   19.9936 H   0  0  0  0  0  0
  -26.7190  -32.5433   23.1104 H   0  0  0  0  0  0
  -25.0083  -33.9712   25.0422 H   0  0  0  0  0  0
  -22.7189  -31.3012   21.3979 H   0  0  0  0  0  0
  -23.3768  -35.9599   23.3264 H   0  0  0  0  0  0
  -24.3592  -36.8937   22.2056 H   0  0  0  0  0  0
  -23.7217  -37.6468   23.6676 H   0  0  0  0  0  0
  -26.0992  -31.5450   20.6060 H   0  0  0  0  0  0
  -26.8446  -30.8342   22.0054 H   0  0  0  0  0  0
  -28.1237  -28.9691   21.1963 H   0  0  0  0  0  0
  -26.0089  -25.9108   19.0165 H   0  0  0  0  0  0
  -23.9805  -27.2979   19.0097 H   0  0  0  0  0  0
  -23.7616  -30.5865   19.4025 H   0  0  0  0  0  0
  -22.7610  -29.2409   19.8582 H   0  0  0  0  0  0
  -25.1291  -36.1925   25.0820 H   0  0  0  0  0  0
  -20.9979  -28.3254   24.1399 H   0  0  0  0  0  0
  -20.5687  -26.2300   23.3603 H   0  0  0  0  0  0
  -21.6638  -26.7448   22.1180 H   0  0  0  0  0  0
  -19.6902  -25.6292   21.1248 H   0  0  0  0  0  0
  -19.6672  -27.3195   20.6743 H   0  0  0  0  0  0
  -17.4192  -26.6665   21.4042 H   0  0  0  0  0  0
  -18.0336  -26.0066   22.9034 H   0  0  0  0  0  0
  -19.7935  -30.7280   24.2253 H   0  0  0  0  0  0
  -17.5010  -31.6268   24.5150 H   0  0  0  0  0  0
  -15.5352  -30.2980   23.7658 H   0  0  0  0  0  0
  -15.8670  -28.0817   22.7076 H   0  0  0  0  0  0
  -24.5820  -30.7217   25.7764 H   0  0  0  0  0  0
  -24.9057  -32.2928   26.5000 H   0  0  0  0  0  0
  -25.8037  -30.8779   27.0169 H   0  0  0  0  0  0
  -26.2862  -29.6740   24.1233 H   0  0  0  0  0  0
  -27.4002  -29.7245   25.4696 H   0  0  0  0  0  0
  -27.8751  -30.4236   23.9403 H   0  0  0  0  0  0
  -27.2727  -33.3614   26.2034 H   0  0  0  0  0  0
  -28.3897  -32.6805   25.0291 H   0  0  0  0  0  0
  -28.0734  -31.8412   26.5395 H   0  0  0  0  0  0
  -28.2573  -38.0121   24.7562 H   0  0  0  0  0  0
  -28.1120  -36.2656   24.6210 H   0  0  0  0  0  0
  -27.2317  -37.1336   25.8862 H   0  0  0  0  0  0
  -20.9381  -29.8758   21.6872 H   0  0  0  0  0  0
  -26.0163  -38.2849   24.1456 H   0  0  0  0  0  0
  -27.5923  -17.2916   20.9191 H   0  0  0  0  0  0
  -31.8333  -17.5868   20.4145 H   0  0  0  0  0  0
  -27.3028  -25.0418   21.2949 H   0  0  0  0  0  0
  -30.7443  -24.5268   19.5215 H   0  0  0  0  0  0
  -29.5908  -24.0562   18.2593 H   0  0  0  0  0  0
  -31.3630  -22.3452   19.8715 H   0  0  0  0  0  0
  -30.4722  -21.8833   18.4183 H   0  0  0  0  0  0
  -26.3328  -19.1969   21.0665 H   0  0  0  0  0  0
  -26.9636  -20.7527   21.0259 H   0  0  0  0  0  0
  -28.8422  -15.3401   21.1385 H   0  0  0  0  0  0
  1 25  1  0  0  0
  1 30  2  0  0  0
  1 84  1  0  0  0
  2  3  1  0  0  0
  2 25  1  0  0  0
  2 87  1  0  0  0
  2 88  1  0  0  0
  3  4  1  0  0  0
  3 89  1  0  0  0
  3 90  1  0  0  0
  4  5  1  0  0  0
  4 91  1  0  0  0
  4 92  1  0  0  0
  5  6  1  0  0  0
  5 26  1  0  0  0
  5 93  1  0  0  0
  6 25  1  0  0  0
  6 94  1  0  0  0
  6 95  1  0  0  0
  7  8  2  0  0  0
  7 26  1  0  0  0
  7 29  1  0  0  0
  8  9  1  0  0  0
  8 22  1  0  0  0
  9 10  1  0  0  0
  9 27  2  0  0  0
 10 11  2  0  0  0
 10 15  1  0  0  0
 11 12  1  0  0  0
 11 96  1  0  0  0
 12 13  2  0  0  0
 12 97  1  0  0  0
 13 14  1  0  0  0
 13 31  1  0  0  0
 14 15  2  0  0  0
 14 98  1  0  0  0
 15 99  1  0  0  0
 16 17  2  0  0  0
 16 21  1  0  0  0
 16 31  1  0  0  0
 17 18  1  0  0  0
 17100  1  0  0  0
 18 19  2  0  0  0
 18101  1  0  0  0
 19 20  1  0  0  0
 19 24  1  0  0  0
 20 21  2  0  0  0
 20102  1  0  0  0
 21 23  1  0  0  0
 22 28  1  0  0  0
 22 32  2  0  0  0
 26 27  1  0  0  0
 28103  1  0  0  0
 28104  1  0  0  0
 29105  1  0  0  0
 29106  1  0  0  0
 33 34  1  0  0  0
 33 66  1  0  0  0
 33 70  2  0  0  0
 34 36  1  0  0  0
 34 59  1  0  0  0
 34107  1  0  0  0
 35 44  2  0  0  0
 35 45  1  0  0  0
 35 68  1  0  0  0
 36 56  1  0  0  0
 36108  1  0  0  0
 37 39  1  0  0  0
 37 47  1  0  0  0
 37 66  1  0  0  0
 37109  1  0  0  0
 38 43  2  0  0  0
 38 46  1  0  0  0
 38 47  1  0  0  0
 39 64  1  0  0  0
 39 67  2  0  0  0
 40 52  1  0  0  0
 40 53  2  0  0  0
 40 58  1  0  0  0
 41110  1  0  0  0
 41111  1  0  0  0
 41112  1  0  0  0
 41 48  1  0  0  0
 42 43  1  0  0  0
 42 66  1  0  0  0
 42113  1  0  0  0
 42114  1  0  0  0
 43 44  1  0  0  0
 44115  1  0  0  0
 45 46  2  0  0  0
 45116  1  0  0  0
 46117  1  0  0  0
 47118  1  0  0  0
 47119  1  0  0  0
 48 56  1  0  0  0
 48 65  1  0  0  0
 48120  1  0  0  0
 49 50  1  0  0  0
 49 53  1  0  0  0
 49 64  1  0  0  0
 49121  1  0  0  0
 50 51  1  0  0  0
 50122  1  0  0  0
 50123  1  0  0  0
 51 52  1  0  0  0
 51124  1  0  0  0
 51125  1  0  0  0
 52126  1  0  0  0
 52127  1  0  0  0
 53 54  1  0  0  0
 54 55  2  0  0  0
 54128  1  0  0  0
 55 57  1  0  0  0
 55129  1  0  0  0
 56 69  2  0  0  0
 57 58  2  0  0  0
 57130  1  0  0  0
 58131  1  0  0  0
 59 60  1  0  0  0
 59 61  1  0  0  0
 59 62  1  0  0  0
 60132  1  0  0  0
 60133  1  0  0  0
 60134  1  0  0  0
 61135  1  0  0  0
 61136  1  0  0  0
 61137  1  0  0  0
 62138  1  0  0  0
 62139  1  0  0  0
 62140  1  0  0  0
 63 65  1  0  0  0
 63141  1  0  0  0
 63142  1  0  0  0
 63143  1  0  0  0
 64144  1  0  0  0
 65145  1  0  0  0
 68 79  1  0  0  0
 71 74  2  0  0  0
 71 75  1  0  0  0
 71146  1  0  0  0
 72 74  1  0  0  0
 72 76  2  0  0  0
 72147  1  0  0  0
 73 75  2  0  0  0
 73 76  1  0  0  0
 73 82  1  0  0  0
 74 84  1  0  0  0
 75 83  1  0  0  0
 76 86  1  0  0  0
 77 78  1  0  0  0
 77 79  2  0  0  0
 77 80  1  0  0  0
 78 82  1  0  0  0
 78 85  2  0  0  0
 79148  1  0  0  0
 80 81  1  0  0  0
 80149  1  0  0  0
 80150  1  0  0  0
 81 82  1  0  0  0
 81151  1  0  0  0
 81152  1  0  0  0
 83153  1  0  0  0
 83154  1  0  0  0
 84155  1  0  0  0
M  ISO  4   1 100  68 101  79 101  84 100
M  END
> <chiral flag>
0

> <version>
0

> <s_m_source_file>
/data/baiqing/PycharmProjects/Reinvent-master-3.2/result/LINK_invent/BTK/process_docking_weight1_custom_product_contain_oxygen_bond_distance_aromatic_linkinvent_7_9_3/rearranged_h_0089.sdf

> <i_m_source_file_index>
89

> <r_mmod_Potential_Energy-OPLS-2005>
201.723403930664

> <r_mmod_Stretch_Energy-OPLS-2005>
98.5908508300781

> <r_mmod_Bend_Energy-OPLS-2005>
177.302520751953

> <r_mmod_Torsional_Energy-OPLS-2005>
271.044677734375

> <r_mmod_Improper_Torsional_Energy-OPLS-2005>
9.36205101013184

> <r_mmod_Van_der_Waal_Energy-OPLS-2005>
147.43962097168

> <r_mmod_Electrostatic_Energy-OPLS-2005>
-353.989532470703

> <r_mmod_Solvation_Energy-OPLS-2005>
-210.46989440918

> <b_mmod_Minimization_Converged-OPLS-2005>
0

> <r_mmod_RMS_Derivative-OPLS-2005>
1.33990585803986

$$$$
89
                    3D
 Structure written by MMmdl.
164173  0  0  1  0            999 V2000
  -30.6606  -14.5169   20.5821 C   0  0  0  0  0  0
  -30.4392  -12.3369   19.4241 C   0  0  0  0  0  0
  -29.5005  -12.5169   18.2105 C   0  0  0  0  0  0
  -28.0216  -12.3675   18.6221 C   0  0  0  0  0  0
  -27.6644  -13.2035   19.8792 C   0  0  2  0  0  0
  -28.7067  -12.9714   20.9968 C   0  0  0  0  0  0
  -25.2597  -13.8150   20.5669 C   0  0  0  0  0  0
  -24.1844  -13.0432   20.9169 C   0  0  0  0  0  0
  -24.6395  -11.6898   20.8729 C   0  0  0  0  0  0
  -23.9058  -10.4286   21.0403 C   0  0  0  0  0  0
  -24.3610   -9.4204   21.9182 C   0  0  0  0  0  0
  -23.6283   -8.2241   22.0754 C   0  0  0  0  0  0
  -22.4268   -8.0277   21.3541 C   0  0  0  0  0  0
  -21.9906   -9.0252   20.4642 C   0  0  0  0  0  0
  -22.7230  -10.2133   20.3051 C   0  0  0  0  0  0
  -21.6849   -6.0734   22.5279 C   0  0  0  0  0  0
  -21.4012   -6.5641   23.8212 C   0  0  0  0  0  0
  -21.3659   -5.6794   24.9174 C   0  0  0  0  0  0
  -21.6046   -4.3057   24.7224 C   0  0  0  0  0  0
  -21.8821   -3.8147   23.4346 C   0  0  0  0  0  0
  -21.9189   -4.6962   22.3401 C   0  0  0  0  0  0
  -22.7866  -13.5233   21.1838 C   0  0  0  0  0  0
  -22.1658   -4.2149   21.0979 F   0  0  0  0  0  0
  -21.5634   -3.4539   25.7738 F   0  0  0  0  0  0
  -30.0375  -13.3091   20.4545 N   0  0  0  0  0  0
  -26.3036  -12.9311   20.3373 N   0  0  0  0  0  0
  -25.9321  -11.6476   20.5763 N   0  0  0  0  0  0
  -22.0508  -12.8219   22.0396 N   0  0  0  0  0  0
  -25.4319  -15.1867   20.4068 N   0  0  0  0  0  0
  -31.7671  -14.7504   20.0852 O   0  0  0  0  0  0
  -21.6632   -6.8875   21.4239 O   0  0  0  0  0  0
  -22.3550  -14.5537   20.6689 O   0  0  0  0  0  0
  -24.6188  -31.8655   23.2080 C   0  0  0  0  0  0
  -25.9071  -32.4814   23.8381 C   0  0  1  0  0  0
  -27.2393  -27.4032   20.0902 C   0  0  0  0  0  0
  -25.5918  -33.8613   24.2303 N   0  0  0  0  0  0
  -23.4079  -30.4896   21.5492 C   0  0  2  0  0  0
  -24.8552  -28.9537   20.1126 C   0  0  0  0  0  0
  -22.7421  -29.4656   22.4976 C   0  0  0  0  0  0
  -18.0276  -28.1380   22.8503 C   0  0  0  0  0  0
  -24.1480  -36.7300   23.2634 C   0  0  0  0  0  0
  -25.9409  -30.8220   21.3656 C   0  0  0  0  0  0
  -26.0190  -29.4550   20.7088 C   0  0  0  0  0  0
  -27.2120  -28.6872   20.6951 C   0  0  0  0  0  0
  -26.0452  -26.9215   19.5015 C   0  0  0  0  0  0
  -24.8650  -27.6875   19.5063 C   0  0  0  0  0  0
  -23.6176  -29.8225   20.1640 C   0  0  0  0  0  0
  -25.4108  -36.3102   24.0331 C   0  0  1  0  0  0
  -20.5870  -28.3676   23.1316 C   0  0  2  0  0  0
  -20.6764  -26.9406   22.5431 C   0  0  0  0  0  0
  -19.5743  -26.6389   21.5222 C   0  0  0  0  0  0
  -18.1915  -26.7932   22.1619 C   0  0  0  0  0  0
  -19.1525  -28.8844   23.2906 C   0  0  0  0  0  0
  -18.9452  -30.1452   23.8913 C   0  0  0  0  0  0
  -17.6456  -30.6590   24.0574 C   0  0  0  0  0  0
  -25.9049  -34.9474   23.5112 C   0  0  0  0  0  0
  -16.5349  -29.9095   23.6330 C   0  0  0  0  0  0
  -16.7268  -28.6505   23.0362 C   0  0  0  0  0  0
  -26.4482  -31.6611   25.0725 C   0  0  0  0  0  0
  -25.3737  -31.3717   26.1464 C   0  0  0  0  0  0
  -27.0329  -30.3053   24.6125 C   0  0  0  0  0  0
  -27.6045  -32.4343   25.7493 C   0  0  0  0  0  0
  -27.5591  -37.1787   24.8445 C   0  0  0  0  0  0
  -21.4145  -29.3041   22.3712 N   0  0  0  0  0  0
  -26.4278  -37.3806   23.9430 N   0  0  0  0  0  0
  -24.6743  -31.0733   22.0992 N   0  0  0  0  0  0
  -23.4175  -28.8200   23.3037 O   0  0  0  0  0  0
  -28.3898  -26.6237   20.1360 O   0  0  0  0  0  0
  -26.5609  -34.8931   22.4672 O   0  0  0  0  0  0
  -23.5376  -32.1417   23.7463 O   0  0  0  0  0  0
  -30.7005  -19.1401   20.5365 C   0  0  0  0  0  0
  -30.7981  -17.7210   20.4475 C   0  0  0  0  0  0
  -28.9185  -18.9124   22.1646 C   0  0  0  0  0  0
  -29.7638  -19.7551   21.4072 C   0  0  0  0  0  0
  -29.9539  -16.8858   21.2274 C   0  0  0  0  0  0
  -29.0080  -17.5080   22.0704 C   0  0  0  0  0  0
  -28.8883  -24.2659   19.6200 C   0  0  0  0  0  0
  -28.5043  -25.5318   19.2929 C   0  0  0  0  0  0
  -29.7076  -21.2205   21.6657 C   0  0  0  0  0  0
  -28.9438  -23.1662   18.5875 C   0  0  0  0  0  0
  -29.1378  -21.8524   19.3453 C   0  0  0  0  0  0
  -29.2629  -23.6882   20.9930 C   0  0  0  0  0  0
  -28.1260  -23.9789   21.9984 C   0  0  0  0  0  0
  -30.5946  -24.3200   21.4474 C   0  0  0  0  0  0
  -29.4194  -22.2017   20.7503 N   0  0  0  0  0  0
  -29.9330  -15.4493   21.2311 N   0  0  0  0  0  0
  -29.9356  -21.5816   22.9255 N   0  3  0  0  0  0
  -28.1763  -16.7364   22.8128 F   0  0  0  0  0  0
  -31.4795  -12.4632   19.1196 H   0  0  0  0  0  0
  -30.3659  -11.3223   19.8194 H   0  0  0  0  0  0
  -29.7458  -11.7915   17.4335 H   0  0  0  0  0  0
  -29.6582  -13.5018   17.7688 H   0  0  0  0  0  0
  -27.8368  -11.3104   18.8172 H   0  0  0  0  0  0
  -27.3701  -12.6406   17.7913 H   0  0  0  0  0  0
  -27.7104  -14.2529   19.5870 H   0  0  0  0  0  0
  -28.6955  -11.9258   21.3091 H   0  0  0  0  0  0
  -28.4511  -13.5368   21.8938 H   0  0  0  0  0  0
  -25.2757   -9.5679   22.4755 H   0  0  0  0  0  0
  -23.9991   -7.4635   22.7477 H   0  0  0  0  0  0
  -21.0839   -8.8766   19.8947 H   0  0  0  0  0  0
  -22.3686  -10.9671   19.6159 H   0  0  0  0  0  0
  -21.2006   -7.6151   23.9712 H   0  0  0  0  0  0
  -21.1484   -6.0527   25.9077 H   0  0  0  0  0  0
  -22.0602   -2.7609   23.2847 H   0  0  0  0  0  0
  -22.4122  -11.9868   22.4763 H   0  0  0  0  0  0
  -21.1128  -13.1240   22.2614 H   0  0  0  0  0  0
  -24.6678  -15.8434   20.5209 H   0  0  0  0  0  0
  -26.2886  -15.6259   20.0960 H   0  0  0  0  0  0
  -26.7141  -32.5515   23.1145 H   0  0  0  0  0  0
  -25.0084  -33.9770   25.0459 H   0  0  0  0  0  0
  -22.6986  -31.3080   21.4090 H   0  0  0  0  0  0
  -23.3772  -35.9599   23.3252 H   0  0  0  0  0  0
  -24.3574  -36.8974   22.2058 H   0  0  0  0  0  0
  -23.7191  -37.6468   23.6688 H   0  0  0  0  0  0
  -26.0575  -31.5901   20.5999 H   0  0  0  0  0  0
  -26.8266  -30.8733   21.9870 H   0  0  0  0  0  0
  -28.1083  -29.0687   21.1640 H   0  0  0  0  0  0
  -26.0028  -25.9415   19.0491 H   0  0  0  0  0  0
  -23.9677  -27.2912   19.0515 H   0  0  0  0  0  0
  -23.7250  -30.5971   19.4039 H   0  0  0  0  0  0
  -22.7410  -29.2426   19.8688 H   0  0  0  0  0  0
  -25.1280  -36.1949   25.0822 H   0  0  0  0  0  0
  -20.9968  -28.3256   24.1436 H   0  0  0  0  0  0
  -20.5667  -26.2285   23.3622 H   0  0  0  0  0  0
  -21.6634  -26.7445   22.1229 H   0  0  0  0  0  0
  -19.6903  -25.6303   21.1243 H   0  0  0  0  0  0
  -19.6689  -27.3204   20.6757 H   0  0  0  0  0  0
  -17.4202  -26.6727   21.4000 H   0  0  0  0  0  0
  -18.0282  -26.0053   22.8986 H   0  0  0  0  0  0
  -19.7930  -30.7264   24.2287 H   0  0  0  0  0  0
  -17.5015  -31.6267   24.5180 H   0  0  0  0  0  0
  -15.5350  -30.3007   23.7639 H   0  0  0  0  0  0
  -15.8665  -28.0829   22.7074 H   0  0  0  0  0  0
  -24.5944  -30.7021   25.7809 H   0  0  0  0  0  0
  -24.8887  -32.2869   26.4867 H   0  0  0  0  0  0
  -25.8098  -30.8937   27.0244 H   0  0  0  0  0  0
  -26.2885  -29.6806   24.1181 H   0  0  0  0  0  0
  -27.4095  -29.7308   25.4599 H   0  0  0  0  0  0
  -27.8717  -30.4378   23.9289 H   0  0  0  0  0  0
  -27.2652  -33.3640   26.2074 H   0  0  0  0  0  0
  -28.3850  -32.6912   25.0320 H   0  0  0  0  0  0
  -28.0714  -31.8467   26.5409 H   0  0  0  0  0  0
  -28.2555  -38.0141   24.7608 H   0  0  0  0  0  0
  -28.1145  -36.2686   24.6129 H   0  0  0  0  0  0
  -27.2324  -37.1264   25.8845 H   0  0  0  0  0  0
  -20.9302  -29.8774   21.6945 H   0  0  0  0  0  0
  -26.0161  -38.2862   24.1520 H   0  0  0  0  0  0
  -31.3835  -19.7538   19.9650 H   0  0  0  0  0  0
  -31.5329  -17.2891   19.7843 H   0  0  0  0  0  0
  -28.1964  -19.3421   22.8435 H   0  0  0  0  0  0
  -28.2561  -25.7981   18.2747 H   0  0  0  0  0  0
  -29.7792  -23.3435   17.9088 H   0  0  0  0  0  0
  -28.0269  -23.1508   17.9975 H   0  0  0  0  0  0
  -29.9505  -21.2768   18.9011 H   0  0  0  0  0  0
  -28.2326  -21.2444   19.2908 H   0  0  0  0  0  0
  -27.8508  -25.0329   22.0068 H   0  0  0  0  0  0
  -28.4002  -23.7321   23.0227 H   0  0  0  0  0  0
  -27.2269  -23.4135   21.7520 H   0  0  0  0  0  0
  -30.5893  -25.4010   21.3037 H   0  0  0  0  0  0
  -31.4367  -23.9239   20.8786 H   0  0  0  0  0  0
  -30.7981  -24.1468   22.5034 H   0  0  0  0  0  0
  -29.1284  -15.0720   21.7089 H   0  0  0  0  0  0
  -30.1935  -20.8785   23.6015 H   0  0  0  0  0  0
  -29.9222  -22.5453   23.2069 H   0  0  0  0  0  0
  1 25  1  0  0  0
  1 30  2  0  0  0
  1 86  1  0  0  0
  2  3  1  0  0  0
  2 25  1  0  0  0
  2 89  1  0  0  0
  2 90  1  0  0  0
  3  4  1  0  0  0
  3 91  1  0  0  0
  3 92  1  0  0  0
  4  5  1  0  0  0
  4 93  1  0  0  0
  4 94  1  0  0  0
  5  6  1  0  0  0
  5 26  1  0  0  0
  5 95  1  0  0  0
  6 25  1  0  0  0
  6 96  1  0  0  0
  6 97  1  0  0  0
  7  8  2  0  0  0
  7 26  1  0  0  0
  7 29  1  0  0  0
  8  9  1  0  0  0
  8 22  1  0  0  0
  9 10  1  0  0  0
  9 27  2  0  0  0
 10 11  2  0  0  0
 10 15  1  0  0  0
 11 12  1  0  0  0
 11 98  1  0  0  0
 12 13  2  0  0  0
 12 99  1  0  0  0
 13 14  1  0  0  0
 13 31  1  0  0  0
 14 15  2  0  0  0
 14100  1  0  0  0
 15101  1  0  0  0
 16 17  2  0  0  0
 16 21  1  0  0  0
 16 31  1  0  0  0
 17 18  1  0  0  0
 17102  1  0  0  0
 18 19  2  0  0  0
 18103  1  0  0  0
 19 20  1  0  0  0
 19 24  1  0  0  0
 20 21  2  0  0  0
 20104  1  0  0  0
 21 23  1  0  0  0
 22 28  1  0  0  0
 22 32  2  0  0  0
 26 27  1  0  0  0
 28105  1  0  0  0
 28106  1  0  0  0
 29107  1  0  0  0
 29108  1  0  0  0
 33 34  1  0  0  0
 33 66  1  0  0  0
 33 70  2  0  0  0
 34 36  1  0  0  0
 34 59  1  0  0  0
 34109  1  0  0  0
 35 44  2  0  0  0
 35 45  1  0  0  0
 35 68  1  0  0  0
 36 56  1  0  0  0
 36110  1  0  0  0
 37 39  1  0  0  0
 37 47  1  0  0  0
 37 66  1  0  0  0
 37111  1  0  0  0
 38 43  2  0  0  0
 38 46  1  0  0  0
 38 47  1  0  0  0
 39 64  1  0  0  0
 39 67  2  0  0  0
 40 52  1  0  0  0
 40 53  2  0  0  0
 40 58  1  0  0  0
 41112  1  0  0  0
 41113  1  0  0  0
 41114  1  0  0  0
 41 48  1  0  0  0
 42 43  1  0  0  0
 42 66  1  0  0  0
 42115  1  0  0  0
 42116  1  0  0  0
 43 44  1  0  0  0
 44117  1  0  0  0
 45 46  2  0  0  0
 45118  1  0  0  0
 46119  1  0  0  0
 47120  1  0  0  0
 47121  1  0  0  0
 48 56  1  0  0  0
 48 65  1  0  0  0
 48122  1  0  0  0
 49 50  1  0  0  0
 49 53  1  0  0  0
 49 64  1  0  0  0
 49123  1  0  0  0
 50 51  1  0  0  0
 50124  1  0  0  0
 50125  1  0  0  0
 51 52  1  0  0  0
 51126  1  0  0  0
 51127  1  0  0  0
 52128  1  0  0  0
 52129  1  0  0  0
 53 54  1  0  0  0
 54 55  2  0  0  0
 54130  1  0  0  0
 55 57  1  0  0  0
 55131  1  0  0  0
 56 69  2  0  0  0
 57 58  2  0  0  0
 57132  1  0  0  0
 58133  1  0  0  0
 59 60  1  0  0  0
 59 61  1  0  0  0
 59 62  1  0  0  0
 60134  1  0  0  0
 60135  1  0  0  0
 60136  1  0  0  0
 61137  1  0  0  0
 61138  1  0  0  0
 61139  1  0  0  0
 62140  1  0  0  0
 62141  1  0  0  0
 62142  1  0  0  0
 63 65  1  0  0  0
 63143  1  0  0  0
 63144  1  0  0  0
 63145  1  0  0  0
 64146  1  0  0  0
 65147  1  0  0  0
 68 78  1  0  0  0
 71 72  2  0  0  0
 71 74  1  0  0  0
 71148  1  0  0  0
 72 75  1  0  0  0
 72149  1  0  0  0
 73 74  2  0  0  0
 73 76  1  0  0  0
 73150  1  0  0  0
 74 79  1  0  0  0
 75 76  2  0  0  0
 75 86  1  0  0  0
 76 88  1  0  0  0
 77 78  2  0  0  0
 77 80  1  0  0  0
 77 82  1  0  0  0
 78151  1  0  0  0
 79 85  1  0  0  0
 79 87  2  0  0  0
 80 81  1  0  0  0
 80152  1  0  0  0
 80153  1  0  0  0
 81 85  1  0  0  0
 81154  1  0  0  0
 81155  1  0  0  0
 82 83  1  0  0  0
 82 84  1  0  0  0
 82 85  1  0  0  0
 83156  1  0  0  0
 83157  1  0  0  0
 83158  1  0  0  0
 84159  1  0  0  0
 84160  1  0  0  0
 84161  1  0  0  0
 86162  1  0  0  0
 87163  1  0  0  0
 87164  1  0  0  0
M  CHG  1  87   1
M  ISO  4   1 100  68 101  78 101  86 100
M  END
> <chiral flag>
0

> <version>
0

> <s_m_source_file>
/data/baiqing/PycharmProjects/Reinvent-master-3.2/result/LINK_invent/BTK/process_docking_weight1_custom_product_contain_oxygen_bond_distance_aromatic_linkinvent_7_9_3/rearranged_h_0089.sdf

> <i_m_source_file_index>
90

> <r_mmod_Potential_Energy-OPLS-2005>
-206.94465637207

> <r_mmod_Stretch_Energy-OPLS-2005>
50.0903701782227

> <r_mmod_Bend_Energy-OPLS-2005>
142.356231689453

> <r_mmod_Torsional_Energy-OPLS-2005>
261.925750732422

> <r_mmod_Improper_Torsional_Energy-OPLS-2005>
3.30973243713379

> <r_mmod_Van_der_Waal_Energy-OPLS-2005>
153.999160766602

> <r_mmod_Electrostatic_Energy-OPLS-2005>
-460.842102050781

> <r_mmod_Solvation_Energy-OPLS-2005>
-376.566253662109

> <b_mmod_Minimization_Converged-OPLS-2005>
0

> <r_mmod_RMS_Derivative-OPLS-2005>
0.726967394351959

$$$$
90
                    3D
 Structure written by MMmdl.
168176  0  0  1  0            999 V2000
  -29.7933  -14.3512   21.1025 C   0  0  0  0  0  0
  -30.7889  -12.6932   19.3051 C   0  0  0  0  0  0
  -29.8809  -12.5492   18.0072 C   0  0  0  0  0  0
  -28.3758  -12.2799   18.2257 C   0  0  0  0  0  0
  -28.0492  -13.0428   19.4443 C   0  0  2  0  0  0
  -29.0016  -12.3515   20.5426 C   0  0  0  0  0  0
  -25.8279  -13.7273   19.8421 C   0  0  0  0  0  0
  -24.4203  -13.2628   21.0671 C   0  0  0  0  0  0
  -24.4194  -12.0653   21.5697 C   0  0  0  0  0  0
  -23.7629  -10.6524   21.3807 C   0  0  0  0  0  0
  -24.2809   -9.5458   22.1032 C   0  0  0  0  0  0
  -23.6415   -8.2817   22.1060 C   0  0  0  0  0  0
  -22.4607   -8.0709   21.3575 C   0  0  0  0  0  0
  -22.0236   -9.1073   20.5079 C   0  0  0  0  0  0
  -22.6697  -10.3685   20.5085 C   0  0  0  0  0  0
  -21.7061   -6.0902   22.5058 C   0  0  0  0  0  0
  -21.4181   -6.5791   23.8016 C   0  0  0  0  0  0
  -21.3728   -5.6930   24.9008 C   0  0  0  0  0  0
  -21.6007   -4.3176   24.7098 C   0  0  0  0  0  0
  -21.8762   -3.8260   23.4220 C   0  0  0  0  0  0
  -21.9235   -4.7083   22.3266 C   0  0  0  0  0  0
  -22.8398  -13.7089   21.5161 C   0  0  0  0  0  0
  -22.1717   -4.2192   21.0877 F   0  0  0  0  0  0
  -21.5571   -3.4646   25.7627 F   0  0  0  0  0  0
  -30.0393  -13.1605   20.4997 N   0  0  0  0  0  0
  -26.5514  -13.1792   19.5036 N   0  0  0  0  0  0
  -25.1043  -13.1127   20.7095 N   0  0  0  0  0  0
  -22.0615  -12.8883   22.2325 N   0  0  0  0  0  0
  -26.3676  -14.8492   18.9891 N   0  0  0  0  0  0
  -30.7678  -15.1172   20.8599 O   0  0  0  0  0  0
  -21.7239   -6.9040   21.3939 O   0  0  0  0  0  0
  -22.2198  -14.7154   21.1699 O   0  0  0  0  0  0
  -24.6567  -31.8406   23.1816 C   0  0  0  0  0  0
  -25.9295  -32.4686   23.8200 C   0  0  1  0  0  0
  -26.9938  -26.9240   20.2562 C   0  0  0  0  0  0
  -25.6004  -33.8490   24.2141 N   0  0  0  0  0  0
  -23.4511  -30.4717   21.5352 C   0  0  2  0  0  0
  -24.8663  -28.8820   20.0978 C   0  0  0  0  0  0
  -22.7567  -29.4559   22.4797 C   0  0  0  0  0  0
  -18.0295  -28.1401   22.8461 C   0  0  0  0  0  0
  -24.1494  -36.7248   23.2635 C   0  0  0  0  0  0
  -26.0169  -30.6508   21.4097 C   0  0  0  0  0  0
  -26.0481  -29.2458   20.7529 C   0  0  0  0  0  0
  -27.1376  -28.2811   20.8052 C   0  0  0  0  0  0
  -25.8334  -26.7150   19.5095 C   0  0  0  0  0  0
  -24.7850  -27.6479   19.4411 C   0  0  0  0  0  0
  -23.6763  -29.8246   20.1428 C   0  0  0  0  0  0
  -25.4132  -36.3049   24.0318 C   0  0  1  0  0  0
  -20.5914  -28.3752   23.1193 C   0  0  2  0  0  0
  -20.6802  -26.9438   22.5393 C   0  0  0  0  0  0
  -19.5773  -26.6372   21.5208 C   0  0  0  0  0  0
  -18.1944  -26.7938   22.1610 C   0  0  0  0  0  0
  -19.1554  -28.8882   23.2825 C   0  0  0  0  0  0
  -18.9476  -30.1475   23.8856 C   0  0  0  0  0  0
  -17.6472  -30.6598   24.0554 C   0  0  0  0  0  0
  -25.9083  -34.9421   23.5038 C   0  0  0  0  0  0
  -16.5358  -29.9086   23.6348 C   0  0  0  0  0  0
  -16.7283  -28.6512   23.0359 C   0  0  0  0  0  0
  -26.4539  -31.6610   25.0708 C   0  0  0  0  0  0
  -25.3655  -31.3882   26.1361 C   0  0  0  0  0  0
  -27.0455  -30.2994   24.6477 C   0  0  0  0  0  0
  -27.6056  -32.4372   25.7534 C   0  0  0  0  0  0
  -27.5592  -37.1782   24.8450 C   0  0  0  0  0  0
  -21.4258  -29.3074   22.3542 N   0  0  0  0  0  0
  -26.4291  -37.3776   23.9404 N   0  0  0  0  0  0
  -24.7298  -31.0124   22.0969 N   0  0  0  0  0  0
  -23.4168  -28.8073   23.2949 O   0  0  0  0  0  0
  -27.8379  -25.7451   20.3512 O   0  0  0  0  0  0
  -26.5649  -34.8953   22.4604 O   0  0  0  0  0  0
  -23.5663  -32.1362   23.6969 O   0  0  0  0  0  0
  -26.7285  -11.7309   21.2170 C   0  0  0  0  0  0
  -24.0024  -14.8941   19.4573 C   0  0  0  0  0  0
  -25.3723  -11.2766   19.4642 C   0  0  0  0  0  0
  -24.0904  -12.8386   18.6809 C   0  0  0  0  0  0
  -25.4003  -15.4688   21.1390 C   0  0  0  0  0  0
  -26.8996  -13.9165   21.8390 C   0  0  0  0  0  0
  -24.2341  -12.5523   16.3562 C   0  0  0  0  0  0
  -26.0921  -19.9374   20.6971 C   0  0  0  0  0  0
  -24.1152  -11.3994   15.3689 C   0  0  0  0  0  0
  -28.5266  -15.7990   22.5892 C   0  0  0  0  0  0
  -26.4353  -18.3067   21.1753 C   0  0  0  0  0  0
  -26.7326  -22.7365   20.3122 C   0  0  0  0  0  0
  -27.4143  -24.2616   20.9054 C   0  0  0  0  0  0
  -25.4264  -10.0453   18.8059 N   0  0  0  0  0  0
  -23.4852  -12.4817   17.4630 N   0  0  0  0  0  0
  -25.4495  -17.0177   21.1971 N   0  0  0  0  0  0
  -26.8416  -21.1874   20.8894 N   0  0  0  0  0  0
  -28.4518  -14.5505   21.8333 N   0  0  0  0  0  0
  -24.9710  -13.5050   16.0954 O   0  0  0  0  0  0
  -25.0486  -20.0349   20.0496 O   0  0  0  0  0  0
  -31.6197  -13.3744   19.1097 H   0  0  0  0  0  0
  -31.2558  -11.7304   19.5309 H   0  0  0  0  0  0
  -30.2893  -11.7858   17.3478 H   0  0  0  0  0  0
  -29.9695  -13.4871   17.4546 H   0  0  0  0  0  0
  -28.1593  -11.2186   18.3474 H   0  0  0  0  0  0
  -27.8010  -12.6220   17.3622 H   0  0  0  0  0  0
  -28.4398  -14.0119   19.1251 H   0  0  0  0  0  0
  -29.2249  -11.3106   20.2901 H   0  0  0  0  0  0
  -28.8783  -12.2503   21.6289 H   0  0  0  0  0  0
  -25.1480   -9.6922   22.7302 H   0  0  0  0  0  0
  -24.0433   -7.4922   22.7245 H   0  0  0  0  0  0
  -21.1528   -8.9569   19.8829 H   0  0  0  0  0  0
  -22.2635  -11.1603   19.8945 H   0  0  0  0  0  0
  -21.2336   -7.6318   23.9529 H   0  0  0  0  0  0
  -21.1568   -6.0730   25.8904 H   0  0  0  0  0  0
  -22.0462   -2.7709   23.2707 H   0  0  0  0  0  0
  -22.3752  -11.9894   22.5702 H   0  0  0  0  0  0
  -21.1153  -13.1792   22.4260 H   0  0  0  0  0  0
  -25.8401  -15.7106   18.9348 H   0  0  0  0  0  0
  -26.9987  -14.7204   18.2113 H   0  0  0  0  0  0
  -26.7317  -32.5252   23.0860 H   0  0  0  0  0  0
  -25.0162  -33.9585   25.0305 H   0  0  0  0  0  0
  -22.7647  -31.3088   21.3945 H   0  0  0  0  0  0
  -23.3827  -35.9503   23.3269 H   0  0  0  0  0  0
  -24.3540  -36.8928   22.2043 H   0  0  0  0  0  0
  -23.7173  -37.6406   23.6691 H   0  0  0  0  0  0
  -26.2043  -31.3977   20.6351 H   0  0  0  0  0  0
  -26.8730  -30.6802   22.0691 H   0  0  0  0  0  0
  -28.0324  -28.5226   21.3641 H   0  0  0  0  0  0
  -25.6870  -25.7576   19.0309 H   0  0  0  0  0  0
  -23.8840  -27.3802   18.9108 H   0  0  0  0  0  0
  -23.8506  -30.6106   19.4058 H   0  0  0  0  0  0
  -22.7759  -29.3059   19.8135 H   0  0  0  0  0  0
  -25.1326  -36.1866   25.0814 H   0  0  0  0  0  0
  -20.9994  -28.3358   24.1322 H   0  0  0  0  0  0
  -20.5705  -26.2339   23.3617 H   0  0  0  0  0  0
  -21.6664  -26.7450   22.1168 H   0  0  0  0  0  0
  -19.6933  -25.6263   21.1277 H   0  0  0  0  0  0
  -19.6727  -27.3155   20.6719 H   0  0  0  0  0  0
  -17.4211  -26.6670   21.4028 H   0  0  0  0  0  0
  -18.0352  -26.0083   22.9015 H   0  0  0  0  0  0
  -19.7950  -30.7308   24.2215 H   0  0  0  0  0  0
  -17.5030  -31.6289   24.5150 H   0  0  0  0  0  0
  -15.5357  -30.2973   23.7729 H   0  0  0  0  0  0
  -15.8690  -28.0840   22.7093 H   0  0  0  0  0  0
  -24.5785  -30.7315   25.7647 H   0  0  0  0  0  0
  -24.8889  -32.3107   26.4698 H   0  0  0  0  0  0
  -25.7809  -30.9050   27.0212 H   0  0  0  0  0  0
  -26.3134  -29.6650   24.1488 H   0  0  0  0  0  0
  -27.4007  -29.7408   25.5153 H   0  0  0  0  0  0
  -27.9056  -30.4233   23.9896 H   0  0  0  0  0  0
  -27.2664  -33.3700   26.2078 H   0  0  0  0  0  0
  -28.3912  -32.6909   25.0389 H   0  0  0  0  0  0
  -28.0698  -31.8512   26.5497 H   0  0  0  0  0  0
  -28.2585  -38.0118   24.7582 H   0  0  0  0  0  0
  -28.1131  -36.2652   24.6185 H   0  0  0  0  0  0
  -27.2301  -37.1314   25.8852 H   0  0  0  0  0  0
  -20.9443  -29.8811   21.6772 H   0  0  0  0  0  0
  -26.0189  -38.2862   24.1411 H   0  0  0  0  0  0
  -27.3530  -10.9292   21.5826 H   0  0  0  0  0  0
  -23.3898  -15.6462   18.9774 H   0  0  0  0  0  0
  -23.9382  -10.4597   15.8947 H   0  0  0  0  0  0
  -25.0490  -11.2878   14.8174 H   0  0  0  0  0  0
  -23.3097  -11.5722   14.6565 H   0  0  0  0  0  0
  -27.5747  -16.0496   23.0560 H   0  0  0  0  0  0
  -28.8095  -16.6401   21.9496 H   0  0  0  0  0  0
  -29.2617  -15.6974   23.3898 H   0  0  0  0  0  0
  -26.8461  -18.3811   22.1804 H   0  0  0  0  0  0
  -27.2782  -18.0259   20.5439 H   0  0  0  0  0  0
  -27.0652  -22.6516   19.2773 H   0  0  0  0  0  0
  -25.6614  -22.9237   20.2263 H   0  0  0  0  0  0
  -28.3839  -23.9291   21.2775 H   0  0  0  0  0  0
  -26.8665  -24.4672   21.8266 H   0  0  0  0  0  0
  -25.8545   -9.2711   19.2990 H   0  0  0  0  0  0
  -24.5913   -9.7562   18.3121 H   0  0  0  0  0  0
  -22.8858  -11.6704   17.4955 H   0  0  0  0  0  0
  -24.5580  -17.3631   20.8572 H   0  0  0  0  0  0
  -27.6803  -21.0360   21.4370 H   0  0  0  0  0  0
  1 25  1  0  0  0
  1 30  2  0  0  0
  1 88  1  0  0  0
  2  3  1  0  0  0
  2 25  1  0  0  0
  2 91  1  0  0  0
  2 92  1  0  0  0
  3  4  1  0  0  0
  3 93  1  0  0  0
  3 94  1  0  0  0
  4  5  1  0  0  0
  4 95  1  0  0  0
  4 96  1  0  0  0
  5  6  1  0  0  0
  5 26  1  0  0  0
  5 97  1  0  0  0
  6 25  1  0  0  0
  6 98  1  0  0  0
  6 99  1  0  0  0
  7  8  2  0  0  0
  7 26  1  0  0  0
  7 29  1  0  0  0
  8  9  1  0  0  0
  8 22  1  0  0  0
  9 10  1  0  0  0
  9 27  2  0  0  0
 10 11  2  0  0  0
 10 15  1  0  0  0
 11 12  1  0  0  0
 11100  1  0  0  0
 12 13  2  0  0  0
 12101  1  0  0  0
 13 14  1  0  0  0
 13 31  1  0  0  0
 14 15  2  0  0  0
 14102  1  0  0  0
 15103  1  0  0  0
 16 17  2  0  0  0
 16 21  1  0  0  0
 16 31  1  0  0  0
 17 18  1  0  0  0
 17104  1  0  0  0
 18 19  2  0  0  0
 18105  1  0  0  0
 19 20  1  0  0  0
 19 24  1  0  0  0
 20 21  2  0  0  0
 20106  1  0  0  0
 21 23  1  0  0  0
 22 28  1  0  0  0
 22 32  2  0  0  0
 26 27  1  0  0  0
 28107  1  0  0  0
 28108  1  0  0  0
 29109  1  0  0  0
 29110  1  0  0  0
 33 34  1  0  0  0
 33 66  1  0  0  0
 33 70  2  0  0  0
 34 36  1  0  0  0
 34 59  1  0  0  0
 34111  1  0  0  0
 35 44  2  0  0  0
 35 45  1  0  0  0
 35 68  1  0  0  0
 36 56  1  0  0  0
 36112  1  0  0  0
 37 39  1  0  0  0
 37 47  1  0  0  0
 37 66  1  0  0  0
 37113  1  0  0  0
 38 43  2  0  0  0
 38 46  1  0  0  0
 38 47  1  0  0  0
 39 64  1  0  0  0
 39 67  2  0  0  0
 40 52  1  0  0  0
 40 53  2  0  0  0
 40 58  1  0  0  0
 41114  1  0  0  0
 41115  1  0  0  0
 41116  1  0  0  0
 41 48  1  0  0  0
 42 43  1  0  0  0
 42 66  1  0  0  0
 42117  1  0  0  0
 42118  1  0  0  0
 43 44  1  0  0  0
 44119  1  0  0  0
 45 46  2  0  0  0
 45120  1  0  0  0
 46121  1  0  0  0
 47122  1  0  0  0
 47123  1  0  0  0
 48 56  1  0  0  0
 48 65  1  0  0  0
 48124  1  0  0  0
 49 50  1  0  0  0
 49 53  1  0  0  0
 49 64  1  0  0  0
 49125  1  0  0  0
 50 51  1  0  0  0
 50126  1  0  0  0
 50127  1  0  0  0
 51 52  1  0  0  0
 51128  1  0  0  0
 51129  1  0  0  0
 52130  1  0  0  0
 52131  1  0  0  0
 53 54  1  0  0  0
 54 55  2  0  0  0
 54132  1  0  0  0
 55 57  1  0  0  0
 55133  1  0  0  0
 56 69  2  0  0  0
 57 58  2  0  0  0
 57134  1  0  0  0
 58135  1  0  0  0
 59 60  1  0  0  0
 59 61  1  0  0  0
 59 62  1  0  0  0
 60136  1  0  0  0
 60137  1  0  0  0
 60138  1  0  0  0
 61139  1  0  0  0
 61140  1  0  0  0
 61141  1  0  0  0
 62142  1  0  0  0
 62143  1  0  0  0
 62144  1  0  0  0
 63 65  1  0  0  0
 63145  1  0  0  0
 63146  1  0  0  0
 63147  1  0  0  0
 64148  1  0  0  0
 65149  1  0  0  0
 68 83  1  0  0  0
 71 73  2  0  0  0
 71 76  1  0  0  0
 71150  1  0  0  0
 72 74  2  0  0  0
 72 75  1  0  0  0
 72151  1  0  0  0
 73 74  1  0  0  0
 73 84  1  0  0  0
 74 85  1  0  0  0
 75 76  2  0  0  0
 75 86  1  0  0  0
 76 88  1  0  0  0
 77 79  1  0  0  0
 77 85  1  0  0  0
 77 89  2  0  0  0
 78 81  1  0  0  0
 78 87  1  0  0  0
 78 90  2  0  0  0
 79152  1  0  0  0
 79153  1  0  0  0
 79154  1  0  0  0
 80 88  1  0  0  0
 80155  1  0  0  0
 80156  1  0  0  0
 80157  1  0  0  0
 81 86  1  0  0  0
 81158  1  0  0  0
 81159  1  0  0  0
 82 83  1  0  0  0
 82 87  1  0  0  0
 82160  1  0  0  0
 82161  1  0  0  0
 83162  1  0  0  0
 83163  1  0  0  0
 84164  1  0  0  0
 84165  1  0  0  0
 85166  1  0  0  0
 86167  1  0  0  0
 87168  1  0  0  0
M  ISO  4   1 100  68 101  83 101  88 100
M  END
> <chiral flag>
0

> <version>
0

> <s_m_source_file>
/data/baiqing/PycharmProjects/Reinvent-master-3.2/result/LINK_invent/BTK/process_docking_weight1_custom_product_contain_oxygen_bond_distance_aromatic_linkinvent_7_9_3/rearranged_h_0089.sdf

> <i_m_source_file_index>
91

> <r_mmod_Potential_Energy-OPLS-2005>
18847.671875

> <r_mmod_Stretch_Energy-OPLS-2005>
10732.599609375

> <r_mmod_Bend_Energy-OPLS-2005>
2103.51171875

> <r_mmod_Torsional_Energy-OPLS-2005>
576.090270996094

> <r_mmod_Improper_Torsional_Energy-OPLS-2005>
91.914176940918

> <r_mmod_Van_der_Waal_Energy-OPLS-2005>
4494.07861328125

> <r_mmod_Electrostatic_Energy-OPLS-2005>
-528.914367675781

> <r_mmod_Solvation_Energy-OPLS-2005>
-279.758453369141

> <b_mmod_Minimization_Converged-OPLS-2005>
0

> <r_mmod_RMS_Derivative-OPLS-2005>
9.74213314056396

$$$$
91
                    3D
 Structure written by MMmdl.
154162  0  0  1  0            999 V2000
  -30.5991  -14.6851   20.4999 C   0  0  0  0  0  0
  -30.4441  -12.4206   19.4626 C   0  0  0  0  0  0
  -29.5129  -12.5161   18.2322 C   0  0  0  0  0  0
  -28.0363  -12.3454   18.6424 C   0  0  0  0  0  0
  -27.6534  -13.2197   19.8657 C   0  0  2  0  0  0
  -28.6972  -13.0839   20.9976 C   0  0  0  0  0  0
  -25.2543  -13.8163   20.5655 C   0  0  0  0  0  0
  -24.1824  -13.0430   20.9192 C   0  0  0  0  0  0
  -24.6401  -11.6905   20.8747 C   0  0  0  0  0  0
  -23.9069  -10.4289   21.0410 C   0  0  0  0  0  0
  -24.3619   -9.4203   21.9187 C   0  0  0  0  0  0
  -23.6292   -8.2240   22.0755 C   0  0  0  0  0  0
  -22.4274   -8.0280   21.3545 C   0  0  0  0  0  0
  -21.9911   -9.0255   20.4648 C   0  0  0  0  0  0
  -22.7241  -10.2133   20.3059 C   0  0  0  0  0  0
  -21.6852   -6.0735   22.5279 C   0  0  0  0  0  0
  -21.4014   -6.5639   23.8212 C   0  0  0  0  0  0
  -21.3659   -5.6792   24.9174 C   0  0  0  0  0  0
  -21.6044   -4.3055   24.7225 C   0  0  0  0  0  0
  -21.8819   -3.8147   23.4346 C   0  0  0  0  0  0
  -21.9192   -4.6963   22.3402 C   0  0  0  0  0  0
  -22.7846  -13.5224   21.1853 C   0  0  0  0  0  0
  -22.1661   -4.2148   21.0980 F   0  0  0  0  0  0
  -21.5628   -3.4539   25.7738 F   0  0  0  0  0  0
  -30.0105  -13.4442   20.4380 N   0  0  0  0  0  0
  -26.2988  -12.9357   20.3323 N   0  0  0  0  0  0
  -25.9334  -11.6511   20.5772 N   0  0  0  0  0  0
  -22.0490  -12.8220   22.0414 N   0  0  0  0  0  0
  -25.4214  -15.1874   20.3987 N   0  0  0  0  0  0
  -31.7509  -14.8599   20.0896 O   0  0  0  0  0  0
  -21.6638   -6.8878   21.4240 O   0  0  0  0  0  0
  -22.3530  -14.5530   20.6701 O   0  0  0  0  0  0
  -24.6277  -31.8578   23.2008 C   0  0  0  0  0  0
  -25.9115  -32.4770   23.8345 C   0  0  1  0  0  0
  -27.2270  -27.2998   20.1271 C   0  0  0  0  0  0
  -25.5923  -33.8571   24.2270 N   0  0  0  0  0  0
  -23.4236  -30.4798   21.5432 C   0  0  2  0  0  0
  -24.8729  -28.9299   20.1123 C   0  0  0  0  0  0
  -22.7486  -29.4611   22.4927 C   0  0  0  0  0  0
  -18.0288  -28.1386   22.8486 C   0  0  0  0  0  0
  -24.1489  -36.7291   23.2639 C   0  0  0  0  0  0
  -25.9659  -30.7817   21.3764 C   0  0  0  0  0  0
  -26.0414  -29.4058   20.7221 C   0  0  0  0  0  0
  -27.2223  -28.6014   20.7220 C   0  0  0  0  0  0
  -26.0398  -26.8831   19.4864 C   0  0  0  0  0  0
  -24.8743  -27.6737   19.4853 C   0  0  0  0  0  0
  -23.6411  -29.8123   20.1595 C   0  0  0  0  0  0
  -25.4114  -36.3079   24.0328 C   0  0  1  0  0  0
  -20.5890  -28.3692   23.1278 C   0  0  2  0  0  0
  -20.6777  -26.9413   22.5410 C   0  0  0  0  0  0
  -19.5752  -26.6384   21.5212 C   0  0  0  0  0  0
  -18.1933  -26.7928   22.1625 C   0  0  0  0  0  0
  -19.1541  -28.8856   23.2877 C   0  0  0  0  0  0
  -18.9463  -30.1457   23.8895 C   0  0  0  0  0  0
  -17.6463  -30.6587   24.0563 C   0  0  0  0  0  0
  -25.9051  -34.9448   23.5102 C   0  0  0  0  0  0
  -16.5354  -29.9085   23.6330 C   0  0  0  0  0  0
  -16.7275  -28.6503   23.0352 C   0  0  0  0  0  0
  -26.4496  -31.6586   25.0723 C   0  0  0  0  0  0
  -25.3725  -31.3727   26.1447 C   0  0  0  0  0  0
  -27.0343  -30.3008   24.6190 C   0  0  0  0  0  0
  -27.6052  -32.4326   25.7494 C   0  0  0  0  0  0
  -27.5580  -37.1799   24.8463 C   0  0  0  0  0  0
  -21.4197  -29.3042   22.3669 N   0  0  0  0  0  0
  -26.4290  -37.3775   23.9409 N   0  0  0  0  0  0
  -24.6911  -31.0570   22.0969 N   0  0  0  0  0  0
  -23.4197  -28.8154   23.3019 O   0  0  0  0  0  0
  -28.3269  -26.4227   20.1459 O   0  0  0  0  0  0
  -26.5624  -34.8918   22.4671 O   0  0  0  0  0  0
  -23.5435  -32.1386   23.7322 O   0  0  0  0  0  0
  -28.7256  -19.3903   21.3096 C   0  0  0  0  0  0
  -30.6389  -17.9241   19.8844 C   0  0  0  0  0  0
  -28.8360  -17.9708   21.4749 C   0  0  0  0  0  0
  -29.5568  -20.1274   20.4227 C   0  0  0  0  0  0
  -29.7933  -17.1855   20.7604 C   0  0  0  0  0  0
  -30.5206  -19.3457   19.7173 C   0  0  0  0  0  0
  -28.9372  -23.9775   20.1954 C   0  0  0  0  0  0
  -28.1101  -25.0538   20.4536 C   0  0  0  0  0  0
  -28.6049  -22.5631   20.5760 C   0  0  0  0  0  0
  -27.8983  -17.2915   22.4596 C   0  0  0  0  0  0
  -31.3714  -19.9896   18.8155 N   0  0  0  0  0  0
  -29.5196  -21.5941   20.2273 N   0  0  0  0  0  0
  -29.7926  -15.7161   20.9270 N   0  0  0  0  0  0
  -27.5626  -22.2673   21.1647 O   0  0  0  0  0  0
  -31.4838  -12.5568   19.1598 H   0  0  0  0  0  0
  -30.3921  -11.4267   19.9097 H   0  0  0  0  0  0
  -29.7849  -11.7610   17.4935 H   0  0  0  0  0  0
  -29.6473  -13.4829   17.7445 H   0  0  0  0  0  0
  -27.8799  -11.2923   18.8793 H   0  0  0  0  0  0
  -27.3812  -12.5670   17.7991 H   0  0  0  0  0  0
  -27.6687  -14.2539   19.5214 H   0  0  0  0  0  0
  -28.7187  -12.0617   21.3784 H   0  0  0  0  0  0
  -28.4316  -13.7099   21.8507 H   0  0  0  0  0  0
  -25.2764   -9.5677   22.4761 H   0  0  0  0  0  0
  -24.0000   -7.4630   22.7473 H   0  0  0  0  0  0
  -21.0842   -8.8776   19.8953 H   0  0  0  0  0  0
  -22.3702  -10.9673   19.6168 H   0  0  0  0  0  0
  -21.2007   -7.6148   23.9715 H   0  0  0  0  0  0
  -21.1481   -6.0523   25.9077 H   0  0  0  0  0  0
  -22.0599   -2.7609   23.2847 H   0  0  0  0  0  0
  -22.4106  -11.9882   22.4804 H   0  0  0  0  0  0
  -21.1110  -13.1249   22.2623 H   0  0  0  0  0  0
  -24.6462  -15.8347   20.4900 H   0  0  0  0  0  0
  -26.2563  -15.6213   20.0268 H   0  0  0  0  0  0
  -26.7183  -32.5437   23.1093 H   0  0  0  0  0  0
  -25.0062  -33.9713   25.0410 H   0  0  0  0  0  0
  -22.7184  -31.3007   21.3976 H   0  0  0  0  0  0
  -23.3750  -35.9624   23.3300 H   0  0  0  0  0  0
  -24.3580  -36.8914   22.2054 H   0  0  0  0  0  0
  -23.7243  -37.6493   23.6663 H   0  0  0  0  0  0
  -26.0990  -31.5425   20.6060 H   0  0  0  0  0  0
  -26.8454  -30.8329   22.0065 H   0  0  0  0  0  0
  -28.1193  -28.9598   21.2072 H   0  0  0  0  0  0
  -26.0049  -25.9197   18.9975 H   0  0  0  0  0  0
  -23.9805  -27.3043   19.0013 H   0  0  0  0  0  0
  -23.7622  -30.5879   19.4023 H   0  0  0  0  0  0
  -22.7610  -29.2424   19.8563 H   0  0  0  0  0  0
  -25.1294  -36.1929   25.0821 H   0  0  0  0  0  0
  -20.9983  -28.3269   24.1398 H   0  0  0  0  0  0
  -20.5677  -26.2302   23.3612 H   0  0  0  0  0  0
  -21.6645  -26.7440   22.1204 H   0  0  0  0  0  0
  -19.6914  -25.6295   21.1243 H   0  0  0  0  0  0
  -19.6689  -27.3194   20.6741 H   0  0  0  0  0  0
  -17.4201  -26.6673   21.4029 H   0  0  0  0  0  0
  -18.0335  -26.0071   22.9023 H   0  0  0  0  0  0
  -19.7939  -30.7274   24.2265 H   0  0  0  0  0  0
  -17.5017  -31.6267   24.5166 H   0  0  0  0  0  0
  -15.5354  -30.2987   23.7654 H   0  0  0  0  0  0
  -15.8675  -28.0821   22.7068 H   0  0  0  0  0  0
  -24.5902  -30.7075   25.7775 H   0  0  0  0  0  0
  -24.8915  -32.2894   26.4868 H   0  0  0  0  0  0
  -25.8047  -30.8907   27.0225 H   0  0  0  0  0  0
  -26.2923  -29.6755   24.1212 H   0  0  0  0  0  0
  -27.4033  -29.7269   25.4701 H   0  0  0  0  0  0
  -27.8795  -30.4291   23.9424 H   0  0  0  0  0  0
  -27.2659  -33.3625   26.2070 H   0  0  0  0  0  0
  -28.3862  -32.6888   25.0323 H   0  0  0  0  0  0
  -28.0721  -31.8454   26.5412 H   0  0  0  0  0  0
  -28.2593  -38.0100   24.7517 H   0  0  0  0  0  0
  -28.1080  -36.2632   24.6280 H   0  0  0  0  0  0
  -27.2299  -37.1437   25.8867 H   0  0  0  0  0  0
  -20.9380  -29.8761   21.6872 H   0  0  0  0  0  0
  -26.0171  -38.2849   24.1414 H   0  0  0  0  0  0
  -27.9849  -19.9178   21.8917 H   0  0  0  0  0  0
  -31.3804  -17.3883   19.3094 H   0  0  0  0  0  0
  -29.8737  -24.1680   19.6924 H   0  0  0  0  0  0
  -27.1638  -24.9094   20.9592 H   0  0  0  0  0  0
  -27.2491  -18.0099   22.9607 H   0  0  0  0  0  0
  -28.4665  -16.7678   23.2289 H   0  0  0  0  0  0
  -27.2609  -16.5695   21.9514 H   0  0  0  0  0  0
  -31.9063  -19.3916   18.1939 H   0  0  0  0  0  0
  -30.9815  -20.7753   18.3072 H   0  0  0  0  0  0
  -30.3252  -21.9432   19.7286 H   0  0  0  0  0  0
  -28.9516  -15.3644   21.3569 H   0  0  0  0  0  0
  1 25  1  0  0  0
  1 30  2  0  0  0
  1 83  1  0  0  0
  2  3  1  0  0  0
  2 25  1  0  0  0
  2 85  1  0  0  0
  2 86  1  0  0  0
  3  4  1  0  0  0
  3 87  1  0  0  0
  3 88  1  0  0  0
  4  5  1  0  0  0
  4 89  1  0  0  0
  4 90  1  0  0  0
  5  6  1  0  0  0
  5 26  1  0  0  0
  5 91  1  0  0  0
  6 25  1  0  0  0
  6 92  1  0  0  0
  6 93  1  0  0  0
  7  8  2  0  0  0
  7 26  1  0  0  0
  7 29  1  0  0  0
  8  9  1  0  0  0
  8 22  1  0  0  0
  9 10  1  0  0  0
  9 27  2  0  0  0
 10 11  2  0  0  0
 10 15  1  0  0  0
 11 12  1  0  0  0
 11 94  1  0  0  0
 12 13  2  0  0  0
 12 95  1  0  0  0
 13 14  1  0  0  0
 13 31  1  0  0  0
 14 15  2  0  0  0
 14 96  1  0  0  0
 15 97  1  0  0  0
 16 17  2  0  0  0
 16 21  1  0  0  0
 16 31  1  0  0  0
 17 18  1  0  0  0
 17 98  1  0  0  0
 18 19  2  0  0  0
 18 99  1  0  0  0
 19 20  1  0  0  0
 19 24  1  0  0  0
 20 21  2  0  0  0
 20100  1  0  0  0
 21 23  1  0  0  0
 22 28  1  0  0  0
 22 32  2  0  0  0
 26 27  1  0  0  0
 28101  1  0  0  0
 28102  1  0  0  0
 29103  1  0  0  0
 29104  1  0  0  0
 33 34  1  0  0  0
 33 66  1  0  0  0
 33 70  2  0  0  0
 34 36  1  0  0  0
 34 59  1  0  0  0
 34105  1  0  0  0
 35 44  2  0  0  0
 35 45  1  0  0  0
 35 68  1  0  0  0
 36 56  1  0  0  0
 36106  1  0  0  0
 37 39  1  0  0  0
 37 47  1  0  0  0
 37 66  1  0  0  0
 37107  1  0  0  0
 38 43  2  0  0  0
 38 46  1  0  0  0
 38 47  1  0  0  0
 39 64  1  0  0  0
 39 67  2  0  0  0
 40 52  1  0  0  0
 40 53  2  0  0  0
 40 58  1  0  0  0
 41108  1  0  0  0
 41109  1  0  0  0
 41110  1  0  0  0
 41 48  1  0  0  0
 42 43  1  0  0  0
 42 66  1  0  0  0
 42111  1  0  0  0
 42112  1  0  0  0
 43 44  1  0  0  0
 44113  1  0  0  0
 45 46  2  0  0  0
 45114  1  0  0  0
 46115  1  0  0  0
 47116  1  0  0  0
 47117  1  0  0  0
 48 56  1  0  0  0
 48 65  1  0  0  0
 48118  1  0  0  0
 49 50  1  0  0  0
 49 53  1  0  0  0
 49 64  1  0  0  0
 49119  1  0  0  0
 50 51  1  0  0  0
 50120  1  0  0  0
 50121  1  0  0  0
 51 52  1  0  0  0
 51122  1  0  0  0
 51123  1  0  0  0
 52124  1  0  0  0
 52125  1  0  0  0
 53 54  1  0  0  0
 54 55  2  0  0  0
 54126  1  0  0  0
 55 57  1  0  0  0
 55127  1  0  0  0
 56 69  2  0  0  0
 57 58  2  0  0  0
 57128  1  0  0  0
 58129  1  0  0  0
 59 60  1  0  0  0
 59 61  1  0  0  0
 59 62  1  0  0  0
 60130  1  0  0  0
 60131  1  0  0  0
 60132  1  0  0  0
 61133  1  0  0  0
 61134  1  0  0  0
 61135  1  0  0  0
 62136  1  0  0  0
 62137  1  0  0  0
 62138  1  0  0  0
 63 65  1  0  0  0
 63139  1  0  0  0
 63140  1  0  0  0
 63141  1  0  0  0
 64142  1  0  0  0
 65143  1  0  0  0
 68 78  1  0  0  0
 71 73  2  0  0  0
 71 74  1  0  0  0
 71144  1  0  0  0
 72 75  2  0  0  0
 72 76  1  0  0  0
 72145  1  0  0  0
 73 75  1  0  0  0
 73 80  1  0  0  0
 74 76  2  0  0  0
 74 82  1  0  0  0
 75 83  1  0  0  0
 76 81  1  0  0  0
 77 78  2  0  0  0
 77 79  1  0  0  0
 77146  1  0  0  0
 78147  1  0  0  0
 79 82  1  0  0  0
 79 84  2  0  0  0
 80148  1  0  0  0
 80149  1  0  0  0
 80150  1  0  0  0
 81151  1  0  0  0
 81152  1  0  0  0
 82153  1  0  0  0
 83154  1  0  0  0
M  ISO  4   1 100  68 101  78 101  83 100
M  END
> <chiral flag>
0

> <version>
0

> <s_m_source_file>
/data/baiqing/PycharmProjects/Reinvent-master-3.2/result/LINK_invent/BTK/process_docking_weight1_custom_product_contain_oxygen_bond_distance_aromatic_linkinvent_7_9_3/rearranged_h_0089.sdf

> <i_m_source_file_index>
92

> <r_mmod_Potential_Energy-OPLS-2005>
-55.0955505371094

> <r_mmod_Stretch_Energy-OPLS-2005>
90.4635620117188

> <r_mmod_Bend_Energy-OPLS-2005>
145.528305053711

> <r_mmod_Torsional_Energy-OPLS-2005>
224.823303222656

> <r_mmod_Improper_Torsional_Energy-OPLS-2005>
7.91639757156372

> <r_mmod_Van_der_Waal_Energy-OPLS-2005>
144.855056762695

> <r_mmod_Electrostatic_Energy-OPLS-2005>
-498.195037841797

> <r_mmod_Solvation_Energy-OPLS-2005>
-231.612213134766

> <b_mmod_Minimization_Converged-OPLS-2005>
0

> <r_mmod_RMS_Derivative-OPLS-2005>
0.0796919241547585

$$$$
92
                    3D
 Structure written by MMmdl.
154162  0  0  1  0            999 V2000
  -30.6542  -14.6268   20.4639 C   0  0  0  0  0  0
  -30.4230  -12.3768   19.4668 C   0  0  0  0  0  0
  -29.5067  -12.4702   18.2297 C   0  0  0  0  0  0
  -28.0309  -12.3058   18.6482 C   0  0  0  0  0  0
  -27.6439  -13.2156   19.8453 C   0  0  2  0  0  0
  -28.6817  -13.1290   20.9825 C   0  0  0  0  0  0
  -25.2509  -13.8169   20.5631 C   0  0  0  0  0  0
  -24.1791  -13.0443   20.9173 C   0  0  0  0  0  0
  -24.6356  -11.6907   20.8735 C   0  0  0  0  0  0
  -23.9031  -10.4296   21.0424 C   0  0  0  0  0  0
  -24.3603   -9.4208   21.9201 C   0  0  0  0  0  0
  -23.6277   -8.2230   22.0756 C   0  0  0  0  0  0
  -22.4246   -8.0283   21.3549 C   0  0  0  0  0  0
  -21.9889   -9.0252   20.4666 C   0  0  0  0  0  0
  -22.7194  -10.2134   20.3076 C   0  0  0  0  0  0
  -21.6833   -6.0727   22.5272 C   0  0  0  0  0  0
  -21.4014   -6.5625   23.8206 C   0  0  0  0  0  0
  -21.3664   -5.6782   24.9171 C   0  0  0  0  0  0
  -21.6042   -4.3041   24.7230 C   0  0  0  0  0  0
  -21.8823   -3.8134   23.4343 C   0  0  0  0  0  0
  -21.9186   -4.6944   22.3405 C   0  0  0  0  0  0
  -22.7815  -13.5252   21.1840 C   0  0  0  0  0  0
  -22.1645   -4.2147   21.0973 F   0  0  0  0  0  0
  -21.5652   -3.4528   25.7751 F   0  0  0  0  0  0
  -29.9928  -13.4336   20.4030 N   0  0  0  0  0  0
  -26.2918  -12.9352   20.3200 N   0  0  0  0  0  0
  -25.9285  -11.6511   20.5722 N   0  0  0  0  0  0
  -22.0424  -12.8261   22.0413 N   0  0  0  0  0  0
  -25.4257  -15.1889   20.4029 N   0  0  0  0  0  0
  -31.8631  -14.6765   20.2332 O   0  0  0  0  0  0
  -21.6627   -6.8868   21.4233 O   0  0  0  0  0  0
  -22.3500  -14.5558   20.6693 O   0  0  0  0  0  0
  -24.6301  -31.8628   23.2087 C   0  0  0  0  0  0
  -25.9145  -32.4781   23.8401 C   0  0  1  0  0  0
  -27.1925  -27.2944   20.0872 C   0  0  0  0  0  0
  -25.5967  -33.8587   24.2308 N   0  0  0  0  0  0
  -23.4201  -30.4957   21.5549 C   0  0  2  0  0  0
  -24.8574  -28.9647   20.1118 C   0  0  0  0  0  0
  -22.7495  -29.4642   22.4958 C   0  0  0  0  0  0
  -18.0283  -28.1396   22.8457 C   0  0  0  0  0  0
  -24.1510  -36.7293   23.2632 C   0  0  0  0  0  0
  -25.9697  -30.7813   21.3915 C   0  0  0  0  0  0
  -26.0327  -29.4106   20.7268 C   0  0  0  0  0  0
  -27.1992  -28.5830   20.7198 C   0  0  0  0  0  0
  -25.9929  -26.9428   19.4184 C   0  0  0  0  0  0
  -24.8405  -27.7347   19.4546 C   0  0  0  0  0  0
  -23.6336  -29.8490   20.1656 C   0  0  0  0  0  0
  -25.4119  -36.3074   24.0333 C   0  0  1  0  0  0
  -20.5885  -28.3696   23.1294 C   0  0  2  0  0  0
  -20.6778  -26.9421   22.5421 C   0  0  0  0  0  0
  -19.5761  -26.6396   21.5210 C   0  0  0  0  0  0
  -18.1927  -26.7941   22.1595 C   0  0  0  0  0  0
  -19.1536  -28.8863   23.2860 C   0  0  0  0  0  0
  -18.9457  -30.1469   23.8880 C   0  0  0  0  0  0
  -17.6450  -30.6588   24.0573 C   0  0  0  0  0  0
  -25.9063  -34.9440   23.5111 C   0  0  0  0  0  0
  -16.5340  -29.9089   23.6333 C   0  0  0  0  0  0
  -16.7267  -28.6514   23.0330 C   0  0  0  0  0  0
  -26.4508  -31.6581   25.0763 C   0  0  0  0  0  0
  -25.3735  -31.3746   26.1493 C   0  0  0  0  0  0
  -27.0323  -30.2977   24.6255 C   0  0  0  0  0  0
  -27.6107  -32.4287   25.7487 C   0  0  0  0  0  0
  -27.5612  -37.1764   24.8429 C   0  0  0  0  0  0
  -21.4210  -29.3045   22.3695 N   0  0  0  0  0  0
  -26.4284  -37.3776   23.9437 N   0  0  0  0  0  0
  -24.6916  -31.0648   22.1056 N   0  0  0  0  0  0
  -23.4216  -28.8146   23.3020 O   0  0  0  0  0  0
  -28.2790  -26.3932   20.1531 O   0  0  0  0  0  0
  -26.5623  -34.8905   22.4668 O   0  0  0  0  0  0
  -23.5465  -32.1448   23.7425 O   0  0  0  0  0  0
  -28.4125  -18.7850   19.8768 C   0  0  0  0  0  0
  -27.9359  -20.1299   19.8108 C   0  0  0  0  0  0
  -29.9998  -20.9412   20.7363 C   0  0  0  0  0  0
  -29.7289  -18.4905   20.3203 C   0  0  0  0  0  0
  -28.7309  -21.2516   20.1870 C   0  0  0  0  0  0
  -30.4873  -19.6026   20.7889 C   0  0  0  0  0  0
  -31.8318  -16.7862   17.9253 C   0  0  0  0  0  0
  -30.6569  -17.0367   18.5266 C   0  0  0  0  0  0
  -28.7704  -23.7386   20.1488 C   0  0  0  0  0  0
  -28.1524  -25.0451   19.5209 C   0  0  0  0  0  0
  -30.4441  -17.1168   20.0334 C   0  0  2  0  0  0
  -28.2338  -22.5724   19.9121 N   0  0  0  0  0  0
  -29.9095  -15.7841   20.4916 N   0  0  0  0  0  0
  -31.7520  -19.4046   21.2372 F   0  0  0  0  0  0
  -31.4687  -12.4772   19.1707 H   0  0  0  0  0  0
  -30.3382  -11.3957   19.9375 H   0  0  0  0  0  0
  -29.7784  -11.6996   17.5049 H   0  0  0  0  0  0
  -29.6492  -13.4293   17.7272 H   0  0  0  0  0  0
  -27.8849  -11.2591   18.9168 H   0  0  0  0  0  0
  -27.3701  -12.4938   17.8022 H   0  0  0  0  0  0
  -27.6537  -14.2361   19.4616 H   0  0  0  0  0  0
  -28.6888  -12.1318   21.4260 H   0  0  0  0  0  0
  -28.4336  -13.8250   21.7850 H   0  0  0  0  0  0
  -25.2758   -9.5717   22.4753 H   0  0  0  0  0  0
  -24.0001   -7.4630   22.7446 H   0  0  0  0  0  0
  -21.0820   -8.8774   19.8972 H   0  0  0  0  0  0
  -22.3641  -10.9684   19.6190 H   0  0  0  0  0  0
  -21.2000   -7.6142   23.9695 H   0  0  0  0  0  0
  -21.1477   -6.0520   25.9071 H   0  0  0  0  0  0
  -22.0600   -2.7594   23.2829 H   0  0  0  0  0  0
  -22.4011  -11.9958   22.4901 H   0  0  0  0  0  0
  -21.1073  -13.1353   22.2631 H   0  0  0  0  0  0
  -24.6712  -15.8547   20.5297 H   0  0  0  0  0  0
  -26.2780  -15.6159   20.0656 H   0  0  0  0  0  0
  -26.7200  -32.5410   23.1136 H   0  0  0  0  0  0
  -25.0114  -33.9723   25.0458 H   0  0  0  0  0  0
  -22.7100  -31.3150   21.4205 H   0  0  0  0  0  0
  -23.3787  -35.9609   23.3224 H   0  0  0  0  0  0
  -24.3619  -36.8989   22.2061 H   0  0  0  0  0  0
  -23.7235  -37.6467   23.6683 H   0  0  0  0  0  0
  -26.1166  -31.5500   20.6315 H   0  0  0  0  0  0
  -26.8437  -30.8152   22.0293 H   0  0  0  0  0  0
  -28.0934  -28.9164   21.2269 H   0  0  0  0  0  0
  -25.8550  -26.0533   18.8339 H   0  0  0  0  0  0
  -23.9449  -27.3951   18.9535 H   0  0  0  0  0  0
  -23.7654  -30.6327   19.4193 H   0  0  0  0  0  0
  -22.7517  -29.2884   19.8517 H   0  0  0  0  0  0
  -25.1285  -36.1907   25.0823 H   0  0  0  0  0  0
  -20.9949  -28.3283   24.1431 H   0  0  0  0  0  0
  -20.5689  -26.2308   23.3624 H   0  0  0  0  0  0
  -21.6654  -26.7462   22.1225 H   0  0  0  0  0  0
  -19.6929  -25.6303   21.1257 H   0  0  0  0  0  0
  -19.6734  -27.3212   20.6742 H   0  0  0  0  0  0
  -17.4222  -26.6716   21.3968 H   0  0  0  0  0  0
  -18.0301  -26.0086   22.8992 H   0  0  0  0  0  0
  -19.7939  -30.7286   24.2251 H   0  0  0  0  0  0
  -17.5009  -31.6257   24.5198 H   0  0  0  0  0  0
  -15.5341  -30.2979   23.7670 H   0  0  0  0  0  0
  -15.8673  -28.0833   22.7029 H   0  0  0  0  0  0
  -24.5914  -30.7077   25.7834 H   0  0  0  0  0  0
  -24.8919  -32.2926   26.4878 H   0  0  0  0  0  0
  -25.8070  -30.8958   27.0288 H   0  0  0  0  0  0
  -26.2897  -29.6721   24.1291 H   0  0  0  0  0  0
  -27.3981  -29.7237   25.4779 H   0  0  0  0  0  0
  -27.8809  -30.4197   23.9519 H   0  0  0  0  0  0
  -27.2741  -33.3573   26.2112 H   0  0  0  0  0  0
  -28.3875  -32.6865   25.0266 H   0  0  0  0  0  0
  -28.0836  -31.8376   26.5346 H   0  0  0  0  0  0
  -28.2535  -38.0152   24.7594 H   0  0  0  0  0  0
  -28.1195  -36.2684   24.6072 H   0  0  0  0  0  0
  -27.2356  -37.1230   25.8833 H   0  0  0  0  0  0
  -20.9397  -29.8796   21.6923 H   0  0  0  0  0  0
  -26.0162  -38.2838   24.1497 H   0  0  0  0  0  0
  -27.7875  -17.9912   19.4917 H   0  0  0  0  0  0
  -26.9506  -20.2982   19.3981 H   0  0  0  0  0  0
  -30.6519  -21.7319   21.0666 H   0  0  0  0  0  0
  -31.9121  -16.7343   16.8495 H   0  0  0  0  0  0
  -32.7304  -16.6167   18.5037 H   0  0  0  0  0  0
  -29.7792  -17.1989   17.9151 H   0  0  0  0  0  0
  -29.6796  -23.8785   20.7382 H   0  0  0  0  0  0
  -27.1263  -24.7295   19.3912 H   0  0  0  0  0  0
  -28.5623  -25.1462   18.5152 H   0  0  0  0  0  0
  -31.4291  -17.1938   20.4984 H   0  0  0  0  0  0
  -28.9157  -15.7013   20.6362 H   0  0  0  0  0  0
  1 25  1  0  0  0
  1 30  2  0  0  0
  1 83  1  0  0  0
  2  3  1  0  0  0
  2 25  1  0  0  0
  2 85  1  0  0  0
  2 86  1  0  0  0
  3  4  1  0  0  0
  3 87  1  0  0  0
  3 88  1  0  0  0
  4  5  1  0  0  0
  4 89  1  0  0  0
  4 90  1  0  0  0
  5  6  1  0  0  0
  5 26  1  0  0  0
  5 91  1  0  0  0
  6 25  1  0  0  0
  6 92  1  0  0  0
  6 93  1  0  0  0
  7  8  2  0  0  0
  7 26  1  0  0  0
  7 29  1  0  0  0
  8  9  1  0  0  0
  8 22  1  0  0  0
  9 10  1  0  0  0
  9 27  2  0  0  0
 10 11  2  0  0  0
 10 15  1  0  0  0
 11 12  1  0  0  0
 11 94  1  0  0  0
 12 13  2  0  0  0
 12 95  1  0  0  0
 13 14  1  0  0  0
 13 31  1  0  0  0
 14 15  2  0  0  0
 14 96  1  0  0  0
 15 97  1  0  0  0
 16 17  2  0  0  0
 16 21  1  0  0  0
 16 31  1  0  0  0
 17 18  1  0  0  0
 17 98  1  0  0  0
 18 19  2  0  0  0
 18 99  1  0  0  0
 19 20  1  0  0  0
 19 24  1  0  0  0
 20 21  2  0  0  0
 20100  1  0  0  0
 21 23  1  0  0  0
 22 28  1  0  0  0
 22 32  2  0  0  0
 26 27  1  0  0  0
 28101  1  0  0  0
 28102  1  0  0  0
 29103  1  0  0  0
 29104  1  0  0  0
 33 34  1  0  0  0
 33 66  1  0  0  0
 33 70  2  0  0  0
 34 36  1  0  0  0
 34 59  1  0  0  0
 34105  1  0  0  0
 35 44  2  0  0  0
 35 45  1  0  0  0
 35 68  1  0  0  0
 36 56  1  0  0  0
 36106  1  0  0  0
 37 39  1  0  0  0
 37 47  1  0  0  0
 37 66  1  0  0  0
 37107  1  0  0  0
 38 43  2  0  0  0
 38 46  1  0  0  0
 38 47  1  0  0  0
 39 64  1  0  0  0
 39 67  2  0  0  0
 40 52  1  0  0  0
 40 53  2  0  0  0
 40 58  1  0  0  0
 41108  1  0  0  0
 41109  1  0  0  0
 41110  1  0  0  0
 41 48  1  0  0  0
 42 43  1  0  0  0
 42 66  1  0  0  0
 42111  1  0  0  0
 42112  1  0  0  0
 43 44  1  0  0  0
 44113  1  0  0  0
 45 46  2  0  0  0
 45114  1  0  0  0
 46115  1  0  0  0
 47116  1  0  0  0
 47117  1  0  0  0
 48 56  1  0  0  0
 48 65  1  0  0  0
 48118  1  0  0  0
 49 50  1  0  0  0
 49 53  1  0  0  0
 49 64  1  0  0  0
 49119  1  0  0  0
 50 51  1  0  0  0
 50120  1  0  0  0
 50121  1  0  0  0
 51 52  1  0  0  0
 51122  1  0  0  0
 51123  1  0  0  0
 52124  1  0  0  0
 52125  1  0  0  0
 53 54  1  0  0  0
 54 55  2  0  0  0
 54126  1  0  0  0
 55 57  1  0  0  0
 55127  1  0  0  0
 56 69  2  0  0  0
 57 58  2  0  0  0
 57128  1  0  0  0
 58129  1  0  0  0
 59 60  1  0  0  0
 59 61  1  0  0  0
 59 62  1  0  0  0
 60130  1  0  0  0
 60131  1  0  0  0
 60132  1  0  0  0
 61133  1  0  0  0
 61134  1  0  0  0
 61135  1  0  0  0
 62136  1  0  0  0
 62137  1  0  0  0
 62138  1  0  0  0
 63 65  1  0  0  0
 63139  1  0  0  0
 63140  1  0  0  0
 63141  1  0  0  0
 64142  1  0  0  0
 65143  1  0  0  0
 68 80  1  0  0  0
 71 72  2  0  0  0
 71 74  1  0  0  0
 71144  1  0  0  0
 72 75  1  0  0  0
 72145  1  0  0  0
 73 75  2  0  0  0
 73 76  1  0  0  0
 73146  1  0  0  0
 74 76  2  0  0  0
 74 81  1  0  0  0
 75 82  1  0  0  0
 76 84  1  0  0  0
 77 78  2  0  0  0
 77147  1  0  0  0
 77148  1  0  0  0
 78 81  1  0  0  0
 78149  1  0  0  0
 79 80  1  0  0  0
 79 82  2  0  0  0
 79150  1  0  0  0
 80151  1  0  0  0
 80152  1  0  0  0
 81 83  1  0  0  0
 81153  1  0  0  0
 83154  1  0  0  0
M  ISO  4   1 100  68 101  80 101  83 100
M  END
> <chiral flag>
0

> <version>
0

> <s_m_source_file>
/data/baiqing/PycharmProjects/Reinvent-master-3.2/result/LINK_invent/BTK/process_docking_weight1_custom_product_contain_oxygen_bond_distance_aromatic_linkinvent_7_9_3/rearranged_h_0089.sdf

> <i_m_source_file_index>
93

> <r_mmod_Potential_Energy-OPLS-2005>
134.57194519043

> <r_mmod_Stretch_Energy-OPLS-2005>
83.4376678466797

> <r_mmod_Bend_Energy-OPLS-2005>
171.778518676758

> <r_mmod_Torsional_Energy-OPLS-2005>
228.341491699219

> <r_mmod_Improper_Torsional_Energy-OPLS-2005>
9.9677152633667

> <r_mmod_Van_der_Waal_Energy-OPLS-2005>
159.815124511719

> <r_mmod_Electrostatic_Energy-OPLS-2005>
-373.331420898438

> <r_mmod_Solvation_Energy-OPLS-2005>
-210.089797973633

> <b_mmod_Minimization_Converged-OPLS-2005>
0

> <r_mmod_RMS_Derivative-OPLS-2005>
4.04822683334351

$$$$
93
                    3D
 Structure written by MMmdl.
158167  0  0  1  0            999 V2000
  -30.6068  -14.6714   20.4792 C   0  0  0  0  0  0
  -30.4455  -12.4103   19.4463 C   0  0  0  0  0  0
  -29.5105  -12.5167   18.2205 C   0  0  0  0  0  0
  -28.0326  -12.3521   18.6333 C   0  0  0  0  0  0
  -27.6534  -13.2183   19.8640 C   0  0  2  0  0  0
  -28.7042  -13.0805   20.9895 C   0  0  0  0  0  0
  -25.2569  -13.8174   20.5728 C   0  0  0  0  0  0
  -24.1831  -13.0426   20.9184 C   0  0  0  0  0  0
  -24.6408  -11.6899   20.8725 C   0  0  0  0  0  0
  -23.9078  -10.4284   21.0392 C   0  0  0  0  0  0
  -24.3624   -9.4204   21.9173 C   0  0  0  0  0  0
  -23.6290   -8.2240   22.0748 C   0  0  0  0  0  0
  -22.4268   -8.0288   21.3549 C   0  0  0  0  0  0
  -21.9909   -9.0265   20.4649 C   0  0  0  0  0  0
  -22.7248  -10.2133   20.3047 C   0  0  0  0  0  0
  -21.6860   -6.0734   22.5279 C   0  0  0  0  0  0
  -21.4022   -6.5628   23.8217 C   0  0  0  0  0  0
  -21.3655   -5.6777   24.9176 C   0  0  0  0  0  0
  -21.6043   -4.3042   24.7221 C   0  0  0  0  0  0
  -21.8820   -3.8138   23.4340 C   0  0  0  0  0  0
  -21.9198   -4.6962   22.3398 C   0  0  0  0  0  0
  -22.7850  -13.5219   21.1846 C   0  0  0  0  0  0
  -22.1665   -4.2150   21.0976 F   0  0  0  0  0  0
  -21.5623   -3.4524   25.7729 F   0  0  0  0  0  0
  -30.0140  -13.4341   20.4184 N   0  0  0  0  0  0
  -26.3001  -12.9360   20.3346 N   0  0  0  0  0  0
  -25.9341  -11.6506   20.5743 N   0  0  0  0  0  0
  -22.0488  -12.8232   22.0412 N   0  0  0  0  0  0
  -25.4192  -15.1914   20.4244 N   0  0  0  0  0  0
  -31.7787  -14.8357   20.1313 O   0  0  0  0  0  0
  -21.6638   -6.8881   21.4245 O   0  0  0  0  0  0
  -22.3534  -14.5529   20.6698 O   0  0  0  0  0  0
  -24.6278  -31.8585   23.2015 C   0  0  0  0  0  0
  -25.9119  -32.4774   23.8344 C   0  0  1  0  0  0
  -27.2265  -27.3076   20.1311 C   0  0  0  0  0  0
  -25.5933  -33.8574   24.2273 N   0  0  0  0  0  0
  -23.4231  -30.4811   21.5440 C   0  0  2  0  0  0
  -24.8742  -28.9371   20.1109 C   0  0  0  0  0  0
  -22.7484  -29.4608   22.4922 C   0  0  0  0  0  0
  -18.0285  -28.1390   22.8483 C   0  0  0  0  0  0
  -24.1495  -36.7281   23.2639 C   0  0  0  0  0  0
  -25.9654  -30.7889   21.3741 C   0  0  0  0  0  0
  -26.0436  -29.4144   20.7181 C   0  0  0  0  0  0
  -27.2264  -28.6124   20.7176 C   0  0  0  0  0  0
  -26.0411  -26.8944   19.4845 C   0  0  0  0  0  0
  -24.8759  -27.6828   19.4829 C   0  0  0  0  0  0
  -23.6403  -29.8158   20.1599 C   0  0  0  0  0  0
  -25.4118  -36.3076   24.0328 C   0  0  1  0  0  0
  -20.5889  -28.3694   23.1278 C   0  0  2  0  0  0
  -20.6776  -26.9410   22.5421 C   0  0  0  0  0  0
  -19.5763  -26.6385   21.5210 C   0  0  0  0  0  0
  -18.1933  -26.7938   22.1608 C   0  0  0  0  0  0
  -19.1538  -28.8859   23.2879 C   0  0  0  0  0  0
  -18.9462  -30.1460   23.8899 C   0  0  0  0  0  0
  -17.6463  -30.6594   24.0562 C   0  0  0  0  0  0
  -25.9054  -34.9447   23.5097 C   0  0  0  0  0  0
  -16.5352  -29.9094   23.6329 C   0  0  0  0  0  0
  -16.7271  -28.6508   23.0354 C   0  0  0  0  0  0
  -26.4500  -31.6587   25.0716 C   0  0  0  0  0  0
  -25.3731  -31.3738   26.1442 C   0  0  0  0  0  0
  -27.0321  -30.3002   24.6168 C   0  0  0  0  0  0
  -27.6073  -32.4308   25.7484 C   0  0  0  0  0  0
  -27.5583  -37.1797   24.8454 C   0  0  0  0  0  0
  -21.4193  -29.3041   22.3666 N   0  0  0  0  0  0
  -26.4291  -37.3772   23.9405 N   0  0  0  0  0  0
  -24.6908  -31.0588   22.0970 N   0  0  0  0  0  0
  -23.4195  -28.8135   23.3000 O   0  0  0  0  0  0
  -28.3116  -26.4145   20.1717 O   0  0  0  0  0  0
  -26.5619  -34.8916   22.4663 O   0  0  0  0  0  0
  -23.5434  -32.1379   23.7337 O   0  0  0  0  0  0
  -30.1853  -23.7275   19.9059 C   0  0  0  0  0  0
  -28.6241  -19.2541   19.9290 C   0  0  0  0  0  0
  -30.7758  -19.4228   20.9822 C   0  0  0  0  0  0
  -28.8678  -23.7967   20.4457 C   0  0  0  0  0  0
  -29.6505  -20.1003   20.4264 C   0  0  0  0  0  0
  -28.7110  -17.8291   19.9934 C   0  0  0  0  0  0
  -29.8308  -17.1610   20.5644 C   0  0  0  0  0  0
  -30.8690  -17.9972   21.0600 C   0  0  0  0  0  0
  -28.5266  -22.4595   20.6900 C   0  0  0  0  0  0
  -30.5733  -22.4119   19.8485 C   0  0  0  0  0  0
  -27.2523  -21.9273   21.2711 C   0  0  0  0  0  0
  -28.0112  -25.0829   20.7648 C   0  0  0  0  0  0
  -29.5761  -21.5709   20.3326 N   0  0  0  0  0  0
  -27.6695  -17.0598   19.4634 N   0  0  0  0  0  0
  -29.7510  -15.7092   20.7353 N   0  0  0  0  0  0
  -31.7493  -21.9032   19.3917 O   0  0  0  0  0  0
  -31.9507  -17.4429   21.6595 F   0  0  0  0  0  0
  -31.4853  -12.5448   19.1419 H   0  0  0  0  0  0
  -30.3878  -11.4163   19.8911 H   0  0  0  0  0  0
  -29.7765  -11.7668   17.4746 H   0  0  0  0  0  0
  -29.6513  -13.4870   17.7396 H   0  0  0  0  0  0
  -27.8687  -11.2977   18.8591 H   0  0  0  0  0  0
  -27.3795  -12.5901   17.7923 H   0  0  0  0  0  0
  -27.6630  -14.2507   19.5189 H   0  0  0  0  0  0
  -28.7261  -12.0593   21.3722 H   0  0  0  0  0  0
  -28.4517  -13.7132   21.8419 H   0  0  0  0  0  0
  -25.2769   -9.5677   22.4741 H   0  0  0  0  0  0
  -24.0008   -7.4631   22.7458 H   0  0  0  0  0  0
  -21.0838   -8.8793   19.8952 H   0  0  0  0  0  0
  -22.3721  -10.9672   19.6150 H   0  0  0  0  0  0
  -21.2021   -7.6134   23.9725 H   0  0  0  0  0  0
  -21.1469   -6.0499   25.9080 H   0  0  0  0  0  0
  -22.0601   -2.7604   23.2840 H   0  0  0  0  0  0
  -22.4069  -11.9891   22.4824 H   0  0  0  0  0  0
  -21.1114  -13.1308   22.2608 H   0  0  0  0  0  0
  -24.6469  -15.8321   20.5618 H   0  0  0  0  0  0
  -26.2730  -15.6802   20.1554 H   0  0  0  0  0  0
  -26.7182  -32.5449   23.1086 H   0  0  0  0  0  0
  -25.0087  -33.9717   25.0421 H   0  0  0  0  0  0
  -22.7177  -31.3020   21.3997 H   0  0  0  0  0  0
  -23.3761  -35.9610   23.3297 H   0  0  0  0  0  0
  -24.3589  -36.8905   22.2054 H   0  0  0  0  0  0
  -23.7249  -37.6482   23.6666 H   0  0  0  0  0  0
  -26.0947  -31.5538   20.6068 H   0  0  0  0  0  0
  -26.8463  -30.8409   22.0026 H   0  0  0  0  0  0
  -28.1221  -28.9724   21.2047 H   0  0  0  0  0  0
  -26.0012  -25.9345   18.9887 H   0  0  0  0  0  0
  -23.9829  -27.3124   18.9987 H   0  0  0  0  0  0
  -23.7562  -30.5908   19.4016 H   0  0  0  0  0  0
  -22.7617  -29.2430   19.8587 H   0  0  0  0  0  0
  -25.1302  -36.1926   25.0822 H   0  0  0  0  0  0
  -20.9984  -28.3285   24.1397 H   0  0  0  0  0  0
  -20.5663  -26.2299   23.3621 H   0  0  0  0  0  0
  -21.6652  -26.7436   22.1232 H   0  0  0  0  0  0
  -19.6925  -25.6295   21.1246 H   0  0  0  0  0  0
  -19.6715  -27.3182   20.6730 H   0  0  0  0  0  0
  -17.4212  -26.6700   21.3999 H   0  0  0  0  0  0
  -18.0315  -26.0076   22.8996 H   0  0  0  0  0  0
  -19.7939  -30.7274   24.2275 H   0  0  0  0  0  0
  -17.5017  -31.6272   24.5167 H   0  0  0  0  0  0
  -15.5354  -30.2998   23.7651 H   0  0  0  0  0  0
  -15.8668  -28.0822   22.7079 H   0  0  0  0  0  0
  -24.5922  -30.7059   25.7786 H   0  0  0  0  0  0
  -24.8897  -32.2904   26.4830 H   0  0  0  0  0  0
  -25.8060  -30.8959   27.0235 H   0  0  0  0  0  0
  -26.2878  -29.6770   24.1190 H   0  0  0  0  0  0
  -27.4000  -29.7248   25.4673 H   0  0  0  0  0  0
  -27.8766  -30.4266   23.9387 H   0  0  0  0  0  0
  -27.2702  -33.3615   26.2057 H   0  0  0  0  0  0
  -28.3891  -32.6851   25.0316 H   0  0  0  0  0  0
  -28.0725  -31.8425   26.5401 H   0  0  0  0  0  0
  -28.2598  -38.0094   24.7504 H   0  0  0  0  0  0
  -28.1079  -36.2627   24.6273 H   0  0  0  0  0  0
  -27.2298  -37.1449   25.8856 H   0  0  0  0  0  0
  -20.9369  -29.8763   21.6878 H   0  0  0  0  0  0
  -26.0168  -38.2842   24.1422 H   0  0  0  0  0  0
  -30.7892  -24.5709   19.6002 H   0  0  0  0  0  0
  -27.7597  -19.7151   19.4736 H   0  0  0  0  0  0
  -31.5937  -20.0098   21.3718 H   0  0  0  0  0  0
  -26.7374  -22.6876   21.8584 H   0  0  0  0  0  0
  -27.4326  -21.0792   21.9318 H   0  0  0  0  0  0
  -26.5708  -21.6038   20.4836 H   0  0  0  0  0  0
  -28.0799  -25.2217   21.8446 H   0  0  0  0  0  0
  -26.9752  -24.7942   20.5947 H   0  0  0  0  0  0
  -26.9637  -17.5889   18.9616 H   0  0  0  0  0  0
  -27.9871  -16.2894   18.8865 H   0  0  0  0  0  0
  -28.8021  -15.4008   20.8690 H   0  0  0  0  0  0
  -32.2980  -22.6356   19.1290 H   0  0  0  0  0  0
  1 25  1  0  0  0
  1 30  2  0  0  0
  1 85  1  0  0  0
  2  3  1  0  0  0
  2 25  1  0  0  0
  2 88  1  0  0  0
  2 89  1  0  0  0
  3  4  1  0  0  0
  3 90  1  0  0  0
  3 91  1  0  0  0
  4  5  1  0  0  0
  4 92  1  0  0  0
  4 93  1  0  0  0
  5  6  1  0  0  0
  5 26  1  0  0  0
  5 94  1  0  0  0
  6 25  1  0  0  0
  6 95  1  0  0  0
  6 96  1  0  0  0
  7  8  2  0  0  0
  7 26  1  0  0  0
  7 29  1  0  0  0
  8  9  1  0  0  0
  8 22  1  0  0  0
  9 10  1  0  0  0
  9 27  2  0  0  0
 10 11  2  0  0  0
 10 15  1  0  0  0
 11 12  1  0  0  0
 11 97  1  0  0  0
 12 13  2  0  0  0
 12 98  1  0  0  0
 13 14  1  0  0  0
 13 31  1  0  0  0
 14 15  2  0  0  0
 14 99  1  0  0  0
 15100  1  0  0  0
 16 17  2  0  0  0
 16 21  1  0  0  0
 16 31  1  0  0  0
 17 18  1  0  0  0
 17101  1  0  0  0
 18 19  2  0  0  0
 18102  1  0  0  0
 19 20  1  0  0  0
 19 24  1  0  0  0
 20 21  2  0  0  0
 20103  1  0  0  0
 21 23  1  0  0  0
 22 28  1  0  0  0
 22 32  2  0  0  0
 26 27  1  0  0  0
 28104  1  0  0  0
 28105  1  0  0  0
 29106  1  0  0  0
 29107  1  0  0  0
 33 34  1  0  0  0
 33 66  1  0  0  0
 33 70  2  0  0  0
 34 36  1  0  0  0
 34 59  1  0  0  0
 34108  1  0  0  0
 35 44  2  0  0  0
 35 45  1  0  0  0
 35 68  1  0  0  0
 36 56  1  0  0  0
 36109  1  0  0  0
 37 39  1  0  0  0
 37 47  1  0  0  0
 37 66  1  0  0  0
 37110  1  0  0  0
 38 43  2  0  0  0
 38 46  1  0  0  0
 38 47  1  0  0  0
 39 64  1  0  0  0
 39 67  2  0  0  0
 40 52  1  0  0  0
 40 53  2  0  0  0
 40 58  1  0  0  0
 41111  1  0  0  0
 41112  1  0  0  0
 41113  1  0  0  0
 41 48  1  0  0  0
 42 43  1  0  0  0
 42 66  1  0  0  0
 42114  1  0  0  0
 42115  1  0  0  0
 43 44  1  0  0  0
 44116  1  0  0  0
 45 46  2  0  0  0
 45117  1  0  0  0
 46118  1  0  0  0
 47119  1  0  0  0
 47120  1  0  0  0
 48 56  1  0  0  0
 48 65  1  0  0  0
 48121  1  0  0  0
 49 50  1  0  0  0
 49 53  1  0  0  0
 49 64  1  0  0  0
 49122  1  0  0  0
 50 51  1  0  0  0
 50123  1  0  0  0
 50124  1  0  0  0
 51 52  1  0  0  0
 51125  1  0  0  0
 51126  1  0  0  0
 52127  1  0  0  0
 52128  1  0  0  0
 53 54  1  0  0  0
 54 55  2  0  0  0
 54129  1  0  0  0
 55 57  1  0  0  0
 55130  1  0  0  0
 56 69  2  0  0  0
 57 58  2  0  0  0
 57131  1  0  0  0
 58132  1  0  0  0
 59 60  1  0  0  0
 59 61  1  0  0  0
 59 62  1  0  0  0
 60133  1  0  0  0
 60134  1  0  0  0
 60135  1  0  0  0
 61136  1  0  0  0
 61137  1  0  0  0
 61138  1  0  0  0
 62139  1  0  0  0
 62140  1  0  0  0
 62141  1  0  0  0
 63 65  1  0  0  0
 63142  1  0  0  0
 63143  1  0  0  0
 63144  1  0  0  0
 64145  1  0  0  0
 65146  1  0  0  0
 68 82  1  0  0  0
 71 74  1  0  0  0
 71 80  2  0  0  0
 71147  1  0  0  0
 72 75  2  0  0  0
 72 76  1  0  0  0
 72148  1  0  0  0
 73 75  1  0  0  0
 73 78  2  0  0  0
 73149  1  0  0  0
 74 79  2  0  0  0
 74 82  1  0  0  0
 75 83  1  0  0  0
 76 77  2  0  0  0
 76 84  1  0  0  0
 77 78  1  0  0  0
 77 85  1  0  0  0
 78 87  1  0  0  0
 79 81  1  0  0  0
 79 83  1  0  0  0
 80 83  1  0  0  0
 80 86  1  0  0  0
 81150  1  0  0  0
 81151  1  0  0  0
 81152  1  0  0  0
 82153  1  0  0  0
 82154  1  0  0  0
 84155  1  0  0  0
 84156  1  0  0  0
 85157  1  0  0  0
 86158  1  0  0  0
M  ISO  4   1 100  68 101  82 101  85 100
M  END
> <chiral flag>
0

> <version>
0

> <s_m_source_file>
/data/baiqing/PycharmProjects/Reinvent-master-3.2/result/LINK_invent/BTK/process_docking_weight1_custom_product_contain_oxygen_bond_distance_aromatic_linkinvent_7_9_3/rearranged_h_0089.sdf

> <i_m_source_file_index>
94

> <r_mmod_Potential_Energy-OPLS-2005>
-22.7378826141357

> <r_mmod_Stretch_Energy-OPLS-2005>
84.2158813476562

> <r_mmod_Bend_Energy-OPLS-2005>
138.852523803711

> <r_mmod_Torsional_Energy-OPLS-2005>
267.719299316406

> <r_mmod_Improper_Torsional_Energy-OPLS-2005>
11.6241140365601

> <r_mmod_Van_der_Waal_Energy-OPLS-2005>
139.248321533203

> <r_mmod_Electrostatic_Energy-OPLS-2005>
-499.002380371094

> <r_mmod_Solvation_Energy-OPLS-2005>
-224.750762939453

> <b_mmod_Minimization_Converged-OPLS-2005>
0

> <r_mmod_RMS_Derivative-OPLS-2005>
1.47336030006409

$$$$
94
                    3D
 Structure written by MMmdl.
155163  0  0  1  0            999 V2000
  -30.6738  -14.4740   20.5617 C   0  0  0  0  0  0
  -30.4276  -12.3043   19.4073 C   0  0  0  0  0  0
  -29.4936  -12.5109   18.1963 C   0  0  0  0  0  0
  -28.0141  -12.3612   18.6062 C   0  0  0  0  0  0
  -27.6641  -13.1935   19.8696 C   0  0  2  0  0  0
  -28.7071  -12.9535   20.9856 C   0  0  0  0  0  0
  -25.2648  -13.8121   20.5714 C   0  0  0  0  0  0
  -24.1865  -13.0428   20.9153 C   0  0  0  0  0  0
  -24.6393  -11.6883   20.8693 C   0  0  0  0  0  0
  -23.9051  -10.4290   21.0385 C   0  0  0  0  0  0
  -24.3615   -9.4215   21.9174 C   0  0  0  0  0  0
  -23.6277   -8.2247   22.0770 C   0  0  0  0  0  0
  -22.4261   -8.0283   21.3563 C   0  0  0  0  0  0
  -21.9887   -9.0259   20.4666 C   0  0  0  0  0  0
  -22.7221  -10.2135   20.3053 C   0  0  0  0  0  0
  -21.6854   -6.0725   22.5279 C   0  0  0  0  0  0
  -21.4017   -6.5641   23.8214 C   0  0  0  0  0  0
  -21.3662   -5.6804   24.9178 C   0  0  0  0  0  0
  -21.6032   -4.3060   24.7238 C   0  0  0  0  0  0
  -21.8825   -3.8154   23.4362 C   0  0  0  0  0  0
  -21.9193   -4.6946   22.3422 C   0  0  0  0  0  0
  -22.7890  -13.5252   21.1828 C   0  0  0  0  0  0
  -22.1652   -4.2133   21.0995 F   0  0  0  0  0  0
  -21.5633   -3.4553   25.7759 F   0  0  0  0  0  0
  -30.0373  -13.2771   20.4393 N   0  0  0  0  0  0
  -26.3038  -12.9253   20.3335 N   0  0  0  0  0  0
  -25.9305  -11.6426   20.5690 N   0  0  0  0  0  0
  -22.0534  -12.8245   22.0378 N   0  0  0  0  0  0
  -25.4472  -15.1846   20.4325 N   0  0  0  0  0  0
  -31.8027  -14.6832   20.1045 O   0  0  0  0  0  0
  -21.6639   -6.8867   21.4251 O   0  0  0  0  0  0
  -22.3573  -14.5549   20.6659 O   0  0  0  0  0  0
  -24.6105  -31.8649   23.2068 C   0  0  0  0  0  0
  -25.9011  -32.4813   23.8364 C   0  0  1  0  0  0
  -27.2689  -27.4378   20.0899 C   0  0  0  0  0  0
  -25.5865  -33.8607   24.2281 N   0  0  0  0  0  0
  -23.4039  -30.4783   21.5447 C   0  0  2  0  0  0
  -24.8648  -28.9426   20.1143 C   0  0  0  0  0  0
  -22.7398  -29.4617   22.5004 C   0  0  0  0  0  0
  -18.0260  -28.1343   22.8518 C   0  0  0  0  0  0
  -24.1503  -36.7296   23.2663 C   0  0  0  0  0  0
  -25.9308  -30.8314   21.3660 C   0  0  0  0  0  0
  -26.0178  -29.4643   20.7125 C   0  0  0  0  0  0
  -27.2155  -28.7117   20.7082 C   0  0  0  0  0  0
  -26.0977  -26.9345   19.4855 C   0  0  0  0  0  0
  -24.8984  -27.6756   19.5033 C   0  0  0  0  0  0
  -23.6189  -29.7961   20.1647 C   0  0  0  0  0  0
  -25.4151  -36.3088   24.0315 C   0  0  1  0  0  0
  -20.5846  -28.3623   23.1345 C   0  0  2  0  0  0
  -20.6739  -26.9361   22.5434 C   0  0  0  0  0  0
  -19.5724  -26.6360   21.5222 C   0  0  0  0  0  0
  -18.1906  -26.7889   22.1639 C   0  0  0  0  0  0
  -19.1510  -28.8806   23.2923 C   0  0  0  0  0  0
  -18.9442  -30.1421   23.8923 C   0  0  0  0  0  0
  -17.6449  -30.6570   24.0558 C   0  0  0  0  0  0
  -25.9033  -34.9452   23.5087 C   0  0  0  0  0  0
  -16.5336  -29.9072   23.6332 C   0  0  0  0  0  0
  -16.7252  -28.6470   23.0380 C   0  0  0  0  0  0
  -26.4457  -31.6620   25.0706 C   0  0  0  0  0  0
  -25.3686  -31.3755   26.1420 C   0  0  0  0  0  0
  -27.0333  -30.3048   24.6146 C   0  0  0  0  0  0
  -27.6012  -32.4358   25.7480 C   0  0  0  0  0  0
  -27.5523  -37.1906   24.8536 C   0  0  0  0  0  0
  -21.4122  -29.2984   22.3739 N   0  0  0  0  0  0
  -26.4377  -37.3716   23.9272 N   0  0  0  0  0  0
  -24.6651  -31.0729   22.0968 N   0  0  0  0  0  0
  -23.4168  -28.8184   23.3070 O   0  0  0  0  0  0
  -28.4513  -26.7210   20.1479 O   0  0  0  0  0  0
  -26.5594  -34.8898   22.4650 O   0  0  0  0  0  0
  -23.5299  -32.1410   23.7454 O   0  0  0  0  0  0
  -29.3696  -22.8736   16.3816 C   0  0  0  0  0  0
  -29.4722  -23.0819   17.5818 C   0  0  0  0  0  0
  -31.2585  -18.9748   21.2037 C   0  0  0  0  0  0
  -29.0362  -17.5884   20.2252 C   0  0  0  0  0  0
  -30.2458  -19.7128   20.5338 C   0  0  0  0  0  0
  -30.0625  -16.8621   20.8746 C   0  0  0  0  0  0
  -31.1711  -17.5749   21.3798 C   0  0  0  0  0  0
  -29.1249  -18.9895   20.0432 C   0  0  0  0  0  0
  -30.4209  -21.2131   20.3405 C   0  0  0  0  0  0
  -28.5710  -24.2772   19.5592 C   0  0  0  0  0  0
  -28.7982  -25.7533   19.1349 C   0  0  0  0  0  0
  -29.6059  -23.2257   19.0537 C   0  0  1  0  0  0
  -29.9076  -15.4550   21.0764 N   0  0  0  0  0  0
  -29.4676  -21.8936   19.6794 N   0  0  0  0  0  0
  -31.4458  -21.7700   20.7461 O   0  0  0  0  0  0
  -27.5691  -23.9656   20.2121 O   0  0  0  0  0  0
  -32.1404  -16.9291   22.0727 F   0  0  0  0  0  0
  -28.1153  -19.6197   19.3888 F   0  0  0  0  0  0
  -31.4692  -12.4167   19.1053 H   0  0  0  0  0  0
  -30.3360  -11.2860   19.7887 H   0  0  0  0  0  0
  -29.7344  -11.8009   17.4048 H   0  0  0  0  0  0
  -29.6556  -13.5044   17.7744 H   0  0  0  0  0  0
  -27.8292  -11.3025   18.7928 H   0  0  0  0  0  0
  -27.3611  -12.6351   17.7764 H   0  0  0  0  0  0
  -27.7123  -14.2437   19.5807 H   0  0  0  0  0  0
  -28.6864  -11.9072   21.2955 H   0  0  0  0  0  0
  -28.4701  -13.5199   21.8859 H   0  0  0  0  0  0
  -25.2760   -9.5687   22.4727 H   0  0  0  0  0  0
  -23.9995   -7.4655   22.7501 H   0  0  0  0  0  0
  -21.0815   -8.8781   19.8977 H   0  0  0  0  0  0
  -22.3684  -10.9672   19.6159 H   0  0  0  0  0  0
  -21.2011   -7.6148   23.9718 H   0  0  0  0  0  0
  -21.1457   -6.0533   25.9087 H   0  0  0  0  0  0
  -22.0592   -2.7605   23.2876 H   0  0  0  0  0  0
  -22.4126  -11.9900   22.4741 H   0  0  0  0  0  0
  -21.1164  -13.1286   22.2594 H   0  0  0  0  0  0
  -24.7003  -15.8498   20.6044 H   0  0  0  0  0  0
  -26.3284  -15.6317   20.2181 H   0  0  0  0  0  0
  -26.7086  -32.5551   23.1148 H   0  0  0  0  0  0
  -25.0031  -33.9786   25.0430 H   0  0  0  0  0  0
  -22.6902  -31.2910   21.3916 H   0  0  0  0  0  0
  -23.3639  -35.9794   23.3668 H   0  0  0  0  0  0
  -24.3474  -36.8551   22.2004 H   0  0  0  0  0  0
  -23.7486  -37.6693   23.6459 H   0  0  0  0  0  0
  -26.0434  -31.6080   20.6088 H   0  0  0  0  0  0
  -26.8129  -30.8850   21.9914 H   0  0  0  0  0  0
  -28.1048  -29.1074   21.1787 H   0  0  0  0  0  0
  -26.1018  -25.9574   19.0253 H   0  0  0  0  0  0
  -24.0062  -27.2628   19.0527 H   0  0  0  0  0  0
  -23.7145  -30.5591   19.3915 H   0  0  0  0  0  0
  -22.7547  -29.1928   19.8816 H   0  0  0  0  0  0
  -25.1397  -36.1985   25.0827 H   0  0  0  0  0  0
  -20.9939  -28.3168   24.1466 H   0  0  0  0  0  0
  -20.5617  -26.2229   23.3611 H   0  0  0  0  0  0
  -21.6612  -26.7389   22.1237 H   0  0  0  0  0  0
  -19.6881  -25.6278   21.1232 H   0  0  0  0  0  0
  -19.6662  -27.3188   20.6761 H   0  0  0  0  0  0
  -17.4173  -26.6657   21.4039 H   0  0  0  0  0  0
  -18.0308  -26.0012   22.9016 H   0  0  0  0  0  0
  -19.7925  -30.7217   24.2302 H   0  0  0  0  0  0
  -17.5009  -31.6262   24.5135 H   0  0  0  0  0  0
  -15.5337  -30.2979   23.7632 H   0  0  0  0  0  0
  -15.8653  -28.0774   22.7120 H   0  0  0  0  0  0
  -24.5910  -30.7051   25.7739 H   0  0  0  0  0  0
  -24.8826  -32.2937   26.4728 H   0  0  0  0  0  0
  -25.8005  -30.9025   27.0248 H   0  0  0  0  0  0
  -26.2941  -29.6780   24.1147 H   0  0  0  0  0  0
  -27.4023  -29.7313   25.4662 H   0  0  0  0  0  0
  -27.8788  -30.4336   23.9383 H   0  0  0  0  0  0
  -27.2600  -33.3644   26.2061 H   0  0  0  0  0  0
  -28.3830  -32.6939   25.0327 H   0  0  0  0  0  0
  -28.0673  -31.8486   26.5402 H   0  0  0  0  0  0
  -28.2886  -37.9814   24.7047 H   0  0  0  0  0  0
  -28.0645  -36.2374   24.7131 H   0  0  0  0  0  0
  -27.2133  -37.2480   25.8894 H   0  0  0  0  0  0
  -20.9275  -29.8695   21.6953 H   0  0  0  0  0  0
  -26.0283  -38.2869   24.0923 H   0  0  0  0  0  0
  -29.2795  -22.6531   15.3409 H   0  0  0  0  0  0
  -32.1198  -19.4882   21.6057 H   0  0  0  0  0  0
  -28.1729  -17.0677   19.8423 H   0  0  0  0  0  0
  -28.2899  -25.9581   18.1942 H   0  0  0  0  0  0
  -29.8649  -25.8771   18.9481 H   0  0  0  0  0  0
  -30.6065  -23.6223   19.2371 H   0  0  0  0  0  0
  -28.9906  -15.1435   21.3569 H   0  0  0  0  0  0
  -28.6398  -21.3692   19.4260 H   0  0  0  0  0  0
  1 25  1  0  0  0
  1 30  2  0  0  0
  1 83  1  0  0  0
  2  3  1  0  0  0
  2 25  1  0  0  0
  2 89  1  0  0  0
  2 90  1  0  0  0
  3  4  1  0  0  0
  3 91  1  0  0  0
  3 92  1  0  0  0
  4  5  1  0  0  0
  4 93  1  0  0  0
  4 94  1  0  0  0
  5  6  1  0  0  0
  5 26  1  0  0  0
  5 95  1  0  0  0
  6 25  1  0  0  0
  6 96  1  0  0  0
  6 97  1  0  0  0
  7  8  2  0  0  0
  7 26  1  0  0  0
  7 29  1  0  0  0
  8  9  1  0  0  0
  8 22  1  0  0  0
  9 10  1  0  0  0
  9 27  2  0  0  0
 10 11  2  0  0  0
 10 15  1  0  0  0
 11 12  1  0  0  0
 11 98  1  0  0  0
 12 13  2  0  0  0
 12 99  1  0  0  0
 13 14  1  0  0  0
 13 31  1  0  0  0
 14 15  2  0  0  0
 14100  1  0  0  0
 15101  1  0  0  0
 16 17  2  0  0  0
 16 21  1  0  0  0
 16 31  1  0  0  0
 17 18  1  0  0  0
 17102  1  0  0  0
 18 19  2  0  0  0
 18103  1  0  0  0
 19 20  1  0  0  0
 19 24  1  0  0  0
 20 21  2  0  0  0
 20104  1  0  0  0
 21 23  1  0  0  0
 22 28  1  0  0  0
 22 32  2  0  0  0
 26 27  1  0  0  0
 28105  1  0  0  0
 28106  1  0  0  0
 29107  1  0  0  0
 29108  1  0  0  0
 33 34  1  0  0  0
 33 66  1  0  0  0
 33 70  2  0  0  0
 34 36  1  0  0  0
 34 59  1  0  0  0
 34109  1  0  0  0
 35 44  2  0  0  0
 35 45  1  0  0  0
 35 68  1  0  0  0
 36 56  1  0  0  0
 36110  1  0  0  0
 37 39  1  0  0  0
 37 47  1  0  0  0
 37 66  1  0  0  0
 37111  1  0  0  0
 38 43  2  0  0  0
 38 46  1  0  0  0
 38 47  1  0  0  0
 39 64  1  0  0  0
 39 67  2  0  0  0
 40 52  1  0  0  0
 40 53  2  0  0  0
 40 58  1  0  0  0
 41112  1  0  0  0
 41113  1  0  0  0
 41114  1  0  0  0
 41 48  1  0  0  0
 42 43  1  0  0  0
 42 66  1  0  0  0
 42115  1  0  0  0
 42116  1  0  0  0
 43 44  1  0  0  0
 44117  1  0  0  0
 45 46  2  0  0  0
 45118  1  0  0  0
 46119  1  0  0  0
 47120  1  0  0  0
 47121  1  0  0  0
 48 56  1  0  0  0
 48 65  1  0  0  0
 48122  1  0  0  0
 49 50  1  0  0  0
 49 53  1  0  0  0
 49 64  1  0  0  0
 49123  1  0  0  0
 50 51  1  0  0  0
 50124  1  0  0  0
 50125  1  0  0  0
 51 52  1  0  0  0
 51126  1  0  0  0
 51127  1  0  0  0
 52128  1  0  0  0
 52129  1  0  0  0
 53 54  1  0  0  0
 54 55  2  0  0  0
 54130  1  0  0  0
 55 57  1  0  0  0
 55131  1  0  0  0
 56 69  2  0  0  0
 57 58  2  0  0  0
 57132  1  0  0  0
 58133  1  0  0  0
 59 60  1  0  0  0
 59 61  1  0  0  0
 59 62  1  0  0  0
 60134  1  0  0  0
 60135  1  0  0  0
 60136  1  0  0  0
 61137  1  0  0  0
 61138  1  0  0  0
 61139  1  0  0  0
 62140  1  0  0  0
 62141  1  0  0  0
 62142  1  0  0  0
 63 65  1  0  0  0
 63143  1  0  0  0
 63144  1  0  0  0
 63145  1  0  0  0
 64146  1  0  0  0
 65147  1  0  0  0
 68 81  1  0  0  0
 71 72  3  0  0  0
 71148  1  0  0  0
 72 82  1  0  0  0
 73 75  2  0  0  0
 73 77  1  0  0  0
 73149  1  0  0  0
 74 76  1  0  0  0
 74 78  2  0  0  0
 74150  1  0  0  0
 75 78  1  0  0  0
 75 79  1  0  0  0
 76 77  2  0  0  0
 76 83  1  0  0  0
 77 87  1  0  0  0
 78 88  1  0  0  0
 79 84  1  0  0  0
 79 85  2  0  0  0
 80 81  1  0  0  0
 80 82  1  0  0  0
 80 86  2  0  0  0
 81151  1  0  0  0
 81152  1  0  0  0
 82 84  1  0  0  0
 82153  1  0  0  0
 83154  1  0  0  0
 84155  1  0  0  0
M  ISO  4   1 100  68 101  81 101  83 100
M  END
> <chiral flag>
0

> <version>
0

> <s_m_source_file>
/data/baiqing/PycharmProjects/Reinvent-master-3.2/result/LINK_invent/BTK/process_docking_weight1_custom_product_contain_oxygen_bond_distance_aromatic_linkinvent_7_9_3/rearranged_h_0089.sdf

> <i_m_source_file_index>
95

> <r_mmod_Potential_Energy-OPLS-2005>
-175.29931640625

> <r_mmod_Stretch_Energy-OPLS-2005>
43.1730651855469

> <r_mmod_Bend_Energy-OPLS-2005>
108.058303833008

> <r_mmod_Torsional_Energy-OPLS-2005>
225.844970703125

> <r_mmod_Improper_Torsional_Energy-OPLS-2005>
5.94601106643677

> <r_mmod_Van_der_Waal_Energy-OPLS-2005>
151.925964355469

> <r_mmod_Electrostatic_Energy-OPLS-2005>
-473.973388671875

> <r_mmod_Solvation_Energy-OPLS-2005>
-250.085494995117

> <b_mmod_Minimization_Converged-OPLS-2005>
0

> <r_mmod_RMS_Derivative-OPLS-2005>
4.25745248794556

$$$$
95
                    3D
 Structure written by MMmdl.
158166  0  0  1  0            999 V2000
  -30.5328  -14.8692   20.4579 C   0  0  0  0  0  0
  -30.4382  -12.5427   19.4788 C   0  0  0  0  0  0
  -29.5234  -12.5460   18.2325 C   0  0  0  0  0  0
  -28.0494  -12.3368   18.6358 C   0  0  0  0  0  0
  -27.6335  -13.2350   19.8301 C   0  0  2  0  0  0
  -28.6664  -13.1657   20.9662 C   0  0  0  0  0  0
  -25.2510  -13.8184   20.5634 C   0  0  0  0  0  0
  -24.1806  -13.0446   20.9161 C   0  0  0  0  0  0
  -24.6384  -11.6916   20.8680 C   0  0  0  0  0  0
  -23.9069  -10.4303   21.0364 C   0  0  0  0  0  0
  -24.3643   -9.4228   21.9133 C   0  0  0  0  0  0
  -23.6322   -8.2271   22.0739 C   0  0  0  0  0  0
  -22.4286   -8.0304   21.3553 C   0  0  0  0  0  0
  -21.9929   -9.0268   20.4641 C   0  0  0  0  0  0
  -22.7258  -10.2130   20.3015 C   0  0  0  0  0  0
  -21.6855   -6.0755   22.5296 C   0  0  0  0  0  0
  -21.4026   -6.5648   23.8232 C   0  0  0  0  0  0
  -21.3644   -5.6793   24.9181 C   0  0  0  0  0  0
  -21.6020   -4.3058   24.7226 C   0  0  0  0  0  0
  -21.8820   -3.8162   23.4344 C   0  0  0  0  0  0
  -21.9198   -4.6987   22.3408 C   0  0  0  0  0  0
  -22.7836  -13.5248   21.1832 C   0  0  0  0  0  0
  -22.1673   -4.2170   21.0986 F   0  0  0  0  0  0
  -21.5615   -3.4542   25.7739 F   0  0  0  0  0  0
  -29.9501  -13.6060   20.4018 N   0  0  0  0  0  0
  -26.2886  -12.9386   20.3096 N   0  0  0  0  0  0
  -25.9291  -11.6517   20.5576 N   0  0  0  0  0  0
  -22.0468  -12.8256   22.0385 N   0  0  0  0  0  0
  -25.4272  -15.1915   20.4184 N   0  0  0  0  0  0
  -31.6981  -14.9739   20.0591 O   0  0  0  0  0  0
  -21.6643   -6.8897   21.4259 O   0  0  0  0  0  0
  -22.3502  -14.5523   20.6621 O   0  0  0  0  0  0
  -24.6387  -31.8453   23.1932 C   0  0  0  0  0  0
  -25.9200  -32.4683   23.8276 C   0  0  1  0  0  0
  -27.1907  -27.1897   20.1321 C   0  0  0  0  0  0
  -25.5992  -33.8489   24.2211 N   0  0  0  0  0  0
  -23.4380  -30.4698   21.5369 C   0  0  2  0  0  0
  -24.8831  -28.9111   20.1053 C   0  0  0  0  0  0
  -22.7529  -29.4549   22.4847 C   0  0  0  0  0  0
  -18.0295  -28.1377   22.8463 C   0  0  0  0  0  0
  -24.1497  -36.7256   23.2635 C   0  0  0  0  0  0
  -25.9911  -30.7355   21.3854 C   0  0  0  0  0  0
  -26.0612  -29.3540   20.7249 C   0  0  0  0  0  0
  -27.2248  -28.5046   20.7300 C   0  0  0  0  0  0
  -25.9971  -26.8358   19.4808 C   0  0  0  0  0  0
  -24.8578  -27.6622   19.4695 C   0  0  0  0  0  0
  -23.6614  -29.8113   20.1513 C   0  0  0  0  0  0
  -25.4116  -36.3009   24.0312 C   0  0  1  0  0  0
  -20.5905  -28.3683   23.1243 C   0  0  2  0  0  0
  -20.6778  -26.9403   22.5382 C   0  0  0  0  0  0
  -19.5754  -26.6372   21.5186 C   0  0  0  0  0  0
  -18.1945  -26.7916   22.1607 C   0  0  0  0  0  0
  -19.1551  -28.8851   23.2850 C   0  0  0  0  0  0
  -18.9464  -30.1458   23.8867 C   0  0  0  0  0  0
  -17.6463  -30.6576   24.0545 C   0  0  0  0  0  0
  -25.9064  -34.9383   23.5048 C   0  0  0  0  0  0
  -16.5354  -29.9067   23.6338 C   0  0  0  0  0  0
  -16.7287  -28.6490   23.0353 C   0  0  0  0  0  0
  -26.4552  -31.6542   25.0699 C   0  0  0  0  0  0
  -25.3805  -31.3704   26.1450 C   0  0  0  0  0  0
  -27.0385  -30.2928   24.6255 C   0  0  0  0  0  0
  -27.6070  -32.4301   25.7494 C   0  0  0  0  0  0
  -27.5575  -37.1769   24.8451 C   0  0  0  0  0  0
  -21.4229  -29.3027   22.3625 N   0  0  0  0  0  0
  -26.4261  -37.3731   23.9418 N   0  0  0  0  0  0
  -24.7079  -31.0368   22.0931 N   0  0  0  0  0  0
  -23.4206  -28.8077   23.2957 O   0  0  0  0  0  0
  -28.1943  -26.1775   20.1508 O   0  0  0  0  0  0
  -26.5617  -34.8880   22.4604 O   0  0  0  0  0  0
  -23.5532  -32.1309   23.7216 O   0  0  0  0  0  0
  -29.2850  -17.1756   18.6630 C   0  0  0  0  0  0
  -29.3820  -18.6859   20.5570 C   0  0  0  0  0  0
  -29.5231  -17.3003   20.0507 C   0  0  0  0  0  0
  -28.8640  -18.2751   17.8774 C   0  0  0  0  0  0
  -28.9507  -19.8657   19.7862 C   0  0  0  0  0  0
  -28.6619  -19.5726   18.4214 C   0  0  0  0  0  0
  -28.4346  -16.7827   22.7774 C   0  0  0  0  0  0
  -29.3832  -16.0163   22.2049 C   0  0  0  0  0  0
  -27.9200  -25.0069   20.9383 C   0  0  0  0  0  0
  -28.0861  -23.6008   20.9193 C   0  0  0  0  0  0
  -28.6505  -22.5807   19.9328 C   0  0  0  0  0  0
  -28.5713  -18.0674   16.5260 N   0  0  0  0  0  0
  -28.1420  -20.5300   17.5506 N   0  0  0  0  0  0
  -28.6817  -21.2391   20.3840 N   0  0  0  0  0  0
  -29.7901  -16.0219   20.8511 N   0  0  0  0  0  0
  -29.0653  -22.8919   18.8164 O   0  0  0  0  0  0
  -27.6179  -23.0101   22.0346 O   0  0  0  0  0  0
  -31.4762  -12.6924   19.1775 H   0  0  0  0  0  0
  -30.4126  -11.5699   19.9703 H   0  0  0  0  0  0
  -29.8443  -11.7800   17.5251 H   0  0  0  0  0  0
  -29.6250  -13.4985   17.7091 H   0  0  0  0  0  0
  -27.9273  -11.2852   18.9030 H   0  0  0  0  0  0
  -27.3945  -12.5092   17.7807 H   0  0  0  0  0  0
  -27.6260  -14.2592   19.4562 H   0  0  0  0  0  0
  -28.7387  -12.1484   21.3554 H   0  0  0  0  0  0
  -28.3348  -13.7737   21.8024 H   0  0  0  0  0  0
  -25.2794   -9.5720   22.4674 H   0  0  0  0  0  0
  -24.0037   -7.4668   22.7459 H   0  0  0  0  0  0
  -21.0860   -8.8791   19.8957 H   0  0  0  0  0  0
  -22.3733  -10.9658   19.6114 H   0  0  0  0  0  0
  -21.2043   -7.6158   23.9746 H   0  0  0  0  0  0
  -21.1442   -6.0511   25.9074 H   0  0  0  0  0  0
  -22.0610   -2.7630   23.2832 H   0  0  0  0  0  0
  -22.4114  -11.9969   22.4850 H   0  0  0  0  0  0
  -21.1053  -13.1237   22.2483 H   0  0  0  0  0  0
  -24.6742  -15.8583   20.5453 H   0  0  0  0  0  0
  -26.3005  -15.6280   20.1542 H   0  0  0  0  0  0
  -26.7252  -32.5305   23.0993 H   0  0  0  0  0  0
  -25.0227  -33.9573   25.0418 H   0  0  0  0  0  0
  -22.7402  -31.2947   21.3876 H   0  0  0  0  0  0
  -23.3746  -35.9600   23.3249 H   0  0  0  0  0  0
  -24.3616  -36.8927   22.2067 H   0  0  0  0  0  0
  -23.7264  -37.6444   23.6688 H   0  0  0  0  0  0
  -26.1475  -31.4960   20.6193 H   0  0  0  0  0  0
  -26.8614  -30.7781   22.0288 H   0  0  0  0  0  0
  -28.1248  -28.8245   21.2364 H   0  0  0  0  0  0
  -25.9322  -25.8669   19.0056 H   0  0  0  0  0  0
  -23.9595  -27.3182   18.9747 H   0  0  0  0  0  0
  -23.8067  -30.5884   19.3988 H   0  0  0  0  0  0
  -22.7769  -29.2573   19.8308 H   0  0  0  0  0  0
  -25.1308  -36.1810   25.0800 H   0  0  0  0  0  0
  -21.0014  -28.3270   24.1350 H   0  0  0  0  0  0
  -20.5653  -26.2306   23.3593 H   0  0  0  0  0  0
  -21.6655  -26.7395   22.1202 H   0  0  0  0  0  0
  -19.6914  -25.6279   21.1236 H   0  0  0  0  0  0
  -19.6700  -27.3168   20.6710 H   0  0  0  0  0  0
  -17.4214  -26.6648   21.4023 H   0  0  0  0  0  0
  -18.0355  -26.0070   22.9017 H   0  0  0  0  0  0
  -19.7942  -30.7278   24.2233 H   0  0  0  0  0  0
  -17.5012  -31.6253   24.5138 H   0  0  0  0  0  0
  -15.5352  -30.2946   23.7665 H   0  0  0  0  0  0
  -15.8690  -28.0783   22.7078 H   0  0  0  0  0  0
  -24.5983  -30.7033   25.7821 H   0  0  0  0  0  0
  -24.9031  -32.2887   26.4870 H   0  0  0  0  0  0
  -25.8196  -30.8914   27.0221 H   0  0  0  0  0  0
  -26.2965  -29.6674   24.1290 H   0  0  0  0  0  0
  -27.4012  -29.7195   25.4794 H   0  0  0  0  0  0
  -27.8878  -30.4110   23.9527 H   0  0  0  0  0  0
  -27.2629  -33.3597   26.2026 H   0  0  0  0  0  0
  -28.3931  -32.6870   25.0385 H   0  0  0  0  0  0
  -28.0702  -31.8494   26.5483 H   0  0  0  0  0  0
  -28.2524  -38.0125   24.7557 H   0  0  0  0  0  0
  -28.1131  -36.2660   24.6186 H   0  0  0  0  0  0
  -27.2319  -37.1325   25.8855 H   0  0  0  0  0  0
  -20.9436  -29.8797   21.6867 H   0  0  0  0  0  0
  -26.0121  -38.2773   24.1472 H   0  0  0  0  0  0
  -29.3629  -16.2058   18.1893 H   0  0  0  0  0  0
  -29.5983  -18.8601   21.5992 H   0  0  0  0  0  0
  -28.2224  -16.6776   23.8304 H   0  0  0  0  0  0
  -27.8470  -17.5110   22.2376 H   0  0  0  0  0  0
  -29.9094  -15.2975   22.8207 H   0  0  0  0  0  0
  -27.4491  -25.3821   21.8364 H   0  0  0  0  0  0
  -28.4602  -17.0986   16.2556 H   0  0  0  0  0  0
  -27.7728  -18.6102   16.2178 H   0  0  0  0  0  0
  -28.4114  -20.3360   16.5928 H   0  0  0  0  0  0
  -28.3731  -21.4884   17.8141 H   0  0  0  0  0  0
  -28.3930  -21.2140   21.3528 H   0  0  0  0  0  0
  -27.2391  -23.6849   22.5845 H   0  0  0  0  0  0
  1 25  1  0  0  0
  1 30  2  0  0  0
  1 85  1  0  0  0
  2  3  1  0  0  0
  2 25  1  0  0  0
  2 88  1  0  0  0
  2 89  1  0  0  0
  3  4  1  0  0  0
  3 90  1  0  0  0
  3 91  1  0  0  0
  4  5  1  0  0  0
  4 92  1  0  0  0
  4 93  1  0  0  0
  5  6  1  0  0  0
  5 26  1  0  0  0
  5 94  1  0  0  0
  6 25  1  0  0  0
  6 95  1  0  0  0
  6 96  1  0  0  0
  7  8  2  0  0  0
  7 26  1  0  0  0
  7 29  1  0  0  0
  8  9  1  0  0  0
  8 22  1  0  0  0
  9 10  1  0  0  0
  9 27  2  0  0  0
 10 11  2  0  0  0
 10 15  1  0  0  0
 11 12  1  0  0  0
 11 97  1  0  0  0
 12 13  2  0  0  0
 12 98  1  0  0  0
 13 14  1  0  0  0
 13 31  1  0  0  0
 14 15  2  0  0  0
 14 99  1  0  0  0
 15100  1  0  0  0
 16 17  2  0  0  0
 16 21  1  0  0  0
 16 31  1  0  0  0
 17 18  1  0  0  0
 17101  1  0  0  0
 18 19  2  0  0  0
 18102  1  0  0  0
 19 20  1  0  0  0
 19 24  1  0  0  0
 20 21  2  0  0  0
 20103  1  0  0  0
 21 23  1  0  0  0
 22 28  1  0  0  0
 22 32  2  0  0  0
 26 27  1  0  0  0
 28104  1  0  0  0
 28105  1  0  0  0
 29106  1  0  0  0
 29107  1  0  0  0
 33 34  1  0  0  0
 33 66  1  0  0  0
 33 70  2  0  0  0
 34 36  1  0  0  0
 34 59  1  0  0  0
 34108  1  0  0  0
 35 44  2  0  0  0
 35 45  1  0  0  0
 35 68  1  0  0  0
 36 56  1  0  0  0
 36109  1  0  0  0
 37 39  1  0  0  0
 37 47  1  0  0  0
 37 66  1  0  0  0
 37110  1  0  0  0
 38 43  2  0  0  0
 38 46  1  0  0  0
 38 47  1  0  0  0
 39 64  1  0  0  0
 39 67  2  0  0  0
 40 52  1  0  0  0
 40 53  2  0  0  0
 40 58  1  0  0  0
 41111  1  0  0  0
 41112  1  0  0  0
 41113  1  0  0  0
 41 48  1  0  0  0
 42 43  1  0  0  0
 42 66  1  0  0  0
 42114  1  0  0  0
 42115  1  0  0  0
 43 44  1  0  0  0
 44116  1  0  0  0
 45 46  2  0  0  0
 45117  1  0  0  0
 46118  1  0  0  0
 47119  1  0  0  0
 47120  1  0  0  0
 48 56  1  0  0  0
 48 65  1  0  0  0
 48121  1  0  0  0
 49 50  1  0  0  0
 49 53  1  0  0  0
 49 64  1  0  0  0
 49122  1  0  0  0
 50 51  1  0  0  0
 50123  1  0  0  0
 50124  1  0  0  0
 51 52  1  0  0  0
 51125  1  0  0  0
 51126  1  0  0  0
 52127  1  0  0  0
 52128  1  0  0  0
 53 54  1  0  0  0
 54 55  2  0  0  0
 54129  1  0  0  0
 55 57  1  0  0  0
 55130  1  0  0  0
 56 69  2  0  0  0
 57 58  2  0  0  0
 57131  1  0  0  0
 58132  1  0  0  0
 59 60  1  0  0  0
 59 61  1  0  0  0
 59 62  1  0  0  0
 60133  1  0  0  0
 60134  1  0  0  0
 60135  1  0  0  0
 61136  1  0  0  0
 61137  1  0  0  0
 61138  1  0  0  0
 62139  1  0  0  0
 62140  1  0  0  0
 62141  1  0  0  0
 63 65  1  0  0  0
 63142  1  0  0  0
 63143  1  0  0  0
 63144  1  0  0  0
 64145  1  0  0  0
 65146  1  0  0  0
 68 79  1  0  0  0
 71 73  2  0  0  0
 71 74  1  0  0  0
 71147  1  0  0  0
 72 73  1  0  0  0
 72 75  2  0  0  0
 72148  1  0  0  0
 73 85  1  0  0  0
 74 76  2  0  0  0
 74 82  1  0  0  0
 75 76  1  0  0  0
 75 84  1  0  0  0
 76 83  1  0  0  0
 77 78  2  0  0  0
 77149  1  0  0  0
 77150  1  0  0  0
 78 85  1  0  0  0
 78151  1  0  0  0
 79 80  2  0  0  0
 79152  1  0  0  0
 80 81  1  0  0  0
 80 87  1  0  0  0
 81 84  1  0  0  0
 81 86  2  0  0  0
 82153  1  0  0  0
 82154  1  0  0  0
 83155  1  0  0  0
 83156  1  0  0  0
 84157  1  0  0  0
 87158  1  0  0  0
M  ISO  4   1 100  68 101  79 101  85 100
M  END
> <chiral flag>
0

> <version>
0

> <s_m_source_file>
/data/baiqing/PycharmProjects/Reinvent-master-3.2/result/LINK_invent/BTK/process_docking_weight1_custom_product_contain_oxygen_bond_distance_aromatic_linkinvent_7_9_3/rearranged_h_0089.sdf

> <i_m_source_file_index>
96

> <r_mmod_Potential_Energy-OPLS-2005>
387.178161621094

> <r_mmod_Stretch_Energy-OPLS-2005>
193.14533996582

> <r_mmod_Bend_Energy-OPLS-2005>
265.09912109375

> <r_mmod_Torsional_Energy-OPLS-2005>
325.932189941406

> <r_mmod_Improper_Torsional_Energy-OPLS-2005>
14.2628660202026

> <r_mmod_Van_der_Waal_Energy-OPLS-2005>
164.227767944336

> <r_mmod_Electrostatic_Energy-OPLS-2005>
-492.153900146484

> <r_mmod_Solvation_Energy-OPLS-2005>
-233.401016235352

> <b_mmod_Minimization_Converged-OPLS-2005>
0

> <r_mmod_RMS_Derivative-OPLS-2005>
4.6962366104126

$$$$
96
                    3D
 Structure written by MMmdl.
156165  0  0  1  0            999 V2000
  -30.6183  -14.6886   20.4940 C   0  0  0  0  0  0
  -30.4463  -12.4178   19.4671 C   0  0  0  0  0  0
  -29.5147  -12.5079   18.2347 C   0  0  0  0  0  0
  -28.0399  -12.3316   18.6473 C   0  0  0  0  0  0
  -27.6539  -13.2191   19.8607 C   0  0  2  0  0  0
  -28.7001  -13.0980   20.9940 C   0  0  0  0  0  0
  -25.2573  -13.8179   20.5706 C   0  0  0  0  0  0
  -24.1827  -13.0446   20.9193 C   0  0  0  0  0  0
  -24.6392  -11.6919   20.8722 C   0  0  0  0  0  0
  -23.9058  -10.4303   21.0398 C   0  0  0  0  0  0
  -24.3602   -9.4216   21.9177 C   0  0  0  0  0  0
  -23.6284   -8.2247   22.0749 C   0  0  0  0  0  0
  -22.4262   -8.0284   21.3541 C   0  0  0  0  0  0
  -21.9892   -9.0258   20.4635 C   0  0  0  0  0  0
  -22.7228  -10.2143   20.3052 C   0  0  0  0  0  0
  -21.6845   -6.0733   22.5280 C   0  0  0  0  0  0
  -21.4019   -6.5637   23.8217 C   0  0  0  0  0  0
  -21.3661   -5.6792   24.9177 C   0  0  0  0  0  0
  -21.6038   -4.3055   24.7225 C   0  0  0  0  0  0
  -21.8818   -3.8145   23.4348 C   0  0  0  0  0  0
  -21.9194   -4.6961   22.3405 C   0  0  0  0  0  0
  -22.7850  -13.5245   21.1866 C   0  0  0  0  0  0
  -22.1658   -4.2145   21.0978 F   0  0  0  0  0  0
  -21.5624   -3.4541   25.7741 F   0  0  0  0  0  0
  -30.0176  -13.4510   20.4350 N   0  0  0  0  0  0
  -26.2991  -12.9358   20.3298 N   0  0  0  0  0  0
  -25.9325  -11.6509   20.5737 N   0  0  0  0  0  0
  -22.0474  -12.8253   22.0416 N   0  0  0  0  0  0
  -25.4322  -15.1905   20.4185 N   0  0  0  0  0  0
  -31.7675  -14.8577   20.0794 O   0  0  0  0  0  0
  -21.6634   -6.8876   21.4237 O   0  0  0  0  0  0
  -22.3536  -14.5538   20.6691 O   0  0  0  0  0  0
  -24.6295  -31.8580   23.1992 C   0  0  0  0  0  0
  -25.9115  -32.4777   23.8348 C   0  0  1  0  0  0
  -27.2392  -27.2870   20.1106 C   0  0  0  0  0  0
  -25.5897  -33.8569   24.2263 N   0  0  0  0  0  0
  -23.4272  -30.4785   21.5422 C   0  0  2  0  0  0
  -24.8782  -28.9296   20.1082 C   0  0  0  0  0  0
  -22.7516  -29.4605   22.4918 C   0  0  0  0  0  0
  -18.0289  -28.1397   22.8481 C   0  0  0  0  0  0
  -24.1485  -36.7301   23.2640 C   0  0  0  0  0  0
  -25.9725  -30.7762   21.3771 C   0  0  0  0  0  0
  -26.0476  -29.4002   20.7189 C   0  0  0  0  0  0
  -27.2271  -28.5907   20.7111 C   0  0  0  0  0  0
  -26.0486  -26.8898   19.4576 C   0  0  0  0  0  0
  -24.8832  -27.6819   19.4690 C   0  0  0  0  0  0
  -23.6461  -29.8123   20.1589 C   0  0  0  0  0  0
  -25.4106  -36.3085   24.0333 C   0  0  1  0  0  0
  -20.5893  -28.3702   23.1257 C   0  0  2  0  0  0
  -20.6769  -26.9413   22.5402 C   0  0  0  0  0  0
  -19.5745  -26.6389   21.5202 C   0  0  0  0  0  0
  -18.1928  -26.7942   22.1617 C   0  0  0  0  0  0
  -19.1543  -28.8867   23.2866 C   0  0  0  0  0  0
  -18.9462  -30.1467   23.8895 C   0  0  0  0  0  0
  -17.6462  -30.6594   24.0562 C   0  0  0  0  0  0
  -25.9044  -34.9447   23.5114 C   0  0  0  0  0  0
  -16.5355  -29.9095   23.6326 C   0  0  0  0  0  0
  -16.7275  -28.6505   23.0356 C   0  0  0  0  0  0
  -26.4489  -31.6583   25.0729 C   0  0  0  0  0  0
  -25.3713  -31.3717   26.1456 C   0  0  0  0  0  0
  -27.0324  -30.2993   24.6213 C   0  0  0  0  0  0
  -27.6058  -32.4323   25.7483 C   0  0  0  0  0  0
  -27.5582  -37.1800   24.8459 C   0  0  0  0  0  0
  -21.4220  -29.3051   22.3654 N   0  0  0  0  0  0
  -26.4289  -37.3774   23.9422 N   0  0  0  0  0  0
  -24.6955  -31.0559   22.0954 N   0  0  0  0  0  0
  -23.4213  -28.8147   23.3018 O   0  0  0  0  0  0
  -28.3555  -26.4187   20.1854 O   0  0  0  0  0  0
  -26.5639  -34.8921   22.4696 O   0  0  0  0  0  0
  -23.5448  -32.1381   23.7300 O   0  0  0  0  0  0
  -30.5250  -19.4335   19.9329 C   0  0  0  0  0  0
  -30.6924  -18.0065   20.0241 C   0  0  0  0  0  0
  -28.6585  -19.3317   21.3684 C   0  0  0  0  0  0
  -29.4952  -20.1894   20.5876 C   0  0  0  0  0  0
  -29.8174  -17.1919   20.7950 C   0  0  0  0  0  0
  -28.7965  -17.9105   21.4707 C   0  0  0  0  0  0
  -29.7816  -22.6887   19.6361 C   0  0  0  0  0  0
  -28.4212  -22.5831   21.1288 C   0  0  0  0  0  0
  -29.1594  -23.8336   20.5253 C   0  0  0  0  0  0
  -30.1788  -24.4380   21.5030 C   0  0  0  0  0  0
  -28.2361  -24.9607   19.8342 C   0  0  0  0  0  0
  -29.3062  -21.6672   20.5010 N   0  0  0  0  0  0
  -27.8910  -17.2055   22.2686 N   0  0  0  0  0  0
  -29.8265  -15.7220   20.9335 N   0  0  0  0  0  0
  -30.4417  -22.6285   18.6166 O   0  0  0  0  0  0
  -27.4694  -22.4016   21.8620 O   0  0  0  0  0  0
  -31.4869  -12.5400   19.1654 H   0  0  0  0  0  0
  -30.3847  -11.4276   19.9223 H   0  0  0  0  0  0
  -29.7903  -11.7546   17.4962 H   0  0  0  0  0  0
  -29.6437  -13.4764   17.7485 H   0  0  0  0  0  0
  -27.8940  -11.2813   18.8999 H   0  0  0  0  0  0
  -27.3828  -12.5357   17.8013 H   0  0  0  0  0  0
  -27.6652  -14.2476   19.4993 H   0  0  0  0  0  0
  -28.7202  -12.0809   21.3862 H   0  0  0  0  0  0
  -28.4334  -13.7353   21.8377 H   0  0  0  0  0  0
  -25.2750   -9.5696   22.4751 H   0  0  0  0  0  0
  -23.9990   -7.4638   22.7479 H   0  0  0  0  0  0
  -21.0815   -8.8774   19.8951 H   0  0  0  0  0  0
  -22.3673  -10.9671   19.6155 H   0  0  0  0  0  0
  -21.2013   -7.6146   23.9717 H   0  0  0  0  0  0
  -21.1481   -6.0520   25.9077 H   0  0  0  0  0  0
  -22.0592   -2.7607   23.2853 H   0  0  0  0  0  0
  -22.4061  -11.9910   22.4818 H   0  0  0  0  0  0
  -21.1080  -13.1280   22.2599 H   0  0  0  0  0  0
  -24.6745  -15.8499   20.5587 H   0  0  0  0  0  0
  -26.2814  -15.6333   20.0940 H   0  0  0  0  0  0
  -26.7197  -32.5443   23.1109 H   0  0  0  0  0  0
  -24.9979  -33.9709   25.0373 H   0  0  0  0  0  0
  -22.7224  -31.2993   21.3957 H   0  0  0  0  0  0
  -23.3740  -35.9639   23.3296 H   0  0  0  0  0  0
  -24.3564  -36.8933   22.2050 H   0  0  0  0  0  0
  -23.7243  -37.6506   23.6670 H   0  0  0  0  0  0
  -26.1110  -31.5378   20.6080 H   0  0  0  0  0  0
  -26.8493  -30.8264   22.0104 H   0  0  0  0  0  0
  -28.1222  -28.9508   21.1975 H   0  0  0  0  0  0
  -25.9837  -25.9524   18.9285 H   0  0  0  0  0  0
  -23.9936  -27.3215   18.9724 H   0  0  0  0  0  0
  -23.7701  -30.5889   19.4034 H   0  0  0  0  0  0
  -22.7678  -29.2432   19.8507 H   0  0  0  0  0  0
  -25.1278  -36.1939   25.0822 H   0  0  0  0  0  0
  -20.9985  -28.3286   24.1376 H   0  0  0  0  0  0
  -20.5632  -26.2325   23.3616 H   0  0  0  0  0  0
  -21.6641  -26.7426   22.1209 H   0  0  0  0  0  0
  -19.6898  -25.6295   21.1238 H   0  0  0  0  0  0
  -19.6675  -27.3192   20.6721 H   0  0  0  0  0  0
  -17.4191  -26.6682   21.4030 H   0  0  0  0  0  0
  -18.0331  -26.0089   22.9010 H   0  0  0  0  0  0
  -19.7936  -30.7279   24.2276 H   0  0  0  0  0  0
  -17.5011  -31.6267   24.5176 H   0  0  0  0  0  0
  -15.5352  -30.2994   23.7657 H   0  0  0  0  0  0
  -15.8670  -28.0817   22.7100 H   0  0  0  0  0  0
  -24.5903  -30.7055   25.7774 H   0  0  0  0  0  0
  -24.8886  -32.2871   26.4883 H   0  0  0  0  0  0
  -25.8025  -30.8892   27.0235 H   0  0  0  0  0  0
  -26.2891  -29.6745   24.1250 H   0  0  0  0  0  0
  -27.4004  -29.7262   25.4731 H   0  0  0  0  0  0
  -27.8778  -30.4252   23.9446 H   0  0  0  0  0  0
  -27.2681  -33.3631   26.2050 H   0  0  0  0  0  0
  -28.3851  -32.6870   25.0286 H   0  0  0  0  0  0
  -28.0748  -31.8459   26.5398 H   0  0  0  0  0  0
  -28.2597  -38.0102   24.7520 H   0  0  0  0  0  0
  -28.1090  -36.2634   24.6264 H   0  0  0  0  0  0
  -27.2312  -37.1423   25.8869 H   0  0  0  0  0  0
  -20.9427  -29.8758   21.6830 H   0  0  0  0  0  0
  -26.0172  -38.2859   24.1419 H   0  0  0  0  0  0
  -31.2366  -19.9751   19.3239 H   0  0  0  0  0  0
  -31.5050  -17.5447   19.4804 H   0  0  0  0  0  0
  -27.8453  -19.7851   21.9186 H   0  0  0  0  0  0
  -30.9036  -23.7058   21.8645 H   0  0  0  0  0  0
  -29.6823  -24.8556   22.3793 H   0  0  0  0  0  0
  -30.7406  -25.2468   21.0359 H   0  0  0  0  0  0
  -27.2095  -24.6428   19.9992 H   0  0  0  0  0  0
  -28.3721  -24.9134   18.7519 H   0  0  0  0  0  0
  -27.0650  -17.6877   22.6038 H   0  0  0  0  0  0
  -27.7111  -16.2258   22.0910 H   0  0  0  0  0  0
  -28.9948  -15.3802   21.3813 H   0  0  0  0  0  0
  1 25  1  0  0  0
  1 30  2  0  0  0
  1 84  1  0  0  0
  2  3  1  0  0  0
  2 25  1  0  0  0
  2 87  1  0  0  0
  2 88  1  0  0  0
  3  4  1  0  0  0
  3 89  1  0  0  0
  3 90  1  0  0  0
  4  5  1  0  0  0
  4 91  1  0  0  0
  4 92  1  0  0  0
  5  6  1  0  0  0
  5 26  1  0  0  0
  5 93  1  0  0  0
  6 25  1  0  0  0
  6 94  1  0  0  0
  6 95  1  0  0  0
  7  8  2  0  0  0
  7 26  1  0  0  0
  7 29  1  0  0  0
  8  9  1  0  0  0
  8 22  1  0  0  0
  9 10  1  0  0  0
  9 27  2  0  0  0
 10 11  2  0  0  0
 10 15  1  0  0  0
 11 12  1  0  0  0
 11 96  1  0  0  0
 12 13  2  0  0  0
 12 97  1  0  0  0
 13 14  1  0  0  0
 13 31  1  0  0  0
 14 15  2  0  0  0
 14 98  1  0  0  0
 15 99  1  0  0  0
 16 17  2  0  0  0
 16 21  1  0  0  0
 16 31  1  0  0  0
 17 18  1  0  0  0
 17100  1  0  0  0
 18 19  2  0  0  0
 18101  1  0  0  0
 19 20  1  0  0  0
 19 24  1  0  0  0
 20 21  2  0  0  0
 20102  1  0  0  0
 21 23  1  0  0  0
 22 28  1  0  0  0
 22 32  2  0  0  0
 26 27  1  0  0  0
 28103  1  0  0  0
 28104  1  0  0  0
 29105  1  0  0  0
 29106  1  0  0  0
 33 34  1  0  0  0
 33 66  1  0  0  0
 33 70  2  0  0  0
 34 36  1  0  0  0
 34 59  1  0  0  0
 34107  1  0  0  0
 35 44  2  0  0  0
 35 45  1  0  0  0
 35 68  1  0  0  0
 36 56  1  0  0  0
 36108  1  0  0  0
 37 39  1  0  0  0
 37 47  1  0  0  0
 37 66  1  0  0  0
 37109  1  0  0  0
 38 43  2  0  0  0
 38 46  1  0  0  0
 38 47  1  0  0  0
 39 64  1  0  0  0
 39 67  2  0  0  0
 40 52  1  0  0  0
 40 53  2  0  0  0
 40 58  1  0  0  0
 41110  1  0  0  0
 41111  1  0  0  0
 41112  1  0  0  0
 41 48  1  0  0  0
 42 43  1  0  0  0
 42 66  1  0  0  0
 42113  1  0  0  0
 42114  1  0  0  0
 43 44  1  0  0  0
 44115  1  0  0  0
 45 46  2  0  0  0
 45116  1  0  0  0
 46117  1  0  0  0
 47118  1  0  0  0
 47119  1  0  0  0
 48 56  1  0  0  0
 48 65  1  0  0  0
 48120  1  0  0  0
 49 50  1  0  0  0
 49 53  1  0  0  0
 49 64  1  0  0  0
 49121  1  0  0  0
 50 51  1  0  0  0
 50122  1  0  0  0
 50123  1  0  0  0
 51 52  1  0  0  0
 51124  1  0  0  0
 51125  1  0  0  0
 52126  1  0  0  0
 52127  1  0  0  0
 53 54  1  0  0  0
 54 55  2  0  0  0
 54128  1  0  0  0
 55 57  1  0  0  0
 55129  1  0  0  0
 56 69  2  0  0  0
 57 58  2  0  0  0
 57130  1  0  0  0
 58131  1  0  0  0
 59 60  1  0  0  0
 59 61  1  0  0  0
 59 62  1  0  0  0
 60132  1  0  0  0
 60133  1  0  0  0
 60134  1  0  0  0
 61135  1  0  0  0
 61136  1  0  0  0
 61137  1  0  0  0
 62138  1  0  0  0
 62139  1  0  0  0
 62140  1  0  0  0
 63 65  1  0  0  0
 63141  1  0  0  0
 63142  1  0  0  0
 63143  1  0  0  0
 64144  1  0  0  0
 65145  1  0  0  0
 68 81  1  0  0  0
 71 72  2  0  0  0
 71 74  1  0  0  0
 71146  1  0  0  0
 72 75  1  0  0  0
 72147  1  0  0  0
 73 74  2  0  0  0
 73 76  1  0  0  0
 73148  1  0  0  0
 74 82  1  0  0  0
 75 76  2  0  0  0
 75 84  1  0  0  0
 76 83  1  0  0  0
 77 79  1  0  0  0
 77 82  1  0  0  0
 77 85  2  0  0  0
 78 79  1  0  0  0
 78 82  1  0  0  0
 78 86  2  0  0  0
 79 80  1  0  0  0
 79 81  1  0  0  0
 80149  1  0  0  0
 80150  1  0  0  0
 80151  1  0  0  0
 81152  1  0  0  0
 81153  1  0  0  0
 83154  1  0  0  0
 83155  1  0  0  0
 84156  1  0  0  0
M  ISO  4   1 100  68 101  81 101  84 100
M  END
> <chiral flag>
0

> <version>
0

> <s_m_source_file>
/data/baiqing/PycharmProjects/Reinvent-master-3.2/result/LINK_invent/BTK/process_docking_weight1_custom_product_contain_oxygen_bond_distance_aromatic_linkinvent_7_9_3/rearranged_h_0089.sdf

> <i_m_source_file_index>
97

> <r_mmod_Potential_Energy-OPLS-2005>
-32.9949607849121

> <r_mmod_Stretch_Energy-OPLS-2005>
105.451545715332

> <r_mmod_Bend_Energy-OPLS-2005>
186.377639770508

> <r_mmod_Torsional_Energy-OPLS-2005>
213.237182617188

> <r_mmod_Improper_Torsional_Energy-OPLS-2005>
5.97850275039673

> <r_mmod_Van_der_Waal_Energy-OPLS-2005>
139.314895629883

> <r_mmod_Electrostatic_Energy-OPLS-2005>
-517.420837402344

> <r_mmod_Solvation_Energy-OPLS-2005>
-230.605667114258

> <b_mmod_Minimization_Converged-OPLS-2005>
0

> <r_mmod_RMS_Derivative-OPLS-2005>
3.26405119895935

$$$$
