0
                    3D
 Structure written by MMmdl.
155163  0  0  1  0            999 V2000
  -30.6143  -14.6149   20.4810 C   0  0  0  0  0  0
  -30.4186  -12.3772   19.4063 C   0  0  0  0  0  0
  -29.4871  -12.5061   18.1846 C   0  0  0  0  0  0
  -28.0072  -12.3693   18.6029 C   0  0  0  0  0  0
  -27.6417  -13.2232   19.8498 C   0  0  2  0  0  0
  -28.6905  -13.0665   20.9679 C   0  0  0  0  0  0
  -25.2486  -13.8167   20.5636 C   0  0  0  0  0  0
  -24.1792  -13.0449   20.9223 C   0  0  0  0  0  0
  -24.6391  -11.6908   20.8767 C   0  0  0  0  0  0
  -23.9086  -10.4292   21.0417 C   0  0  0  0  0  0
  -24.3634   -9.4201   21.9202 C   0  0  0  0  0  0
  -23.6295   -8.2248   22.0765 C   0  0  0  0  0  0
  -22.4276   -8.0300   21.3554 C   0  0  0  0  0  0
  -21.9928   -9.0276   20.4648 C   0  0  0  0  0  0
  -22.7268  -10.2146   20.3059 C   0  0  0  0  0  0
  -21.6845   -6.0752   22.5279 C   0  0  0  0  0  0
  -21.4017   -6.5640   23.8227 C   0  0  0  0  0  0
  -21.3640   -5.6774   24.9180 C   0  0  0  0  0  0
  -21.6043   -4.3039   24.7207 C   0  0  0  0  0  0
  -21.8824   -3.8149   23.4315 C   0  0  0  0  0  0
  -21.9198   -4.6984   22.3388 C   0  0  0  0  0  0
  -22.7815  -13.5225   21.1824 C   0  0  0  0  0  0
  -22.1669   -4.2177   21.0966 F   0  0  0  0  0  0
  -21.5617   -3.4514   25.7710 F   0  0  0  0  0  0
  -29.9875  -13.4054   20.3751 N   0  0  0  0  0  0
  -26.2919  -12.9378   20.3235 N   0  0  0  0  0  0
  -25.9307  -11.6528   20.5704 N   0  0  0  0  0  0
  -22.0432  -12.8282   22.0388 N   0  0  0  0  0  0
  -25.4130  -15.1911   20.3967 N   0  0  0  0  0  0
  -31.7969  -14.7455   20.1518 O   0  0  0  0  0  0
  -21.6629   -6.8907   21.4249 O   0  0  0  0  0  0
  -22.3513  -14.5538   20.6620 O   0  0  0  0  0  0
  -24.6202  -31.8628   23.2002 C   0  0  0  0  0  0
  -25.9092  -32.4786   23.8335 C   0  0  1  0  0  0
  -27.2378  -27.3699   20.0998 C   0  0  0  0  0  0
  -25.5915  -33.8584   24.2259 N   0  0  0  0  0  0
  -23.4123  -30.4788   21.5474 C   0  0  2  0  0  0
  -24.8571  -28.9261   20.1274 C   0  0  0  0  0  0
  -22.7471  -29.4607   22.4991 C   0  0  0  0  0  0
  -18.0335  -28.1321   22.8440 C   0  0  0  0  0  0
  -24.1502  -36.7329   23.2643 C   0  0  0  0  0  0
  -25.9456  -30.8062   21.3615 C   0  0  0  0  0  0
  -26.0236  -29.4329   20.7147 C   0  0  0  0  0  0
  -27.2186  -28.6632   20.6948 C   0  0  0  0  0  0
  -26.0505  -26.8903   19.5104 C   0  0  0  0  0  0
  -24.8655  -27.6531   19.5300 C   0  0  0  0  0  0
  -23.6246  -29.8051   20.1650 C   0  0  0  0  0  0
  -25.4126  -36.3082   24.0312 C   0  0  1  0  0  0
  -20.5928  -28.3572   23.1267 C   0  0  2  0  0  0
  -20.6821  -26.9309   22.5346 C   0  0  0  0  0  0
  -19.5767  -26.6304   21.5152 C   0  0  0  0  0  0
  -18.1954  -26.7852   22.1579 C   0  0  0  0  0  0
  -19.1591  -28.8758   23.2867 C   0  0  0  0  0  0
  -18.9578  -30.1385   23.8846 C   0  0  0  0  0  0
  -17.6606  -30.6591   24.0399 C   0  0  0  0  0  0
  -25.9030  -34.9451   23.5074 C   0  0  0  0  0  0
  -16.5482  -29.9116   23.6175 C   0  0  0  0  0  0
  -16.7347  -28.6500   23.0261 C   0  0  0  0  0  0
  -26.4481  -31.6592   25.0702 C   0  0  0  0  0  0
  -25.3742  -31.3719   26.1443 C   0  0  0  0  0  0
  -27.0310  -30.3034   24.6085 C   0  0  0  0  0  0
  -27.6011  -32.4335   25.7509 C   0  0  0  0  0  0
  -27.5570  -37.1817   24.8451 C   0  0  0  0  0  0
  -21.4195  -29.2971   22.3701 N   0  0  0  0  0  0
  -26.4305  -37.3755   23.9365 N   0  0  0  0  0  0
  -24.6774  -31.0645   22.0949 N   0  0  0  0  0  0
  -23.4216  -28.8154   23.3055 O   0  0  0  0  0  0
  -28.3892  -26.5907   20.0321 O   0  0  0  0  0  0
  -26.5603  -34.8915   22.4640 O   0  0  0  0  0  0
  -23.5384  -32.1428   23.7361 O   0  0  0  0  0  0
  -31.2587  -18.6003   23.5656 C   0  0  0  0  0  0
  -31.2742  -17.2259   23.8165 C   0  0  0  0  0  0
  -30.6526  -19.0878   22.4020 C   0  0  0  0  0  0
  -30.7761  -16.3481   22.8498 C   0  0  0  0  0  0
  -30.0304  -18.2375   21.4501 C   0  0  0  0  0  0
  -30.2075  -16.7986   21.6293 C   0  0  0  0  0  0
  -28.9547  -22.8275   20.5034 C   0  0  0  0  0  0
  -28.3588  -23.9938   20.0887 C   0  0  0  0  0  0
  -28.8884  -21.5274   19.7966 C   0  0  0  0  0  0
  -29.2437  -18.9902   20.3284 C   0  0  0  0  0  0
  -28.4329  -25.3655   20.8259 C   0  0  0  0  0  0
  -29.8352  -15.7201   20.7385 N   0  0  0  0  0  0
  -28.9662  -20.4425   20.6157 N   0  0  0  0  0  0
  -28.8396  -21.4085   18.5741 O   0  0  0  0  0  0
  -31.4604  -12.4994   19.1025 H   0  0  0  0  0  0
  -30.3423  -11.3747   19.8361 H   0  0  0  0  0  0
  -29.7303  -11.7511   17.4364 H   0  0  0  0  0  0
  -29.6480  -13.4692   17.6975 H   0  0  0  0  0  0
  -27.8246  -11.3127   18.8078 H   0  0  0  0  0  0
  -27.3544  -12.6306   17.7668 H   0  0  0  0  0  0
  -27.6590  -14.2633   19.5244 H   0  0  0  0  0  0
  -28.6979  -12.0427   21.3442 H   0  0  0  0  0  0
  -28.4524  -13.7056   21.8180 H   0  0  0  0  0  0
  -25.2796   -9.5649   22.4764 H   0  0  0  0  0  0
  -23.9990   -7.4632   22.7480 H   0  0  0  0  0  0
  -21.0867   -8.8800   19.8950 H   0  0  0  0  0  0
  -22.3759  -10.9683   19.6135 H   0  0  0  0  0  0
  -21.2025   -7.6150   23.9740 H   0  0  0  0  0  0
  -21.1446   -6.0495   25.9081 H   0  0  0  0  0  0
  -22.0625   -2.7615   23.2796 H   0  0  0  0  0  0
  -22.3996  -11.9984   22.4874 H   0  0  0  0  0  0
  -21.1015  -13.1298   22.2464 H   0  0  0  0  0  0
  -24.6194  -15.8205   20.4631 H   0  0  0  0  0  0
  -26.2220  -15.6238   19.9713 H   0  0  0  0  0  0
  -26.7159  -32.5449   23.1083 H   0  0  0  0  0  0
  -25.0056  -33.9718   25.0402 H   0  0  0  0  0  0
  -22.7005  -31.2955   21.4048 H   0  0  0  0  0  0
  -23.3722  -35.9697   23.3324 H   0  0  0  0  0  0
  -24.3580  -36.8938   22.2047 H   0  0  0  0  0  0
  -23.7305  -37.6557   23.6666 H   0  0  0  0  0  0
  -26.0518  -31.5661   20.5892 H   0  0  0  0  0  0
  -26.8350  -30.8681   21.9737 H   0  0  0  0  0  0
  -28.1190  -29.0523   21.1434 H   0  0  0  0  0  0
  -26.0474  -25.9237   19.0291 H   0  0  0  0  0  0
  -23.9641  -27.2534   19.0862 H   0  0  0  0  0  0
  -23.7478  -30.5812   19.4054 H   0  0  0  0  0  0
  -22.7446  -29.2335   19.8627 H   0  0  0  0  0  0
  -25.1308  -36.1932   25.0798 H   0  0  0  0  0  0
  -21.0034  -28.3072   24.1364 H   0  0  0  0  0  0
  -20.5807  -26.2132   23.3501 H   0  0  0  0  0  0
  -21.6676  -26.7381   22.1131 H   0  0  0  0  0  0
  -19.6902  -25.6226   21.1166 H   0  0  0  0  0  0
  -19.6790  -27.3138   20.6704 H   0  0  0  0  0  0
  -17.4188  -26.6591   21.3999 H   0  0  0  0  0  0
  -18.0394  -25.9931   22.8934 H   0  0  0  0  0  0
  -19.8111  -30.7133   24.2197 H   0  0  0  0  0  0
  -17.5196  -31.6360   24.4841 H   0  0  0  0  0  0
  -15.5506  -30.3060   23.7418 H   0  0  0  0  0  0
  -15.8727  -28.0842   22.6999 H   0  0  0  0  0  0
  -24.5897  -30.7084   25.7783 H   0  0  0  0  0  0
  -24.8980  -32.2901   26.4896 H   0  0  0  0  0  0
  -25.8106  -30.8881   27.0192 H   0  0  0  0  0  0
  -26.2850  -29.6817   24.1123 H   0  0  0  0  0  0
  -27.4066  -29.7234   25.4521 H   0  0  0  0  0  0
  -27.8685  -30.4360   23.9235 H   0  0  0  0  0  0
  -27.2562  -33.3604   26.2109 H   0  0  0  0  0  0
  -28.3836  -32.6958   25.0381 H   0  0  0  0  0  0
  -28.0667  -31.8467   26.5430 H   0  0  0  0  0  0
  -28.2587  -38.0103   24.7425 H   0  0  0  0  0  0
  -28.1060  -36.2619   24.6380 H   0  0  0  0  0  0
  -27.2255  -37.1578   25.8844 H   0  0  0  0  0  0
  -20.9379  -29.8713   21.6924 H   0  0  0  0  0  0
  -26.0194  -38.2823   24.1354 H   0  0  0  0  0  0
  -31.6893  -19.2967   24.2696 H   0  0  0  0  0  0
  -31.6982  -16.8389   24.7301 H   0  0  0  0  0  0
  -30.6756  -20.1606   22.2773 H   0  0  0  0  0  0
  -30.8405  -15.2915   23.0701 H   0  0  0  0  0  0
  -29.5453  -22.8611   21.4062 H   0  0  0  0  0  0
  -27.7440  -23.9834   19.1992 H   0  0  0  0  0  0
  -28.2788  -18.5011   20.1650 H   0  0  0  0  0  0
  -29.8169  -18.8986   19.4103 H   0  0  0  0  0  0
  -29.3801  -25.4019   21.3679 H   0  0  0  0  0  0
  -27.6526  -25.3923   21.5858 H   0  0  0  0  0  0
  -28.8437  -15.6014   20.5964 H   0  0  0  0  0  0
  -28.8312  -20.6510   21.5935 H   0  0  0  0  0  0
  1 25  1  0  0  0
  1 30  2  0  0  0
  1 82  1  0  0  0
  2  3  1  0  0  0
  2 25  1  0  0  0
  2 85  1  0  0  0
  2 86  1  0  0  0
  3  4  1  0  0  0
  3 87  1  0  0  0
  3 88  1  0  0  0
  4  5  1  0  0  0
  4 89  1  0  0  0
  4 90  1  0  0  0
  5  6  1  0  0  0
  5 26  1  0  0  0
  5 91  1  0  0  0
  6 25  1  0  0  0
  6 92  1  0  0  0
  6 93  1  0  0  0
  7  8  2  0  0  0
  7 26  1  0  0  0
  7 29  1  0  0  0
  8  9  1  0  0  0
  8 22  1  0  0  0
  9 10  1  0  0  0
  9 27  2  0  0  0
 10 11  2  0  0  0
 10 15  1  0  0  0
 11 12  1  0  0  0
 11 94  1  0  0  0
 12 13  2  0  0  0
 12 95  1  0  0  0
 13 14  1  0  0  0
 13 31  1  0  0  0
 14 15  2  0  0  0
 14 96  1  0  0  0
 15 97  1  0  0  0
 16 17  2  0  0  0
 16 21  1  0  0  0
 16 31  1  0  0  0
 17 18  1  0  0  0
 17 98  1  0  0  0
 18 19  2  0  0  0
 18 99  1  0  0  0
 19 20  1  0  0  0
 19 24  1  0  0  0
 20 21  2  0  0  0
 20100  1  0  0  0
 21 23  1  0  0  0
 22 28  1  0  0  0
 22 32  2  0  0  0
 26 27  1  0  0  0
 28101  1  0  0  0
 28102  1  0  0  0
 29103  1  0  0  0
 29104  1  0  0  0
 33 34  1  0  0  0
 33 66  1  0  0  0
 33 70  2  0  0  0
 34 36  1  0  0  0
 34 59  1  0  0  0
 34105  1  0  0  0
 35 44  2  0  0  0
 35 45  1  0  0  0
 35 68  1  0  0  0
 36 56  1  0  0  0
 36106  1  0  0  0
 37 39  1  0  0  0
 37 47  1  0  0  0
 37 66  1  0  0  0
 37107  1  0  0  0
 38 43  2  0  0  0
 38 46  1  0  0  0
 38 47  1  0  0  0
 39 64  1  0  0  0
 39 67  2  0  0  0
 40 52  1  0  0  0
 40 53  2  0  0  0
 40 58  1  0  0  0
 41108  1  0  0  0
 41109  1  0  0  0
 41110  1  0  0  0
 41 48  1  0  0  0
 42 43  1  0  0  0
 42 66  1  0  0  0
 42111  1  0  0  0
 42112  1  0  0  0
 43 44  1  0  0  0
 44113  1  0  0  0
 45 46  2  0  0  0
 45114  1  0  0  0
 46115  1  0  0  0
 47116  1  0  0  0
 47117  1  0  0  0
 48 56  1  0  0  0
 48 65  1  0  0  0
 48118  1  0  0  0
 49 50  1  0  0  0
 49 53  1  0  0  0
 49 64  1  0  0  0
 49119  1  0  0  0
 50 51  1  0  0  0
 50120  1  0  0  0
 50121  1  0  0  0
 51 52  1  0  0  0
 51122  1  0  0  0
 51123  1  0  0  0
 52124  1  0  0  0
 52125  1  0  0  0
 53 54  1  0  0  0
 54 55  2  0  0  0
 54126  1  0  0  0
 55 57  1  0  0  0
 55127  1  0  0  0
 56 69  2  0  0  0
 57 58  2  0  0  0
 57128  1  0  0  0
 58129  1  0  0  0
 59 60  1  0  0  0
 59 61  1  0  0  0
 59 62  1  0  0  0
 60130  1  0  0  0
 60131  1  0  0  0
 60132  1  0  0  0
 61133  1  0  0  0
 61134  1  0  0  0
 61135  1  0  0  0
 62136  1  0  0  0
 62137  1  0  0  0
 62138  1  0  0  0
 63 65  1  0  0  0
 63139  1  0  0  0
 63140  1  0  0  0
 63141  1  0  0  0
 64142  1  0  0  0
 65143  1  0  0  0
 68 81  1  0  0  0
 71 72  2  0  0  0
 71 73  1  0  0  0
 71144  1  0  0  0
 72 74  1  0  0  0
 72145  1  0  0  0
 73 75  2  0  0  0
 73146  1  0  0  0
 74 76  2  0  0  0
 74147  1  0  0  0
 75 76  1  0  0  0
 75 80  1  0  0  0
 76 82  1  0  0  0
 77 78  2  0  0  0
 77 79  1  0  0  0
 77148  1  0  0  0
 78 81  1  0  0  0
 78149  1  0  0  0
 79 83  1  0  0  0
 79 84  2  0  0  0
 80 83  1  0  0  0
 80150  1  0  0  0
 80151  1  0  0  0
 81152  1  0  0  0
 81153  1  0  0  0
 82154  1  0  0  0
 83155  1  0  0  0
M  ISO  4   1 100  68 101  81 101  82 100
M  END
> <chiral flag>
0

> <version>
0

> <s_m_source_file>
/data/baiqing/PycharmProjects/Reinvent-master-3.2/result/LINK_invent/BTK/process_docking_weight1_custom_product_contain_oxygen_bond_distance_aromatic_linkinvent_7_9_3/rearranged_h_0059.sdf

> <i_m_source_file_index>
1

> <r_mmod_Potential_Energy-OPLS-2005>
-9.36625671386719

> <r_mmod_Stretch_Energy-OPLS-2005>
69.9874572753906

> <r_mmod_Bend_Energy-OPLS-2005>
135.390029907227

> <r_mmod_Torsional_Energy-OPLS-2005>
277.172241210938

> <r_mmod_Improper_Torsional_Energy-OPLS-2005>
7.93713140487671

> <r_mmod_Van_der_Waal_Energy-OPLS-2005>
148.375549316406

> <r_mmod_Electrostatic_Energy-OPLS-2005>
-443.021820068359

> <r_mmod_Solvation_Energy-OPLS-2005>
-240.826675415039

> <b_mmod_Minimization_Converged-OPLS-2005>
0

> <r_mmod_RMS_Derivative-OPLS-2005>
6.07129192352295

$$$$
1
                    3D
 Structure written by MMmdl.
161170  0  0  1  0            999 V2000
  -30.6601  -14.7244   20.4500 C   0  0  0  0  0  0
  -30.4283  -12.4447   19.4504 C   0  0  0  0  0  0
  -29.5014  -12.4919   18.2182 C   0  0  0  0  0  0
  -28.0251  -12.3238   18.6339 C   0  0  0  0  0  0
  -27.6367  -13.2346   19.8312 C   0  0  2  0  0  0
  -28.6933  -13.1876   20.9568 C   0  0  0  0  0  0
  -25.2468  -13.8237   20.5642 C   0  0  0  0  0  0
  -24.1735  -13.0459   20.9216 C   0  0  0  0  0  0
  -24.6358  -11.6973   20.8746 C   0  0  0  0  0  0
  -23.9027  -10.4324   21.0355 C   0  0  0  0  0  0
  -24.3582   -9.4253   21.9125 C   0  0  0  0  0  0
  -23.6286   -8.2267   22.0704 C   0  0  0  0  0  0
  -22.4267   -8.0270   21.3508 C   0  0  0  0  0  0
  -21.9870   -9.0242   20.4622 C   0  0  0  0  0  0
  -22.7183  -10.2144   20.3032 C   0  0  0  0  0  0
  -21.6868   -6.0689   22.5248 C   0  0  0  0  0  0
  -21.4039   -6.5592   23.8185 C   0  0  0  0  0  0
  -21.3677   -5.6754   24.9148 C   0  0  0  0  0  0
  -21.6028   -4.3016   24.7191 C   0  0  0  0  0  0
  -21.8833   -3.8104   23.4328 C   0  0  0  0  0  0
  -21.9211   -4.6910   22.3384 C   0  0  0  0  0  0
  -22.7767  -13.5240   21.1851 C   0  0  0  0  0  0
  -22.1663   -4.2114   21.0938 F   0  0  0  0  0  0
  -21.5643   -3.4500   25.7691 F   0  0  0  0  0  0
  -29.9919  -13.5247   20.3599 N   0  0  0  0  0  0
  -26.2895  -12.9444   20.3203 N   0  0  0  0  0  0
  -25.9291  -11.6608   20.5749 N   0  0  0  0  0  0
  -22.0381  -12.8290   22.0450 N   0  0  0  0  0  0
  -25.4079  -15.1949   20.3982 N   0  0  0  0  0  0
  -31.8677  -14.7738   20.2096 O   0  0  0  0  0  0
  -21.6669   -6.8834   21.4200 O   0  0  0  0  0  0
  -22.3447  -14.5483   20.6609 O   0  0  0  0  0  0
  -24.6288  -31.8506   23.1979 C   0  0  0  0  0  0
  -25.9103  -32.4758   23.8278 C   0  0  1  0  0  0
  -27.2473  -27.2785   20.1486 C   0  0  0  0  0  0
  -25.5904  -33.8549   24.2229 N   0  0  0  0  0  0
  -23.4284  -30.4652   21.5404 C   0  0  2  0  0  0
  -24.8871  -28.8977   20.1284 C   0  0  0  0  0  0
  -22.7455  -29.4581   22.4942 C   0  0  0  0  0  0
  -18.0245  -28.1383   22.8518 C   0  0  0  0  0  0
  -24.1484  -36.7309   23.2633 C   0  0  0  0  0  0
  -25.9688  -30.7675   21.3770 C   0  0  0  0  0  0
  -26.0521  -29.3846   20.7343 C   0  0  0  0  0  0
  -27.2365  -28.5859   20.7357 C   0  0  0  0  0  0
  -26.0651  -26.8462   19.5158 C   0  0  0  0  0  0
  -24.8972  -27.6370   19.5080 C   0  0  0  0  0  0
  -23.6530  -29.7778   20.1656 C   0  0  0  0  0  0
  -25.4130  -36.3108   24.0314 C   0  0  1  0  0  0
  -20.5836  -28.3720   23.1303 C   0  0  2  0  0  0
  -20.6760  -26.9437   22.5452 C   0  0  0  0  0  0
  -19.5751  -26.6403   21.5238 C   0  0  0  0  0  0
  -18.1915  -26.7929   22.1631 C   0  0  0  0  0  0
  -19.1494  -28.8864   23.2900 C   0  0  0  0  0  0
  -18.9430  -30.1454   23.8937 C   0  0  0  0  0  0
  -17.6439  -30.6617   24.0577 C   0  0  0  0  0  0
  -25.9071  -34.9450   23.5106 C   0  0  0  0  0  0
  -16.5319  -29.9119   23.6328 C   0  0  0  0  0  0
  -16.7226  -28.6507   23.0391 C   0  0  0  0  0  0
  -26.4484  -31.6580   25.0667 C   0  0  0  0  0  0
  -25.3719  -31.3734   26.1402 C   0  0  0  0  0  0
  -27.0301  -30.2995   24.6167 C   0  0  0  0  0  0
  -27.6037  -32.4315   25.7446 C   0  0  0  0  0  0
  -27.5599  -37.1824   24.8441 C   0  0  0  0  0  0
  -21.4166  -29.3056   22.3697 N   0  0  0  0  0  0
  -26.4310  -37.3821   23.9393 N   0  0  0  0  0  0
  -24.6948  -31.0431   22.0975 N   0  0  0  0  0  0
  -23.4148  -28.8130   23.3057 O   0  0  0  0  0  0
  -28.3704  -26.4305   20.1221 O   0  0  0  0  0  0
  -26.5650  -34.8916   22.4685 O   0  0  0  0  0  0
  -23.5450  -32.1274   23.7317 O   0  0  0  0  0  0
  -31.7873  -18.7553   22.1153 C   0  0  0  0  0  0
  -31.3687  -17.4712   21.7405 C   0  0  0  0  0  0
  -29.7279  -18.5016   20.2728 C   0  0  0  0  0  0
  -31.2045  -19.9303   21.5839 C   0  0  0  0  0  0
  -30.1218  -19.8678   20.6435 C   0  0  0  0  0  0
  -30.3359  -17.2855   20.8049 C   0  0  0  0  0  0
  -29.5752  -21.2296   18.6606 C   0  0  0  0  0  0
  -29.8416  -22.5900   17.9631 C   0  0  0  0  0  0
  -29.5805  -23.8963   18.7789 C   0  0  0  0  0  0
  -29.1563  -22.4070   20.7693 C   0  0  0  0  0  0
  -28.6068  -23.6897   19.9385 C   0  0  1  0  0  0
  -31.8619  -21.2217   22.0462 C   0  0  0  0  0  0
  -28.3079  -25.0706   20.7407 C   0  0  0  0  0  0
  -29.5643  -21.1295   20.0158 N   0  0  0  0  0  0
  -29.9158  -15.8944   20.5075 N   0  0  0  0  0  0
  -29.3892  -20.2558   17.9242 O   0  0  0  0  0  0
  -31.4709  -12.5458   19.1461 H   0  0  0  0  0  0
  -30.3590  -11.4805   19.9557 H   0  0  0  0  0  0
  -29.7792  -11.7171   17.5021 H   0  0  0  0  0  0
  -29.6209  -13.4453   17.7025 H   0  0  0  0  0  0
  -27.8730  -11.2769   18.8981 H   0  0  0  0  0  0
  -27.3672  -12.5103   17.7839 H   0  0  0  0  0  0
  -27.6196  -14.2506   19.4362 H   0  0  0  0  0  0
  -28.7282  -12.1929   21.4039 H   0  0  0  0  0  0
  -28.4351  -13.8797   21.7613 H   0  0  0  0  0  0
  -25.2715   -9.5760   22.4699 H   0  0  0  0  0  0
  -24.0008   -7.4659   22.7416 H   0  0  0  0  0  0
  -21.0789   -8.8733   19.8943 H   0  0  0  0  0  0
  -22.3574  -10.9654   19.6152 H   0  0  0  0  0  0
  -21.2039   -7.6106   23.9681 H   0  0  0  0  0  0
  -21.1485   -6.0460   25.9041 H   0  0  0  0  0  0
  -22.0612   -2.7565   23.2813 H   0  0  0  0  0  0
  -22.4011  -12.0091   22.5058 H   0  0  0  0  0  0
  -21.0948  -13.1260   22.2480 H   0  0  0  0  0  0
  -24.6217  -15.8329   20.4639 H   0  0  0  0  0  0
  -26.2303  -15.6301   19.9963 H   0  0  0  0  0  0
  -26.7150  -32.5442   23.0984 H   0  0  0  0  0  0
  -25.0016  -33.9628   25.0351 H   0  0  0  0  0  0
  -22.7322  -31.2918   21.3832 H   0  0  0  0  0  0
  -23.3767  -35.9617   23.3280 H   0  0  0  0  0  0
  -24.3570  -36.8990   22.2057 H   0  0  0  0  0  0
  -23.7196  -37.6497   23.6653 H   0  0  0  0  0  0
  -26.0853  -31.5235   20.5987 H   0  0  0  0  0  0
  -26.8503  -30.8367   22.0030 H   0  0  0  0  0  0
  -28.1286  -28.9550   21.2257 H   0  0  0  0  0  0
  -26.0475  -25.8842   19.0219 H   0  0  0  0  0  0
  -24.0071  -27.2601   19.0234 H   0  0  0  0  0  0
  -23.7699  -30.5324   19.3869 H   0  0  0  0  0  0
  -22.7792  -29.1918   19.8794 H   0  0  0  0  0  0
  -25.1324  -36.1994   25.0811 H   0  0  0  0  0  0
  -20.9876  -28.3287   24.1437 H   0  0  0  0  0  0
  -20.5681  -26.2300   23.3647 H   0  0  0  0  0  0
  -21.6636  -26.7506   22.1240 H   0  0  0  0  0  0
  -19.6922  -25.6308   21.1292 H   0  0  0  0  0  0
  -19.6705  -27.3183   20.6739 H   0  0  0  0  0  0
  -17.4205  -26.6664   21.4014 H   0  0  0  0  0  0
  -18.0319  -26.0041   22.8992 H   0  0  0  0  0  0
  -19.7907  -30.7254   24.2344 H   0  0  0  0  0  0
  -17.5005  -31.6309   24.5195 H   0  0  0  0  0  0
  -15.5328  -30.3081   23.7665 H   0  0  0  0  0  0
  -15.8588  -28.0865   22.7139 H   0  0  0  0  0  0
  -24.5793  -30.7226   25.7681 H   0  0  0  0  0  0
  -24.9017  -32.2935   26.4916 H   0  0  0  0  0  0
  -25.8025  -30.8782   27.0126 H   0  0  0  0  0  0
  -26.2850  -29.6779   24.1204 H   0  0  0  0  0  0
  -27.3960  -29.7263   25.4698 H   0  0  0  0  0  0
  -27.8742  -30.4236   23.9374 H   0  0  0  0  0  0
  -27.2577  -33.3522   26.2160 H   0  0  0  0  0  0
  -28.3763  -32.7092   25.0241 H   0  0  0  0  0  0
  -28.0788  -31.8382   26.5282 H   0  0  0  0  0  0
  -28.2650  -38.0104   24.7575 H   0  0  0  0  0  0
  -28.1100  -36.2679   24.6205 H   0  0  0  0  0  0
  -27.2314  -37.1392   25.8838 H   0  0  0  0  0  0
  -20.9340  -29.8775   21.6907 H   0  0  0  0  0  0
  -26.0227  -38.2915   24.1425 H   0  0  0  0  0  0
  -32.6028  -18.8200   22.8270 H   0  0  0  0  0  0
  -31.8634  -16.6265   22.1951 H   0  0  0  0  0  0
  -28.9531  -18.3766   19.5305 H   0  0  0  0  0  0
  -29.2705  -22.5990   17.0242 H   0  0  0  0  0  0
  -30.8940  -22.5648   17.6612 H   0  0  0  0  0  0
  -29.1763  -24.6799   18.1237 H   0  0  0  0  0  0
  -30.5172  -24.2989   19.1842 H   0  0  0  0  0  0
  -28.4094  -22.1328   21.5138 H   0  0  0  0  0  0
  -30.0028  -22.7722   21.3392 H   0  0  0  0  0  0
  -27.6490  -23.4025   19.4960 H   0  0  0  0  0  0
  -32.8222  -21.0199   22.5277 H   0  0  0  0  0  0
  -31.2422  -21.7226   22.7879 H   0  0  0  0  0  0
  -32.0706  -21.8794   21.2028 H   0  0  0  0  0  0
  -27.3510  -24.9652   21.2552 H   0  0  0  0  0  0
  -29.0372  -25.1255   21.5479 H   0  0  0  0  0  0
  -28.9266  -15.7613   20.3781 H   0  0  0  0  0  0
  1 25  1  0  0  0
  1 30  2  0  0  0
  1 85  1  0  0  0
  2  3  1  0  0  0
  2 25  1  0  0  0
  2 87  1  0  0  0
  2 88  1  0  0  0
  3  4  1  0  0  0
  3 89  1  0  0  0
  3 90  1  0  0  0
  4  5  1  0  0  0
  4 91  1  0  0  0
  4 92  1  0  0  0
  5  6  1  0  0  0
  5 26  1  0  0  0
  5 93  1  0  0  0
  6 25  1  0  0  0
  6 94  1  0  0  0
  6 95  1  0  0  0
  7  8  2  0  0  0
  7 26  1  0  0  0
  7 29  1  0  0  0
  8  9  1  0  0  0
  8 22  1  0  0  0
  9 10  1  0  0  0
  9 27  2  0  0  0
 10 11  2  0  0  0
 10 15  1  0  0  0
 11 12  1  0  0  0
 11 96  1  0  0  0
 12 13  2  0  0  0
 12 97  1  0  0  0
 13 14  1  0  0  0
 13 31  1  0  0  0
 14 15  2  0  0  0
 14 98  1  0  0  0
 15 99  1  0  0  0
 16 17  2  0  0  0
 16 21  1  0  0  0
 16 31  1  0  0  0
 17 18  1  0  0  0
 17100  1  0  0  0
 18 19  2  0  0  0
 18101  1  0  0  0
 19 20  1  0  0  0
 19 24  1  0  0  0
 20 21  2  0  0  0
 20102  1  0  0  0
 21 23  1  0  0  0
 22 28  1  0  0  0
 22 32  2  0  0  0
 26 27  1  0  0  0
 28103  1  0  0  0
 28104  1  0  0  0
 29105  1  0  0  0
 29106  1  0  0  0
 33 34  1  0  0  0
 33 66  1  0  0  0
 33 70  2  0  0  0
 34 36  1  0  0  0
 34 59  1  0  0  0
 34107  1  0  0  0
 35 44  2  0  0  0
 35 45  1  0  0  0
 35 68  1  0  0  0
 36 56  1  0  0  0
 36108  1  0  0  0
 37 39  1  0  0  0
 37 47  1  0  0  0
 37 66  1  0  0  0
 37109  1  0  0  0
 38 43  2  0  0  0
 38 46  1  0  0  0
 38 47  1  0  0  0
 39 64  1  0  0  0
 39 67  2  0  0  0
 40 52  1  0  0  0
 40 53  2  0  0  0
 40 58  1  0  0  0
 41110  1  0  0  0
 41111  1  0  0  0
 41112  1  0  0  0
 41 48  1  0  0  0
 42 43  1  0  0  0
 42 66  1  0  0  0
 42113  1  0  0  0
 42114  1  0  0  0
 43 44  1  0  0  0
 44115  1  0  0  0
 45 46  2  0  0  0
 45116  1  0  0  0
 46117  1  0  0  0
 47118  1  0  0  0
 47119  1  0  0  0
 48 56  1  0  0  0
 48 65  1  0  0  0
 48120  1  0  0  0
 49 50  1  0  0  0
 49 53  1  0  0  0
 49 64  1  0  0  0
 49121  1  0  0  0
 50 51  1  0  0  0
 50122  1  0  0  0
 50123  1  0  0  0
 51 52  1  0  0  0
 51124  1  0  0  0
 51125  1  0  0  0
 52126  1  0  0  0
 52127  1  0  0  0
 53 54  1  0  0  0
 54 55  2  0  0  0
 54128  1  0  0  0
 55 57  1  0  0  0
 55129  1  0  0  0
 56 69  2  0  0  0
 57 58  2  0  0  0
 57130  1  0  0  0
 58131  1  0  0  0
 59 60  1  0  0  0
 59 61  1  0  0  0
 59 62  1  0  0  0
 60132  1  0  0  0
 60133  1  0  0  0
 60134  1  0  0  0
 61135  1  0  0  0
 61136  1  0  0  0
 61137  1  0  0  0
 62138  1  0  0  0
 62139  1  0  0  0
 62140  1  0  0  0
 63 65  1  0  0  0
 63141  1  0  0  0
 63142  1  0  0  0
 63143  1  0  0  0
 64144  1  0  0  0
 65145  1  0  0  0
 68 83  1  0  0  0
 71 72  2  0  0  0
 71 74  1  0  0  0
 71146  1  0  0  0
 72 76  1  0  0  0
 72147  1  0  0  0
 73 75  1  0  0  0
 73 76  2  0  0  0
 73148  1  0  0  0
 74 75  2  0  0  0
 74 82  1  0  0  0
 75 84  1  0  0  0
 76 85  1  0  0  0
 77 78  1  0  0  0
 77 84  1  0  0  0
 77 86  2  0  0  0
 78 79  1  0  0  0
 78149  1  0  0  0
 78150  1  0  0  0
 79 81  1  0  0  0
 79151  1  0  0  0
 79152  1  0  0  0
 80 81  1  0  0  0
 80 84  1  0  0  0
 80153  1  0  0  0
 80154  1  0  0  0
 81 83  1  0  0  0
 81155  1  0  0  0
 82156  1  0  0  0
 82157  1  0  0  0
 82158  1  0  0  0
 83159  1  0  0  0
 83160  1  0  0  0
 85161  1  0  0  0
M  ISO  4   1 100  68 101  83 101  85 100
M  END
> <chiral flag>
0

> <version>
0

> <s_m_source_file>
/data/baiqing/PycharmProjects/Reinvent-master-3.2/result/LINK_invent/BTK/process_docking_weight1_custom_product_contain_oxygen_bond_distance_aromatic_linkinvent_7_9_3/rearranged_h_0059.sdf

> <i_m_source_file_index>
2

> <r_mmod_Potential_Energy-OPLS-2005>
318.340942382812

> <r_mmod_Stretch_Energy-OPLS-2005>
139.152084350586

> <r_mmod_Bend_Energy-OPLS-2005>
173.173645019531

> <r_mmod_Torsional_Energy-OPLS-2005>
338.375518798828

> <r_mmod_Improper_Torsional_Energy-OPLS-2005>
8.4428014755249

> <r_mmod_Van_der_Waal_Energy-OPLS-2005>
149.371109008789

> <r_mmod_Electrostatic_Energy-OPLS-2005>
-347.951721191406

> <r_mmod_Solvation_Energy-OPLS-2005>
-220.120315551758

> <b_mmod_Minimization_Converged-OPLS-2005>
0

> <r_mmod_RMS_Derivative-OPLS-2005>
6.59098815917969

$$$$
2
                    3D
 Structure written by MMmdl.
156164  0  0  1  0            999 V2000
  -30.6697  -14.5064   20.5671 C   0  0  0  0  0  0
  -30.4405  -12.3375   19.3955 C   0  0  0  0  0  0
  -29.4944  -12.5354   18.1933 C   0  0  0  0  0  0
  -28.0157  -12.3900   18.6106 C   0  0  0  0  0  0
  -27.6686  -13.2055   19.8848 C   0  0  2  0  0  0
  -28.7218  -12.9577   20.9891 C   0  0  0  0  0  0
  -25.2641  -13.8175   20.5742 C   0  0  0  0  0  0
  -24.1873  -13.0444   20.9204 C   0  0  0  0  0  0
  -24.6419  -11.6921   20.8740 C   0  0  0  0  0  0
  -23.9078  -10.4306   21.0395 C   0  0  0  0  0  0
  -24.3633   -9.4228   21.9171 C   0  0  0  0  0  0
  -23.6314   -8.2261   22.0759 C   0  0  0  0  0  0
  -22.4290   -8.0293   21.3560 C   0  0  0  0  0  0
  -21.9921   -9.0258   20.4654 C   0  0  0  0  0  0
  -22.7248  -10.2139   20.3050 C   0  0  0  0  0  0
  -21.6844   -6.0745   22.5283 C   0  0  0  0  0  0
  -21.4014   -6.5642   23.8220 C   0  0  0  0  0  0
  -21.3669   -5.6794   24.9179 C   0  0  0  0  0  0
  -21.6038   -4.3051   24.7216 C   0  0  0  0  0  0
  -21.8816   -3.8153   23.4332 C   0  0  0  0  0  0
  -21.9195   -4.6980   22.3401 C   0  0  0  0  0  0
  -22.7900  -13.5265   21.1805 C   0  0  0  0  0  0
  -22.1672   -4.2167   21.0979 F   0  0  0  0  0  0
  -21.5615   -3.4533   25.7727 F   0  0  0  0  0  0
  -30.0450  -13.3004   20.4364 N   0  0  0  0  0  0
  -26.3083  -12.9335   20.3447 N   0  0  0  0  0  0
  -25.9351  -11.6498   20.5788 N   0  0  0  0  0  0
  -22.0510  -12.8279   22.0362 N   0  0  0  0  0  0
  -25.4310  -15.1893   20.4198 N   0  0  0  0  0  0
  -31.7931  -14.7317   20.1077 O   0  0  0  0  0  0
  -21.6643   -6.8890   21.4255 O   0  0  0  0  0  0
  -22.3613  -14.5563   20.6629 O   0  0  0  0  0  0
  -24.6199  -31.8691   23.2087 C   0  0  0  0  0  0
  -25.9060  -32.4830   23.8420 C   0  0  1  0  0  0
  -27.2275  -27.3907   20.1029 C   0  0  0  0  0  0
  -25.5904  -33.8627   24.2348 N   0  0  0  0  0  0
  -23.4111  -30.4970   21.5484 C   0  0  2  0  0  0
  -24.8564  -28.9630   20.1136 C   0  0  0  0  0  0
  -22.7468  -29.4682   22.4942 C   0  0  0  0  0  0
  -18.0299  -28.1390   22.8542 C   0  0  0  0  0  0
  -24.1476  -36.7283   23.2652 C   0  0  0  0  0  0
  -25.9484  -30.8209   21.3727 C   0  0  0  0  0  0
  -26.0220  -29.4550   20.7124 C   0  0  0  0  0  0
  -27.2114  -28.6797   20.7011 C   0  0  0  0  0  0
  -26.0362  -26.9322   19.4922 C   0  0  0  0  0  0
  -24.8603  -27.7010   19.5007 C   0  0  0  0  0  0
  -23.6270  -29.8429   20.1591 C   0  0  0  0  0  0
  -25.4095  -36.3122   24.0365 C   0  0  1  0  0  0
  -20.5910  -28.3689   23.1302 C   0  0  2  0  0  0
  -20.6788  -26.9417   22.5422 C   0  0  0  0  0  0
  -19.5735  -26.6398   21.5244 C   0  0  0  0  0  0
  -18.1921  -26.7948   22.1665 C   0  0  0  0  0  0
  -19.1566  -28.8851   23.2921 C   0  0  0  0  0  0
  -18.9480  -30.1463   23.8935 C   0  0  0  0  0  0
  -17.6477  -30.6601   24.0592 C   0  0  0  0  0  0
  -25.9028  -34.9484   23.5159 C   0  0  0  0  0  0
  -16.5360  -29.9114   23.6331 C   0  0  0  0  0  0
  -16.7293  -28.6515   23.0378 C   0  0  0  0  0  0
  -26.4477  -31.6617   25.0752 C   0  0  0  0  0  0
  -25.3748  -31.3704   26.1502 C   0  0  0  0  0  0
  -27.0308  -30.3070   24.6119 C   0  0  0  0  0  0
  -27.6051  -32.4355   25.7497 C   0  0  0  0  0  0
  -27.5576  -37.1802   24.8485 C   0  0  0  0  0  0
  -21.4189  -29.3038   22.3680 N   0  0  0  0  0  0
  -26.4292  -37.3807   23.9436 N   0  0  0  0  0  0
  -24.6776  -31.0781   22.1001 N   0  0  0  0  0  0
  -23.4224  -28.8242   23.3017 O   0  0  0  0  0  0
  -28.3763  -26.6048   20.1257 O   0  0  0  0  0  0
  -26.5589  -34.8936   22.4725 O   0  0  0  0  0  0
  -23.5366  -32.1454   23.7424 O   0  0  0  0  0  0
  -29.0762  -19.0749   20.4857 C   0  0  0  0  0  0
  -29.2711  -17.6882   20.2472 C   0  0  0  0  0  0
  -30.7200  -17.5426   22.1891 C   0  0  0  0  0  0
  -29.6246  -19.6902   21.6353 C   0  0  0  0  0  0
  -30.0431  -16.8930   21.1321 C   0  0  0  0  0  0
  -30.5133  -18.9219   22.4398 C   0  0  0  0  0  0
  -29.0631  -20.9705   22.1544 C   0  0  0  0  0  0
  -29.4926  -24.3195   20.2918 C   0  0  0  0  0  0
  -29.3358  -22.7539   20.2477 C   0  0  0  0  0  0
  -28.1941  -25.1601   20.0861 C   0  0  0  0  0  0
  -28.5382  -20.9321   23.3789 N   0  0  0  0  0  0
  -29.9038  -15.4669   21.1258 N   0  0  0  0  0  0
  -28.9338  -22.1851   21.5559 N   0  3  0  0  0  0
  -31.0955  -19.4730   23.5341 F   0  0  0  0  0  0
  -31.4758  -12.4682   19.0798 H   0  0  0  0  0  0
  -30.3765  -11.3166   19.7748 H   0  0  0  0  0  0
  -29.7357  -11.8258   17.4014 H   0  0  0  0  0  0
  -29.6506  -13.5265   17.7659 H   0  0  0  0  0  0
  -27.8152  -11.3310   18.7767 H   0  0  0  0  0  0
  -27.3668  -12.6954   17.7890 H   0  0  0  0  0  0
  -27.7148  -14.2584   19.6095 H   0  0  0  0  0  0
  -28.7160  -11.9060   21.2803 H   0  0  0  0  0  0
  -28.4851  -13.5061   21.9014 H   0  0  0  0  0  0
  -25.2775   -9.5701   22.4742 H   0  0  0  0  0  0
  -24.0017   -7.4664   22.7493 H   0  0  0  0  0  0
  -21.0841   -8.8776   19.8973 H   0  0  0  0  0  0
  -22.3698  -10.9682   19.6157 H   0  0  0  0  0  0
  -21.2002   -7.6152   23.9726 H   0  0  0  0  0  0
  -21.1508   -6.0522   25.9084 H   0  0  0  0  0  0
  -22.0589   -2.7622   23.2819 H   0  0  0  0  0  0
  -22.4132  -11.9963   22.4789 H   0  0  0  0  0  0
  -21.1131  -13.1336   22.2540 H   0  0  0  0  0  0
  -24.6520  -15.8313   20.5110 H   0  0  0  0  0  0
  -26.2797  -15.6438   20.1101 H   0  0  0  0  0  0
  -26.7151  -32.5526   23.1193 H   0  0  0  0  0  0
  -25.0101  -33.9815   25.0525 H   0  0  0  0  0  0
  -22.7013  -31.3145   21.4114 H   0  0  0  0  0  0
  -23.3766  -35.9593   23.3341 H   0  0  0  0  0  0
  -24.3585  -36.8848   22.2068 H   0  0  0  0  0  0
  -23.7188  -37.6480   23.6631 H   0  0  0  0  0  0
  -26.0791  -31.5919   20.6111 H   0  0  0  0  0  0
  -26.8272  -30.8598   22.0034 H   0  0  0  0  0  0
  -28.1087  -29.0589   21.1701 H   0  0  0  0  0  0
  -25.9844  -25.9772   18.9935 H   0  0  0  0  0  0
  -23.9664  -27.3137   19.0318 H   0  0  0  0  0  0
  -23.7554  -30.6283   19.4123 H   0  0  0  0  0  0
  -22.7461  -29.2836   19.8422 H   0  0  0  0  0  0
  -25.1261  -36.2005   25.0860 H   0  0  0  0  0  0
  -21.0013  -28.3238   24.1416 H   0  0  0  0  0  0
  -20.5715  -26.2288   23.3618 H   0  0  0  0  0  0
  -21.6646  -26.7452   22.1183 H   0  0  0  0  0  0
  -19.6864  -25.6307   21.1261 H   0  0  0  0  0  0
  -19.6649  -27.3245   20.6800 H   0  0  0  0  0  0
  -17.4201  -26.6778   21.4055 H   0  0  0  0  0  0
  -18.0254  -26.0072   22.9030 H   0  0  0  0  0  0
  -19.7950  -30.7296   24.2291 H   0  0  0  0  0  0
  -17.5029  -31.6288   24.5200 H   0  0  0  0  0  0
  -15.5366  -30.3038   23.7598 H   0  0  0  0  0  0
  -15.8702  -28.0840   22.7054 H   0  0  0  0  0  0
  -24.5938  -30.7020   25.7851 H   0  0  0  0  0  0
  -24.8922  -32.2842   26.4977 H   0  0  0  0  0  0
  -25.8132  -30.8888   27.0252 H   0  0  0  0  0  0
  -26.2829  -29.6831   24.1205 H   0  0  0  0  0  0
  -27.4120  -29.7304   25.4553 H   0  0  0  0  0  0
  -27.8666  -30.4417   23.9249 H   0  0  0  0  0  0
  -27.2665  -33.3671   26.2052 H   0  0  0  0  0  0
  -28.3841  -32.6890   25.0290 H   0  0  0  0  0  0
  -28.0739  -31.8507   26.5416 H   0  0  0  0  0  0
  -28.2611  -38.0082   24.7526 H   0  0  0  0  0  0
  -28.1047  -36.2618   24.6312 H   0  0  0  0  0  0
  -27.2307  -37.1450   25.8891 H   0  0  0  0  0  0
  -20.9324  -29.8798   21.6956 H   0  0  0  0  0  0
  -26.0178  -38.2883   24.1448 H   0  0  0  0  0  0
  -28.3893  -19.6294   19.8608 H   0  0  0  0  0  0
  -28.7366  -17.2257   19.4271 H   0  0  0  0  0  0
  -31.3183  -16.9715   22.8842 H   0  0  0  0  0  0
  -30.2029  -24.6049   19.5147 H   0  0  0  0  0  0
  -29.9633  -24.6134   21.2311 H   0  0  0  0  0  0
  -30.2875  -22.3081   19.9550 H   0  0  0  0  0  0
  -28.6123  -22.4662   19.4813 H   0  0  0  0  0  0
  -27.7776  -24.8663   19.1236 H   0  0  0  0  0  0
  -27.4562  -24.8782   20.8415 H   0  0  0  0  0  0
  -28.5354  -20.0533   23.8767 H   0  0  0  0  0  0
  -28.1682  -21.7372   23.8556 H   0  0  0  0  0  0
  -29.0054  -15.1287   21.4337 H   0  0  0  0  0  0
  -28.3605  -22.8339   22.0707 H   0  0  0  0  0  0
  1 25  1  0  0  0
  1 30  2  0  0  0
  1 82  1  0  0  0
  2  3  1  0  0  0
  2 25  1  0  0  0
  2 85  1  0  0  0
  2 86  1  0  0  0
  3  4  1  0  0  0
  3 87  1  0  0  0
  3 88  1  0  0  0
  4  5  1  0  0  0
  4 89  1  0  0  0
  4 90  1  0  0  0
  5  6  1  0  0  0
  5 26  1  0  0  0
  5 91  1  0  0  0
  6 25  1  0  0  0
  6 92  1  0  0  0
  6 93  1  0  0  0
  7  8  2  0  0  0
  7 26  1  0  0  0
  7 29  1  0  0  0
  8  9  1  0  0  0
  8 22  1  0  0  0
  9 10  1  0  0  0
  9 27  2  0  0  0
 10 11  2  0  0  0
 10 15  1  0  0  0
 11 12  1  0  0  0
 11 94  1  0  0  0
 12 13  2  0  0  0
 12 95  1  0  0  0
 13 14  1  0  0  0
 13 31  1  0  0  0
 14 15  2  0  0  0
 14 96  1  0  0  0
 15 97  1  0  0  0
 16 17  2  0  0  0
 16 21  1  0  0  0
 16 31  1  0  0  0
 17 18  1  0  0  0
 17 98  1  0  0  0
 18 19  2  0  0  0
 18 99  1  0  0  0
 19 20  1  0  0  0
 19 24  1  0  0  0
 20 21  2  0  0  0
 20100  1  0  0  0
 21 23  1  0  0  0
 22 28  1  0  0  0
 22 32  2  0  0  0
 26 27  1  0  0  0
 28101  1  0  0  0
 28102  1  0  0  0
 29103  1  0  0  0
 29104  1  0  0  0
 33 34  1  0  0  0
 33 66  1  0  0  0
 33 70  2  0  0  0
 34 36  1  0  0  0
 34 59  1  0  0  0
 34105  1  0  0  0
 35 44  2  0  0  0
 35 45  1  0  0  0
 35 68  1  0  0  0
 36 56  1  0  0  0
 36106  1  0  0  0
 37 39  1  0  0  0
 37 47  1  0  0  0
 37 66  1  0  0  0
 37107  1  0  0  0
 38 43  2  0  0  0
 38 46  1  0  0  0
 38 47  1  0  0  0
 39 64  1  0  0  0
 39 67  2  0  0  0
 40 52  1  0  0  0
 40 53  2  0  0  0
 40 58  1  0  0  0
 41108  1  0  0  0
 41109  1  0  0  0
 41110  1  0  0  0
 41 48  1  0  0  0
 42 43  1  0  0  0
 42 66  1  0  0  0
 42111  1  0  0  0
 42112  1  0  0  0
 43 44  1  0  0  0
 44113  1  0  0  0
 45 46  2  0  0  0
 45114  1  0  0  0
 46115  1  0  0  0
 47116  1  0  0  0
 47117  1  0  0  0
 48 56  1  0  0  0
 48 65  1  0  0  0
 48118  1  0  0  0
 49 50  1  0  0  0
 49 53  1  0  0  0
 49 64  1  0  0  0
 49119  1  0  0  0
 50 51  1  0  0  0
 50120  1  0  0  0
 50121  1  0  0  0
 51 52  1  0  0  0
 51122  1  0  0  0
 51123  1  0  0  0
 52124  1  0  0  0
 52125  1  0  0  0
 53 54  1  0  0  0
 54 55  2  0  0  0
 54126  1  0  0  0
 55 57  1  0  0  0
 55127  1  0  0  0
 56 69  2  0  0  0
 57 58  2  0  0  0
 57128  1  0  0  0
 58129  1  0  0  0
 59 60  1  0  0  0
 59 61  1  0  0  0
 59 62  1  0  0  0
 60130  1  0  0  0
 60131  1  0  0  0
 60132  1  0  0  0
 61133  1  0  0  0
 61134  1  0  0  0
 61135  1  0  0  0
 62136  1  0  0  0
 62137  1  0  0  0
 62138  1  0  0  0
 63 65  1  0  0  0
 63139  1  0  0  0
 63140  1  0  0  0
 63141  1  0  0  0
 64142  1  0  0  0
 65143  1  0  0  0
 68 80  1  0  0  0
 71 72  2  0  0  0
 71 74  1  0  0  0
 71144  1  0  0  0
 72 75  1  0  0  0
 72145  1  0  0  0
 73 75  2  0  0  0
 73 76  1  0  0  0
 73146  1  0  0  0
 74 76  2  0  0  0
 74 77  1  0  0  0
 75 82  1  0  0  0
 76 84  1  0  0  0
 77 81  1  0  0  0
 77 83  2  0  0  0
 78 79  1  0  0  0
 78 80  1  0  0  0
 78147  1  0  0  0
 78148  1  0  0  0
 79 83  1  0  0  0
 79149  1  0  0  0
 79150  1  0  0  0
 80151  1  0  0  0
 80152  1  0  0  0
 81153  1  0  0  0
 81154  1  0  0  0
 82155  1  0  0  0
 83156  1  0  0  0
M  CHG  1  83   1
M  ISO  4   1 100  68 101  80 101  82 100
M  END
> <chiral flag>
0

> <version>
0

> <s_m_source_file>
/data/baiqing/PycharmProjects/Reinvent-master-3.2/result/LINK_invent/BTK/process_docking_weight1_custom_product_contain_oxygen_bond_distance_aromatic_linkinvent_7_9_3/rearranged_h_0059.sdf

> <i_m_source_file_index>
3

> <r_mmod_Potential_Energy-OPLS-2005>
-108.764953613281

> <r_mmod_Stretch_Energy-OPLS-2005>
48.091739654541

> <r_mmod_Bend_Energy-OPLS-2005>
125.08373260498

> <r_mmod_Torsional_Energy-OPLS-2005>
269.164154052734

> <r_mmod_Improper_Torsional_Energy-OPLS-2005>
8.37253952026367

> <r_mmod_Van_der_Waal_Energy-OPLS-2005>
146.093231201172

> <r_mmod_Electrostatic_Energy-OPLS-2005>
-295.485229492188

> <r_mmod_Solvation_Energy-OPLS-2005>
-429.208312988281

> <b_mmod_Minimization_Converged-OPLS-2005>
0

> <r_mmod_RMS_Derivative-OPLS-2005>
3.60201525688171

$$$$
3
                    3D
 Structure written by MMmdl.
151159  0  0  1  0            999 V2000
  -30.6242  -14.6242   20.5043 C   0  0  0  0  0  0
  -30.4414  -12.3827   19.4496 C   0  0  0  0  0  0
  -29.5085  -12.5046   18.2235 C   0  0  0  0  0  0
  -28.0316  -12.3430   18.6369 C   0  0  0  0  0  0
  -27.6557  -13.2132   19.8659 C   0  0  2  0  0  0
  -28.7005  -13.0548   20.9944 C   0  0  0  0  0  0
  -25.2557  -13.8153   20.5672 C   0  0  0  0  0  0
  -24.1818  -13.0419   20.9156 C   0  0  0  0  0  0
  -24.6392  -11.6893   20.8720 C   0  0  0  0  0  0
  -23.9060  -10.4281   21.0400 C   0  0  0  0  0  0
  -24.3610   -9.4202   21.9185 C   0  0  0  0  0  0
  -23.6289   -8.2238   22.0752 C   0  0  0  0  0  0
  -22.4271   -8.0275   21.3543 C   0  0  0  0  0  0
  -21.9902   -9.0248   20.4650 C   0  0  0  0  0  0
  -22.7228  -10.2129   20.3057 C   0  0  0  0  0  0
  -21.6849   -6.0735   22.5285 C   0  0  0  0  0  0
  -21.4010   -6.5636   23.8218 C   0  0  0  0  0  0
  -21.3659   -5.6788   24.9178 C   0  0  0  0  0  0
  -21.6044   -4.3052   24.7226 C   0  0  0  0  0  0
  -21.8819   -3.8145   23.4347 C   0  0  0  0  0  0
  -21.9191   -4.6964   22.3406 C   0  0  0  0  0  0
  -22.7845  -13.5223   21.1836 C   0  0  0  0  0  0
  -22.1663   -4.2154   21.0984 F   0  0  0  0  0  0
  -21.5629   -3.4533   25.7735 F   0  0  0  0  0  0
  -30.0191  -13.3972   20.4346 N   0  0  0  0  0  0
  -26.2998  -12.9342   20.3337 N   0  0  0  0  0  0
  -25.9325  -11.6496   20.5753 N   0  0  0  0  0  0
  -22.0489  -12.8228   22.0407 N   0  0  0  0  0  0
  -25.4236  -15.1880   20.4147 N   0  0  0  0  0  0
  -31.7818  -14.7950   20.1108 O   0  0  0  0  0  0
  -21.6634   -6.8875   21.4245 O   0  0  0  0  0  0
  -22.3527  -14.5531   20.6691 O   0  0  0  0  0  0
  -24.6258  -31.8616   23.2045 C   0  0  0  0  0  0
  -25.9110  -32.4787   23.8372 C   0  0  1  0  0  0
  -27.2156  -27.3263   20.1061 C   0  0  0  0  0  0
  -25.5927  -33.8585   24.2301 N   0  0  0  0  0  0
  -23.4179  -30.4892   21.5482 C   0  0  2  0  0  0
  -24.8613  -28.9495   20.1095 C   0  0  0  0  0  0
  -22.7471  -29.4639   22.4937 C   0  0  0  0  0  0
  -18.0290  -28.1387   22.8492 C   0  0  0  0  0  0
  -24.1490  -36.7295   23.2636 C   0  0  0  0  0  0
  -25.9603  -30.7947   21.3749 C   0  0  0  0  0  0
  -26.0319  -29.4239   20.7148 C   0  0  0  0  0  0
  -27.2131  -28.6236   20.7041 C   0  0  0  0  0  0
  -26.0199  -26.9088   19.4741 C   0  0  0  0  0  0
  -24.8570  -27.6975   19.4807 C   0  0  0  0  0  0
  -23.6308  -29.8309   20.1608 C   0  0  0  0  0  0
  -25.4109  -36.3088   24.0338 C   0  0  1  0  0  0
  -20.5890  -28.3686   23.1290 C   0  0  2  0  0  0
  -20.6778  -26.9412   22.5410 C   0  0  0  0  0  0
  -19.5747  -26.6393   21.5216 C   0  0  0  0  0  0
  -18.1933  -26.7927   22.1636 C   0  0  0  0  0  0
  -19.1540  -28.8854   23.2891 C   0  0  0  0  0  0
  -18.9459  -30.1457   23.8906 C   0  0  0  0  0  0
  -17.6458  -30.6590   24.0566 C   0  0  0  0  0  0
  -25.9049  -34.9453   23.5120 C   0  0  0  0  0  0
  -16.5351  -29.9091   23.6329 C   0  0  0  0  0  0
  -16.7277  -28.6508   23.0355 C   0  0  0  0  0  0
  -26.4489  -31.6583   25.0731 C   0  0  0  0  0  0
  -25.3726  -31.3736   26.1467 C   0  0  0  0  0  0
  -27.0308  -30.3002   24.6171 C   0  0  0  0  0  0
  -27.6078  -32.4292   25.7483 C   0  0  0  0  0  0
  -27.5583  -37.1799   24.8466 C   0  0  0  0  0  0
  -21.4185  -29.3044   22.3683 N   0  0  0  0  0  0
  -26.4288  -37.3782   23.9418 N   0  0  0  0  0  0
  -24.6871  -31.0641   22.0995 N   0  0  0  0  0  0
  -23.4199  -28.8165   23.3002 O   0  0  0  0  0  0
  -28.3291  -26.4718   20.1556 O   0  0  0  0  0  0
  -26.5612  -34.8914   22.4684 O   0  0  0  0  0  0
  -23.5422  -32.1412   23.7376 O   0  0  0  0  0  0
  -30.9508  -19.2796   20.2034 C   0  0  0  0  0  0
  -31.0074  -17.8569   20.3112 C   0  0  0  0  0  0
  -28.6365  -19.2631   20.8627 C   0  0  0  0  0  0
  -29.7693  -20.0258   20.4730 C   0  0  0  0  0  0
  -29.8732  -17.1028   20.7108 C   0  0  0  0  0  0
  -28.6933  -17.8441   20.9799 C   0  0  0  0  0  0
  -28.8231  -22.4332   20.2980 C   0  0  0  0  0  0
  -29.2033  -23.9663   20.3720 C   0  0  0  0  0  0
  -28.0817  -25.0208   19.9848 C   0  0  0  0  0  0
  -29.8107  -21.4899   20.4054 N   0  0  0  0  0  0
  -29.8119  -15.6549   20.8827 N   0  0  0  0  0  0
  -27.6429  -22.1184   20.1318 O   0  0  0  0  0  0
  -27.5831  -17.1702   21.3664 F   0  0  0  0  0  0
  -31.4823  -12.5091   19.1470 H   0  0  0  0  0  0
  -30.3766  -11.3843   19.8850 H   0  0  0  0  0  0
  -29.7710  -11.7553   17.4755 H   0  0  0  0  0  0
  -29.6516  -13.4754   17.7460 H   0  0  0  0  0  0
  -27.8699  -11.2895   18.8698 H   0  0  0  0  0  0
  -27.3754  -12.5707   17.7956 H   0  0  0  0  0  0
  -27.6764  -14.2502   19.5294 H   0  0  0  0  0  0
  -28.7076  -12.0292   21.3666 H   0  0  0  0  0  0
  -28.4459  -13.6770   21.8535 H   0  0  0  0  0  0
  -25.2759   -9.5681   22.4754 H   0  0  0  0  0  0
  -24.0004   -7.4628   22.7466 H   0  0  0  0  0  0
  -21.0835   -8.8765   19.8958 H   0  0  0  0  0  0
  -22.3687  -10.9665   19.6163 H   0  0  0  0  0  0
  -21.1999   -7.6145   23.9721 H   0  0  0  0  0  0
  -21.1483   -6.0519   25.9082 H   0  0  0  0  0  0
  -22.0598   -2.7608   23.2842 H   0  0  0  0  0  0
  -22.4097  -11.9892   22.4808 H   0  0  0  0  0  0
  -21.1116  -13.1277   22.2623 H   0  0  0  0  0  0
  -24.6617  -15.8381   20.5686 H   0  0  0  0  0  0
  -26.3009  -15.6534   20.2175 H   0  0  0  0  0  0
  -26.7175  -32.5454   23.1119 H   0  0  0  0  0  0
  -25.0062  -33.9728   25.0435 H   0  0  0  0  0  0
  -22.7128  -31.3115   21.4102 H   0  0  0  0  0  0
  -23.3756  -35.9622   23.3283 H   0  0  0  0  0  0
  -24.3592  -36.8923   22.2054 H   0  0  0  0  0  0
  -23.7229  -37.6492   23.6657 H   0  0  0  0  0  0
  -26.0934  -31.5601   20.6086 H   0  0  0  0  0  0
  -26.8407  -30.8409   22.0041 H   0  0  0  0  0  0
  -28.1112  -28.9812   21.1875 H   0  0  0  0  0  0
  -25.9469  -25.9564   18.9714 H   0  0  0  0  0  0
  -23.9603  -27.3326   18.9986 H   0  0  0  0  0  0
  -23.7504  -30.6114   19.4084 H   0  0  0  0  0  0
  -22.7487  -29.2650   19.8566 H   0  0  0  0  0  0
  -25.1281  -36.1946   25.0830 H   0  0  0  0  0  0
  -20.9998  -28.3255   24.1406 H   0  0  0  0  0  0
  -20.5695  -26.2287   23.3604 H   0  0  0  0  0  0
  -21.6643  -26.7452   22.1193 H   0  0  0  0  0  0
  -19.6905  -25.6308   21.1244 H   0  0  0  0  0  0
  -19.6682  -27.3207   20.6747 H   0  0  0  0  0  0
  -17.4198  -26.6678   21.4043 H   0  0  0  0  0  0
  -18.0335  -26.0073   22.9038 H   0  0  0  0  0  0
  -19.7932  -30.7273   24.2283 H   0  0  0  0  0  0
  -17.5012  -31.6271   24.5164 H   0  0  0  0  0  0
  -15.5352  -30.2997   23.7643 H   0  0  0  0  0  0
  -15.8678  -28.0831   22.7065 H   0  0  0  0  0  0
  -24.5858  -30.7139   25.7788 H   0  0  0  0  0  0
  -24.8965  -32.2911   26.4934 H   0  0  0  0  0  0
  -25.8039  -30.8861   27.0217 H   0  0  0  0  0  0
  -26.2866  -29.6765   24.1203 H   0  0  0  0  0  0
  -27.4014  -29.7248   25.4663 H   0  0  0  0  0  0
  -27.8742  -30.4284   23.9381 H   0  0  0  0  0  0
  -27.2739  -33.3614   26.2046 H   0  0  0  0  0  0
  -28.3891  -32.6802   25.0297 H   0  0  0  0  0  0
  -28.0734  -31.8404   26.5396 H   0  0  0  0  0  0
  -28.2598  -38.0099   24.7522 H   0  0  0  0  0  0
  -28.1081  -36.2632   24.6278 H   0  0  0  0  0  0
  -27.2305  -37.1431   25.8869 H   0  0  0  0  0  0
  -20.9354  -29.8774   21.6905 H   0  0  0  0  0  0
  -26.0173  -38.2859   24.1417 H   0  0  0  0  0  0
  -31.8498  -19.8028   19.9079 H   0  0  0  0  0  0
  -31.9406  -17.3593   20.0917 H   0  0  0  0  0  0
  -27.7071  -19.7570   21.1029 H   0  0  0  0  0  0
  -30.0784  -24.1343   19.7452 H   0  0  0  0  0  0
  -29.5213  -24.1642   21.3957 H   0  0  0  0  0  0
  -27.1924  -24.7612   20.5624 H   0  0  0  0  0  0
  -27.8302  -24.8451   18.9378 H   0  0  0  0  0  0
  -30.7409  -21.8850   20.4370 H   0  0  0  0  0  0
  -28.9117  -15.3405   21.2131 H   0  0  0  0  0  0
  1 25  1  0  0  0
  1 30  2  0  0  0
  1 81  1  0  0  0
  2  3  1  0  0  0
  2 25  1  0  0  0
  2 84  1  0  0  0
  2 85  1  0  0  0
  3  4  1  0  0  0
  3 86  1  0  0  0
  3 87  1  0  0  0
  4  5  1  0  0  0
  4 88  1  0  0  0
  4 89  1  0  0  0
  5  6  1  0  0  0
  5 26  1  0  0  0
  5 90  1  0  0  0
  6 25  1  0  0  0
  6 91  1  0  0  0
  6 92  1  0  0  0
  7  8  2  0  0  0
  7 26  1  0  0  0
  7 29  1  0  0  0
  8  9  1  0  0  0
  8 22  1  0  0  0
  9 10  1  0  0  0
  9 27  2  0  0  0
 10 11  2  0  0  0
 10 15  1  0  0  0
 11 12  1  0  0  0
 11 93  1  0  0  0
 12 13  2  0  0  0
 12 94  1  0  0  0
 13 14  1  0  0  0
 13 31  1  0  0  0
 14 15  2  0  0  0
 14 95  1  0  0  0
 15 96  1  0  0  0
 16 17  2  0  0  0
 16 21  1  0  0  0
 16 31  1  0  0  0
 17 18  1  0  0  0
 17 97  1  0  0  0
 18 19  2  0  0  0
 18 98  1  0  0  0
 19 20  1  0  0  0
 19 24  1  0  0  0
 20 21  2  0  0  0
 20 99  1  0  0  0
 21 23  1  0  0  0
 22 28  1  0  0  0
 22 32  2  0  0  0
 26 27  1  0  0  0
 28100  1  0  0  0
 28101  1  0  0  0
 29102  1  0  0  0
 29103  1  0  0  0
 33 34  1  0  0  0
 33 66  1  0  0  0
 33 70  2  0  0  0
 34 36  1  0  0  0
 34 59  1  0  0  0
 34104  1  0  0  0
 35 44  2  0  0  0
 35 45  1  0  0  0
 35 68  1  0  0  0
 36 56  1  0  0  0
 36105  1  0  0  0
 37 39  1  0  0  0
 37 47  1  0  0  0
 37 66  1  0  0  0
 37106  1  0  0  0
 38 43  2  0  0  0
 38 46  1  0  0  0
 38 47  1  0  0  0
 39 64  1  0  0  0
 39 67  2  0  0  0
 40 52  1  0  0  0
 40 53  2  0  0  0
 40 58  1  0  0  0
 41107  1  0  0  0
 41108  1  0  0  0
 41109  1  0  0  0
 41 48  1  0  0  0
 42 43  1  0  0  0
 42 66  1  0  0  0
 42110  1  0  0  0
 42111  1  0  0  0
 43 44  1  0  0  0
 44112  1  0  0  0
 45 46  2  0  0  0
 45113  1  0  0  0
 46114  1  0  0  0
 47115  1  0  0  0
 47116  1  0  0  0
 48 56  1  0  0  0
 48 65  1  0  0  0
 48117  1  0  0  0
 49 50  1  0  0  0
 49 53  1  0  0  0
 49 64  1  0  0  0
 49118  1  0  0  0
 50 51  1  0  0  0
 50119  1  0  0  0
 50120  1  0  0  0
 51 52  1  0  0  0
 51121  1  0  0  0
 51122  1  0  0  0
 52123  1  0  0  0
 52124  1  0  0  0
 53 54  1  0  0  0
 54 55  2  0  0  0
 54125  1  0  0  0
 55 57  1  0  0  0
 55126  1  0  0  0
 56 69  2  0  0  0
 57 58  2  0  0  0
 57127  1  0  0  0
 58128  1  0  0  0
 59 60  1  0  0  0
 59 61  1  0  0  0
 59 62  1  0  0  0
 60129  1  0  0  0
 60130  1  0  0  0
 60131  1  0  0  0
 61132  1  0  0  0
 61133  1  0  0  0
 61134  1  0  0  0
 62135  1  0  0  0
 62136  1  0  0  0
 62137  1  0  0  0
 63 65  1  0  0  0
 63138  1  0  0  0
 63139  1  0  0  0
 63140  1  0  0  0
 64141  1  0  0  0
 65142  1  0  0  0
 68 79  1  0  0  0
 71 72  2  0  0  0
 71 74  1  0  0  0
 71143  1  0  0  0
 72 75  1  0  0  0
 72144  1  0  0  0
 73 74  2  0  0  0
 73 76  1  0  0  0
 73145  1  0  0  0
 74 80  1  0  0  0
 75 76  2  0  0  0
 75 81  1  0  0  0
 76 83  1  0  0  0
 77 78  1  0  0  0
 77 80  1  0  0  0
 77 82  2  0  0  0
 78 79  1  0  0  0
 78146  1  0  0  0
 78147  1  0  0  0
 79148  1  0  0  0
 79149  1  0  0  0
 80150  1  0  0  0
 81151  1  0  0  0
M  ISO  4   1 100  68 101  79 101  81 100
M  END
> <chiral flag>
0

> <version>
0

> <s_m_source_file>
/data/baiqing/PycharmProjects/Reinvent-master-3.2/result/LINK_invent/BTK/process_docking_weight1_custom_product_contain_oxygen_bond_distance_aromatic_linkinvent_7_9_3/rearranged_h_0059.sdf

> <i_m_source_file_index>
4

> <r_mmod_Potential_Energy-OPLS-2005>
-42.3102340698242

> <r_mmod_Stretch_Energy-OPLS-2005>
73.474479675293

> <r_mmod_Bend_Energy-OPLS-2005>
137.113388061523

> <r_mmod_Torsional_Energy-OPLS-2005>
218.337249755859

> <r_mmod_Improper_Torsional_Energy-OPLS-2005>
4.02269601821899

> <r_mmod_Van_der_Waal_Energy-OPLS-2005>
148.6728515625

> <r_mmod_Electrostatic_Energy-OPLS-2005>
-448.560668945312

> <r_mmod_Solvation_Energy-OPLS-2005>
-220.761657714844

> <b_mmod_Minimization_Converged-OPLS-2005>
0

> <r_mmod_RMS_Derivative-OPLS-2005>
1.14069616794586

$$$$
4
                    3D
 Structure written by MMmdl.
152160  0  0  1  0            999 V2000
  -30.7156  -14.5183   20.5484 C   0  0  0  0  0  0
  -30.4152  -12.3307   19.4372 C   0  0  0  0  0  0
  -29.4932  -12.4970   18.2130 C   0  0  0  0  0  0
  -28.0167  -12.3532   18.6279 C   0  0  0  0  0  0
  -27.6547  -13.2163   19.8667 C   0  0  2  0  0  0
  -28.6990  -13.0535   20.9947 C   0  0  0  0  0  0
  -25.2559  -13.8183   20.5687 C   0  0  0  0  0  0
  -24.1825  -13.0448   20.9192 C   0  0  0  0  0  0
  -24.6393  -11.6919   20.8745 C   0  0  0  0  0  0
  -23.9065  -10.4301   21.0407 C   0  0  0  0  0  0
  -24.3616   -9.4213   21.9183 C   0  0  0  0  0  0
  -23.6292   -8.2246   22.0753 C   0  0  0  0  0  0
  -22.4273   -8.0284   21.3545 C   0  0  0  0  0  0
  -21.9909   -9.0258   20.4646 C   0  0  0  0  0  0
  -22.7238  -10.2139   20.3056 C   0  0  0  0  0  0
  -21.6853   -6.0736   22.5279 C   0  0  0  0  0  0
  -21.4013   -6.5639   23.8213 C   0  0  0  0  0  0
  -21.3659   -5.6793   24.9175 C   0  0  0  0  0  0
  -21.6044   -4.3056   24.7227 C   0  0  0  0  0  0
  -21.8819   -3.8147   23.4347 C   0  0  0  0  0  0
  -21.9192   -4.6964   22.3401 C   0  0  0  0  0  0
  -22.7846  -13.5237   21.1853 C   0  0  0  0  0  0
  -22.1661   -4.2150   21.0979 F   0  0  0  0  0  0
  -21.5629   -3.4539   25.7738 F   0  0  0  0  0  0
  -30.0226  -13.3497   20.4269 N   0  0  0  0  0  0
  -26.2994  -12.9368   20.3348 N   0  0  0  0  0  0
  -25.9323  -11.6520   20.5778 N   0  0  0  0  0  0
  -22.0486  -12.8229   22.0407 N   0  0  0  0  0  0
  -25.4267  -15.1901   20.4078 N   0  0  0  0  0  0
  -31.8625  -14.6345   20.1082 O   0  0  0  0  0  0
  -21.6639   -6.8880   21.4241 O   0  0  0  0  0  0
  -22.3532  -14.5545   20.6703 O   0  0  0  0  0  0
  -24.6187  -31.8657   23.2087 C   0  0  0  0  0  0
  -25.9067  -32.4809   23.8389 C   0  0  1  0  0  0
  -27.2239  -27.3965   20.1059 C   0  0  0  0  0  0
  -25.5911  -33.8610   24.2317 N   0  0  0  0  0  0
  -23.4087  -30.4899   21.5498 C   0  0  2  0  0  0
  -24.8558  -28.9571   20.1097 C   0  0  0  0  0  0
  -22.7434  -29.4646   22.4973 C   0  0  0  0  0  0
  -18.0273  -28.1376   22.8483 C   0  0  0  0  0  0
  -24.1489  -36.7308   23.2639 C   0  0  0  0  0  0
  -25.9425  -30.8206   21.3686 C   0  0  0  0  0  0
  -26.0199  -29.4543   20.7109 C   0  0  0  0  0  0
  -27.2112  -28.6832   20.7035 C   0  0  0  0  0  0
  -26.0475  -26.9363   19.4754 C   0  0  0  0  0  0
  -24.8666  -27.6995   19.4850 C   0  0  0  0  0  0
  -23.6194  -29.8270   20.1627 C   0  0  0  0  0  0
  -25.4110  -36.3104   24.0334 C   0  0  1  0  0  0
  -20.5868  -28.3669   23.1303 C   0  0  2  0  0  0
  -20.6767  -26.9403   22.5413 C   0  0  0  0  0  0
  -19.5746  -26.6383   21.5206 C   0  0  0  0  0  0
  -18.1922  -26.7917   22.1620 C   0  0  0  0  0  0
  -19.1523  -28.8839   23.2888 C   0  0  0  0  0  0
  -18.9454  -30.1446   23.8903 C   0  0  0  0  0  0
  -17.6458  -30.6585   24.0563 C   0  0  0  0  0  0
  -25.9039  -34.9469   23.5121 C   0  0  0  0  0  0
  -16.5348  -29.9087   23.6331 C   0  0  0  0  0  0
  -16.7264  -28.6502   23.0349 C   0  0  0  0  0  0
  -26.4481  -31.6596   25.0728 C   0  0  0  0  0  0
  -25.3738  -31.3713   26.1473 C   0  0  0  0  0  0
  -27.0311  -30.3033   24.6122 C   0  0  0  0  0  0
  -27.6055  -32.4318   25.7489 C   0  0  0  0  0  0
  -27.5581  -37.1808   24.8465 C   0  0  0  0  0  0
  -21.4158  -29.3034   22.3715 N   0  0  0  0  0  0
  -26.4294  -37.3791   23.9409 N   0  0  0  0  0  0
  -24.6751  -31.0730   22.1004 N   0  0  0  0  0  0
  -23.4191  -28.8183   23.3024 O   0  0  0  0  0  0
  -28.3367  -26.5716   20.1475 O   0  0  0  0  0  0
  -26.5606  -34.8927   22.4685 O   0  0  0  0  0  0
  -23.5372  -32.1427   23.7460 O   0  0  0  0  0  0
  -32.3678  -18.3905   21.9799 C   0  0  0  0  0  0
  -31.6099  -19.5334   21.6736 C   0  0  0  0  0  0
  -31.8456  -17.1063   21.7531 C   0  0  0  0  0  0
  -29.7795  -18.1055   20.9275 C   0  0  0  0  0  0
  -30.3067  -19.4204   21.1314 C   0  0  0  0  0  0
  -30.5508  -16.9339   21.2097 C   0  0  0  0  0  0
  -28.8785  -22.8832   20.6996 C   0  0  0  0  0  0
  -29.1425  -24.2192   20.6644 C   0  0  0  0  0  0
  -29.9359  -21.8697   20.6081 C   0  0  0  0  0  0
  -28.0903  -25.3219   20.8467 C   0  0  0  0  0  0
  -29.5131  -20.6023   20.8693 N   0  0  0  0  0  0
  -30.0296  -15.6021   20.9977 N   0  0  0  0  0  0
  -31.1017  -22.1349   20.3022 O   0  0  0  0  0  0
  -31.4606  -12.4139   19.1350 H   0  0  0  0  0  0
  -30.3107  -11.3325   19.8650 H   0  0  0  0  0  0
  -29.7403  -11.7569   17.4508 H   0  0  0  0  0  0
  -29.6555  -13.4743   17.7556 H   0  0  0  0  0  0
  -27.8384  -11.3000   18.8468 H   0  0  0  0  0  0
  -27.3637  -12.6032   17.7910 H   0  0  0  0  0  0
  -27.6822  -14.2556   19.5385 H   0  0  0  0  0  0
  -28.6846  -12.0355   21.3866 H   0  0  0  0  0  0
  -28.4625  -13.7005   21.8407 H   0  0  0  0  0  0
  -25.2761   -9.5688   22.4763 H   0  0  0  0  0  0
  -24.0003   -7.4635   22.7473 H   0  0  0  0  0  0
  -21.0842   -8.8777   19.8950 H   0  0  0  0  0  0
  -22.3695  -10.9678   19.6167 H   0  0  0  0  0  0
  -21.2007   -7.6150   23.9717 H   0  0  0  0  0  0
  -21.1481   -6.0523   25.9078 H   0  0  0  0  0  0
  -22.0598   -2.7610   23.2846 H   0  0  0  0  0  0
  -22.4098  -11.9889   22.4796 H   0  0  0  0  0  0
  -21.1104  -13.1256   22.2613 H   0  0  0  0  0  0
  -24.6583  -15.8443   20.5102 H   0  0  0  0  0  0
  -26.2743  -15.6272   20.0691 H   0  0  0  0  0  0
  -26.7139  -32.5514   23.1154 H   0  0  0  0  0  0
  -25.0072  -33.9769   25.0468 H   0  0  0  0  0  0
  -22.6986  -31.3077   21.4110 H   0  0  0  0  0  0
  -23.3750  -35.9644   23.3309 H   0  0  0  0  0  0
  -24.3583  -36.8916   22.2052 H   0  0  0  0  0  0
  -23.7240  -37.6514   23.6648 H   0  0  0  0  0  0
  -26.0612  -31.5879   20.6022 H   0  0  0  0  0  0
  -26.8274  -30.8708   21.9911 H   0  0  0  0  0  0
  -28.1057  -29.0548   21.1843 H   0  0  0  0  0  0
  -26.0344  -25.9741   18.9829 H   0  0  0  0  0  0
  -23.9751  -27.3140   19.0099 H   0  0  0  0  0  0
  -23.7298  -30.6047   19.4058 H   0  0  0  0  0  0
  -22.7420  -29.2499   19.8652 H   0  0  0  0  0  0
  -25.1284  -36.1973   25.0827 H   0  0  0  0  0  0
  -20.9954  -28.3239   24.1427 H   0  0  0  0  0  0
  -20.5669  -26.2279   23.3602 H   0  0  0  0  0  0
  -21.6638  -26.7448   22.1204 H   0  0  0  0  0  0
  -19.6915  -25.6297   21.1232 H   0  0  0  0  0  0
  -19.6688  -27.3201   20.6739 H   0  0  0  0  0  0
  -17.4191  -26.6663   21.4023 H   0  0  0  0  0  0
  -18.0329  -26.0058   22.9015 H   0  0  0  0  0  0
  -19.7935  -30.7250   24.2282 H   0  0  0  0  0  0
  -17.5018  -31.6267   24.5159 H   0  0  0  0  0  0
  -15.5348  -30.2994   23.7653 H   0  0  0  0  0  0
  -15.8658  -28.0829   22.7063 H   0  0  0  0  0  0
  -24.5904  -30.7070   25.7807 H   0  0  0  0  0  0
  -24.8942  -32.2875   26.4932 H   0  0  0  0  0  0
  -25.8086  -30.8871   27.0226 H   0  0  0  0  0  0
  -26.2860  -29.6797   24.1170 H   0  0  0  0  0  0
  -27.4063  -29.7273   25.4590 H   0  0  0  0  0  0
  -27.8707  -30.4340   23.9290 H   0  0  0  0  0  0
  -27.2673  -33.3616   26.2081 H   0  0  0  0  0  0
  -28.3858  -32.6884   25.0307 H   0  0  0  0  0  0
  -28.0730  -31.8430   26.5395 H   0  0  0  0  0  0
  -28.2602  -38.0105   24.7513 H   0  0  0  0  0  0
  -28.1072  -36.2633   24.6286 H   0  0  0  0  0  0
  -27.2299  -37.1455   25.8870 H   0  0  0  0  0  0
  -20.9326  -29.8766   21.6942 H   0  0  0  0  0  0
  -26.0186  -38.2870   24.1412 H   0  0  0  0  0  0
  -33.3578  -18.4998   22.4001 H   0  0  0  0  0  0
  -32.0478  -20.4976   21.8872 H   0  0  0  0  0  0
  -32.4576  -16.2530   22.0109 H   0  0  0  0  0  0
  -28.7797  -17.9948   20.5322 H   0  0  0  0  0  0
  -27.8540  -22.5611   20.8227 H   0  0  0  0  0  0
  -30.1605  -24.5629   20.5431 H   0  0  0  0  0  0
  -28.0527  -25.5552   21.9119 H   0  0  0  0  0  0
  -27.1213  -24.8860   20.6036 H   0  0  0  0  0  0
  -28.5116  -20.4856   20.9369 H   0  0  0  0  0  0
  -29.0422  -15.4649   21.1519 H   0  0  0  0  0  0
  1 25  1  0  0  0
  1 30  2  0  0  0
  1 82  1  0  0  0
  2  3  1  0  0  0
  2 25  1  0  0  0
  2 84  1  0  0  0
  2 85  1  0  0  0
  3  4  1  0  0  0
  3 86  1  0  0  0
  3 87  1  0  0  0
  4  5  1  0  0  0
  4 88  1  0  0  0
  4 89  1  0  0  0
  5  6  1  0  0  0
  5 26  1  0  0  0
  5 90  1  0  0  0
  6 25  1  0  0  0
  6 91  1  0  0  0
  6 92  1  0  0  0
  7  8  2  0  0  0
  7 26  1  0  0  0
  7 29  1  0  0  0
  8  9  1  0  0  0
  8 22  1  0  0  0
  9 10  1  0  0  0
  9 27  2  0  0  0
 10 11  2  0  0  0
 10 15  1  0  0  0
 11 12  1  0  0  0
 11 93  1  0  0  0
 12 13  2  0  0  0
 12 94  1  0  0  0
 13 14  1  0  0  0
 13 31  1  0  0  0
 14 15  2  0  0  0
 14 95  1  0  0  0
 15 96  1  0  0  0
 16 17  2  0  0  0
 16 21  1  0  0  0
 16 31  1  0  0  0
 17 18  1  0  0  0
 17 97  1  0  0  0
 18 19  2  0  0  0
 18 98  1  0  0  0
 19 20  1  0  0  0
 19 24  1  0  0  0
 20 21  2  0  0  0
 20 99  1  0  0  0
 21 23  1  0  0  0
 22 28  1  0  0  0
 22 32  2  0  0  0
 26 27  1  0  0  0
 28100  1  0  0  0
 28101  1  0  0  0
 29102  1  0  0  0
 29103  1  0  0  0
 33 34  1  0  0  0
 33 66  1  0  0  0
 33 70  2  0  0  0
 34 36  1  0  0  0
 34 59  1  0  0  0
 34104  1  0  0  0
 35 44  2  0  0  0
 35 45  1  0  0  0
 35 68  1  0  0  0
 36 56  1  0  0  0
 36105  1  0  0  0
 37 39  1  0  0  0
 37 47  1  0  0  0
 37 66  1  0  0  0
 37106  1  0  0  0
 38 43  2  0  0  0
 38 46  1  0  0  0
 38 47  1  0  0  0
 39 64  1  0  0  0
 39 67  2  0  0  0
 40 52  1  0  0  0
 40 53  2  0  0  0
 40 58  1  0  0  0
 41107  1  0  0  0
 41108  1  0  0  0
 41109  1  0  0  0
 41 48  1  0  0  0
 42 43  1  0  0  0
 42 66  1  0  0  0
 42110  1  0  0  0
 42111  1  0  0  0
 43 44  1  0  0  0
 44112  1  0  0  0
 45 46  2  0  0  0
 45113  1  0  0  0
 46114  1  0  0  0
 47115  1  0  0  0
 47116  1  0  0  0
 48 56  1  0  0  0
 48 65  1  0  0  0
 48117  1  0  0  0
 49 50  1  0  0  0
 49 53  1  0  0  0
 49 64  1  0  0  0
 49118  1  0  0  0
 50 51  1  0  0  0
 50119  1  0  0  0
 50120  1  0  0  0
 51 52  1  0  0  0
 51121  1  0  0  0
 51122  1  0  0  0
 52123  1  0  0  0
 52124  1  0  0  0
 53 54  1  0  0  0
 54 55  2  0  0  0
 54125  1  0  0  0
 55 57  1  0  0  0
 55126  1  0  0  0
 56 69  2  0  0  0
 57 58  2  0  0  0
 57127  1  0  0  0
 58128  1  0  0  0
 59 60  1  0  0  0
 59 61  1  0  0  0
 59 62  1  0  0  0
 60129  1  0  0  0
 60130  1  0  0  0
 60131  1  0  0  0
 61132  1  0  0  0
 61133  1  0  0  0
 61134  1  0  0  0
 62135  1  0  0  0
 62136  1  0  0  0
 62137  1  0  0  0
 63 65  1  0  0  0
 63138  1  0  0  0
 63139  1  0  0  0
 63140  1  0  0  0
 64141  1  0  0  0
 65142  1  0  0  0
 68 80  1  0  0  0
 71 72  2  0  0  0
 71 73  1  0  0  0
 71143  1  0  0  0
 72 75  1  0  0  0
 72144  1  0  0  0
 73 76  2  0  0  0
 73145  1  0  0  0
 74 75  2  0  0  0
 74 76  1  0  0  0
 74146  1  0  0  0
 75 81  1  0  0  0
 76 82  1  0  0  0
 77 78  2  0  0  0
 77 79  1  0  0  0
 77147  1  0  0  0
 78 80  1  0  0  0
 78148  1  0  0  0
 79 81  1  0  0  0
 79 83  2  0  0  0
 80149  1  0  0  0
 80150  1  0  0  0
 81151  1  0  0  0
 82152  1  0  0  0
M  ISO  4   1 100  68 101  80 101  82 100
M  END
> <chiral flag>
0

> <version>
0

> <s_m_source_file>
/data/baiqing/PycharmProjects/Reinvent-master-3.2/result/LINK_invent/BTK/process_docking_weight1_custom_product_contain_oxygen_bond_distance_aromatic_linkinvent_7_9_3/rearranged_h_0059.sdf

> <i_m_source_file_index>
5

> <r_mmod_Potential_Energy-OPLS-2005>
-49.5611343383789

> <r_mmod_Stretch_Energy-OPLS-2005>
49.6872673034668

> <r_mmod_Bend_Energy-OPLS-2005>
97.8554916381836

> <r_mmod_Torsional_Energy-OPLS-2005>
250.232345581055

> <r_mmod_Improper_Torsional_Energy-OPLS-2005>
4.59473848342896

> <r_mmod_Van_der_Waal_Energy-OPLS-2005>
160.846084594727

> <r_mmod_Electrostatic_Energy-OPLS-2005>
-399.101959228516

> <r_mmod_Solvation_Energy-OPLS-2005>
-237.277526855469

> <b_mmod_Minimization_Converged-OPLS-2005>
0

> <r_mmod_RMS_Derivative-OPLS-2005>
0.667279124259949

$$$$
5
                    3D
 Structure written by MMmdl.
159167  0  0  1  0            999 V2000
  -30.6828  -14.4543   20.5084 C   0  0  0  0  0  0
  -30.4251  -12.2781   19.4128 C   0  0  0  0  0  0
  -29.4907  -12.4680   18.1972 C   0  0  0  0  0  0
  -28.0116  -12.3418   18.6165 C   0  0  0  0  0  0
  -27.6584  -13.1908   19.8678 C   0  0  2  0  0  0
  -28.7055  -12.9864   20.9877 C   0  0  0  0  0  0
  -25.2603  -13.8141   20.5683 C   0  0  0  0  0  0
  -24.1838  -13.0438   20.9200 C   0  0  0  0  0  0
  -24.6361  -11.6898   20.8749 C   0  0  0  0  0  0
  -23.9022  -10.4286   21.0415 C   0  0  0  0  0  0
  -24.3575   -9.4204   21.9194 C   0  0  0  0  0  0
  -23.6263   -8.2231   22.0760 C   0  0  0  0  0  0
  -22.4248   -8.0266   21.3550 C   0  0  0  0  0  0
  -21.9881   -9.0236   20.4655 C   0  0  0  0  0  0
  -22.7191  -10.2128   20.3073 C   0  0  0  0  0  0
  -21.6854   -6.0717   22.5275 C   0  0  0  0  0  0
  -21.4012   -6.5625   23.8204 C   0  0  0  0  0  0
  -21.3659   -5.6778   24.9169 C   0  0  0  0  0  0
  -21.6045   -4.3043   24.7222 C   0  0  0  0  0  0
  -21.8815   -3.8136   23.4346 C   0  0  0  0  0  0
  -21.9191   -4.6948   22.3403 C   0  0  0  0  0  0
  -22.7865  -13.5271   21.1829 C   0  0  0  0  0  0
  -22.1669   -4.2135   21.0981 F   0  0  0  0  0  0
  -21.5615   -3.4529   25.7737 F   0  0  0  0  0  0
  -30.0336  -13.2678   20.4222 N   0  0  0  0  0  0
  -26.3004  -12.9271   20.3352 N   0  0  0  0  0  0
  -25.9280  -11.6456   20.5788 N   0  0  0  0  0  0
  -22.0476  -12.8305   22.0396 N   0  0  0  0  0  0
  -25.4323  -15.1850   20.4032 N   0  0  0  0  0  0
  -31.8590  -14.6197   20.1830 O   0  0  0  0  0  0
  -21.6627   -6.8856   21.4238 O   0  0  0  0  0  0
  -22.3578  -14.5565   20.6637 O   0  0  0  0  0  0
  -24.6121  -31.8711   23.2142 C   0  0  0  0  0  0
  -25.9041  -32.4833   23.8407 C   0  0  1  0  0  0
  -27.2354  -27.4635   20.0746 C   0  0  0  0  0  0
  -25.5928  -33.8627   24.2349 N   0  0  0  0  0  0
  -23.3958  -30.5002   21.5535 C   0  0  2  0  0  0
  -24.8391  -28.9673   20.1150 C   0  0  0  0  0  0
  -22.7392  -29.4696   22.4984 C   0  0  0  0  0  0
  -18.0274  -28.1381   22.8463 C   0  0  0  0  0  0
  -24.1495  -36.7322   23.2632 C   0  0  0  0  0  0
  -25.9225  -30.8415   21.3661 C   0  0  0  0  0  0
  -25.9966  -29.4782   20.7118 C   0  0  0  0  0  0
  -27.1931  -28.7323   20.6931 C   0  0  0  0  0  0
  -26.0574  -26.9616   19.4730 C   0  0  0  0  0  0
  -24.8621  -27.7043   19.4983 C   0  0  0  0  0  0
  -23.6044  -29.8380   20.1651 C   0  0  0  0  0  0
  -25.4111  -36.3113   24.0337 C   0  0  1  0  0  0
  -20.5866  -28.3665   23.1298 C   0  0  2  0  0  0
  -20.6785  -26.9398   22.5406 C   0  0  0  0  0  0
  -19.5744  -26.6340   21.5225 C   0  0  0  0  0  0
  -18.1915  -26.7929   22.1598 C   0  0  0  0  0  0
  -19.1520  -28.8833   23.2897 C   0  0  0  0  0  0
  -18.9446  -30.1426   23.8920 C   0  0  0  0  0  0
  -17.6447  -30.6565   24.0579 C   0  0  0  0  0  0
  -25.9032  -34.9478   23.5131 C   0  0  0  0  0  0
  -16.5341  -29.9087   23.6293 C   0  0  0  0  0  0
  -16.7261  -28.6516   23.0296 C   0  0  0  0  0  0
  -26.4487  -31.6586   25.0716 C   0  0  0  0  0  0
  -25.3772  -31.3670   26.1476 C   0  0  0  0  0  0
  -27.0308  -30.3028   24.6065 C   0  0  0  0  0  0
  -27.6077  -32.4280   25.7479 C   0  0  0  0  0  0
  -27.5583  -37.1824   24.8462 C   0  0  0  0  0  0
  -21.4122  -29.3058   22.3715 N   0  0  0  0  0  0
  -26.4296  -37.3799   23.9408 N   0  0  0  0  0  0
  -24.6613  -31.0844   22.1031 N   0  0  0  0  0  0
  -23.4168  -28.8230   23.3008 O   0  0  0  0  0  0
  -28.4387  -26.7894   20.0705 O   0  0  0  0  0  0
  -26.5570  -34.8934   22.4674 O   0  0  0  0  0  0
  -23.5332  -32.1424   23.7579 O   0  0  0  0  0  0
  -28.5277  -18.2736   23.3429 C   0  0  0  0  0  0
  -29.5973  -16.1303   22.8436 C   0  0  0  0  0  0
  -28.3735  -18.5337   21.9615 C   0  0  0  0  0  0
  -29.4541  -16.3881   21.4613 C   0  0  0  0  0  0
  -29.1335  -17.0780   23.7784 C   0  0  0  0  0  0
  -28.8489  -17.5844   21.0277 C   0  0  0  0  0  0
  -27.7026  -19.7599   21.5169 C   0  0  0  0  0  0
  -28.2117  -23.0797   20.8720 C   0  0  0  0  0  0
  -27.8221  -24.5665   20.8876 C   0  0  0  0  0  0
  -27.3656  -22.2601   21.8594 C   0  0  0  0  0  0
  -28.4794  -25.3950   19.7675 C   0  0  0  0  0  0
  -26.8251  -19.7297   20.5140 N   0  0  0  0  0  0
  -29.8528  -15.4997   20.4355 N   0  0  0  0  0  0
  -27.9493  -20.9321   22.1264 N   0  3  0  0  0  0
  -29.2638  -16.8342   25.1046 F   0  0  0  0  0  0
  -28.7166  -17.7949   19.6934 F   0  0  0  0  0  0
  -31.4681  -12.3849   19.1074 H   0  0  0  0  0  0
  -30.3356  -11.2696   19.8194 H   0  0  0  0  0  0
  -29.7199  -11.7285   17.4284 H   0  0  0  0  0  0
  -29.6625  -13.4442   17.7401 H   0  0  0  0  0  0
  -27.8174  -11.2876   18.8183 H   0  0  0  0  0  0
  -27.3605  -12.6134   17.7846 H   0  0  0  0  0  0
  -27.6954  -14.2321   19.5531 H   0  0  0  0  0  0
  -28.6755  -11.9625   21.3671 H   0  0  0  0  0  0
  -28.4877  -13.6312   21.8391 H   0  0  0  0  0  0
  -25.2708   -9.5681   22.4786 H   0  0  0  0  0  0
  -23.9957   -7.4625   22.7489 H   0  0  0  0  0  0
  -21.0812   -8.8746   19.8972 H   0  0  0  0  0  0
  -22.3633  -10.9660   19.6190 H   0  0  0  0  0  0
  -21.2012   -7.6129   23.9709 H   0  0  0  0  0  0
  -21.1492   -6.0507   25.9072 H   0  0  0  0  0  0
  -22.0603   -2.7599   23.2845 H   0  0  0  0  0  0
  -22.4053  -11.9965   22.4808 H   0  0  0  0  0  0
  -21.1096  -13.1372   22.2558 H   0  0  0  0  0  0
  -24.6502  -15.8282   20.4704 H   0  0  0  0  0  0
  -26.2602  -15.6049   20.0024 H   0  0  0  0  0  0
  -26.7125  -32.5563   23.1185 H   0  0  0  0  0  0
  -25.0184  -33.9798   25.0566 H   0  0  0  0  0  0
  -22.6808  -31.3162   21.4215 H   0  0  0  0  0  0
  -23.3756  -35.9658   23.3297 H   0  0  0  0  0  0
  -24.3586  -36.8913   22.2045 H   0  0  0  0  0  0
  -23.7251  -37.6533   23.6638 H   0  0  0  0  0  0
  -26.0324  -31.6102   20.5998 H   0  0  0  0  0  0
  -26.8112  -30.8895   21.9844 H   0  0  0  0  0  0
  -28.0874  -29.1297   21.1523 H   0  0  0  0  0  0
  -26.0436  -26.0078   18.9666 H   0  0  0  0  0  0
  -23.9744  -27.3046   19.0288 H   0  0  0  0  0  0
  -23.7242  -30.6201   19.4130 H   0  0  0  0  0  0
  -22.7254  -29.2685   19.8609 H   0  0  0  0  0  0
  -25.1291  -36.1976   25.0831 H   0  0  0  0  0  0
  -20.9979  -28.3259   24.1416 H   0  0  0  0  0  0
  -20.5778  -26.2281   23.3597 H   0  0  0  0  0  0
  -21.6639  -26.7470   22.1140 H   0  0  0  0  0  0
  -19.6697  -27.3093   20.6716 H   0  0  0  0  0  0
  -19.6886  -25.6234   21.1296 H   0  0  0  0  0  0
  -17.4223  -26.6704   21.3949 H   0  0  0  0  0  0
  -18.0240  -26.0063   22.8958 H   0  0  0  0  0  0
  -19.7925  -30.7223   24.2312 H   0  0  0  0  0  0
  -17.5005  -31.6216   24.5244 H   0  0  0  0  0  0
  -15.5345  -30.2993   23.7621 H   0  0  0  0  0  0
  -15.8659  -28.0862   22.6962 H   0  0  0  0  0  0
  -24.5996  -30.6946   25.7838 H   0  0  0  0  0  0
  -24.8921  -32.2815   26.4906 H   0  0  0  0  0  0
  -25.8159  -30.8889   27.0241 H   0  0  0  0  0  0
  -26.2834  -29.6784   24.1161 H   0  0  0  0  0  0
  -27.4127  -29.7262   25.4498 H   0  0  0  0  0  0
  -27.8654  -30.4346   23.9168 H   0  0  0  0  0  0
  -27.2728  -33.3592   26.2064 H   0  0  0  0  0  0
  -28.3903  -32.6788   25.0306 H   0  0  0  0  0  0
  -28.0731  -31.8379   26.5387 H   0  0  0  0  0  0
  -28.2606  -38.0120   24.7510 H   0  0  0  0  0  0
  -28.1065  -36.2647   24.6283 H   0  0  0  0  0  0
  -27.2297  -37.1471   25.8863 H   0  0  0  0  0  0
  -20.9250  -29.8833   21.6993 H   0  0  0  0  0  0
  -26.0178  -38.2871   24.1410 H   0  0  0  0  0  0
  -28.1631  -18.9751   24.0795 H   0  0  0  0  0  0
  -30.0467  -15.2167   23.2012 H   0  0  0  0  0  0
  -29.2735  -22.9767   21.1046 H   0  0  0  0  0  0
  -28.0746  -22.6758   19.8677 H   0  0  0  0  0  0
  -28.1091  -24.9868   21.8519 H   0  0  0  0  0  0
  -26.7374  -24.6614   20.8259 H   0  0  0  0  0  0
  -26.3393  -22.1770   21.4971 H   0  0  0  0  0  0
  -27.3016  -22.7929   22.8099 H   0  0  0  0  0  0
  -28.0561  -25.1708   18.7872 H   0  0  0  0  0  0
  -29.5334  -25.1267   19.6958 H   0  0  0  0  0  0
  -26.7102  -18.8702   19.9979 H   0  0  0  0  0  0
  -26.3291  -20.5430   20.1954 H   0  0  0  0  0  0
  -29.8842  -15.9613   19.5383 H   0  0  0  0  0  0
  -28.6623  -20.9135   22.8455 H   0  0  0  0  0  0
  1 25  1  0  0  0
  1 30  2  0  0  0
  1 83  1  0  0  0
  2  3  1  0  0  0
  2 25  1  0  0  0
  2 87  1  0  0  0
  2 88  1  0  0  0
  3  4  1  0  0  0
  3 89  1  0  0  0
  3 90  1  0  0  0
  4  5  1  0  0  0
  4 91  1  0  0  0
  4 92  1  0  0  0
  5  6  1  0  0  0
  5 26  1  0  0  0
  5 93  1  0  0  0
  6 25  1  0  0  0
  6 94  1  0  0  0
  6 95  1  0  0  0
  7  8  2  0  0  0
  7 26  1  0  0  0
  7 29  1  0  0  0
  8  9  1  0  0  0
  8 22  1  0  0  0
  9 10  1  0  0  0
  9 27  2  0  0  0
 10 11  2  0  0  0
 10 15  1  0  0  0
 11 12  1  0  0  0
 11 96  1  0  0  0
 12 13  2  0  0  0
 12 97  1  0  0  0
 13 14  1  0  0  0
 13 31  1  0  0  0
 14 15  2  0  0  0
 14 98  1  0  0  0
 15 99  1  0  0  0
 16 17  2  0  0  0
 16 21  1  0  0  0
 16 31  1  0  0  0
 17 18  1  0  0  0
 17100  1  0  0  0
 18 19  2  0  0  0
 18101  1  0  0  0
 19 20  1  0  0  0
 19 24  1  0  0  0
 20 21  2  0  0  0
 20102  1  0  0  0
 21 23  1  0  0  0
 22 28  1  0  0  0
 22 32  2  0  0  0
 26 27  1  0  0  0
 28103  1  0  0  0
 28104  1  0  0  0
 29105  1  0  0  0
 29106  1  0  0  0
 33 34  1  0  0  0
 33 66  1  0  0  0
 33 70  2  0  0  0
 34 36  1  0  0  0
 34 59  1  0  0  0
 34107  1  0  0  0
 35 44  2  0  0  0
 35 45  1  0  0  0
 35 68  1  0  0  0
 36 56  1  0  0  0
 36108  1  0  0  0
 37 39  1  0  0  0
 37 47  1  0  0  0
 37 66  1  0  0  0
 37109  1  0  0  0
 38 43  2  0  0  0
 38 46  1  0  0  0
 38 47  1  0  0  0
 39 64  1  0  0  0
 39 67  2  0  0  0
 40 52  1  0  0  0
 40 53  2  0  0  0
 40 58  1  0  0  0
 41110  1  0  0  0
 41111  1  0  0  0
 41112  1  0  0  0
 41 48  1  0  0  0
 42 43  1  0  0  0
 42 66  1  0  0  0
 42113  1  0  0  0
 42114  1  0  0  0
 43 44  1  0  0  0
 44115  1  0  0  0
 45 46  2  0  0  0
 45116  1  0  0  0
 46117  1  0  0  0
 47118  1  0  0  0
 47119  1  0  0  0
 48 56  1  0  0  0
 48 65  1  0  0  0
 48120  1  0  0  0
 49 50  1  0  0  0
 49 53  1  0  0  0
 49 64  1  0  0  0
 49121  1  0  0  0
 50 51  1  0  0  0
 50122  1  0  0  0
 50123  1  0  0  0
 51 52  1  0  0  0
 51124  1  0  0  0
 51125  1  0  0  0
 52126  1  0  0  0
 52127  1  0  0  0
 53 54  1  0  0  0
 54 55  2  0  0  0
 54128  1  0  0  0
 55 57  1  0  0  0
 55129  1  0  0  0
 56 69  2  0  0  0
 57 58  2  0  0  0
 57130  1  0  0  0
 58131  1  0  0  0
 59 60  1  0  0  0
 59 61  1  0  0  0
 59 62  1  0  0  0
 60132  1  0  0  0
 60133  1  0  0  0
 60134  1  0  0  0
 61135  1  0  0  0
 61136  1  0  0  0
 61137  1  0  0  0
 62138  1  0  0  0
 62139  1  0  0  0
 62140  1  0  0  0
 63 65  1  0  0  0
 63141  1  0  0  0
 63142  1  0  0  0
 63143  1  0  0  0
 64144  1  0  0  0
 65145  1  0  0  0
 68 81  1  0  0  0
 71 73  2  0  0  0
 71 75  1  0  0  0
 71146  1  0  0  0
 72 74  1  0  0  0
 72 75  2  0  0  0
 72147  1  0  0  0
 73 76  1  0  0  0
 73 77  1  0  0  0
 74 76  2  0  0  0
 74 83  1  0  0  0
 75 85  1  0  0  0
 76 86  1  0  0  0
 77 82  1  0  0  0
 77 84  2  0  0  0
 78 79  1  0  0  0
 78 80  1  0  0  0
 78148  1  0  0  0
 78149  1  0  0  0
 79 81  1  0  0  0
 79150  1  0  0  0
 79151  1  0  0  0
 80 84  1  0  0  0
 80152  1  0  0  0
 80153  1  0  0  0
 81154  1  0  0  0
 81155  1  0  0  0
 82156  1  0  0  0
 82157  1  0  0  0
 83158  1  0  0  0
 84159  1  0  0  0
M  CHG  1  84   1
M  ISO  4   1 100  68 101  81 101  83 100
M  END
> <chiral flag>
0

> <version>
0

> <s_m_source_file>
/data/baiqing/PycharmProjects/Reinvent-master-3.2/result/LINK_invent/BTK/process_docking_weight1_custom_product_contain_oxygen_bond_distance_aromatic_linkinvent_7_9_3/rearranged_h_0059.sdf

> <i_m_source_file_index>
6

> <r_mmod_Potential_Energy-OPLS-2005>
-294.804931640625

> <r_mmod_Stretch_Energy-OPLS-2005>
31.1967277526855

> <r_mmod_Bend_Energy-OPLS-2005>
106.384880065918

> <r_mmod_Torsional_Energy-OPLS-2005>
257.673767089844

> <r_mmod_Improper_Torsional_Energy-OPLS-2005>
20.1864910125732

> <r_mmod_Van_der_Waal_Energy-OPLS-2005>
153.30451965332

> <r_mmod_Electrostatic_Energy-OPLS-2005>
-447.519500732422

> <r_mmod_Solvation_Energy-OPLS-2005>
-431.461364746094

> <b_mmod_Minimization_Converged-OPLS-2005>
0

> <r_mmod_RMS_Derivative-OPLS-2005>
2.30188775062561

$$$$
6
                    3D
 Structure written by MMmdl.
162171  0  0  1  0            999 V2000
  -30.5347  -15.0066   20.4096 C   0  0  0  0  0  0
  -30.4405  -12.6303   19.4934 C   0  0  0  0  0  0
  -29.5215  -12.5336   18.2541 C   0  0  0  0  0  0
  -28.0571  -12.3107   18.6767 C   0  0  0  0  0  0
  -27.6246  -13.2539   19.8297 C   0  0  2  0  0  0
  -28.6696  -13.3173   20.9625 C   0  0  0  0  0  0
  -25.2443  -13.8223   20.5713 C   0  0  0  0  0  0
  -24.1772  -13.0437   20.9237 C   0  0  0  0  0  0
  -24.6398  -11.6925   20.8756 C   0  0  0  0  0  0
  -23.9083  -10.4292   21.0405 C   0  0  0  0  0  0
  -24.3630   -9.4205   21.9181 C   0  0  0  0  0  0
  -23.6299   -8.2244   22.0754 C   0  0  0  0  0  0
  -22.4279   -8.0283   21.3546 C   0  0  0  0  0  0
  -21.9919   -9.0257   20.4646 C   0  0  0  0  0  0
  -22.7254  -10.2133   20.3052 C   0  0  0  0  0  0
  -21.6856   -6.0732   22.5277 C   0  0  0  0  0  0
  -21.4018   -6.5635   23.8210 C   0  0  0  0  0  0
  -21.3661   -5.6788   24.9172 C   0  0  0  0  0  0
  -21.6045   -4.3051   24.7222 C   0  0  0  0  0  0
  -21.8820   -3.8142   23.4344 C   0  0  0  0  0  0
  -21.9195   -4.6959   22.3400 C   0  0  0  0  0  0
  -22.7788  -13.5201   21.1883 C   0  0  0  0  0  0
  -22.1661   -4.2143   21.0979 F   0  0  0  0  0  0
  -21.5632   -3.4536   25.7737 F   0  0  0  0  0  0
  -29.9331  -13.7451   20.3477 N   0  0  0  0  0  0
  -26.2870  -12.9465   20.3225 N   0  0  0  0  0  0
  -25.9331  -11.6590   20.5732 N   0  0  0  0  0  0
  -22.0439  -12.8193   22.0441 N   0  0  0  0  0  0
  -25.4082  -15.1956   20.4137 N   0  0  0  0  0  0
  -31.7525  -15.0344   20.1981 O   0  0  0  0  0  0
  -21.6645   -6.8878   21.4239 O   0  0  0  0  0  0
  -22.3466  -14.5496   20.6715 O   0  0  0  0  0  0
  -24.6497  -31.8402   23.1857 C   0  0  0  0  0  0
  -25.9249  -32.4672   23.8259 C   0  0  1  0  0  0
  -27.2096  -27.0811   20.1475 C   0  0  0  0  0  0
  -25.5977  -33.8479   24.2170 N   0  0  0  0  0  0
  -23.4541  -30.4613   21.5337 C   0  0  2  0  0  0
  -24.9002  -28.8823   20.1132 C   0  0  0  0  0  0
  -22.7595  -29.4539   22.4851 C   0  0  0  0  0  0
  -18.0311  -28.1401   22.8475 C   0  0  0  0  0  0
  -24.1493  -36.7242   23.2643 C   0  0  0  0  0  0
  -26.0163  -30.6968   21.3918 C   0  0  0  0  0  0
  -26.0841  -29.3046   20.7298 C   0  0  0  0  0  0
  -27.2391  -28.4241   20.7244 C   0  0  0  0  0  0
  -25.9870  -26.7740   19.5098 C   0  0  0  0  0  0
  -24.8675  -27.6307   19.4873 C   0  0  0  0  0  0
  -23.6820  -29.7927   20.1536 C   0  0  0  0  0  0
  -25.4128  -36.3015   24.0310 C   0  0  1  0  0  0
  -20.5927  -28.3734   23.1220 C   0  0  2  0  0  0
  -20.6797  -26.9434   22.5399 C   0  0  0  0  0  0
  -19.5769  -26.6382   21.5211 C   0  0  0  0  0  0
  -18.1951  -26.7937   22.1623 C   0  0  0  0  0  0
  -19.1569  -28.8885   23.2838 C   0  0  0  0  0  0
  -18.9484  -30.1480   23.8865 C   0  0  0  0  0  0
  -17.6480  -30.6594   24.0557 C   0  0  0  0  0  0
  -25.9085  -34.9393   23.5048 C   0  0  0  0  0  0
  -16.5370  -29.9085   23.6341 C   0  0  0  0  0  0
  -16.7295  -28.6505   23.0359 C   0  0  0  0  0  0
  -26.4544  -31.6557   25.0723 C   0  0  0  0  0  0
  -25.3711  -31.3762   26.1405 C   0  0  0  0  0  0
  -27.0422  -30.2944   24.6352 C   0  0  0  0  0  0
  -27.6060  -32.4338   25.7518 C   0  0  0  0  0  0
  -27.5574  -37.1780   24.8466 C   0  0  0  0  0  0
  -21.4283  -29.3054   22.3592 N   0  0  0  0  0  0
  -26.4285  -37.3736   23.9408 N   0  0  0  0  0  0
  -24.7273  -31.0214   22.0915 N   0  0  0  0  0  0
  -23.4215  -28.8085   23.3019 O   0  0  0  0  0  0
  -28.2583  -26.0681   20.2005 O   0  0  0  0  0  0
  -26.5674  -34.8899   22.4629 O   0  0  0  0  0  0
  -23.5604  -32.1302   23.7047 O   0  0  0  0  0  0
  -31.3052  -18.0321   21.2430 C   0  0  0  0  0  0
  -29.3146  -18.9613   20.2478 C   0  0  0  0  0  0
  -31.7466  -19.3506   21.4887 C   0  0  0  0  0  0
  -31.0179  -20.5048   21.0500 C   0  0  0  0  0  0
  -29.7194  -20.4027   20.4470 C   0  0  0  0  0  0
  -30.0971  -17.7278   20.5965 C   0  0  0  0  0  0
  -28.4122  -21.7023   18.7497 C   0  0  0  0  0  0
  -33.2286  -20.2152   23.3172 C   0  0  0  0  0  0
  -33.0054  -19.4216   22.2561 C   0  0  0  0  0  0
  -28.4440  -23.0006   17.9190 C   0  0  0  0  0  0
  -27.6753  -24.1812   18.5467 C   0  0  0  0  0  0
  -29.0528  -23.2313   20.5322 C   0  0  0  0  0  0
  -28.0413  -24.5040   20.0166 C   0  0  1  0  0  0
  -31.7309  -21.8524   21.1039 C   0  0  0  0  0  0
  -28.9810  -21.7200   19.9803 N   0  0  0  0  0  0
  -29.7597  -16.2195   20.4414 N   0  0  0  0  0  0
  -27.8998  -20.7003   18.2428 O   0  0  0  0  0  0
  -31.4704  -12.7973   19.1743 H   0  0  0  0  0  0
  -30.4493  -11.6905   20.0474 H   0  0  0  0  0  0
  -29.8505  -11.7255   17.5995 H   0  0  0  0  0  0
  -29.5986  -13.4522   17.6703 H   0  0  0  0  0  0
  -27.9638  -11.2724   18.9968 H   0  0  0  0  0  0
  -27.3921  -12.4263   17.8200 H   0  0  0  0  0  0
  -27.5750  -14.2479   19.3844 H   0  0  0  0  0  0
  -28.7753  -12.3519   21.4597 H   0  0  0  0  0  0
  -28.3609  -14.0315   21.7279 H   0  0  0  0  0  0
  -25.2774   -9.5681   22.4756 H   0  0  0  0  0  0
  -24.0005   -7.4637   22.7473 H   0  0  0  0  0  0
  -21.0850   -8.8777   19.8952 H   0  0  0  0  0  0
  -22.3711  -10.9672   19.6160 H   0  0  0  0  0  0
  -21.2010   -7.6143   23.9712 H   0  0  0  0  0  0
  -21.1485   -6.0518   25.9075 H   0  0  0  0  0  0
  -22.0598   -2.7603   23.2847 H   0  0  0  0  0  0
  -22.4066  -11.9870   22.4850 H   0  0  0  0  0  0
  -21.1046  -13.1202   22.2629 H   0  0  0  0  0  0
  -24.6350  -15.8427   20.5248 H   0  0  0  0  0  0
  -26.2460  -15.6407   20.0638 H   0  0  0  0  0  0
  -26.7315  -32.5252   23.0981 H   0  0  0  0  0  0
  -25.0093  -33.9586   25.0297 H   0  0  0  0  0  0
  -22.7593  -31.2896   21.3788 H   0  0  0  0  0  0
  -23.3762  -35.9566   23.3289 H   0  0  0  0  0  0
  -24.3572  -36.8895   22.2060 H   0  0  0  0  0  0
  -23.7244  -37.6429   23.6696 H   0  0  0  0  0  0
  -26.1814  -31.4503   20.6205 H   0  0  0  0  0  0
  -26.8829  -30.7435   22.0397 H   0  0  0  0  0  0
  -28.1415  -28.7475   21.2238 H   0  0  0  0  0  0
  -25.8371  -25.8220   19.0374 H   0  0  0  0  0  0
  -23.9620  -27.2966   18.9992 H   0  0  0  0  0  0
  -23.8266  -30.5682   19.4006 H   0  0  0  0  0  0
  -22.7936  -29.2423   19.8385 H   0  0  0  0  0  0
  -25.1319  -36.1831   25.0802 H   0  0  0  0  0  0
  -21.0016  -28.3326   24.1342 H   0  0  0  0  0  0
  -20.5691  -26.2351   23.3624 H   0  0  0  0  0  0
  -21.6662  -26.7438   22.1194 H   0  0  0  0  0  0
  -19.6931  -25.6284   21.1263 H   0  0  0  0  0  0
  -19.6700  -27.3171   20.6724 H   0  0  0  0  0  0
  -17.4218  -26.6679   21.4029 H   0  0  0  0  0  0
  -18.0354  -26.0084   22.9026 H   0  0  0  0  0  0
  -19.7958  -30.7309   24.2216 H   0  0  0  0  0  0
  -17.5030  -31.6270   24.5167 H   0  0  0  0  0  0
  -15.5369  -30.2975   23.7682 H   0  0  0  0  0  0
  -15.8697  -28.0811   22.7093 H   0  0  0  0  0  0
  -24.5900  -30.7102   25.7722 H   0  0  0  0  0  0
  -24.8890  -32.2947   26.4761 H   0  0  0  0  0  0
  -25.7977  -30.8979   27.0231 H   0  0  0  0  0  0
  -26.3059  -29.6651   24.1339 H   0  0  0  0  0  0
  -27.3988  -29.7265   25.4958 H   0  0  0  0  0  0
  -27.8987  -30.4165   23.9718 H   0  0  0  0  0  0
  -27.2642  -33.3663   26.2022 H   0  0  0  0  0  0
  -28.3911  -32.6860   25.0377 H   0  0  0  0  0  0
  -28.0685  -31.8512   26.5497 H   0  0  0  0  0  0
  -28.2581  -38.0087   24.7511 H   0  0  0  0  0  0
  -28.1081  -36.2614   24.6295 H   0  0  0  0  0  0
  -27.2290  -37.1428   25.8869 H   0  0  0  0  0  0
  -20.9507  -29.8760   21.6756 H   0  0  0  0  0  0
  -26.0144  -38.2801   24.1409 H   0  0  0  0  0  0
  -31.9257  -17.2203   21.5956 H   0  0  0  0  0  0
  -28.3562  -18.7871   19.7813 H   0  0  0  0  0  0
  -34.1839  -20.2133   23.8226 H   0  0  0  0  0  0
  -32.4628  -20.8752   23.6991 H   0  0  0  0  0  0
  -33.8076  -18.7799   21.9163 H   0  0  0  0  0  0
  -28.0457  -22.7972   16.9244 H   0  0  0  0  0  0
  -29.4881  -23.2783   17.7689 H   0  0  0  0  0  0
  -26.6150  -23.9352   18.4801 H   0  0  0  0  0  0
  -27.8254  -25.0640   17.9252 H   0  0  0  0  0  0
  -29.0153  -23.1832   21.6201 H   0  0  0  0  0  0
  -30.0377  -23.6168   20.2907 H   0  0  0  0  0  0
  -27.1281  -24.3280   20.5872 H   0  0  0  0  0  0
  -32.8007  -21.7761   21.2844 H   0  0  0  0  0  0
  -31.3142  -22.4951   21.8783 H   0  0  0  0  0  0
  -31.6786  -22.3354   20.1301 H   0  0  0  0  0  0
  -28.7709  -16.0325   20.3754 H   0  0  0  0  0  0
  1 25  1  0  0  0
  1 30  2  0  0  0
  1 86  1  0  0  0
  2  3  1  0  0  0
  2 25  1  0  0  0
  2 88  1  0  0  0
  2 89  1  0  0  0
  3  4  1  0  0  0
  3 90  1  0  0  0
  3 91  1  0  0  0
  4  5  1  0  0  0
  4 92  1  0  0  0
  4 93  1  0  0  0
  5  6  1  0  0  0
  5 26  1  0  0  0
  5 94  1  0  0  0
  6 25  1  0  0  0
  6 95  1  0  0  0
  6 96  1  0  0  0
  7  8  2  0  0  0
  7 26  1  0  0  0
  7 29  1  0  0  0
  8  9  1  0  0  0
  8 22  1  0  0  0
  9 10  1  0  0  0
  9 27  2  0  0  0
 10 11  2  0  0  0
 10 15  1  0  0  0
 11 12  1  0  0  0
 11 97  1  0  0  0
 12 13  2  0  0  0
 12 98  1  0  0  0
 13 14  1  0  0  0
 13 31  1  0  0  0
 14 15  2  0  0  0
 14 99  1  0  0  0
 15100  1  0  0  0
 16 17  2  0  0  0
 16 21  1  0  0  0
 16 31  1  0  0  0
 17 18  1  0  0  0
 17101  1  0  0  0
 18 19  2  0  0  0
 18102  1  0  0  0
 19 20  1  0  0  0
 19 24  1  0  0  0
 20 21  2  0  0  0
 20103  1  0  0  0
 21 23  1  0  0  0
 22 28  1  0  0  0
 22 32  2  0  0  0
 26 27  1  0  0  0
 28104  1  0  0  0
 28105  1  0  0  0
 29106  1  0  0  0
 29107  1  0  0  0
 33 34  1  0  0  0
 33 66  1  0  0  0
 33 70  2  0  0  0
 34 36  1  0  0  0
 34 59  1  0  0  0
 34108  1  0  0  0
 35 44  2  0  0  0
 35 45  1  0  0  0
 35 68  1  0  0  0
 36 56  1  0  0  0
 36109  1  0  0  0
 37 39  1  0  0  0
 37 47  1  0  0  0
 37 66  1  0  0  0
 37110  1  0  0  0
 38 43  2  0  0  0
 38 46  1  0  0  0
 38 47  1  0  0  0
 39 64  1  0  0  0
 39 67  2  0  0  0
 40 52  1  0  0  0
 40 53  2  0  0  0
 40 58  1  0  0  0
 41111  1  0  0  0
 41112  1  0  0  0
 41113  1  0  0  0
 41 48  1  0  0  0
 42 43  1  0  0  0
 42 66  1  0  0  0
 42114  1  0  0  0
 42115  1  0  0  0
 43 44  1  0  0  0
 44116  1  0  0  0
 45 46  2  0  0  0
 45117  1  0  0  0
 46118  1  0  0  0
 47119  1  0  0  0
 47120  1  0  0  0
 48 56  1  0  0  0
 48 65  1  0  0  0
 48121  1  0  0  0
 49 50  1  0  0  0
 49 53  1  0  0  0
 49 64  1  0  0  0
 49122  1  0  0  0
 50 51  1  0  0  0
 50123  1  0  0  0
 50124  1  0  0  0
 51 52  1  0  0  0
 51125  1  0  0  0
 51126  1  0  0  0
 52127  1  0  0  0
 52128  1  0  0  0
 53 54  1  0  0  0
 54 55  2  0  0  0
 54129  1  0  0  0
 55 57  1  0  0  0
 55130  1  0  0  0
 56 69  2  0  0  0
 57 58  2  0  0  0
 57131  1  0  0  0
 58132  1  0  0  0
 59 60  1  0  0  0
 59 61  1  0  0  0
 59 62  1  0  0  0
 60133  1  0  0  0
 60134  1  0  0  0
 60135  1  0  0  0
 61136  1  0  0  0
 61137  1  0  0  0
 61138  1  0  0  0
 62139  1  0  0  0
 62140  1  0  0  0
 62141  1  0  0  0
 63 65  1  0  0  0
 63142  1  0  0  0
 63143  1  0  0  0
 63144  1  0  0  0
 64145  1  0  0  0
 65146  1  0  0  0
 68 83  1  0  0  0
 71 73  2  0  0  0
 71 76  1  0  0  0
 71147  1  0  0  0
 72 75  1  0  0  0
 72 76  2  0  0  0
 72148  1  0  0  0
 73 74  1  0  0  0
 73 79  1  0  0  0
 74 75  2  0  0  0
 74 84  1  0  0  0
 75 85  1  0  0  0
 76 86  1  0  0  0
 77 80  1  0  0  0
 77 85  1  0  0  0
 77 87  2  0  0  0
 78 79  2  0  0  0
 78149  1  0  0  0
 78150  1  0  0  0
 79151  1  0  0  0
 80 81  1  0  0  0
 80152  1  0  0  0
 80153  1  0  0  0
 81 83  1  0  0  0
 81154  1  0  0  0
 81155  1  0  0  0
 82 83  1  0  0  0
 82 85  1  0  0  0
 82156  1  0  0  0
 82157  1  0  0  0
 83158  1  0  0  0
 84159  1  0  0  0
 84160  1  0  0  0
 84161  1  0  0  0
 86162  1  0  0  0
M  ISO  4   1 100  68 101  83 101  86 100
M  END
> <chiral flag>
0

> <version>
0

> <s_m_source_file>
/data/baiqing/PycharmProjects/Reinvent-master-3.2/result/LINK_invent/BTK/process_docking_weight1_custom_product_contain_oxygen_bond_distance_aromatic_linkinvent_7_9_3/rearranged_h_0059.sdf

> <i_m_source_file_index>
7

> <r_mmod_Potential_Energy-OPLS-2005>
746.254272460938

> <r_mmod_Stretch_Energy-OPLS-2005>
342.643981933594

> <r_mmod_Bend_Energy-OPLS-2005>
280.092803955078

> <r_mmod_Torsional_Energy-OPLS-2005>
316.227874755859

> <r_mmod_Improper_Torsional_Energy-OPLS-2005>
7.47996377944946

> <r_mmod_Van_der_Waal_Energy-OPLS-2005>
164.822113037109

> <r_mmod_Electrostatic_Energy-OPLS-2005>
-381.834594726562

> <r_mmod_Solvation_Energy-OPLS-2005>
-221.165878295898

> <b_mmod_Minimization_Converged-OPLS-2005>
0

> <r_mmod_RMS_Derivative-OPLS-2005>
0.46861943602562

$$$$
7
                    3D
 Structure written by MMmdl.
156164  0  0  1  0            999 V2000
  -30.6862  -14.5393   20.5316 C   0  0  0  0  0  0
  -30.4289  -12.3352   19.4465 C   0  0  0  0  0  0
  -29.5065  -12.5062   18.2209 C   0  0  0  0  0  0
  -28.0253  -12.3653   18.6256 C   0  0  0  0  0  0
  -27.6600  -13.2134   19.8735 C   0  0  2  0  0  0
  -28.7043  -13.0391   21.0015 C   0  0  0  0  0  0
  -25.2592  -13.8173   20.5666 C   0  0  0  0  0  0
  -24.1848  -13.0437   20.9145 C   0  0  0  0  0  0
  -24.6410  -11.6904   20.8716 C   0  0  0  0  0  0
  -23.9072  -10.4290   21.0380 C   0  0  0  0  0  0
  -24.3619   -9.4210   21.9162 C   0  0  0  0  0  0
  -23.6308   -8.2244   22.0731 C   0  0  0  0  0  0
  -22.4298   -8.0281   21.3514 C   0  0  0  0  0  0
  -21.9917   -9.0261   20.4627 C   0  0  0  0  0  0
  -22.7240  -10.2138   20.3032 C   0  0  0  0  0  0
  -21.6855   -6.0743   22.5276 C   0  0  0  0  0  0
  -21.4018   -6.5639   23.8217 C   0  0  0  0  0  0
  -21.3647   -5.6777   24.9172 C   0  0  0  0  0  0
  -21.6050   -4.3044   24.7209 C   0  0  0  0  0  0
  -21.8823   -3.8143   23.4330 C   0  0  0  0  0  0
  -21.9194   -4.6966   22.3388 C   0  0  0  0  0  0
  -22.7860  -13.5218   21.1835 C   0  0  0  0  0  0
  -22.1664   -4.2148   21.0970 F   0  0  0  0  0  0
  -21.5624   -3.4534   25.7725 F   0  0  0  0  0  0
  -30.0343  -13.3428   20.4477 N   0  0  0  0  0  0
  -26.3029  -12.9342   20.3353 N   0  0  0  0  0  0
  -25.9345  -11.6491   20.5752 N   0  0  0  0  0  0
  -22.0496  -12.8219   22.0397 N   0  0  0  0  0  0
  -25.4342  -15.1903   20.4090 N   0  0  0  0  0  0
  -31.8242  -14.7034   20.0874 O   0  0  0  0  0  0
  -21.6643   -6.8891   21.4240 O   0  0  0  0  0  0
  -22.3540  -14.5521   20.6691 O   0  0  0  0  0  0
  -24.6187  -31.8641   23.2095 C   0  0  0  0  0  0
  -25.9067  -32.4791   23.8389 C   0  0  1  0  0  0
  -27.2258  -27.3753   20.1138 C   0  0  0  0  0  0
  -25.5924  -33.8592   24.2312 N   0  0  0  0  0  0
  -23.4086  -30.4900   21.5490 C   0  0  2  0  0  0
  -24.8558  -28.9542   20.1094 C   0  0  0  0  0  0
  -22.7426  -29.4646   22.4959 C   0  0  0  0  0  0
  -18.0276  -28.1369   22.8481 C   0  0  0  0  0  0
  -24.1495  -36.7307   23.2641 C   0  0  0  0  0  0
  -25.9446  -30.8098   21.3765 C   0  0  0  0  0  0
  -26.0178  -29.4417   20.7208 C   0  0  0  0  0  0
  -27.2021  -28.6583   20.7241 C   0  0  0  0  0  0
  -26.0513  -26.9398   19.4552 C   0  0  0  0  0  0
  -24.8707  -27.7044   19.4710 C   0  0  0  0  0  0
  -23.6190  -29.8247   20.1627 C   0  0  0  0  0  0
  -25.4116  -36.3091   24.0331 C   0  0  1  0  0  0
  -20.5871  -28.3665   23.1294 C   0  0  2  0  0  0
  -20.6766  -26.9392   22.5410 C   0  0  0  0  0  0
  -19.5752  -26.6369   21.5203 C   0  0  0  0  0  0
  -18.1929  -26.7919   22.1613 C   0  0  0  0  0  0
  -19.1529  -28.8833   23.2888 C   0  0  0  0  0  0
  -18.9460  -30.1445   23.8885 C   0  0  0  0  0  0
  -17.6461  -30.6576   24.0556 C   0  0  0  0  0  0
  -25.9042  -34.9455   23.5118 C   0  0  0  0  0  0
  -16.5352  -29.9070   23.6335 C   0  0  0  0  0  0
  -16.7263  -28.6495   23.0343 C   0  0  0  0  0  0
  -26.4481  -31.6588   25.0740 C   0  0  0  0  0  0
  -25.3749  -31.3713   26.1492 C   0  0  0  0  0  0
  -27.0316  -30.3017   24.6170 C   0  0  0  0  0  0
  -27.6042  -32.4324   25.7505 C   0  0  0  0  0  0
  -27.5585  -37.1807   24.8460 C   0  0  0  0  0  0
  -21.4151  -29.3032   22.3691 N   0  0  0  0  0  0
  -26.4297  -37.3782   23.9407 N   0  0  0  0  0  0
  -24.6750  -31.0712   22.1010 N   0  0  0  0  0  0
  -23.4183  -28.8190   23.3013 O   0  0  0  0  0  0
  -28.3682  -26.5787   20.1561 O   0  0  0  0  0  0
  -26.5595  -34.8904   22.4672 O   0  0  0  0  0  0
  -23.5368  -32.1418   23.7460 O   0  0  0  0  0  0
  -28.9727  -18.0087   18.3261 C   0  0  0  0  0  0
  -29.1500  -16.8245   19.0580 C   0  0  0  0  0  0
  -30.2871  -18.0899   20.7993 C   0  0  0  0  0  0
  -29.4920  -19.2384   18.7838 C   0  0  0  0  0  0
  -29.8269  -16.8365   20.2930 C   0  0  0  0  0  0
  -30.1431  -19.3038   20.0489 C   0  0  0  0  0  0
  -29.2573  -24.3244   20.5255 C   0  0  0  0  0  0
  -28.2435  -25.1889   20.2536 C   0  0  0  0  0  0
  -29.0562  -22.8627   20.5265 C   0  0  0  0  0  0
  -29.3800  -20.4068   17.8185 C   0  0  0  0  0  0
  -31.8152  -20.5093   21.9301 N   0  0  0  0  0  0
  -29.9667  -15.5891   20.9975 N   0  0  0  0  0  0
  -30.0194  -22.0953   21.2086 N   0  0  0  0  0  0
  -28.1035  -22.2963   19.9868 O   0  0  0  0  0  0
  -31.8040  -21.3741   19.4521 O   0  0  0  0  0  0
  -31.0622  -20.8159   20.5947 S   0  0  2  0  0  0
  -31.4754  -12.4307   19.1504 H   0  0  0  0  0  0
  -30.3316  -11.3319   19.8631 H   0  0  0  0  0  0
  -29.7586  -11.7722   17.4534 H   0  0  0  0  0  0
  -29.6731  -13.4855   17.7700 H   0  0  0  0  0  0
  -27.8358  -11.3107   18.8278 H   0  0  0  0  0  0
  -27.3806  -12.6322   17.7884 H   0  0  0  0  0  0
  -27.6830  -14.2535   19.5593 H   0  0  0  0  0  0
  -28.6890  -12.0164   21.3804 H   0  0  0  0  0  0
  -28.4607  -13.6756   21.8527 H   0  0  0  0  0  0
  -25.2754   -9.5708   22.4739 H   0  0  0  0  0  0
  -24.0014   -7.4644   22.7458 H   0  0  0  0  0  0
  -21.0840   -8.8804   19.8944 H   0  0  0  0  0  0
  -22.3706  -10.9688   19.6155 H   0  0  0  0  0  0
  -21.2027   -7.6148   23.9720 H   0  0  0  0  0  0
  -21.1455   -6.0500   25.9074 H   0  0  0  0  0  0
  -22.0618   -2.7609   23.2817 H   0  0  0  0  0  0
  -22.4085  -11.9887   22.4800 H   0  0  0  0  0  0
  -21.1113  -13.1271   22.2585 H   0  0  0  0  0  0
  -24.6780  -15.8539   20.5304 H   0  0  0  0  0  0
  -26.2995  -15.6292   20.1204 H   0  0  0  0  0  0
  -26.7125  -32.5472   23.1131 H   0  0  0  0  0  0
  -25.0098  -33.9749   25.0477 H   0  0  0  0  0  0
  -22.6994  -31.3087   21.4089 H   0  0  0  0  0  0
  -23.3744  -35.9653   23.3304 H   0  0  0  0  0  0
  -24.3602  -36.8922   22.2058 H   0  0  0  0  0  0
  -23.7245  -37.6510   23.6656 H   0  0  0  0  0  0
  -26.0758  -31.5767   20.6118 H   0  0  0  0  0  0
  -26.8253  -30.8534   22.0058 H   0  0  0  0  0  0
  -28.0931  -29.0256   21.2137 H   0  0  0  0  0  0
  -26.0252  -26.0025   18.9209 H   0  0  0  0  0  0
  -23.9854  -27.3292   18.9770 H   0  0  0  0  0  0
  -23.7245  -30.5993   19.4018 H   0  0  0  0  0  0
  -22.7416  -29.2445   19.8696 H   0  0  0  0  0  0
  -25.1290  -36.1958   25.0820 H   0  0  0  0  0  0
  -20.9978  -28.3233   24.1412 H   0  0  0  0  0  0
  -20.5670  -26.2268   23.3602 H   0  0  0  0  0  0
  -21.6638  -26.7423   22.1209 H   0  0  0  0  0  0
  -19.6914  -25.6280   21.1233 H   0  0  0  0  0  0
  -19.6706  -27.3176   20.6734 H   0  0  0  0  0  0
  -17.4207  -26.6661   21.4007 H   0  0  0  0  0  0
  -18.0338  -26.0059   22.9012 H   0  0  0  0  0  0
  -19.7939  -30.7261   24.2245 H   0  0  0  0  0  0
  -17.5018  -31.6264   24.5149 H   0  0  0  0  0  0
  -15.5350  -30.2965   23.7673 H   0  0  0  0  0  0
  -15.8669  -28.0811   22.7051 H   0  0  0  0  0  0
  -24.5913  -30.7060   25.7850 H   0  0  0  0  0  0
  -24.8956  -32.2871   26.4954 H   0  0  0  0  0  0
  -25.8117  -30.8880   27.0242 H   0  0  0  0  0  0
  -26.2877  -29.6773   24.1202 H   0  0  0  0  0  0
  -27.4023  -29.7265   25.4667 H   0  0  0  0  0  0
  -27.8749  -30.4305   23.9381 H   0  0  0  0  0  0
  -27.2638  -33.3607   26.2107 H   0  0  0  0  0  0
  -28.3844  -32.6909   25.0335 H   0  0  0  0  0  0
  -28.0719  -31.8436   26.5409 H   0  0  0  0  0  0
  -28.2590  -38.0115   24.7509 H   0  0  0  0  0  0
  -28.1086  -36.2638   24.6279 H   0  0  0  0  0  0
  -27.2306  -37.1455   25.8865 H   0  0  0  0  0  0
  -20.9310  -29.8753   21.6909 H   0  0  0  0  0  0
  -26.0178  -38.2859   24.1399 H   0  0  0  0  0  0
  -28.4717  -17.9521   17.3696 H   0  0  0  0  0  0
  -28.7829  -15.9012   18.6351 H   0  0  0  0  0  0
  -30.8079  -18.1047   21.7424 H   0  0  0  0  0  0
  -30.2438  -24.7176   20.7214 H   0  0  0  0  0  0
  -27.2432  -24.8191   20.0888 H   0  0  0  0  0  0
  -28.3654  -20.4821   17.4253 H   0  0  0  0  0  0
  -30.0546  -20.2484   16.9775 H   0  0  0  0  0  0
  -29.6333  -21.3684   18.2481 H   0  0  0  0  0  0
  -32.5794  -19.8332   21.8061 H   0  0  0  0  0  0
  -29.1283  -15.2940   21.4757 H   0  0  0  0  0  0
  -30.5991  -22.6547   21.8345 H   0  0  0  0  0  0
  1 25  1  0  0  0
  1 30  2  0  0  0
  1 82  1  0  0  0
  2  3  1  0  0  0
  2 25  1  0  0  0
  2 87  1  0  0  0
  2 88  1  0  0  0
  3  4  1  0  0  0
  3 89  1  0  0  0
  3 90  1  0  0  0
  4  5  1  0  0  0
  4 91  1  0  0  0
  4 92  1  0  0  0
  5  6  1  0  0  0
  5 26  1  0  0  0
  5 93  1  0  0  0
  6 25  1  0  0  0
  6 94  1  0  0  0
  6 95  1  0  0  0
  7  8  2  0  0  0
  7 26  1  0  0  0
  7 29  1  0  0  0
  8  9  1  0  0  0
  8 22  1  0  0  0
  9 10  1  0  0  0
  9 27  2  0  0  0
 10 11  2  0  0  0
 10 15  1  0  0  0
 11 12  1  0  0  0
 11 96  1  0  0  0
 12 13  2  0  0  0
 12 97  1  0  0  0
 13 14  1  0  0  0
 13 31  1  0  0  0
 14 15  2  0  0  0
 14 98  1  0  0  0
 15 99  1  0  0  0
 16 17  2  0  0  0
 16 21  1  0  0  0
 16 31  1  0  0  0
 17 18  1  0  0  0
 17100  1  0  0  0
 18 19  2  0  0  0
 18101  1  0  0  0
 19 20  1  0  0  0
 19 24  1  0  0  0
 20 21  2  0  0  0
 20102  1  0  0  0
 21 23  1  0  0  0
 22 28  1  0  0  0
 22 32  2  0  0  0
 26 27  1  0  0  0
 28103  1  0  0  0
 28104  1  0  0  0
 29105  1  0  0  0
 29106  1  0  0  0
 33 34  1  0  0  0
 33 66  1  0  0  0
 33 70  2  0  0  0
 34 36  1  0  0  0
 34 59  1  0  0  0
 34107  1  0  0  0
 35 44  2  0  0  0
 35 45  1  0  0  0
 35 68  1  0  0  0
 36 56  1  0  0  0
 36108  1  0  0  0
 37 39  1  0  0  0
 37 47  1  0  0  0
 37 66  1  0  0  0
 37109  1  0  0  0
 38 43  2  0  0  0
 38 46  1  0  0  0
 38 47  1  0  0  0
 39 64  1  0  0  0
 39 67  2  0  0  0
 40 52  1  0  0  0
 40 53  2  0  0  0
 40 58  1  0  0  0
 41110  1  0  0  0
 41111  1  0  0  0
 41112  1  0  0  0
 41 48  1  0  0  0
 42 43  1  0  0  0
 42 66  1  0  0  0
 42113  1  0  0  0
 42114  1  0  0  0
 43 44  1  0  0  0
 44115  1  0  0  0
 45 46  2  0  0  0
 45116  1  0  0  0
 46117  1  0  0  0
 47118  1  0  0  0
 47119  1  0  0  0
 48 56  1  0  0  0
 48 65  1  0  0  0
 48120  1  0  0  0
 49 50  1  0  0  0
 49 53  1  0  0  0
 49 64  1  0  0  0
 49121  1  0  0  0
 50 51  1  0  0  0
 50122  1  0  0  0
 50123  1  0  0  0
 51 52  1  0  0  0
 51124  1  0  0  0
 51125  1  0  0  0
 52126  1  0  0  0
 52127  1  0  0  0
 53 54  1  0  0  0
 54 55  2  0  0  0
 54128  1  0  0  0
 55 57  1  0  0  0
 55129  1  0  0  0
 56 69  2  0  0  0
 57 58  2  0  0  0
 57130  1  0  0  0
 58131  1  0  0  0
 59 60  1  0  0  0
 59 61  1  0  0  0
 59 62  1  0  0  0
 60132  1  0  0  0
 60133  1  0  0  0
 60134  1  0  0  0
 61135  1  0  0  0
 61136  1  0  0  0
 61137  1  0  0  0
 62138  1  0  0  0
 62139  1  0  0  0
 62140  1  0  0  0
 63 65  1  0  0  0
 63141  1  0  0  0
 63142  1  0  0  0
 63143  1  0  0  0
 64144  1  0  0  0
 65145  1  0  0  0
 68 78  1  0  0  0
 71 72  2  0  0  0
 71 74  1  0  0  0
 71146  1  0  0  0
 72 75  1  0  0  0
 72147  1  0  0  0
 73 75  2  0  0  0
 73 76  1  0  0  0
 73148  1  0  0  0
 74 76  2  0  0  0
 74 80  1  0  0  0
 75 82  1  0  0  0
 76 86  1  0  0  0
 77 78  2  0  0  0
 77 79  1  0  0  0
 77149  1  0  0  0
 78150  1  0  0  0
 79 83  1  0  0  0
 79 84  2  0  0  0
 80151  1  0  0  0
 80152  1  0  0  0
 80153  1  0  0  0
 81 86  2  0  0  0
 81154  1  0  0  0
 82155  1  0  0  0
 83156  1  0  0  0
 83 86  1  0  0  0
 85 86  2  0  0  0
M  ISO  4   1 100  68 101  78 101  82 100
M  END
> <chiral flag>
0

> <version>
0

> <s_m_source_file>
/data/baiqing/PycharmProjects/Reinvent-master-3.2/result/LINK_invent/BTK/process_docking_weight1_custom_product_contain_oxygen_bond_distance_aromatic_linkinvent_7_9_3/rearranged_h_0059.sdf

> <i_m_source_file_index>
8

> <r_mmod_Potential_Energy-OPLS-2005>
-119.433563232422

> <r_mmod_Stretch_Energy-OPLS-2005>
53.7422866821289

> <r_mmod_Bend_Energy-OPLS-2005>
131.212326049805

> <r_mmod_Torsional_Energy-OPLS-2005>
273.535247802734

> <r_mmod_Improper_Torsional_Energy-OPLS-2005>
11.5482053756714

> <r_mmod_Van_der_Waal_Energy-OPLS-2005>
144.451370239258

> <r_mmod_Electrostatic_Energy-OPLS-2005>
-507.965667724609

> <r_mmod_Solvation_Energy-OPLS-2005>
-251.192794799805

> <b_mmod_Minimization_Converged-OPLS-2005>
0

> <r_mmod_RMS_Derivative-OPLS-2005>
2.295490026474

$$$$
8
                    3D
 Structure written by MMmdl.
157165  0  0  1  0            999 V2000
  -30.6782  -14.5792   20.5322 C   0  0  0  0  0  0
  -30.4198  -12.3667   19.4407 C   0  0  0  0  0  0
  -29.4940  -12.4885   18.2123 C   0  0  0  0  0  0
  -28.0184  -12.3388   18.6307 C   0  0  0  0  0  0
  -27.6486  -13.2154   19.8562 C   0  0  2  0  0  0
  -28.6926  -13.0792   20.9865 C   0  0  0  0  0  0
  -25.2554  -13.8193   20.5690 C   0  0  0  0  0  0
  -24.1819  -13.0454   20.9204 C   0  0  0  0  0  0
  -24.6397  -11.6928   20.8763 C   0  0  0  0  0  0
  -23.9068  -10.4305   21.0423 C   0  0  0  0  0  0
  -24.3617   -9.4226   21.9203 C   0  0  0  0  0  0
  -23.6293   -8.2251   22.0762 C   0  0  0  0  0  0
  -22.4274   -8.0294   21.3556 C   0  0  0  0  0  0
  -21.9922   -9.0269   20.4645 C   0  0  0  0  0  0
  -22.7245  -10.2160   20.3071 C   0  0  0  0  0  0
  -21.6852   -6.0766   22.5281 C   0  0  0  0  0  0
  -21.4000   -6.5656   23.8215 C   0  0  0  0  0  0
  -21.3654   -5.6803   24.9175 C   0  0  0  0  0  0
  -21.6040   -4.3065   24.7217 C   0  0  0  0  0  0
  -21.8823   -3.8168   23.4333 C   0  0  0  0  0  0
  -21.9185   -4.6985   22.3395 C   0  0  0  0  0  0
  -22.7850  -13.5258   21.1859 C   0  0  0  0  0  0
  -22.1665   -4.2172   21.0972 F   0  0  0  0  0  0
  -21.5628   -3.4539   25.7733 F   0  0  0  0  0  0
  -30.0054  -13.3964   20.4131 N   0  0  0  0  0  0
  -26.2961  -12.9359   20.3291 N   0  0  0  0  0  0
  -25.9309  -11.6519   20.5753 N   0  0  0  0  0  0
  -22.0469  -12.8248   22.0399 N   0  0  0  0  0  0
  -25.4275  -15.1903   20.4076 N   0  0  0  0  0  0
  -31.8421  -14.6875   20.1352 O   0  0  0  0  0  0
  -21.6635   -6.8901   21.4245 O   0  0  0  0  0  0
  -22.3543  -14.5569   20.6707 O   0  0  0  0  0  0
  -24.6218  -31.8646   23.2081 C   0  0  0  0  0  0
  -25.9080  -32.4817   23.8395 C   0  0  1  0  0  0
  -27.2286  -27.3624   20.0932 C   0  0  0  0  0  0
  -25.5886  -33.8604   24.2329 N   0  0  0  0  0  0
  -23.4138  -30.4891   21.5452 C   0  0  2  0  0  0
  -24.8621  -28.9464   20.1124 C   0  0  0  0  0  0
  -22.7464  -29.4637   22.4922 C   0  0  0  0  0  0
  -18.0287  -28.1355   22.8454 C   0  0  0  0  0  0
  -24.1503  -36.7326   23.2633 C   0  0  0  0  0  0
  -25.9518  -30.8052   21.3751 C   0  0  0  0  0  0
  -26.0267  -29.4344   20.7168 C   0  0  0  0  0  0
  -27.2092  -28.6464   20.7089 C   0  0  0  0  0  0
  -26.0361  -26.9049   19.4883 C   0  0  0  0  0  0
  -24.8653  -27.6843   19.4960 C   0  0  0  0  0  0
  -23.6312  -29.8266   20.1586 C   0  0  0  0  0  0
  -25.4120  -36.3113   24.0332 C   0  0  1  0  0  0
  -20.5881  -28.3659   23.1288 C   0  0  2  0  0  0
  -20.6778  -26.9378   22.5395 C   0  0  0  0  0  0
  -19.5755  -26.6365   21.5173 C   0  0  0  0  0  0
  -18.1934  -26.7890   22.1593 C   0  0  0  0  0  0
  -19.1534  -28.8817   23.2877 C   0  0  0  0  0  0
  -18.9464  -30.1416   23.8905 C   0  0  0  0  0  0
  -17.6471  -30.6573   24.0530 C   0  0  0  0  0  0
  -25.9026  -34.9467   23.5141 C   0  0  0  0  0  0
  -16.5355  -29.9072   23.6294 C   0  0  0  0  0  0
  -16.7273  -28.6484   23.0319 C   0  0  0  0  0  0
  -26.4478  -31.6610   25.0752 C   0  0  0  0  0  0
  -25.3696  -31.3685   26.1469 C   0  0  0  0  0  0
  -27.0318  -30.3039   24.6171 C   0  0  0  0  0  0
  -27.6071  -32.4316   25.7512 C   0  0  0  0  0  0
  -27.5609  -37.1822   24.8459 C   0  0  0  0  0  0
  -21.4172  -29.3054   22.3708 N   0  0  0  0  0  0
  -26.4323  -37.3789   23.9398 N   0  0  0  0  0  0
  -24.6806  -31.0708   22.1000 N   0  0  0  0  0  0
  -23.4240  -28.8160   23.2947 O   0  0  0  0  0  0
  -28.3817  -26.5773   20.1342 O   0  0  0  0  0  0
  -26.5618  -34.8922   22.4724 O   0  0  0  0  0  0
  -23.5387  -32.1400   23.7435 O   0  0  0  0  0  0
  -32.2209  -18.3211   22.3502 C   0  0  0  0  0  0
  -31.7044  -17.0890   21.9255 C   0  0  0  0  0  0
  -29.7412  -18.2297   21.0233 C   0  0  0  0  0  0
  -31.5162  -19.5172   22.1234 C   0  0  0  0  0  0
  -30.4660  -17.0036   21.2504 C   0  0  0  0  0  0
  -30.2630  -19.5013   21.4528 C   0  0  0  0  0  0
  -29.1768  -21.5413   20.3495 C   0  0  0  0  0  0
  -32.1343  -20.8162   22.6279 C   0  0  0  0  0  0
  -29.0945  -23.0921   20.5994 C   0  0  0  0  0  0
  -28.0546  -23.9680   19.7997 C   0  0  0  0  0  0
  -28.5239  -25.3898   19.2944 C   0  0  0  0  0  0
  -29.5683  -20.7757   21.3990 N   0  0  0  0  0  0
  -29.9577  -15.6846   20.8982 N   0  0  0  0  0  0
  -28.8930  -21.0632   19.2483 O   0  0  0  0  0  0
  -31.4629  -12.4695   19.1354 H   0  0  0  0  0  0
  -30.3376  -11.3743   19.8862 H   0  0  0  0  0  0
  -29.7459  -11.7263   17.4745 H   0  0  0  0  0  0
  -29.6442  -13.4506   17.7227 H   0  0  0  0  0  0
  -27.8509  -11.2872   18.8667 H   0  0  0  0  0  0
  -27.3614  -12.5656   17.7905 H   0  0  0  0  0  0
  -27.6663  -14.2505   19.5100 H   0  0  0  0  0  0
  -28.6938  -12.0646   21.3852 H   0  0  0  0  0  0
  -28.4463  -13.7307   21.8264 H   0  0  0  0  0  0
  -25.2762   -9.5699   22.4790 H   0  0  0  0  0  0
  -23.9995   -7.4648   22.7494 H   0  0  0  0  0  0
  -21.0849   -8.8801   19.8941 H   0  0  0  0  0  0
  -22.3706  -10.9713   19.6187 H   0  0  0  0  0  0
  -21.1995   -7.6159   23.9726 H   0  0  0  0  0  0
  -21.1468   -6.0531   25.9083 H   0  0  0  0  0  0
  -22.0604   -2.7625   23.2824 H   0  0  0  0  0  0
  -22.4051  -11.9889   22.4771 H   0  0  0  0  0  0
  -21.1100  -13.1306   22.2604 H   0  0  0  0  0  0
  -24.6626  -15.8468   20.5210 H   0  0  0  0  0  0
  -26.2711  -15.6251   20.0575 H   0  0  0  0  0  0
  -26.7165  -32.5512   23.1161 H   0  0  0  0  0  0
  -24.9970  -33.9739   25.0434 H   0  0  0  0  0  0
  -22.7052  -31.3085   21.4055 H   0  0  0  0  0  0
  -23.3770  -35.9662   23.3281 H   0  0  0  0  0  0
  -24.3546  -36.8941   22.2043 H   0  0  0  0  0  0
  -23.7247  -37.6516   23.6666 H   0  0  0  0  0  0
  -26.0728  -31.5751   20.6125 H   0  0  0  0  0  0
  -26.8361  -30.8594   21.9982 H   0  0  0  0  0  0
  -28.1066  -29.0104   21.1900 H   0  0  0  0  0  0
  -25.9822  -25.9301   19.0269 H   0  0  0  0  0  0
  -23.9652  -27.3028   19.0336 H   0  0  0  0  0  0
  -23.7523  -30.6071   19.4050 H   0  0  0  0  0  0
  -22.7524  -29.2561   19.8524 H   0  0  0  0  0  0
  -25.1293  -36.1981   25.0820 H   0  0  0  0  0  0
  -20.9963  -28.3246   24.1406 H   0  0  0  0  0  0
  -20.5627  -26.2268   23.3595 H   0  0  0  0  0  0
  -21.6664  -26.7403   22.1207 H   0  0  0  0  0  0
  -19.6912  -25.6268   21.1211 H   0  0  0  0  0  0
  -19.6704  -27.3186   20.6708 H   0  0  0  0  0  0
  -17.4183  -26.6594   21.4019 H   0  0  0  0  0  0
  -18.0367  -26.0056   22.9023 H   0  0  0  0  0  0
  -19.7958  -30.7191   24.2336 H   0  0  0  0  0  0
  -17.5033  -31.6255   24.5141 H   0  0  0  0  0  0
  -15.5347  -30.2979   23.7623 H   0  0  0  0  0  0
  -15.8660  -28.0814   22.7021 H   0  0  0  0  0  0
  -24.5926  -30.6987   25.7762 H   0  0  0  0  0  0
  -24.8812  -32.2807   26.4916 H   0  0  0  0  0  0
  -25.8007  -30.8848   27.0247 H   0  0  0  0  0  0
  -26.2886  -29.6792   24.1207 H   0  0  0  0  0  0
  -27.4024  -29.7288   25.4675 H   0  0  0  0  0  0
  -27.8766  -30.4323   23.9390 H   0  0  0  0  0  0
  -27.2741  -33.3644   26.2090 H   0  0  0  0  0  0
  -28.3896  -32.6809   25.0323 H   0  0  0  0  0  0
  -28.0742  -31.8404   26.5399 H   0  0  0  0  0  0
  -28.2613  -38.0148   24.7527 H   0  0  0  0  0  0
  -28.1126  -36.2659   24.6288 H   0  0  0  0  0  0
  -27.2299  -37.1453   25.8856 H   0  0  0  0  0  0
  -20.9338  -29.8836   21.6975 H   0  0  0  0  0  0
  -26.0226  -38.2874   24.1380 H   0  0  0  0  0  0
  -33.1661  -18.3367   22.8743 H   0  0  0  0  0  0
  -32.2760  -16.2009   22.1502 H   0  0  0  0  0  0
  -28.7728  -18.1942   20.5440 H   0  0  0  0  0  0
  -33.1641  -20.6744   22.9607 H   0  0  0  0  0  0
  -31.5702  -21.2122   23.4727 H   0  0  0  0  0  0
  -32.1576  -21.5686   21.8389 H   0  0  0  0  0  0
  -30.0954  -23.4609   20.3745 H   0  0  0  0  0  0
  -28.9574  -23.2833   21.6632 H   0  0  0  0  0  0
  -27.1283  -24.0648   20.3642 H   0  0  0  0  0  0
  -27.7708  -23.4093   18.9070 H   0  0  0  0  0  0
  -28.0551  -25.5897   18.3301 H   0  0  0  0  0  0
  -29.5814  -25.3178   19.0420 H   0  0  0  0  0  0
  -29.7183  -21.3404   22.2232 H   0  0  0  0  0  0
  -28.9612  -15.5496   20.9751 H   0  0  0  0  0  0
  1 25  1  0  0  0
  1 30  2  0  0  0
  1 83  1  0  0  0
  2  3  1  0  0  0
  2 25  1  0  0  0
  2 85  1  0  0  0
  2 86  1  0  0  0
  3  4  1  0  0  0
  3 87  1  0  0  0
  3 88  1  0  0  0
  4  5  1  0  0  0
  4 89  1  0  0  0
  4 90  1  0  0  0
  5  6  1  0  0  0
  5 26  1  0  0  0
  5 91  1  0  0  0
  6 25  1  0  0  0
  6 92  1  0  0  0
  6 93  1  0  0  0
  7  8  2  0  0  0
  7 26  1  0  0  0
  7 29  1  0  0  0
  8  9  1  0  0  0
  8 22  1  0  0  0
  9 10  1  0  0  0
  9 27  2  0  0  0
 10 11  2  0  0  0
 10 15  1  0  0  0
 11 12  1  0  0  0
 11 94  1  0  0  0
 12 13  2  0  0  0
 12 95  1  0  0  0
 13 14  1  0  0  0
 13 31  1  0  0  0
 14 15  2  0  0  0
 14 96  1  0  0  0
 15 97  1  0  0  0
 16 17  2  0  0  0
 16 21  1  0  0  0
 16 31  1  0  0  0
 17 18  1  0  0  0
 17 98  1  0  0  0
 18 19  2  0  0  0
 18 99  1  0  0  0
 19 20  1  0  0  0
 19 24  1  0  0  0
 20 21  2  0  0  0
 20100  1  0  0  0
 21 23  1  0  0  0
 22 28  1  0  0  0
 22 32  2  0  0  0
 26 27  1  0  0  0
 28101  1  0  0  0
 28102  1  0  0  0
 29103  1  0  0  0
 29104  1  0  0  0
 33 34  1  0  0  0
 33 66  1  0  0  0
 33 70  2  0  0  0
 34 36  1  0  0  0
 34 59  1  0  0  0
 34105  1  0  0  0
 35 44  2  0  0  0
 35 45  1  0  0  0
 35 68  1  0  0  0
 36 56  1  0  0  0
 36106  1  0  0  0
 37 39  1  0  0  0
 37 47  1  0  0  0
 37 66  1  0  0  0
 37107  1  0  0  0
 38 43  2  0  0  0
 38 46  1  0  0  0
 38 47  1  0  0  0
 39 64  1  0  0  0
 39 67  2  0  0  0
 40 52  1  0  0  0
 40 53  2  0  0  0
 40 58  1  0  0  0
 41108  1  0  0  0
 41109  1  0  0  0
 41110  1  0  0  0
 41 48  1  0  0  0
 42 43  1  0  0  0
 42 66  1  0  0  0
 42111  1  0  0  0
 42112  1  0  0  0
 43 44  1  0  0  0
 44113  1  0  0  0
 45 46  2  0  0  0
 45114  1  0  0  0
 46115  1  0  0  0
 47116  1  0  0  0
 47117  1  0  0  0
 48 56  1  0  0  0
 48 65  1  0  0  0
 48118  1  0  0  0
 49 50  1  0  0  0
 49 53  1  0  0  0
 49 64  1  0  0  0
 49119  1  0  0  0
 50 51  1  0  0  0
 50120  1  0  0  0
 50121  1  0  0  0
 51 52  1  0  0  0
 51122  1  0  0  0
 51123  1  0  0  0
 52124  1  0  0  0
 52125  1  0  0  0
 53 54  1  0  0  0
 54 55  2  0  0  0
 54126  1  0  0  0
 55 57  1  0  0  0
 55127  1  0  0  0
 56 69  2  0  0  0
 57 58  2  0  0  0
 57128  1  0  0  0
 58129  1  0  0  0
 59 60  1  0  0  0
 59 61  1  0  0  0
 59 62  1  0  0  0
 60130  1  0  0  0
 60131  1  0  0  0
 60132  1  0  0  0
 61133  1  0  0  0
 61134  1  0  0  0
 61135  1  0  0  0
 62136  1  0  0  0
 62137  1  0  0  0
 62138  1  0  0  0
 63 65  1  0  0  0
 63139  1  0  0  0
 63140  1  0  0  0
 63141  1  0  0  0
 64142  1  0  0  0
 65143  1  0  0  0
 68 81  1  0  0  0
 71 72  2  0  0  0
 71 74  1  0  0  0
 71144  1  0  0  0
 72 75  1  0  0  0
 72145  1  0  0  0
 73 75  2  0  0  0
 73 76  1  0  0  0
 73146  1  0  0  0
 74 76  2  0  0  0
 74 78  1  0  0  0
 75 83  1  0  0  0
 76 82  1  0  0  0
 77 79  1  0  0  0
 77 82  1  0  0  0
 77 84  2  0  0  0
 78147  1  0  0  0
 78148  1  0  0  0
 78149  1  0  0  0
 79 80  1  0  0  0
 79150  1  0  0  0
 79151  1  0  0  0
 80 81  1  0  0  0
 80152  1  0  0  0
 80153  1  0  0  0
 81154  1  0  0  0
 81155  1  0  0  0
 82156  1  0  0  0
 83157  1  0  0  0
M  ISO  4   1 100  68 101  81 101  83 100
M  END
> <chiral flag>
0

> <version>
0

> <s_m_source_file>
/data/baiqing/PycharmProjects/Reinvent-master-3.2/result/LINK_invent/BTK/process_docking_weight1_custom_product_contain_oxygen_bond_distance_aromatic_linkinvent_7_9_3/rearranged_h_0059.sdf

> <i_m_source_file_index>
9

> <r_mmod_Potential_Energy-OPLS-2005>
-13.0477952957153

> <r_mmod_Stretch_Energy-OPLS-2005>
66.0539016723633

> <r_mmod_Bend_Energy-OPLS-2005>
141.347045898438

> <r_mmod_Torsional_Energy-OPLS-2005>
251.534240722656

> <r_mmod_Improper_Torsional_Energy-OPLS-2005>
6.97566699981689

> <r_mmod_Van_der_Waal_Energy-OPLS-2005>
149.191589355469

> <r_mmod_Electrostatic_Energy-OPLS-2005>
-428.111572265625

> <r_mmod_Solvation_Energy-OPLS-2005>
-232.091949462891

> <b_mmod_Minimization_Converged-OPLS-2005>
0

> <r_mmod_RMS_Derivative-OPLS-2005>
3.40348958969116

$$$$
9
                    3D
 Structure written by MMmdl.
157165  0  0  1  0            999 V2000
  -30.7010  -14.4413   20.5875 C   0  0  0  0  0  0
  -30.4271  -12.2939   19.4079 C   0  0  0  0  0  0
  -29.4934  -12.5082   18.1992 C   0  0  0  0  0  0
  -28.0152  -12.3676   18.6124 C   0  0  0  0  0  0
  -27.6671  -13.2003   19.8747 C   0  0  2  0  0  0
  -28.7066  -12.9537   20.9918 C   0  0  0  0  0  0
  -25.2617  -13.8152   20.5660 C   0  0  0  0  0  0
  -24.1846  -13.0452   20.9151 C   0  0  0  0  0  0
  -24.6380  -11.6917   20.8721 C   0  0  0  0  0  0
  -23.9042  -10.4314   21.0413 C   0  0  0  0  0  0
  -24.3604   -9.4229   21.9181 C   0  0  0  0  0  0
  -23.6288   -8.2262   22.0765 C   0  0  0  0  0  0
  -22.4273   -8.0283   21.3552 C   0  0  0  0  0  0
  -21.9896   -9.0256   20.4655 C   0  0  0  0  0  0
  -22.7218  -10.2142   20.3064 C   0  0  0  0  0  0
  -21.6856   -6.0727   22.5276 C   0  0  0  0  0  0
  -21.4011   -6.5631   23.8204 C   0  0  0  0  0  0
  -21.3658   -5.6790   24.9165 C   0  0  0  0  0  0
  -21.6058   -4.3053   24.7224 C   0  0  0  0  0  0
  -21.8816   -3.8133   23.4345 C   0  0  0  0  0  0
  -21.9196   -4.6954   22.3401 C   0  0  0  0  0  0
  -22.7875  -13.5277   21.1815 C   0  0  0  0  0  0
  -22.1666   -4.2146   21.0985 F   0  0  0  0  0  0
  -21.5640   -3.4531   25.7730 F   0  0  0  0  0  0
  -30.0465  -13.2569   20.4526 N   0  0  0  0  0  0
  -26.3049  -12.9310   20.3341 N   0  0  0  0  0  0
  -25.9304  -11.6477   20.5741 N   0  0  0  0  0  0
  -22.0498  -12.8301   22.0378 N   0  0  0  0  0  0
  -25.4377  -15.1867   20.4105 N   0  0  0  0  0  0
  -31.7841  -14.6829   20.0449 O   0  0  0  0  0  0
  -21.6655   -6.8863   21.4236 O   0  0  0  0  0  0
  -22.3575  -14.5581   20.6651 O   0  0  0  0  0  0
  -24.6144  -31.8694   23.2100 C   0  0  0  0  0  0
  -25.9058  -32.4823   23.8396 C   0  0  1  0  0  0
  -27.2414  -27.4607   20.0947 C   0  0  0  0  0  0
  -25.5911  -33.8616   24.2343 N   0  0  0  0  0  0
  -23.3998  -30.4890   21.5500 C   0  0  2  0  0  0
  -24.8479  -28.9499   20.1217 C   0  0  0  0  0  0
  -22.7400  -29.4656   22.5021 C   0  0  0  0  0  0
  -18.0270  -28.1340   22.8474 C   0  0  0  0  0  0
  -24.1485  -36.7314   23.2626 C   0  0  0  0  0  0
  -25.9229  -30.8433   21.3577 C   0  0  0  0  0  0
  -26.0034  -29.4735   20.7160 C   0  0  0  0  0  0
  -27.2051  -28.7341   20.7018 C   0  0  0  0  0  0
  -26.0737  -26.9377   19.5059 C   0  0  0  0  0  0
  -24.8746  -27.6781   19.5189 C   0  0  0  0  0  0
  -23.6074  -29.8132   20.1671 C   0  0  0  0  0  0
  -25.4093  -36.3104   24.0341 C   0  0  1  0  0  0
  -20.5844  -28.3656   23.1319 C   0  0  2  0  0  0
  -20.6762  -26.9396   22.5399 C   0  0  0  0  0  0
  -19.5778  -26.6393   21.5172 C   0  0  0  0  0  0
  -18.1943  -26.7916   22.1572 C   0  0  0  0  0  0
  -19.1512  -28.8810   23.2899 C   0  0  0  0  0  0
  -18.9423  -30.1402   23.8928 C   0  0  0  0  0  0
  -17.6420  -30.6552   24.0553 C   0  0  0  0  0  0
  -25.9033  -34.9473   23.5137 C   0  0  0  0  0  0
  -16.5328  -29.9039   23.6280 C   0  0  0  0  0  0
  -16.7261  -28.6446   23.0335 C   0  0  0  0  0  0
  -26.4494  -31.6599   25.0711 C   0  0  0  0  0  0
  -25.3762  -31.3716   26.1463 C   0  0  0  0  0  0
  -27.0287  -30.3043   24.6051 C   0  0  0  0  0  0
  -27.6097  -32.4286   25.7469 C   0  0  0  0  0  0
  -27.5572  -37.1804   24.8457 C   0  0  0  0  0  0
  -21.4125  -29.3055   22.3782 N   0  0  0  0  0  0
  -26.4286  -37.3783   23.9404 N   0  0  0  0  0  0
  -24.6635  -31.0810   22.0992 N   0  0  0  0  0  0
  -23.4181  -28.8190   23.3047 O   0  0  0  0  0  0
  -28.4145  -26.7560   20.0283 O   0  0  0  0  0  0
  -26.5580  -34.8931   22.4682 O   0  0  0  0  0  0
  -23.5356  -32.1438   23.7512 O   0  0  0  0  0  0
  -30.2500  -17.5319   22.3953 C   0  0  0  0  0  0
  -30.2205  -18.9366   22.3368 C   0  0  0  0  0  0
  -29.9891  -17.4343   19.9742 C   0  0  0  0  0  0
  -29.9402  -18.8481   19.9097 C   0  0  0  0  0  0
  -30.1356  -16.7711   21.2161 C   0  0  0  0  0  0
  -30.0371  -19.6049   21.1075 C   0  0  0  0  0  0
  -28.9760  -21.8302   20.9068 C   0  0  0  0  0  0
  -29.7886  -19.5089   18.5467 C   0  0  0  0  0  0
  -29.1208  -23.2866   21.3752 C   0  0  0  0  0  0
  -28.5068  -24.3431   20.4292 C   0  0  0  0  0  0
  -28.5881  -25.7595   21.0324 C   0  0  0  0  0  0
  -30.0256  -21.0248   21.1486 N   0  0  0  0  0  0
  -30.0602  -15.3571   21.3295 N   0  0  0  0  0  0
  -27.9426  -21.4572   20.3478 O   0  0  0  0  0  0
  -31.4697  -12.4009   19.1025 H   0  0  0  0  0  0
  -30.3347  -11.2755   19.7889 H   0  0  0  0  0  0
  -29.7270  -11.7936   17.4081 H   0  0  0  0  0  0
  -29.6587  -13.4990   17.7729 H   0  0  0  0  0  0
  -27.8182  -11.3108   18.7985 H   0  0  0  0  0  0
  -27.3692  -12.6554   17.7829 H   0  0  0  0  0  0
  -27.7211  -14.2527   19.5904 H   0  0  0  0  0  0
  -28.6794  -11.9118   21.3128 H   0  0  0  0  0  0
  -28.4553  -13.5293   21.8830 H   0  0  0  0  0  0
  -25.2746   -9.5717   22.4754 H   0  0  0  0  0  0
  -24.0004   -7.4668   22.7496 H   0  0  0  0  0  0
  -21.0811   -8.8759   19.8976 H   0  0  0  0  0  0
  -22.3645  -10.9679   19.6179 H   0  0  0  0  0  0
  -21.1988   -7.6139   23.9689 H   0  0  0  0  0  0
  -21.1493   -6.0529   25.9068 H   0  0  0  0  0  0
  -22.0596   -2.7601   23.2847 H   0  0  0  0  0  0
  -22.4107  -11.9971   22.4795 H   0  0  0  0  0  0
  -21.1125  -13.1362   22.2578 H   0  0  0  0  0  0
  -24.6748  -15.8460   20.5238 H   0  0  0  0  0  0
  -26.3001  -15.6263   20.1139 H   0  0  0  0  0  0
  -26.7112  -32.5540   23.1159 H   0  0  0  0  0  0
  -25.0106  -33.9761   25.0520 H   0  0  0  0  0  0
  -22.6880  -31.3040   21.4059 H   0  0  0  0  0  0
  -23.3731  -35.9659   23.3293 H   0  0  0  0  0  0
  -24.3604  -36.8927   22.2043 H   0  0  0  0  0  0
  -23.7264  -37.6538   23.6628 H   0  0  0  0  0  0
  -26.0210  -31.6060   20.5826 H   0  0  0  0  0  0
  -26.8167  -30.9057   21.9671 H   0  0  0  0  0  0
  -28.1036  -29.1360   21.1471 H   0  0  0  0  0  0
  -26.0973  -25.9659   19.0316 H   0  0  0  0  0  0
  -23.9844  -27.2644   19.0659 H   0  0  0  0  0  0
  -23.7143  -30.5799   19.3997 H   0  0  0  0  0  0
  -22.7329  -29.2260   19.8777 H   0  0  0  0  0  0
  -25.1264  -36.1964   25.0836 H   0  0  0  0  0  0
  -20.9903  -28.3185   24.1450 H   0  0  0  0  0  0
  -20.5631  -26.2235   23.3562 H   0  0  0  0  0  0
  -21.6644  -26.7427   22.1234 H   0  0  0  0  0  0
  -19.6937  -25.6315   21.1180 H   0  0  0  0  0  0
  -19.6752  -27.3218   20.6726 H   0  0  0  0  0  0
  -17.4231  -26.6662   21.3960 H   0  0  0  0  0  0
  -18.0341  -26.0065   22.8974 H   0  0  0  0  0  0
  -19.7889  -30.7203   24.2337 H   0  0  0  0  0  0
  -17.4966  -31.6237   24.5129 H   0  0  0  0  0  0
  -15.5327  -30.2938   23.7569 H   0  0  0  0  0  0
  -15.8675  -28.0746   22.7043 H   0  0  0  0  0  0
  -24.5932  -30.7063   25.7822 H   0  0  0  0  0  0
  -24.8939  -32.2873   26.4903 H   0  0  0  0  0  0
  -25.8127  -30.8907   27.0224 H   0  0  0  0  0  0
  -26.2822  -29.6848   24.1073 H   0  0  0  0  0  0
  -27.4042  -29.7252   25.4497 H   0  0  0  0  0  0
  -27.8670  -30.4373   23.9206 H   0  0  0  0  0  0
  -27.2746  -33.3566   26.2117 H   0  0  0  0  0  0
  -28.3886  -32.6874   25.0279 H   0  0  0  0  0  0
  -28.0777  -31.8338   26.5330 H   0  0  0  0  0  0
  -28.2592  -38.0097   24.7491 H   0  0  0  0  0  0
  -28.1071  -36.2634   24.6278 H   0  0  0  0  0  0
  -27.2305  -37.1465   25.8868 H   0  0  0  0  0  0
  -20.9289  -29.8854   21.7068 H   0  0  0  0  0  0
  -26.0180  -38.2864   24.1395 H   0  0  0  0  0  0
  -30.3600  -17.0445   23.3538 H   0  0  0  0  0  0
  -30.3166  -19.5011   23.2534 H   0  0  0  0  0  0
  -29.8870  -16.8614   19.0627 H   0  0  0  0  0  0
  -30.3322  -18.9514   17.7840 H   0  0  0  0  0  0
  -30.1734  -20.5287   18.5372 H   0  0  0  0  0  0
  -28.7391  -19.5411   18.2521 H   0  0  0  0  0  0
  -30.1772  -23.5144   21.5246 H   0  0  0  0  0  0
  -28.6566  -23.3621   22.3586 H   0  0  0  0  0  0
  -27.4686  -24.1023   20.1973 H   0  0  0  0  0  0
  -29.0492  -24.3230   19.4834 H   0  0  0  0  0  0
  -29.5744  -25.9205   21.4698 H   0  0  0  0  0  0
  -27.8759  -25.8667   21.8530 H   0  0  0  0  0  0
  -30.7837  -21.4576   21.6588 H   0  0  0  0  0  0
  -29.3038  -15.0010   21.8934 H   0  0  0  0  0  0
  1 25  1  0  0  0
  1 30  2  0  0  0
  1 83  1  0  0  0
  2  3  1  0  0  0
  2 25  1  0  0  0
  2 85  1  0  0  0
  2 86  1  0  0  0
  3  4  1  0  0  0
  3 87  1  0  0  0
  3 88  1  0  0  0
  4  5  1  0  0  0
  4 89  1  0  0  0
  4 90  1  0  0  0
  5  6  1  0  0  0
  5 26  1  0  0  0
  5 91  1  0  0  0
  6 25  1  0  0  0
  6 92  1  0  0  0
  6 93  1  0  0  0
  7  8  2  0  0  0
  7 26  1  0  0  0
  7 29  1  0  0  0
  8  9  1  0  0  0
  8 22  1  0  0  0
  9 10  1  0  0  0
  9 27  2  0  0  0
 10 11  2  0  0  0
 10 15  1  0  0  0
 11 12  1  0  0  0
 11 94  1  0  0  0
 12 13  2  0  0  0
 12 95  1  0  0  0
 13 14  1  0  0  0
 13 31  1  0  0  0
 14 15  2  0  0  0
 14 96  1  0  0  0
 15 97  1  0  0  0
 16 17  2  0  0  0
 16 21  1  0  0  0
 16 31  1  0  0  0
 17 18  1  0  0  0
 17 98  1  0  0  0
 18 19  2  0  0  0
 18 99  1  0  0  0
 19 20  1  0  0  0
 19 24  1  0  0  0
 20 21  2  0  0  0
 20100  1  0  0  0
 21 23  1  0  0  0
 22 28  1  0  0  0
 22 32  2  0  0  0
 26 27  1  0  0  0
 28101  1  0  0  0
 28102  1  0  0  0
 29103  1  0  0  0
 29104  1  0  0  0
 33 34  1  0  0  0
 33 66  1  0  0  0
 33 70  2  0  0  0
 34 36  1  0  0  0
 34 59  1  0  0  0
 34105  1  0  0  0
 35 44  2  0  0  0
 35 45  1  0  0  0
 35 68  1  0  0  0
 36 56  1  0  0  0
 36106  1  0  0  0
 37 39  1  0  0  0
 37 47  1  0  0  0
 37 66  1  0  0  0
 37107  1  0  0  0
 38 43  2  0  0  0
 38 46  1  0  0  0
 38 47  1  0  0  0
 39 64  1  0  0  0
 39 67  2  0  0  0
 40 52  1  0  0  0
 40 53  2  0  0  0
 40 58  1  0  0  0
 41108  1  0  0  0
 41109  1  0  0  0
 41110  1  0  0  0
 41 48  1  0  0  0
 42 43  1  0  0  0
 42 66  1  0  0  0
 42111  1  0  0  0
 42112  1  0  0  0
 43 44  1  0  0  0
 44113  1  0  0  0
 45 46  2  0  0  0
 45114  1  0  0  0
 46115  1  0  0  0
 47116  1  0  0  0
 47117  1  0  0  0
 48 56  1  0  0  0
 48 65  1  0  0  0
 48118  1  0  0  0
 49 50  1  0  0  0
 49 53  1  0  0  0
 49 64  1  0  0  0
 49119  1  0  0  0
 50 51  1  0  0  0
 50120  1  0  0  0
 50121  1  0  0  0
 51 52  1  0  0  0
 51122  1  0  0  0
 51123  1  0  0  0
 52124  1  0  0  0
 52125  1  0  0  0
 53 54  1  0  0  0
 54 55  2  0  0  0
 54126  1  0  0  0
 55 57  1  0  0  0
 55127  1  0  0  0
 56 69  2  0  0  0
 57 58  2  0  0  0
 57128  1  0  0  0
 58129  1  0  0  0
 59 60  1  0  0  0
 59 61  1  0  0  0
 59 62  1  0  0  0
 60130  1  0  0  0
 60131  1  0  0  0
 60132  1  0  0  0
 61133  1  0  0  0
 61134  1  0  0  0
 61135  1  0  0  0
 62136  1  0  0  0
 62137  1  0  0  0
 62138  1  0  0  0
 63 65  1  0  0  0
 63139  1  0  0  0
 63140  1  0  0  0
 63141  1  0  0  0
 64142  1  0  0  0
 65143  1  0  0  0
 68 81  1  0  0  0
 71 72  2  0  0  0
 71 75  1  0  0  0
 71144  1  0  0  0
 72 76  1  0  0  0
 72145  1  0  0  0
 73 74  1  0  0  0
 73 75  2  0  0  0
 73146  1  0  0  0
 74 76  2  0  0  0
 74 78  1  0  0  0
 75 83  1  0  0  0
 76 82  1  0  0  0
 77 79  1  0  0  0
 77 82  1  0  0  0
 77 84  2  0  0  0
 78147  1  0  0  0
 78148  1  0  0  0
 78149  1  0  0  0
 79 80  1  0  0  0
 79150  1  0  0  0
 79151  1  0  0  0
 80 81  1  0  0  0
 80152  1  0  0  0
 80153  1  0  0  0
 81154  1  0  0  0
 81155  1  0  0  0
 82156  1  0  0  0
 83157  1  0  0  0
M  ISO  4   1 100  68 101  81 101  83 100
M  END
> <chiral flag>
0

> <version>
0

> <s_m_source_file>
/data/baiqing/PycharmProjects/Reinvent-master-3.2/result/LINK_invent/BTK/process_docking_weight1_custom_product_contain_oxygen_bond_distance_aromatic_linkinvent_7_9_3/rearranged_h_0059.sdf

> <i_m_source_file_index>
10

> <r_mmod_Potential_Energy-OPLS-2005>
-107.769203186035

> <r_mmod_Stretch_Energy-OPLS-2005>
33.4911155700684

> <r_mmod_Bend_Energy-OPLS-2005>
92.8068923950195

> <r_mmod_Torsional_Energy-OPLS-2005>
286.900238037109

> <r_mmod_Improper_Torsional_Energy-OPLS-2005>
3.91018009185791

> <r_mmod_Van_der_Waal_Energy-OPLS-2005>
146.672714233398

> <r_mmod_Electrostatic_Energy-OPLS-2005>
-449.812469482422

> <r_mmod_Solvation_Energy-OPLS-2005>
-230.21875

> <b_mmod_Minimization_Converged-OPLS-2005>
0

> <r_mmod_RMS_Derivative-OPLS-2005>
2.92081069946289

$$$$
10
                    3D
 Structure written by MMmdl.
160169  0  0  1  0            999 V2000
  -30.6969  -14.6298   20.5104 C   0  0  0  0  0  0
  -30.4180  -12.3980   19.4481 C   0  0  0  0  0  0
  -29.4948  -12.4919   18.2175 C   0  0  0  0  0  0
  -28.0222  -12.3293   18.6396 C   0  0  0  0  0  0
  -27.6422  -13.2261   19.8482 C   0  0  2  0  0  0
  -28.6916  -13.1429   20.9776 C   0  0  0  0  0  0
  -25.2522  -13.8193   20.5701 C   0  0  0  0  0  0
  -24.1808  -13.0445   20.9215 C   0  0  0  0  0  0
  -24.6393  -11.6921   20.8753 C   0  0  0  0  0  0
  -23.9069  -10.4298   21.0416 C   0  0  0  0  0  0
  -24.3623   -9.4211   21.9189 C   0  0  0  0  0  0
  -23.6301   -8.2244   22.0754 C   0  0  0  0  0  0
  -22.4280   -8.0283   21.3546 C   0  0  0  0  0  0
  -21.9918   -9.0257   20.4647 C   0  0  0  0  0  0
  -22.7244  -10.2139   20.3061 C   0  0  0  0  0  0
  -21.6856   -6.0740   22.5281 C   0  0  0  0  0  0
  -21.4012   -6.5643   23.8215 C   0  0  0  0  0  0
  -21.3658   -5.6795   24.9176 C   0  0  0  0  0  0
  -21.6046   -4.3057   24.7227 C   0  0  0  0  0  0
  -21.8818   -3.8150   23.4347 C   0  0  0  0  0  0
  -21.9194   -4.6968   22.3403 C   0  0  0  0  0  0
  -22.7829  -13.5229   21.1871 C   0  0  0  0  0  0
  -22.1664   -4.2156   21.0979 F   0  0  0  0  0  0
  -21.5629   -3.4538   25.7737 F   0  0  0  0  0  0
  -29.9962  -13.4588   20.3845 N   0  0  0  0  0  0
  -26.2943  -12.9394   20.3288 N   0  0  0  0  0  0
  -25.9319  -11.6541   20.5763 N   0  0  0  0  0  0
  -22.0478  -12.8211   22.0425 N   0  0  0  0  0  0
  -25.4208  -15.1917   20.4107 N   0  0  0  0  0  0
  -31.8939  -14.6573   20.2147 O   0  0  0  0  0  0
  -21.6641   -6.8882   21.4242 O   0  0  0  0  0  0
  -22.3513  -14.5536   20.6721 O   0  0  0  0  0  0
  -24.6286  -31.8622   23.2075 C   0  0  0  0  0  0
  -25.9142  -32.4786   23.8382 C   0  0  1  0  0  0
  -27.2062  -27.3083   20.0990 C   0  0  0  0  0  0
  -25.5971  -33.8586   24.2304 N   0  0  0  0  0  0
  -23.4195  -30.4934   21.5510 C   0  0  2  0  0  0
  -24.8605  -28.9603   20.1103 C   0  0  0  0  0  0
  -22.7483  -29.4646   22.4933 C   0  0  0  0  0  0
  -18.0288  -28.1385   22.8491 C   0  0  0  0  0  0
  -24.1491  -36.7276   23.2633 C   0  0  0  0  0  0
  -25.9667  -30.7867   21.3860 C   0  0  0  0  0  0
  -26.0345  -29.4172   20.7214 C   0  0  0  0  0  0
  -27.2085  -28.6009   20.7151 C   0  0  0  0  0  0
  -26.0027  -26.9298   19.4488 C   0  0  0  0  0  0
  -24.8469  -27.7205   19.4674 C   0  0  0  0  0  0
  -23.6329  -29.8434   20.1623 C   0  0  0  0  0  0
  -25.4115  -36.3077   24.0329 C   0  0  1  0  0  0
  -20.5895  -28.3690   23.1274 C   0  0  2  0  0  0
  -20.6783  -26.9414   22.5404 C   0  0  0  0  0  0
  -19.5754  -26.6387   21.5211 C   0  0  0  0  0  0
  -18.1933  -26.7929   22.1627 C   0  0  0  0  0  0
  -19.1544  -28.8854   23.2879 C   0  0  0  0  0  0
  -18.9467  -30.1461   23.8890 C   0  0  0  0  0  0
  -17.6467  -30.6590   24.0566 C   0  0  0  0  0  0
  -25.9064  -34.9449   23.5105 C   0  0  0  0  0  0
  -16.5355  -29.9089   23.6333 C   0  0  0  0  0  0
  -16.7275  -28.6508   23.0350 C   0  0  0  0  0  0
  -26.4518  -31.6594   25.0751 C   0  0  0  0  0  0
  -25.3745  -31.3735   26.1470 C   0  0  0  0  0  0
  -27.0362  -30.3011   24.6223 C   0  0  0  0  0  0
  -27.6077  -32.4325   25.7521 C   0  0  0  0  0  0
  -27.5573  -37.1792   24.8466 C   0  0  0  0  0  0
  -21.4198  -29.3051   22.3671 N   0  0  0  0  0  0
  -26.4287  -37.3777   23.9414 N   0  0  0  0  0  0
  -24.6903  -31.0633   22.1038 N   0  0  0  0  0  0
  -23.4209  -28.8160   23.2989 O   0  0  0  0  0  0
  -28.3072  -26.4222   20.1567 O   0  0  0  0  0  0
  -26.5611  -34.8915   22.4657 O   0  0  0  0  0  0
  -23.5449  -32.1429   23.7401 O   0  0  0  0  0  0
  -29.3442  -20.0784   18.9448 C   0  0  0  0  0  0
  -29.1969  -20.6965   21.2543 C   0  0  0  0  0  0
  -29.8746  -18.3558   20.6466 C   0  0  0  0  0  0
  -29.7339  -18.7504   19.2849 C   0  0  0  0  0  0
  -29.0413  -21.0969   19.9009 C   0  0  0  0  0  0
  -29.6010  -19.3715   21.6155 C   0  0  0  0  0  0
  -27.7496  -22.5041   18.3762 C   0  0  0  0  0  0
  -30.5282  -17.0153   21.0513 C   0  0  0  0  0  0
  -27.6077  -23.8007   17.5629 C   0  0  0  0  0  0
  -28.2923  -25.0256   18.1673 C   0  0  0  0  0  0
  -28.8967  -23.7354   20.2066 C   0  0  0  0  0  0
  -28.1083  -25.0247   19.6849 C   0  0  1  0  0  0
  -30.0530  -17.7895   18.1469 C   0  0  0  0  0  0
  -28.5689  -22.4386   19.4722 N   0  0  0  0  0  0
  -29.9949  -15.7974   20.7003 N   0  0  0  0  0  0
  -27.0623  -21.5514   17.9924 O   0  0  0  0  0  0
  -31.5844  -17.0954   21.6902 O   0  0  0  0  0  0
  -29.7323  -19.0893   22.9352 F   0  0  0  0  0  0
  -31.4606  -12.4921   19.1397 H   0  0  0  0  0  0
  -30.3347  -11.4184   19.9213 H   0  0  0  0  0  0
  -29.7611  -11.7279   17.4857 H   0  0  0  0  0  0
  -29.6325  -13.4544   17.7218 H   0  0  0  0  0  0
  -27.8707  -11.2800   18.8959 H   0  0  0  0  0  0
  -27.3615  -12.5319   17.7959 H   0  0  0  0  0  0
  -27.6428  -14.2499   19.4748 H   0  0  0  0  0  0
  -28.7071  -12.1465   21.4218 H   0  0  0  0  0  0
  -28.4453  -13.8350   21.7847 H   0  0  0  0  0  0
  -25.2771   -9.5683   22.4761 H   0  0  0  0  0  0
  -24.0014   -7.4631   22.7467 H   0  0  0  0  0  0
  -21.0854   -8.8777   19.8946 H   0  0  0  0  0  0
  -22.3709  -10.9680   19.6168 H   0  0  0  0  0  0
  -21.2001   -7.6152   23.9720 H   0  0  0  0  0  0
  -21.1481   -6.0523   25.9080 H   0  0  0  0  0  0
  -22.0598   -2.7613   23.2843 H   0  0  0  0  0  0
  -22.4106  -11.9870   22.4797 H   0  0  0  0  0  0
  -21.1097  -13.1227   22.2642 H   0  0  0  0  0  0
  -24.6504  -15.8419   20.5215 H   0  0  0  0  0  0
  -26.2606  -15.6331   20.0600 H   0  0  0  0  0  0
  -26.7203  -32.5445   23.1119 H   0  0  0  0  0  0
  -25.0170  -33.9748   25.0483 H   0  0  0  0  0  0
  -22.7141  -31.3158   21.4154 H   0  0  0  0  0  0
  -23.3763  -35.9599   23.3300 H   0  0  0  0  0  0
  -24.3584  -36.8889   22.2046 H   0  0  0  0  0  0
  -23.7238  -37.6476   23.6655 H   0  0  0  0  0  0
  -26.1092  -31.5542   20.6241 H   0  0  0  0  0  0
  -26.8439  -30.8244   22.0205 H   0  0  0  0  0  0
  -28.1036  -28.9441   21.2143 H   0  0  0  0  0  0
  -25.8910  -26.0057   18.9064 H   0  0  0  0  0  0
  -23.9504  -27.3688   18.9753 H   0  0  0  0  0  0
  -23.7588  -30.6267   19.4142 H   0  0  0  0  0  0
  -22.7505  -29.2810   19.8514 H   0  0  0  0  0  0
  -25.1298  -36.1921   25.0822 H   0  0  0  0  0  0
  -20.9988  -28.3257   24.1394 H   0  0  0  0  0  0
  -20.5693  -26.2296   23.3603 H   0  0  0  0  0  0
  -21.6646  -26.7453   22.1184 H   0  0  0  0  0  0
  -19.6916  -25.6300   21.1236 H   0  0  0  0  0  0
  -19.6681  -27.3203   20.6746 H   0  0  0  0  0  0
  -17.4200  -26.6676   21.4031 H   0  0  0  0  0  0
  -18.0338  -26.0070   22.9025 H   0  0  0  0  0  0
  -19.7943  -30.7284   24.2244 H   0  0  0  0  0  0
  -17.5021  -31.6267   24.5174 H   0  0  0  0  0  0
  -15.5358  -30.2991   23.7660 H   0  0  0  0  0  0
  -15.8673  -28.0831   22.7057 H   0  0  0  0  0  0
  -24.5930  -30.7074   25.7795 H   0  0  0  0  0  0
  -24.8928  -32.2905   26.4880 H   0  0  0  0  0  0
  -25.8069  -30.8924   27.0252 H   0  0  0  0  0  0
  -26.2941  -29.6756   24.1251 H   0  0  0  0  0  0
  -27.4048  -29.7278   25.4739 H   0  0  0  0  0  0
  -27.8825  -30.4285   23.9466 H   0  0  0  0  0  0
  -27.2695  -33.3624   26.2103 H   0  0  0  0  0  0
  -28.3894  -32.6886   25.0357 H   0  0  0  0  0  0
  -28.0746  -31.8451   26.5436 H   0  0  0  0  0  0
  -28.2591  -38.0088   24.7523 H   0  0  0  0  0  0
  -28.1072  -36.2623   24.6289 H   0  0  0  0  0  0
  -27.2295  -37.1433   25.8870 H   0  0  0  0  0  0
  -20.9368  -29.8789   21.6899 H   0  0  0  0  0  0
  -26.0161  -38.2847   24.1431 H   0  0  0  0  0  0
  -29.2789  -20.3163   17.8919 H   0  0  0  0  0  0
  -28.9932  -21.4019   22.0463 H   0  0  0  0  0  0
  -26.5412  -24.0041   17.4600 H   0  0  0  0  0  0
  -27.9833  -23.6279   16.5542 H   0  0  0  0  0  0
  -27.8833  -25.9254   17.7090 H   0  0  0  0  0  0
  -29.3553  -25.0275   17.9226 H   0  0  0  0  0  0
  -28.6892  -23.6018   21.2676 H   0  0  0  0  0  0
  -29.9704  -23.9052   20.1253 H   0  0  0  0  0  0
  -27.0908  -24.7471   19.9552 H   0  0  0  0  0  0
  -30.0359  -18.2936   17.1802 H   0  0  0  0  0  0
  -29.3227  -16.9809   18.1084 H   0  0  0  0  0  0
  -31.0463  -17.3548   18.2630 H   0  0  0  0  0  0
  -29.0102  -15.7760   20.5005 H   0  0  0  0  0  0
  1 25  1  0  0  0
  1 30  2  0  0  0
  1 85  1  0  0  0
  2  3  1  0  0  0
  2 25  1  0  0  0
  2 89  1  0  0  0
  2 90  1  0  0  0
  3  4  1  0  0  0
  3 91  1  0  0  0
  3 92  1  0  0  0
  4  5  1  0  0  0
  4 93  1  0  0  0
  4 94  1  0  0  0
  5  6  1  0  0  0
  5 26  1  0  0  0
  5 95  1  0  0  0
  6 25  1  0  0  0
  6 96  1  0  0  0
  6 97  1  0  0  0
  7  8  2  0  0  0
  7 26  1  0  0  0
  7 29  1  0  0  0
  8  9  1  0  0  0
  8 22  1  0  0  0
  9 10  1  0  0  0
  9 27  2  0  0  0
 10 11  2  0  0  0
 10 15  1  0  0  0
 11 12  1  0  0  0
 11 98  1  0  0  0
 12 13  2  0  0  0
 12 99  1  0  0  0
 13 14  1  0  0  0
 13 31  1  0  0  0
 14 15  2  0  0  0
 14100  1  0  0  0
 15101  1  0  0  0
 16 17  2  0  0  0
 16 21  1  0  0  0
 16 31  1  0  0  0
 17 18  1  0  0  0
 17102  1  0  0  0
 18 19  2  0  0  0
 18103  1  0  0  0
 19 20  1  0  0  0
 19 24  1  0  0  0
 20 21  2  0  0  0
 20104  1  0  0  0
 21 23  1  0  0  0
 22 28  1  0  0  0
 22 32  2  0  0  0
 26 27  1  0  0  0
 28105  1  0  0  0
 28106  1  0  0  0
 29107  1  0  0  0
 29108  1  0  0  0
 33 34  1  0  0  0
 33 66  1  0  0  0
 33 70  2  0  0  0
 34 36  1  0  0  0
 34 59  1  0  0  0
 34109  1  0  0  0
 35 44  2  0  0  0
 35 45  1  0  0  0
 35 68  1  0  0  0
 36 56  1  0  0  0
 36110  1  0  0  0
 37 39  1  0  0  0
 37 47  1  0  0  0
 37 66  1  0  0  0
 37111  1  0  0  0
 38 43  2  0  0  0
 38 46  1  0  0  0
 38 47  1  0  0  0
 39 64  1  0  0  0
 39 67  2  0  0  0
 40 52  1  0  0  0
 40 53  2  0  0  0
 40 58  1  0  0  0
 41112  1  0  0  0
 41113  1  0  0  0
 41114  1  0  0  0
 41 48  1  0  0  0
 42 43  1  0  0  0
 42 66  1  0  0  0
 42115  1  0  0  0
 42116  1  0  0  0
 43 44  1  0  0  0
 44117  1  0  0  0
 45 46  2  0  0  0
 45118  1  0  0  0
 46119  1  0  0  0
 47120  1  0  0  0
 47121  1  0  0  0
 48 56  1  0  0  0
 48 65  1  0  0  0
 48122  1  0  0  0
 49 50  1  0  0  0
 49 53  1  0  0  0
 49 64  1  0  0  0
 49123  1  0  0  0
 50 51  1  0  0  0
 50124  1  0  0  0
 50125  1  0  0  0
 51 52  1  0  0  0
 51126  1  0  0  0
 51127  1  0  0  0
 52128  1  0  0  0
 52129  1  0  0  0
 53 54  1  0  0  0
 54 55  2  0  0  0
 54130  1  0  0  0
 55 57  1  0  0  0
 55131  1  0  0  0
 56 69  2  0  0  0
 57 58  2  0  0  0
 57132  1  0  0  0
 58133  1  0  0  0
 59 60  1  0  0  0
 59 61  1  0  0  0
 59 62  1  0  0  0
 60134  1  0  0  0
 60135  1  0  0  0
 60136  1  0  0  0
 61137  1  0  0  0
 61138  1  0  0  0
 61139  1  0  0  0
 62140  1  0  0  0
 62141  1  0  0  0
 62142  1  0  0  0
 63 65  1  0  0  0
 63143  1  0  0  0
 63144  1  0  0  0
 63145  1  0  0  0
 64146  1  0  0  0
 65147  1  0  0  0
 68 82  1  0  0  0
 71 74  2  0  0  0
 71 75  1  0  0  0
 71148  1  0  0  0
 72 75  2  0  0  0
 72 76  1  0  0  0
 72149  1  0  0  0
 73 74  1  0  0  0
 73 76  2  0  0  0
 73 78  1  0  0  0
 74 83  1  0  0  0
 75 84  1  0  0  0
 76 88  1  0  0  0
 77 79  1  0  0  0
 77 84  1  0  0  0
 77 86  2  0  0  0
 78 85  1  0  0  0
 78 87  2  0  0  0
 79 80  1  0  0  0
 79150  1  0  0  0
 79151  1  0  0  0
 80 82  1  0  0  0
 80152  1  0  0  0
 80153  1  0  0  0
 81 82  1  0  0  0
 81 84  1  0  0  0
 81154  1  0  0  0
 81155  1  0  0  0
 82156  1  0  0  0
 83157  1  0  0  0
 83158  1  0  0  0
 83159  1  0  0  0
 85160  1  0  0  0
M  ISO  4   1 100  68 101  82 101  85 100
M  END
> <chiral flag>
0

> <version>
0

> <s_m_source_file>
/data/baiqing/PycharmProjects/Reinvent-master-3.2/result/LINK_invent/BTK/process_docking_weight1_custom_product_contain_oxygen_bond_distance_aromatic_linkinvent_7_9_3/rearranged_h_0059.sdf

> <i_m_source_file_index>
11

> <r_mmod_Potential_Energy-OPLS-2005>
192.652526855469

> <r_mmod_Stretch_Energy-OPLS-2005>
95.1150360107422

> <r_mmod_Bend_Energy-OPLS-2005>
156.264068603516

> <r_mmod_Torsional_Energy-OPLS-2005>
304.155792236328

> <r_mmod_Improper_Torsional_Energy-OPLS-2005>
7.74171018600464

> <r_mmod_Van_der_Waal_Energy-OPLS-2005>
183.816268920898

> <r_mmod_Electrostatic_Energy-OPLS-2005>
-382.199859619141

> <r_mmod_Solvation_Energy-OPLS-2005>
-230.71696472168

> <b_mmod_Minimization_Converged-OPLS-2005>
0

> <r_mmod_RMS_Derivative-OPLS-2005>
0.855154037475586

$$$$
11
                    3D
 Structure written by MMmdl.
155163  0  0  1  0            999 V2000
  -29.5612  -17.1645   20.1595 C   0  0  0  0  0  0
  -30.1776  -14.2368   19.5039 C   0  0  0  0  0  0
  -29.5517  -13.1835   18.4551 C   0  0  0  0  0  0
  -28.3043  -12.4813   18.9801 C   0  0  0  0  0  0
  -27.5402  -13.5225   19.7985 C   0  0  2  0  0  0
  -28.3816  -14.4445   20.7914 C   0  0  0  0  0  0
  -25.1945  -13.8641   20.5927 C   0  0  0  0  0  0
  -24.1613  -13.0479   20.9351 C   0  0  0  0  0  0
  -24.6645  -11.7105   20.8683 C   0  0  0  0  0  0
  -23.9386  -10.4342   21.0287 C   0  0  0  0  0  0
  -24.3836   -9.4240   21.9109 C   0  0  0  0  0  0
  -23.6428   -8.2307   22.0730 C   0  0  0  0  0  0
  -22.4396   -8.0348   21.3534 C   0  0  0  0  0  0
  -22.0102   -9.0327   20.4605 C   0  0  0  0  0  0
  -22.7518  -10.2163   20.2967 C   0  0  0  0  0  0
  -21.6900   -6.0793   22.5280 C   0  0  0  0  0  0
  -21.4056   -6.5676   23.8221 C   0  0  0  0  0  0
  -21.3680   -5.6811   24.9170 C   0  0  0  0  0  0
  -21.6047   -4.3074   24.7208 C   0  0  0  0  0  0
  -21.8807   -3.8181   23.4322 C   0  0  0  0  0  0
  -21.9202   -4.7012   22.3388 C   0  0  0  0  0  0
  -22.7571  -13.4991   21.1980 C   0  0  0  0  0  0
  -22.1660   -4.2198   21.0961 F   0  0  0  0  0  0
  -21.5621   -3.4546   25.7710 F   0  0  0  0  0  0
  -29.2890  -15.5089   20.0917 N   0  0  0  0  0  0
  -26.2716  -13.0454   20.3461 N   0  0  0  0  0  0
  -25.9670  -11.7270   20.5533 N   0  0  0  0  0  0
  -22.0354  -12.7879   22.0543 N   0  0  0  0  0  0
  -25.3032  -15.2414   20.4266 N   0  0  0  0  0  0
  -30.8162  -16.8739   20.1334 O   0  0  0  0  0  0
  -21.6705   -6.8966   21.4256 O   0  0  0  0  0  0
  -22.3136  -14.5259   20.6841 O   0  0  0  0  0  0
  -24.7535  -31.6846   23.1008 C   0  0  0  0  0  0
  -25.9705  -32.4039   23.7727 C   0  0  1  0  0  0
  -27.9551  -25.9534   20.1325 C   0  0  0  0  0  0
  -25.5922  -33.7939   24.1574 N   0  0  0  0  0  0
  -23.6045  -30.2015   21.5161 C   0  0  2  0  0  0
  -24.8635  -28.0914   20.3290 C   0  0  0  0  0  0
  -22.7993  -29.3548   22.5215 C   0  0  0  0  0  0
  -18.0255  -28.1460   22.8407 C   0  0  0  0  0  0
  -24.1452  -36.7007   23.2694 C   0  0  0  0  0  0
  -26.1785  -30.0925   21.4976 C   0  0  0  0  0  0
  -26.2686  -28.4888   21.0466 C   0  0  0  0  0  0
  -27.7150  -27.5370   21.0457 C   0  0  0  0  0  0
  -25.6037  -25.4481   18.9963 C   0  0  0  0  0  0
  -24.4958  -26.7381   19.4155 C   0  0  0  0  0  0
  -23.8487  -29.3093   20.2454 C   0  0  0  0  0  0
  -25.4146  -36.2774   24.0279 C   0  0  1  0  0  0
  -20.5899  -28.3725   23.1300 C   0  0  2  0  0  0
  -20.6713  -26.9381   22.5540 C   0  0  0  0  0  0
  -19.5749  -26.6362   21.5279 C   0  0  0  0  0  0
  -18.1887  -26.7977   22.1566 C   0  0  0  0  0  0
  -19.1535  -28.8942   23.2772 C   0  0  0  0  0  0
  -18.9437  -30.1514   23.8844 C   0  0  0  0  0  0
  -17.6430  -30.6636   24.0544 C   0  0  0  0  0  0
  -25.9147  -34.9125   23.4876 C   0  0  0  0  0  0
  -16.5321  -29.9155   23.6317 C   0  0  0  0  0  0
  -16.7233  -28.6591   23.0308 C   0  0  0  0  0  0
  -26.4703  -31.6502   25.0671 C   0  0  0  0  0  0
  -25.3639  -31.3978   26.1232 C   0  0  0  0  0  0
  -27.0739  -30.2820   24.6976 C   0  0  0  0  0  0
  -27.6045  -32.4557   25.7492 C   0  0  0  0  0  0
  -27.5540  -37.1664   24.8457 C   0  0  0  0  0  0
  -21.4630  -29.2863   22.3835 N   0  0  0  0  0  0
  -26.4239  -37.3593   23.9420 N   0  0  0  0  0  0
  -24.8870  -30.7100   22.0980 N   0  0  0  0  0  0
  -23.4047  -28.7277   23.3893 O   0  0  0  0  0  0
  -29.3138  -25.3299   19.8224 O   0  0  0  0  0  0
  -26.5908  -34.8837   22.4575 O   0  0  0  0  0  0
  -23.6443  -32.0425   23.5401 O   0  0  0  0  0  0
  -26.7300  -27.2768   18.9571 C   0  0  0  0  0  0
  -26.0318  -25.8195   21.0386 C   0  0  0  0  0  0
  -27.6735  -24.5331   18.2860 C   0  0  0  0  0  0
  -27.7342  -23.2772   19.8846 C   0  0  0  0  0  0
  -27.4794  -26.2169   17.8356 C   0  0  0  0  0  0
  -26.5454  -23.9422   20.6176 C   0  0  0  0  0  0
  -28.5851  -20.8972   20.1505 C   0  0  0  0  0  0
  -27.1508  -22.0567   18.0248 C   0  0  0  0  0  0
  -27.6504  -26.7880   16.4370 C   0  0  0  0  0  0
  -28.9937  -22.4955   17.9113 C   0  0  0  0  0  0
  -29.9216  -23.9430   18.8825 C   0  0  0  0  0  0
  -28.6668  -19.0433   20.1322 N   0  0  0  0  0  0
  -26.3186  -22.7907   19.2474 N   0  0  0  0  0  0
  -26.6287  -21.3473   17.1768 O   0  0  0  0  0  0
  -31.0254  -14.6835   18.9806 H   0  0  0  0  0  0
  -30.6624  -13.6943   20.3199 H   0  0  0  0  0  0
  -30.3014  -12.4499   18.1562 H   0  0  0  0  0  0
  -29.2937  -13.7271   17.5457 H   0  0  0  0  0  0
  -28.6007  -11.6556   19.6247 H   0  0  0  0  0  0
  -27.7060  -12.0693   18.1708 H   0  0  0  0  0  0
  -27.2263  -14.2202   19.0190 H   0  0  0  0  0  0
  -28.9109  -13.8543   21.5454 H   0  0  0  0  0  0
  -27.6917  -15.0541   21.3763 H   0  0  0  0  0  0
  -25.2974   -9.5689   22.4704 H   0  0  0  0  0  0
  -24.0103   -7.4710   22.7485 H   0  0  0  0  0  0
  -21.1032   -8.8894   19.8898 H   0  0  0  0  0  0
  -22.4008  -10.9693   19.6050 H   0  0  0  0  0  0
  -21.2073   -7.6188   23.9745 H   0  0  0  0  0  0
  -21.1513   -6.0533   25.9079 H   0  0  0  0  0  0
  -22.0564   -2.7642   23.2803 H   0  0  0  0  0  0
  -22.4147  -11.9609   22.4908 H   0  0  0  0  0  0
  -21.0905  -13.0689   22.2734 H   0  0  0  0  0  0
  -24.5099  -15.8633   20.5335 H   0  0  0  0  0  0
  -26.1459  -15.7169   20.1288 H   0  0  0  0  0  0
  -26.7928  -32.4437   23.0562 H   0  0  0  0  0  0
  -24.9819  -33.8863   24.9577 H   0  0  0  0  0  0
  -22.9999  -31.0635   21.2288 H   0  0  0  0  0  0
  -23.3841  -35.9199   23.3238 H   0  0  0  0  0  0
  -24.3481  -36.8834   22.2131 H   0  0  0  0  0  0
  -23.7049  -37.6064   23.6874 H   0  0  0  0  0  0
  -26.3263  -30.6356   20.5656 H   0  0  0  0  0  0
  -27.0798  -30.3443   22.0545 H   0  0  0  0  0  0
  -28.6010  -27.9506   21.5182 H   0  0  0  0  0  0
  -25.2903  -24.6910   18.2783 H   0  0  0  0  0  0
  -23.5282  -26.7431   18.9358 H   0  0  0  0  0  0
  -24.2042  -29.9770   19.4559 H   0  0  0  0  0  0
  -22.8904  -28.9298   19.8929 H   0  0  0  0  0  0
  -25.1379  -36.1520   25.0766 H   0  0  0  0  0  0
  -20.9666  -28.3200   24.1533 H   0  0  0  0  0  0
  -20.5546  -26.2270   23.3757 H   0  0  0  0  0  0
  -21.6577  -26.7287   22.1384 H   0  0  0  0  0  0
  -19.6925  -25.6270   21.1326 H   0  0  0  0  0  0
  -19.6813  -27.3169   20.6838 H   0  0  0  0  0  0
  -17.4227  -26.6754   21.3906 H   0  0  0  0  0  0
  -18.0174  -26.0136   22.8943 H   0  0  0  0  0  0
  -19.7909  -30.7306   24.2277 H   0  0  0  0  0  0
  -17.4988  -31.6297   24.5180 H   0  0  0  0  0  0
  -15.5343  -30.3061   23.7703 H   0  0  0  0  0  0
  -15.8599  -28.0955   22.7035 H   0  0  0  0  0  0
  -24.5931  -30.7192   25.7577 H   0  0  0  0  0  0
  -24.8677  -32.3207   26.4257 H   0  0  0  0  0  0
  -25.7733  -30.9474   27.0285 H   0  0  0  0  0  0
  -26.3568  -29.6284   24.2009 H   0  0  0  0  0  0
  -27.4010  -29.7535   25.5927 H   0  0  0  0  0  0
  -27.9605  -30.3898   24.0738 H   0  0  0  0  0  0
  -27.2548  -33.4025   26.1614 H   0  0  0  0  0  0
  -28.4020  -32.6881   25.0439 H   0  0  0  0  0  0
  -28.0529  -31.9027   26.5757 H   0  0  0  0  0  0
  -28.2530  -37.9995   24.7582 H   0  0  0  0  0  0
  -28.1067  -36.2525   24.6232 H   0  0  0  0  0  0
  -27.2223  -37.1238   25.8844 H   0  0  0  0  0  0
  -21.0364  -29.8343   21.6535 H   0  0  0  0  0  0
  -26.0065  -38.2612   24.1540 H   0  0  0  0  0  0
  -26.6150  -28.3320   18.6901 H   0  0  0  0  0  0
  -25.6506  -26.1315   22.0090 H   0  0  0  0  0  0
  -27.8932  -24.2791   17.2555 H   0  0  0  0  0  0
  -29.6435  -21.1505   20.1897 H   0  0  0  0  0  0
  -28.0252  -26.0849   15.6940 H   0  0  0  0  0  0
  -28.2992  -27.6712   16.4707 H   0  0  0  0  0  0
  -26.6812  -27.1363   16.0630 H   0  0  0  0  0  0
  -29.1503  -22.7510   16.8625 H   0  0  0  0  0  0
  -29.6342  -21.6052   17.9243 H   0  0  0  0  0  0
  -30.4619  -24.4578   18.0845 H   0  0  0  0  0  0
  -30.7118  -23.5050   19.4768 H   0  0  0  0  0  0
  -25.3351  -22.6316   19.0879 H   0  0  0  0  0  0
  1 25  1  0  0  0
  1 30  2  0  0  0
  1 82  1  0  0  0
  2  3  1  0  0  0
  2 25  1  0  0  0
  2 85  1  0  0  0
  2 86  1  0  0  0
  3  4  1  0  0  0
  3 87  1  0  0  0
  3 88  1  0  0  0
  4  5  1  0  0  0
  4 89  1  0  0  0
  4 90  1  0  0  0
  5  6  1  0  0  0
  5 26  1  0  0  0
  5 91  1  0  0  0
  6 25  1  0  0  0
  6 92  1  0  0  0
  6 93  1  0  0  0
  7  8  2  0  0  0
  7 26  1  0  0  0
  7 29  1  0  0  0
  8  9  1  0  0  0
  8 22  1  0  0  0
  9 10  1  0  0  0
  9 27  2  0  0  0
 10 11  2  0  0  0
 10 15  1  0  0  0
 11 12  1  0  0  0
 11 94  1  0  0  0
 12 13  2  0  0  0
 12 95  1  0  0  0
 13 14  1  0  0  0
 13 31  1  0  0  0
 14 15  2  0  0  0
 14 96  1  0  0  0
 15 97  1  0  0  0
 16 17  2  0  0  0
 16 21  1  0  0  0
 16 31  1  0  0  0
 17 18  1  0  0  0
 17 98  1  0  0  0
 18 19  2  0  0  0
 18 99  1  0  0  0
 19 20  1  0  0  0
 19 24  1  0  0  0
 20 21  2  0  0  0
 20100  1  0  0  0
 21 23  1  0  0  0
 22 28  1  0  0  0
 22 32  2  0  0  0
 26 27  1  0  0  0
 28101  1  0  0  0
 28102  1  0  0  0
 29103  1  0  0  0
 29104  1  0  0  0
 33 34  1  0  0  0
 33 66  1  0  0  0
 33 70  2  0  0  0
 34 36  1  0  0  0
 34 59  1  0  0  0
 34105  1  0  0  0
 35 44  2  0  0  0
 35 45  1  0  0  0
 35 68  1  0  0  0
 36 56  1  0  0  0
 36106  1  0  0  0
 37 39  1  0  0  0
 37 47  1  0  0  0
 37 66  1  0  0  0
 37107  1  0  0  0
 38 43  2  0  0  0
 38 46  1  0  0  0
 38 47  1  0  0  0
 39 64  1  0  0  0
 39 67  2  0  0  0
 40 52  1  0  0  0
 40 53  2  0  0  0
 40 58  1  0  0  0
 41108  1  0  0  0
 41109  1  0  0  0
 41110  1  0  0  0
 41 48  1  0  0  0
 42 43  1  0  0  0
 42 66  1  0  0  0
 42111  1  0  0  0
 42112  1  0  0  0
 43 44  1  0  0  0
 44113  1  0  0  0
 45 46  2  0  0  0
 45114  1  0  0  0
 46115  1  0  0  0
 47116  1  0  0  0
 47117  1  0  0  0
 48 56  1  0  0  0
 48 65  1  0  0  0
 48118  1  0  0  0
 49 50  1  0  0  0
 49 53  1  0  0  0
 49 64  1  0  0  0
 49119  1  0  0  0
 50 51  1  0  0  0
 50120  1  0  0  0
 50121  1  0  0  0
 51 52  1  0  0  0
 51122  1  0  0  0
 51123  1  0  0  0
 52124  1  0  0  0
 52125  1  0  0  0
 53 54  1  0  0  0
 54 55  2  0  0  0
 54126  1  0  0  0
 55 57  1  0  0  0
 55127  1  0  0  0
 56 69  2  0  0  0
 57 58  2  0  0  0
 57128  1  0  0  0
 58129  1  0  0  0
 59 60  1  0  0  0
 59 61  1  0  0  0
 59 62  1  0  0  0
 60130  1  0  0  0
 60131  1  0  0  0
 60132  1  0  0  0
 61133  1  0  0  0
 61134  1  0  0  0
 61135  1  0  0  0
 62136  1  0  0  0
 62137  1  0  0  0
 62138  1  0  0  0
 63 65  1  0  0  0
 63139  1  0  0  0
 63140  1  0  0  0
 63141  1  0  0  0
 64142  1  0  0  0
 65143  1  0  0  0
 68 81  1  0  0  0
 71 72  2  0  0  0
 71 75  1  0  0  0
 71144  1  0  0  0
 72 76  1  0  0  0
 72145  1  0  0  0
 73 74  1  0  0  0
 73 75  2  0  0  0
 73146  1  0  0  0
 74 76  2  0  0  0
 74 77  1  0  0  0
 75 79  1  0  0  0
 76 83  1  0  0  0
 77 82  2  0  0  0
 77147  1  0  0  0
 78 80  1  0  0  0
 78 83  1  0  0  0
 78 84  2  0  0  0
 79148  1  0  0  0
 79149  1  0  0  0
 79150  1  0  0  0
 80 81  1  0  0  0
 80151  1  0  0  0
 80152  1  0  0  0
 81153  1  0  0  0
 81154  1  0  0  0
 83155  1  0  0  0
M  ISO  4   1 100  68 101  81 101  82 100
M  END
> <chiral flag>
0

> <version>
0

> <s_m_source_file>
/data/baiqing/PycharmProjects/Reinvent-master-3.2/result/LINK_invent/BTK/process_docking_weight1_custom_product_contain_oxygen_bond_distance_aromatic_linkinvent_7_9_3/rearranged_h_0059.sdf

> <i_m_source_file_index>
12

> <r_mmod_Potential_Energy-OPLS-2005>
24321.76953125

> <r_mmod_Stretch_Energy-OPLS-2005>
13789.453125

> <r_mmod_Bend_Energy-OPLS-2005>
1685.56872558594

> <r_mmod_Torsional_Energy-OPLS-2005>
455.318817138672

> <r_mmod_Improper_Torsional_Energy-OPLS-2005>
48.8933219909668

> <r_mmod_Van_der_Waal_Energy-OPLS-2005>
4485.47412109375

> <r_mmod_Electrostatic_Energy-OPLS-2005>
-324.943054199219

> <r_mmod_Solvation_Energy-OPLS-2005>
-212.570983886719

> <b_mmod_Minimization_Converged-OPLS-2005>
0

> <r_mmod_RMS_Derivative-OPLS-2005>
33.6433715820312

$$$$
12
                    3D
 Structure written by MMmdl.
155163  0  0  1  0            999 V2000
  -30.7250  -14.4421   20.6029 C   0  0  0  0  0  0
  -30.4188  -12.2976   19.4164 C   0  0  0  0  0  0
  -29.4921  -12.5184   18.2047 C   0  0  0  0  0  0
  -28.0155  -12.3748   18.6234 C   0  0  0  0  0  0
  -27.6674  -13.2035   19.8866 C   0  0  2  0  0  0
  -28.7108  -12.9736   21.0051 C   0  0  0  0  0  0
  -25.2628  -13.8153   20.5716 C   0  0  0  0  0  0
  -24.1858  -13.0456   20.9194 C   0  0  0  0  0  0
  -24.6392  -11.6916   20.8767 C   0  0  0  0  0  0
  -23.9044  -10.4306   21.0433 C   0  0  0  0  0  0
  -24.3601   -9.4203   21.9197 C   0  0  0  0  0  0
  -23.6268   -8.2237   22.0767 C   0  0  0  0  0  0
  -22.4245   -8.0292   21.3561 C   0  0  0  0  0  0
  -21.9890   -9.0261   20.4653 C   0  0  0  0  0  0
  -22.7224  -10.2142   20.3059 C   0  0  0  0  0  0
  -21.6849   -6.0721   22.5267 C   0  0  0  0  0  0
  -21.4012   -6.5632   23.8202 C   0  0  0  0  0  0
  -21.3668   -5.6791   24.9172 C   0  0  0  0  0  0
  -21.6056   -4.3052   24.7241 C   0  0  0  0  0  0
  -21.8802   -3.8139   23.4360 C   0  0  0  0  0  0
  -21.9179   -4.6941   22.3409 C   0  0  0  0  0  0
  -22.7873  -13.5266   21.1835 C   0  0  0  0  0  0
  -22.1649   -4.2128   21.0988 F   0  0  0  0  0  0
  -21.5638   -3.4544   25.7755 F   0  0  0  0  0  0
  -30.0418  -13.2758   20.4474 N   0  0  0  0  0  0
  -26.3066  -12.9306   20.3442 N   0  0  0  0  0  0
  -25.9323  -11.6480   20.5828 N   0  0  0  0  0  0
  -22.0466  -12.8287   22.0384 N   0  0  0  0  0  0
  -25.4397  -15.1858   20.4108 N   0  0  0  0  0  0
  -31.8272  -14.6487   20.0901 O   0  0  0  0  0  0
  -21.6637   -6.8869   21.4235 O   0  0  0  0  0  0
  -22.3568  -14.5561   20.6662 O   0  0  0  0  0  0
  -24.6189  -31.8673   23.2175 C   0  0  0  0  0  0
  -25.9074  -32.4831   23.8466 C   0  0  1  0  0  0
  -27.2285  -27.4297   20.0900 C   0  0  0  0  0  0
  -25.5912  -33.8629   24.2393 N   0  0  0  0  0  0
  -23.4071  -30.4953   21.5581 C   0  0  2  0  0  0
  -24.8498  -28.9671   20.1152 C   0  0  0  0  0  0
  -22.7428  -29.4659   22.5023 C   0  0  0  0  0  0
  -18.0252  -28.1410   22.8516 C   0  0  0  0  0  0
  -24.1457  -36.7294   23.2644 C   0  0  0  0  0  0
  -25.9372  -30.8349   21.3670 C   0  0  0  0  0  0
  -26.0121  -29.4700   20.7105 C   0  0  0  0  0  0
  -27.2080  -28.7126   20.6880 C   0  0  0  0  0  0
  -26.0456  -26.9484   19.4857 C   0  0  0  0  0  0
  -24.8618  -27.7074   19.4968 C   0  0  0  0  0  0
  -23.6156  -29.8414   20.1676 C   0  0  0  0  0  0
  -25.4072  -36.3110   24.0354 C   0  0  1  0  0  0
  -20.5855  -28.3679   23.1337 C   0  0  2  0  0  0
  -20.6741  -26.9416   22.5435 C   0  0  0  0  0  0
  -19.5709  -26.6416   21.5242 C   0  0  0  0  0  0
  -18.1890  -26.7958   22.1649 C   0  0  0  0  0  0
  -19.1510  -28.8861   23.2925 C   0  0  0  0  0  0
  -18.9433  -30.1470   23.8939 C   0  0  0  0  0  0
  -17.6433  -30.6614   24.0586 C   0  0  0  0  0  0
  -25.9009  -34.9476   23.5166 C   0  0  0  0  0  0
  -16.5324  -29.9125   23.6340 C   0  0  0  0  0  0
  -16.7240  -28.6538   23.0370 C   0  0  0  0  0  0
  -26.4501  -31.6604   25.0784 C   0  0  0  0  0  0
  -25.3775  -31.3681   26.1538 C   0  0  0  0  0  0
  -27.0330  -30.3053   24.6150 C   0  0  0  0  0  0
  -27.6096  -32.4313   25.7529 C   0  0  0  0  0  0
  -27.5557  -37.1805   24.8474 C   0  0  0  0  0  0
  -21.4153  -29.3034   22.3736 N   0  0  0  0  0  0
  -26.4258  -37.3799   23.9441 N   0  0  0  0  0  0
  -24.6729  -31.0798   22.1056 N   0  0  0  0  0  0
  -23.4184  -28.8163   23.3048 O   0  0  0  0  0  0
  -28.3845  -26.6730   20.0745 O   0  0  0  0  0  0
  -26.5560  -34.8920   22.4726 O   0  0  0  0  0  0
  -23.5368  -32.1423   23.7548 O   0  0  0  0  0  0
  -31.7183  -18.0568   23.2870 C   0  0  0  0  0  0
  -31.2497  -16.8013   22.8612 C   0  0  0  0  0  0
  -31.4920  -19.2012   22.4981 C   0  0  0  0  0  0
  -30.3424  -17.8379   20.8431 C   0  0  0  0  0  0
  -30.5759  -16.6799   21.6306 C   0  0  0  0  0  0
  -30.7845  -19.1166   21.2768 C   0  0  0  0  0  0
  -29.5369  -24.4580   20.2947 C   0  0  0  0  0  0
  -28.2494  -25.3159   20.5477 C   0  0  0  0  0  0
  -29.6997  -22.9674   19.8300 C   0  0  0  0  0  0
  -30.0573  -15.4097   21.2574 N   0  0  0  0  0  0
  -30.5084  -20.2820   20.5326 N   0  0  0  0  0  0
  -30.0232  -22.0118   22.3599 O   0  0  0  0  0  0
  -32.0933  -22.2645   20.9083 O   0  0  0  0  0  0
  -30.6650  -21.9422   21.0364 S   0  0  0  0  0  0
  -31.4644  -12.3766   19.1170 H   0  0  0  0  0  0
  -30.2979  -11.2841   19.8046 H   0  0  0  0  0  0
  -29.7293  -11.8069   17.4121 H   0  0  0  0  0  0
  -29.6607  -13.5112   17.7829 H   0  0  0  0  0  0
  -27.8242  -11.3177   18.8115 H   0  0  0  0  0  0
  -27.3605  -12.6616   17.8010 H   0  0  0  0  0  0
  -27.7162  -14.2537   19.5987 H   0  0  0  0  0  0
  -28.6855  -11.9390   21.3504 H   0  0  0  0  0  0
  -28.4703  -13.5693   21.8874 H   0  0  0  0  0  0
  -25.2734   -9.5685   22.4786 H   0  0  0  0  0  0
  -23.9971   -7.4633   22.7492 H   0  0  0  0  0  0
  -21.0819   -8.8782   19.8959 H   0  0  0  0  0  0
  -22.3671  -10.9692   19.6182 H   0  0  0  0  0  0
  -21.1990   -7.6135   23.9705 H   0  0  0  0  0  0
  -21.1519   -6.0530   25.9086 H   0  0  0  0  0  0
  -22.0566   -2.7599   23.2871 H   0  0  0  0  0  0
  -22.4056  -11.9953   22.4813 H   0  0  0  0  0  0
  -21.1082  -13.1358   22.2549 H   0  0  0  0  0  0
  -24.6826  -15.8525   20.5264 H   0  0  0  0  0  0
  -26.2962  -15.6183   20.0896 H   0  0  0  0  0  0
  -26.7158  -32.5535   23.1240 H   0  0  0  0  0  0
  -25.0108  -33.9813   25.0563 H   0  0  0  0  0  0
  -22.6965  -31.3137   21.4297 H   0  0  0  0  0  0
  -23.3721  -35.9635   23.3327 H   0  0  0  0  0  0
  -24.3551  -36.8875   22.2062 H   0  0  0  0  0  0
  -23.7205  -37.6505   23.6623 H   0  0  0  0  0  0
  -26.0480  -31.6076   20.6025 H   0  0  0  0  0  0
  -26.8253  -30.8874   21.9854 H   0  0  0  0  0  0
  -28.1083  -29.1068   21.1377 H   0  0  0  0  0  0
  -26.0278  -25.9951   18.9812 H   0  0  0  0  0  0
  -23.9697  -27.3238   19.0200 H   0  0  0  0  0  0
  -23.7340  -30.6289   19.4224 H   0  0  0  0  0  0
  -22.7358  -29.2745   19.8594 H   0  0  0  0  0  0
  -25.1245  -36.1995   25.0845 H   0  0  0  0  0  0
  -20.9942  -28.3245   24.1464 H   0  0  0  0  0  0
  -20.5662  -26.2286   23.3623 H   0  0  0  0  0  0
  -21.6607  -26.7472   22.1214 H   0  0  0  0  0  0
  -19.6851  -25.6339   21.1259 H   0  0  0  0  0  0
  -19.6654  -27.3238   20.6782 H   0  0  0  0  0  0
  -17.4163  -26.6737   21.4045 H   0  0  0  0  0  0
  -18.0254  -26.0114   22.9048 H   0  0  0  0  0  0
  -19.7900  -30.7284   24.2338 H   0  0  0  0  0  0
  -17.4978  -31.6292   24.5187 H   0  0  0  0  0  0
  -15.5328  -30.3033   23.7640 H   0  0  0  0  0  0
  -15.8638  -28.0862   22.7083 H   0  0  0  0  0  0
  -24.5976  -30.6987   25.7878 H   0  0  0  0  0  0
  -24.8927  -32.2817   26.5005 H   0  0  0  0  0  0
  -25.8161  -30.8866   27.0293 H   0  0  0  0  0  0
  -26.2880  -29.6826   24.1183 H   0  0  0  0  0  0
  -27.4071  -29.7286   25.4621 H   0  0  0  0  0  0
  -27.8733  -30.4381   23.9326 H   0  0  0  0  0  0
  -27.2747  -33.3615   26.2144 H   0  0  0  0  0  0
  -28.3888  -32.6876   25.0328 H   0  0  0  0  0  0
  -28.0789  -31.8411   26.5420 H   0  0  0  0  0  0
  -28.2591  -38.0078   24.7506 H   0  0  0  0  0  0
  -28.1023  -36.2624   24.6301 H   0  0  0  0  0  0
  -27.2288  -37.1463   25.8875 H   0  0  0  0  0  0
  -20.9304  -29.8798   21.7000 H   0  0  0  0  0  0
  -26.0144  -38.2869   24.1477 H   0  0  0  0  0  0
  -32.2349  -18.1458   24.2326 H   0  0  0  0  0  0
  -31.4044  -15.9365   23.4900 H   0  0  0  0  0  0
  -31.8571  -20.1522   22.8593 H   0  0  0  0  0  0
  -29.7931  -17.7391   19.9174 H   0  0  0  0  0  0
  -29.2607  -24.6256   19.2520 H   0  0  0  0  0  0
  -29.0918  -23.9154   21.1266 H   0  0  0  0  0  0
  -28.0117  -25.4127   21.6132 H   0  0  0  0  0  0
  -27.3893  -24.8039   20.1108 H   0  0  0  0  0  0
  -30.2380  -22.8976   18.8816 H   0  0  0  0  0  0
  -28.7372  -22.4769   19.6741 H   0  0  0  0  0  0
  -29.1436  -15.1615   21.6089 H   0  0  0  0  0  0
  -30.0868  -20.1461   19.6232 H   0  0  0  0  0  0
  1 25  1  0  0  0
  1 30  2  0  0  0
  1 80  1  0  0  0
  2  3  1  0  0  0
  2 25  1  0  0  0
  2 85  1  0  0  0
  2 86  1  0  0  0
  3  4  1  0  0  0
  3 87  1  0  0  0
  3 88  1  0  0  0
  4  5  1  0  0  0
  4 89  1  0  0  0
  4 90  1  0  0  0
  5  6  1  0  0  0
  5 26  1  0  0  0
  5 91  1  0  0  0
  6 25  1  0  0  0
  6 92  1  0  0  0
  6 93  1  0  0  0
  7  8  2  0  0  0
  7 26  1  0  0  0
  7 29  1  0  0  0
  8  9  1  0  0  0
  8 22  1  0  0  0
  9 10  1  0  0  0
  9 27  2  0  0  0
 10 11  2  0  0  0
 10 15  1  0  0  0
 11 12  1  0  0  0
 11 94  1  0  0  0
 12 13  2  0  0  0
 12 95  1  0  0  0
 13 14  1  0  0  0
 13 31  1  0  0  0
 14 15  2  0  0  0
 14 96  1  0  0  0
 15 97  1  0  0  0
 16 17  2  0  0  0
 16 21  1  0  0  0
 16 31  1  0  0  0
 17 18  1  0  0  0
 17 98  1  0  0  0
 18 19  2  0  0  0
 18 99  1  0  0  0
 19 20  1  0  0  0
 19 24  1  0  0  0
 20 21  2  0  0  0
 20100  1  0  0  0
 21 23  1  0  0  0
 22 28  1  0  0  0
 22 32  2  0  0  0
 26 27  1  0  0  0
 28101  1  0  0  0
 28102  1  0  0  0
 29103  1  0  0  0
 29104  1  0  0  0
 33 34  1  0  0  0
 33 66  1  0  0  0
 33 70  2  0  0  0
 34 36  1  0  0  0
 34 59  1  0  0  0
 34105  1  0  0  0
 35 44  2  0  0  0
 35 45  1  0  0  0
 35 68  1  0  0  0
 36 56  1  0  0  0
 36106  1  0  0  0
 37 39  1  0  0  0
 37 47  1  0  0  0
 37 66  1  0  0  0
 37107  1  0  0  0
 38 43  2  0  0  0
 38 46  1  0  0  0
 38 47  1  0  0  0
 39 64  1  0  0  0
 39 67  2  0  0  0
 40 52  1  0  0  0
 40 53  2  0  0  0
 40 58  1  0  0  0
 41108  1  0  0  0
 41109  1  0  0  0
 41110  1  0  0  0
 41 48  1  0  0  0
 42 43  1  0  0  0
 42 66  1  0  0  0
 42111  1  0  0  0
 42112  1  0  0  0
 43 44  1  0  0  0
 44113  1  0  0  0
 45 46  2  0  0  0
 45114  1  0  0  0
 46115  1  0  0  0
 47116  1  0  0  0
 47117  1  0  0  0
 48 56  1  0  0  0
 48 65  1  0  0  0
 48118  1  0  0  0
 49 50  1  0  0  0
 49 53  1  0  0  0
 49 64  1  0  0  0
 49119  1  0  0  0
 50 51  1  0  0  0
 50120  1  0  0  0
 50121  1  0  0  0
 51 52  1  0  0  0
 51122  1  0  0  0
 51123  1  0  0  0
 52124  1  0  0  0
 52125  1  0  0  0
 53 54  1  0  0  0
 54 55  2  0  0  0
 54126  1  0  0  0
 55 57  1  0  0  0
 55127  1  0  0  0
 56 69  2  0  0  0
 57 58  2  0  0  0
 57128  1  0  0  0
 58129  1  0  0  0
 59 60  1  0  0  0
 59 61  1  0  0  0
 59 62  1  0  0  0
 60130  1  0  0  0
 60131  1  0  0  0
 60132  1  0  0  0
 61133  1  0  0  0
 61134  1  0  0  0
 61135  1  0  0  0
 62136  1  0  0  0
 62137  1  0  0  0
 62138  1  0  0  0
 63 65  1  0  0  0
 63139  1  0  0  0
 63140  1  0  0  0
 63141  1  0  0  0
 64142  1  0  0  0
 65143  1  0  0  0
 68 78  1  0  0  0
 71 72  2  0  0  0
 71 73  1  0  0  0
 71144  1  0  0  0
 72 75  1  0  0  0
 72145  1  0  0  0
 73 76  2  0  0  0
 73146  1  0  0  0
 74 75  2  0  0  0
 74 76  1  0  0  0
 74147  1  0  0  0
 75 80  1  0  0  0
 76 81  1  0  0  0
 77 78  1  0  0  0
 77 79  1  0  0  0
 77148  1  0  0  0
 77149  1  0  0  0
 78150  1  0  0  0
 78151  1  0  0  0
 79152  1  0  0  0
 79153  1  0  0  0
 79 84  1  0  0  0
 80154  1  0  0  0
 81 84  1  0  0  0
 81155  1  0  0  0
 82 84  2  0  0  0
 83 84  2  0  0  0
M  ISO  4   1 100  68 101  78 101  80 100
M  END
> <chiral flag>
0

> <version>
0

> <s_m_source_file>
/data/baiqing/PycharmProjects/Reinvent-master-3.2/result/LINK_invent/BTK/process_docking_weight1_custom_product_contain_oxygen_bond_distance_aromatic_linkinvent_7_9_3/rearranged_h_0059.sdf

> <i_m_source_file_index>
13

> <r_mmod_Potential_Energy-OPLS-2005>
-16.8107967376709

> <r_mmod_Stretch_Energy-OPLS-2005>
39.1067886352539

> <r_mmod_Bend_Energy-OPLS-2005>
317.312225341797

> <r_mmod_Torsional_Energy-OPLS-2005>
250.513061523438

> <r_mmod_Improper_Torsional_Energy-OPLS-2005>
3.23213934898376

> <r_mmod_Van_der_Waal_Energy-OPLS-2005>
162.604766845703

> <r_mmod_Electrostatic_Energy-OPLS-2005>
-539.972412109375

> <r_mmod_Solvation_Energy-OPLS-2005>
-260.731231689453

> <b_mmod_Minimization_Converged-OPLS-2005>
0

> <r_mmod_RMS_Derivative-OPLS-2005>
3.80818629264832

$$$$
13
                    3D
 Structure written by MMmdl.
157166  0  0  1  0            999 V2000
  -30.6118  -14.6677   20.4922 C   0  0  0  0  0  0
  -30.4454  -12.4095   19.4502 C   0  0  0  0  0  0
  -29.5117  -12.5116   18.2235 C   0  0  0  0  0  0
  -28.0353  -12.3458   18.6368 C   0  0  0  0  0  0
  -27.6549  -13.2165   19.8634 C   0  0  2  0  0  0
  -28.7030  -13.0775   20.9916 C   0  0  0  0  0  0
  -25.2577  -13.8170   20.5686 C   0  0  0  0  0  0
  -24.1841  -13.0439   20.9194 C   0  0  0  0  0  0
  -24.6396  -11.6905   20.8727 C   0  0  0  0  0  0
  -23.9053  -10.4287   21.0388 C   0  0  0  0  0  0
  -24.3605   -9.4208   21.9167 C   0  0  0  0  0  0
  -23.6280   -8.2249   22.0743 C   0  0  0  0  0  0
  -22.4259   -8.0282   21.3544 C   0  0  0  0  0  0
  -21.9881   -9.0253   20.4647 C   0  0  0  0  0  0
  -22.7216  -10.2132   20.3050 C   0  0  0  0  0  0
  -21.6856   -6.0719   22.5270 C   0  0  0  0  0  0
  -21.4021   -6.5626   23.8200 C   0  0  0  0  0  0
  -21.3656   -5.6780   24.9158 C   0  0  0  0  0  0
  -21.6041   -4.3044   24.7214 C   0  0  0  0  0  0
  -21.8824   -3.8126   23.4342 C   0  0  0  0  0  0
  -21.9193   -4.6943   22.3397 C   0  0  0  0  0  0
  -22.7860  -13.5233   21.1848 C   0  0  0  0  0  0
  -22.1668   -4.2128   21.0972 F   0  0  0  0  0  0
  -21.5617   -3.4534   25.7734 F   0  0  0  0  0  0
  -30.0153  -13.4324   20.4262 N   0  0  0  0  0  0
  -26.3002  -12.9342   20.3308 N   0  0  0  0  0  0
  -25.9329  -11.6498   20.5731 N   0  0  0  0  0  0
  -22.0487  -12.8247   22.0409 N   0  0  0  0  0  0
  -25.4305  -15.1893   20.4096 N   0  0  0  0  0  0
  -31.7756  -14.8364   20.1157 O   0  0  0  0  0  0
  -21.6645   -6.8866   21.4229 O   0  0  0  0  0  0
  -22.3531  -14.5520   20.6669 O   0  0  0  0  0  0
  -24.6254  -31.8590   23.2024 C   0  0  0  0  0  0
  -25.9102  -32.4768   23.8345 C   0  0  1  0  0  0
  -27.2330  -27.3172   20.1314 C   0  0  0  0  0  0
  -25.5926  -33.8574   24.2284 N   0  0  0  0  0  0
  -23.4212  -30.4815   21.5435 C   0  0  2  0  0  0
  -24.8731  -28.9339   20.1134 C   0  0  0  0  0  0
  -22.7470  -29.4620   22.4921 C   0  0  0  0  0  0
  -18.0287  -28.1390   22.8476 C   0  0  0  0  0  0
  -24.1494  -36.7290   23.2634 C   0  0  0  0  0  0
  -25.9625  -30.7899   21.3759 C   0  0  0  0  0  0
  -26.0411  -29.4161   20.7204 C   0  0  0  0  0  0
  -27.2260  -28.6194   20.7206 C   0  0  0  0  0  0
  -26.0480  -26.8927   19.4910 C   0  0  0  0  0  0
  -24.8772  -27.6760   19.4902 C   0  0  0  0  0  0
  -23.6391  -29.8125   20.1599 C   0  0  0  0  0  0
  -25.4109  -36.3074   24.0331 C   0  0  1  0  0  0
  -20.5886  -28.3695   23.1279 C   0  0  2  0  0  0
  -20.6785  -26.9418   22.5406 C   0  0  0  0  0  0
  -19.5760  -26.6383   21.5206 C   0  0  0  0  0  0
  -18.1938  -26.7935   22.1614 C   0  0  0  0  0  0
  -19.1540  -28.8858   23.2875 C   0  0  0  0  0  0
  -18.9465  -30.1462   23.8898 C   0  0  0  0  0  0
  -17.6463  -30.6594   24.0561 C   0  0  0  0  0  0
  -25.9045  -34.9439   23.5107 C   0  0  0  0  0  0
  -16.5356  -29.9092   23.6323 C   0  0  0  0  0  0
  -16.7275  -28.6507   23.0348 C   0  0  0  0  0  0
  -26.4492  -31.6577   25.0712 C   0  0  0  0  0  0
  -25.3744  -31.3772   26.1472 C   0  0  0  0  0  0
  -27.0285  -30.2971   24.6184 C   0  0  0  0  0  0
  -27.6091  -32.4279   25.7456 C   0  0  0  0  0  0
  -27.5588  -37.1799   24.8451 C   0  0  0  0  0  0
  -21.4181  -29.3047   22.3662 N   0  0  0  0  0  0
  -26.4290  -37.3764   23.9402 N   0  0  0  0  0  0
  -24.6877  -31.0596   22.0978 N   0  0  0  0  0  0
  -23.4181  -28.8148   23.3001 O   0  0  0  0  0  0
  -28.3314  -26.4436   20.1562 O   0  0  0  0  0  0
  -26.5601  -34.8910   22.4668 O   0  0  0  0  0  0
  -23.5422  -32.1390   23.7358 O   0  0  0  0  0  0
  -28.5532  -19.3125   20.6216 C   0  0  0  0  0  0
  -28.6153  -17.8950   20.7591 C   0  0  0  0  0  0
  -30.9931  -17.9560   20.4698 C   0  0  0  0  0  0
  -30.2392  -22.3259   19.2582 C   0  0  0  0  0  0
  -30.9443  -19.3887   20.3588 C   0  0  0  0  0  0
  -28.8769  -23.8159   20.3480 C   0  0  0  0  0  0
  -29.7048  -20.1164   20.4147 C   0  0  0  0  0  0
  -29.8301  -17.1651   20.6733 C   0  0  0  0  0  0
  -29.8607  -23.6484   19.3212 C   0  0  0  0  0  0
  -28.7540  -22.5269   20.8726 C   0  0  0  0  0  0
  -32.2736  -20.1099   20.1971 C   0  0  0  0  0  0
  -28.0856  -25.1153   20.7759 C   0  0  0  0  0  0
  -29.5745  -21.5752   20.2217 N   0  0  0  0  0  0
  -29.7785  -15.7055   20.8355 N   0  0  0  0  0  0
  -30.3375  -24.6363   18.5104 O   0  0  0  0  0  0
  -27.9512  -22.1153   21.8959 O   0  0  0  0  0  0
  -31.4835  -12.5454   19.1432 H   0  0  0  0  0  0
  -30.3913  -11.4158   19.8959 H   0  0  0  0  0  0
  -29.7780  -11.7562   17.4834 H   0  0  0  0  0  0
  -29.6530  -13.4784   17.7355 H   0  0  0  0  0  0
  -27.8743  -11.2918   18.8682 H   0  0  0  0  0  0
  -27.3822  -12.5764   17.7943 H   0  0  0  0  0  0
  -27.6691  -14.2507   19.5193 H   0  0  0  0  0  0
  -28.7239  -12.0557   21.3719 H   0  0  0  0  0  0
  -28.4440  -13.7062   21.8455 H   0  0  0  0  0  0
  -25.2753   -9.5679   22.4748 H   0  0  0  0  0  0
  -23.9988   -7.4635   22.7463 H   0  0  0  0  0  0
  -21.0801   -8.8763   19.8967 H   0  0  0  0  0  0
  -22.3660  -10.9667   19.6165 H   0  0  0  0  0  0
  -21.2030   -7.6144   23.9696 H   0  0  0  0  0  0
  -21.1472   -6.0512   25.9057 H   0  0  0  0  0  0
  -22.0611   -2.7585   23.2855 H   0  0  0  0  0  0
  -22.4094  -11.9930   22.4847 H   0  0  0  0  0  0
  -21.1109  -13.1278   22.2593 H   0  0  0  0  0  0
  -24.6577  -15.8407   20.5029 H   0  0  0  0  0  0
  -26.2628  -15.6184   20.0282 H   0  0  0  0  0  0
  -26.7164  -32.5450   23.1093 H   0  0  0  0  0  0
  -25.0077  -33.9713   25.0431 H   0  0  0  0  0  0
  -22.7146  -31.3014   21.3987 H   0  0  0  0  0  0
  -23.3749  -35.9629   23.3273 H   0  0  0  0  0  0
  -24.3592  -36.8921   22.2051 H   0  0  0  0  0  0
  -23.7250  -37.6488   23.6670 H   0  0  0  0  0  0
  -26.0948  -31.5528   20.6078 H   0  0  0  0  0  0
  -26.8422  -30.8407   22.0054 H   0  0  0  0  0  0
  -28.1210  -28.9825   21.2063 H   0  0  0  0  0  0
  -26.0191  -25.9313   18.9987 H   0  0  0  0  0  0
  -23.9847  -27.2992   19.0096 H   0  0  0  0  0  0
  -23.7587  -30.5862   19.4008 H   0  0  0  0  0  0
  -22.7599  -29.2410   19.8568 H   0  0  0  0  0  0
  -25.1282  -36.1931   25.0819 H   0  0  0  0  0  0
  -20.9991  -28.3295   24.1397 H   0  0  0  0  0  0
  -20.5686  -26.2302   23.3601 H   0  0  0  0  0  0
  -21.6667  -26.7464   22.1216 H   0  0  0  0  0  0
  -19.6929  -25.6294   21.1236 H   0  0  0  0  0  0
  -19.6695  -27.3182   20.6725 H   0  0  0  0  0  0
  -17.4209  -26.6661   21.4022 H   0  0  0  0  0  0
  -18.0342  -26.0089   22.9017 H   0  0  0  0  0  0
  -19.7942  -30.7277   24.2266 H   0  0  0  0  0  0
  -17.5019  -31.6270   24.5161 H   0  0  0  0  0  0
  -15.5362  -30.3001   23.7656 H   0  0  0  0  0  0
  -15.8667  -28.0827   22.7084 H   0  0  0  0  0  0
  -24.5831  -30.7222   25.7811 H   0  0  0  0  0  0
  -24.9063  -32.2981   26.4960 H   0  0  0  0  0  0
  -25.8054  -30.8866   27.0206 H   0  0  0  0  0  0
  -26.2827  -29.6742   24.1231 H   0  0  0  0  0  0
  -27.3960  -29.7225   25.4695 H   0  0  0  0  0  0
  -27.8721  -30.4200   23.9392 H   0  0  0  0  0  0
  -27.2750  -33.3607   26.2006 H   0  0  0  0  0  0
  -28.3912  -32.6772   25.0272 H   0  0  0  0  0  0
  -28.0728  -31.8394   26.5384 H   0  0  0  0  0  0
  -28.2618  -38.0094   24.7509 H   0  0  0  0  0  0
  -28.1084  -36.2631   24.6260 H   0  0  0  0  0  0
  -27.2306  -37.1431   25.8855 H   0  0  0  0  0  0
  -20.9355  -29.8750   21.6859 H   0  0  0  0  0  0
  -26.0173  -38.2836   24.1411 H   0  0  0  0  0  0
  -27.5870  -19.7941   20.6662 H   0  0  0  0  0  0
  -27.6885  -17.3629   20.9197 H   0  0  0  0  0  0
  -31.9533  -17.4623   20.4091 H   0  0  0  0  0  0
  -30.9294  -21.8357   18.5866 H   0  0  0  0  0  0
  -33.0841  -19.5274   20.6364 H   0  0  0  0  0  0
  -32.2670  -21.0775   20.7008 H   0  0  0  0  0  0
  -32.5065  -20.2603   19.1420 H   0  0  0  0  0  0
  -28.2634  -25.2446   21.8440 H   0  0  0  0  0  0
  -27.0333  -24.8419   20.7031 H   0  0  0  0  0  0
  -28.8756  -15.3640   21.1251 H   0  0  0  0  0  0
  -30.9897  -24.3349   17.8841 H   0  0  0  0  0  0
  -27.4845  -22.8701   22.2368 H   0  0  0  0  0  0
  1 25  1  0  0  0
  1 30  2  0  0  0
  1 84  1  0  0  0
  2  3  1  0  0  0
  2 25  1  0  0  0
  2 87  1  0  0  0
  2 88  1  0  0  0
  3  4  1  0  0  0
  3 89  1  0  0  0
  3 90  1  0  0  0
  4  5  1  0  0  0
  4 91  1  0  0  0
  4 92  1  0  0  0
  5  6  1  0  0  0
  5 26  1  0  0  0
  5 93  1  0  0  0
  6 25  1  0  0  0
  6 94  1  0  0  0
  6 95  1  0  0  0
  7  8  2  0  0  0
  7 26  1  0  0  0
  7 29  1  0  0  0
  8  9  1  0  0  0
  8 22  1  0  0  0
  9 10  1  0  0  0
  9 27  2  0  0  0
 10 11  2  0  0  0
 10 15  1  0  0  0
 11 12  1  0  0  0
 11 96  1  0  0  0
 12 13  2  0  0  0
 12 97  1  0  0  0
 13 14  1  0  0  0
 13 31  1  0  0  0
 14 15  2  0  0  0
 14 98  1  0  0  0
 15 99  1  0  0  0
 16 17  2  0  0  0
 16 21  1  0  0  0
 16 31  1  0  0  0
 17 18  1  0  0  0
 17100  1  0  0  0
 18 19  2  0  0  0
 18101  1  0  0  0
 19 20  1  0  0  0
 19 24  1  0  0  0
 20 21  2  0  0  0
 20102  1  0  0  0
 21 23  1  0  0  0
 22 28  1  0  0  0
 22 32  2  0  0  0
 26 27  1  0  0  0
 28103  1  0  0  0
 28104  1  0  0  0
 29105  1  0  0  0
 29106  1  0  0  0
 33 34  1  0  0  0
 33 66  1  0  0  0
 33 70  2  0  0  0
 34 36  1  0  0  0
 34 59  1  0  0  0
 34107  1  0  0  0
 35 44  2  0  0  0
 35 45  1  0  0  0
 35 68  1  0  0  0
 36 56  1  0  0  0
 36108  1  0  0  0
 37 39  1  0  0  0
 37 47  1  0  0  0
 37 66  1  0  0  0
 37109  1  0  0  0
 38 43  2  0  0  0
 38 46  1  0  0  0
 38 47  1  0  0  0
 39 64  1  0  0  0
 39 67  2  0  0  0
 40 52  1  0  0  0
 40 53  2  0  0  0
 40 58  1  0  0  0
 41110  1  0  0  0
 41111  1  0  0  0
 41112  1  0  0  0
 41 48  1  0  0  0
 42 43  1  0  0  0
 42 66  1  0  0  0
 42113  1  0  0  0
 42114  1  0  0  0
 43 44  1  0  0  0
 44115  1  0  0  0
 45 46  2  0  0  0
 45116  1  0  0  0
 46117  1  0  0  0
 47118  1  0  0  0
 47119  1  0  0  0
 48 56  1  0  0  0
 48 65  1  0  0  0
 48120  1  0  0  0
 49 50  1  0  0  0
 49 53  1  0  0  0
 49 64  1  0  0  0
 49121  1  0  0  0
 50 51  1  0  0  0
 50122  1  0  0  0
 50123  1  0  0  0
 51 52  1  0  0  0
 51124  1  0  0  0
 51125  1  0  0  0
 52126  1  0  0  0
 52127  1  0  0  0
 53 54  1  0  0  0
 54 55  2  0  0  0
 54128  1  0  0  0
 55 57  1  0  0  0
 55129  1  0  0  0
 56 69  2  0  0  0
 57 58  2  0  0  0
 57130  1  0  0  0
 58131  1  0  0  0
 59 60  1  0  0  0
 59 61  1  0  0  0
 59 62  1  0  0  0
 60132  1  0  0  0
 60133  1  0  0  0
 60134  1  0  0  0
 61135  1  0  0  0
 61136  1  0  0  0
 61137  1  0  0  0
 62138  1  0  0  0
 62139  1  0  0  0
 62140  1  0  0  0
 63 65  1  0  0  0
 63141  1  0  0  0
 63142  1  0  0  0
 63143  1  0  0  0
 64144  1  0  0  0
 65145  1  0  0  0
 68 82  1  0  0  0
 71 72  2  0  0  0
 71 77  1  0  0  0
 71146  1  0  0  0
 72 78  1  0  0  0
 72147  1  0  0  0
 73 75  1  0  0  0
 73 78  2  0  0  0
 73148  1  0  0  0
 74 79  2  0  0  0
 74 83  1  0  0  0
 74149  1  0  0  0
 75 77  2  0  0  0
 75 81  1  0  0  0
 76 79  1  0  0  0
 76 80  2  0  0  0
 76 82  1  0  0  0
 77 83  1  0  0  0
 78 84  1  0  0  0
 79 85  1  0  0  0
 80 83  1  0  0  0
 80 86  1  0  0  0
 81150  1  0  0  0
 81151  1  0  0  0
 81152  1  0  0  0
 82153  1  0  0  0
 82154  1  0  0  0
 84155  1  0  0  0
 85156  1  0  0  0
 86157  1  0  0  0
M  ISO  4   1 100  68 101  82 101  84 100
M  END
> <chiral flag>
0

> <version>
0

> <s_m_source_file>
/data/baiqing/PycharmProjects/Reinvent-master-3.2/result/LINK_invent/BTK/process_docking_weight1_custom_product_contain_oxygen_bond_distance_aromatic_linkinvent_7_9_3/rearranged_h_0059.sdf

> <i_m_source_file_index>
14

> <r_mmod_Potential_Energy-OPLS-2005>
89.0146408081055

> <r_mmod_Stretch_Energy-OPLS-2005>
86.3680801391602

> <r_mmod_Bend_Energy-OPLS-2005>
143.613220214844

> <r_mmod_Torsional_Energy-OPLS-2005>
245.418121337891

> <r_mmod_Improper_Torsional_Energy-OPLS-2005>
4.60488605499268

> <r_mmod_Van_der_Waal_Energy-OPLS-2005>
136.671524047852

> <r_mmod_Electrostatic_Energy-OPLS-2005>
-336.840209960938

> <r_mmod_Solvation_Energy-OPLS-2005>
-245.733627319336

> <b_mmod_Minimization_Converged-OPLS-2005>
0

> <r_mmod_RMS_Derivative-OPLS-2005>
2.16497540473938

$$$$
14
                    3D
 Structure written by MMmdl.
156164  0  0  1  0            999 V2000
  -30.7163  -14.4871   20.5682 C   0  0  0  0  0  0
  -30.4179  -12.3182   19.4285 C   0  0  0  0  0  0
  -29.4922  -12.5002   18.2090 C   0  0  0  0  0  0
  -28.0155  -12.3580   18.6242 C   0  0  0  0  0  0
  -27.6581  -13.2111   19.8711 C   0  0  2  0  0  0
  -28.7012  -13.0230   20.9962 C   0  0  0  0  0  0
  -25.2575  -13.8173   20.5686 C   0  0  0  0  0  0
  -24.1833  -13.0444   20.9187 C   0  0  0  0  0  0
  -24.6392  -11.6912   20.8745 C   0  0  0  0  0  0
  -23.9062  -10.4295   21.0410 C   0  0  0  0  0  0
  -24.3614   -9.4210   21.9186 C   0  0  0  0  0  0
  -23.6291   -8.2245   22.0755 C   0  0  0  0  0  0
  -22.4274   -8.0283   21.3545 C   0  0  0  0  0  0
  -21.9909   -9.0257   20.4647 C   0  0  0  0  0  0
  -22.7236  -10.2137   20.3057 C   0  0  0  0  0  0
  -21.6853   -6.0736   22.5278 C   0  0  0  0  0  0
  -21.4014   -6.5640   23.8211 C   0  0  0  0  0  0
  -21.3658   -5.6793   24.9174 C   0  0  0  0  0  0
  -21.6044   -4.3055   24.7225 C   0  0  0  0  0  0
  -21.8820   -3.8147   23.4346 C   0  0  0  0  0  0
  -21.9193   -4.6964   22.3402 C   0  0  0  0  0  0
  -22.7854  -13.5239   21.1847 C   0  0  0  0  0  0
  -22.1662   -4.2149   21.0980 F   0  0  0  0  0  0
  -21.5628   -3.4540   25.7738 F   0  0  0  0  0  0
  -30.0282  -13.3201   20.4348 N   0  0  0  0  0  0
  -26.3008  -12.9348   20.3358 N   0  0  0  0  0  0
  -25.9320  -11.6505   20.5776 N   0  0  0  0  0  0
  -22.0493  -12.8230   22.0401 N   0  0  0  0  0  0
  -25.4299  -15.1892   20.4088 N   0  0  0  0  0  0
  -31.8475  -14.6378   20.1008 O   0  0  0  0  0  0
  -21.6639   -6.8879   21.4241 O   0  0  0  0  0  0
  -22.3542  -14.5548   20.6699 O   0  0  0  0  0  0
  -24.6171  -31.8671   23.2094 C   0  0  0  0  0  0
  -25.9057  -32.4819   23.8392 C   0  0  1  0  0  0
  -27.2260  -27.4154   20.1063 C   0  0  0  0  0  0
  -25.5906  -33.8617   24.2324 N   0  0  0  0  0  0
  -23.4057  -30.4918   21.5501 C   0  0  2  0  0  0
  -24.8525  -28.9598   20.1104 C   0  0  0  0  0  0
  -22.7425  -29.4659   22.4979 C   0  0  0  0  0  0
  -18.0277  -28.1379   22.8494 C   0  0  0  0  0  0
  -24.1487  -36.7314   23.2639 C   0  0  0  0  0  0
  -25.9369  -30.8290   21.3647 C   0  0  0  0  0  0
  -26.0150  -29.4633   20.7096 C   0  0  0  0  0  0
  -27.2087  -28.7004   20.7012 C   0  0  0  0  0  0
  -26.0519  -26.9413   19.4822 C   0  0  0  0  0  0
  -24.8672  -27.6995   19.4899 C   0  0  0  0  0  0
  -23.6144  -29.8272   20.1636 C   0  0  0  0  0  0
  -25.4109  -36.3111   24.0337 C   0  0  1  0  0  0
  -20.5869  -28.3672   23.1309 C   0  0  2  0  0  0
  -20.6768  -26.9405   22.5416 C   0  0  0  0  0  0
  -19.5745  -26.6388   21.5212 C   0  0  0  0  0  0
  -18.1923  -26.7927   22.1621 C   0  0  0  0  0  0
  -19.1526  -28.8841   23.2899 C   0  0  0  0  0  0
  -18.9455  -30.1444   23.8914 C   0  0  0  0  0  0
  -17.6457  -30.6587   24.0567 C   0  0  0  0  0  0
  -25.9037  -34.9475   23.5128 C   0  0  0  0  0  0
  -16.5348  -29.9090   23.6326 C   0  0  0  0  0  0
  -16.7265  -28.6504   23.0353 C   0  0  0  0  0  0
  -26.4480  -31.6600   25.0724 C   0  0  0  0  0  0
  -25.3743  -31.3700   26.1469 C   0  0  0  0  0  0
  -27.0317  -30.3045   24.6101 C   0  0  0  0  0  0
  -27.6058  -32.4318   25.7484 C   0  0  0  0  0  0
  -27.5580  -37.1811   24.8465 C   0  0  0  0  0  0
  -21.4151  -29.3038   22.3715 N   0  0  0  0  0  0
  -26.4295  -37.3793   23.9406 N   0  0  0  0  0  0
  -24.6716  -31.0765   22.0998 N   0  0  0  0  0  0
  -23.4190  -28.8200   23.3027 O   0  0  0  0  0  0
  -28.3546  -26.6182   20.1351 O   0  0  0  0  0  0
  -26.5598  -34.8928   22.4689 O   0  0  0  0  0  0
  -23.5359  -32.1427   23.7479 O   0  0  0  0  0  0
  -29.7008  -18.0128   21.1606 C   0  0  0  0  0  0
  -31.8821  -17.0997   21.6441 C   0  0  0  0  0  0
  -30.5368  -16.8716   21.2825 C   0  0  0  0  0  0
  -30.2340  -19.3147   21.3711 C   0  0  0  0  0  0
  -31.5981  -19.4040   21.7571 C   0  0  0  0  0  0
  -29.5987  -21.6220   20.6300 C   0  0  0  0  0  0
  -32.2711  -20.7071   22.1559 C   0  0  0  0  0  0
  -28.6486  -22.8052   20.9197 C   0  0  0  0  0  0
  -29.0255  -24.1768   20.2723 C   0  0  0  0  0  0
  -28.1630  -25.3506   20.8080 C   0  0  0  0  0  0
  -32.3950  -18.3228   21.8779 N   0  0  0  0  0  0
  -29.3786  -20.4683   21.3006 N   0  0  0  0  0  0
  -30.0331  -15.5359   21.0840 N   0  0  0  0  0  0
  -30.5046  -21.7430   19.8031 O   0  0  0  0  0  0
  -31.4625  -12.4085   19.1255 H   0  0  0  0  0  0
  -30.3163  -11.3139   19.8426 H   0  0  0  0  0  0
  -29.7356  -11.7673   17.4386 H   0  0  0  0  0  0
  -29.6560  -13.4816   17.7609 H   0  0  0  0  0  0
  -27.8330  -11.3033   18.8336 H   0  0  0  0  0  0
  -27.3623  -12.6181   17.7905 H   0  0  0  0  0  0
  -27.6939  -14.2541   19.5561 H   0  0  0  0  0  0
  -28.6817  -11.9974   21.3681 H   0  0  0  0  0  0
  -28.4642  -13.6516   21.8558 H   0  0  0  0  0  0
  -25.2760   -9.5685   22.4760 H   0  0  0  0  0  0
  -24.0001   -7.4636   22.7474 H   0  0  0  0  0  0
  -21.0840   -8.8777   19.8952 H   0  0  0  0  0  0
  -22.3698  -10.9677   19.6165 H   0  0  0  0  0  0
  -21.2008   -7.6148   23.9714 H   0  0  0  0  0  0
  -21.1478   -6.0524   25.9077 H   0  0  0  0  0  0
  -22.0600   -2.7609   23.2847 H   0  0  0  0  0  0
  -22.4107  -11.9885   22.4780 H   0  0  0  0  0  0
  -21.1113  -13.1255   22.2610 H   0  0  0  0  0  0
  -24.6628  -15.8446   20.5132 H   0  0  0  0  0  0
  -26.2784  -15.6253   20.0706 H   0  0  0  0  0  0
  -26.7130  -32.5529   23.1159 H   0  0  0  0  0  0
  -25.0060  -33.9775   25.0473 H   0  0  0  0  0  0
  -22.6953  -31.3096   21.4123 H   0  0  0  0  0  0
  -23.3746  -35.9652   23.3312 H   0  0  0  0  0  0
  -24.3580  -36.8919   22.2052 H   0  0  0  0  0  0
  -23.7244  -37.6524   23.6647 H   0  0  0  0  0  0
  -26.0511  -31.5958   20.5970 H   0  0  0  0  0  0
  -26.8240  -30.8817   21.9840 H   0  0  0  0  0  0
  -28.1040  -29.0806   21.1733 H   0  0  0  0  0  0
  -26.0477  -25.9748   18.9978 H   0  0  0  0  0  0
  -23.9764  -27.3093   19.0170 H   0  0  0  0  0  0
  -23.7215  -30.6043   19.4059 H   0  0  0  0  0  0
  -22.7378  -29.2481   19.8676 H   0  0  0  0  0  0
  -25.1286  -36.1978   25.0831 H   0  0  0  0  0  0
  -20.9960  -28.3242   24.1429 H   0  0  0  0  0  0
  -20.5673  -26.2280   23.3607 H   0  0  0  0  0  0
  -21.6638  -26.7451   22.1205 H   0  0  0  0  0  0
  -19.6911  -25.6303   21.1231 H   0  0  0  0  0  0
  -19.6685  -27.3208   20.6750 H   0  0  0  0  0  0
  -17.4195  -26.6680   21.4020 H   0  0  0  0  0  0
  -18.0319  -26.0061   22.9010 H   0  0  0  0  0  0
  -19.7932  -30.7250   24.2295 H   0  0  0  0  0  0
  -17.5017  -31.6270   24.5165 H   0  0  0  0  0  0
  -15.5350  -30.3002   23.7641 H   0  0  0  0  0  0
  -15.8662  -28.0829   22.7066 H   0  0  0  0  0  0
  -24.5924  -30.7041   25.7802 H   0  0  0  0  0  0
  -24.8924  -32.2851   26.4922 H   0  0  0  0  0  0
  -25.8096  -30.8868   27.0226 H   0  0  0  0  0  0
  -26.2862  -29.6797   24.1168 H   0  0  0  0  0  0
  -27.4106  -29.7289   25.4556 H   0  0  0  0  0  0
  -27.8687  -30.4368   23.9241 H   0  0  0  0  0  0
  -27.2685  -33.3610   26.2088 H   0  0  0  0  0  0
  -28.3854  -32.6889   25.0301 H   0  0  0  0  0  0
  -28.0744  -31.8426   26.5377 H   0  0  0  0  0  0
  -28.2609  -38.0099   24.7510 H   0  0  0  0  0  0
  -28.1066  -36.2632   24.6297 H   0  0  0  0  0  0
  -27.2297  -37.1472   25.8868 H   0  0  0  0  0  0
  -20.9313  -29.8763   21.6939 H   0  0  0  0  0  0
  -26.0188  -38.2874   24.1400 H   0  0  0  0  0  0
  -28.6590  -17.8925   20.9008 H   0  0  0  0  0  0
  -32.5746  -16.2864   21.7997 H   0  0  0  0  0  0
  -31.5914  -21.3465   22.7183 H   0  0  0  0  0  0
  -32.6138  -21.2474   21.2743 H   0  0  0  0  0  0
  -33.1394  -20.5264   22.7898 H   0  0  0  0  0  0
  -28.6106  -22.9277   22.0029 H   0  0  0  0  0  0
  -27.6427  -22.5202   20.6095 H   0  0  0  0  0  0
  -28.9035  -24.1034   19.1913 H   0  0  0  0  0  0
  -30.0786  -24.3988   20.4483 H   0  0  0  0  0  0
  -28.3937  -25.5050   21.8629 H   0  0  0  0  0  0
  -27.1213  -25.0284   20.7916 H   0  0  0  0  0  0
  -28.5107  -20.4172   21.8193 H   0  0  0  0  0  0
  -29.0583  -15.3704   21.2863 H   0  0  0  0  0  0
  1 25  1  0  0  0
  1 30  2  0  0  0
  1 83  1  0  0  0
  2  3  1  0  0  0
  2 25  1  0  0  0
  2 85  1  0  0  0
  2 86  1  0  0  0
  3  4  1  0  0  0
  3 87  1  0  0  0
  3 88  1  0  0  0
  4  5  1  0  0  0
  4 89  1  0  0  0
  4 90  1  0  0  0
  5  6  1  0  0  0
  5 26  1  0  0  0
  5 91  1  0  0  0
  6 25  1  0  0  0
  6 92  1  0  0  0
  6 93  1  0  0  0
  7  8  2  0  0  0
  7 26  1  0  0  0
  7 29  1  0  0  0
  8  9  1  0  0  0
  8 22  1  0  0  0
  9 10  1  0  0  0
  9 27  2  0  0  0
 10 11  2  0  0  0
 10 15  1  0  0  0
 11 12  1  0  0  0
 11 94  1  0  0  0
 12 13  2  0  0  0
 12 95  1  0  0  0
 13 14  1  0  0  0
 13 31  1  0  0  0
 14 15  2  0  0  0
 14 96  1  0  0  0
 15 97  1  0  0  0
 16 17  2  0  0  0
 16 21  1  0  0  0
 16 31  1  0  0  0
 17 18  1  0  0  0
 17 98  1  0  0  0
 18 19  2  0  0  0
 18 99  1  0  0  0
 19 20  1  0  0  0
 19 24  1  0  0  0
 20 21  2  0  0  0
 20100  1  0  0  0
 21 23  1  0  0  0
 22 28  1  0  0  0
 22 32  2  0  0  0
 26 27  1  0  0  0
 28101  1  0  0  0
 28102  1  0  0  0
 29103  1  0  0  0
 29104  1  0  0  0
 33 34  1  0  0  0
 33 66  1  0  0  0
 33 70  2  0  0  0
 34 36  1  0  0  0
 34 59  1  0  0  0
 34105  1  0  0  0
 35 44  2  0  0  0
 35 45  1  0  0  0
 35 68  1  0  0  0
 36 56  1  0  0  0
 36106  1  0  0  0
 37 39  1  0  0  0
 37 47  1  0  0  0
 37 66  1  0  0  0
 37107  1  0  0  0
 38 43  2  0  0  0
 38 46  1  0  0  0
 38 47  1  0  0  0
 39 64  1  0  0  0
 39 67  2  0  0  0
 40 52  1  0  0  0
 40 53  2  0  0  0
 40 58  1  0  0  0
 41108  1  0  0  0
 41109  1  0  0  0
 41110  1  0  0  0
 41 48  1  0  0  0
 42 43  1  0  0  0
 42 66  1  0  0  0
 42111  1  0  0  0
 42112  1  0  0  0
 43 44  1  0  0  0
 44113  1  0  0  0
 45 46  2  0  0  0
 45114  1  0  0  0
 46115  1  0  0  0
 47116  1  0  0  0
 47117  1  0  0  0
 48 56  1  0  0  0
 48 65  1  0  0  0
 48118  1  0  0  0
 49 50  1  0  0  0
 49 53  1  0  0  0
 49 64  1  0  0  0
 49119  1  0  0  0
 50 51  1  0  0  0
 50120  1  0  0  0
 50121  1  0  0  0
 51 52  1  0  0  0
 51122  1  0  0  0
 51123  1  0  0  0
 52124  1  0  0  0
 52125  1  0  0  0
 53 54  1  0  0  0
 54 55  2  0  0  0
 54126  1  0  0  0
 55 57  1  0  0  0
 55127  1  0  0  0
 56 69  2  0  0  0
 57 58  2  0  0  0
 57128  1  0  0  0
 58129  1  0  0  0
 59 60  1  0  0  0
 59 61  1  0  0  0
 59 62  1  0  0  0
 60130  1  0  0  0
 60131  1  0  0  0
 60132  1  0  0  0
 61133  1  0  0  0
 61134  1  0  0  0
 61135  1  0  0  0
 62136  1  0  0  0
 62137  1  0  0  0
 62138  1  0  0  0
 63 65  1  0  0  0
 63139  1  0  0  0
 63140  1  0  0  0
 63141  1  0  0  0
 64142  1  0  0  0
 65143  1  0  0  0
 68 80  1  0  0  0
 71 73  2  0  0  0
 71 74  1  0  0  0
 71144  1  0  0  0
 72 73  1  0  0  0
 72 81  2  0  0  0
 72145  1  0  0  0
 73 83  1  0  0  0
 74 75  2  0  0  0
 74 82  1  0  0  0
 75 77  1  0  0  0
 75 81  1  0  0  0
 76 78  1  0  0  0
 76 82  1  0  0  0
 76 84  2  0  0  0
 77146  1  0  0  0
 77147  1  0  0  0
 77148  1  0  0  0
 78 79  1  0  0  0
 78149  1  0  0  0
 78150  1  0  0  0
 79 80  1  0  0  0
 79151  1  0  0  0
 79152  1  0  0  0
 80153  1  0  0  0
 80154  1  0  0  0
 82155  1  0  0  0
 83156  1  0  0  0
M  ISO  4   1 100  68 101  80 101  83 100
M  END
> <chiral flag>
0

> <version>
0

> <s_m_source_file>
/data/baiqing/PycharmProjects/Reinvent-master-3.2/result/LINK_invent/BTK/process_docking_weight1_custom_product_contain_oxygen_bond_distance_aromatic_linkinvent_7_9_3/rearranged_h_0059.sdf

> <i_m_source_file_index>
15

> <r_mmod_Potential_Energy-OPLS-2005>
-270.973602294922

> <r_mmod_Stretch_Energy-OPLS-2005>
43.0816841125488

> <r_mmod_Bend_Energy-OPLS-2005>
97.8166580200195

> <r_mmod_Torsional_Energy-OPLS-2005>
259.258331298828

> <r_mmod_Improper_Torsional_Energy-OPLS-2005>
4.21196126937866

> <r_mmod_Van_der_Waal_Energy-OPLS-2005>
164.576721191406

> <r_mmod_Electrostatic_Energy-OPLS-2005>
-606.340576171875

> <r_mmod_Solvation_Energy-OPLS-2005>
-250.804443359375

> <b_mmod_Minimization_Converged-OPLS-2005>
0

> <r_mmod_RMS_Derivative-OPLS-2005>
0.346460193395615

$$$$
15
                    3D
 Structure written by MMmdl.
152160  0  0  1  0            999 V2000
  -30.6449  -14.5701   20.5715 C   0  0  0  0  0  0
  -30.4389  -12.3621   19.4648 C   0  0  0  0  0  0
  -29.5187  -12.5174   18.2335 C   0  0  0  0  0  0
  -28.0368  -12.3673   18.6297 C   0  0  0  0  0  0
  -27.6629  -13.2135   19.8764 C   0  0  2  0  0  0
  -28.6968  -13.0220   21.0094 C   0  0  0  0  0  0
  -25.2608  -13.8166   20.5671 C   0  0  0  0  0  0
  -24.1862  -13.0434   20.9157 C   0  0  0  0  0  0
  -24.6421  -11.6907   20.8711 C   0  0  0  0  0  0
  -23.9070  -10.4305   21.0389 C   0  0  0  0  0  0
  -24.3625   -9.4221   21.9168 C   0  0  0  0  0  0
  -23.6301   -8.2252   22.0733 C   0  0  0  0  0  0
  -22.4273   -8.0282   21.3536 C   0  0  0  0  0  0
  -21.9925   -9.0253   20.4628 C   0  0  0  0  0  0
  -22.7241  -10.2139   20.3037 C   0  0  0  0  0  0
  -21.6853   -6.0739   22.5286 C   0  0  0  0  0  0
  -21.4013   -6.5642   23.8217 C   0  0  0  0  0  0
  -21.3658   -5.6789   24.9178 C   0  0  0  0  0  0
  -21.6039   -4.3046   24.7233 C   0  0  0  0  0  0
  -21.8817   -3.8148   23.4349 C   0  0  0  0  0  0
  -21.9203   -4.6970   22.3411 C   0  0  0  0  0  0
  -22.7891  -13.5233   21.1847 C   0  0  0  0  0  0
  -22.1658   -4.2155   21.0986 F   0  0  0  0  0  0
  -21.5641   -3.4525   25.7748 F   0  0  0  0  0  0
  -30.0244  -13.3552   20.4743 N   0  0  0  0  0  0
  -26.3041  -12.9338   20.3329 N   0  0  0  0  0  0
  -25.9353  -11.6491   20.5733 N   0  0  0  0  0  0
  -22.0529  -12.8219   22.0388 N   0  0  0  0  0  0
  -25.4364  -15.1892   20.4111 N   0  0  0  0  0  0
  -31.7631  -14.7678   20.0822 O   0  0  0  0  0  0
  -21.6626   -6.8878   21.4247 O   0  0  0  0  0  0
  -22.3570  -14.5536   20.6689 O   0  0  0  0  0  0
  -24.6153  -31.8628   23.2010 C   0  0  0  0  0  0
  -25.9033  -32.4803   23.8340 C   0  0  1  0  0  0
  -27.2472  -27.3907   20.1350 C   0  0  0  0  0  0
  -25.5873  -33.8593   24.2287 N   0  0  0  0  0  0
  -23.4086  -30.4822   21.5362 C   0  0  2  0  0  0
  -24.8624  -28.9388   20.1102 C   0  0  0  0  0  0
  -22.7425  -29.4622   22.4899 C   0  0  0  0  0  0
  -18.0258  -28.1381   22.8461 C   0  0  0  0  0  0
  -24.1493  -36.7316   23.2640 C   0  0  0  0  0  0
  -25.9353  -30.8283   21.3498 C   0  0  0  0  0  0
  -26.0191  -29.4536   20.7068 C   0  0  0  0  0  0
  -27.2103  -28.6889   20.7080 C   0  0  0  0  0  0
  -26.0722  -26.8973   19.5264 C   0  0  0  0  0  0
  -24.8865  -27.6639   19.5133 C   0  0  0  0  0  0
  -23.6231  -29.8064   20.1518 C   0  0  0  0  0  0
  -25.4114  -36.3108   24.0329 C   0  0  1  0  0  0
  -20.5867  -28.3661   23.1305 C   0  0  2  0  0  0
  -20.6743  -26.9390   22.5426 C   0  0  0  0  0  0
  -19.5745  -26.6365   21.5208 C   0  0  0  0  0  0
  -18.1915  -26.7917   22.1605 C   0  0  0  0  0  0
  -19.1511  -28.8830   23.2889 C   0  0  0  0  0  0
  -18.9449  -30.1431   23.8921 C   0  0  0  0  0  0
  -17.6462  -30.6586   24.0562 C   0  0  0  0  0  0
  -25.9022  -34.9470   23.5114 C   0  0  0  0  0  0
  -16.5350  -29.9103   23.6316 C   0  0  0  0  0  0
  -16.7256  -28.6518   23.0333 C   0  0  0  0  0  0
  -26.4457  -31.6587   25.0676 C   0  0  0  0  0  0
  -25.3739  -31.3693   26.1454 C   0  0  0  0  0  0
  -27.0250  -30.3025   24.6011 C   0  0  0  0  0  0
  -27.6027  -32.4299   25.7470 C   0  0  0  0  0  0
  -27.5585  -37.1815   24.8471 C   0  0  0  0  0  0
  -21.4138  -29.3054   22.3701 N   0  0  0  0  0  0
  -26.4304  -37.3793   23.9401 N   0  0  0  0  0  0
  -24.6711  -31.0737   22.0887 N   0  0  0  0  0  0
  -23.4201  -28.8157   23.2935 O   0  0  0  0  0  0
  -28.4318  -26.6705   20.2127 O   0  0  0  0  0  0
  -26.5606  -34.8922   22.4694 O   0  0  0  0  0  0
  -23.5339  -32.1363   23.7396 O   0  0  0  0  0  0
  -29.0234  -18.1538   18.5398 C   0  0  0  0  0  0
  -29.0821  -19.3580   19.2603 C   0  0  0  0  0  0
  -29.3318  -16.9333   19.1646 C   0  0  0  0  0  0
  -29.4221  -19.3772   20.6312 C   0  0  0  0  0  0
  -29.7001  -16.8855   20.5267 C   0  0  0  0  0  0
  -29.7234  -18.1173   21.2635 C   0  0  0  0  0  0
  -28.9087  -22.9809   21.1855 C   0  0  0  0  0  0
  -29.5192  -20.7313   21.3360 C   0  0  0  0  0  0
  -27.9992  -24.2131   20.9045 C   0  0  0  0  0  0
  -28.5438  -25.2618   19.8724 C   0  0  0  0  0  0
  -28.6391  -21.7477   20.8933 N   0  0  0  0  0  0
  -29.9336  -15.5878   21.1307 N   0  0  0  0  0  0
  -30.3464  -20.8505   22.2438 O   0  0  0  0  0  0
  -30.0413  -18.0750   22.5813 F   0  0  0  0  0  0
  -31.4830  -12.4829   19.1703 H   0  0  0  0  0  0
  -30.3637  -11.3540   19.8744 H   0  0  0  0  0  0
  -29.7805  -11.7814   17.4735 H   0  0  0  0  0  0
  -29.6791  -13.4944   17.7760 H   0  0  0  0  0  0
  -27.8533  -11.3110   18.8277 H   0  0  0  0  0  0
  -27.3919  -12.6290   17.7906 H   0  0  0  0  0  0
  -27.6958  -14.2576   19.5681 H   0  0  0  0  0  0
  -28.6907  -11.9885   21.3578 H   0  0  0  0  0  0
  -28.4374  -13.6232   21.8802 H   0  0  0  0  0  0
  -25.2784   -9.5687   22.4720 H   0  0  0  0  0  0
  -24.0007   -7.4646   22.7471 H   0  0  0  0  0  0
  -21.0841   -8.8770   19.8953 H   0  0  0  0  0  0
  -22.3702  -10.9661   19.6128 H   0  0  0  0  0  0
  -21.1971   -7.6146   23.9725 H   0  0  0  0  0  0
  -21.1482   -6.0512   25.9079 H   0  0  0  0  0  0
  -22.0600   -2.7616   23.2847 H   0  0  0  0  0  0
  -22.4123  -11.9860   22.4773 H   0  0  0  0  0  0
  -21.1148  -13.1269   22.2585 H   0  0  0  0  0  0
  -24.6753  -15.8485   20.5245 H   0  0  0  0  0  0
  -26.2936  -15.6274   20.0957 H   0  0  0  0  0  0
  -26.7108  -32.5525   23.1109 H   0  0  0  0  0  0
  -25.0034  -33.9734   25.0448 H   0  0  0  0  0  0
  -22.7005  -31.2996   21.3839 H   0  0  0  0  0  0
  -23.3728  -35.9681   23.3341 H   0  0  0  0  0  0
  -24.3588  -36.8899   22.2050 H   0  0  0  0  0  0
  -23.7262  -37.6534   23.6636 H   0  0  0  0  0  0
  -26.0387  -31.5898   20.5743 H   0  0  0  0  0  0
  -26.8251  -30.8951   21.9636 H   0  0  0  0  0  0
  -28.1041  -29.0807   21.1732 H   0  0  0  0  0  0
  -26.0546  -25.9161   19.0763 H   0  0  0  0  0  0
  -23.9945  -27.2581   19.0573 H   0  0  0  0  0  0
  -23.7322  -30.5770   19.3851 H   0  0  0  0  0  0
  -22.7488  -29.2240   19.8549 H   0  0  0  0  0  0
  -25.1299  -36.1973   25.0820 H   0  0  0  0  0  0
  -20.9955  -28.3213   24.1426 H   0  0  0  0  0  0
  -20.5614  -26.2262   23.3597 H   0  0  0  0  0  0
  -21.6612  -26.7413   22.1251 H   0  0  0  0  0  0
  -19.6919  -25.6277   21.1229 H   0  0  0  0  0  0
  -19.6700  -27.3169   20.6734 H   0  0  0  0  0  0
  -17.4182  -26.6636   21.4016 H   0  0  0  0  0  0
  -18.0345  -26.0079   22.9027 H   0  0  0  0  0  0
  -19.7941  -30.7215   24.2321 H   0  0  0  0  0  0
  -17.5032  -31.6278   24.5160 H   0  0  0  0  0  0
  -15.5358  -30.3038   23.7616 H   0  0  0  0  0  0
  -15.8637  -28.0856   22.7051 H   0  0  0  0  0  0
  -24.5960  -30.6962   25.7860 H   0  0  0  0  0  0
  -24.8870  -32.2827   26.4879 H   0  0  0  0  0  0
  -25.8134  -30.8947   27.0239 H   0  0  0  0  0  0
  -26.2760  -29.6823   24.1068 H   0  0  0  0  0  0
  -27.4045  -29.7224   25.4439 H   0  0  0  0  0  0
  -27.8596  -30.4357   23.9113 H   0  0  0  0  0  0
  -27.2647  -33.3619   26.2022 H   0  0  0  0  0  0
  -28.3868  -32.6819   25.0318 H   0  0  0  0  0  0
  -28.0640  -31.8417   26.5419 H   0  0  0  0  0  0
  -28.2617  -38.0096   24.7486 H   0  0  0  0  0  0
  -28.1046  -36.2613   24.6338 H   0  0  0  0  0  0
  -27.2289  -37.1545   25.8872 H   0  0  0  0  0  0
  -20.9267  -29.8847   21.7001 H   0  0  0  0  0  0
  -26.0185  -38.2878   24.1379 H   0  0  0  0  0  0
  -28.7405  -18.1660   17.4959 H   0  0  0  0  0  0
  -28.8595  -20.2830   18.7459 H   0  0  0  0  0  0
  -29.2615  -16.0248   18.5840 H   0  0  0  0  0  0
  -29.8309  -23.2712   21.6993 H   0  0  0  0  0  0
  -27.8402  -24.7194   21.8578 H   0  0  0  0  0  0
  -27.0130  -23.8729   20.5852 H   0  0  0  0  0  0
  -28.1592  -25.0689   18.8707 H   0  0  0  0  0  0
  -29.6190  -25.1032   19.7802 H   0  0  0  0  0  0
  -29.2158  -15.2996   21.7794 H   0  0  0  0  0  0
  1 25  1  0  0  0
  1 30  2  0  0  0
  1 82  1  0  0  0
  2  3  1  0  0  0
  2 25  1  0  0  0
  2 85  1  0  0  0
  2 86  1  0  0  0
  3  4  1  0  0  0
  3 87  1  0  0  0
  3 88  1  0  0  0
  4  5  1  0  0  0
  4 89  1  0  0  0
  4 90  1  0  0  0
  5  6  1  0  0  0
  5 26  1  0  0  0
  5 91  1  0  0  0
  6 25  1  0  0  0
  6 92  1  0  0  0
  6 93  1  0  0  0
  7  8  2  0  0  0
  7 26  1  0  0  0
  7 29  1  0  0  0
  8  9  1  0  0  0
  8 22  1  0  0  0
  9 10  1  0  0  0
  9 27  2  0  0  0
 10 11  2  0  0  0
 10 15  1  0  0  0
 11 12  1  0  0  0
 11 94  1  0  0  0
 12 13  2  0  0  0
 12 95  1  0  0  0
 13 14  1  0  0  0
 13 31  1  0  0  0
 14 15  2  0  0  0
 14 96  1  0  0  0
 15 97  1  0  0  0
 16 17  2  0  0  0
 16 21  1  0  0  0
 16 31  1  0  0  0
 17 18  1  0  0  0
 17 98  1  0  0  0
 18 19  2  0  0  0
 18 99  1  0  0  0
 19 20  1  0  0  0
 19 24  1  0  0  0
 20 21  2  0  0  0
 20100  1  0  0  0
 21 23  1  0  0  0
 22 28  1  0  0  0
 22 32  2  0  0  0
 26 27  1  0  0  0
 28101  1  0  0  0
 28102  1  0  0  0
 29103  1  0  0  0
 29104  1  0  0  0
 33 34  1  0  0  0
 33 66  1  0  0  0
 33 70  2  0  0  0
 34 36  1  0  0  0
 34 59  1  0  0  0
 34105  1  0  0  0
 35 44  2  0  0  0
 35 45  1  0  0  0
 35 68  1  0  0  0
 36 56  1  0  0  0
 36106  1  0  0  0
 37 39  1  0  0  0
 37 47  1  0  0  0
 37 66  1  0  0  0
 37107  1  0  0  0
 38 43  2  0  0  0
 38 46  1  0  0  0
 38 47  1  0  0  0
 39 64  1  0  0  0
 39 67  2  0  0  0
 40 52  1  0  0  0
 40 53  2  0  0  0
 40 58  1  0  0  0
 41108  1  0  0  0
 41109  1  0  0  0
 41110  1  0  0  0
 41 48  1  0  0  0
 42 43  1  0  0  0
 42 66  1  0  0  0
 42111  1  0  0  0
 42112  1  0  0  0
 43 44  1  0  0  0
 44113  1  0  0  0
 45 46  2  0  0  0
 45114  1  0  0  0
 46115  1  0  0  0
 47116  1  0  0  0
 47117  1  0  0  0
 48 56  1  0  0  0
 48 65  1  0  0  0
 48118  1  0  0  0
 49 50  1  0  0  0
 49 53  1  0  0  0
 49 64  1  0  0  0
 49119  1  0  0  0
 50 51  1  0  0  0
 50120  1  0  0  0
 50121  1  0  0  0
 51 52  1  0  0  0
 51122  1  0  0  0
 51123  1  0  0  0
 52124  1  0  0  0
 52125  1  0  0  0
 53 54  1  0  0  0
 54 55  2  0  0  0
 54126  1  0  0  0
 55 57  1  0  0  0
 55127  1  0  0  0
 56 69  2  0  0  0
 57 58  2  0  0  0
 57128  1  0  0  0
 58129  1  0  0  0
 59 60  1  0  0  0
 59 61  1  0  0  0
 59 62  1  0  0  0
 60130  1  0  0  0
 60131  1  0  0  0
 60132  1  0  0  0
 61133  1  0  0  0
 61134  1  0  0  0
 61135  1  0  0  0
 62136  1  0  0  0
 62137  1  0  0  0
 62138  1  0  0  0
 63 65  1  0  0  0
 63139  1  0  0  0
 63140  1  0  0  0
 63141  1  0  0  0
 64142  1  0  0  0
 65143  1  0  0  0
 68 80  1  0  0  0
 71 72  2  0  0  0
 71 73  1  0  0  0
 71144  1  0  0  0
 72 74  1  0  0  0
 72145  1  0  0  0
 73 75  2  0  0  0
 73146  1  0  0  0
 74 76  2  0  0  0
 74 78  1  0  0  0
 75 76  1  0  0  0
 75 82  1  0  0  0
 76 84  1  0  0  0
 77 79  1  0  0  0
 77 81  2  0  0  0
 77147  1  0  0  0
 78 81  1  0  0  0
 78 83  2  0  0  0
 79 80  1  0  0  0
 79148  1  0  0  0
 79149  1  0  0  0
 80150  1  0  0  0
 80151  1  0  0  0
 82152  1  0  0  0
M  ISO  4   1 100  68 101  80 101  82 100
M  END
> <chiral flag>
0

> <version>
0

> <s_m_source_file>
/data/baiqing/PycharmProjects/Reinvent-master-3.2/result/LINK_invent/BTK/process_docking_weight1_custom_product_contain_oxygen_bond_distance_aromatic_linkinvent_7_9_3/rearranged_h_0059.sdf

> <i_m_source_file_index>
16

> <r_mmod_Potential_Energy-OPLS-2005>
-8.53399181365967

> <r_mmod_Stretch_Energy-OPLS-2005>
60.8292236328125

> <r_mmod_Bend_Energy-OPLS-2005>
123.692604064941

> <r_mmod_Torsional_Energy-OPLS-2005>
245.323806762695

> <r_mmod_Improper_Torsional_Energy-OPLS-2005>
5.00403594970703

> <r_mmod_Van_der_Waal_Energy-OPLS-2005>
149.784362792969

> <r_mmod_Electrostatic_Energy-OPLS-2005>
-408.696563720703

> <r_mmod_Solvation_Energy-OPLS-2005>
-210.884857177734

> <b_mmod_Minimization_Converged-OPLS-2005>
0

> <r_mmod_RMS_Derivative-OPLS-2005>
3.72555732727051

$$$$
16
                    3D
 Structure written by MMmdl.
167176  0  0  1  0            999 V2000
  -30.7034  -14.5091   20.6150 C   0  0  0  0  0  0
  -30.4358  -12.3416   19.4366 C   0  0  0  0  0  0
  -29.5083  -12.5190   18.2159 C   0  0  0  0  0  0
  -28.0310  -12.3474   18.6207 C   0  0  0  0  0  0
  -27.6622  -13.1942   19.8640 C   0  0  2  0  0  0
  -28.7008  -13.0049   20.9965 C   0  0  0  0  0  0
  -25.2517  -13.8079   20.5536 C   0  0  0  0  0  0
  -24.1816  -13.0376   20.9179 C   0  0  0  0  0  0
  -24.6392  -11.6859   20.8750 C   0  0  0  0  0  0
  -23.9057  -10.4262   21.0420 C   0  0  0  0  0  0
  -24.3608   -9.4177   21.9197 C   0  0  0  0  0  0
  -23.6268   -8.2225   22.0767 C   0  0  0  0  0  0
  -22.4254   -8.0276   21.3554 C   0  0  0  0  0  0
  -21.9885   -9.0253   20.4659 C   0  0  0  0  0  0
  -22.7233  -10.2118   20.3061 C   0  0  0  0  0  0
  -21.6848   -6.0719   22.5268 C   0  0  0  0  0  0
  -21.4013   -6.5622   23.8204 C   0  0  0  0  0  0
  -21.3661   -5.6780   24.9166 C   0  0  0  0  0  0
  -21.6039   -4.3042   24.7217 C   0  0  0  0  0  0
  -21.8823   -3.8136   23.4340 C   0  0  0  0  0  0
  -21.9193   -4.6949   22.3393 C   0  0  0  0  0  0
  -22.7843  -13.5193   21.1843 C   0  0  0  0  0  0
  -22.1661   -4.2134   21.0970 F   0  0  0  0  0  0
  -21.5632   -3.4527   25.7730 F   0  0  0  0  0  0
  -30.0422  -13.3210   20.4680 N   0  0  0  0  0  0
  -26.2999  -12.9264   20.3250 N   0  0  0  0  0  0
  -25.9312  -11.6442   20.5745 N   0  0  0  0  0  0
  -22.0463  -12.8235   22.0417 N   0  0  0  0  0  0
  -25.4011  -15.1772   20.3691 N   0  0  0  0  0  0
  -31.7704  -14.7462   20.0415 O   0  0  0  0  0  0
  -21.6626   -6.8866   21.4235 O   0  0  0  0  0  0
  -22.3533  -14.5502   20.6681 O   0  0  0  0  0  0
  -24.6168  -31.8673   23.2097 C   0  0  0  0  0  0
  -25.9054  -32.4822   23.8401 C   0  0  1  0  0  0
  -27.2385  -27.4126   20.1151 C   0  0  0  0  0  0
  -25.5907  -33.8615   24.2332 N   0  0  0  0  0  0
  -23.4078  -30.4896   21.5489 C   0  0  2  0  0  0
  -24.8602  -28.9507   20.1198 C   0  0  0  0  0  0
  -22.7428  -29.4653   22.4968 C   0  0  0  0  0  0
  -18.0282  -28.1384   22.8487 C   0  0  0  0  0  0
  -24.1487  -36.7311   23.2638 C   0  0  0  0  0  0
  -25.9386  -30.8232   21.3710 C   0  0  0  0  0  0
  -26.0189  -29.4516   20.7296 C   0  0  0  0  0  0
  -27.2121  -28.6859   20.7379 C   0  0  0  0  0  0
  -26.0703  -26.9385   19.4883 C   0  0  0  0  0  0
  -24.8799  -27.6901   19.4994 C   0  0  0  0  0  0
  -23.6222  -29.8206   20.1646 C   0  0  0  0  0  0
  -25.4101  -36.3109   24.0343 C   0  0  1  0  0  0
  -20.5875  -28.3678   23.1306 C   0  0  2  0  0  0
  -20.6774  -26.9405   22.5421 C   0  0  0  0  0  0
  -19.5749  -26.6386   21.5216 C   0  0  0  0  0  0
  -18.1924  -26.7931   22.1622 C   0  0  0  0  0  0
  -19.1531  -28.8846   23.2896 C   0  0  0  0  0  0
  -18.9460  -30.1451   23.8910 C   0  0  0  0  0  0
  -17.6459  -30.6584   24.0569 C   0  0  0  0  0  0
  -25.9031  -34.9472   23.5131 C   0  0  0  0  0  0
  -16.5352  -29.9088   23.6327 C   0  0  0  0  0  0
  -16.7269  -28.6507   23.0344 C   0  0  0  0  0  0
  -26.4480  -31.6595   25.0728 C   0  0  0  0  0  0
  -25.3756  -31.3722   26.1490 C   0  0  0  0  0  0
  -27.0294  -30.3026   24.6113 C   0  0  0  0  0  0
  -27.6067  -32.4308   25.7480 C   0  0  0  0  0  0
  -27.5576  -37.1806   24.8458 C   0  0  0  0  0  0
  -21.4150  -29.3039   22.3700 N   0  0  0  0  0  0
  -26.4289  -37.3792   23.9409 N   0  0  0  0  0  0
  -24.6721  -31.0752   22.1011 N   0  0  0  0  0  0
  -23.4179  -28.8194   23.3024 O   0  0  0  0  0  0
  -28.3564  -26.6054   20.0413 O   0  0  0  0  0  0
  -26.5585  -34.8927   22.4689 O   0  0  0  0  0  0
  -23.5357  -32.1432   23.7479 O   0  0  0  0  0  0
  -27.8636  -18.1551   20.3505 C   0  0  0  0  0  0
  -28.6372  -19.3110   20.5202 C   0  0  0  0  0  0
  -28.4055  -16.8988   20.6571 C   0  0  0  0  0  0
  -29.9593  -19.2315   21.0116 C   0  0  0  0  0  0
  -30.5246  -17.9333   21.2760 C   0  0  0  0  0  0
  -29.7360  -16.7517   21.0864 C   0  0  0  0  0  0
  -29.2031  -22.3146   22.1149 C   0  0  0  0  0  0
  -28.5932  -23.7321   22.0044 C   0  0  0  0  0  0
  -29.8548  -24.1300   19.9160 C   0  0  0  0  0  0
  -30.5177  -22.7285   20.0421 C   0  0  0  0  0  0
  -29.5142  -24.7385   21.2863 C   0  0  1  0  0  0
  -32.0185  -17.7327   23.3264 C   0  0  0  0  0  0
  -31.9532  -17.8038   21.7967 C   0  0  0  0  0  0
  -30.7444  -20.5459   21.2541 C   0  0  0  0  0  0
  -28.9851  -26.2178   21.2686 C   0  0  0  0  0  0
  -30.0353  -21.8588   21.1406 N   0  0  0  0  0  0
  -30.1263  -15.4121   21.4397 N   0  0  0  0  0  0
  -28.9039  -21.6309   23.0980 O   0  0  0  0  0  0
  -31.4796  -12.4517   19.1368 H   0  0  0  0  0  0
  -30.3508  -11.3293   19.8340 H   0  0  0  0  0  0
  -29.7687  -11.7995   17.4382 H   0  0  0  0  0  0
  -29.6585  -13.5087   17.7810 H   0  0  0  0  0  0
  -27.8622  -11.2901   18.8275 H   0  0  0  0  0  0
  -27.3813  -12.6028   17.7829 H   0  0  0  0  0  0
  -27.6980  -14.2267   19.5279 H   0  0  0  0  0  0
  -28.6876  -11.9718   21.3478 H   0  0  0  0  0  0
  -28.4287  -13.6046   21.8654 H   0  0  0  0  0  0
  -25.2755   -9.5638   22.4770 H   0  0  0  0  0  0
  -23.9972   -7.4609   22.7483 H   0  0  0  0  0  0
  -21.0814   -8.8778   19.8965 H   0  0  0  0  0  0
  -22.3709  -10.9658   19.6164 H   0  0  0  0  0  0
  -21.2005   -7.6129   23.9696 H   0  0  0  0  0  0
  -21.1481   -6.0513   25.9069 H   0  0  0  0  0  0
  -22.0605   -2.7595   23.2846 H   0  0  0  0  0  0
  -22.4033  -11.9895   22.4836 H   0  0  0  0  0  0
  -21.1092  -13.1316   22.2597 H   0  0  0  0  0  0
  -24.6062  -15.8036   20.4341 H   0  0  0  0  0  0
  -26.1883  -15.5939   19.8928 H   0  0  0  0  0  0
  -26.7126  -32.5540   23.1166 H   0  0  0  0  0  0
  -25.0087  -33.9771   25.0502 H   0  0  0  0  0  0
  -22.6975  -31.3065   21.4073 H   0  0  0  0  0  0
  -23.3745  -35.9649   23.3307 H   0  0  0  0  0  0
  -24.3590  -36.8912   22.2050 H   0  0  0  0  0  0
  -23.7245  -37.6522   23.6646 H   0  0  0  0  0  0
  -26.0525  -31.5832   20.5969 H   0  0  0  0  0  0
  -26.8263  -30.8843   21.9883 H   0  0  0  0  0  0
  -28.1056  -29.0707   21.2091 H   0  0  0  0  0  0
  -26.0827  -25.9745   18.9998 H   0  0  0  0  0  0
  -23.9920  -27.2971   19.0236 H   0  0  0  0  0  0
  -23.7343  -30.5947   19.4044 H   0  0  0  0  0  0
  -22.7460  -29.2425   19.8658 H   0  0  0  0  0  0
  -25.1277  -36.1977   25.0838 H   0  0  0  0  0  0
  -20.9973  -28.3264   24.1424 H   0  0  0  0  0  0
  -20.5681  -26.2284   23.3616 H   0  0  0  0  0  0
  -21.6648  -26.7448   22.1217 H   0  0  0  0  0  0
  -19.6909  -25.6301   21.1235 H   0  0  0  0  0  0
  -19.6684  -27.3203   20.6751 H   0  0  0  0  0  0
  -17.4199  -26.6690   21.4019 H   0  0  0  0  0  0
  -18.0307  -26.0069   22.9010 H   0  0  0  0  0  0
  -19.7937  -30.7265   24.2281 H   0  0  0  0  0  0
  -17.5017  -31.6264   24.5172 H   0  0  0  0  0  0
  -15.5353  -30.2994   23.7642 H   0  0  0  0  0  0
  -15.8670  -28.0831   22.7048 H   0  0  0  0  0  0
  -24.5904  -30.7087   25.7845 H   0  0  0  0  0  0
  -24.8984  -32.2891   26.4959 H   0  0  0  0  0  0
  -25.8126  -30.8879   27.0233 H   0  0  0  0  0  0
  -26.2826  -29.6792   24.1182 H   0  0  0  0  0  0
  -27.4057  -29.7261   25.4574 H   0  0  0  0  0  0
  -27.8672  -30.4314   23.9257 H   0  0  0  0  0  0
  -27.2700  -33.3604   26.2078 H   0  0  0  0  0  0
  -28.3867  -32.6870   25.0299 H   0  0  0  0  0  0
  -28.0743  -31.8417   26.5379 H   0  0  0  0  0  0
  -28.2608  -38.0092   24.7507 H   0  0  0  0  0  0
  -28.1061  -36.2628   24.6279 H   0  0  0  0  0  0
  -27.2303  -37.1458   25.8865 H   0  0  0  0  0  0
  -20.9313  -29.8755   21.6916 H   0  0  0  0  0  0
  -26.0177  -38.2871   24.1421 H   0  0  0  0  0  0
  -26.8409  -18.2342   20.0088 H   0  0  0  0  0  0
  -28.1830  -20.2645   20.2918 H   0  0  0  0  0  0
  -27.7768  -16.0341   20.5791 H   0  0  0  0  0  0
  -28.3706  -24.0930   23.0094 H   0  0  0  0  0  0
  -27.6383  -23.6588   21.4833 H   0  0  0  0  0  0
  -28.9402  -24.0433   19.3271 H   0  0  0  0  0  0
  -30.5099  -24.7979   19.3551 H   0  0  0  0  0  0
  -31.5884  -22.8736   20.1911 H   0  0  0  0  0  0
  -30.4151  -22.1944   19.0962 H   0  0  0  0  0  0
  -30.4376  -24.7699   21.8671 H   0  0  0  0  0  0
  -33.0521  -17.6561   23.6647 H   0  0  0  0  0  0
  -31.4840  -16.8603   23.7017 H   0  0  0  0  0  0
  -31.5823  -18.6196   23.7864 H   0  0  0  0  0  0
  -32.5666  -18.6294   21.4390 H   0  0  0  0  0  0
  -32.4161  -16.9141   21.3721 H   0  0  0  0  0  0
  -31.5872  -20.5403   20.5619 H   0  0  0  0  0  0
  -31.1907  -20.4948   22.2485 H   0  0  0  0  0  0
  -29.8263  -26.8959   21.4175 H   0  0  0  0  0  0
  -28.3223  -26.3831   22.1211 H   0  0  0  0  0  0
  -29.4213  -14.9451   21.9900 H   0  0  0  0  0  0
  1 25  1  0  0  0
  1 30  2  0  0  0
  1 87  1  0  0  0
  2  3  1  0  0  0
  2 25  1  0  0  0
  2 89  1  0  0  0
  2 90  1  0  0  0
  3  4  1  0  0  0
  3 91  1  0  0  0
  3 92  1  0  0  0
  4  5  1  0  0  0
  4 93  1  0  0  0
  4 94  1  0  0  0
  5  6  1  0  0  0
  5 26  1  0  0  0
  5 95  1  0  0  0
  6 25  1  0  0  0
  6 96  1  0  0  0
  6 97  1  0  0  0
  7  8  2  0  0  0
  7 26  1  0  0  0
  7 29  1  0  0  0
  8  9  1  0  0  0
  8 22  1  0  0  0
  9 10  1  0  0  0
  9 27  2  0  0  0
 10 11  2  0  0  0
 10 15  1  0  0  0
 11 12  1  0  0  0
 11 98  1  0  0  0
 12 13  2  0  0  0
 12 99  1  0  0  0
 13 14  1  0  0  0
 13 31  1  0  0  0
 14 15  2  0  0  0
 14100  1  0  0  0
 15101  1  0  0  0
 16 17  2  0  0  0
 16 21  1  0  0  0
 16 31  1  0  0  0
 17 18  1  0  0  0
 17102  1  0  0  0
 18 19  2  0  0  0
 18103  1  0  0  0
 19 20  1  0  0  0
 19 24  1  0  0  0
 20 21  2  0  0  0
 20104  1  0  0  0
 21 23  1  0  0  0
 22 28  1  0  0  0
 22 32  2  0  0  0
 26 27  1  0  0  0
 28105  1  0  0  0
 28106  1  0  0  0
 29107  1  0  0  0
 29108  1  0  0  0
 33 34  1  0  0  0
 33 66  1  0  0  0
 33 70  2  0  0  0
 34 36  1  0  0  0
 34 59  1  0  0  0
 34109  1  0  0  0
 35 44  2  0  0  0
 35 45  1  0  0  0
 35 68  1  0  0  0
 36 56  1  0  0  0
 36110  1  0  0  0
 37 39  1  0  0  0
 37 47  1  0  0  0
 37 66  1  0  0  0
 37111  1  0  0  0
 38 43  2  0  0  0
 38 46  1  0  0  0
 38 47  1  0  0  0
 39 64  1  0  0  0
 39 67  2  0  0  0
 40 52  1  0  0  0
 40 53  2  0  0  0
 40 58  1  0  0  0
 41112  1  0  0  0
 41113  1  0  0  0
 41114  1  0  0  0
 41 48  1  0  0  0
 42 43  1  0  0  0
 42 66  1  0  0  0
 42115  1  0  0  0
 42116  1  0  0  0
 43 44  1  0  0  0
 44117  1  0  0  0
 45 46  2  0  0  0
 45118  1  0  0  0
 46119  1  0  0  0
 47120  1  0  0  0
 47121  1  0  0  0
 48 56  1  0  0  0
 48 65  1  0  0  0
 48122  1  0  0  0
 49 50  1  0  0  0
 49 53  1  0  0  0
 49 64  1  0  0  0
 49123  1  0  0  0
 50 51  1  0  0  0
 50124  1  0  0  0
 50125  1  0  0  0
 51 52  1  0  0  0
 51126  1  0  0  0
 51127  1  0  0  0
 52128  1  0  0  0
 52129  1  0  0  0
 53 54  1  0  0  0
 54 55  2  0  0  0
 54130  1  0  0  0
 55 57  1  0  0  0
 55131  1  0  0  0
 56 69  2  0  0  0
 57 58  2  0  0  0
 57132  1  0  0  0
 58133  1  0  0  0
 59 60  1  0  0  0
 59 61  1  0  0  0
 59 62  1  0  0  0
 60134  1  0  0  0
 60135  1  0  0  0
 60136  1  0  0  0
 61137  1  0  0  0
 61138  1  0  0  0
 61139  1  0  0  0
 62140  1  0  0  0
 62141  1  0  0  0
 62142  1  0  0  0
 63 65  1  0  0  0
 63143  1  0  0  0
 63144  1  0  0  0
 63145  1  0  0  0
 64146  1  0  0  0
 65147  1  0  0  0
 68 85  1  0  0  0
 71 72  2  0  0  0
 71 73  1  0  0  0
 71148  1  0  0  0
 72 74  1  0  0  0
 72149  1  0  0  0
 73 76  2  0  0  0
 73150  1  0  0  0
 74 75  2  0  0  0
 74 84  1  0  0  0
 75 76  1  0  0  0
 75 83  1  0  0  0
 76 87  1  0  0  0
 77 78  1  0  0  0
 77 86  1  0  0  0
 77 88  2  0  0  0
 78 81  1  0  0  0
 78151  1  0  0  0
 78152  1  0  0  0
 79 80  1  0  0  0
 79 81  1  0  0  0
 79153  1  0  0  0
 79154  1  0  0  0
 80 86  1  0  0  0
 80155  1  0  0  0
 80156  1  0  0  0
 81 85  1  0  0  0
 81157  1  0  0  0
 82 83  1  0  0  0
 82158  1  0  0  0
 82159  1  0  0  0
 82160  1  0  0  0
 83161  1  0  0  0
 83162  1  0  0  0
 84 86  1  0  0  0
 84163  1  0  0  0
 84164  1  0  0  0
 85165  1  0  0  0
 85166  1  0  0  0
 87167  1  0  0  0
M  ISO  4   1 100  68 101  85 101  87 100
M  END
> <chiral flag>
0

> <version>
0

> <s_m_source_file>
/data/baiqing/PycharmProjects/Reinvent-master-3.2/result/LINK_invent/BTK/process_docking_weight1_custom_product_contain_oxygen_bond_distance_aromatic_linkinvent_7_9_3/rearranged_h_0059.sdf

> <i_m_source_file_index>
17

> <r_mmod_Potential_Energy-OPLS-2005>
16.6660270690918

> <r_mmod_Stretch_Energy-OPLS-2005>
52.8511505126953

> <r_mmod_Bend_Energy-OPLS-2005>
122.327095031738

> <r_mmod_Torsional_Energy-OPLS-2005>
289.677642822266

> <r_mmod_Improper_Torsional_Energy-OPLS-2005>
7.82296562194824

> <r_mmod_Van_der_Waal_Energy-OPLS-2005>
149.595184326172

> <r_mmod_Electrostatic_Energy-OPLS-2005>
-400.053894042969

> <r_mmod_Solvation_Energy-OPLS-2005>
-222.476623535156

> <b_mmod_Minimization_Converged-OPLS-2005>
0

> <r_mmod_RMS_Derivative-OPLS-2005>
1.4958028793335

$$$$
17
                    3D
 Structure written by MMmdl.
163172  0  0  1  0            999 V2000
  -30.7128  -14.4936   20.4969 C   0  0  0  0  0  0
  -30.4114  -12.3030   19.4214 C   0  0  0  0  0  0
  -29.4855  -12.4802   18.2014 C   0  0  0  0  0  0
  -28.0110  -12.3482   18.6220 C   0  0  0  0  0  0
  -27.6545  -13.2128   19.8629 C   0  0  2  0  0  0
  -28.7024  -13.0369   20.9862 C   0  0  0  0  0  0
  -25.2559  -13.8191   20.5696 C   0  0  0  0  0  0
  -24.1826  -13.0457   20.9202 C   0  0  0  0  0  0
  -24.6404  -11.6921   20.8772 C   0  0  0  0  0  0
  -23.9071  -10.4309   21.0406 C   0  0  0  0  0  0
  -24.3622   -9.4218   21.9184 C   0  0  0  0  0  0
  -23.6302   -8.2241   22.0754 C   0  0  0  0  0  0
  -22.4276   -8.0281   21.3549 C   0  0  0  0  0  0
  -21.9915   -9.0262   20.4639 C   0  0  0  0  0  0
  -22.7244  -10.2143   20.3060 C   0  0  0  0  0  0
  -21.6859   -6.0737   22.5266 C   0  0  0  0  0  0
  -21.4003   -6.5639   23.8205 C   0  0  0  0  0  0
  -21.3653   -5.6792   24.9166 C   0  0  0  0  0  0
  -21.6060   -4.3058   24.7217 C   0  0  0  0  0  0
  -21.8818   -3.8152   23.4337 C   0  0  0  0  0  0
  -21.9185   -4.6965   22.3388 C   0  0  0  0  0  0
  -22.7849  -13.5228   21.1864 C   0  0  0  0  0  0
  -22.1659   -4.2156   21.0970 F   0  0  0  0  0  0
  -21.5632   -3.4544   25.7732 F   0  0  0  0  0  0
  -30.0259  -13.3198   20.4148 N   0  0  0  0  0  0
  -26.2984  -12.9370   20.3334 N   0  0  0  0  0  0
  -25.9319  -11.6508   20.5780 N   0  0  0  0  0  0
  -22.0488  -12.8219   22.0413 N   0  0  0  0  0  0
  -25.4256  -15.1900   20.4035 N   0  0  0  0  0  0
  -31.8934  -14.5620   20.1592 O   0  0  0  0  0  0
  -21.6629   -6.8884   21.4238 O   0  0  0  0  0  0
  -22.3519  -14.5538   20.6719 O   0  0  0  0  0  0
  -24.6121  -31.8653   23.2052 C   0  0  0  0  0  0
  -25.9018  -32.4783   23.8340 C   0  0  1  0  0  0
  -27.2420  -27.4308   20.1001 C   0  0  0  0  0  0
  -25.5881  -33.8586   24.2257 N   0  0  0  0  0  0
  -23.4026  -30.4857   21.5467 C   0  0  2  0  0  0
  -24.8543  -28.9501   20.1149 C   0  0  0  0  0  0
  -22.7395  -29.4649   22.4976 C   0  0  0  0  0  0
  -18.0274  -28.1399   22.8473 C   0  0  0  0  0  0
  -24.1498  -36.7283   23.2661 C   0  0  0  0  0  0
  -25.9300  -30.8307   21.3579 C   0  0  0  0  0  0
  -26.0128  -29.4607   20.7141 C   0  0  0  0  0  0
  -27.2104  -28.7074   20.7081 C   0  0  0  0  0  0
  -26.0706  -26.9437   19.4808 C   0  0  0  0  0  0
  -24.8804  -27.6916   19.4925 C   0  0  0  0  0  0
  -23.6093  -29.8098   20.1644 C   0  0  0  0  0  0
  -25.4128  -36.3080   24.0348 C   0  0  1  0  0  0
  -20.5860  -28.3665   23.1311 C   0  0  2  0  0  0
  -20.6756  -26.9386   22.5419 C   0  0  0  0  0  0
  -19.5734  -26.6389   21.5220 C   0  0  0  0  0  0
  -18.1912  -26.7940   22.1614 C   0  0  0  0  0  0
  -19.1528  -28.8849   23.2877 C   0  0  0  0  0  0
  -18.9459  -30.1439   23.8899 C   0  0  0  0  0  0
  -17.6468  -30.6595   24.0570 C   0  0  0  0  0  0
  -25.9057  -34.9450   23.5109 C   0  0  0  0  0  0
  -16.5349  -29.9092   23.6332 C   0  0  0  0  0  0
  -16.7264  -28.6516   23.0349 C   0  0  0  0  0  0
  -26.4502  -31.6569   25.0641 C   0  0  0  0  0  0
  -25.3762  -31.3604   26.1363 C   0  0  0  0  0  0
  -27.0439  -30.3069   24.5989 C   0  0  0  0  0  0
  -27.6077  -32.4306   25.7366 C   0  0  0  0  0  0
  -27.5583  -37.1759   24.8467 C   0  0  0  0  0  0
  -21.4131  -29.3036   22.3713 N   0  0  0  0  0  0
  -26.4306  -37.3754   23.9403 N   0  0  0  0  0  0
  -24.6650  -31.0748   22.0951 N   0  0  0  0  0  0
  -23.4134  -28.8191   23.3045 O   0  0  0  0  0  0
  -28.4124  -26.7069   20.0450 O   0  0  0  0  0  0
  -26.5635  -34.8904   22.4676 O   0  0  0  0  0  0
  -23.5330  -32.1452   23.7451 O   0  0  0  0  0  0
  -31.7663  -18.7837   19.7490 C   0  0  0  0  0  0
  -30.8690  -19.7604   20.1943 C   0  0  0  0  0  0
  -31.4679  -17.4225   19.9133 C   0  0  0  0  0  0
  -29.6337  -19.3983   20.7688 C   0  0  0  0  0  0
  -29.3682  -18.0094   21.0157 C   0  0  0  0  0  0
  -30.2847  -16.9990   20.5755 C   0  0  0  0  0  0
  -28.1852  -22.7335   18.0229 C   0  0  0  0  0  0
  -28.0820  -22.9035   20.8901 C   0  0  0  0  0  0
  -28.5493  -24.0759   18.6273 C   0  0  0  0  0  0
  -28.6122  -21.5235   18.8563 C   0  0  0  0  0  0
  -27.9355  -24.1974   20.0328 C   0  0  2  0  0  0
  -28.1114  -17.6169   21.7885 C   0  0  0  0  0  0
  -28.6591  -20.5230   21.1909 C   0  0  0  0  0  0
  -28.4610  -25.4621   20.7724 C   0  0  0  0  0  0
  -28.5079  -21.7311   20.3249 N   0  0  0  0  0  0
  -29.9770  -15.5971   20.7799 N   0  0  0  0  0  0
  -27.5877  -22.6349   16.9475 O   0  0  0  0  0  0
  -27.7690  -22.9706   22.0798 O   0  0  0  0  0  0
  -31.4575  -12.3796   19.1147 H   0  0  0  0  0  0
  -30.3023  -11.3024   19.8450 H   0  0  0  0  0  0
  -29.7209  -11.7362   17.4421 H   0  0  0  0  0  0
  -29.6557  -13.4522   17.7408 H   0  0  0  0  0  0
  -27.8264  -11.2966   18.8418 H   0  0  0  0  0  0
  -27.3548  -12.5992   17.7871 H   0  0  0  0  0  0
  -27.6857  -14.2532   19.5395 H   0  0  0  0  0  0
  -28.6799  -12.0138   21.3644 H   0  0  0  0  0  0
  -28.4811  -13.6771   21.8406 H   0  0  0  0  0  0
  -25.2768   -9.5671   22.4767 H   0  0  0  0  0  0
  -24.0001   -7.4620   22.7468 H   0  0  0  0  0  0
  -21.0846   -8.8784   19.8940 H   0  0  0  0  0  0
  -22.3712  -10.9684   19.6173 H   0  0  0  0  0  0
  -21.1997   -7.6154   23.9706 H   0  0  0  0  0  0
  -21.1482   -6.0526   25.9067 H   0  0  0  0  0  0
  -22.0607   -2.7618   23.2831 H   0  0  0  0  0  0
  -22.4100  -11.9870   22.4802 H   0  0  0  0  0  0
  -21.1098  -13.1210   22.2619 H   0  0  0  0  0  0
  -24.6554  -15.8415   20.5025 H   0  0  0  0  0  0
  -26.2625  -15.6212   20.0346 H   0  0  0  0  0  0
  -26.7064  -32.5525   23.1089 H   0  0  0  0  0  0
  -24.9956  -33.9726   25.0347 H   0  0  0  0  0  0
  -22.6973  -31.3056   21.3998 H   0  0  0  0  0  0
  -23.3764  -35.9609   23.3340 H   0  0  0  0  0  0
  -24.3585  -36.8916   22.2069 H   0  0  0  0  0  0
  -23.7255  -37.6467   23.6729 H   0  0  0  0  0  0
  -26.0385  -31.5945   20.5837 H   0  0  0  0  0  0
  -26.8163  -30.8925   21.9760 H   0  0  0  0  0  0
  -28.1071  -29.0998   21.1690 H   0  0  0  0  0  0
  -26.0775  -26.0032   18.9573 H   0  0  0  0  0  0
  -24.0038  -27.2989   18.9971 H   0  0  0  0  0  0
  -23.6923  -30.5763   19.3936 H   0  0  0  0  0  0
  -22.7368  -29.2127   19.8845 H   0  0  0  0  0  0
  -25.1310  -36.1932   25.0849 H   0  0  0  0  0  0
  -20.9956  -28.3280   24.1425 H   0  0  0  0  0  0
  -20.5732  -26.2255   23.3614 H   0  0  0  0  0  0
  -21.6626  -26.7471   22.1168 H   0  0  0  0  0  0
  -19.6920  -25.6311   21.1225 H   0  0  0  0  0  0
  -19.6724  -27.3221   20.6778 H   0  0  0  0  0  0
  -17.4183  -26.6707   21.3998 H   0  0  0  0  0  0
  -18.0267  -26.0111   22.9037 H   0  0  0  0  0  0
  -19.7966  -30.7236   24.2284 H   0  0  0  0  0  0
  -17.5049  -31.6291   24.5147 H   0  0  0  0  0  0
  -15.5349  -30.2994   23.7696 H   0  0  0  0  0  0
  -15.8669  -28.0848   22.7056 H   0  0  0  0  0  0
  -24.5982  -30.6932   25.7642 H   0  0  0  0  0  0
  -24.8881  -32.2703   26.4855 H   0  0  0  0  0  0
  -25.8059  -30.8721   27.0113 H   0  0  0  0  0  0
  -26.3007  -29.6625   24.1288 H   0  0  0  0  0  0
  -27.4560  -29.7455   25.4388 H   0  0  0  0  0  0
  -27.8630  -30.4450   23.8914 H   0  0  0  0  0  0
  -27.2760  -33.3648   26.1890 H   0  0  0  0  0  0
  -28.3858  -32.6802   25.0139 H   0  0  0  0  0  0
  -28.0792  -31.8478   26.5283 H   0  0  0  0  0  0
  -28.2562  -38.0086   24.7559 H   0  0  0  0  0  0
  -28.1095  -36.2601   24.6263 H   0  0  0  0  0  0
  -27.2281  -37.1392   25.8860 H   0  0  0  0  0  0
  -20.9314  -29.8728   21.6900 H   0  0  0  0  0  0
  -26.0197  -38.2823   24.1416 H   0  0  0  0  0  0
  -32.6915  -19.0728   19.2728 H   0  0  0  0  0  0
  -31.1339  -20.8018   20.0752 H   0  0  0  0  0  0
  -32.1973  -16.7373   19.5148 H   0  0  0  0  0  0
  -28.2150  -24.8849   17.9812 H   0  0  0  0  0  0
  -29.6363  -24.1452   18.6901 H   0  0  0  0  0  0
  -29.6397  -21.3242   18.5640 H   0  0  0  0  0  0
  -28.0250  -20.6515   18.5682 H   0  0  0  0  0  0
  -26.8587  -24.3044   19.9127 H   0  0  0  0  0  0
  -28.0452  -18.1951   22.7105 H   0  0  0  0  0  0
  -28.0909  -16.5726   22.0941 H   0  0  0  0  0  0
  -27.2140  -17.8090   21.2006 H   0  0  0  0  0  0
  -29.0081  -20.8278   22.1814 H   0  0  0  0  0  0
  -27.6548  -20.1288   21.3345 H   0  0  0  0  0  0
  -29.5097  -25.2908   21.0207 H   0  0  0  0  0  0
  -27.9492  -25.5793   21.7274 H   0  0  0  0  0  0
  -29.0335  -15.3986   21.0688 H   0  0  0  0  0  0
  1 25  1  0  0  0
  1 30  2  0  0  0
  1 86  1  0  0  0
  2  3  1  0  0  0
  2 25  1  0  0  0
  2 89  1  0  0  0
  2 90  1  0  0  0
  3  4  1  0  0  0
  3 91  1  0  0  0
  3 92  1  0  0  0
  4  5  1  0  0  0
  4 93  1  0  0  0
  4 94  1  0  0  0
  5  6  1  0  0  0
  5 26  1  0  0  0
  5 95  1  0  0  0
  6 25  1  0  0  0
  6 96  1  0  0  0
  6 97  1  0  0  0
  7  8  2  0  0  0
  7 26  1  0  0  0
  7 29  1  0  0  0
  8  9  1  0  0  0
  8 22  1  0  0  0
  9 10  1  0  0  0
  9 27  2  0  0  0
 10 11  2  0  0  0
 10 15  1  0  0  0
 11 12  1  0  0  0
 11 98  1  0  0  0
 12 13  2  0  0  0
 12 99  1  0  0  0
 13 14  1  0  0  0
 13 31  1  0  0  0
 14 15  2  0  0  0
 14100  1  0  0  0
 15101  1  0  0  0
 16 17  2  0  0  0
 16 21  1  0  0  0
 16 31  1  0  0  0
 17 18  1  0  0  0
 17102  1  0  0  0
 18 19  2  0  0  0
 18103  1  0  0  0
 19 20  1  0  0  0
 19 24  1  0  0  0
 20 21  2  0  0  0
 20104  1  0  0  0
 21 23  1  0  0  0
 22 28  1  0  0  0
 22 32  2  0  0  0
 26 27  1  0  0  0
 28105  1  0  0  0
 28106  1  0  0  0
 29107  1  0  0  0
 29108  1  0  0  0
 33 34  1  0  0  0
 33 66  1  0  0  0
 33 70  2  0  0  0
 34 36  1  0  0  0
 34 59  1  0  0  0
 34109  1  0  0  0
 35 44  2  0  0  0
 35 45  1  0  0  0
 35 68  1  0  0  0
 36 56  1  0  0  0
 36110  1  0  0  0
 37 39  1  0  0  0
 37 47  1  0  0  0
 37 66  1  0  0  0
 37111  1  0  0  0
 38 43  2  0  0  0
 38 46  1  0  0  0
 38 47  1  0  0  0
 39 64  1  0  0  0
 39 67  2  0  0  0
 40 52  1  0  0  0
 40 53  2  0  0  0
 40 58  1  0  0  0
 41112  1  0  0  0
 41113  1  0  0  0
 41114  1  0  0  0
 41 48  1  0  0  0
 42 43  1  0  0  0
 42 66  1  0  0  0
 42115  1  0  0  0
 42116  1  0  0  0
 43 44  1  0  0  0
 44117  1  0  0  0
 45 46  2  0  0  0
 45118  1  0  0  0
 46119  1  0  0  0
 47120  1  0  0  0
 47121  1  0  0  0
 48 56  1  0  0  0
 48 65  1  0  0  0
 48122  1  0  0  0
 49 50  1  0  0  0
 49 53  1  0  0  0
 49 64  1  0  0  0
 49123  1  0  0  0
 50 51  1  0  0  0
 50124  1  0  0  0
 50125  1  0  0  0
 51 52  1  0  0  0
 51126  1  0  0  0
 51127  1  0  0  0
 52128  1  0  0  0
 52129  1  0  0  0
 53 54  1  0  0  0
 54 55  2  0  0  0
 54130  1  0  0  0
 55 57  1  0  0  0
 55131  1  0  0  0
 56 69  2  0  0  0
 57 58  2  0  0  0
 57132  1  0  0  0
 58133  1  0  0  0
 59 60  1  0  0  0
 59 61  1  0  0  0
 59 62  1  0  0  0
 60134  1  0  0  0
 60135  1  0  0  0
 60136  1  0  0  0
 61137  1  0  0  0
 61138  1  0  0  0
 61139  1  0  0  0
 62140  1  0  0  0
 62141  1  0  0  0
 62142  1  0  0  0
 63 65  1  0  0  0
 63143  1  0  0  0
 63144  1  0  0  0
 63145  1  0  0  0
 64146  1  0  0  0
 65147  1  0  0  0
 68 84  1  0  0  0
 71 72  2  0  0  0
 71 73  1  0  0  0
 71148  1  0  0  0
 72 74  1  0  0  0
 72149  1  0  0  0
 73 76  2  0  0  0
 73150  1  0  0  0
 74 75  2  0  0  0
 74 83  1  0  0  0
 75 76  1  0  0  0
 75 82  1  0  0  0
 76 86  1  0  0  0
 77 79  1  0  0  0
 77 80  1  0  0  0
 77 87  2  0  0  0
 78 81  1  0  0  0
 78 85  1  0  0  0
 78 88  2  0  0  0
 79 81  1  0  0  0
 79151  1  0  0  0
 79152  1  0  0  0
 80 85  1  0  0  0
 80153  1  0  0  0
 80154  1  0  0  0
 81 84  1  0  0  0
 81155  1  0  0  0
 82156  1  0  0  0
 82157  1  0  0  0
 82158  1  0  0  0
 83 85  1  0  0  0
 83159  1  0  0  0
 83160  1  0  0  0
 84161  1  0  0  0
 84162  1  0  0  0
 86163  1  0  0  0
M  ISO  4   1 100  68 101  84 101  86 100
M  END
> <chiral flag>
0

> <version>
0

> <s_m_source_file>
/data/baiqing/PycharmProjects/Reinvent-master-3.2/result/LINK_invent/BTK/process_docking_weight1_custom_product_contain_oxygen_bond_distance_aromatic_linkinvent_7_9_3/rearranged_h_0059.sdf

> <i_m_source_file_index>
18

> <r_mmod_Potential_Energy-OPLS-2005>
-70.2138061523438

> <r_mmod_Stretch_Energy-OPLS-2005>
53.0280723571777

> <r_mmod_Bend_Energy-OPLS-2005>
117.010444641113

> <r_mmod_Torsional_Energy-OPLS-2005>
270.865661621094

> <r_mmod_Improper_Torsional_Energy-OPLS-2005>
5.33254718780518

> <r_mmod_Van_der_Waal_Energy-OPLS-2005>
183.802688598633

> <r_mmod_Electrostatic_Energy-OPLS-2005>
-478.122955322266

> <r_mmod_Solvation_Energy-OPLS-2005>
-240.77326965332

> <b_mmod_Minimization_Converged-OPLS-2005>
0

> <r_mmod_RMS_Derivative-OPLS-2005>
5.33899879455566

$$$$
18
                    3D
 Structure written by MMmdl.
161170  0  0  1  0            999 V2000
  -30.6021  -14.5939   20.5466 C   0  0  0  0  0  0
  -30.4502  -12.3771   19.4177 C   0  0  0  0  0  0
  -29.5060  -12.5189   18.2006 C   0  0  0  0  0  0
  -28.0241  -12.3681   18.6106 C   0  0  0  0  0  0
  -27.6594  -13.2035   19.8664 C   0  0  2  0  0  0
  -28.7107  -12.9874   20.9791 C   0  0  0  0  0  0
  -25.2610  -13.8120   20.5722 C   0  0  0  0  0  0
  -24.1862  -13.0425   20.9215 C   0  0  0  0  0  0
  -24.6384  -11.6876   20.8710 C   0  0  0  0  0  0
  -23.9031  -10.4282   21.0376 C   0  0  0  0  0  0
  -24.3584   -9.4208   21.9165 C   0  0  0  0  0  0
  -23.6278   -8.2229   22.0728 C   0  0  0  0  0  0
  -22.4258   -8.0264   21.3526 C   0  0  0  0  0  0
  -21.9879   -9.0223   20.4626 C   0  0  0  0  0  0
  -22.7187  -10.2122   20.3041 C   0  0  0  0  0  0
  -21.6842   -6.0731   22.5285 C   0  0  0  0  0  0
  -21.4002   -6.5630   23.8221 C   0  0  0  0  0  0
  -21.3668   -5.6781   24.9179 C   0  0  0  0  0  0
  -21.6056   -4.3048   24.7228 C   0  0  0  0  0  0
  -21.8825   -3.8142   23.4344 C   0  0  0  0  0  0
  -21.9189   -4.6956   22.3408 C   0  0  0  0  0  0
  -22.7884  -13.5235   21.1873 C   0  0  0  0  0  0
  -22.1666   -4.2138   21.0987 F   0  0  0  0  0  0
  -21.5630   -3.4543   25.7746 F   0  0  0  0  0  0
  -30.0254  -13.3593   20.4284 N   0  0  0  0  0  0
  -26.3021  -12.9276   20.3321 N   0  0  0  0  0  0
  -25.9312  -11.6454   20.5706 N   0  0  0  0  0  0
  -22.0504  -12.8240   22.0418 N   0  0  0  0  0  0
  -25.4392  -15.1848   20.4207 N   0  0  0  0  0  0
  -31.7573  -14.8287   20.1734 O   0  0  0  0  0  0
  -21.6640   -6.8849   21.4234 O   0  0  0  0  0  0
  -22.3591  -14.5555   20.6710 O   0  0  0  0  0  0
  -24.6253  -31.8632   23.2065 C   0  0  0  0  0  0
  -25.9121  -32.4803   23.8379 C   0  0  1  0  0  0
  -27.2279  -27.3492   20.1127 C   0  0  0  0  0  0
  -25.5960  -33.8611   24.2304 N   0  0  0  0  0  0
  -23.4191  -30.4885   21.5463 C   0  0  2  0  0  0
  -24.8618  -28.9450   20.1130 C   0  0  0  0  0  0
  -22.7461  -29.4663   22.4923 C   0  0  0  0  0  0
  -18.0283  -28.1403   22.8492 C   0  0  0  0  0  0
  -24.1481  -36.7294   23.2644 C   0  0  0  0  0  0
  -25.9573  -30.8017   21.3760 C   0  0  0  0  0  0
  -26.0276  -29.4314   20.7169 C   0  0  0  0  0  0
  -27.2117  -28.6434   20.7070 C   0  0  0  0  0  0
  -26.0441  -26.9086   19.4792 C   0  0  0  0  0  0
  -24.8696  -27.6858   19.4896 C   0  0  0  0  0  0
  -23.6321  -29.8258   20.1599 C   0  0  0  0  0  0
  -25.4108  -36.3103   24.0337 C   0  0  1  0  0  0
  -20.5876  -28.3702   23.1286 C   0  0  2  0  0  0
  -20.6775  -26.9413   22.5446 C   0  0  0  0  0  0
  -19.5758  -26.6385   21.5246 C   0  0  0  0  0  0
  -18.1923  -26.7952   22.1619 C   0  0  0  0  0  0
  -19.1536  -28.8857   23.2891 C   0  0  0  0  0  0
  -18.9463  -30.1454   23.8906 C   0  0  0  0  0  0
  -17.6467  -30.6598   24.0573 C   0  0  0  0  0  0
  -25.9059  -34.9475   23.5115 C   0  0  0  0  0  0
  -16.5354  -29.9108   23.6343 C   0  0  0  0  0  0
  -16.7268  -28.6534   23.0343 C   0  0  0  0  0  0
  -26.4489  -31.6626   25.0769 C   0  0  0  0  0  0
  -25.3719  -31.3780   26.1494 C   0  0  0  0  0  0
  -27.0337  -30.3047   24.6259 C   0  0  0  0  0  0
  -27.6057  -32.4347   25.7538 C   0  0  0  0  0  0
  -27.5573  -37.1808   24.8454 C   0  0  0  0  0  0
  -21.4165  -29.3077   22.3677 N   0  0  0  0  0  0
  -26.4275  -37.3809   23.9421 N   0  0  0  0  0  0
  -24.6853  -31.0667   22.1002 N   0  0  0  0  0  0
  -23.4174  -28.8199   23.3003 O   0  0  0  0  0  0
  -28.3769  -26.5556   20.1324 O   0  0  0  0  0  0
  -26.5589  -34.8929   22.4662 O   0  0  0  0  0  0
  -23.5425  -32.1396   23.7417 O   0  0  0  0  0  0
  -30.1080  -18.0934   20.5513 C   0  0  0  0  0  0
  -29.4623  -19.5819   22.3899 C   0  0  0  0  0  0
  -29.3130  -17.1574   22.6571 C   0  0  0  0  0  0
  -29.9434  -19.4287   21.0746 C   0  0  0  0  0  0
  -29.7944  -16.9369   21.3474 C   0  0  0  0  0  0
  -29.1565  -18.4568   23.1747 C   0  0  0  0  0  0
  -29.7342  -23.0212   19.4356 C   0  0  0  0  0  0
  -31.5810  -20.7796   19.8157 C   0  0  0  0  0  0
  -29.2869  -24.3198   19.4377 C   0  0  0  0  0  0
  -30.7430  -22.6161   18.3792 C   0  0  0  0  0  0
  -29.3487  -21.8348   20.3690 C   0  0  0  0  0  0
  -31.9772  -22.0013   19.0376 C   0  0  0  0  0  0
  -28.2663  -25.0952   20.2960 C   0  0  0  0  0  0
  -30.3214  -20.6598   20.3234 N   0  0  0  0  0  0
  -29.7051  -15.5655   20.8807 N   0  0  0  0  0  0
  -32.5439  -19.8536   20.0154 N   0  3  0  0  0  0
  -28.7064  -18.6248   24.4416 F   0  0  0  0  0  0
  -31.4878  -12.5291   19.1183 H   0  0  0  0  0  0
  -30.4011  -11.3668   19.8260 H   0  0  0  0  0  0
  -29.7574  -11.7779   17.4397 H   0  0  0  0  0  0
  -29.6598  -13.4932   17.7322 H   0  0  0  0  0  0
  -27.8361  -11.3106   18.8018 H   0  0  0  0  0  0
  -27.3750  -12.6487   17.7786 H   0  0  0  0  0  0
  -27.6890  -14.2494   19.5609 H   0  0  0  0  0  0
  -28.7198  -11.9398   21.2831 H   0  0  0  0  0  0
  -28.4648  -13.5487   21.8816 H   0  0  0  0  0  0
  -25.2716   -9.5729   22.4751 H   0  0  0  0  0  0
  -24.0006   -7.4635   22.7448 H   0  0  0  0  0  0
  -21.0797   -8.8725   19.8940 H   0  0  0  0  0  0
  -22.3595  -10.9663   19.6175 H   0  0  0  0  0  0
  -21.1987   -7.6139   23.9716 H   0  0  0  0  0  0
  -21.1485   -6.0516   25.9084 H   0  0  0  0  0  0
  -22.0591   -2.7598   23.2856 H   0  0  0  0  0  0
  -22.4079  -11.9912   22.4861 H   0  0  0  0  0  0
  -21.1125  -13.1280   22.2577 H   0  0  0  0  0  0
  -24.6745  -15.8412   20.5410 H   0  0  0  0  0  0
  -26.2876  -15.6229   20.0872 H   0  0  0  0  0  0
  -26.7226  -32.5453   23.1161 H   0  0  0  0  0  0
  -25.0163  -33.9791   25.0476 H   0  0  0  0  0  0
  -22.7152  -31.3106   21.4042 H   0  0  0  0  0  0
  -23.3762  -35.9617   23.3327 H   0  0  0  0  0  0
  -24.3569  -36.8881   22.2057 H   0  0  0  0  0  0
  -23.7220  -37.6501   23.6639 H   0  0  0  0  0  0
  -26.0897  -31.5707   20.6129 H   0  0  0  0  0  0
  -26.8401  -30.8463   22.0042 H   0  0  0  0  0  0
  -28.1085  -29.0105   21.1843 H   0  0  0  0  0  0
  -26.0078  -25.9645   18.9563 H   0  0  0  0  0  0
  -23.9787  -27.3084   19.0065 H   0  0  0  0  0  0
  -23.7568  -30.6052   19.4083 H   0  0  0  0  0  0
  -22.7516  -29.2600   19.8509 H   0  0  0  0  0  0
  -25.1286  -36.1967   25.0834 H   0  0  0  0  0  0
  -20.9978  -28.3307   24.1393 H   0  0  0  0  0  0
  -20.5662  -26.2316   23.3660 H   0  0  0  0  0  0
  -21.6646  -26.7440   22.1239 H   0  0  0  0  0  0
  -19.6919  -25.6297   21.1272 H   0  0  0  0  0  0
  -19.6714  -27.3197   20.6783 H   0  0  0  0  0  0
  -17.4207  -26.6720   21.4002 H   0  0  0  0  0  0
  -18.0266  -26.0087   22.8990 H   0  0  0  0  0  0
  -19.7938  -30.7274   24.2262 H   0  0  0  0  0  0
  -17.5032  -31.6274   24.5179 H   0  0  0  0  0  0
  -15.5359  -30.3015   23.7692 H   0  0  0  0  0  0
  -15.8658  -28.0888   22.7028 H   0  0  0  0  0  0
  -24.5979  -30.7007   25.7872 H   0  0  0  0  0  0
  -24.8792  -32.2927   26.4804 H   0  0  0  0  0  0
  -25.8053  -30.9101   27.0340 H   0  0  0  0  0  0
  -26.2936  -29.6824   24.1215 H   0  0  0  0  0  0
  -27.3939  -29.7303   25.4809 H   0  0  0  0  0  0
  -27.8839  -30.4341   23.9557 H   0  0  0  0  0  0
  -27.2715  -33.3705   26.2030 H   0  0  0  0  0  0
  -28.3910  -32.6798   25.0378 H   0  0  0  0  0  0
  -28.0659  -31.8500   26.5516 H   0  0  0  0  0  0
  -28.2580  -38.0115   24.7517 H   0  0  0  0  0  0
  -28.1057  -36.2642   24.6225 H   0  0  0  0  0  0
  -27.2283  -37.1394   25.8852 H   0  0  0  0  0  0
  -20.9318  -29.8784   21.6891 H   0  0  0  0  0  0
  -26.0149  -38.2878   24.1456 H   0  0  0  0  0  0
  -30.4460  -17.9645   19.5333 H   0  0  0  0  0  0
  -29.3527  -20.5616   22.8261 H   0  0  0  0  0  0
  -29.0398  -16.3243   23.2892 H   0  0  0  0  0  0
  -29.6930  -24.9639   18.6700 H   0  0  0  0  0  0
  -30.2784  -21.8894   17.7120 H   0  0  0  0  0  0
  -31.0343  -23.4614   17.7546 H   0  0  0  0  0  0
  -28.3651  -21.4727   20.0750 H   0  0  0  0  0  0
  -29.2593  -22.2149   21.3860 H   0  0  0  0  0  0
  -32.7095  -21.7282   18.2760 H   0  0  0  0  0  0
  -32.4577  -22.7178   19.7062 H   0  0  0  0  0  0
  -28.4374  -24.8436   21.3433 H   0  0  0  0  0  0
  -27.2797  -24.7007   20.0608 H   0  0  0  0  0  0
  -28.8201  -15.1308   21.0973 H   0  0  0  0  0  0
  -33.4917  -20.0105   19.6938 H   0  0  0  0  0  0
  -32.3875  -19.0132   20.5543 H   0  0  0  0  0  0
  1 25  1  0  0  0
  1 30  2  0  0  0
  1 85  1  0  0  0
  2  3  1  0  0  0
  2 25  1  0  0  0
  2 88  1  0  0  0
  2 89  1  0  0  0
  3  4  1  0  0  0
  3 90  1  0  0  0
  3 91  1  0  0  0
  4  5  1  0  0  0
  4 92  1  0  0  0
  4 93  1  0  0  0
  5  6  1  0  0  0
  5 26  1  0  0  0
  5 94  1  0  0  0
  6 25  1  0  0  0
  6 95  1  0  0  0
  6 96  1  0  0  0
  7  8  2  0  0  0
  7 26  1  0  0  0
  7 29  1  0  0  0
  8  9  1  0  0  0
  8 22  1  0  0  0
  9 10  1  0  0  0
  9 27  2  0  0  0
 10 11  2  0  0  0
 10 15  1  0  0  0
 11 12  1  0  0  0
 11 97  1  0  0  0
 12 13  2  0  0  0
 12 98  1  0  0  0
 13 14  1  0  0  0
 13 31  1  0  0  0
 14 15  2  0  0  0
 14 99  1  0  0  0
 15100  1  0  0  0
 16 17  2  0  0  0
 16 21  1  0  0  0
 16 31  1  0  0  0
 17 18  1  0  0  0
 17101  1  0  0  0
 18 19  2  0  0  0
 18102  1  0  0  0
 19 20  1  0  0  0
 19 24  1  0  0  0
 20 21  2  0  0  0
 20103  1  0  0  0
 21 23  1  0  0  0
 22 28  1  0  0  0
 22 32  2  0  0  0
 26 27  1  0  0  0
 28104  1  0  0  0
 28105  1  0  0  0
 29106  1  0  0  0
 29107  1  0  0  0
 33 34  1  0  0  0
 33 66  1  0  0  0
 33 70  2  0  0  0
 34 36  1  0  0  0
 34 59  1  0  0  0
 34108  1  0  0  0
 35 44  2  0  0  0
 35 45  1  0  0  0
 35 68  1  0  0  0
 36 56  1  0  0  0
 36109  1  0  0  0
 37 39  1  0  0  0
 37 47  1  0  0  0
 37 66  1  0  0  0
 37110  1  0  0  0
 38 43  2  0  0  0
 38 46  1  0  0  0
 38 47  1  0  0  0
 39 64  1  0  0  0
 39 67  2  0  0  0
 40 52  1  0  0  0
 40 53  2  0  0  0
 40 58  1  0  0  0
 41111  1  0  0  0
 41112  1  0  0  0
 41113  1  0  0  0
 41 48  1  0  0  0
 42 43  1  0  0  0
 42 66  1  0  0  0
 42114  1  0  0  0
 42115  1  0  0  0
 43 44  1  0  0  0
 44116  1  0  0  0
 45 46  2  0  0  0
 45117  1  0  0  0
 46118  1  0  0  0
 47119  1  0  0  0
 47120  1  0  0  0
 48 56  1  0  0  0
 48 65  1  0  0  0
 48121  1  0  0  0
 49 50  1  0  0  0
 49 53  1  0  0  0
 49 64  1  0  0  0
 49122  1  0  0  0
 50 51  1  0  0  0
 50123  1  0  0  0
 50124  1  0  0  0
 51 52  1  0  0  0
 51125  1  0  0  0
 51126  1  0  0  0
 52127  1  0  0  0
 52128  1  0  0  0
 53 54  1  0  0  0
 54 55  2  0  0  0
 54129  1  0  0  0
 55 57  1  0  0  0
 55130  1  0  0  0
 56 69  2  0  0  0
 57 58  2  0  0  0
 57131  1  0  0  0
 58132  1  0  0  0
 59 60  1  0  0  0
 59 61  1  0  0  0
 59 62  1  0  0  0
 60133  1  0  0  0
 60134  1  0  0  0
 60135  1  0  0  0
 61136  1  0  0  0
 61137  1  0  0  0
 61138  1  0  0  0
 62139  1  0  0  0
 62140  1  0  0  0
 62141  1  0  0  0
 63 65  1  0  0  0
 63142  1  0  0  0
 63143  1  0  0  0
 63144  1  0  0  0
 64145  1  0  0  0
 65146  1  0  0  0
 68 83  1  0  0  0
 71 74  2  0  0  0
 71 75  1  0  0  0
 71147  1  0  0  0
 72 74  1  0  0  0
 72 76  2  0  0  0
 72148  1  0  0  0
 73 75  2  0  0  0
 73 76  1  0  0  0
 73149  1  0  0  0
 74 84  1  0  0  0
 75 85  1  0  0  0
 76 87  1  0  0  0
 77 79  2  0  0  0
 77 80  1  0  0  0
 77 81  1  0  0  0
 78 82  1  0  0  0
 78 84  1  0  0  0
 78 86  2  0  0  0
 79 83  1  0  0  0
 79150  1  0  0  0
 80 82  1  0  0  0
 80151  1  0  0  0
 80152  1  0  0  0
 81 84  1  0  0  0
 81153  1  0  0  0
 81154  1  0  0  0
 82155  1  0  0  0
 82156  1  0  0  0
 83157  1  0  0  0
 83158  1  0  0  0
 85159  1  0  0  0
 86160  1  0  0  0
 86161  1  0  0  0
M  CHG  1  86   1
M  ISO  4   1 100  68 101  83 101  85 100
M  END
> <chiral flag>
0

> <version>
0

> <s_m_source_file>
/data/baiqing/PycharmProjects/Reinvent-master-3.2/result/LINK_invent/BTK/process_docking_weight1_custom_product_contain_oxygen_bond_distance_aromatic_linkinvent_7_9_3/rearranged_h_0059.sdf

> <i_m_source_file_index>
19

> <r_mmod_Potential_Energy-OPLS-2005>
65.7871704101562

> <r_mmod_Stretch_Energy-OPLS-2005>
71.9457702636719

> <r_mmod_Bend_Energy-OPLS-2005>
149.888198852539

> <r_mmod_Torsional_Energy-OPLS-2005>
239.023345947266

> <r_mmod_Improper_Torsional_Energy-OPLS-2005>
8.37062740325928

> <r_mmod_Van_der_Waal_Energy-OPLS-2005>
153.944091796875

> <r_mmod_Electrostatic_Energy-OPLS-2005>
-175.829315185547

> <r_mmod_Solvation_Energy-OPLS-2005>
-417.290832519531

> <b_mmod_Minimization_Converged-OPLS-2005>
0

> <r_mmod_RMS_Derivative-OPLS-2005>
3.4286367893219

$$$$
19
                    3D
 Structure written by MMmdl.
162170  0  0  1  0            999 V2000
  -30.7288  -14.4146   20.6148 C   0  0  0  0  0  0
  -30.4135  -12.2807   19.4252 C   0  0  0  0  0  0
  -29.4905  -12.5172   18.2136 C   0  0  0  0  0  0
  -28.0155  -12.3494   18.6292 C   0  0  0  0  0  0
  -27.6609  -13.1810   19.8892 C   0  0  2  0  0  0
  -28.7018  -12.9607   21.0119 C   0  0  0  0  0  0
  -25.2592  -13.8103   20.5707 C   0  0  0  0  0  0
  -24.1816  -13.0393   20.9142 C   0  0  0  0  0  0
  -24.6367  -11.6856   20.8694 C   0  0  0  0  0  0
  -23.9036  -10.4270   21.0375 C   0  0  0  0  0  0
  -24.3583   -9.4215   21.9178 C   0  0  0  0  0  0
  -23.6264   -8.2253   22.0746 C   0  0  0  0  0  0
  -22.4247   -8.0294   21.3541 C   0  0  0  0  0  0
  -21.9874   -9.0260   20.4640 C   0  0  0  0  0  0
  -22.7200  -10.2135   20.3051 C   0  0  0  0  0  0
  -21.6863   -6.0747   22.5274 C   0  0  0  0  0  0
  -21.4043   -6.5646   23.8216 C   0  0  0  0  0  0
  -21.3643   -5.6791   24.9165 C   0  0  0  0  0  0
  -21.6032   -4.3057   24.7213 C   0  0  0  0  0  0
  -21.8825   -3.8159   23.4332 C   0  0  0  0  0  0
  -21.9204   -4.6978   22.3395 C   0  0  0  0  0  0
  -22.7867  -13.5213   21.1834 C   0  0  0  0  0  0
  -22.1654   -4.2185   21.0965 F   0  0  0  0  0  0
  -21.5600   -3.4535   25.7719 F   0  0  0  0  0  0
  -30.0445  -13.2478   20.4703 N   0  0  0  0  0  0
  -26.3005  -12.9212   20.3449 N   0  0  0  0  0  0
  -25.9291  -11.6394   20.5808 N   0  0  0  0  0  0
  -22.0537  -12.8205   22.0401 N   0  0  0  0  0  0
  -25.4282  -15.1833   20.4163 N   0  0  0  0  0  0
  -31.8057  -14.6455   20.0594 O   0  0  0  0  0  0
  -21.6618   -6.8893   21.4246 O   0  0  0  0  0  0
  -22.3585  -14.5550   20.6719 O   0  0  0  0  0  0
  -24.6111  -31.8724   23.2111 C   0  0  0  0  0  0
  -25.9010  -32.4841   23.8408 C   0  0  1  0  0  0
  -27.2407  -27.4813   20.0976 C   0  0  0  0  0  0
  -25.5881  -33.8642   24.2356 N   0  0  0  0  0  0
  -23.3953  -30.4966   21.5501 C   0  0  2  0  0  0
  -24.8413  -28.9609   20.1213 C   0  0  0  0  0  0
  -22.7376  -29.4717   22.5002 C   0  0  0  0  0  0
  -18.0276  -28.1425   22.8533 C   0  0  0  0  0  0
  -24.1474  -36.7313   23.2638 C   0  0  0  0  0  0
  -25.9169  -30.8540   21.3550 C   0  0  0  0  0  0
  -25.9961  -29.4871   20.7108 C   0  0  0  0  0  0
  -27.1996  -28.7536   20.6977 C   0  0  0  0  0  0
  -26.0726  -26.9551   19.5017 C   0  0  0  0  0  0
  -24.8703  -27.6900   19.5162 C   0  0  0  0  0  0
  -23.6010  -29.8244   20.1655 C   0  0  0  0  0  0
  -25.4086  -36.3134   24.0352 C   0  0  1  0  0  0
  -20.5861  -28.3694   23.1345 C   0  0  2  0  0  0
  -20.6775  -26.9434   22.5440 C   0  0  0  0  0  0
  -19.5728  -26.6440   21.5257 C   0  0  0  0  0  0
  -18.1906  -26.7981   22.1661 C   0  0  0  0  0  0
  -19.1527  -28.8873   23.2940 C   0  0  0  0  0  0
  -18.9452  -30.1489   23.8937 C   0  0  0  0  0  0
  -17.6448  -30.6616   24.0622 C   0  0  0  0  0  0
  -25.9021  -34.9495   23.5157 C   0  0  0  0  0  0
  -16.5344  -29.9132   23.6344 C   0  0  0  0  0  0
  -16.7266  -28.6563   23.0344 C   0  0  0  0  0  0
  -26.4451  -31.6610   25.0725 C   0  0  0  0  0  0
  -25.3722  -31.3688   26.1469 C   0  0  0  0  0  0
  -27.0291  -30.3074   24.6084 C   0  0  0  0  0  0
  -27.6044  -32.4308   25.7470 C   0  0  0  0  0  0
  -27.5587  -37.1806   24.8470 C   0  0  0  0  0  0
  -21.4111  -29.3062   22.3732 N   0  0  0  0  0  0
  -26.4286  -37.3811   23.9436 N   0  0  0  0  0  0
  -24.6591  -31.0867   22.0993 N   0  0  0  0  0  0
  -23.4169  -28.8282   23.3043 O   0  0  0  0  0  0
  -28.4274  -26.7961   20.0589 O   0  0  0  0  0  0
  -26.5594  -34.8940   22.4728 O   0  0  0  0  0  0
  -23.5318  -32.1446   23.7540 O   0  0  0  0  0  0
  -30.6013  -17.7654   21.5275 C   0  0  0  0  0  0
  -29.0084  -16.9231   19.8897 C   0  0  0  0  0  0
  -30.3412  -19.0915   21.0913 C   0  0  0  0  0  0
  -29.3980  -19.3240   20.0520 C   0  0  0  0  0  0
  -29.9342  -16.6753   20.9233 C   0  0  0  0  0  0
  -28.7419  -18.2265   19.4574 C   0  0  0  0  0  0
  -31.2973  -21.0836   16.5941 C   0  0  0  0  0  0
  -29.2788  -23.5230   19.4922 C   0  0  0  0  0  0
  -29.5181  -24.6631   20.1629 C   0  0  0  0  0  0
  -30.5046  -20.6665   17.6037 C   0  0  0  0  0  0
  -30.3576  -22.7083   18.9488 C   0  0  0  0  0  0
  -31.0644  -20.2483   21.7618 C   0  0  0  0  0  0
  -29.0210  -20.7295   19.5791 C   0  0  0  0  0  0
  -28.4214  -25.5399   20.7200 C   0  0  0  0  0  0
  -30.1280  -15.3432   21.3739 N   0  0  0  0  0  0
  -29.9908  -21.4185   18.6910 N   0  0  0  0  0  0
  -31.4695  -23.1747   18.6742 O   0  0  0  0  0  0
  -27.8430  -18.4158   18.4608 F   0  0  0  0  0  0
  -31.4655  -12.3442   19.1389 H   0  0  0  0  0  0
  -30.2718  -11.2673   19.8026 H   0  0  0  0  0  0
  -29.7332  -11.8207   17.4111 H   0  0  0  0  0  0
  -29.6506  -13.5171   17.8072 H   0  0  0  0  0  0
  -27.8489  -11.2909   18.8339 H   0  0  0  0  0  0
  -27.3526  -12.6023   17.8007 H   0  0  0  0  0  0
  -27.6998  -14.2209   19.5889 H   0  0  0  0  0  0
  -28.6709  -11.9265   21.3581 H   0  0  0  0  0  0
  -28.4544  -13.5567   21.8913 H   0  0  0  0  0  0
  -25.2743   -9.5717   22.4728 H   0  0  0  0  0  0
  -24.0003   -7.4668   22.7448 H   0  0  0  0  0  0
  -21.0808   -8.8781   19.8943 H   0  0  0  0  0  0
  -22.3678  -10.9669   19.6139 H   0  0  0  0  0  0
  -21.2071   -7.6162   23.9755 H   0  0  0  0  0  0
  -21.1429   -6.0494   25.9069 H   0  0  0  0  0  0
  -22.0613   -2.7623   23.2820 H   0  0  0  0  0  0
  -22.4137  -11.9822   22.4731 H   0  0  0  0  0  0
  -21.1191  -13.1248   22.2697 H   0  0  0  0  0  0
  -24.6459  -15.8201   20.5228 H   0  0  0  0  0  0
  -26.2811  -15.6485   20.1367 H   0  0  0  0  0  0
  -26.7094  -32.5552   23.1184 H   0  0  0  0  0  0
  -25.0058  -33.9817   25.0531 H   0  0  0  0  0  0
  -22.6819  -31.3105   21.4080 H   0  0  0  0  0  0
  -23.3769  -35.9622   23.3296 H   0  0  0  0  0  0
  -24.3588  -36.8934   22.2060 H   0  0  0  0  0  0
  -23.7176  -37.6488   23.6655 H   0  0  0  0  0  0
  -26.0141  -31.6183   20.5826 H   0  0  0  0  0  0
  -26.8100  -30.9164   21.9643 H   0  0  0  0  0  0
  -28.0944  -29.1615   21.1465 H   0  0  0  0  0  0
  -26.0975  -25.9908   19.0129 H   0  0  0  0  0  0
  -23.9853  -27.2775   19.0531 H   0  0  0  0  0  0
  -23.7045  -30.5963   19.4012 H   0  0  0  0  0  0
  -22.7245  -29.2445   19.8728 H   0  0  0  0  0  0
  -25.1276  -36.2013   25.0850 H   0  0  0  0  0  0
  -20.9979  -28.3297   24.1453 H   0  0  0  0  0  0
  -20.5722  -26.2323   23.3643 H   0  0  0  0  0  0
  -21.6646  -26.7491   22.1201 H   0  0  0  0  0  0
  -19.6881  -25.6360   21.1264 H   0  0  0  0  0  0
  -19.6664  -27.3292   20.6818 H   0  0  0  0  0  0
  -17.4184  -26.6794   21.4055 H   0  0  0  0  0  0
  -18.0231  -26.0111   22.9033 H   0  0  0  0  0  0
  -19.7908  -30.7339   24.2309 H   0  0  0  0  0  0
  -17.4977  -31.6289   24.5243 H   0  0  0  0  0  0
  -15.5339  -30.3047   23.7630 H   0  0  0  0  0  0
  -15.8682  -28.0909   22.6998 H   0  0  0  0  0  0
  -24.5901  -30.7032   25.7794 H   0  0  0  0  0  0
  -24.8881  -32.2820   26.4934 H   0  0  0  0  0  0
  -25.8072  -30.8844   27.0217 H   0  0  0  0  0  0
  -26.2844  -29.6814   24.1151 H   0  0  0  0  0  0
  -27.4097  -29.7330   25.4542 H   0  0  0  0  0  0
  -27.8644  -30.4444   23.9208 H   0  0  0  0  0  0
  -27.2724  -33.3637   26.2033 H   0  0  0  0  0  0
  -28.3841  -32.6809   25.0266 H   0  0  0  0  0  0
  -28.0706  -31.8410   26.5374 H   0  0  0  0  0  0
  -28.2587  -38.0121   24.7552 H   0  0  0  0  0  0
  -28.1090  -36.2652   24.6247 H   0  0  0  0  0  0
  -27.2316  -37.1402   25.8872 H   0  0  0  0  0  0
  -20.9255  -29.8748   21.6931 H   0  0  0  0  0  0
  -26.0183  -38.2891   24.1462 H   0  0  0  0  0  0
  -31.3085  -17.5832   22.3280 H   0  0  0  0  0  0
  -28.4917  -16.1187   19.4002 H   0  0  0  0  0  0
  -31.6045  -20.3950   15.8197 H   0  0  0  0  0  0
  -31.6554  -22.0972   16.5005 H   0  0  0  0  0  0
  -28.2544  -23.2181   19.3389 H   0  0  0  0  0  0
  -30.5315  -25.0068   20.3272 H   0  0  0  0  0  0
  -30.1783  -19.6372   17.6081 H   0  0  0  0  0  0
  -31.7597  -19.9017   22.5251 H   0  0  0  0  0  0
  -30.3559  -20.9266   22.2401 H   0  0  0  0  0  0
  -31.6431  -20.8133   21.0315 H   0  0  0  0  0  0
  -28.8270  -21.2824   20.4982 H   0  0  0  0  0  0
  -28.0584  -20.7046   19.0687 H   0  0  0  0  0  0
  -28.5857  -25.6937   21.7865 H   0  0  0  0  0  0
  -27.4654  -25.0227   20.6259 H   0  0  0  0  0  0
  -29.3631  -14.9658   21.9128 H   0  0  0  0  0  0
  1 25  1  0  0  0
  1 30  2  0  0  0
  1 85  1  0  0  0
  2  3  1  0  0  0
  2 25  1  0  0  0
  2 89  1  0  0  0
  2 90  1  0  0  0
  3  4  1  0  0  0
  3 91  1  0  0  0
  3 92  1  0  0  0
  4  5  1  0  0  0
  4 93  1  0  0  0
  4 94  1  0  0  0
  5  6  1  0  0  0
  5 26  1  0  0  0
  5 95  1  0  0  0
  6 25  1  0  0  0
  6 96  1  0  0  0
  6 97  1  0  0  0
  7  8  2  0  0  0
  7 26  1  0  0  0
  7 29  1  0  0  0
  8  9  1  0  0  0
  8 22  1  0  0  0
  9 10  1  0  0  0
  9 27  2  0  0  0
 10 11  2  0  0  0
 10 15  1  0  0  0
 11 12  1  0  0  0
 11 98  1  0  0  0
 12 13  2  0  0  0
 12 99  1  0  0  0
 13 14  1  0  0  0
 13 31  1  0  0  0
 14 15  2  0  0  0
 14100  1  0  0  0
 15101  1  0  0  0
 16 17  2  0  0  0
 16 21  1  0  0  0
 16 31  1  0  0  0
 17 18  1  0  0  0
 17102  1  0  0  0
 18 19  2  0  0  0
 18103  1  0  0  0
 19 20  1  0  0  0
 19 24  1  0  0  0
 20 21  2  0  0  0
 20104  1  0  0  0
 21 23  1  0  0  0
 22 28  1  0  0  0
 22 32  2  0  0  0
 26 27  1  0  0  0
 28105  1  0  0  0
 28106  1  0  0  0
 29107  1  0  0  0
 29108  1  0  0  0
 33 34  1  0  0  0
 33 66  1  0  0  0
 33 70  2  0  0  0
 34 36  1  0  0  0
 34 59  1  0  0  0
 34109  1  0  0  0
 35 44  2  0  0  0
 35 45  1  0  0  0
 35 68  1  0  0  0
 36 56  1  0  0  0
 36110  1  0  0  0
 37 39  1  0  0  0
 37 47  1  0  0  0
 37 66  1  0  0  0
 37111  1  0  0  0
 38 43  2  0  0  0
 38 46  1  0  0  0
 38 47  1  0  0  0
 39 64  1  0  0  0
 39 67  2  0  0  0
 40 52  1  0  0  0
 40 53  2  0  0  0
 40 58  1  0  0  0
 41112  1  0  0  0
 41113  1  0  0  0
 41114  1  0  0  0
 41 48  1  0  0  0
 42 43  1  0  0  0
 42 66  1  0  0  0
 42115  1  0  0  0
 42116  1  0  0  0
 43 44  1  0  0  0
 44117  1  0  0  0
 45 46  2  0  0  0
 45118  1  0  0  0
 46119  1  0  0  0
 47120  1  0  0  0
 47121  1  0  0  0
 48 56  1  0  0  0
 48 65  1  0  0  0
 48122  1  0  0  0
 49 50  1  0  0  0
 49 53  1  0  0  0
 49 64  1  0  0  0
 49123  1  0  0  0
 50 51  1  0  0  0
 50124  1  0  0  0
 50125  1  0  0  0
 51 52  1  0  0  0
 51126  1  0  0  0
 51127  1  0  0  0
 52128  1  0  0  0
 52129  1  0  0  0
 53 54  1  0  0  0
 54 55  2  0  0  0
 54130  1  0  0  0
 55 57  1  0  0  0
 55131  1  0  0  0
 56 69  2  0  0  0
 57 58  2  0  0  0
 57132  1  0  0  0
 58133  1  0  0  0
 59 60  1  0  0  0
 59 61  1  0  0  0
 59 62  1  0  0  0
 60134  1  0  0  0
 60135  1  0  0  0
 60136  1  0  0  0
 61137  1  0  0  0
 61138  1  0  0  0
 61139  1  0  0  0
 62140  1  0  0  0
 62141  1  0  0  0
 62142  1  0  0  0
 63 65  1  0  0  0
 63143  1  0  0  0
 63144  1  0  0  0
 63145  1  0  0  0
 64146  1  0  0  0
 65147  1  0  0  0
 68 84  1  0  0  0
 71 73  2  0  0  0
 71 75  1  0  0  0
 71148  1  0  0  0
 72 75  2  0  0  0
 72 76  1  0  0  0
 72149  1  0  0  0
 73 74  1  0  0  0
 73 82  1  0  0  0
 74 76  2  0  0  0
 74 83  1  0  0  0
 75 85  1  0  0  0
 76 88  1  0  0  0
 77 80  2  0  0  0
 77150  1  0  0  0
 77151  1  0  0  0
 78 79  2  0  0  0
 78 81  1  0  0  0
 78152  1  0  0  0
 79 84  1  0  0  0
 79153  1  0  0  0
 80 86  1  0  0  0
 80154  1  0  0  0
 81 86  1  0  0  0
 81 87  2  0  0  0
 82155  1  0  0  0
 82156  1  0  0  0
 82157  1  0  0  0
 83 86  1  0  0  0
 83158  1  0  0  0
 83159  1  0  0  0
 84160  1  0  0  0
 84161  1  0  0  0
 85162  1  0  0  0
M  ISO  4   1 100  68 101  84 101  85 100
M  END
> <chiral flag>
0

> <version>
0

> <s_m_source_file>
/data/baiqing/PycharmProjects/Reinvent-master-3.2/result/LINK_invent/BTK/process_docking_weight1_custom_product_contain_oxygen_bond_distance_aromatic_linkinvent_7_9_3/rearranged_h_0059.sdf

> <i_m_source_file_index>
20

> <r_mmod_Potential_Energy-OPLS-2005>
84.828498840332

> <r_mmod_Stretch_Energy-OPLS-2005>
38.0995788574219

> <r_mmod_Bend_Energy-OPLS-2005>
100.201042175293

> <r_mmod_Torsional_Energy-OPLS-2005>
295.475555419922

> <r_mmod_Improper_Torsional_Energy-OPLS-2005>
6.00210380554199

> <r_mmod_Van_der_Waal_Energy-OPLS-2005>
174.397903442383

> <r_mmod_Electrostatic_Energy-OPLS-2005>
-316.418762207031

> <r_mmod_Solvation_Energy-OPLS-2005>
-220.910446166992

> <b_mmod_Minimization_Converged-OPLS-2005>
0

> <r_mmod_RMS_Derivative-OPLS-2005>
3.83323884010315

$$$$
20
                    3D
 Structure written by MMmdl.
168177  0  0  1  0            999 V2000
  -30.6956  -14.4288   20.5884 C   0  0  0  0  0  0
  -30.4165  -12.2796   19.4337 C   0  0  0  0  0  0
  -29.4946  -12.5051   18.2171 C   0  0  0  0  0  0
  -28.0093  -12.3968   18.6159 C   0  0  0  0  0  0
  -27.6625  -13.2142   19.8900 C   0  0  2  0  0  0
  -28.6958  -12.9620   21.0103 C   0  0  0  0  0  0
  -25.2539  -13.8186   20.5682 C   0  0  0  0  0  0
  -24.1796  -13.0448   20.9169 C   0  0  0  0  0  0
  -24.6363  -11.6919   20.8728 C   0  0  0  0  0  0
  -23.9021  -10.4301   21.0391 C   0  0  0  0  0  0
  -24.3582   -9.4220   21.9171 C   0  0  0  0  0  0
  -23.6272   -8.2251   22.0750 C   0  0  0  0  0  0
  -22.4258   -8.0280   21.3529 C   0  0  0  0  0  0
  -21.9859   -9.0247   20.4635 C   0  0  0  0  0  0
  -22.7187  -10.2132   20.3037 C   0  0  0  0  0  0
  -21.6840   -6.0722   22.5273 C   0  0  0  0  0  0
  -21.4051   -6.5628   23.8211 C   0  0  0  0  0  0
  -21.3660   -5.6777   24.9170 C   0  0  0  0  0  0
  -21.6018   -4.3036   24.7218 C   0  0  0  0  0  0
  -21.8812   -3.8131   23.4345 C   0  0  0  0  0  0
  -21.9186   -4.6951   22.3400 C   0  0  0  0  0  0
  -22.7812  -13.5230   21.1857 C   0  0  0  0  0  0
  -22.1642   -4.2131   21.0975 F   0  0  0  0  0  0
  -21.5605   -3.4521   25.7733 F   0  0  0  0  0  0
  -30.0333  -13.2508   20.4712 N   0  0  0  0  0  0
  -26.2995  -12.9372   20.3399 N   0  0  0  0  0  0
  -25.9288  -11.6514   20.5760 N   0  0  0  0  0  0
  -22.0436  -12.8242   22.0425 N   0  0  0  0  0  0
  -25.4250  -15.1907   20.4112 N   0  0  0  0  0  0
  -31.8342  -14.5940   20.1331 O   0  0  0  0  0  0
  -21.6628   -6.8870   21.4240 O   0  0  0  0  0  0
  -22.3485  -14.5521   20.6678 O   0  0  0  0  0  0
  -24.6134  -31.8694   23.2137 C   0  0  0  0  0  0
  -25.9057  -32.4800   23.8406 C   0  0  1  0  0  0
  -27.2280  -27.4327   20.0848 C   0  0  0  0  0  0
  -25.5945  -33.8594   24.2364 N   0  0  0  0  0  0
  -23.4006  -30.4966   21.5557 C   0  0  2  0  0  0
  -24.8394  -28.9575   20.1294 C   0  0  0  0  0  0
  -22.7395  -29.4674   22.5016 C   0  0  0  0  0  0
  -18.0269  -28.1381   22.8474 C   0  0  0  0  0  0
  -24.1485  -36.7261   23.2638 C   0  0  0  0  0  0
  -25.9316  -30.8313   21.3714 C   0  0  0  0  0  0
  -26.0037  -29.4683   20.7129 C   0  0  0  0  0  0
  -27.2001  -28.7148   20.6829 C   0  0  0  0  0  0
  -26.0251  -26.9199   19.5383 C   0  0  0  0  0  0
  -24.8401  -27.6775   19.5529 C   0  0  0  0  0  0
  -23.6082  -29.8343   20.1704 C   0  0  0  0  0  0
  -25.4105  -36.3085   24.0359 C   0  0  1  0  0  0
  -20.5851  -28.3661   23.1304 C   0  0  2  0  0  0
  -20.6763  -26.9411   22.5394 C   0  0  0  0  0  0
  -19.5750  -26.6392   21.5184 C   0  0  0  0  0  0
  -18.1927  -26.7924   22.1608 C   0  0  0  0  0  0
  -19.1520  -28.8842   23.2880 C   0  0  0  0  0  0
  -18.9451  -30.1435   23.8908 C   0  0  0  0  0  0
  -17.6461  -30.6586   24.0555 C   0  0  0  0  0  0
  -25.9037  -34.9451   23.5154 C   0  0  0  0  0  0
  -16.5347  -29.9083   23.6331 C   0  0  0  0  0  0
  -16.7258  -28.6495   23.0360 C   0  0  0  0  0  0
  -26.4505  -31.6560   25.0724 C   0  0  0  0  0  0
  -25.3787  -31.3638   26.1490 C   0  0  0  0  0  0
  -27.0313  -30.2987   24.6088 C   0  0  0  0  0  0
  -27.6102  -32.4259   25.7479 C   0  0  0  0  0  0
  -27.5577  -37.1791   24.8479 C   0  0  0  0  0  0
  -21.4131  -29.3034   22.3735 N   0  0  0  0  0  0
  -26.4282  -37.3776   23.9437 N   0  0  0  0  0  0
  -24.6661  -31.0797   22.1044 N   0  0  0  0  0  0
  -23.4169  -28.8221   23.3066 O   0  0  0  0  0  0
  -28.4302  -26.7505   20.0687 O   0  0  0  0  0  0
  -26.5569  -34.8902   22.4695 O   0  0  0  0  0  0
  -23.5336  -32.1457   23.7551 O   0  0  0  0  0  0
  -29.6919  -17.8873   21.4972 C   0  0  0  0  0  0
  -30.5837  -17.1298   19.3734 C   0  0  0  0  0  0
  -29.8948  -19.2402   21.1170 C   0  0  0  0  0  0
  -30.5373  -19.5153   19.8714 C   0  0  0  0  0  0
  -30.0942  -16.8184   20.6601 C   0  0  0  0  0  0
  -30.8115  -18.4516   18.9817 C   0  0  0  0  0  0
  -27.9624  -21.7744   20.7651 C   0  0  0  0  0  0
  -27.8746  -23.0228   19.8703 C   0  0  0  0  0  0
  -29.8093  -24.0188   21.1232 C   0  0  0  0  0  0
  -29.7838  -22.8123   22.0825 C   0  0  0  0  0  0
  -28.4305  -24.3112   20.5029 C   0  0  1  0  0  0
  -31.0115  -20.9054   19.4815 C   0  0  0  0  0  0
  -30.4889  -19.2098   16.7756 C   0  0  0  0  0  0
  -29.4623  -20.3317   22.1182 C   0  0  0  0  0  0
  -28.5233  -25.4573   19.4621 C   0  0  0  0  0  0
  -29.0478  -21.6405   21.5684 N   0  0  0  0  0  0
  -29.9844  -15.4584   21.0936 N   0  0  0  0  0  0
  -27.1103  -20.8913   20.6402 O   0  0  0  0  0  0
  -31.3704  -18.6590   17.7463 O   0  0  0  0  0  0
  -31.4620  -12.3727   19.1286 H   0  0  0  0  0  0
  -30.3096  -11.2634   19.8166 H   0  0  0  0  0  0
  -29.7267  -11.7852   17.4315 H   0  0  0  0  0  0
  -29.6883  -13.4925   17.7914 H   0  0  0  0  0  0
  -27.7831  -11.3421   18.7773 H   0  0  0  0  0  0
  -27.3760  -12.7195   17.7876 H   0  0  0  0  0  0
  -27.7158  -14.2695   19.6218 H   0  0  0  0  0  0
  -28.6519  -11.9195   21.3292 H   0  0  0  0  0  0
  -28.4683  -13.5512   21.8984 H   0  0  0  0  0  0
  -25.2719   -9.5687   22.4756 H   0  0  0  0  0  0
  -23.9949   -7.4640   22.7466 H   0  0  0  0  0  0
  -21.0773   -8.8774   19.8961 H   0  0  0  0  0  0
  -22.3635  -10.9672   19.6159 H   0  0  0  0  0  0
  -21.2111   -7.6150   23.9715 H   0  0  0  0  0  0
  -21.1466   -6.0514   25.9065 H   0  0  0  0  0  0
  -22.0601   -2.7596   23.2845 H   0  0  0  0  0  0
  -22.4014  -11.9917   22.4864 H   0  0  0  0  0  0
  -21.1073  -13.1323   22.2619 H   0  0  0  0  0  0
  -24.6685  -15.8543   20.5370 H   0  0  0  0  0  0
  -26.2782  -15.6257   20.0833 H   0  0  0  0  0  0
  -26.7127  -32.5514   23.1167 H   0  0  0  0  0  0
  -25.0158  -33.9722   25.0562 H   0  0  0  0  0  0
  -22.6894  -31.3137   21.4208 H   0  0  0  0  0  0
  -23.3755  -35.9584   23.3311 H   0  0  0  0  0  0
  -24.3569  -36.8828   22.2038 H   0  0  0  0  0  0
  -23.7214  -37.6474   23.6610 H   0  0  0  0  0  0
  -26.0599  -31.6024   20.6104 H   0  0  0  0  0  0
  -26.8119  -30.8677   21.9994 H   0  0  0  0  0  0
  -28.1081  -29.1077   21.1195 H   0  0  0  0  0  0
  -25.9536  -25.9323   19.1132 H   0  0  0  0  0  0
  -23.9327  -27.2651   19.1356 H   0  0  0  0  0  0
  -23.7308  -30.6110   19.4122 H   0  0  0  0  0  0
  -22.7276  -29.2637   19.8699 H   0  0  0  0  0  0
  -25.1275  -36.1950   25.0848 H   0  0  0  0  0  0
  -20.9933  -28.3229   24.1427 H   0  0  0  0  0  0
  -20.5644  -26.2282   23.3572 H   0  0  0  0  0  0
  -21.6638  -26.7460   22.1213 H   0  0  0  0  0  0
  -19.6912  -25.6304   21.1196 H   0  0  0  0  0  0
  -19.6682  -27.3211   20.6715 H   0  0  0  0  0  0
  -17.4193  -26.6643   21.4015 H   0  0  0  0  0  0
  -18.0362  -26.0056   22.9001 H   0  0  0  0  0  0
  -19.7924  -30.7226   24.2312 H   0  0  0  0  0  0
  -17.5018  -31.6272   24.5145 H   0  0  0  0  0  0
  -15.5349  -30.3002   23.7639 H   0  0  0  0  0  0
  -15.8649  -28.0799   22.7123 H   0  0  0  0  0  0
  -24.6016  -30.6912   25.7854 H   0  0  0  0  0  0
  -24.8920  -32.2758   26.4940 H   0  0  0  0  0  0
  -25.8182  -30.8840   27.0246 H   0  0  0  0  0  0
  -26.2829  -29.6747   24.1183 H   0  0  0  0  0  0
  -27.4116  -29.7221   25.4532 H   0  0  0  0  0  0
  -27.8671  -30.4274   23.9203 H   0  0  0  0  0  0
  -27.2774  -33.3583   26.2051 H   0  0  0  0  0  0
  -28.3935  -32.6761   25.0312 H   0  0  0  0  0  0
  -28.0751  -31.8364   26.5391 H   0  0  0  0  0  0
  -28.2630  -38.0066   24.7536 H   0  0  0  0  0  0
  -28.1048  -36.2592   24.6317 H   0  0  0  0  0  0
  -27.2281  -37.1473   25.8883 H   0  0  0  0  0  0
  -20.9320  -29.8724   21.6918 H   0  0  0  0  0  0
  -26.0165  -38.2846   24.1470 H   0  0  0  0  0  0
  -29.2549  -17.6697   22.4635 H   0  0  0  0  0  0
  -30.8245  -16.3539   18.6608 H   0  0  0  0  0  0
  -26.8359  -23.1701   19.5733 H   0  0  0  0  0  0
  -28.4226  -22.8123   18.9523 H   0  0  0  0  0  0
  -30.5298  -23.8157   20.3277 H   0  0  0  0  0  0
  -30.1878  -24.8971   21.6464 H   0  0  0  0  0  0
  -29.3353  -23.1045   23.0338 H   0  0  0  0  0  0
  -30.8176  -22.5443   22.3069 H   0  0  0  0  0  0
  -27.7309  -24.6056   21.2874 H   0  0  0  0  0  0
  -31.4430  -21.4153   20.3412 H   0  0  0  0  0  0
  -30.1974  -21.4937   19.0690 H   0  0  0  0  0  0
  -31.7924  -20.8716   18.7256 H   0  0  0  0  0  0
  -30.8950  -20.1497   16.4046 H   0  0  0  0  0  0
  -29.4803  -19.4034   17.1469 H   0  0  0  0  0  0
  -30.4023  -18.5286   15.9303 H   0  0  0  0  0  0
  -30.2896  -20.4650   22.8148 H   0  0  0  0  0  0
  -28.6463  -19.9509   22.7345 H   0  0  0  0  0  0
  -27.8290  -25.3125   18.6356 H   0  0  0  0  0  0
  -29.4926  -25.4141   18.9666 H   0  0  0  0  0  0
  -29.1892  -15.2257   21.6720 H   0  0  0  0  0  0
  1 25  1  0  0  0
  1 30  2  0  0  0
  1 87  1  0  0  0
  2  3  1  0  0  0
  2 25  1  0  0  0
  2 90  1  0  0  0
  2 91  1  0  0  0
  3  4  1  0  0  0
  3 92  1  0  0  0
  3 93  1  0  0  0
  4  5  1  0  0  0
  4 94  1  0  0  0
  4 95  1  0  0  0
  5  6  1  0  0  0
  5 26  1  0  0  0
  5 96  1  0  0  0
  6 25  1  0  0  0
  6 97  1  0  0  0
  6 98  1  0  0  0
  7  8  2  0  0  0
  7 26  1  0  0  0
  7 29  1  0  0  0
  8  9  1  0  0  0
  8 22  1  0  0  0
  9 10  1  0  0  0
  9 27  2  0  0  0
 10 11  2  0  0  0
 10 15  1  0  0  0
 11 12  1  0  0  0
 11 99  1  0  0  0
 12 13  2  0  0  0
 12100  1  0  0  0
 13 14  1  0  0  0
 13 31  1  0  0  0
 14 15  2  0  0  0
 14101  1  0  0  0
 15102  1  0  0  0
 16 17  2  0  0  0
 16 21  1  0  0  0
 16 31  1  0  0  0
 17 18  1  0  0  0
 17103  1  0  0  0
 18 19  2  0  0  0
 18104  1  0  0  0
 19 20  1  0  0  0
 19 24  1  0  0  0
 20 21  2  0  0  0
 20105  1  0  0  0
 21 23  1  0  0  0
 22 28  1  0  0  0
 22 32  2  0  0  0
 26 27  1  0  0  0
 28106  1  0  0  0
 28107  1  0  0  0
 29108  1  0  0  0
 29109  1  0  0  0
 33 34  1  0  0  0
 33 66  1  0  0  0
 33 70  2  0  0  0
 34 36  1  0  0  0
 34 59  1  0  0  0
 34110  1  0  0  0
 35 44  2  0  0  0
 35 45  1  0  0  0
 35 68  1  0  0  0
 36 56  1  0  0  0
 36111  1  0  0  0
 37 39  1  0  0  0
 37 47  1  0  0  0
 37 66  1  0  0  0
 37112  1  0  0  0
 38 43  2  0  0  0
 38 46  1  0  0  0
 38 47  1  0  0  0
 39 64  1  0  0  0
 39 67  2  0  0  0
 40 52  1  0  0  0
 40 53  2  0  0  0
 40 58  1  0  0  0
 41113  1  0  0  0
 41114  1  0  0  0
 41115  1  0  0  0
 41 48  1  0  0  0
 42 43  1  0  0  0
 42 66  1  0  0  0
 42116  1  0  0  0
 42117  1  0  0  0
 43 44  1  0  0  0
 44118  1  0  0  0
 45 46  2  0  0  0
 45119  1  0  0  0
 46120  1  0  0  0
 47121  1  0  0  0
 47122  1  0  0  0
 48 56  1  0  0  0
 48 65  1  0  0  0
 48123  1  0  0  0
 49 50  1  0  0  0
 49 53  1  0  0  0
 49 64  1  0  0  0
 49124  1  0  0  0
 50 51  1  0  0  0
 50125  1  0  0  0
 50126  1  0  0  0
 51 52  1  0  0  0
 51127  1  0  0  0
 51128  1  0  0  0
 52129  1  0  0  0
 52130  1  0  0  0
 53 54  1  0  0  0
 54 55  2  0  0  0
 54131  1  0  0  0
 55 57  1  0  0  0
 55132  1  0  0  0
 56 69  2  0  0  0
 57 58  2  0  0  0
 57133  1  0  0  0
 58134  1  0  0  0
 59 60  1  0  0  0
 59 61  1  0  0  0
 59 62  1  0  0  0
 60135  1  0  0  0
 60136  1  0  0  0
 60137  1  0  0  0
 61138  1  0  0  0
 61139  1  0  0  0
 61140  1  0  0  0
 62141  1  0  0  0
 62142  1  0  0  0
 62143  1  0  0  0
 63 65  1  0  0  0
 63144  1  0  0  0
 63145  1  0  0  0
 63146  1  0  0  0
 64147  1  0  0  0
 65148  1  0  0  0
 68 85  1  0  0  0
 71 73  2  0  0  0
 71 75  1  0  0  0
 71149  1  0  0  0
 72 75  2  0  0  0
 72 76  1  0  0  0
 72150  1  0  0  0
 73 74  1  0  0  0
 73 84  1  0  0  0
 74 76  2  0  0  0
 74 82  1  0  0  0
 75 87  1  0  0  0
 76 89  1  0  0  0
 77 78  1  0  0  0
 77 86  1  0  0  0
 77 88  2  0  0  0
 78 81  1  0  0  0
 78151  1  0  0  0
 78152  1  0  0  0
 79 80  1  0  0  0
 79 81  1  0  0  0
 79153  1  0  0  0
 79154  1  0  0  0
 80 86  1  0  0  0
 80155  1  0  0  0
 80156  1  0  0  0
 81 85  1  0  0  0
 81157  1  0  0  0
 82158  1  0  0  0
 82159  1  0  0  0
 82160  1  0  0  0
 83 89  1  0  0  0
 83161  1  0  0  0
 83162  1  0  0  0
 83163  1  0  0  0
 84 86  1  0  0  0
 84164  1  0  0  0
 84165  1  0  0  0
 85166  1  0  0  0
 85167  1  0  0  0
 87168  1  0  0  0
M  ISO  4   1 100  68 101  85 101  87 100
M  END
> <chiral flag>
0

> <version>
0

> <s_m_source_file>
/data/baiqing/PycharmProjects/Reinvent-master-3.2/result/LINK_invent/BTK/process_docking_weight1_custom_product_contain_oxygen_bond_distance_aromatic_linkinvent_7_9_3/rearranged_h_0059.sdf

> <i_m_source_file_index>
21

> <r_mmod_Potential_Energy-OPLS-2005>
5.3311824798584

> <r_mmod_Stretch_Energy-OPLS-2005>
41.8744239807129

> <r_mmod_Bend_Energy-OPLS-2005>
111.362045288086

> <r_mmod_Torsional_Energy-OPLS-2005>
285.360168457031

> <r_mmod_Improper_Torsional_Energy-OPLS-2005>
5.45100116729736

> <r_mmod_Van_der_Waal_Energy-OPLS-2005>
179.152694702148

> <r_mmod_Electrostatic_Energy-OPLS-2005>
-393.188232421875

> <r_mmod_Solvation_Energy-OPLS-2005>
-236.964263916016

> <b_mmod_Minimization_Converged-OPLS-2005>
0

> <r_mmod_RMS_Derivative-OPLS-2005>
4.6725926399231

$$$$
21
                    3D
 Structure written by MMmdl.
171180  0  0  1  0            999 V2000
  -30.6788  -14.4580   20.6982 C   0  0  0  0  0  0
  -30.4441  -12.3474   19.4080 C   0  0  0  0  0  0
  -29.4985  -12.5433   18.2033 C   0  0  0  0  0  0
  -28.0244  -12.3606   18.6224 C   0  0  0  0  0  0
  -27.6690  -13.1929   19.8803 C   0  0  2  0  0  0
  -28.6981  -12.9325   20.9966 C   0  0  0  0  0  0
  -25.2666  -13.8135   20.5679 C   0  0  0  0  0  0
  -24.1883  -13.0435   20.9152 C   0  0  0  0  0  0
  -24.6409  -11.6888   20.8731 C   0  0  0  0  0  0
  -23.9064  -10.4286   21.0411 C   0  0  0  0  0  0
  -24.3604   -9.4207   21.9204 C   0  0  0  0  0  0
  -23.6286   -8.2244   22.0768 C   0  0  0  0  0  0
  -22.4267   -8.0286   21.3552 C   0  0  0  0  0  0
  -21.9898   -9.0263   20.4644 C   0  0  0  0  0  0
  -22.7232  -10.2144   20.3056 C   0  0  0  0  0  0
  -21.6848   -6.0726   22.5278 C   0  0  0  0  0  0
  -21.4024   -6.5634   23.8216 C   0  0  0  0  0  0
  -21.3674   -5.6790   24.9176 C   0  0  0  0  0  0
  -21.6034   -4.3051   24.7223 C   0  0  0  0  0  0
  -21.8839   -3.8145   23.4354 C   0  0  0  0  0  0
  -21.9210   -4.6959   22.3405 C   0  0  0  0  0  0
  -22.7901  -13.5256   21.1810 C   0  0  0  0  0  0
  -22.1671   -4.2131   21.0987 F   0  0  0  0  0  0
  -21.5626   -3.4548   25.7753 F   0  0  0  0  0  0
  -30.0432  -13.2708   20.4837 N   0  0  0  0  0  0
  -26.3060  -12.9249   20.3357 N   0  0  0  0  0  0
  -25.9304  -11.6410   20.5714 N   0  0  0  0  0  0
  -22.0520  -12.8248   22.0352 N   0  0  0  0  0  0
  -25.4434  -15.1849   20.4147 N   0  0  0  0  0  0
  -31.6712  -14.8226   20.0602 O   0  0  0  0  0  0
  -21.6640   -6.8868   21.4243 O   0  0  0  0  0  0
  -22.3585  -14.5564   20.6682 O   0  0  0  0  0  0
  -24.6182  -31.8635   23.2055 C   0  0  0  0  0  0
  -25.9041  -32.4791   23.8358 C   0  0  1  0  0  0
  -27.2438  -27.3923   20.1033 C   0  0  0  0  0  0
  -25.5861  -33.8589   24.2260 N   0  0  0  0  0  0
  -23.4068  -30.4848   21.5453 C   0  0  2  0  0  0
  -24.8542  -28.9418   20.1120 C   0  0  0  0  0  0
  -22.7410  -29.4652   22.4954 C   0  0  0  0  0  0
  -18.0303  -28.1390   22.8483 C   0  0  0  0  0  0
  -24.1486  -36.7308   23.2640 C   0  0  0  0  0  0
  -25.9387  -30.8152   21.3659 C   0  0  0  0  0  0
  -26.0115  -29.4458   20.7152 C   0  0  0  0  0  0
  -27.2015  -28.6745   20.7114 C   0  0  0  0  0  0
  -26.0610  -26.9122   19.4920 C   0  0  0  0  0  0
  -24.8745  -27.6751   19.5017 C   0  0  0  0  0  0
  -23.6145  -29.8094   20.1618 C   0  0  0  0  0  0
  -25.4104  -36.3072   24.0322 C   0  0  1  0  0  0
  -20.5889  -28.3654   23.1320 C   0  0  2  0  0  0
  -20.6753  -26.9380   22.5475 C   0  0  0  0  0  0
  -19.5776  -26.6435   21.5210 C   0  0  0  0  0  0
  -18.1915  -26.7967   22.1553 C   0  0  0  0  0  0
  -19.1551  -28.8832   23.2911 C   0  0  0  0  0  0
  -18.9484  -30.1440   23.8932 C   0  0  0  0  0  0
  -17.6487  -30.6568   24.0590 C   0  0  0  0  0  0
  -25.9039  -34.9458   23.5105 C   0  0  0  0  0  0
  -16.5374  -29.9057   23.6358 C   0  0  0  0  0  0
  -16.7279  -28.6501   23.0337 C   0  0  0  0  0  0
  -26.4457  -31.6596   25.0705 C   0  0  0  0  0  0
  -25.3705  -31.3779   26.1453 C   0  0  0  0  0  0
  -27.0319  -30.3019   24.6152 C   0  0  0  0  0  0
  -27.5981  -32.4367   25.7479 C   0  0  0  0  0  0
  -27.5567  -37.1797   24.8452 C   0  0  0  0  0  0
  -21.4144  -29.2982   22.3674 N   0  0  0  0  0  0
  -26.4291  -37.3751   23.9400 N   0  0  0  0  0  0
  -24.6719  -31.0707   22.0958 N   0  0  0  0  0  0
  -23.4160  -28.8220   23.3061 O   0  0  0  0  0  0
  -28.4257  -26.6667   20.1661 O   0  0  0  0  0  0
  -26.5605  -34.8932   22.4662 O   0  0  0  0  0  0
  -23.5361  -32.1406   23.7423 O   0  0  0  0  0  0
  -29.2300  -16.7126   23.2526 C   0  0  0  0  0  0
  -29.5433  -17.4404   20.9567 C   0  0  0  0  0  0
  -28.4778  -17.8671   23.5445 C   0  0  0  0  0  0
  -28.7942  -18.6311   21.2157 C   0  0  0  0  0  0
  -28.2156  -18.8095   22.5110 C   0  0  0  0  0  0
  -29.7186  -16.4498   21.9598 C   0  0  0  0  0  0
  -27.3367  -21.8004   19.9661 C   0  0  0  0  0  0
  -28.1565  -19.0925   25.6673 C   0  0  0  0  0  0
  -27.9286  -18.0013   24.9155 C   0  0  0  0  0  0
  -27.3183  -23.3278   20.2471 C   0  0  0  0  0  0
  -29.8199  -23.1437   19.8162 C   0  0  0  0  0  0
  -29.7269  -21.7516   20.5003 C   0  0  0  0  0  0
  -28.6755  -24.0908   20.2576 C   0  0  1  0  0  0
  -27.2425  -19.9485   22.7907 C   0  0  0  0  0  0
  -27.0644  -16.8678   25.4304 C   0  0  0  0  0  0
  -28.5150  -19.5842   20.0192 C   0  0  0  0  0  0
  -28.6534  -25.4339   19.4363 C   0  0  0  0  0  0
  -28.4570  -21.0693   20.2115 N   0  0  0  0  0  0
  -30.2195  -15.1192   21.7773 N   0  0  0  0  0  0
  -26.2938  -21.2914   19.5460 O   0  0  0  0  0  0
  -31.4799  -12.5071   19.1019 H   0  0  0  0  0  0
  -30.3899  -11.3219   19.7723 H   0  0  0  0  0  0
  -29.7514  -11.8395   17.4094 H   0  0  0  0  0  0
  -29.6405  -13.5403   17.7842 H   0  0  0  0  0  0
  -27.8706  -11.2989   18.8290 H   0  0  0  0  0  0
  -27.3546  -12.6089   17.7972 H   0  0  0  0  0  0
  -27.7286  -14.2471   19.6079 H   0  0  0  0  0  0
  -28.6744  -11.8799   21.2829 H   0  0  0  0  0  0
  -28.4047  -13.4801   21.8932 H   0  0  0  0  0  0
  -25.2763   -9.5683   22.4739 H   0  0  0  0  0  0
  -24.0001   -7.4653   22.7498 H   0  0  0  0  0  0
  -21.0817   -8.8796   19.8944 H   0  0  0  0  0  0
  -22.3725  -10.9676   19.6136 H   0  0  0  0  0  0
  -21.2012   -7.6141   23.9706 H   0  0  0  0  0  0
  -21.1457   -6.0520   25.9074 H   0  0  0  0  0  0
  -22.0595   -2.7595   23.2872 H   0  0  0  0  0  0
  -22.4131  -11.9907   22.4735 H   0  0  0  0  0  0
  -21.1139  -13.1267   22.2535 H   0  0  0  0  0  0
  -24.6841  -15.8435   20.5455 H   0  0  0  0  0  0
  -26.3181  -15.6304   20.1626 H   0  0  0  0  0  0
  -26.7118  -32.5497   23.1133 H   0  0  0  0  0  0
  -24.9990  -33.9732   25.0391 H   0  0  0  0  0  0
  -22.7004  -31.3046   21.4042 H   0  0  0  0  0  0
  -23.3723  -35.9662   23.3305 H   0  0  0  0  0  0
  -24.3611  -36.8928   22.2055 H   0  0  0  0  0  0
  -23.7288  -37.6531   23.6679 H   0  0  0  0  0  0
  -26.0582  -31.5784   20.5944 H   0  0  0  0  0  0
  -26.8235  -30.8678   21.9875 H   0  0  0  0  0  0
  -28.0916  -29.0579   21.1924 H   0  0  0  0  0  0
  -26.0281  -25.9424   19.0202 H   0  0  0  0  0  0
  -23.9789  -27.2760   19.0448 H   0  0  0  0  0  0
  -23.7133  -30.5784   19.3954 H   0  0  0  0  0  0
  -22.7388  -29.2205   19.8811 H   0  0  0  0  0  0
  -25.1304  -36.1920   25.0816 H   0  0  0  0  0  0
  -20.9975  -28.3232   24.1438 H   0  0  0  0  0  0
  -21.6642  -26.7387   22.1335 H   0  0  0  0  0  0
  -20.5602  -26.2320   23.3715 H   0  0  0  0  0  0
  -19.7018  -25.6424   21.1117 H   0  0  0  0  0  0
  -19.6793  -27.3353   20.6837 H   0  0  0  0  0  0
  -17.4277  -26.6920   21.3834 H   0  0  0  0  0  0
  -18.0116  -26.0014   22.8802 H   0  0  0  0  0  0
  -19.7975  -30.7244   24.2276 H   0  0  0  0  0  0
  -17.5032  -31.6233   24.5201 H   0  0  0  0  0  0
  -15.5371  -30.2970   23.7658 H   0  0  0  0  0  0
  -15.8684  -28.0843   22.6988 H   0  0  0  0  0  0
  -24.5762  -30.7253   25.7834 H   0  0  0  0  0  0
  -24.9026  -32.2986   26.4951 H   0  0  0  0  0  0
  -25.8012  -30.8889   27.0195 H   0  0  0  0  0  0
  -26.2902  -29.6739   24.1183 H   0  0  0  0  0  0
  -27.4058  -29.7320   25.4680 H   0  0  0  0  0  0
  -27.8749  -30.4339   23.9349 H   0  0  0  0  0  0
  -27.2492  -33.3590   26.2149 H   0  0  0  0  0  0
  -28.3717  -32.7082   25.0282 H   0  0  0  0  0  0
  -28.0727  -31.8459   26.5330 H   0  0  0  0  0  0
  -28.2581  -38.0088   24.7478 H   0  0  0  0  0  0
  -28.1056  -36.2625   24.6299 H   0  0  0  0  0  0
  -27.2277  -37.1463   25.8846 H   0  0  0  0  0  0
  -20.9298  -29.8560   21.6772 H   0  0  0  0  0  0
  -26.0163  -38.2829   24.1383 H   0  0  0  0  0  0
  -29.3834  -15.9821   24.0343 H   0  0  0  0  0  0
  -29.9083  -17.2637   19.9541 H   0  0  0  0  0  0
  -28.7601  -19.9150   25.3185 H   0  0  0  0  0  0
  -27.7356  -19.1771   26.6587 H   0  0  0  0  0  0
  -26.8089  -23.4775   21.1982 H   0  0  0  0  0  0
  -26.6683  -23.7675   19.4940 H   0  0  0  0  0  0
  -29.7930  -23.0204   18.7298 H   0  0  0  0  0  0
  -30.7810  -23.6070   20.0437 H   0  0  0  0  0  0
  -29.8259  -21.8505   21.5823 H   0  0  0  0  0  0
  -30.5655  -21.1300   20.1808 H   0  0  0  0  0  0
  -28.8934  -24.3531   21.2956 H   0  0  0  0  0  0
  -26.5522  -19.7320   23.6072 H   0  0  0  0  0  0
  -26.5926  -20.1176   21.9369 H   0  0  0  0  0  0
  -27.7884  -20.8585   23.0358 H   0  0  0  0  0  0
  -27.6458  -15.9582   25.5977 H   0  0  0  0  0  0
  -26.2689  -16.6416   24.7213 H   0  0  0  0  0  0
  -26.5919  -17.1354   26.3767 H   0  0  0  0  0  0
  -27.5866  -19.2164   19.5796 H   0  0  0  0  0  0
  -29.2701  -19.3903   19.2543 H   0  0  0  0  0  0
  -28.0516  -25.3490   18.5340 H   0  0  0  0  0  0
  -29.6628  -25.5716   19.0473 H   0  0  0  0  0  0
  -29.7547  -14.4726   22.3986 H   0  0  0  0  0  0
  1 25  1  0  0  0
  1 30  2  0  0  0
  1 89  1  0  0  0
  2  3  1  0  0  0
  2 25  1  0  0  0
  2 91  1  0  0  0
  2 92  1  0  0  0
  3  4  1  0  0  0
  3 93  1  0  0  0
  3 94  1  0  0  0
  4  5  1  0  0  0
  4 95  1  0  0  0
  4 96  1  0  0  0
  5  6  1  0  0  0
  5 26  1  0  0  0
  5 97  1  0  0  0
  6 25  1  0  0  0
  6 98  1  0  0  0
  6 99  1  0  0  0
  7  8  2  0  0  0
  7 26  1  0  0  0
  7 29  1  0  0  0
  8  9  1  0  0  0
  8 22  1  0  0  0
  9 10  1  0  0  0
  9 27  2  0  0  0
 10 11  2  0  0  0
 10 15  1  0  0  0
 11 12  1  0  0  0
 11100  1  0  0  0
 12 13  2  0  0  0
 12101  1  0  0  0
 13 14  1  0  0  0
 13 31  1  0  0  0
 14 15  2  0  0  0
 14102  1  0  0  0
 15103  1  0  0  0
 16 17  2  0  0  0
 16 21  1  0  0  0
 16 31  1  0  0  0
 17 18  1  0  0  0
 17104  1  0  0  0
 18 19  2  0  0  0
 18105  1  0  0  0
 19 20  1  0  0  0
 19 24  1  0  0  0
 20 21  2  0  0  0
 20106  1  0  0  0
 21 23  1  0  0  0
 22 28  1  0  0  0
 22 32  2  0  0  0
 26 27  1  0  0  0
 28107  1  0  0  0
 28108  1  0  0  0
 29109  1  0  0  0
 29110  1  0  0  0
 33 34  1  0  0  0
 33 66  1  0  0  0
 33 70  2  0  0  0
 34 36  1  0  0  0
 34 59  1  0  0  0
 34111  1  0  0  0
 35 44  2  0  0  0
 35 45  1  0  0  0
 35 68  1  0  0  0
 36 56  1  0  0  0
 36112  1  0  0  0
 37 39  1  0  0  0
 37 47  1  0  0  0
 37 66  1  0  0  0
 37113  1  0  0  0
 38 43  2  0  0  0
 38 46  1  0  0  0
 38 47  1  0  0  0
 39 64  1  0  0  0
 39 67  2  0  0  0
 40 52  1  0  0  0
 40 53  2  0  0  0
 40 58  1  0  0  0
 41114  1  0  0  0
 41115  1  0  0  0
 41116  1  0  0  0
 41 48  1  0  0  0
 42 43  1  0  0  0
 42 66  1  0  0  0
 42117  1  0  0  0
 42118  1  0  0  0
 43 44  1  0  0  0
 44119  1  0  0  0
 45 46  2  0  0  0
 45120  1  0  0  0
 46121  1  0  0  0
 47122  1  0  0  0
 47123  1  0  0  0
 48 56  1  0  0  0
 48 65  1  0  0  0
 48124  1  0  0  0
 49 50  1  0  0  0
 49 53  1  0  0  0
 49 64  1  0  0  0
 49125  1  0  0  0
 50 51  1  0  0  0
 50126  1  0  0  0
 50127  1  0  0  0
 51 52  1  0  0  0
 51128  1  0  0  0
 51129  1  0  0  0
 52130  1  0  0  0
 52131  1  0  0  0
 53 54  1  0  0  0
 54 55  2  0  0  0
 54132  1  0  0  0
 55 57  1  0  0  0
 55133  1  0  0  0
 56 69  2  0  0  0
 57 58  2  0  0  0
 57134  1  0  0  0
 58135  1  0  0  0
 59 60  1  0  0  0
 59 61  1  0  0  0
 59 62  1  0  0  0
 60136  1  0  0  0
 60137  1  0  0  0
 60138  1  0  0  0
 61139  1  0  0  0
 61140  1  0  0  0
 61141  1  0  0  0
 62142  1  0  0  0
 62143  1  0  0  0
 62144  1  0  0  0
 63 65  1  0  0  0
 63145  1  0  0  0
 63146  1  0  0  0
 63147  1  0  0  0
 64148  1  0  0  0
 65149  1  0  0  0
 68 87  1  0  0  0
 71 73  2  0  0  0
 71 76  1  0  0  0
 71150  1  0  0  0
 72 74  1  0  0  0
 72 76  2  0  0  0
 72151  1  0  0  0
 73 75  1  0  0  0
 73 79  1  0  0  0
 74 75  2  0  0  0
 74 86  1  0  0  0
 75 84  1  0  0  0
 76 89  1  0  0  0
 77 80  1  0  0  0
 77 88  1  0  0  0
 77 90  2  0  0  0
 78 79  2  0  0  0
 78152  1  0  0  0
 78153  1  0  0  0
 79 85  1  0  0  0
 80 83  1  0  0  0
 80154  1  0  0  0
 80155  1  0  0  0
 81 82  1  0  0  0
 81 83  1  0  0  0
 81156  1  0  0  0
 81157  1  0  0  0
 82 88  1  0  0  0
 82158  1  0  0  0
 82159  1  0  0  0
 83 87  1  0  0  0
 83160  1  0  0  0
 84161  1  0  0  0
 84162  1  0  0  0
 84163  1  0  0  0
 85164  1  0  0  0
 85165  1  0  0  0
 85166  1  0  0  0
 86 88  1  0  0  0
 86167  1  0  0  0
 86168  1  0  0  0
 87169  1  0  0  0
 87170  1  0  0  0
 89171  1  0  0  0
M  ISO  4   1 100  68 101  87 101  89 100
M  END
> <chiral flag>
0

> <version>
0

> <s_m_source_file>
/data/baiqing/PycharmProjects/Reinvent-master-3.2/result/LINK_invent/BTK/process_docking_weight1_custom_product_contain_oxygen_bond_distance_aromatic_linkinvent_7_9_3/rearranged_h_0059.sdf

> <i_m_source_file_index>
22

> <r_mmod_Potential_Energy-OPLS-2005>
44.6575622558594

> <r_mmod_Stretch_Energy-OPLS-2005>
56.3916702270508

> <r_mmod_Bend_Energy-OPLS-2005>
154.198806762695

> <r_mmod_Torsional_Energy-OPLS-2005>
275.777984619141

> <r_mmod_Improper_Torsional_Energy-OPLS-2005>
7.66056442260742

> <r_mmod_Van_der_Waal_Energy-OPLS-2005>
165.241790771484

> <r_mmod_Electrostatic_Energy-OPLS-2005>
-418.157501220703

> <r_mmod_Solvation_Energy-OPLS-2005>
-215.990036010742

> <b_mmod_Minimization_Converged-OPLS-2005>
0

> <r_mmod_RMS_Derivative-OPLS-2005>
6.09192657470703

$$$$
22
                    3D
 Structure written by MMmdl.
174184  0  0  1  0            999 V2000
  -30.5917  -14.5586   20.5220 C   0  0  0  0  0  0
  -30.4472  -12.3470   19.4357 C   0  0  0  0  0  0
  -29.5166  -12.5120   18.2125 C   0  0  0  0  0  0
  -28.0313  -12.3620   18.6120 C   0  0  0  0  0  0
  -27.6583  -13.1971   19.8660 C   0  0  2  0  0  0
  -28.6962  -12.9777   20.9911 C   0  0  0  0  0  0
  -25.2599  -13.8134   20.5650 C   0  0  0  0  0  0
  -24.1838  -13.0435   20.9178 C   0  0  0  0  0  0
  -24.6372  -11.6898   20.8686 C   0  0  0  0  0  0
  -23.9045  -10.4305   21.0380 C   0  0  0  0  0  0
  -24.3602   -9.4227   21.9170 C   0  0  0  0  0  0
  -23.6286   -8.2259   22.0742 C   0  0  0  0  0  0
  -22.4261   -8.0290   21.3547 C   0  0  0  0  0  0
  -21.9898   -9.0259   20.4645 C   0  0  0  0  0  0
  -22.7213  -10.2144   20.3033 C   0  0  0  0  0  0
  -21.6854   -6.0737   22.5277 C   0  0  0  0  0  0
  -21.4020   -6.5639   23.8227 C   0  0  0  0  0  0
  -21.3651   -5.6779   24.9176 C   0  0  0  0  0  0
  -21.6030   -4.3044   24.7225 C   0  0  0  0  0  0
  -21.8814   -3.8149   23.4338 C   0  0  0  0  0  0
  -21.9196   -4.6977   22.3408 C   0  0  0  0  0  0
  -22.7868  -13.5264   21.1854 C   0  0  0  0  0  0
  -22.1655   -4.2165   21.0979 F   0  0  0  0  0  0
  -21.5635   -3.4523   25.7733 F   0  0  0  0  0  0
  -30.0206  -13.3255   20.4491 N   0  0  0  0  0  0
  -26.2993  -12.9272   20.3251 N   0  0  0  0  0  0
  -25.9282  -11.6455   20.5670 N   0  0  0  0  0  0
  -22.0444  -12.8280   22.0380 N   0  0  0  0  0  0
  -25.4334  -15.1857   20.4115 N   0  0  0  0  0  0
  -31.7472  -14.7759   20.1374 O   0  0  0  0  0  0
  -21.6627   -6.8883   21.4244 O   0  0  0  0  0  0
  -22.3566  -14.5583   20.6705 O   0  0  0  0  0  0
  -24.6172  -31.8655   23.2043 C   0  0  0  0  0  0
  -25.9039  -32.4821   23.8378 C   0  0  1  0  0  0
  -27.2498  -27.3912   20.1100 C   0  0  0  0  0  0
  -25.5864  -33.8618   24.2306 N   0  0  0  0  0  0
  -23.4089  -30.4841   21.5462 C   0  0  2  0  0  0
  -24.8565  -28.9233   20.1391 C   0  0  0  0  0  0
  -22.7415  -29.4671   22.5005 C   0  0  0  0  0  0
  -18.0280  -28.1397   22.8493 C   0  0  0  0  0  0
  -24.1466  -36.7321   23.2641 C   0  0  0  0  0  0
  -25.9394  -30.8166   21.3625 C   0  0  0  0  0  0
  -26.0184  -29.4376   20.7276 C   0  0  0  0  0  0
  -27.2153  -28.6785   20.7090 C   0  0  0  0  0  0
  -26.0666  -26.8960   19.5244 C   0  0  0  0  0  0
  -24.8741  -27.6492   19.5440 C   0  0  0  0  0  0
  -23.6216  -29.7975   20.1708 C   0  0  0  0  0  0
  -25.4090  -36.3109   24.0339 C   0  0  1  0  0  0
  -20.5868  -28.3679   23.1302 C   0  0  2  0  0  0
  -20.6775  -26.9415   22.5416 C   0  0  0  0  0  0
  -19.5751  -26.6392   21.5224 C   0  0  0  0  0  0
  -18.1921  -26.7949   22.1630 C   0  0  0  0  0  0
  -19.1528  -28.8855   23.2900 C   0  0  0  0  0  0
  -18.9457  -30.1462   23.8915 C   0  0  0  0  0  0
  -17.6464  -30.6599   24.0580 C   0  0  0  0  0  0
  -25.9020  -34.9482   23.5127 C   0  0  0  0  0  0
  -16.5355  -29.9104   23.6335 C   0  0  0  0  0  0
  -16.7275  -28.6522   23.0349 C   0  0  0  0  0  0
  -26.4432  -31.6631   25.0737 C   0  0  0  0  0  0
  -25.3680  -31.3775   26.1492 C   0  0  0  0  0  0
  -27.0261  -30.3062   24.6143 C   0  0  0  0  0  0
  -27.5991  -32.4374   25.7502 C   0  0  0  0  0  0
  -27.5573  -37.1814   24.8465 C   0  0  0  0  0  0
  -21.4144  -29.3048   22.3713 N   0  0  0  0  0  0
  -26.4271  -37.3802   23.9409 N   0  0  0  0  0  0
  -24.6740  -31.0713   22.0968 N   0  0  0  0  0  0
  -23.4161  -28.8237   23.3090 O   0  0  0  0  0  0
  -28.4565  -26.7341   19.9409 O   0  0  0  0  0  0
  -26.5599  -34.8932   22.4695 O   0  0  0  0  0  0
  -23.5344  -32.1423   23.7414 O   0  0  0  0  0  0
  -30.1322  -18.9934   19.3238 C   0  0  0  0  0  0
  -29.3926  -17.8216   21.7257 C   0  0  0  0  0  0
  -30.0369  -17.5770   19.4094 C   0  0  0  0  0  0
  -29.4702  -19.2378   21.6378 C   0  0  0  0  0  0
  -29.9261  -19.8603   20.4355 C   0  0  0  0  0  0
  -29.7597  -16.9670   20.6614 C   0  0  0  0  0  0
  -30.4556  -23.6098   19.5402 C   0  0  0  0  0  0
  -30.1438  -25.0988   19.7831 C   0  0  0  0  0  0
  -32.0015  -22.9085   22.1418 C   0  0  0  0  0  0
  -32.4600  -21.4866   21.8157 C   0  0  0  0  0  0
  -27.8016  -24.1965   20.1061 C   0  0  0  0  0  0
  -30.4732  -23.0310   21.9918 C   0  0  0  0  0  0
  -28.3668  -22.7672   20.5140 C   0  0  0  0  0  0
  -31.9508  -21.0570   20.4329 C   0  0  0  0  0  0
  -28.7522  -25.3924   20.4122 C   0  0  2  0  0  0
  -29.9339  -22.5766   20.5911 C   0  0  1  0  0  0
  -30.2214  -16.7495   18.1436 C   0  0  0  0  0  0
  -29.1340  -20.0146   22.8946 C   0  0  0  0  0  0
  -30.4794  -21.1810   20.3302 N   0  0  0  0  0  0
  -29.7296  -15.5449   20.8924 N   0  0  0  0  0  0
  -31.0509  -23.2758   18.5081 O   0  0  0  0  0  0
  -31.4896  -12.4928   19.1425 H   0  0  0  0  0  0
  -30.3888  -11.3359   19.8395 H   0  0  0  0  0  0
  -29.7725  -11.7874   17.4407 H   0  0  0  0  0  0
  -29.6726  -13.4933   17.7642 H   0  0  0  0  0  0
  -27.8398  -11.3049   18.8022 H   0  0  0  0  0  0
  -27.3902  -12.6396   17.7753 H   0  0  0  0  0  0
  -27.6979  -14.2421   19.5576 H   0  0  0  0  0  0
  -28.6925  -11.9364   21.3128 H   0  0  0  0  0  0
  -28.4471  -13.5529   21.8847 H   0  0  0  0  0  0
  -25.2735   -9.5734   22.4760 H   0  0  0  0  0  0
  -24.0003   -7.4647   22.7459 H   0  0  0  0  0  0
  -21.0829   -8.8782   19.8945 H   0  0  0  0  0  0
  -22.3660  -10.9690   19.6154 H   0  0  0  0  0  0
  -21.2003   -7.6142   23.9740 H   0  0  0  0  0  0
  -21.1466   -6.0498   25.9089 H   0  0  0  0  0  0
  -22.0598   -2.7621   23.2827 H   0  0  0  0  0  0
  -22.4023  -11.9961   22.4840 H   0  0  0  0  0  0
  -21.1060  -13.1360   22.2498 H   0  0  0  0  0  0
  -24.6739  -15.8418   20.5579 H   0  0  0  0  0  0
  -26.2753  -15.6290   20.0672 H   0  0  0  0  0  0
  -26.7116  -32.5528   23.1162 H   0  0  0  0  0  0
  -25.0008  -33.9773   25.0445 H   0  0  0  0  0  0
  -22.7004  -31.3014   21.3947 H   0  0  0  0  0  0
  -23.3723  -35.9663   23.3324 H   0  0  0  0  0  0
  -24.3562  -36.8918   22.2056 H   0  0  0  0  0  0
  -23.7232  -37.6531   23.6650 H   0  0  0  0  0  0
  -26.0439  -31.5677   20.5791 H   0  0  0  0  0  0
  -26.8298  -30.8881   21.9753 H   0  0  0  0  0  0
  -28.1201  -29.0875   21.1381 H   0  0  0  0  0  0
  -26.0674  -25.9458   19.0139 H   0  0  0  0  0  0
  -23.9816  -27.2407   19.0927 H   0  0  0  0  0  0
  -23.7386  -30.5592   19.4000 H   0  0  0  0  0  0
  -22.7464  -29.2151   19.8797 H   0  0  0  0  0  0
  -25.1265  -36.1976   25.0832 H   0  0  0  0  0  0
  -20.9967  -28.3262   24.1429 H   0  0  0  0  0  0
  -20.5691  -26.2294   23.3612 H   0  0  0  0  0  0
  -21.6639  -26.7476   22.1206 H   0  0  0  0  0  0
  -19.6904  -25.6298   21.1258 H   0  0  0  0  0  0
  -19.6681  -27.3196   20.6745 H   0  0  0  0  0  0
  -17.4190  -26.6702   21.4024 H   0  0  0  0  0  0
  -18.0317  -26.0093   22.9028 H   0  0  0  0  0  0
  -19.7939  -30.7281   24.2284 H   0  0  0  0  0  0
  -17.5022  -31.6272   24.5191 H   0  0  0  0  0  0
  -15.5354  -30.3013   23.7661 H   0  0  0  0  0  0
  -15.8672  -28.0856   22.7050 H   0  0  0  0  0  0
  -24.5829  -30.7143   25.7850 H   0  0  0  0  0  0
  -24.8897  -32.2947   26.4934 H   0  0  0  0  0  0
  -25.8022  -30.8954   27.0260 H   0  0  0  0  0  0
  -26.2825  -29.6867   24.1114 H   0  0  0  0  0  0
  -27.3915  -29.7275   25.4634 H   0  0  0  0  0  0
  -27.8702  -30.4379   23.9375 H   0  0  0  0  0  0
  -27.2590  -33.3680   26.2064 H   0  0  0  0  0  0
  -28.3798  -32.6938   25.0332 H   0  0  0  0  0  0
  -28.0654  -31.8518   26.5439 H   0  0  0  0  0  0
  -28.2594  -38.0101   24.7491 H   0  0  0  0  0  0
  -28.1047  -36.2635   24.6292 H   0  0  0  0  0  0
  -27.2296  -37.1486   25.8866 H   0  0  0  0  0  0
  -20.9326  -29.8713   21.6869 H   0  0  0  0  0  0
  -26.0165  -38.2872   24.1407 H   0  0  0  0  0  0
  -30.4642  -19.4215   18.3877 H   0  0  0  0  0  0
  -29.0875  -17.3718   22.6595 H   0  0  0  0  0  0
  -30.1919  -25.5715   18.8032 H   0  0  0  0  0  0
  -30.9446  -25.5464   20.3714 H   0  0  0  0  0  0
  -32.5091  -23.6110   21.4783 H   0  0  0  0  0  0
  -32.3002  -23.1794   23.1564 H   0  0  0  0  0  0
  -32.1065  -20.7946   22.5805 H   0  0  0  0  0  0
  -33.5490  -21.4267   21.8417 H   0  0  0  0  0  0
  -26.8381  -24.3521   20.5924 H   0  0  0  0  0  0
  -27.5997  -24.1958   19.0343 H   0  0  0  0  0  0
  -30.2130  -24.0584   22.2228 H   0  0  0  0  0  0
  -30.0044  -22.4718   22.7921 H   0  0  0  0  0  0
  -27.9440  -22.0375   19.8242 H   0  0  0  0  0  0
  -27.9300  -22.5312   21.4807 H   0  0  0  0  0  0
  -32.3083  -20.0417   20.2459 H   0  0  0  0  0  0
  -32.4503  -21.6476   19.6686 H   0  0  0  0  0  0
  -28.8420  -25.4935   21.4920 H   0  0  0  0  0  0
  -29.9516  -17.3192   17.2536 H   0  0  0  0  0  0
  -29.5749  -15.8717   18.1548 H   0  0  0  0  0  0
  -31.2542  -16.4161   18.0310 H   0  0  0  0  0  0
  -28.5421  -19.4209   23.5910 H   0  0  0  0  0  0
  -28.5269  -20.8821   22.6620 H   0  0  0  0  0  0
  -30.0422  -20.3115   23.4145 H   0  0  0  0  0  0
  -28.8945  -15.2004   21.3442 H   0  0  0  0  0  0
  1 25  1  0  0  0
  1 30  2  0  0  0
  1 90  1  0  0  0
  2  3  1  0  0  0
  2 25  1  0  0  0
  2 92  1  0  0  0
  2 93  1  0  0  0
  3  4  1  0  0  0
  3 94  1  0  0  0
  3 95  1  0  0  0
  4  5  1  0  0  0
  4 96  1  0  0  0
  4 97  1  0  0  0
  5  6  1  0  0  0
  5 26  1  0  0  0
  5 98  1  0  0  0
  6 25  1  0  0  0
  6 99  1  0  0  0
  6100  1  0  0  0
  7  8  2  0  0  0
  7 26  1  0  0  0
  7 29  1  0  0  0
  8  9  1  0  0  0
  8 22  1  0  0  0
  9 10  1  0  0  0
  9 27  2  0  0  0
 10 11  2  0  0  0
 10 15  1  0  0  0
 11 12  1  0  0  0
 11101  1  0  0  0
 12 13  2  0  0  0
 12102  1  0  0  0
 13 14  1  0  0  0
 13 31  1  0  0  0
 14 15  2  0  0  0
 14103  1  0  0  0
 15104  1  0  0  0
 16 17  2  0  0  0
 16 21  1  0  0  0
 16 31  1  0  0  0
 17 18  1  0  0  0
 17105  1  0  0  0
 18 19  2  0  0  0
 18106  1  0  0  0
 19 20  1  0  0  0
 19 24  1  0  0  0
 20 21  2  0  0  0
 20107  1  0  0  0
 21 23  1  0  0  0
 22 28  1  0  0  0
 22 32  2  0  0  0
 26 27  1  0  0  0
 28108  1  0  0  0
 28109  1  0  0  0
 29110  1  0  0  0
 29111  1  0  0  0
 33 34  1  0  0  0
 33 66  1  0  0  0
 33 70  2  0  0  0
 34 36  1  0  0  0
 34 59  1  0  0  0
 34112  1  0  0  0
 35 44  2  0  0  0
 35 45  1  0  0  0
 35 68  1  0  0  0
 36 56  1  0  0  0
 36113  1  0  0  0
 37 39  1  0  0  0
 37 47  1  0  0  0
 37 66  1  0  0  0
 37114  1  0  0  0
 38 43  2  0  0  0
 38 46  1  0  0  0
 38 47  1  0  0  0
 39 64  1  0  0  0
 39 67  2  0  0  0
 40 52  1  0  0  0
 40 53  2  0  0  0
 40 58  1  0  0  0
 41115  1  0  0  0
 41116  1  0  0  0
 41117  1  0  0  0
 41 48  1  0  0  0
 42 43  1  0  0  0
 42 66  1  0  0  0
 42118  1  0  0  0
 42119  1  0  0  0
 43 44  1  0  0  0
 44120  1  0  0  0
 45 46  2  0  0  0
 45121  1  0  0  0
 46122  1  0  0  0
 47123  1  0  0  0
 47124  1  0  0  0
 48 56  1  0  0  0
 48 65  1  0  0  0
 48125  1  0  0  0
 49 50  1  0  0  0
 49 53  1  0  0  0
 49 64  1  0  0  0
 49126  1  0  0  0
 50 51  1  0  0  0
 50127  1  0  0  0
 50128  1  0  0  0
 51 52  1  0  0  0
 51129  1  0  0  0
 51130  1  0  0  0
 52131  1  0  0  0
 52132  1  0  0  0
 53 54  1  0  0  0
 54 55  2  0  0  0
 54133  1  0  0  0
 55 57  1  0  0  0
 55134  1  0  0  0
 56 69  2  0  0  0
 57 58  2  0  0  0
 57135  1  0  0  0
 58136  1  0  0  0
 59 60  1  0  0  0
 59 61  1  0  0  0
 59 62  1  0  0  0
 60137  1  0  0  0
 60138  1  0  0  0
 60139  1  0  0  0
 61140  1  0  0  0
 61141  1  0  0  0
 61142  1  0  0  0
 62143  1  0  0  0
 62144  1  0  0  0
 62145  1  0  0  0
 63 65  1  0  0  0
 63146  1  0  0  0
 63147  1  0  0  0
 63148  1  0  0  0
 64149  1  0  0  0
 65150  1  0  0  0
 68 85  1  0  0  0
 71 73  2  0  0  0
 71 75  1  0  0  0
 71151  1  0  0  0
 72 74  1  0  0  0
 72 76  2  0  0  0
 72152  1  0  0  0
 73 76  1  0  0  0
 73 87  1  0  0  0
 74 75  2  0  0  0
 74 88  1  0  0  0
 75 89  1  0  0  0
 76 90  1  0  0  0
 77 78  1  0  0  0
 77 91  2  0  0  0
 77 86  1  0  0  0
 78 85  1  0  0  0
 78153  1  0  0  0
 78154  1  0  0  0
 79 80  1  0  0  0
 79 82  1  0  0  0
 79155  1  0  0  0
 79156  1  0  0  0
 80 84  1  0  0  0
 80157  1  0  0  0
 80158  1  0  0  0
 81 83  1  0  0  0
 81 85  1  0  0  0
 81159  1  0  0  0
 81160  1  0  0  0
 82161  1  0  0  0
 82162  1  0  0  0
 82 86  1  0  0  0
 83 86  1  0  0  0
 83163  1  0  0  0
 83164  1  0  0  0
 84 89  1  0  0  0
 84165  1  0  0  0
 84166  1  0  0  0
 85167  1  0  0  0
 86 89  1  0  0  0
 87168  1  0  0  0
 87169  1  0  0  0
 87170  1  0  0  0
 88171  1  0  0  0
 88172  1  0  0  0
 88173  1  0  0  0
 90174  1  0  0  0
M  ISO  4   1 100  68 101  85 101  90 100
M  END
> <chiral flag>
0

> <version>
0

> <s_m_source_file>
/data/baiqing/PycharmProjects/Reinvent-master-3.2/result/LINK_invent/BTK/process_docking_weight1_custom_product_contain_oxygen_bond_distance_aromatic_linkinvent_7_9_3/rearranged_h_0059.sdf

> <i_m_source_file_index>
23

> <r_mmod_Potential_Energy-OPLS-2005>
177.485504150391

> <r_mmod_Stretch_Energy-OPLS-2005>
71.1056060791016

> <r_mmod_Bend_Energy-OPLS-2005>
196.746734619141

> <r_mmod_Torsional_Energy-OPLS-2005>
334.923583984375

> <r_mmod_Improper_Torsional_Energy-OPLS-2005>
9.38695049285889

> <r_mmod_Van_der_Waal_Energy-OPLS-2005>
175.942367553711

> <r_mmod_Electrostatic_Energy-OPLS-2005>
-412.386322021484

> <r_mmod_Solvation_Energy-OPLS-2005>
-223.044830322266

> <b_mmod_Minimization_Converged-OPLS-2005>
0

> <r_mmod_RMS_Derivative-OPLS-2005>
3.84025311470032

$$$$
23
                    3D
 Structure written by MMmdl.
157165  0  0  1  0            999 V2000
  -30.7055  -14.4307   20.6302 C   0  0  0  0  0  0
  -30.4328  -12.3021   19.4043 C   0  0  0  0  0  0
  -29.4929  -12.5146   18.1988 C   0  0  0  0  0  0
  -28.0157  -12.3707   18.6152 C   0  0  0  0  0  0
  -27.6697  -13.1966   19.8815 C   0  0  2  0  0  0
  -28.7087  -12.9300   20.9932 C   0  0  0  0  0  0
  -25.2629  -13.8147   20.5671 C   0  0  0  0  0  0
  -24.1865  -13.0441   20.9170 C   0  0  0  0  0  0
  -24.6401  -11.6901   20.8742 C   0  0  0  0  0  0
  -23.9058  -10.4294   21.0414 C   0  0  0  0  0  0
  -24.3609   -9.4209   21.9192 C   0  0  0  0  0  0
  -23.6287   -8.2244   22.0756 C   0  0  0  0  0  0
  -22.4272   -8.0283   21.3539 C   0  0  0  0  0  0
  -21.9904   -9.0262   20.4647 C   0  0  0  0  0  0
  -22.7230  -10.2143   20.3062 C   0  0  0  0  0  0
  -21.6849   -6.0746   22.5281 C   0  0  0  0  0  0
  -21.4011   -6.5649   23.8218 C   0  0  0  0  0  0
  -21.3658   -5.6796   24.9179 C   0  0  0  0  0  0
  -21.6042   -4.3058   24.7228 C   0  0  0  0  0  0
  -21.8819   -3.8154   23.4345 C   0  0  0  0  0  0
  -21.9195   -4.6974   22.3400 C   0  0  0  0  0  0
  -22.7888  -13.5249   21.1845 C   0  0  0  0  0  0
  -22.1663   -4.2160   21.0974 F   0  0  0  0  0  0
  -21.5631   -3.4537   25.7741 F   0  0  0  0  0  0
  -30.0491  -13.2506   20.4600 N   0  0  0  0  0  0
  -26.3067  -12.9301   20.3392 N   0  0  0  0  0  0
  -25.9321  -11.6469   20.5766 N   0  0  0  0  0  0
  -22.0521  -12.8249   22.0405 N   0  0  0  0  0  0
  -25.4381  -15.1854   20.4058 N   0  0  0  0  0  0
  -31.7657  -14.7008   20.0572 O   0  0  0  0  0  0
  -21.6630   -6.8882   21.4238 O   0  0  0  0  0  0
  -22.3575  -14.5567   20.6707 O   0  0  0  0  0  0
  -24.6118  -31.8684   23.2111 C   0  0  0  0  0  0
  -25.9023  -32.4828   23.8407 C   0  0  1  0  0  0
  -27.2428  -27.4588   20.0915 C   0  0  0  0  0  0
  -25.5883  -33.8623   24.2339 N   0  0  0  0  0  0
  -23.4006  -30.4889   21.5505 C   0  0  2  0  0  0
  -24.8506  -28.9542   20.1180 C   0  0  0  0  0  0
  -22.7405  -29.4638   22.5001 C   0  0  0  0  0  0
  -18.0268  -28.1361   22.8477 C   0  0  0  0  0  0
  -24.1490  -36.7320   23.2642 C   0  0  0  0  0  0
  -25.9264  -30.8403   21.3605 C   0  0  0  0  0  0
  -26.0087  -29.4748   20.7107 C   0  0  0  0  0  0
  -27.2101  -28.7335   20.6963 C   0  0  0  0  0  0
  -26.0726  -26.9430   19.4984 C   0  0  0  0  0  0
  -24.8754  -27.6842   19.5124 C   0  0  0  0  0  0
  -23.6112  -29.8183   20.1664 C   0  0  0  0  0  0
  -25.4112  -36.3114   24.0346 C   0  0  1  0  0  0
  -20.5852  -28.3640   23.1321 C   0  0  2  0  0  0
  -20.6755  -26.9379   22.5412 C   0  0  0  0  0  0
  -19.5745  -26.6369   21.5198 C   0  0  0  0  0  0
  -18.1922  -26.7905   22.1607 C   0  0  0  0  0  0
  -19.1517  -28.8821   23.2885 C   0  0  0  0  0  0
  -18.9450  -30.1429   23.8894 C   0  0  0  0  0  0
  -17.6452  -30.6568   24.0559 C   0  0  0  0  0  0
  -25.9027  -34.9479   23.5134 C   0  0  0  0  0  0
  -16.5342  -29.9074   23.6321 C   0  0  0  0  0  0
  -16.7259  -28.6490   23.0331 C   0  0  0  0  0  0
  -26.4475  -31.6602   25.0722 C   0  0  0  0  0  0
  -25.3756  -31.3692   26.1477 C   0  0  0  0  0  0
  -27.0294  -30.3056   24.6052 C   0  0  0  0  0  0
  -27.6055  -32.4313   25.7487 C   0  0  0  0  0  0
  -27.5584  -37.1817   24.8473 C   0  0  0  0  0  0
  -21.4134  -29.3018   22.3750 N   0  0  0  0  0  0
  -26.4301  -37.3790   23.9409 N   0  0  0  0  0  0
  -24.6644  -31.0795   22.0999 N   0  0  0  0  0  0
  -23.4183  -28.8175   23.3038 O   0  0  0  0  0  0
  -28.4008  -26.7212   20.0590 O   0  0  0  0  0  0
  -26.5582  -34.8926   22.4692 O   0  0  0  0  0  0
  -23.5315  -32.1441   23.7511 O   0  0  0  0  0  0
  -30.5889  -18.9547   20.7400 C   0  0  0  0  0  0
  -30.7850  -17.5547   20.7001 C   0  0  0  0  0  0
  -28.8439  -18.6543   22.4005 C   0  0  0  0  0  0
  -29.0325  -17.2571   22.3663 C   0  0  0  0  0  0
  -29.6086  -19.5182   21.5915 C   0  0  0  0  0  0
  -30.0036  -16.6892   21.5063 C   0  0  0  0  0  0
  -29.8462  -21.9952   21.1187 C   0  0  0  0  0  0
  -28.1627  -16.3809   23.2541 C   0  0  0  0  0  0
  -29.2806  -23.3408   21.6009 C   0  0  0  0  0  0
  -29.1750  -24.4402   20.5195 C   0  0  0  0  0  0
  -28.4670  -25.7002   21.0553 C   0  0  0  0  0  0
  -29.3182  -20.9097   21.7141 N   0  0  0  0  0  0
  -30.1039  -15.2644   21.4952 N   0  0  0  0  0  0
  -30.7282  -21.9642   20.2583 O   0  0  0  0  0  0
  -31.4742  -12.4204   19.0977 H   0  0  0  0  0  0
  -30.3502  -11.2805   19.7773 H   0  0  0  0  0  0
  -29.7276  -11.7963   17.4120 H   0  0  0  0  0  0
  -29.6581  -13.5040   17.7693 H   0  0  0  0  0  0
  -27.8271  -11.3133   18.8042 H   0  0  0  0  0  0
  -27.3604  -12.6529   17.7906 H   0  0  0  0  0  0
  -27.7298  -14.2508   19.6100 H   0  0  0  0  0  0
  -28.6812  -11.8798   21.2862 H   0  0  0  0  0  0
  -28.4482  -13.4779   21.8990 H   0  0  0  0  0  0
  -25.2758   -9.5690   22.4761 H   0  0  0  0  0  0
  -24.0013   -7.4629   22.7466 H   0  0  0  0  0  0
  -21.0845   -8.8777   19.8939 H   0  0  0  0  0  0
  -22.3694  -10.9688   19.6173 H   0  0  0  0  0  0
  -21.1993   -7.6156   23.9728 H   0  0  0  0  0  0
  -21.1480   -6.0522   25.9085 H   0  0  0  0  0  0
  -22.0598   -2.7616   23.2839 H   0  0  0  0  0  0
  -22.4120  -11.9896   22.4788 H   0  0  0  0  0  0
  -21.1139  -13.1285   22.2612 H   0  0  0  0  0  0
  -24.6721  -15.8430   20.4990 H   0  0  0  0  0  0
  -26.2964  -15.6205   20.0914 H   0  0  0  0  0  0
  -26.7097  -32.5556   23.1180 H   0  0  0  0  0  0
  -25.0070  -33.9798   25.0507 H   0  0  0  0  0  0
  -22.6873  -31.3033   21.4100 H   0  0  0  0  0  0
  -23.3731  -35.9669   23.3322 H   0  0  0  0  0  0
  -24.3592  -36.8912   22.2052 H   0  0  0  0  0  0
  -23.7261  -37.6542   23.6634 H   0  0  0  0  0  0
  -26.0325  -31.6057   20.5907 H   0  0  0  0  0  0
  -26.8165  -30.8990   21.9743 H   0  0  0  0  0  0
  -28.1063  -29.1307   21.1518 H   0  0  0  0  0  0
  -26.0909  -25.9699   19.0272 H   0  0  0  0  0  0
  -23.9848  -27.2753   19.0550 H   0  0  0  0  0  0
  -23.7216  -30.5925   19.4054 H   0  0  0  0  0  0
  -22.7370  -29.2370   19.8685 H   0  0  0  0  0  0
  -25.1279  -36.1990   25.0837 H   0  0  0  0  0  0
  -20.9938  -28.3191   24.1443 H   0  0  0  0  0  0
  -20.5651  -26.2246   23.3590 H   0  0  0  0  0  0
  -21.6633  -26.7426   22.1215 H   0  0  0  0  0  0
  -19.6911  -25.6286   21.1215 H   0  0  0  0  0  0
  -19.6691  -27.3186   20.6732 H   0  0  0  0  0  0
  -17.4196  -26.6641   21.4005 H   0  0  0  0  0  0
  -18.0323  -26.0042   22.9000 H   0  0  0  0  0  0
  -19.7933  -30.7222   24.2274 H   0  0  0  0  0  0
  -17.5020  -31.6254   24.5147 H   0  0  0  0  0  0
  -15.5348  -30.2969   23.7653 H   0  0  0  0  0  0
  -15.8656  -28.0819   22.7036 H   0  0  0  0  0  0
  -24.5930  -30.7038   25.7823 H   0  0  0  0  0  0
  -24.8952  -32.2840   26.4948 H   0  0  0  0  0  0
  -25.8130  -30.8854   27.0224 H   0  0  0  0  0  0
  -26.2818  -29.6821   24.1135 H   0  0  0  0  0  0
  -27.4123  -29.7280   25.4477 H   0  0  0  0  0  0
  -27.8623  -30.4394   23.9149 H   0  0  0  0  0  0
  -27.2678  -33.3600   26.2103 H   0  0  0  0  0  0
  -28.3848  -32.6905   25.0306 H   0  0  0  0  0  0
  -28.0738  -31.8417   26.5377 H   0  0  0  0  0  0
  -28.2611  -38.0102   24.7486 H   0  0  0  0  0  0
  -28.1062  -36.2628   24.6321 H   0  0  0  0  0  0
  -27.2299  -37.1504   25.8877 H   0  0  0  0  0  0
  -20.9289  -29.8771   21.7001 H   0  0  0  0  0  0
  -26.0186  -38.2871   24.1382 H   0  0  0  0  0  0
  -31.2032  -19.5741   20.1041 H   0  0  0  0  0  0
  -31.5399  -17.1672   20.0315 H   0  0  0  0  0  0
  -28.0927  -19.0686   23.0594 H   0  0  0  0  0  0
  -27.5978  -16.9759   23.9709 H   0  0  0  0  0  0
  -28.7692  -15.6759   23.8238 H   0  0  0  0  0  0
  -27.4504  -15.8195   22.6488 H   0  0  0  0  0  0
  -29.9038  -23.6953   22.4230 H   0  0  0  0  0  0
  -28.2892  -23.1705   22.0232 H   0  0  0  0  0  0
  -28.6295  -24.0575   19.6570 H   0  0  0  0  0  0
  -30.1723  -24.7050   20.1650 H   0  0  0  0  0  0
  -27.4752  -25.4283   21.4235 H   0  0  0  0  0  0
  -29.0138  -26.0986   21.9114 H   0  0  0  0  0  0
  -28.5893  -21.1296   22.3793 H   0  0  0  0  0  0
  -29.3875  -14.8015   22.0313 H   0  0  0  0  0  0
  1 25  1  0  0  0
  1 30  2  0  0  0
  1 83  1  0  0  0
  2  3  1  0  0  0
  2 25  1  0  0  0
  2 85  1  0  0  0
  2 86  1  0  0  0
  3  4  1  0  0  0
  3 87  1  0  0  0
  3 88  1  0  0  0
  4  5  1  0  0  0
  4 89  1  0  0  0
  4 90  1  0  0  0
  5  6  1  0  0  0
  5 26  1  0  0  0
  5 91  1  0  0  0
  6 25  1  0  0  0
  6 92  1  0  0  0
  6 93  1  0  0  0
  7  8  2  0  0  0
  7 26  1  0  0  0
  7 29  1  0  0  0
  8  9  1  0  0  0
  8 22  1  0  0  0
  9 10  1  0  0  0
  9 27  2  0  0  0
 10 11  2  0  0  0
 10 15  1  0  0  0
 11 12  1  0  0  0
 11 94  1  0  0  0
 12 13  2  0  0  0
 12 95  1  0  0  0
 13 14  1  0  0  0
 13 31  1  0  0  0
 14 15  2  0  0  0
 14 96  1  0  0  0
 15 97  1  0  0  0
 16 17  2  0  0  0
 16 21  1  0  0  0
 16 31  1  0  0  0
 17 18  1  0  0  0
 17 98  1  0  0  0
 18 19  2  0  0  0
 18 99  1  0  0  0
 19 20  1  0  0  0
 19 24  1  0  0  0
 20 21  2  0  0  0
 20100  1  0  0  0
 21 23  1  0  0  0
 22 28  1  0  0  0
 22 32  2  0  0  0
 26 27  1  0  0  0
 28101  1  0  0  0
 28102  1  0  0  0
 29103  1  0  0  0
 29104  1  0  0  0
 33 34  1  0  0  0
 33 66  1  0  0  0
 33 70  2  0  0  0
 34 36  1  0  0  0
 34 59  1  0  0  0
 34105  1  0  0  0
 35 44  2  0  0  0
 35 45  1  0  0  0
 35 68  1  0  0  0
 36 56  1  0  0  0
 36106  1  0  0  0
 37 39  1  0  0  0
 37 47  1  0  0  0
 37 66  1  0  0  0
 37107  1  0  0  0
 38 43  2  0  0  0
 38 46  1  0  0  0
 38 47  1  0  0  0
 39 64  1  0  0  0
 39 67  2  0  0  0
 40 52  1  0  0  0
 40 53  2  0  0  0
 40 58  1  0  0  0
 41108  1  0  0  0
 41109  1  0  0  0
 41110  1  0  0  0
 41 48  1  0  0  0
 42 43  1  0  0  0
 42 66  1  0  0  0
 42111  1  0  0  0
 42112  1  0  0  0
 43 44  1  0  0  0
 44113  1  0  0  0
 45 46  2  0  0  0
 45114  1  0  0  0
 46115  1  0  0  0
 47116  1  0  0  0
 47117  1  0  0  0
 48 56  1  0  0  0
 48 65  1  0  0  0
 48118  1  0  0  0
 49 50  1  0  0  0
 49 53  1  0  0  0
 49 64  1  0  0  0
 49119  1  0  0  0
 50 51  1  0  0  0
 50120  1  0  0  0
 50121  1  0  0  0
 51 52  1  0  0  0
 51122  1  0  0  0
 51123  1  0  0  0
 52124  1  0  0  0
 52125  1  0  0  0
 53 54  1  0  0  0
 54 55  2  0  0  0
 54126  1  0  0  0
 55 57  1  0  0  0
 55127  1  0  0  0
 56 69  2  0  0  0
 57 58  2  0  0  0
 57128  1  0  0  0
 58129  1  0  0  0
 59 60  1  0  0  0
 59 61  1  0  0  0
 59 62  1  0  0  0
 60130  1  0  0  0
 60131  1  0  0  0
 60132  1  0  0  0
 61133  1  0  0  0
 61134  1  0  0  0
 61135  1  0  0  0
 62136  1  0  0  0
 62137  1  0  0  0
 62138  1  0  0  0
 63 65  1  0  0  0
 63139  1  0  0  0
 63140  1  0  0  0
 63141  1  0  0  0
 64142  1  0  0  0
 65143  1  0  0  0
 68 81  1  0  0  0
 71 72  2  0  0  0
 71 75  1  0  0  0
 71144  1  0  0  0
 72 76  1  0  0  0
 72145  1  0  0  0
 73 74  1  0  0  0
 73 75  2  0  0  0
 73146  1  0  0  0
 74 76  2  0  0  0
 74 78  1  0  0  0
 75 82  1  0  0  0
 76 83  1  0  0  0
 77 79  1  0  0  0
 77 82  1  0  0  0
 77 84  2  0  0  0
 78147  1  0  0  0
 78148  1  0  0  0
 78149  1  0  0  0
 79 80  1  0  0  0
 79150  1  0  0  0
 79151  1  0  0  0
 80 81  1  0  0  0
 80152  1  0  0  0
 80153  1  0  0  0
 81154  1  0  0  0
 81155  1  0  0  0
 82156  1  0  0  0
 83157  1  0  0  0
M  ISO  4   1 100  68 101  81 101  83 100
M  END
> <chiral flag>
0

> <version>
0

> <s_m_source_file>
/data/baiqing/PycharmProjects/Reinvent-master-3.2/result/LINK_invent/BTK/process_docking_weight1_custom_product_contain_oxygen_bond_distance_aromatic_linkinvent_7_9_3/rearranged_h_0059.sdf

> <i_m_source_file_index>
24

> <r_mmod_Potential_Energy-OPLS-2005>
-134.291076660156

> <r_mmod_Stretch_Energy-OPLS-2005>
35.2629165649414

> <r_mmod_Bend_Energy-OPLS-2005>
110.055206298828

> <r_mmod_Torsional_Energy-OPLS-2005>
241.514938354492

> <r_mmod_Improper_Torsional_Energy-OPLS-2005>
3.20406198501587

> <r_mmod_Van_der_Waal_Energy-OPLS-2005>
153.153839111328

> <r_mmod_Electrostatic_Energy-OPLS-2005>
-455.531127929688

> <r_mmod_Solvation_Energy-OPLS-2005>
-230.141021728516

> <b_mmod_Minimization_Converged-OPLS-2005>
0

> <r_mmod_RMS_Derivative-OPLS-2005>
1.63275563716888

$$$$
24
                    3D
 Structure written by MMmdl.
158166  0  0  1  0            999 V2000
  -30.6940  -14.5397   20.4885 C   0  0  0  0  0  0
  -30.4037  -12.3244   19.4399 C   0  0  0  0  0  0
  -29.4867  -12.4905   18.2117 C   0  0  0  0  0  0
  -28.0095  -12.3546   18.6231 C   0  0  0  0  0  0
  -27.6487  -13.2193   19.8614 C   0  0  2  0  0  0
  -28.6949  -13.0723   20.9915 C   0  0  0  0  0  0
  -25.2556  -13.8209   20.5664 C   0  0  0  0  0  0
  -24.1823  -13.0451   20.9215 C   0  0  0  0  0  0
  -24.6384  -11.6920   20.8751 C   0  0  0  0  0  0
  -23.9063  -10.4311   21.0447 C   0  0  0  0  0  0
  -24.3623   -9.4233   21.9191 C   0  0  0  0  0  0
  -23.6290   -8.2257   22.0768 C   0  0  0  0  0  0
  -22.4275   -8.0288   21.3550 C   0  0  0  0  0  0
  -21.9927   -9.0273   20.4664 C   0  0  0  0  0  0
  -22.7266  -10.2148   20.3075 C   0  0  0  0  0  0
  -21.6857   -6.0742   22.5280 C   0  0  0  0  0  0
  -21.4009   -6.5647   23.8213 C   0  0  0  0  0  0
  -21.3654   -5.6808   24.9189 C   0  0  0  0  0  0
  -21.6036   -4.3081   24.7237 C   0  0  0  0  0  0
  -21.8811   -3.8173   23.4360 C   0  0  0  0  0  0
  -21.9186   -4.6977   22.3411 C   0  0  0  0  0  0
  -22.7827  -13.5241   21.1842 C   0  0  0  0  0  0
  -22.1661   -4.2155   21.0994 F   0  0  0  0  0  0
  -21.5624   -3.4555   25.7748 F   0  0  0  0  0  0
  -30.0150  -13.3580   20.4170 N   0  0  0  0  0  0
  -26.2965  -12.9379   20.3324 N   0  0  0  0  0  0
  -25.9308  -11.6530   20.5779 N   0  0  0  0  0  0
  -22.0461  -12.8238   22.0412 N   0  0  0  0  0  0
  -25.4295  -15.1908   20.4020 N   0  0  0  0  0  0
  -31.8613  -14.6199   20.0904 O   0  0  0  0  0  0
  -21.6645   -6.8883   21.4250 O   0  0  0  0  0  0
  -22.3529  -14.5569   20.6716 O   0  0  0  0  0  0
  -24.6189  -31.8642   23.2080 C   0  0  0  0  0  0
  -25.9064  -32.4825   23.8406 C   0  0  1  0  0  0
  -27.2199  -27.3929   20.1121 C   0  0  0  0  0  0
  -25.5900  -33.8623   24.2326 N   0  0  0  0  0  0
  -23.4122  -30.4873   21.5457 C   0  0  2  0  0  0
  -24.8666  -28.9668   20.0960 C   0  0  0  0  0  0
  -22.7469  -29.4608   22.4921 C   0  0  0  0  0  0
  -18.0282  -28.1361   22.8492 C   0  0  0  0  0  0
  -24.1491  -36.7294   23.2637 C   0  0  0  0  0  0
  -25.9455  -30.8204   21.3727 C   0  0  0  0  0  0
  -26.0259  -29.4557   20.7131 C   0  0  0  0  0  0
  -27.2129  -28.6785   20.7161 C   0  0  0  0  0  0
  -26.0566  -26.9437   19.4563 C   0  0  0  0  0  0
  -24.8795  -27.7126   19.4623 C   0  0  0  0  0  0
  -23.6246  -29.8310   20.1572 C   0  0  0  0  0  0
  -25.4106  -36.3089   24.0352 C   0  0  1  0  0  0
  -20.5882  -28.3659   23.1299 C   0  0  2  0  0  0
  -20.6753  -26.9375   22.5416 C   0  0  0  0  0  0
  -19.5722  -26.6356   21.5228 C   0  0  0  0  0  0
  -18.1906  -26.7913   22.1639 C   0  0  0  0  0  0
  -19.1541  -28.8832   23.2887 C   0  0  0  0  0  0
  -18.9469  -30.1451   23.8905 C   0  0  0  0  0  0
  -17.6466  -30.6569   24.0576 C   0  0  0  0  0  0
  -25.9039  -34.9470   23.5135 C   0  0  0  0  0  0
  -16.5349  -29.9087   23.6334 C   0  0  0  0  0  0
  -16.7279  -28.6500   23.0347 C   0  0  0  0  0  0
  -26.4472  -31.6604   25.0761 C   0  0  0  0  0  0
  -25.3724  -31.3787   26.1512 C   0  0  0  0  0  0
  -27.0277  -30.3049   24.6156 C   0  0  0  0  0  0
  -27.6078  -32.4302   25.7482 C   0  0  0  0  0  0
  -27.5591  -37.1781   24.8466 C   0  0  0  0  0  0
  -21.4185  -29.3041   22.3734 N   0  0  0  0  0  0
  -26.4288  -37.3796   23.9429 N   0  0  0  0  0  0
  -24.6770  -31.0710   22.0994 N   0  0  0  0  0  0
  -23.4228  -28.8150   23.2962 O   0  0  0  0  0  0
  -28.2808  -26.5106   20.2287 O   0  0  0  0  0  0
  -26.5582  -34.8937   22.4693 O   0  0  0  0  0  0
  -23.5370  -32.1433   23.7431 O   0  0  0  0  0  0
  -29.5175  -18.1538   20.6135 C   0  0  0  0  0  0
  -31.7957  -17.3710   20.9528 C   0  0  0  0  0  0
  -31.3798  -19.7642   20.6705 C   0  0  0  0  0  0
  -30.4276  -17.0532   20.7797 C   0  0  0  0  0  0
  -29.9761  -19.5165   20.5981 C   0  0  0  0  0  0
  -32.2645  -18.6933   20.8891 C   0  0  0  0  0  0
  -28.6905  -24.0946   21.0919 C   0  0  0  0  0  0
  -28.1577  -22.8342   21.0259 C   0  0  0  0  0  0
  -29.0241  -21.6927   21.3507 C   0  0  0  0  0  0
  -31.9812  -21.1599   20.5032 C   0  0  0  0  0  0
  -26.6851  -22.5206   20.8099 C   0  0  0  0  0  0
  -27.9554  -25.4488   21.1737 C   0  0  0  0  0  0
  -29.0591  -20.6362   20.4872 N   0  0  0  0  0  0
  -29.9771  -15.6595   20.8063 N   0  0  0  0  0  0
  -29.6336  -21.6623   22.4231 O   0  0  0  0  0  0
  -33.5918  -18.9205   21.0327 F   0  0  0  0  0  0
  -31.4541  -12.3905   19.1508 H   0  0  0  0  0  0
  -30.2816  -11.3335   19.8756 H   0  0  0  0  0  0
  -29.7326  -11.7432   17.4550 H   0  0  0  0  0  0
  -29.6539  -13.4648   17.7478 H   0  0  0  0  0  0
  -27.8247  -11.3015   18.8345 H   0  0  0  0  0  0
  -27.3615  -12.6110   17.7849 H   0  0  0  0  0  0
  -27.6723  -14.2559   19.5265 H   0  0  0  0  0  0
  -28.6781  -12.0631   21.3987 H   0  0  0  0  0  0
  -28.4671  -13.7395   21.8266 H   0  0  0  0  0  0
  -25.2761   -9.5695   22.4792 H   0  0  0  0  0  0
  -24.0007   -7.4630   22.7499 H   0  0  0  0  0  0
  -21.0847   -8.8794   19.8952 H   0  0  0  0  0  0
  -22.3727  -10.9695   19.6192 H   0  0  0  0  0  0
  -21.2006   -7.6160   23.9724 H   0  0  0  0  0  0
  -21.1474   -6.0541   25.9074 H   0  0  0  0  0  0
  -22.0589   -2.7608   23.2862 H   0  0  0  0  0  0
  -22.4062  -11.9878   22.4763 H   0  0  0  0  0  0
  -21.1095  -13.1270   22.2620 H   0  0  0  0  0  0
  -24.6638  -15.8496   20.4937 H   0  0  0  0  0  0
  -26.2726  -15.6166   20.0425 H   0  0  0  0  0  0
  -26.7159  -32.5567   23.1185 H   0  0  0  0  0  0
  -25.0110  -33.9781   25.0513 H   0  0  0  0  0  0
  -22.7022  -31.3046   21.4038 H   0  0  0  0  0  0
  -23.3801  -35.9574   23.3258 H   0  0  0  0  0  0
  -24.3597  -36.8969   22.2058 H   0  0  0  0  0  0
  -23.7190  -37.6465   23.6702 H   0  0  0  0  0  0
  -26.0601  -31.5899   20.6085 H   0  0  0  0  0  0
  -26.8287  -30.8726   21.9966 H   0  0  0  0  0  0
  -28.0966  -29.0347   21.2314 H   0  0  0  0  0  0
  -26.0497  -25.9696   18.9839 H   0  0  0  0  0  0
  -23.9945  -27.3321   18.9693 H   0  0  0  0  0  0
  -23.7288  -30.6096   19.4026 H   0  0  0  0  0  0
  -22.7550  -29.2464   19.8551 H   0  0  0  0  0  0
  -25.1260  -36.1954   25.0847 H   0  0  0  0  0  0
  -20.9960  -28.3235   24.1446 H   0  0  0  0  0  0
  -20.5656  -26.2271   23.3626 H   0  0  0  0  0  0
  -21.6604  -26.7381   22.1184 H   0  0  0  0  0  0
  -19.6883  -25.6275   21.1250 H   0  0  0  0  0  0
  -19.6679  -27.3176   20.6757 H   0  0  0  0  0  0
  -17.4158  -26.6696   21.4060 H   0  0  0  0  0  0
  -18.0289  -26.0051   22.9033 H   0  0  0  0  0  0
  -19.7945  -30.7242   24.2276 H   0  0  0  0  0  0
  -17.5017  -31.6263   24.5143 H   0  0  0  0  0  0
  -15.5359  -30.2976   23.7647 H   0  0  0  0  0  0
  -15.8690  -28.0822   22.7039 H   0  0  0  0  0  0
  -24.5797  -30.7263   25.7848 H   0  0  0  0  0  0
  -24.9034  -32.2988   26.5037 H   0  0  0  0  0  0
  -25.8000  -30.8863   27.0254 H   0  0  0  0  0  0
  -26.2801  -29.6849   24.1197 H   0  0  0  0  0  0
  -27.4032  -29.7280   25.4612 H   0  0  0  0  0  0
  -27.8672  -30.4391   23.9327 H   0  0  0  0  0  0
  -27.2774  -33.3703   26.1919 H   0  0  0  0  0  0
  -28.3947  -32.6657   25.0307 H   0  0  0  0  0  0
  -28.0657  -31.8476   26.5500 H   0  0  0  0  0  0
  -28.2538  -38.0121   24.7519 H   0  0  0  0  0  0
  -28.1113  -36.2647   24.6241 H   0  0  0  0  0  0
  -27.2295  -37.1368   25.8852 H   0  0  0  0  0  0
  -20.9332  -29.8868   21.7065 H   0  0  0  0  0  0
  -26.0188  -38.2883   24.1453 H   0  0  0  0  0  0
  -28.4648  -17.9444   20.4960 H   0  0  0  0  0  0
  -32.5333  -16.6096   21.1531 H   0  0  0  0  0  0
  -29.7604  -24.1885   21.2054 H   0  0  0  0  0  0
  -31.8210  -21.7712   21.3860 H   0  0  0  0  0  0
  -31.5504  -21.6692   19.6440 H   0  0  0  0  0  0
  -33.0595  -21.1368   20.3640 H   0  0  0  0  0  0
  -26.3239  -21.8833   21.6159 H   0  0  0  0  0  0
  -26.5617  -21.9724   19.8755 H   0  0  0  0  0  0
  -26.0314  -23.3858   20.7744 H   0  0  0  0  0  0
  -28.2101  -25.8426   22.1616 H   0  0  0  0  0  0
  -26.8836  -25.2677   21.2317 H   0  0  0  0  0  0
  -28.4180  -20.6349   19.7028 H   0  0  0  0  0  0
  -29.0015  -15.5030   21.0014 H   0  0  0  0  0  0
  1 25  1  0  0  0
  1 30  2  0  0  0
  1 84  1  0  0  0
  2  3  1  0  0  0
  2 25  1  0  0  0
  2 87  1  0  0  0
  2 88  1  0  0  0
  3  4  1  0  0  0
  3 89  1  0  0  0
  3 90  1  0  0  0
  4  5  1  0  0  0
  4 91  1  0  0  0
  4 92  1  0  0  0
  5  6  1  0  0  0
  5 26  1  0  0  0
  5 93  1  0  0  0
  6 25  1  0  0  0
  6 94  1  0  0  0
  6 95  1  0  0  0
  7  8  2  0  0  0
  7 26  1  0  0  0
  7 29  1  0  0  0
  8  9  1  0  0  0
  8 22  1  0  0  0
  9 10  1  0  0  0
  9 27  2  0  0  0
 10 11  2  0  0  0
 10 15  1  0  0  0
 11 12  1  0  0  0
 11 96  1  0  0  0
 12 13  2  0  0  0
 12 97  1  0  0  0
 13 14  1  0  0  0
 13 31  1  0  0  0
 14 15  2  0  0  0
 14 98  1  0  0  0
 15 99  1  0  0  0
 16 17  2  0  0  0
 16 21  1  0  0  0
 16 31  1  0  0  0
 17 18  1  0  0  0
 17100  1  0  0  0
 18 19  2  0  0  0
 18101  1  0  0  0
 19 20  1  0  0  0
 19 24  1  0  0  0
 20 21  2  0  0  0
 20102  1  0  0  0
 21 23  1  0  0  0
 22 28  1  0  0  0
 22 32  2  0  0  0
 26 27  1  0  0  0
 28103  1  0  0  0
 28104  1  0  0  0
 29105  1  0  0  0
 29106  1  0  0  0
 33 34  1  0  0  0
 33 66  1  0  0  0
 33 70  2  0  0  0
 34 36  1  0  0  0
 34 59  1  0  0  0
 34107  1  0  0  0
 35 44  2  0  0  0
 35 45  1  0  0  0
 35 68  1  0  0  0
 36 56  1  0  0  0
 36108  1  0  0  0
 37 39  1  0  0  0
 37 47  1  0  0  0
 37 66  1  0  0  0
 37109  1  0  0  0
 38 43  2  0  0  0
 38 46  1  0  0  0
 38 47  1  0  0  0
 39 64  1  0  0  0
 39 67  2  0  0  0
 40 52  1  0  0  0
 40 53  2  0  0  0
 40 58  1  0  0  0
 41110  1  0  0  0
 41111  1  0  0  0
 41112  1  0  0  0
 41 48  1  0  0  0
 42 43  1  0  0  0
 42 66  1  0  0  0
 42113  1  0  0  0
 42114  1  0  0  0
 43 44  1  0  0  0
 44115  1  0  0  0
 45 46  2  0  0  0
 45116  1  0  0  0
 46117  1  0  0  0
 47118  1  0  0  0
 47119  1  0  0  0
 48 56  1  0  0  0
 48 65  1  0  0  0
 48120  1  0  0  0
 49 50  1  0  0  0
 49 53  1  0  0  0
 49 64  1  0  0  0
 49121  1  0  0  0
 50 51  1  0  0  0
 50122  1  0  0  0
 50123  1  0  0  0
 51 52  1  0  0  0
 51124  1  0  0  0
 51125  1  0  0  0
 52126  1  0  0  0
 52127  1  0  0  0
 53 54  1  0  0  0
 54 55  2  0  0  0
 54128  1  0  0  0
 55 57  1  0  0  0
 55129  1  0  0  0
 56 69  2  0  0  0
 57 58  2  0  0  0
 57130  1  0  0  0
 58131  1  0  0  0
 59 60  1  0  0  0
 59 61  1  0  0  0
 59 62  1  0  0  0
 60132  1  0  0  0
 60133  1  0  0  0
 60134  1  0  0  0
 61135  1  0  0  0
 61136  1  0  0  0
 61137  1  0  0  0
 62138  1  0  0  0
 62139  1  0  0  0
 62140  1  0  0  0
 63 65  1  0  0  0
 63141  1  0  0  0
 63142  1  0  0  0
 63143  1  0  0  0
 64144  1  0  0  0
 65145  1  0  0  0
 68 82  1  0  0  0
 71 74  2  0  0  0
 71 75  1  0  0  0
 71146  1  0  0  0
 72 74  1  0  0  0
 72 76  2  0  0  0
 72147  1  0  0  0
 73 75  2  0  0  0
 73 76  1  0  0  0
 73 80  1  0  0  0
 74 84  1  0  0  0
 75 83  1  0  0  0
 76 86  1  0  0  0
 77 78  2  0  0  0
 77 82  1  0  0  0
 77148  1  0  0  0
 78 79  1  0  0  0
 78 81  1  0  0  0
 79 83  1  0  0  0
 79 85  2  0  0  0
 80149  1  0  0  0
 80150  1  0  0  0
 80151  1  0  0  0
 81152  1  0  0  0
 81153  1  0  0  0
 81154  1  0  0  0
 82155  1  0  0  0
 82156  1  0  0  0
 83157  1  0  0  0
 84158  1  0  0  0
M  ISO  4   1 100  68 101  82 101  84 100
M  END
> <chiral flag>
0

> <version>
0

> <s_m_source_file>
/data/baiqing/PycharmProjects/Reinvent-master-3.2/result/LINK_invent/BTK/process_docking_weight1_custom_product_contain_oxygen_bond_distance_aromatic_linkinvent_7_9_3/rearranged_h_0059.sdf

> <i_m_source_file_index>
25

> <r_mmod_Potential_Energy-OPLS-2005>
72.0585861206055

> <r_mmod_Stretch_Energy-OPLS-2005>
60.4873123168945

> <r_mmod_Bend_Energy-OPLS-2005>
116.084014892578

> <r_mmod_Torsional_Energy-OPLS-2005>
299.604522705078

> <r_mmod_Improper_Torsional_Energy-OPLS-2005>
9.75061225891113

> <r_mmod_Van_der_Waal_Energy-OPLS-2005>
172.345123291016

> <r_mmod_Electrostatic_Energy-OPLS-2005>
-397.061401367188

> <r_mmod_Solvation_Energy-OPLS-2005>
-223.344879150391

> <b_mmod_Minimization_Converged-OPLS-2005>
0

> <r_mmod_RMS_Derivative-OPLS-2005>
7.79483652114868

$$$$
25
                    3D
 Structure written by MMmdl.
154162  0  0  1  0            999 V2000
  -30.6179  -14.6523   20.4798 C   0  0  0  0  0  0
  -30.4374  -12.3976   19.4499 C   0  0  0  0  0  0
  -29.5158  -12.5283   18.2186 C   0  0  0  0  0  0
  -28.0300  -12.3863   18.6145 C   0  0  0  0  0  0
  -27.6528  -13.2285   19.8652 C   0  0  2  0  0  0
  -28.7006  -13.0787   20.9919 C   0  0  0  0  0  0
  -25.2535  -13.8193   20.5699 C   0  0  0  0  0  0
  -24.1827  -13.0421   20.9222 C   0  0  0  0  0  0
  -24.6411  -11.6908   20.8727 C   0  0  0  0  0  0
  -23.9086  -10.4276   21.0389 C   0  0  0  0  0  0
  -24.3627   -9.4203   21.9184 C   0  0  0  0  0  0
  -23.6292   -8.2244   22.0770 C   0  0  0  0  0  0
  -22.4272   -8.0278   21.3566 C   0  0  0  0  0  0
  -21.9907   -9.0245   20.4670 C   0  0  0  0  0  0
  -22.7238  -10.2122   20.3056 C   0  0  0  0  0  0
  -21.6850   -6.0745   22.5286 C   0  0  0  0  0  0
  -21.4011   -6.5644   23.8219 C   0  0  0  0  0  0
  -21.3661   -5.6791   24.9174 C   0  0  0  0  0  0
  -21.6056   -4.3057   24.7219 C   0  0  0  0  0  0
  -21.8808   -3.8161   23.4327 C   0  0  0  0  0  0
  -21.9187   -4.6979   22.3394 C   0  0  0  0  0  0
  -22.7834  -13.5208   21.1890 C   0  0  0  0  0  0
  -22.1662   -4.2177   21.0964 F   0  0  0  0  0  0
  -21.5636   -3.4525   25.7726 F   0  0  0  0  0  0
  -30.0139  -13.4232   20.4234 N   0  0  0  0  0  0
  -26.2984  -12.9398   20.3290 N   0  0  0  0  0  0
  -25.9343  -11.6542   20.5715 N   0  0  0  0  0  0
  -22.0465  -12.8192   22.0451 N   0  0  0  0  0  0
  -25.4113  -15.1922   20.4097 N   0  0  0  0  0  0
  -31.7922  -14.7992   20.1265 O   0  0  0  0  0  0
  -21.6638   -6.8872   21.4249 O   0  0  0  0  0  0
  -22.3501  -14.5500   20.6730 O   0  0  0  0  0  0
  -24.6262  -31.8587   23.2056 C   0  0  0  0  0  0
  -25.9137  -32.4763   23.8342 C   0  0  1  0  0  0
  -27.2324  -27.3335   20.1167 C   0  0  0  0  0  0
  -25.5983  -33.8567   24.2289 N   0  0  0  0  0  0
  -23.4187  -30.4859   21.5463 C   0  0  2  0  0  0
  -24.8685  -28.9516   20.1097 C   0  0  0  0  0  0
  -22.7465  -29.4626   22.4927 C   0  0  0  0  0  0
  -18.0289  -28.1384   22.8488 C   0  0  0  0  0  0
  -24.1510  -36.7264   23.2636 C   0  0  0  0  0  0
  -25.9583  -30.8032   21.3706 C   0  0  0  0  0  0
  -26.0370  -29.4328   20.7099 C   0  0  0  0  0  0
  -27.2199  -28.6363   20.7037 C   0  0  0  0  0  0
  -26.0378  -26.9122   19.4823 C   0  0  0  0  0  0
  -24.8707  -27.6971   19.4848 C   0  0  0  0  0  0
  -23.6331  -29.8248   20.1602 C   0  0  0  0  0  0
  -25.4128  -36.3064   24.0332 C   0  0  1  0  0  0
  -20.5892  -28.3690   23.1295 C   0  0  2  0  0  0
  -20.6788  -26.9412   22.5436 C   0  0  0  0  0  0
  -19.5751  -26.6386   21.5238 C   0  0  0  0  0  0
  -18.1929  -26.7937   22.1618 C   0  0  0  0  0  0
  -19.1539  -28.8851   23.2889 C   0  0  0  0  0  0
  -18.9459  -30.1458   23.8895 C   0  0  0  0  0  0
  -17.6458  -30.6587   24.0560 C   0  0  0  0  0  0
  -25.9070  -34.9447   23.5099 C   0  0  0  0  0  0
  -16.5347  -29.9075   23.6341 C   0  0  0  0  0  0
  -16.7278  -28.6502   23.0352 C   0  0  0  0  0  0
  -26.4547  -31.6535   25.0678 C   0  0  0  0  0  0
  -25.3788  -31.3631   26.1391 C   0  0  0  0  0  0
  -27.0399  -30.2963   24.6099 C   0  0  0  0  0  0
  -27.6118  -32.4245   25.7444 C   0  0  0  0  0  0
  -27.5579  -37.1778   24.8452 C   0  0  0  0  0  0
  -21.4181  -29.3033   22.3666 N   0  0  0  0  0  0
  -26.4278  -37.3774   23.9425 N   0  0  0  0  0  0
  -24.6857  -31.0643   22.0977 N   0  0  0  0  0  0
  -23.4191  -28.8153   23.3002 O   0  0  0  0  0  0
  -28.3560  -26.4889   20.1862 O   0  0  0  0  0  0
  -26.5589  -34.8912   22.4631 O   0  0  0  0  0  0
  -23.5443  -32.1357   23.7430 O   0  0  0  0  0  0
  -28.9054  -19.4369   20.9429 C   0  0  0  0  0  0
  -28.8459  -18.0099   21.0145 C   0  0  0  0  0  0
  -31.0802  -17.8518   20.1419 C   0  0  0  0  0  0
  -30.0613  -20.1142   20.4796 C   0  0  0  0  0  0
  -29.9339  -17.1721   20.6352 C   0  0  0  0  0  0
  -31.1402  -19.2762   20.0688 C   0  0  0  0  0  0
  -29.2200  -24.0246   20.4449 C   0  0  0  0  0  0
  -28.3645  -22.2489   18.9583 C   0  0  0  0  0  0
  -30.2369  -21.6837   20.5556 C   0  0  0  0  0  0
  -28.1812  -25.0557   19.8406 C   0  0  0  0  0  0
  -29.7922  -15.7133   20.7588 N   0  0  0  0  0  0
  -29.2212  -22.6906   20.0605 N   0  0  0  0  0  0
  -30.0208  -24.4420   21.2866 O   0  0  0  0  0  0
  -32.2815  -19.8422   19.6063 F   0  0  0  0  0  0
  -31.4815  -12.5164   19.1563 H   0  0  0  0  0  0
  -30.3597  -11.4004   19.8859 H   0  0  0  0  0  0
  -29.7824  -11.7852   17.4664 H   0  0  0  0  0  0
  -29.6770  -13.4996   17.7479 H   0  0  0  0  0  0
  -27.8302  -11.3300   18.7945 H   0  0  0  0  0  0
  -27.3963  -12.6738   17.7738 H   0  0  0  0  0  0
  -27.6664  -14.2714   19.5474 H   0  0  0  0  0  0
  -28.7163  -12.0579   21.3786 H   0  0  0  0  0  0
  -28.4545  -13.7161   21.8445 H   0  0  0  0  0  0
  -25.2764   -9.5686   22.4775 H   0  0  0  0  0  0
  -24.0001   -7.4641   22.7487 H   0  0  0  0  0  0
  -21.0836   -8.8731   19.8996 H   0  0  0  0  0  0
  -22.3665  -10.9646   19.6164 H   0  0  0  0  0  0
  -21.2002   -7.6157   23.9709 H   0  0  0  0  0  0
  -21.1514   -6.0544   25.9071 H   0  0  0  0  0  0
  -22.0597   -2.7633   23.2819 H   0  0  0  0  0  0
  -22.4030  -11.9810   22.4798 H   0  0  0  0  0  0
  -21.1096  -13.1257   22.2673 H   0  0  0  0  0  0
  -24.6259  -15.8222   20.5289 H   0  0  0  0  0  0
  -26.2039  -15.6395   19.9669 H   0  0  0  0  0  0
  -26.7184  -32.5453   23.1072 H   0  0  0  0  0  0
  -25.0254  -33.9711   25.0518 H   0  0  0  0  0  0
  -22.7117  -31.3061   21.4046 H   0  0  0  0  0  0
  -23.3812  -35.9557   23.3247 H   0  0  0  0  0  0
  -24.3628  -36.8925   22.2062 H   0  0  0  0  0  0
  -23.7212  -37.6433   23.6675 H   0  0  0  0  0  0
  -26.0868  -31.5770   20.6122 H   0  0  0  0  0  0
  -26.8395  -30.8462   21.9996 H   0  0  0  0  0  0
  -28.1178  -29.0100   21.1763 H   0  0  0  0  0  0
  -25.9648  -25.9595   18.9819 H   0  0  0  0  0  0
  -23.9756  -27.3273   19.0050 H   0  0  0  0  0  0
  -23.7413  -30.6003   19.4002 H   0  0  0  0  0  0
  -22.7555  -29.2462   19.8662 H   0  0  0  0  0  0
  -25.1313  -36.1898   25.0820 H   0  0  0  0  0  0
  -20.9979  -28.3275   24.1421 H   0  0  0  0  0  0
  -20.5751  -26.2278   23.3636 H   0  0  0  0  0  0
  -21.6645  -26.7483   22.1182 H   0  0  0  0  0  0
  -19.6927  -25.6309   21.1239 H   0  0  0  0  0  0
  -19.6698  -27.3226   20.6794 H   0  0  0  0  0  0
  -17.4220  -26.6736   21.3983 H   0  0  0  0  0  0
  -18.0272  -26.0061   22.8987 H   0  0  0  0  0  0
  -19.7936  -30.7285   24.2245 H   0  0  0  0  0  0
  -17.5012  -31.6280   24.5145 H   0  0  0  0  0  0
  -15.5349  -30.2969   23.7686 H   0  0  0  0  0  0
  -15.8676  -28.0834   22.7045 H   0  0  0  0  0  0
  -24.6097  -30.6810   25.7727 H   0  0  0  0  0  0
  -24.8840  -32.2767   26.4681 H   0  0  0  0  0  0
  -25.8165  -30.8947   27.0212 H   0  0  0  0  0  0
  -26.2962  -29.6656   24.1209 H   0  0  0  0  0  0
  -27.4205  -29.7244   25.4569 H   0  0  0  0  0  0
  -27.8770  -30.4242   23.9240 H   0  0  0  0  0  0
  -27.2780  -33.3607   26.1913 H   0  0  0  0  0  0
  -28.3999  -32.6658   25.0302 H   0  0  0  0  0  0
  -28.0675  -31.8392   26.5433 H   0  0  0  0  0  0
  -28.2544  -38.0133   24.7618 H   0  0  0  0  0  0
  -28.1137  -36.2674   24.6156 H   0  0  0  0  0  0
  -27.2299  -37.1256   25.8849 H   0  0  0  0  0  0
  -20.9345  -29.8711   21.6846 H   0  0  0  0  0  0
  -26.0154  -38.2824   24.1506 H   0  0  0  0  0  0
  -28.0601  -20.0243   21.2762 H   0  0  0  0  0  0
  -27.9381  -17.5594   21.3920 H   0  0  0  0  0  0
  -31.9477  -17.2931   19.8260 H   0  0  0  0  0  0
  -28.6768  -22.7186   18.0236 H   0  0  0  0  0  0
  -27.3248  -22.5159   19.1460 H   0  0  0  0  0  0
  -28.3923  -21.1743   18.7926 H   0  0  0  0  0  0
  -31.1658  -21.9349   20.0433 H   0  0  0  0  0  0
  -30.4305  -21.8926   21.6094 H   0  0  0  0  0  0
  -27.2122  -24.6991   20.1891 H   0  0  0  0  0  0
  -28.1966  -24.9777   18.7536 H   0  0  0  0  0  0
  -28.8657  -15.4113   21.0218 H   0  0  0  0  0  0
  1 25  1  0  0  0
  1 30  2  0  0  0
  1 81  1  0  0  0
  2  3  1  0  0  0
  2 25  1  0  0  0
  2 85  1  0  0  0
  2 86  1  0  0  0
  3  4  1  0  0  0
  3 87  1  0  0  0
  3 88  1  0  0  0
  4  5  1  0  0  0
  4 89  1  0  0  0
  4 90  1  0  0  0
  5  6  1  0  0  0
  5 26  1  0  0  0
  5 91  1  0  0  0
  6 25  1  0  0  0
  6 92  1  0  0  0
  6 93  1  0  0  0
  7  8  2  0  0  0
  7 26  1  0  0  0
  7 29  1  0  0  0
  8  9  1  0  0  0
  8 22  1  0  0  0
  9 10  1  0  0  0
  9 27  2  0  0  0
 10 11  2  0  0  0
 10 15  1  0  0  0
 11 12  1  0  0  0
 11 94  1  0  0  0
 12 13  2  0  0  0
 12 95  1  0  0  0
 13 14  1  0  0  0
 13 31  1  0  0  0
 14 15  2  0  0  0
 14 96  1  0  0  0
 15 97  1  0  0  0
 16 17  2  0  0  0
 16 21  1  0  0  0
 16 31  1  0  0  0
 17 18  1  0  0  0
 17 98  1  0  0  0
 18 19  2  0  0  0
 18 99  1  0  0  0
 19 20  1  0  0  0
 19 24  1  0  0  0
 20 21  2  0  0  0
 20100  1  0  0  0
 21 23  1  0  0  0
 22 28  1  0  0  0
 22 32  2  0  0  0
 26 27  1  0  0  0
 28101  1  0  0  0
 28102  1  0  0  0
 29103  1  0  0  0
 29104  1  0  0  0
 33 34  1  0  0  0
 33 66  1  0  0  0
 33 70  2  0  0  0
 34 36  1  0  0  0
 34 59  1  0  0  0
 34105  1  0  0  0
 35 44  2  0  0  0
 35 45  1  0  0  0
 35 68  1  0  0  0
 36 56  1  0  0  0
 36106  1  0  0  0
 37 39  1  0  0  0
 37 47  1  0  0  0
 37 66  1  0  0  0
 37107  1  0  0  0
 38 43  2  0  0  0
 38 46  1  0  0  0
 38 47  1  0  0  0
 39 64  1  0  0  0
 39 67  2  0  0  0
 40 52  1  0  0  0
 40 53  2  0  0  0
 40 58  1  0  0  0
 41108  1  0  0  0
 41109  1  0  0  0
 41110  1  0  0  0
 41 48  1  0  0  0
 42 43  1  0  0  0
 42 66  1  0  0  0
 42111  1  0  0  0
 42112  1  0  0  0
 43 44  1  0  0  0
 44113  1  0  0  0
 45 46  2  0  0  0
 45114  1  0  0  0
 46115  1  0  0  0
 47116  1  0  0  0
 47117  1  0  0  0
 48 56  1  0  0  0
 48 65  1  0  0  0
 48118  1  0  0  0
 49 50  1  0  0  0
 49 53  1  0  0  0
 49 64  1  0  0  0
 49119  1  0  0  0
 50 51  1  0  0  0
 50120  1  0  0  0
 50121  1  0  0  0
 51 52  1  0  0  0
 51122  1  0  0  0
 51123  1  0  0  0
 52124  1  0  0  0
 52125  1  0  0  0
 53 54  1  0  0  0
 54 55  2  0  0  0
 54126  1  0  0  0
 55 57  1  0  0  0
 55127  1  0  0  0
 56 69  2  0  0  0
 57 58  2  0  0  0
 57128  1  0  0  0
 58129  1  0  0  0
 59 60  1  0  0  0
 59 61  1  0  0  0
 59 62  1  0  0  0
 60130  1  0  0  0
 60131  1  0  0  0
 60132  1  0  0  0
 61133  1  0  0  0
 61134  1  0  0  0
 61135  1  0  0  0
 62136  1  0  0  0
 62137  1  0  0  0
 62138  1  0  0  0
 63 65  1  0  0  0
 63139  1  0  0  0
 63140  1  0  0  0
 63141  1  0  0  0
 64142  1  0  0  0
 65143  1  0  0  0
 68 80  1  0  0  0
 71 72  2  0  0  0
 71 74  1  0  0  0
 71144  1  0  0  0
 72 75  1  0  0  0
 72145  1  0  0  0
 73 75  2  0  0  0
 73 76  1  0  0  0
 73146  1  0  0  0
 74 76  2  0  0  0
 74 79  1  0  0  0
 75 81  1  0  0  0
 76 84  1  0  0  0
 77 80  1  0  0  0
 77 82  1  0  0  0
 77 83  2  0  0  0
 78 82  1  0  0  0
 78147  1  0  0  0
 78148  1  0  0  0
 78149  1  0  0  0
 79 82  1  0  0  0
 79150  1  0  0  0
 79151  1  0  0  0
 80152  1  0  0  0
 80153  1  0  0  0
 81154  1  0  0  0
M  ISO  4   1 100  68 101  80 101  81 100
M  END
> <chiral flag>
0

> <version>
0

> <s_m_source_file>
/data/baiqing/PycharmProjects/Reinvent-master-3.2/result/LINK_invent/BTK/process_docking_weight1_custom_product_contain_oxygen_bond_distance_aromatic_linkinvent_7_9_3/rearranged_h_0059.sdf

> <i_m_source_file_index>
26

> <r_mmod_Potential_Energy-OPLS-2005>
91.5552597045898

> <r_mmod_Stretch_Energy-OPLS-2005>
86.0524749755859

> <r_mmod_Bend_Energy-OPLS-2005>
144.418182373047

> <r_mmod_Torsional_Energy-OPLS-2005>
223.218185424805

> <r_mmod_Improper_Torsional_Energy-OPLS-2005>
5.78272294998169

> <r_mmod_Van_der_Waal_Energy-OPLS-2005>
154.181411743164

> <r_mmod_Electrostatic_Energy-OPLS-2005>
-329.850646972656

> <r_mmod_Solvation_Energy-OPLS-2005>
-240.583358764648

> <b_mmod_Minimization_Converged-OPLS-2005>
0

> <r_mmod_RMS_Derivative-OPLS-2005>
3.8045711517334

$$$$
26
                    3D
 Structure written by MMmdl.
154162  0  0  1  0            999 V2000
  -30.6338  -14.7361   20.3943 C   0  0  0  0  0  0
  -30.4262  -12.4371   19.4686 C   0  0  0  0  0  0
  -29.5063  -12.4917   18.2295 C   0  0  0  0  0  0
  -28.0341  -12.3226   18.6482 C   0  0  0  0  0  0
  -27.6411  -13.2335   19.8424 C   0  0  2  0  0  0
  -28.6902  -13.1904   20.9762 C   0  0  0  0  0  0
  -25.2510  -13.8209   20.5669 C   0  0  0  0  0  0
  -24.1818  -13.0449   20.9202 C   0  0  0  0  0  0
  -24.6421  -11.6925   20.8759 C   0  0  0  0  0  0
  -23.9098  -10.4301   21.0424 C   0  0  0  0  0  0
  -24.3639   -9.4205   21.9189 C   0  0  0  0  0  0
  -23.6309   -8.2246   22.0753 C   0  0  0  0  0  0
  -22.4286   -8.0289   21.3552 C   0  0  0  0  0  0
  -21.9932   -9.0264   20.4645 C   0  0  0  0  0  0
  -22.7275  -10.2143   20.3060 C   0  0  0  0  0  0
  -21.6852   -6.0744   22.5281 C   0  0  0  0  0  0
  -21.4015   -6.5642   23.8213 C   0  0  0  0  0  0
  -21.3656   -5.6789   24.9179 C   0  0  0  0  0  0
  -21.6045   -4.3059   24.7229 C   0  0  0  0  0  0
  -21.8820   -3.8152   23.4348 C   0  0  0  0  0  0
  -21.9197   -4.6967   22.3411 C   0  0  0  0  0  0
  -22.7833  -13.5213   21.1857 C   0  0  0  0  0  0
  -22.1663   -4.2149   21.0991 F   0  0  0  0  0  0
  -21.5627   -3.4542   25.7750 F   0  0  0  0  0  0
  -29.9928  -13.5173   20.3848 N   0  0  0  0  0  0
  -26.2940  -12.9414   20.3257 N   0  0  0  0  0  0
  -25.9345  -11.6553   20.5754 N   0  0  0  0  0  0
  -22.0497  -12.8198   22.0415 N   0  0  0  0  0  0
  -25.4207  -15.1938   20.4065 N   0  0  0  0  0  0
  -31.8387  -14.7798   20.1368 O   0  0  0  0  0  0
  -21.6648   -6.8893   21.4246 O   0  0  0  0  0  0
  -22.3518  -14.5528   20.6718 O   0  0  0  0  0  0
  -24.6318  -31.8556   23.1976 C   0  0  0  0  0  0
  -25.9148  -32.4741   23.8309 C   0  0  1  0  0  0
  -27.2308  -27.2752   20.1040 C   0  0  0  0  0  0
  -25.5962  -33.8541   24.2252 N   0  0  0  0  0  0
  -23.4261  -30.4783   21.5411 C   0  0  2  0  0  0
  -24.8715  -28.9235   20.1097 C   0  0  0  0  0  0
  -22.7507  -29.4609   22.4914 C   0  0  0  0  0  0
  -18.0291  -28.1381   22.8471 C   0  0  0  0  0  0
  -24.1496  -36.7278   23.2638 C   0  0  0  0  0  0
  -25.9728  -30.7685   21.3773 C   0  0  0  0  0  0
  -26.0419  -29.3931   20.7155 C   0  0  0  0  0  0
  -27.2167  -28.5791   20.7052 C   0  0  0  0  0  0
  -26.0242  -26.8610   19.4917 C   0  0  0  0  0  0
  -24.8653  -27.6633   19.4924 C   0  0  0  0  0  0
  -23.6430  -29.8111   20.1574 C   0  0  0  0  0  0
  -25.4117  -36.3064   24.0343 C   0  0  1  0  0  0
  -20.5906  -28.3696   23.1261 C   0  0  2  0  0  0
  -20.6792  -26.9411   22.5407 C   0  0  0  0  0  0
  -19.5767  -26.6385   21.5207 C   0  0  0  0  0  0
  -18.1941  -26.7927   22.1614 C   0  0  0  0  0  0
  -19.1554  -28.8859   23.2851 C   0  0  0  0  0  0
  -18.9487  -30.1455   23.8869 C   0  0  0  0  0  0
  -17.6488  -30.6577   24.0557 C   0  0  0  0  0  0
  -25.9075  -34.9432   23.5099 C   0  0  0  0  0  0
  -16.5369  -29.9085   23.6329 C   0  0  0  0  0  0
  -16.7285  -28.6508   23.0338 C   0  0  0  0  0  0
  -26.4506  -31.6571   25.0695 C   0  0  0  0  0  0
  -25.3737  -31.3742   26.1431 C   0  0  0  0  0  0
  -27.0382  -30.2998   24.6195 C   0  0  0  0  0  0
  -27.6048  -32.4329   25.7481 C   0  0  0  0  0  0
  -27.5581  -37.1773   24.8452 C   0  0  0  0  0  0
  -21.4220  -29.3033   22.3664 N   0  0  0  0  0  0
  -26.4272  -37.3772   23.9440 N   0  0  0  0  0  0
  -24.6959  -31.0531   22.0947 N   0  0  0  0  0  0
  -23.4224  -28.8155   23.3000 O   0  0  0  0  0  0
  -28.3677  -26.4353   20.1710 O   0  0  0  0  0  0
  -26.5641  -34.8907   22.4664 O   0  0  0  0  0  0
  -23.5482  -32.1375   23.7294 O   0  0  0  0  0  0
  -31.3388  -18.6577   18.3074 C   0  0  0  0  0  0
  -30.7392  -19.8389   18.7789 C   0  0  0  0  0  0
  -31.0552  -17.4072   18.8832 C   0  0  0  0  0  0
  -29.5122  -18.5099   20.4154 C   0  0  0  0  0  0
  -29.7993  -19.8285   19.8368 C   0  0  0  0  0  0
  -30.1546  -17.2719   19.9654 C   0  0  0  0  0  0
  -29.1227  -22.3641   19.6613 C   0  0  0  0  0  0
  -28.4821  -18.4003   21.5254 C   0  0  0  0  0  0
  -28.7649  -23.7308   20.4199 C   0  0  0  0  0  0
  -28.4698  -25.0698   19.5522 C   0  0  0  0  0  0
  -29.2603  -21.1391   20.3135 N   0  0  0  0  0  0
  -29.8803  -15.9018   20.4968 N   0  0  0  0  0  0
  -29.2494  -22.4370   18.4372 O   0  0  0  0  0  0
  -31.4697  -12.5404   19.1643 H   0  0  0  0  0  0
  -30.3555  -11.4655   19.9598 H   0  0  0  0  0  0
  -29.7843  -11.7153   17.5150 H   0  0  0  0  0  0
  -29.6355  -13.4443   17.7115 H   0  0  0  0  0  0
  -27.8942  -11.2762   18.9232 H   0  0  0  0  0  0
  -27.3741  -12.5022   17.7986 H   0  0  0  0  0  0
  -27.6306  -14.2493   19.4461 H   0  0  0  0  0  0
  -28.7189  -12.2047   21.4434 H   0  0  0  0  0  0
  -28.4332  -13.8981   21.7654 H   0  0  0  0  0  0
  -25.2787   -9.5670   22.4751 H   0  0  0  0  0  0
  -24.0012   -7.4639   22.7466 H   0  0  0  0  0  0
  -21.0858   -8.8796   19.8951 H   0  0  0  0  0  0
  -22.3743  -10.9679   19.6158 H   0  0  0  0  0  0
  -21.2003   -7.6147   23.9719 H   0  0  0  0  0  0
  -21.1468   -6.0527   25.9083 H   0  0  0  0  0  0
  -22.0601   -2.7608   23.2861 H   0  0  0  0  0  0
  -22.4119  -11.9856   22.4799 H   0  0  0  0  0  0
  -21.1104  -13.1196   22.2625 H   0  0  0  0  0  0
  -24.6463  -15.8418   20.5013 H   0  0  0  0  0  0
  -26.2598  -15.6303   20.0468 H   0  0  0  0  0  0
  -26.7210  -32.5380   23.1045 H   0  0  0  0  0  0
  -25.0088  -33.9660   25.0388 H   0  0  0  0  0  0
  -22.7200  -31.3006   21.3951 H   0  0  0  0  0  0
  -23.3761  -35.9592   23.3285 H   0  0  0  0  0  0
  -24.3578  -36.8916   22.2046 H   0  0  0  0  0  0
  -23.7231  -37.6456   23.6675 H   0  0  0  0  0  0
  -26.1201  -31.5310   20.6111 H   0  0  0  0  0  0
  -26.8470  -30.8089   22.0151 H   0  0  0  0  0  0
  -28.1152  -28.9326   21.1916 H   0  0  0  0  0  0
  -25.9220  -25.8951   19.0267 H   0  0  0  0  0  0
  -23.9628  -27.2914   19.0266 H   0  0  0  0  0  0
  -23.7709  -30.5877   19.4019 H   0  0  0  0  0  0
  -22.7594  -29.2499   19.8482 H   0  0  0  0  0  0
  -25.1281  -36.1894   25.0836 H   0  0  0  0  0  0
  -20.9981  -28.3302   24.1391 H   0  0  0  0  0  0
  -20.5731  -26.2299   23.3621 H   0  0  0  0  0  0
  -21.6659  -26.7458   22.1178 H   0  0  0  0  0  0
  -19.6936  -25.6305   21.1227 H   0  0  0  0  0  0
  -19.6710  -27.3209   20.6763 H   0  0  0  0  0  0
  -17.4223  -26.6679   21.4006 H   0  0  0  0  0  0
  -18.0312  -26.0056   22.9006 H   0  0  0  0  0  0
  -19.7971  -30.7249   24.2241 H   0  0  0  0  0  0
  -17.5058  -31.6258   24.5164 H   0  0  0  0  0  0
  -15.5370  -30.2976   23.7681 H   0  0  0  0  0  0
  -15.8686  -28.0822   22.7061 H   0  0  0  0  0  0
  -24.5909  -30.7090   25.7786 H   0  0  0  0  0  0
  -24.8922  -32.2916   26.4814 H   0  0  0  0  0  0
  -25.8056  -30.8948   27.0237 H   0  0  0  0  0  0
  -26.2980  -29.6706   24.1231 H   0  0  0  0  0  0
  -27.4095  -29.7273   25.4694 H   0  0  0  0  0  0
  -27.8840  -30.4268   23.9438 H   0  0  0  0  0  0
  -27.2638  -33.3653   26.2009 H   0  0  0  0  0  0
  -28.3888  -32.6873   25.0340 H   0  0  0  0  0  0
  -28.0689  -31.8489   26.5441 H   0  0  0  0  0  0
  -28.2547  -38.0116   24.7573 H   0  0  0  0  0  0
  -28.1137  -36.2647   24.6193 H   0  0  0  0  0  0
  -27.2315  -37.1321   25.8852 H   0  0  0  0  0  0
  -20.9436  -29.8743   21.6840 H   0  0  0  0  0  0
  -26.0154  -38.2843   24.1473 H   0  0  0  0  0  0
  -32.0387  -18.7124   17.4850 H   0  0  0  0  0  0
  -31.0383  -20.7642   18.3077 H   0  0  0  0  0  0
  -31.5408  -16.5454   18.4491 H   0  0  0  0  0  0
  -27.9828  -19.3482   21.7202 H   0  0  0  0  0  0
  -28.9505  -18.0656   22.4513 H   0  0  0  0  0  0
  -27.7112  -17.6779   21.2511 H   0  0  0  0  0  0
  -29.6075  -23.9456   21.0770 H   0  0  0  0  0  0
  -27.9131  -23.5363   21.0709 H   0  0  0  0  0  0
  -27.6455  -24.8553   18.8786 H   0  0  0  0  0  0
  -29.3136  -25.1770   18.8703 H   0  0  0  0  0  0
  -29.0080  -21.1603   21.2929 H   0  0  0  0  0  0
  -28.9474  -15.7639   20.8543 H   0  0  0  0  0  0
  1 25  1  0  0  0
  1 30  2  0  0  0
  1 82  1  0  0  0
  2  3  1  0  0  0
  2 25  1  0  0  0
  2 84  1  0  0  0
  2 85  1  0  0  0
  3  4  1  0  0  0
  3 86  1  0  0  0
  3 87  1  0  0  0
  4  5  1  0  0  0
  4 88  1  0  0  0
  4 89  1  0  0  0
  5  6  1  0  0  0
  5 26  1  0  0  0
  5 90  1  0  0  0
  6 25  1  0  0  0
  6 91  1  0  0  0
  6 92  1  0  0  0
  7  8  2  0  0  0
  7 26  1  0  0  0
  7 29  1  0  0  0
  8  9  1  0  0  0
  8 22  1  0  0  0
  9 10  1  0  0  0
  9 27  2  0  0  0
 10 11  2  0  0  0
 10 15  1  0  0  0
 11 12  1  0  0  0
 11 93  1  0  0  0
 12 13  2  0  0  0
 12 94  1  0  0  0
 13 14  1  0  0  0
 13 31  1  0  0  0
 14 15  2  0  0  0
 14 95  1  0  0  0
 15 96  1  0  0  0
 16 17  2  0  0  0
 16 21  1  0  0  0
 16 31  1  0  0  0
 17 18  1  0  0  0
 17 97  1  0  0  0
 18 19  2  0  0  0
 18 98  1  0  0  0
 19 20  1  0  0  0
 19 24  1  0  0  0
 20 21  2  0  0  0
 20 99  1  0  0  0
 21 23  1  0  0  0
 22 28  1  0  0  0
 22 32  2  0  0  0
 26 27  1  0  0  0
 28100  1  0  0  0
 28101  1  0  0  0
 29102  1  0  0  0
 29103  1  0  0  0
 33 34  1  0  0  0
 33 66  1  0  0  0
 33 70  2  0  0  0
 34 36  1  0  0  0
 34 59  1  0  0  0
 34104  1  0  0  0
 35 44  2  0  0  0
 35 45  1  0  0  0
 35 68  1  0  0  0
 36 56  1  0  0  0
 36105  1  0  0  0
 37 39  1  0  0  0
 37 47  1  0  0  0
 37 66  1  0  0  0
 37106  1  0  0  0
 38 43  2  0  0  0
 38 46  1  0  0  0
 38 47  1  0  0  0
 39 64  1  0  0  0
 39 67  2  0  0  0
 40 52  1  0  0  0
 40 53  2  0  0  0
 40 58  1  0  0  0
 41107  1  0  0  0
 41108  1  0  0  0
 41109  1  0  0  0
 41 48  1  0  0  0
 42 43  1  0  0  0
 42 66  1  0  0  0
 42110  1  0  0  0
 42111  1  0  0  0
 43 44  1  0  0  0
 44112  1  0  0  0
 45 46  2  0  0  0
 45113  1  0  0  0
 46114  1  0  0  0
 47115  1  0  0  0
 47116  1  0  0  0
 48 56  1  0  0  0
 48 65  1  0  0  0
 48117  1  0  0  0
 49 50  1  0  0  0
 49 53  1  0  0  0
 49 64  1  0  0  0
 49118  1  0  0  0
 50 51  1  0  0  0
 50119  1  0  0  0
 50120  1  0  0  0
 51 52  1  0  0  0
 51121  1  0  0  0
 51122  1  0  0  0
 52123  1  0  0  0
 52124  1  0  0  0
 53 54  1  0  0  0
 54 55  2  0  0  0
 54125  1  0  0  0
 55 57  1  0  0  0
 55126  1  0  0  0
 56 69  2  0  0  0
 57 58  2  0  0  0
 57127  1  0  0  0
 58128  1  0  0  0
 59 60  1  0  0  0
 59 61  1  0  0  0
 59 62  1  0  0  0
 60129  1  0  0  0
 60130  1  0  0  0
 60131  1  0  0  0
 61132  1  0  0  0
 61133  1  0  0  0
 61134  1  0  0  0
 62135  1  0  0  0
 62136  1  0  0  0
 62137  1  0  0  0
 63 65  1  0  0  0
 63138  1  0  0  0
 63139  1  0  0  0
 63140  1  0  0  0
 64141  1  0  0  0
 65142  1  0  0  0
 68 80  1  0  0  0
 71 72  2  0  0  0
 71 73  1  0  0  0
 71143  1  0  0  0
 72 75  1  0  0  0
 72144  1  0  0  0
 73 76  2  0  0  0
 73145  1  0  0  0
 74 75  2  0  0  0
 74 76  1  0  0  0
 74 78  1  0  0  0
 75 81  1  0  0  0
 76 82  1  0  0  0
 77 79  1  0  0  0
 77 81  1  0  0  0
 77 83  2  0  0  0
 78146  1  0  0  0
 78147  1  0  0  0
 78148  1  0  0  0
 79 80  1  0  0  0
 79149  1  0  0  0
 79150  1  0  0  0
 80151  1  0  0  0
 80152  1  0  0  0
 81153  1  0  0  0
 82154  1  0  0  0
M  ISO  4   1 100  68 101  80 101  82 100
M  END
> <chiral flag>
0

> <version>
0

> <s_m_source_file>
/data/baiqing/PycharmProjects/Reinvent-master-3.2/result/LINK_invent/BTK/process_docking_weight1_custom_product_contain_oxygen_bond_distance_aromatic_linkinvent_7_9_3/rearranged_h_0059.sdf

> <i_m_source_file_index>
27

> <r_mmod_Potential_Energy-OPLS-2005>
117.764953613281

> <r_mmod_Stretch_Energy-OPLS-2005>
129.998931884766

> <r_mmod_Bend_Energy-OPLS-2005>
169.362945556641

> <r_mmod_Torsional_Energy-OPLS-2005>
234.195861816406

> <r_mmod_Improper_Torsional_Energy-OPLS-2005>
5.24265193939209

> <r_mmod_Van_der_Waal_Energy-OPLS-2005>
147.551635742188

> <r_mmod_Electrostatic_Energy-OPLS-2005>
-415.662475585938

> <r_mmod_Solvation_Energy-OPLS-2005>
-232.739059448242

> <b_mmod_Minimization_Converged-OPLS-2005>
0

> <r_mmod_RMS_Derivative-OPLS-2005>
2.96246910095215

$$$$
27
                    3D
 Structure written by MMmdl.
160169  0  0  1  0            999 V2000
  -30.6098  -14.7318   20.4470 C   0  0  0  0  0  0
  -30.4346  -12.4344   19.4987 C   0  0  0  0  0  0
  -29.5281  -12.5199   18.2499 C   0  0  0  0  0  0
  -28.0460  -12.3612   18.6435 C   0  0  0  0  0  0
  -27.6506  -13.2385   19.8618 C   0  0  2  0  0  0
  -28.6881  -13.1515   21.0031 C   0  0  0  0  0  0
  -25.2527  -13.8222   20.5701 C   0  0  0  0  0  0
  -24.1812  -13.0460   20.9173 C   0  0  0  0  0  0
  -24.6394  -11.6935   20.8705 C   0  0  0  0  0  0
  -23.9076  -10.4307   21.0382 C   0  0  0  0  0  0
  -24.3623   -9.4229   21.9171 C   0  0  0  0  0  0
  -23.6274   -8.2273   22.0763 C   0  0  0  0  0  0
  -22.4254   -8.0306   21.3556 C   0  0  0  0  0  0
  -21.9884   -9.0281   20.4665 C   0  0  0  0  0  0
  -22.7237  -10.2146   20.3048 C   0  0  0  0  0  0
  -21.6858   -6.0723   22.5264 C   0  0  0  0  0  0
  -21.4033   -6.5620   23.8199 C   0  0  0  0  0  0
  -21.3666   -5.6774   24.9157 C   0  0  0  0  0  0
  -21.6042   -4.3042   24.7205 C   0  0  0  0  0  0
  -21.8823   -3.8136   23.4329 C   0  0  0  0  0  0
  -21.9200   -4.6957   22.3389 C   0  0  0  0  0  0
  -22.7819  -13.5245   21.1820 C   0  0  0  0  0  0
  -22.1663   -4.2151   21.0965 F   0  0  0  0  0  0
  -21.5626   -3.4526   25.7715 F   0  0  0  0  0  0
  -30.0007  -13.4947   20.4386 N   0  0  0  0  0  0
  -26.2966  -12.9445   20.3300 N   0  0  0  0  0  0
  -25.9331  -11.6576   20.5690 N   0  0  0  0  0  0
  -22.0458  -12.8258   22.0391 N   0  0  0  0  0  0
  -25.4247  -15.1939   20.4162 N   0  0  0  0  0  0
  -31.7731  -14.8441   20.0513 O   0  0  0  0  0  0
  -21.6641   -6.8880   21.4224 O   0  0  0  0  0  0
  -22.3523  -14.5547   20.6661 O   0  0  0  0  0  0
  -24.6326  -31.8553   23.1970 C   0  0  0  0  0  0
  -25.9139  -32.4765   23.8317 C   0  0  1  0  0  0
  -27.2209  -27.2564   20.1248 C   0  0  0  0  0  0
  -25.5919  -33.8564   24.2252 N   0  0  0  0  0  0
  -23.4298  -30.4789   21.5412 C   0  0  2  0  0  0
  -24.8770  -28.9282   20.1063 C   0  0  0  0  0  0
  -22.7514  -29.4608   22.4907 C   0  0  0  0  0  0
  -18.0299  -28.1396   22.8484 C   0  0  0  0  0  0
  -24.1484  -36.7282   23.2635 C   0  0  0  0  0  0
  -25.9763  -30.7697   21.3741 C   0  0  0  0  0  0
  -26.0495  -29.3908   20.7174 C   0  0  0  0  0  0
  -27.2227  -28.5666   20.7168 C   0  0  0  0  0  0
  -26.0272  -26.8752   19.4673 C   0  0  0  0  0  0
  -24.8721  -27.6801   19.4699 C   0  0  0  0  0  0
  -23.6472  -29.8139   20.1563 C   0  0  0  0  0  0
  -25.4107  -36.3083   24.0333 C   0  0  1  0  0  0
  -20.5901  -28.3707   23.1273 C   0  0  2  0  0  0
  -20.6788  -26.9427   22.5404 C   0  0  0  0  0  0
  -19.5761  -26.6392   21.5210 C   0  0  0  0  0  0
  -18.1940  -26.7936   22.1625 C   0  0  0  0  0  0
  -19.1550  -28.8877   23.2876 C   0  0  0  0  0  0
  -18.9465  -30.1471   23.8913 C   0  0  0  0  0  0
  -17.6459  -30.6594   24.0567 C   0  0  0  0  0  0
  -25.9055  -34.9446   23.5105 C   0  0  0  0  0  0
  -16.5358  -29.9093   23.6317 C   0  0  0  0  0  0
  -16.7285  -28.6507   23.0356 C   0  0  0  0  0  0
  -26.4491  -31.6579   25.0705 C   0  0  0  0  0  0
  -25.3689  -31.3723   26.1402 C   0  0  0  0  0  0
  -27.0326  -30.3002   24.6161 C   0  0  0  0  0  0
  -27.6074  -32.4290   25.7470 C   0  0  0  0  0  0
  -27.5587  -37.1791   24.8458 C   0  0  0  0  0  0
  -21.4214  -29.3046   22.3649 N   0  0  0  0  0  0
  -26.4285  -37.3781   23.9419 N   0  0  0  0  0  0
  -24.6996  -31.0509   22.0945 N   0  0  0  0  0  0
  -23.4203  -28.8144   23.3009 O   0  0  0  0  0  0
  -28.3087  -26.3476   20.2078 O   0  0  0  0  0  0
  -26.5636  -34.8936   22.4684 O   0  0  0  0  0  0
  -23.5467  -32.1377   23.7258 O   0  0  0  0  0  0
  -29.4661  -18.2224   17.8573 C   0  0  0  0  0  0
  -29.6433  -17.0710   18.6430 C   0  0  0  0  0  0
  -29.6601  -18.4835   20.6200 C   0  0  0  0  0  0
  -29.4020  -19.5178   18.4182 C   0  0  0  0  0  0
  -29.4691  -19.7035   19.8321 C   0  0  0  0  0  0
  -29.7635  -17.1453   20.0440 C   0  0  0  0  0  0
  -31.3911  -22.6806   20.5737 C   0  0  0  0  0  0
  -28.6042  -22.1476   20.1522 C   0  0  0  0  0  0
  -30.5130  -23.9096   20.2804 C   0  0  0  0  0  0
  -30.6895  -21.4516   21.1736 C   0  0  0  0  0  0
  -28.9982  -23.6725   20.5144 C   0  0  1  0  0  0
  -29.3278  -20.6791   17.4316 C   0  0  0  0  0  0
  -28.0871  -24.8815   19.9193 C   0  0  0  0  0  0
  -29.5008  -21.0967   20.3858 N   0  0  0  0  0  0
  -29.8626  -15.8554   20.7732 N   0  0  0  0  0  0
  -32.5987  -22.6823   20.3277 O   0  0  0  0  0  0
  -27.4847  -21.9408   19.6783 O   0  0  0  0  0  0
  -31.4852  -12.5316   19.2193 H   0  0  0  0  0  0
  -30.3486  -11.4512   19.9654 H   0  0  0  0  0  0
  -29.8073  -11.7552   17.5245 H   0  0  0  0  0  0
  -29.6806  -13.4792   17.7519 H   0  0  0  0  0  0
  -27.8724  -11.3092   18.8711 H   0  0  0  0  0  0
  -27.4111  -12.6019   17.7903 H   0  0  0  0  0  0
  -27.6547  -14.2662   19.4979 H   0  0  0  0  0  0
  -28.7074  -12.1474   21.4292 H   0  0  0  0  0  0
  -28.4216  -13.8233   21.8219 H   0  0  0  0  0  0
  -25.2774   -9.5701   22.4748 H   0  0  0  0  0  0
  -23.9990   -7.4658   22.7481 H   0  0  0  0  0  0
  -21.0816   -8.8792   19.8966 H   0  0  0  0  0  0
  -22.3693  -10.9671   19.6152 H   0  0  0  0  0  0
  -21.2038   -7.6129   23.9700 H   0  0  0  0  0  0
  -21.1477   -6.0504   25.9061 H   0  0  0  0  0  0
  -22.0599   -2.7598   23.2824 H   0  0  0  0  0  0
  -22.4028  -11.9905   22.4786 H   0  0  0  0  0  0
  -21.1098  -13.1341   22.2603 H   0  0  0  0  0  0
  -24.6620  -15.8527   20.5416 H   0  0  0  0  0  0
  -26.2771  -15.6365   20.0990 H   0  0  0  0  0  0
  -26.7213  -32.5426   23.1068 H   0  0  0  0  0  0
  -25.0028  -33.9668   25.0377 H   0  0  0  0  0  0
  -22.7278  -31.3026   21.3958 H   0  0  0  0  0  0
  -23.3763  -35.9593   23.3273 H   0  0  0  0  0  0
  -24.3590  -36.8926   22.2054 H   0  0  0  0  0  0
  -23.7216  -37.6470   23.6669 H   0  0  0  0  0  0
  -26.1073  -31.5304   20.6024 H   0  0  0  0  0  0
  -26.8564  -30.8247   22.0023 H   0  0  0  0  0  0
  -28.1189  -28.9128   21.2124 H   0  0  0  0  0  0
  -25.9488  -25.9285   18.9554 H   0  0  0  0  0  0
  -23.9767  -27.3246   18.9799 H   0  0  0  0  0  0
  -23.7714  -30.5904   19.4005 H   0  0  0  0  0  0
  -22.7645  -29.2482   19.8525 H   0  0  0  0  0  0
  -25.1284  -36.1928   25.0823 H   0  0  0  0  0  0
  -20.9999  -28.3290   24.1394 H   0  0  0  0  0  0
  -20.5689  -26.2315   23.3602 H   0  0  0  0  0  0
  -21.6661  -26.7449   22.1214 H   0  0  0  0  0  0
  -19.6916  -25.6298   21.1259 H   0  0  0  0  0  0
  -19.6692  -27.3189   20.6730 H   0  0  0  0  0  0
  -17.4196  -26.6687   21.4037 H   0  0  0  0  0  0
  -18.0344  -26.0088   22.9036 H   0  0  0  0  0  0
  -19.7938  -30.7281   24.2301 H   0  0  0  0  0  0
  -17.5015  -31.6276   24.5160 H   0  0  0  0  0  0
  -15.5367  -30.3006   23.7621 H   0  0  0  0  0  0
  -15.8684  -28.0822   22.7081 H   0  0  0  0  0  0
  -24.5877  -30.7066   25.7706 H   0  0  0  0  0  0
  -24.8841  -32.2878   26.4804 H   0  0  0  0  0  0
  -25.7967  -30.8903   27.0197 H   0  0  0  0  0  0
  -26.2893  -29.6761   24.1177 H   0  0  0  0  0  0
  -27.4019  -29.7257   25.4666 H   0  0  0  0  0  0
  -27.8773  -30.4295   23.9389 H   0  0  0  0  0  0
  -27.2735  -33.3621   26.2016 H   0  0  0  0  0  0
  -28.3894  -32.6776   25.0286 H   0  0  0  0  0  0
  -28.0714  -31.8403   26.5394 H   0  0  0  0  0  0
  -28.2578  -38.0117   24.7561 H   0  0  0  0  0  0
  -28.1115  -36.2657   24.6211 H   0  0  0  0  0  0
  -27.2317  -37.1362   25.8861 H   0  0  0  0  0  0
  -20.9401  -29.8764   21.6851 H   0  0  0  0  0  0
  -26.0170  -38.2852   24.1434 H   0  0  0  0  0  0
  -29.3947  -18.1006   16.7855 H   0  0  0  0  0  0
  -29.6715  -16.1120   18.1416 H   0  0  0  0  0  0
  -29.7462  -18.5819   21.6946 H   0  0  0  0  0  0
  -30.6797  -24.2064   19.2447 H   0  0  0  0  0  0
  -30.8589  -24.7320   20.9054 H   0  0  0  0  0  0
  -30.3992  -21.6730   22.2010 H   0  0  0  0  0  0
  -31.3937  -20.6204   21.2204 H   0  0  0  0  0  0
  -28.8597  -23.7213   21.5946 H   0  0  0  0  0  0
  -29.6236  -20.3626   16.4308 H   0  0  0  0  0  0
  -30.0024  -21.4884   17.7104 H   0  0  0  0  0  0
  -28.3115  -21.0679   17.3635 H   0  0  0  0  0  0
  -27.0816  -24.6323   20.2584 H   0  0  0  0  0  0
  -28.0698  -24.7796   18.8336 H   0  0  0  0  0  0
  -29.0587  -15.6457   21.3472 H   0  0  0  0  0  0
  1 25  1  0  0  0
  1 30  2  0  0  0
  1 85  1  0  0  0
  2  3  1  0  0  0
  2 25  1  0  0  0
  2 88  1  0  0  0
  2 89  1  0  0  0
  3  4  1  0  0  0
  3 90  1  0  0  0
  3 91  1  0  0  0
  4  5  1  0  0  0
  4 92  1  0  0  0
  4 93  1  0  0  0
  5  6  1  0  0  0
  5 26  1  0  0  0
  5 94  1  0  0  0
  6 25  1  0  0  0
  6 95  1  0  0  0
  6 96  1  0  0  0
  7  8  2  0  0  0
  7 26  1  0  0  0
  7 29  1  0  0  0
  8  9  1  0  0  0
  8 22  1  0  0  0
  9 10  1  0  0  0
  9 27  2  0  0  0
 10 11  2  0  0  0
 10 15  1  0  0  0
 11 12  1  0  0  0
 11 97  1  0  0  0
 12 13  2  0  0  0
 12 98  1  0  0  0
 13 14  1  0  0  0
 13 31  1  0  0  0
 14 15  2  0  0  0
 14 99  1  0  0  0
 15100  1  0  0  0
 16 17  2  0  0  0
 16 21  1  0  0  0
 16 31  1  0  0  0
 17 18  1  0  0  0
 17101  1  0  0  0
 18 19  2  0  0  0
 18102  1  0  0  0
 19 20  1  0  0  0
 19 24  1  0  0  0
 20 21  2  0  0  0
 20103  1  0  0  0
 21 23  1  0  0  0
 22 28  1  0  0  0
 22 32  2  0  0  0
 26 27  1  0  0  0
 28104  1  0  0  0
 28105  1  0  0  0
 29106  1  0  0  0
 29107  1  0  0  0
 33 34  1  0  0  0
 33 66  1  0  0  0
 33 70  2  0  0  0
 34 36  1  0  0  0
 34 59  1  0  0  0
 34108  1  0  0  0
 35 44  2  0  0  0
 35 45  1  0  0  0
 35 68  1  0  0  0
 36 56  1  0  0  0
 36109  1  0  0  0
 37 39  1  0  0  0
 37 47  1  0  0  0
 37 66  1  0  0  0
 37110  1  0  0  0
 38 43  2  0  0  0
 38 46  1  0  0  0
 38 47  1  0  0  0
 39 64  1  0  0  0
 39 67  2  0  0  0
 40 52  1  0  0  0
 40 53  2  0  0  0
 40 58  1  0  0  0
 41111  1  0  0  0
 41112  1  0  0  0
 41113  1  0  0  0
 41 48  1  0  0  0
 42 43  1  0  0  0
 42 66  1  0  0  0
 42114  1  0  0  0
 42115  1  0  0  0
 43 44  1  0  0  0
 44116  1  0  0  0
 45 46  2  0  0  0
 45117  1  0  0  0
 46118  1  0  0  0
 47119  1  0  0  0
 47120  1  0  0  0
 48 56  1  0  0  0
 48 65  1  0  0  0
 48121  1  0  0  0
 49 50  1  0  0  0
 49 53  1  0  0  0
 49 64  1  0  0  0
 49122  1  0  0  0
 50 51  1  0  0  0
 50123  1  0  0  0
 50124  1  0  0  0
 51 52  1  0  0  0
 51125  1  0  0  0
 51126  1  0  0  0
 52127  1  0  0  0
 52128  1  0  0  0
 53 54  1  0  0  0
 54 55  2  0  0  0
 54129  1  0  0  0
 55 57  1  0  0  0
 55130  1  0  0  0
 56 69  2  0  0  0
 57 58  2  0  0  0
 57131  1  0  0  0
 58132  1  0  0  0
 59 60  1  0  0  0
 59 61  1  0  0  0
 59 62  1  0  0  0
 60133  1  0  0  0
 60134  1  0  0  0
 60135  1  0  0  0
 61136  1  0  0  0
 61137  1  0  0  0
 61138  1  0  0  0
 62139  1  0  0  0
 62140  1  0  0  0
 62141  1  0  0  0
 63 65  1  0  0  0
 63142  1  0  0  0
 63143  1  0  0  0
 63144  1  0  0  0
 64145  1  0  0  0
 65146  1  0  0  0
 68 83  1  0  0  0
 71 72  2  0  0  0
 71 74  1  0  0  0
 71147  1  0  0  0
 72 76  1  0  0  0
 72148  1  0  0  0
 73 75  1  0  0  0
 73 76  2  0  0  0
 73149  1  0  0  0
 74 75  2  0  0  0
 74 82  1  0  0  0
 75 84  1  0  0  0
 76 85  1  0  0  0
 77 79  1  0  0  0
 77 80  1  0  0  0
 77 86  2  0  0  0
 78 81  1  0  0  0
 78 84  1  0  0  0
 78 87  2  0  0  0
 79 81  1  0  0  0
 79150  1  0  0  0
 79151  1  0  0  0
 80 84  1  0  0  0
 80152  1  0  0  0
 80153  1  0  0  0
 81 83  1  0  0  0
 81154  1  0  0  0
 82155  1  0  0  0
 82156  1  0  0  0
 82157  1  0  0  0
 83158  1  0  0  0
 83159  1  0  0  0
 85160  1  0  0  0
M  ISO  4   1 100  68 101  83 101  85 100
M  END
> <chiral flag>
0

> <version>
0

> <s_m_source_file>
/data/baiqing/PycharmProjects/Reinvent-master-3.2/result/LINK_invent/BTK/process_docking_weight1_custom_product_contain_oxygen_bond_distance_aromatic_linkinvent_7_9_3/rearranged_h_0059.sdf

> <i_m_source_file_index>
28

> <r_mmod_Potential_Energy-OPLS-2005>
204.162704467773

> <r_mmod_Stretch_Energy-OPLS-2005>
139.313552856445

> <r_mmod_Bend_Energy-OPLS-2005>
161.924102783203

> <r_mmod_Torsional_Energy-OPLS-2005>
321.046691894531

> <r_mmod_Improper_Torsional_Energy-OPLS-2005>
5.84412908554077

> <r_mmod_Van_der_Waal_Energy-OPLS-2005>
159.093490600586

> <r_mmod_Electrostatic_Energy-OPLS-2005>
-424.966796875

> <r_mmod_Solvation_Energy-OPLS-2005>
-242.605819702148

> <b_mmod_Minimization_Converged-OPLS-2005>
0

> <r_mmod_RMS_Derivative-OPLS-2005>
3.17448282241821

$$$$
28
                    3D
 Structure written by MMmdl.
154162  0  0  1  0            999 V2000
  -30.6794  -14.4966   20.5251 C   0  0  0  0  0  0
  -30.4145  -12.3115   19.4238 C   0  0  0  0  0  0
  -29.4890  -12.5091   18.2049 C   0  0  0  0  0  0
  -28.0108  -12.3691   18.6163 C   0  0  0  0  0  0
  -27.6549  -13.2100   19.8723 C   0  0  2  0  0  0
  -28.6987  -13.0099   20.9953 C   0  0  0  0  0  0
  -25.2559  -13.8172   20.5710 C   0  0  0  0  0  0
  -24.1811  -13.0448   20.9196 C   0  0  0  0  0  0
  -24.6353  -11.6913   20.8730 C   0  0  0  0  0  0
  -23.9036  -10.4290   21.0391 C   0  0  0  0  0  0
  -24.3607   -9.4208   21.9166 C   0  0  0  0  0  0
  -23.6292   -8.2247   22.0750 C   0  0  0  0  0  0
  -22.4274   -8.0283   21.3543 C   0  0  0  0  0  0
  -21.9886   -9.0249   20.4665 C   0  0  0  0  0  0
  -22.7202  -10.2126   20.3057 C   0  0  0  0  0  0
  -21.6852   -6.0726   22.5284 C   0  0  0  0  0  0
  -21.4012   -6.5632   23.8212 C   0  0  0  0  0  0
  -21.3667   -5.6790   24.9180 C   0  0  0  0  0  0
  -21.6047   -4.3061   24.7229 C   0  0  0  0  0  0
  -21.8819   -3.8138   23.4351 C   0  0  0  0  0  0
  -21.9186   -4.6954   22.3401 C   0  0  0  0  0  0
  -22.7837  -13.5251   21.1861 C   0  0  0  0  0  0
  -22.1660   -4.2136   21.0981 F   0  0  0  0  0  0
  -21.5628   -3.4534   25.7737 F   0  0  0  0  0  0
  -30.0288  -13.3048   20.4401 N   0  0  0  0  0  0
  -26.2985  -12.9337   20.3380 N   0  0  0  0  0  0
  -25.9284  -11.6484   20.5765 N   0  0  0  0  0  0
  -22.0476  -12.8251   22.0432 N   0  0  0  0  0  0
  -25.4284  -15.1889   20.4113 N   0  0  0  0  0  0
  -31.8316  -14.6573   20.1125 O   0  0  0  0  0  0
  -21.6648   -6.8874   21.4252 O   0  0  0  0  0  0
  -22.3529  -14.5554   20.6710 O   0  0  0  0  0  0
  -24.6128  -31.8681   23.2096 C   0  0  0  0  0  0
  -25.9027  -32.4834   23.8394 C   0  0  1  0  0  0
  -27.2436  -27.4352   20.1096 C   0  0  0  0  0  0
  -25.5887  -33.8635   24.2330 N   0  0  0  0  0  0
  -23.4033  -30.4915   21.5481 C   0  0  2  0  0  0
  -24.8535  -28.9522   20.1199 C   0  0  0  0  0  0
  -22.7388  -29.4685   22.4979 C   0  0  0  0  0  0
  -18.0263  -28.1408   22.8500 C   0  0  0  0  0  0
  -24.1475  -36.7292   23.2645 C   0  0  0  0  0  0
  -25.9307  -30.8365   21.3632 C   0  0  0  0  0  0
  -26.0131  -29.4696   20.7135 C   0  0  0  0  0  0
  -27.2141  -28.7204   20.7023 C   0  0  0  0  0  0
  -26.0682  -26.9284   19.5173 C   0  0  0  0  0  0
  -24.8760  -27.6800   19.5205 C   0  0  0  0  0  0
  -23.6140  -29.8194   20.1651 C   0  0  0  0  0  0
  -25.4102  -36.3121   24.0345 C   0  0  1  0  0  0
  -20.5849  -28.3697   23.1316 C   0  0  2  0  0  0
  -20.6766  -26.9433   22.5430 C   0  0  0  0  0  0
  -19.5743  -26.6400   21.5232 C   0  0  0  0  0  0
  -18.1917  -26.7947   22.1635 C   0  0  0  0  0  0
  -19.1518  -28.8863   23.2912 C   0  0  0  0  0  0
  -18.9454  -30.1460   23.8932 C   0  0  0  0  0  0
  -17.6466  -30.6620   24.0581 C   0  0  0  0  0  0
  -25.9023  -34.9490   23.5135 C   0  0  0  0  0  0
  -16.5350  -29.9129   23.6341 C   0  0  0  0  0  0
  -16.7254  -28.6543   23.0366 C   0  0  0  0  0  0
  -26.4465  -31.6618   25.0721 C   0  0  0  0  0  0
  -25.3719  -31.3739   26.1461 C   0  0  0  0  0  0
  -27.0314  -30.3061   24.6115 C   0  0  0  0  0  0
  -27.6042  -32.4340   25.7478 C   0  0  0  0  0  0
  -27.5579  -37.1807   24.8474 C   0  0  0  0  0  0
  -21.4112  -29.3061   22.3706 N   0  0  0  0  0  0
  -26.4295  -37.3803   23.9415 N   0  0  0  0  0  0
  -24.6672  -31.0780   22.0992 N   0  0  0  0  0  0
  -23.4147  -28.8238   23.3045 O   0  0  0  0  0  0
  -28.4017  -26.6887   20.0747 O   0  0  0  0  0  0
  -26.5604  -34.8946   22.4707 O   0  0  0  0  0  0
  -23.5320  -32.1454   23.7487 O   0  0  0  0  0  0
  -29.5737  -19.1200   23.4135 C   0  0  0  0  0  0
  -29.7889  -17.9843   22.6088 C   0  0  0  0  0  0
  -29.3654  -20.3877   22.8318 C   0  0  0  0  0  0
  -29.5863  -19.3918   20.6287 C   0  0  0  0  0  0
  -29.7988  -18.1102   21.2046 C   0  0  0  0  0  0
  -29.3764  -20.5491   21.4247 C   0  0  0  0  0  0
  -29.2053  -23.0768   21.2590 C   0  0  0  0  0  0
  -30.1092  -16.9152   20.2936 C   0  0  0  0  0  0
  -28.9037  -24.2409   20.2826 C   0  0  0  0  0  0
  -28.4443  -25.5606   20.9709 C   0  0  0  0  0  0
  -29.1679  -21.8145   20.7668 N   0  0  0  0  0  0
  -29.8996  -15.5552   20.8314 N   0  0  0  0  0  0
  -29.4969  -23.3378   22.4284 O   0  0  0  0  0  0
  -31.4588  -12.4064   19.1200 H   0  0  0  0  0  0
  -30.3086  -11.3033   19.8249 H   0  0  0  0  0  0
  -29.7291  -11.7845   17.4265 H   0  0  0  0  0  0
  -29.6600  -13.4953   17.7669 H   0  0  0  0  0  0
  -27.8199  -11.3138   18.8107 H   0  0  0  0  0  0
  -27.3610  -12.6456   17.7852 H   0  0  0  0  0  0
  -27.6937  -14.2558   19.5698 H   0  0  0  0  0  0
  -28.6731  -11.9838   21.3631 H   0  0  0  0  0  0
  -28.4678  -13.6360   21.8575 H   0  0  0  0  0  0
  -25.2754   -9.5695   22.4748 H   0  0  0  0  0  0
  -24.0007   -7.4635   22.7460 H   0  0  0  0  0  0
  -21.0818   -8.8764   19.8979 H   0  0  0  0  0  0
  -22.3647  -10.9676   19.6179 H   0  0  0  0  0  0
  -21.2013   -7.6138   23.9717 H   0  0  0  0  0  0
  -21.1493   -6.0519   25.9088 H   0  0  0  0  0  0
  -22.0589   -2.7592   23.2849 H   0  0  0  0  0  0
  -22.4075  -11.9905   22.4830 H   0  0  0  0  0  0
  -21.1100  -13.1307   22.2653 H   0  0  0  0  0  0
  -24.6662  -15.8484   20.5303 H   0  0  0  0  0  0
  -26.2778  -15.6278   20.0805 H   0  0  0  0  0  0
  -26.7110  -32.5556   23.1173 H   0  0  0  0  0  0
  -25.0047  -33.9804   25.0485 H   0  0  0  0  0  0
  -22.6925  -31.3084   21.4058 H   0  0  0  0  0  0
  -23.3750  -35.9614   23.3332 H   0  0  0  0  0  0
  -24.3568  -36.8866   22.2053 H   0  0  0  0  0  0
  -23.7206  -37.6497   23.6635 H   0  0  0  0  0  0
  -26.0446  -31.6042   20.5969 H   0  0  0  0  0  0
  -26.8152  -30.8874   21.9854 H   0  0  0  0  0  0
  -28.1120  -29.1204   21.1543 H   0  0  0  0  0  0
  -26.0784  -25.9529   19.0515 H   0  0  0  0  0  0
  -23.9849  -27.2712   19.0633 H   0  0  0  0  0  0
  -23.7252  -30.5936   19.4046 H   0  0  0  0  0  0
  -22.7361  -29.2412   19.8698 H   0  0  0  0  0  0
  -25.1279  -36.2000   25.0842 H   0  0  0  0  0  0
  -20.9953  -28.3304   24.1431 H   0  0  0  0  0  0
  -20.5685  -26.2322   23.3637 H   0  0  0  0  0  0
  -21.6640  -26.7511   22.1217 H   0  0  0  0  0  0
  -19.6923  -25.6310   21.1278 H   0  0  0  0  0  0
  -19.6686  -27.3197   20.6754 H   0  0  0  0  0  0
  -17.4187  -26.6693   21.4036 H   0  0  0  0  0  0
  -18.0327  -26.0096   22.9036 H   0  0  0  0  0  0
  -19.7933  -30.7254   24.2326 H   0  0  0  0  0  0
  -17.5039  -31.6305   24.5170 H   0  0  0  0  0  0
  -15.5363  -30.3070   23.7638 H   0  0  0  0  0  0
  -15.8650  -28.0882   22.7089 H   0  0  0  0  0  0
  -24.5874  -30.7119   25.7787 H   0  0  0  0  0  0
  -24.8932  -32.2904   26.4920 H   0  0  0  0  0  0
  -25.8041  -30.8887   27.0218 H   0  0  0  0  0  0
  -26.2897  -29.6815   24.1123 H   0  0  0  0  0  0
  -27.4038  -29.7313   25.4605 H   0  0  0  0  0  0
  -27.8743  -30.4383   23.9324 H   0  0  0  0  0  0
  -27.2670  -33.3633   26.2095 H   0  0  0  0  0  0
  -28.3832  -32.6914   25.0283 H   0  0  0  0  0  0
  -28.0743  -31.8438   26.5359 H   0  0  0  0  0  0
  -28.2620  -38.0083   24.7518 H   0  0  0  0  0  0
  -28.1048  -36.2617   24.6304 H   0  0  0  0  0  0
  -27.2299  -37.1467   25.8880 H   0  0  0  0  0  0
  -20.9271  -29.8761   21.6900 H   0  0  0  0  0  0
  -26.0179  -38.2882   24.1426 H   0  0  0  0  0  0
  -29.5738  -19.0215   24.4894 H   0  0  0  0  0  0
  -29.9656  -17.0288   23.0817 H   0  0  0  0  0  0
  -29.1928  -21.2201   23.4978 H   0  0  0  0  0  0
  -29.6021  -19.4892   19.5516 H   0  0  0  0  0  0
  -29.4949  -17.0017   19.3973 H   0  0  0  0  0  0
  -31.1389  -17.0451   19.9569 H   0  0  0  0  0  0
  -28.1479  -23.9185   19.5644 H   0  0  0  0  0  0
  -29.8148  -24.4313   19.7163 H   0  0  0  0  0  0
  -29.1418  -25.8267   21.7673 H   0  0  0  0  0  0
  -27.4843  -25.3950   21.4623 H   0  0  0  0  0  0
  -28.9973  -21.7595   19.7718 H   0  0  0  0  0  0
  -28.9682  -15.3353   21.1490 H   0  0  0  0  0  0
  1 25  1  0  0  0
  1 30  2  0  0  0
  1 82  1  0  0  0
  2  3  1  0  0  0
  2 25  1  0  0  0
  2 84  1  0  0  0
  2 85  1  0  0  0
  3  4  1  0  0  0
  3 86  1  0  0  0
  3 87  1  0  0  0
  4  5  1  0  0  0
  4 88  1  0  0  0
  4 89  1  0  0  0
  5  6  1  0  0  0
  5 26  1  0  0  0
  5 90  1  0  0  0
  6 25  1  0  0  0
  6 91  1  0  0  0
  6 92  1  0  0  0
  7  8  2  0  0  0
  7 26  1  0  0  0
  7 29  1  0  0  0
  8  9  1  0  0  0
  8 22  1  0  0  0
  9 10  1  0  0  0
  9 27  2  0  0  0
 10 11  2  0  0  0
 10 15  1  0  0  0
 11 12  1  0  0  0
 11 93  1  0  0  0
 12 13  2  0  0  0
 12 94  1  0  0  0
 13 14  1  0  0  0
 13 31  1  0  0  0
 14 15  2  0  0  0
 14 95  1  0  0  0
 15 96  1  0  0  0
 16 17  2  0  0  0
 16 21  1  0  0  0
 16 31  1  0  0  0
 17 18  1  0  0  0
 17 97  1  0  0  0
 18 19  2  0  0  0
 18 98  1  0  0  0
 19 20  1  0  0  0
 19 24  1  0  0  0
 20 21  2  0  0  0
 20 99  1  0  0  0
 21 23  1  0  0  0
 22 28  1  0  0  0
 22 32  2  0  0  0
 26 27  1  0  0  0
 28100  1  0  0  0
 28101  1  0  0  0
 29102  1  0  0  0
 29103  1  0  0  0
 33 34  1  0  0  0
 33 66  1  0  0  0
 33 70  2  0  0  0
 34 36  1  0  0  0
 34 59  1  0  0  0
 34104  1  0  0  0
 35 44  2  0  0  0
 35 45  1  0  0  0
 35 68  1  0  0  0
 36 56  1  0  0  0
 36105  1  0  0  0
 37 39  1  0  0  0
 37 47  1  0  0  0
 37 66  1  0  0  0
 37106  1  0  0  0
 38 43  2  0  0  0
 38 46  1  0  0  0
 38 47  1  0  0  0
 39 64  1  0  0  0
 39 67  2  0  0  0
 40 52  1  0  0  0
 40 53  2  0  0  0
 40 58  1  0  0  0
 41107  1  0  0  0
 41108  1  0  0  0
 41109  1  0  0  0
 41 48  1  0  0  0
 42 43  1  0  0  0
 42 66  1  0  0  0
 42110  1  0  0  0
 42111  1  0  0  0
 43 44  1  0  0  0
 44112  1  0  0  0
 45 46  2  0  0  0
 45113  1  0  0  0
 46114  1  0  0  0
 47115  1  0  0  0
 47116  1  0  0  0
 48 56  1  0  0  0
 48 65  1  0  0  0
 48117  1  0  0  0
 49 50  1  0  0  0
 49 53  1  0  0  0
 49 64  1  0  0  0
 49118  1  0  0  0
 50 51  1  0  0  0
 50119  1  0  0  0
 50120  1  0  0  0
 51 52  1  0  0  0
 51121  1  0  0  0
 51122  1  0  0  0
 52123  1  0  0  0
 52124  1  0  0  0
 53 54  1  0  0  0
 54 55  2  0  0  0
 54125  1  0  0  0
 55 57  1  0  0  0
 55126  1  0  0  0
 56 69  2  0  0  0
 57 58  2  0  0  0
 57127  1  0  0  0
 58128  1  0  0  0
 59 60  1  0  0  0
 59 61  1  0  0  0
 59 62  1  0  0  0
 60129  1  0  0  0
 60130  1  0  0  0
 60131  1  0  0  0
 61132  1  0  0  0
 61133  1  0  0  0
 61134  1  0  0  0
 62135  1  0  0  0
 62136  1  0  0  0
 62137  1  0  0  0
 63 65  1  0  0  0
 63138  1  0  0  0
 63139  1  0  0  0
 63140  1  0  0  0
 64141  1  0  0  0
 65142  1  0  0  0
 68 80  1  0  0  0
 71 72  2  0  0  0
 71 73  1  0  0  0
 71143  1  0  0  0
 72 75  1  0  0  0
 72144  1  0  0  0
 73 76  2  0  0  0
 73145  1  0  0  0
 74 75  2  0  0  0
 74 76  1  0  0  0
 74146  1  0  0  0
 75 78  1  0  0  0
 76 81  1  0  0  0
 77 79  1  0  0  0
 77 81  1  0  0  0
 77 83  2  0  0  0
 78 82  1  0  0  0
 78147  1  0  0  0
 78148  1  0  0  0
 79 80  1  0  0  0
 79149  1  0  0  0
 79150  1  0  0  0
 80151  1  0  0  0
 80152  1  0  0  0
 81153  1  0  0  0
 82154  1  0  0  0
M  ISO  4   1 100  68 101  80 101  82 100
M  END
> <chiral flag>
0

> <version>
0

> <s_m_source_file>
/data/baiqing/PycharmProjects/Reinvent-master-3.2/result/LINK_invent/BTK/process_docking_weight1_custom_product_contain_oxygen_bond_distance_aromatic_linkinvent_7_9_3/rearranged_h_0059.sdf

> <i_m_source_file_index>
29

> <r_mmod_Potential_Energy-OPLS-2005>
-126.76969909668

> <r_mmod_Stretch_Energy-OPLS-2005>
40.9646186828613

> <r_mmod_Bend_Energy-OPLS-2005>
98.7053756713867

> <r_mmod_Torsional_Energy-OPLS-2005>
239.006896972656

> <r_mmod_Improper_Torsional_Energy-OPLS-2005>
8.02659702301025

> <r_mmod_Van_der_Waal_Energy-OPLS-2005>
153.695785522461

> <r_mmod_Electrostatic_Energy-OPLS-2005>
-448.201568603516

> <r_mmod_Solvation_Energy-OPLS-2005>
-233.515167236328

> <b_mmod_Minimization_Converged-OPLS-2005>
0

> <r_mmod_RMS_Derivative-OPLS-2005>
3.03182721138

$$$$
29
                    3D
 Structure written by MMmdl.
163172  0  0  1  0            999 V2000
  -30.5714  -14.5929   20.5835 C   0  0  0  0  0  0
  -30.4512  -12.3884   19.4154 C   0  0  0  0  0  0
  -29.5069  -12.5610   18.2018 C   0  0  0  0  0  0
  -28.0226  -12.3976   18.6007 C   0  0  0  0  0  0
  -27.6608  -13.2011   19.8749 C   0  0  2  0  0  0
  -28.7062  -12.9449   20.9823 C   0  0  0  0  0  0
  -25.2599  -13.8110   20.5673 C   0  0  0  0  0  0
  -24.1852  -13.0402   20.9163 C   0  0  0  0  0  0
  -24.6392  -11.6872   20.8701 C   0  0  0  0  0  0
  -23.9052  -10.4267   21.0383 C   0  0  0  0  0  0
  -24.3615   -9.4195   21.9175 C   0  0  0  0  0  0
  -23.6298   -8.2230   22.0757 C   0  0  0  0  0  0
  -22.4283   -8.0257   21.3542 C   0  0  0  0  0  0
  -21.9908   -9.0222   20.4641 C   0  0  0  0  0  0
  -22.7225  -10.2102   20.3032 C   0  0  0  0  0  0
  -21.6843   -6.0730   22.5277 C   0  0  0  0  0  0
  -21.4016   -6.5642   23.8207 C   0  0  0  0  0  0
  -21.3684   -5.6805   24.9171 C   0  0  0  0  0  0
  -21.6040   -4.3067   24.7220 C   0  0  0  0  0  0
  -21.8816   -3.8147   23.4348 C   0  0  0  0  0  0
  -21.9183   -4.6957   22.3398 C   0  0  0  0  0  0
  -22.7873  -13.5207   21.1845 C   0  0  0  0  0  0
  -22.1654   -4.2144   21.0973 F   0  0  0  0  0  0
  -21.5640   -3.4551   25.7737 F   0  0  0  0  0  0
  -30.0234  -13.3457   20.4488 N   0  0  0  0  0  0
  -26.3018  -12.9267   20.3321 N   0  0  0  0  0  0
  -25.9317  -11.6430   20.5699 N   0  0  0  0  0  0
  -22.0540  -12.8188   22.0392 N   0  0  0  0  0  0
  -25.4322  -15.1843   20.4124 N   0  0  0  0  0  0
  -31.6983  -14.8759   20.1613 O   0  0  0  0  0  0
  -21.6640   -6.8875   21.4237 O   0  0  0  0  0  0
  -22.3559  -14.5525   20.6721 O   0  0  0  0  0  0
  -24.6222  -31.8601   23.2012 C   0  0  0  0  0  0
  -25.9123  -32.4753   23.8318 C   0  0  1  0  0  0
  -27.2436  -27.3737   20.1203 C   0  0  0  0  0  0
  -25.6006  -33.8549   24.2280 N   0  0  0  0  0  0
  -23.4118  -30.4834   21.5406 C   0  0  2  0  0  0
  -24.8593  -28.9264   20.1224 C   0  0  0  0  0  0
  -22.7409  -29.4682   22.4932 C   0  0  0  0  0  0
  -18.0285  -28.1401   22.8510 C   0  0  0  0  0  0
  -24.1477  -36.7207   23.2637 C   0  0  0  0  0  0
  -25.9427  -30.8107   21.3577 C   0  0  0  0  0  0
  -26.0215  -29.4350   20.7160 C   0  0  0  0  0  0
  -27.2176  -28.6710   20.7024 C   0  0  0  0  0  0
  -26.0645  -26.8896   19.5188 C   0  0  0  0  0  0
  -24.8792  -27.6552   19.5179 C   0  0  0  0  0  0
  -23.6211  -29.7999   20.1623 C   0  0  0  0  0  0
  -25.4106  -36.3026   24.0328 C   0  0  1  0  0  0
  -20.5883  -28.3713   23.1290 C   0  0  2  0  0  0
  -20.6775  -26.9439   22.5420 C   0  0  0  0  0  0
  -19.5757  -26.6415   21.5216 C   0  0  0  0  0  0
  -18.1932  -26.7959   22.1616 C   0  0  0  0  0  0
  -19.1543  -28.8863   23.2917 C   0  0  0  0  0  0
  -18.9468  -30.1462   23.8927 C   0  0  0  0  0  0
  -17.6480  -30.6597   24.0596 C   0  0  0  0  0  0
  -25.9056  -34.9426   23.5082 C   0  0  0  0  0  0
  -16.5363  -29.9109   23.6360 C   0  0  0  0  0  0
  -16.7276  -28.6532   23.0362 C   0  0  0  0  0  0
  -26.4532  -31.6519   25.0653 C   0  0  0  0  0  0
  -25.3794  -31.3637   26.1389 C   0  0  0  0  0  0
  -27.0340  -30.2945   24.6018 C   0  0  0  0  0  0
  -27.6093  -32.4206   25.7457 C   0  0  0  0  0  0
  -27.5551  -37.1745   24.8492 C   0  0  0  0  0  0
  -21.4138  -29.3080   22.3655 N   0  0  0  0  0  0
  -26.4262  -37.3747   23.9438 N   0  0  0  0  0  0
  -24.6775  -31.0692   22.0911 N   0  0  0  0  0  0
  -23.4154  -28.8252   23.3021 O   0  0  0  0  0  0
  -28.4103  -26.6232   20.0515 O   0  0  0  0  0  0
  -26.5583  -34.8923   22.4624 O   0  0  0  0  0  0
  -23.5411  -32.1370   23.7402 O   0  0  0  0  0  0
  -29.0034  -19.5630   22.2533 C   0  0  0  0  0  0
  -28.4291  -18.4801   22.9296 C   0  0  0  0  0  0
  -30.1737  -18.0048   20.7669 C   0  0  0  0  0  0
  -29.8695  -19.3557   21.1633 C   0  0  0  0  0  0
  -28.7053  -17.1581   22.5281 C   0  0  0  0  0  0
  -29.5907  -16.8855   21.4506 C   0  0  0  0  0  0
  -29.3200  -21.5894   18.6405 C   0  0  0  0  0  0
  -29.2649  -22.8100   20.6959 C   0  0  0  0  0  0
  -28.5822  -22.7201   17.9046 C   0  0  0  0  0  0
  -28.7505  -24.0884   18.5767 C   0  0  0  0  0  0
  -28.4206  -23.9871   20.0667 C   0  0  2  0  0  0
  -28.0205  -16.0369   23.2932 C   0  0  0  0  0  0
  -30.5158  -20.6144   20.5287 C   0  0  0  0  0  0
  -28.5171  -25.3812   20.8149 C   0  0  0  0  0  0
  -29.6267  -21.6985   19.9630 N   0  0  0  0  0  0
  -29.6769  -15.4818   21.0957 N   0  0  0  0  0  0
  -29.6222  -20.5983   17.9656 O   0  0  0  0  0  0
  -29.5924  -22.9175   21.8839 O   0  0  0  0  0  0
  -31.4913  -12.5470   19.1245 H   0  0  0  0  0  0
  -30.3969  -11.3691   19.8008 H   0  0  0  0  0  0
  -29.7664  -11.8541   17.4130 H   0  0  0  0  0  0
  -29.6529  -13.5557   17.7753 H   0  0  0  0  0  0
  -27.8252  -11.3368   18.7592 H   0  0  0  0  0  0
  -27.3806  -12.7066   17.7753 H   0  0  0  0  0  0
  -27.7032  -14.2541   19.5982 H   0  0  0  0  0  0
  -28.7216  -11.8856   21.2453 H   0  0  0  0  0  0
  -28.4425  -13.4541   21.9092 H   0  0  0  0  0  0
  -25.2761   -9.5675   22.4755 H   0  0  0  0  0  0
  -24.0001   -7.4626   22.7492 H   0  0  0  0  0  0
  -21.0840   -8.8723   19.8967 H   0  0  0  0  0  0
  -22.3676  -10.9633   19.6136 H   0  0  0  0  0  0
  -21.2023   -7.6157   23.9709 H   0  0  0  0  0  0
  -21.1522   -6.0542   25.9080 H   0  0  0  0  0  0
  -22.0578   -2.7608   23.2838 H   0  0  0  0  0  0
  -22.4158  -11.9792   22.4697 H   0  0  0  0  0  0
  -21.1157  -13.1186   22.2662 H   0  0  0  0  0  0
  -24.6705  -15.8396   20.5527 H   0  0  0  0  0  0
  -26.2791  -15.6302   20.0820 H   0  0  0  0  0  0
  -26.7187  -32.5459   23.1070 H   0  0  0  0  0  0
  -25.0320  -33.9684   25.0535 H   0  0  0  0  0  0
  -22.7084  -31.3052   21.3940 H   0  0  0  0  0  0
  -23.3751  -35.9532   23.3309 H   0  0  0  0  0  0
  -24.3558  -36.8786   22.2048 H   0  0  0  0  0  0
  -23.7218  -37.6411   23.6627 H   0  0  0  0  0  0
  -26.0581  -31.5678   20.5803 H   0  0  0  0  0  0
  -26.8289  -30.8692   21.9777 H   0  0  0  0  0  0
  -28.1189  -29.0700   21.1454 H   0  0  0  0  0  0
  -26.0683  -25.9236   19.0349 H   0  0  0  0  0  0
  -23.9905  -27.2603   19.0487 H   0  0  0  0  0  0
  -23.7300  -30.5653   19.3939 H   0  0  0  0  0  0
  -22.7447  -29.2172   19.8738 H   0  0  0  0  0  0
  -25.1275  -36.1841   25.0812 H   0  0  0  0  0  0
  -21.0024  -28.3318   24.1390 H   0  0  0  0  0  0
  -20.5685  -26.2326   23.3619 H   0  0  0  0  0  0
  -21.6647  -26.7471   22.1217 H   0  0  0  0  0  0
  -19.6932  -25.6338   21.1218 H   0  0  0  0  0  0
  -19.6705  -27.3248   20.6772 H   0  0  0  0  0  0
  -17.4216  -26.6762   21.3986 H   0  0  0  0  0  0
  -18.0312  -26.0056   22.8969 H   0  0  0  0  0  0
  -19.7950  -30.7292   24.2276 H   0  0  0  0  0  0
  -17.5036  -31.6274   24.5211 H   0  0  0  0  0  0
  -15.5370  -30.3024   23.7664 H   0  0  0  0  0  0
  -15.8676  -28.0864   22.7045 H   0  0  0  0  0  0
  -24.6108  -30.6787   25.7767 H   0  0  0  0  0  0
  -24.8839  -32.2787   26.4651 H   0  0  0  0  0  0
  -25.8195  -30.9016   27.0240 H   0  0  0  0  0  0
  -26.2841  -29.6680   24.1157 H   0  0  0  0  0  0
  -27.4201  -29.7191   25.4445 H   0  0  0  0  0  0
  -27.8651  -30.4206   23.9061 H   0  0  0  0  0  0
  -27.2737  -33.3581   26.1901 H   0  0  0  0  0  0
  -28.4026  -32.6595   25.0353 H   0  0  0  0  0  0
  -28.0601  -31.8370   26.5497 H   0  0  0  0  0  0
  -28.2584  -38.0024   24.7516 H   0  0  0  0  0  0
  -28.1012  -36.2550   24.6322 H   0  0  0  0  0  0
  -27.2266  -37.1396   25.8898 H   0  0  0  0  0  0
  -20.9271  -29.8746   21.6839 H   0  0  0  0  0  0
  -26.0107  -38.2793   24.1496 H   0  0  0  0  0  0
  -28.7861  -20.5638   22.5950 H   0  0  0  0  0  0
  -27.7698  -18.6750   23.7664 H   0  0  0  0  0  0
  -30.8369  -17.8334   19.9316 H   0  0  0  0  0  0
  -27.5288  -22.4465   17.8642 H   0  0  0  0  0  0
  -28.9313  -22.7685   16.8724 H   0  0  0  0  0  0
  -28.0883  -24.8091   18.0967 H   0  0  0  0  0  0
  -29.7669  -24.4612   18.4432 H   0  0  0  0  0  0
  -27.3791  -23.6667   20.1433 H   0  0  0  0  0  0
  -28.7496  -15.2934   23.6161 H   0  0  0  0  0  0
  -27.2619  -15.5549   22.6750 H   0  0  0  0  0  0
  -27.5286  -16.4090   24.1914 H   0  0  0  0  0  0
  -31.2398  -20.2823   19.7822 H   0  0  0  0  0  0
  -31.1583  -21.0485   21.2970 H   0  0  0  0  0  0
  -29.4910  -25.4455   21.3023 H   0  0  0  0  0  0
  -27.7934  -25.3919   21.6307 H   0  0  0  0  0  0
  -28.8608  -14.9708   21.3955 H   0  0  0  0  0  0
  1 25  1  0  0  0
  1 30  2  0  0  0
  1 86  1  0  0  0
  2  3  1  0  0  0
  2 25  1  0  0  0
  2 89  1  0  0  0
  2 90  1  0  0  0
  3  4  1  0  0  0
  3 91  1  0  0  0
  3 92  1  0  0  0
  4  5  1  0  0  0
  4 93  1  0  0  0
  4 94  1  0  0  0
  5  6  1  0  0  0
  5 26  1  0  0  0
  5 95  1  0  0  0
  6 25  1  0  0  0
  6 96  1  0  0  0
  6 97  1  0  0  0
  7  8  2  0  0  0
  7 26  1  0  0  0
  7 29  1  0  0  0
  8  9  1  0  0  0
  8 22  1  0  0  0
  9 10  1  0  0  0
  9 27  2  0  0  0
 10 11  2  0  0  0
 10 15  1  0  0  0
 11 12  1  0  0  0
 11 98  1  0  0  0
 12 13  2  0  0  0
 12 99  1  0  0  0
 13 14  1  0  0  0
 13 31  1  0  0  0
 14 15  2  0  0  0
 14100  1  0  0  0
 15101  1  0  0  0
 16 17  2  0  0  0
 16 21  1  0  0  0
 16 31  1  0  0  0
 17 18  1  0  0  0
 17102  1  0  0  0
 18 19  2  0  0  0
 18103  1  0  0  0
 19 20  1  0  0  0
 19 24  1  0  0  0
 20 21  2  0  0  0
 20104  1  0  0  0
 21 23  1  0  0  0
 22 28  1  0  0  0
 22 32  2  0  0  0
 26 27  1  0  0  0
 28105  1  0  0  0
 28106  1  0  0  0
 29107  1  0  0  0
 29108  1  0  0  0
 33 34  1  0  0  0
 33 66  1  0  0  0
 33 70  2  0  0  0
 34 36  1  0  0  0
 34 59  1  0  0  0
 34109  1  0  0  0
 35 44  2  0  0  0
 35 45  1  0  0  0
 35 68  1  0  0  0
 36 56  1  0  0  0
 36110  1  0  0  0
 37 39  1  0  0  0
 37 47  1  0  0  0
 37 66  1  0  0  0
 37111  1  0  0  0
 38 43  2  0  0  0
 38 46  1  0  0  0
 38 47  1  0  0  0
 39 64  1  0  0  0
 39 67  2  0  0  0
 40 52  1  0  0  0
 40 53  2  0  0  0
 40 58  1  0  0  0
 41112  1  0  0  0
 41113  1  0  0  0
 41114  1  0  0  0
 41 48  1  0  0  0
 42 43  1  0  0  0
 42 66  1  0  0  0
 42115  1  0  0  0
 42116  1  0  0  0
 43 44  1  0  0  0
 44117  1  0  0  0
 45 46  2  0  0  0
 45118  1  0  0  0
 46119  1  0  0  0
 47120  1  0  0  0
 47121  1  0  0  0
 48 56  1  0  0  0
 48 65  1  0  0  0
 48122  1  0  0  0
 49 50  1  0  0  0
 49 53  1  0  0  0
 49 64  1  0  0  0
 49123  1  0  0  0
 50 51  1  0  0  0
 50124  1  0  0  0
 50125  1  0  0  0
 51 52  1  0  0  0
 51126  1  0  0  0
 51127  1  0  0  0
 52128  1  0  0  0
 52129  1  0  0  0
 53 54  1  0  0  0
 54 55  2  0  0  0
 54130  1  0  0  0
 55 57  1  0  0  0
 55131  1  0  0  0
 56 69  2  0  0  0
 57 58  2  0  0  0
 57132  1  0  0  0
 58133  1  0  0  0
 59 60  1  0  0  0
 59 61  1  0  0  0
 59 62  1  0  0  0
 60134  1  0  0  0
 60135  1  0  0  0
 60136  1  0  0  0
 61137  1  0  0  0
 61138  1  0  0  0
 61139  1  0  0  0
 62140  1  0  0  0
 62141  1  0  0  0
 62142  1  0  0  0
 63 65  1  0  0  0
 63143  1  0  0  0
 63144  1  0  0  0
 63145  1  0  0  0
 64146  1  0  0  0
 65147  1  0  0  0
 68 84  1  0  0  0
 71 72  2  0  0  0
 71 74  1  0  0  0
 71148  1  0  0  0
 72 75  1  0  0  0
 72149  1  0  0  0
 73 74  2  0  0  0
 73 76  1  0  0  0
 73150  1  0  0  0
 74 83  1  0  0  0
 75 76  2  0  0  0
 75 82  1  0  0  0
 76 86  1  0  0  0
 77 79  1  0  0  0
 77 85  1  0  0  0
 77 87  2  0  0  0
 78 81  1  0  0  0
 78 85  1  0  0  0
 78 88  2  0  0  0
 79 80  1  0  0  0
 79151  1  0  0  0
 79152  1  0  0  0
 80 81  1  0  0  0
 80153  1  0  0  0
 80154  1  0  0  0
 81 84  1  0  0  0
 81155  1  0  0  0
 82156  1  0  0  0
 82157  1  0  0  0
 82158  1  0  0  0
 83 85  1  0  0  0
 83159  1  0  0  0
 83160  1  0  0  0
 84161  1  0  0  0
 84162  1  0  0  0
 86163  1  0  0  0
M  ISO  4   1 100  68 101  84 101  86 100
M  END
> <chiral flag>
0

> <version>
0

> <s_m_source_file>
/data/baiqing/PycharmProjects/Reinvent-master-3.2/result/LINK_invent/BTK/process_docking_weight1_custom_product_contain_oxygen_bond_distance_aromatic_linkinvent_7_9_3/rearranged_h_0059.sdf

> <i_m_source_file_index>
30

> <r_mmod_Potential_Energy-OPLS-2005>
-10.5997009277344

> <r_mmod_Stretch_Energy-OPLS-2005>
70.4631042480469

> <r_mmod_Bend_Energy-OPLS-2005>
163.693984985352

> <r_mmod_Torsional_Energy-OPLS-2005>
244.745529174805

> <r_mmod_Improper_Torsional_Energy-OPLS-2005>
4.51943922042847

> <r_mmod_Van_der_Waal_Energy-OPLS-2005>
160.326507568359

> <r_mmod_Electrostatic_Energy-OPLS-2005>
-458.033416748047

> <r_mmod_Solvation_Energy-OPLS-2005>
-228.609710693359

> <b_mmod_Minimization_Converged-OPLS-2005>
0

> <r_mmod_RMS_Derivative-OPLS-2005>
3.6648862361908

$$$$
30
                    3D
 Structure written by MMmdl.
161169  0  0  1  0            999 V2000
  -29.8714  -15.1456   20.6547 C   0  0  0  0  0  0
  -30.4189  -12.8075   19.5794 C   0  0  0  0  0  0
  -29.5411  -12.6165   18.3049 C   0  0  0  0  0  0
  -28.0673  -12.3020   18.6535 C   0  0  0  0  0  0
  -27.5694  -13.1852   19.8189 C   0  0  2  0  0  0
  -28.5298  -13.1141   21.0093 C   0  0  0  0  0  0
  -25.2153  -13.7988   20.5487 C   0  0  0  0  0  0
  -24.1554  -13.0274   20.9232 C   0  0  0  0  0  0
  -24.6121  -11.6755   20.8670 C   0  0  0  0  0  0
  -23.8868  -10.4189   21.0439 C   0  0  0  0  0  0
  -24.3513   -9.4126   21.9187 C   0  0  0  0  0  0
  -23.6227   -8.2144   22.0733 C   0  0  0  0  0  0
  -22.4203   -8.0182   21.3541 C   0  0  0  0  0  0
  -21.9800   -9.0126   20.4641 C   0  0  0  0  0  0
  -22.7079  -10.2022   20.3052 C   0  0  0  0  0  0
  -21.6828   -6.0666   22.5279 C   0  0  0  0  0  0
  -21.3994   -6.5590   23.8199 C   0  0  0  0  0  0
  -21.3646   -5.6766   24.9179 C   0  0  0  0  0  0
  -21.6040   -4.3020   24.7254 C   0  0  0  0  0  0
  -21.8813   -3.8095   23.4375 C   0  0  0  0  0  0
  -21.9170   -4.6899   22.3419 C   0  0  0  0  0  0
  -22.7651  -13.5100   21.2036 C   0  0  0  0  0  0
  -22.1647   -4.2080   21.1001 F   0  0  0  0  0  0
  -21.5645   -3.4507   25.7774 F   0  0  0  0  0  0
  -29.7194  -13.7585   20.5229 N   0  0  0  0  0  0
  -26.2340  -12.9040   20.2699 N   0  0  0  0  0  0
  -25.8919  -11.6257   20.5367 N   0  0  0  0  0  0
  -22.0330  -12.8069   22.0594 N   0  0  0  0  0  0
  -25.3795  -15.1736   20.3981 N   0  0  0  0  0  0
  -31.0306  -15.5151   20.3496 O   0  0  0  0  0  0
  -21.6581   -6.8787   21.4234 O   0  0  0  0  0  0
  -22.3355  -14.5447   20.6951 O   0  0  0  0  0  0
  -24.6688  -31.9674   23.2144 C   0  0  0  0  0  0
  -25.9612  -32.5190   23.8597 C   0  0  1  0  0  0
  -25.2101  -27.2418   20.8432 C   0  0  0  0  0  0
  -25.6460  -33.8908   24.2616 N   0  0  0  0  0  0
  -23.4675  -30.6061   21.5788 C   0  0  2  0  0  0
  -24.8775  -29.3982   19.7005 C   0  0  0  0  0  0
  -23.1455  -29.5524   22.6666 C   0  0  0  0  0  0
  -18.8608  -27.8782   22.2441 C   0  0  0  0  0  0
  -24.1519  -36.7365   23.2598 C   0  0  0  0  0  0
  -25.9737  -30.8589   21.3967 C   0  0  0  0  0  0
  -25.8423  -29.5362   20.6855 C   0  0  0  0  0  0
  -26.1397  -28.2970   21.2589 C   0  0  0  0  0  0
  -25.5564  -27.0729   19.5008 C   0  0  0  0  0  0
  -24.9338  -28.1991   18.9120 C   0  0  0  0  0  0
  -23.5863  -30.1202   20.0611 C   0  0  0  0  0  0
  -25.4131  -36.3248   24.0353 C   0  0  1  0  0  0
  -21.5284  -28.0708   23.5866 C   0  0  2  0  0  0
  -22.6173  -26.3075   22.7998 C   0  0  0  0  0  0
  -21.0994  -25.4417   21.0470 C   0  0  0  0  0  0
  -19.3211  -26.5441   21.0985 C   0  0  0  0  0  0
  -19.8372  -28.5472   23.2100 C   0  0  0  0  0  0
  -19.3117  -29.7085   23.9312 C   0  0  0  0  0  0
  -17.9718  -30.1852   23.9348 C   0  0  0  0  0  0
  -25.9184  -34.9679   23.5188 C   0  0  0  0  0  0
  -17.0159  -29.4396   23.2369 C   0  0  0  0  0  0
  -17.4581  -28.3289   22.4385 C   0  0  0  0  0  0
  -26.4609  -31.6718   25.0915 C   0  0  0  0  0  0
  -25.3718  -31.3803   26.1504 C   0  0  0  0  0  0
  -27.0371  -30.3125   24.6335 C   0  0  0  0  0  0
  -27.6156  -32.4271   25.7867 C   0  0  0  0  0  0
  -27.5608  -37.1888   24.8460 C   0  0  0  0  0  0
  -21.9329  -29.3976   23.1031 N   0  0  0  0  0  0
  -26.4283  -37.3933   23.9477 N   0  0  0  0  0  0
  -24.7185  -31.2336   22.0708 N   0  0  0  0  0  0
  -23.9889  -28.8693   23.2208 O   0  0  0  0  0  0
  -23.6301  -27.2244   20.7260 O   0  0  0  0  0  0
  -26.5492  -34.9034   22.4605 O   0  0  0  0  0  0
  -23.5881  -32.2340   23.7653 O   0  0  0  0  0  0
  -26.2835  -18.9022   22.8545 C   0  0  0  0  0  0
  -27.3350  -17.8592   22.5653 C   0  0  0  0  0  0
  -26.9361  -18.0453   20.3419 C   0  0  0  0  0  0
  -25.4387  -19.6495   21.9038 C   0  0  0  0  0  0
  -25.9049  -19.1113   20.6036 C   0  0  0  0  0  0
  -27.7897  -17.3109   21.2781 C   0  0  0  0  0  0
  -24.0765  -20.6845   22.1194 C   0  0  0  0  0  0
  -20.4081  -25.8772   23.2195 C   0  0  0  0  0  0
  -25.2700  -19.7126   19.3561 C   0  0  0  0  0  0
  -21.1591  -24.1849   23.4333 C   0  0  0  0  0  0
  -21.6533  -27.5684   21.3010 C   0  0  0  0  0  0
  -22.3872  -23.1414   22.4913 C   0  0  0  0  0  0
  -23.0293  -20.1791   21.4689 N   0  0  0  0  0  0
  -28.6161  -15.9215   20.9915 N   0  0  0  0  0  0
  -23.6046  -21.9552   22.7727 N   0  3  0  0  0  0
  -19.4922  -26.0623   24.0369 O   0  0  0  0  0  0
  -31.4035  -13.1856   19.3005 H   0  0  0  0  0  0
  -30.6012  -11.8496   20.0709 H   0  0  0  0  0  0
  -29.9642  -11.8507   17.6511 H   0  0  0  0  0  0
  -29.5626  -13.5457   17.7344 H   0  0  0  0  0  0
  -27.9987  -11.2533   18.9466 H   0  0  0  0  0  0
  -27.4380  -12.4430   17.7715 H   0  0  0  0  0  0
  -27.5367  -14.1886   19.3967 H   0  0  0  0  0  0
  -28.7143  -12.0874   21.3278 H   0  0  0  0  0  0
  -28.1286  -13.6240   21.8866 H   0  0  0  0  0  0
  -25.2646   -9.5583   22.4774 H   0  0  0  0  0  0
  -23.9906   -7.4502   22.7418 H   0  0  0  0  0  0
  -21.0730   -8.8613   19.8969 H   0  0  0  0  0  0
  -22.3506  -10.9564   19.6173 H   0  0  0  0  0  0
  -21.1992   -7.6095   23.9684 H   0  0  0  0  0  0
  -21.1499   -6.0513   25.9087 H   0  0  0  0  0  0
  -22.0622   -2.7551   23.2908 H   0  0  0  0  0  0
  -22.3870  -11.9644   22.4897 H   0  0  0  0  0  0
  -21.0970  -13.1127   22.2836 H   0  0  0  0  0  0
  -24.5881  -15.7863   20.5638 H   0  0  0  0  0  0
  -26.0888  -15.6110   19.8278 H   0  0  0  0  0  0
  -26.7767  -32.5660   23.1390 H   0  0  0  0  0  0
  -25.0804  -34.0076   25.0899 H   0  0  0  0  0  0
  -22.6642  -31.3436   21.5945 H   0  0  0  0  0  0
  -23.3843  -35.9629   23.3219 H   0  0  0  0  0  0
  -24.3643  -36.9011   22.2018 H   0  0  0  0  0  0
  -23.7176  -37.6526   23.6611 H   0  0  0  0  0  0
  -26.2163  -31.6314   20.6659 H   0  0  0  0  0  0
  -26.8359  -30.7693   22.0472 H   0  0  0  0  0  0
  -26.6428  -28.2437   22.2142 H   0  0  0  0  0  0
  -25.3046  -26.1528   18.9895 H   0  0  0  0  0  0
  -24.2962  -28.0603   18.0509 H   0  0  0  0  0  0
  -23.5283  -31.0005   19.4227 H   0  0  0  0  0  0
  -22.7322  -29.5093   19.7769 H   0  0  0  0  0  0
  -25.1273  -36.2102   25.0830 H   0  0  0  0  0  0
  -21.6479  -28.0823   24.6748 H   0  0  0  0  0  0
  -22.8604  -25.6844   23.6613 H   0  0  0  0  0  0
  -23.6840  -26.4065   22.6574 H   0  0  0  0  0  0
  -20.8177  -24.3927   21.0395 H   0  0  0  0  0  0
  -21.5720  -25.4860   20.0602 H   0  0  0  0  0  0
  -19.1681  -26.9568   20.0987 H   0  0  0  0  0  0
  -18.5082  -25.8210   21.1666 H   0  0  0  0  0  0
  -19.9879  -30.2281   24.6001 H   0  0  0  0  0  0
  -17.6926  -31.0356   24.5398 H   0  0  0  0  0  0
  -15.9716  -29.7236   23.2672 H   0  0  0  0  0  0
  -16.6989  -27.8284   21.8515 H   0  0  0  0  0  0
  -24.5910  -30.7199   25.7704 H   0  0  0  0  0  0
  -24.8903  -32.2941   26.4987 H   0  0  0  0  0  0
  -25.7957  -30.8879   27.0272 H   0  0  0  0  0  0
  -26.2914  -29.7017   24.1254 H   0  0  0  0  0  0
  -27.3883  -29.7245   25.4832 H   0  0  0  0  0  0
  -27.8914  -30.4375   23.9679 H   0  0  0  0  0  0
  -27.2809  -33.3557   26.2497 H   0  0  0  0  0  0
  -28.4067  -32.6818   25.0814 H   0  0  0  0  0  0
  -28.0675  -31.8286   26.5782 H   0  0  0  0  0  0
  -28.2554  -38.0253   24.7626 H   0  0  0  0  0  0
  -28.1185  -36.2804   24.6142 H   0  0  0  0  0  0
  -27.2353  -37.1348   25.8856 H   0  0  0  0  0  0
  -21.2049  -30.0303   22.7998 H   0  0  0  0  0  0
  -26.0182  -38.2999   24.1540 H   0  0  0  0  0  0
  -26.0915  -19.0823   23.9009 H   0  0  0  0  0  0
  -27.7966  -17.4243   23.4367 H   0  0  0  0  0  0
  -27.0488  -17.7201   19.3168 H   0  0  0  0  0  0
  -25.7552  -19.3918   18.4345 H   0  0  0  0  0  0
  -25.3346  -20.8008   19.3836 H   0  0  0  0  0  0
  -24.2194  -19.4416   19.2739 H   0  0  0  0  0  0
  -20.2747  -23.5515   23.5082 H   0  0  0  0  0  0
  -21.5252  -24.2061   24.4606 H   0  0  0  0  0  0
  -21.2524  -27.4818   20.2882 H   0  0  0  0  0  0
  -21.2849  -28.5833   21.2020 H   0  0  0  0  0  0
  -22.9999  -23.8842   21.9791 H   0  0  0  0  0  0
  -21.8126  -22.6951   21.6811 H   0  0  0  0  0  0
  -23.1273  -19.2747   21.0307 H   0  0  0  0  0  0
  -22.1095  -20.5685   21.5764 H   0  0  0  0  0  0
  -27.9323  -15.1841   21.0139 H   0  0  0  0  0  0
  -24.3045  -22.2965   23.4261 H   0  0  0  0  0  0
  1 25  1  0  0  0
  1 30  2  0  0  0
  1 84  1  0  0  0
  2  3  1  0  0  0
  2 25  1  0  0  0
  2 87  1  0  0  0
  2 88  1  0  0  0
  3  4  1  0  0  0
  3 89  1  0  0  0
  3 90  1  0  0  0
  4  5  1  0  0  0
  4 91  1  0  0  0
  4 92  1  0  0  0
  5  6  1  0  0  0
  5 26  1  0  0  0
  5 93  1  0  0  0
  6 25  1  0  0  0
  6 94  1  0  0  0
  6 95  1  0  0  0
  7  8  2  0  0  0
  7 26  1  0  0  0
  7 29  1  0  0  0
  8  9  1  0  0  0
  8 22  1  0  0  0
  9 10  1  0  0  0
  9 27  2  0  0  0
 10 11  2  0  0  0
 10 15  1  0  0  0
 11 12  1  0  0  0
 11 96  1  0  0  0
 12 13  2  0  0  0
 12 97  1  0  0  0
 13 14  1  0  0  0
 13 31  1  0  0  0
 14 15  2  0  0  0
 14 98  1  0  0  0
 15 99  1  0  0  0
 16 17  2  0  0  0
 16 21  1  0  0  0
 16 31  1  0  0  0
 17 18  1  0  0  0
 17100  1  0  0  0
 18 19  2  0  0  0
 18101  1  0  0  0
 19 20  1  0  0  0
 19 24  1  0  0  0
 20 21  2  0  0  0
 20102  1  0  0  0
 21 23  1  0  0  0
 22 28  1  0  0  0
 22 32  2  0  0  0
 26 27  1  0  0  0
 28103  1  0  0  0
 28104  1  0  0  0
 29105  1  0  0  0
 29106  1  0  0  0
 33 34  1  0  0  0
 33 66  1  0  0  0
 33 70  2  0  0  0
 34 36  1  0  0  0
 34 59  1  0  0  0
 34107  1  0  0  0
 35 44  2  0  0  0
 35 45  1  0  0  0
 35 68  1  0  0  0
 36 56  1  0  0  0
 36108  1  0  0  0
 37 39  1  0  0  0
 37 47  1  0  0  0
 37 66  1  0  0  0
 37109  1  0  0  0
 38 43  2  0  0  0
 38 46  1  0  0  0
 38 47  1  0  0  0
 39 64  1  0  0  0
 39 67  2  0  0  0
 40 52  1  0  0  0
 40 53  2  0  0  0
 40 58  1  0  0  0
 41110  1  0  0  0
 41111  1  0  0  0
 41112  1  0  0  0
 41 48  1  0  0  0
 42 43  1  0  0  0
 42 66  1  0  0  0
 42113  1  0  0  0
 42114  1  0  0  0
 43 44  1  0  0  0
 44115  1  0  0  0
 45 46  2  0  0  0
 45116  1  0  0  0
 46117  1  0  0  0
 47118  1  0  0  0
 47119  1  0  0  0
 48 56  1  0  0  0
 48 65  1  0  0  0
 48120  1  0  0  0
 49 50  1  0  0  0
 49 53  1  0  0  0
 49 64  1  0  0  0
 49121  1  0  0  0
 50 51  1  0  0  0
 50122  1  0  0  0
 50123  1  0  0  0
 51 52  1  0  0  0
 51124  1  0  0  0
 51125  1  0  0  0
 52126  1  0  0  0
 52127  1  0  0  0
 53 54  1  0  0  0
 54 55  2  0  0  0
 54128  1  0  0  0
 55 57  1  0  0  0
 55129  1  0  0  0
 56 69  2  0  0  0
 57 58  2  0  0  0
 57130  1  0  0  0
 58131  1  0  0  0
 59 60  1  0  0  0
 59 61  1  0  0  0
 59 62  1  0  0  0
 60132  1  0  0  0
 60133  1  0  0  0
 60134  1  0  0  0
 61135  1  0  0  0
 61136  1  0  0  0
 61137  1  0  0  0
 62138  1  0  0  0
 62139  1  0  0  0
 62140  1  0  0  0
 63 65  1  0  0  0
 63141  1  0  0  0
 63142  1  0  0  0
 63143  1  0  0  0
 64144  1  0  0  0
 65145  1  0  0  0
 68 81  1  0  0  0
 71 72  2  0  0  0
 71 74  1  0  0  0
 71146  1  0  0  0
 72 76  1  0  0  0
 72147  1  0  0  0
 73 75  1  0  0  0
 73 76  2  0  0  0
 73148  1  0  0  0
 74 75  2  0  0  0
 74 77  1  0  0  0
 75 79  1  0  0  0
 76 84  1  0  0  0
 77 83  1  0  0  0
 77 85  2  0  0  0
 78 80  1  0  0  0
 78 81  1  0  0  0
 78 86  2  0  0  0
 79149  1  0  0  0
 79150  1  0  0  0
 79151  1  0  0  0
 80 82  1  0  0  0
 80152  1  0  0  0
 80153  1  0  0  0
 81154  1  0  0  0
 81155  1  0  0  0
 82 85  1  0  0  0
 82156  1  0  0  0
 82157  1  0  0  0
 83158  1  0  0  0
 83159  1  0  0  0
 84160  1  0  0  0
 85161  1  0  0  0
M  CHG  1  85   1
M  ISO  4   1 100  68 101  81 101  84 100
M  END
> <chiral flag>
0

> <version>
0

> <s_m_source_file>
/data/baiqing/PycharmProjects/Reinvent-master-3.2/result/LINK_invent/BTK/process_docking_weight1_custom_product_contain_oxygen_bond_distance_aromatic_linkinvent_7_9_3/rearranged_h_0059.sdf

> <i_m_source_file_index>
31

> <r_mmod_Potential_Energy-OPLS-2005>
14559.79296875

> <r_mmod_Stretch_Energy-OPLS-2005>
6038.744140625

> <r_mmod_Bend_Energy-OPLS-2005>
1197.642578125

> <r_mmod_Torsional_Energy-OPLS-2005>
629.638061523438

> <r_mmod_Improper_Torsional_Energy-OPLS-2005>
69.8925704956055

> <r_mmod_Van_der_Waal_Energy-OPLS-2005>
2147.84887695312

> <r_mmod_Electrostatic_Energy-OPLS-2005>
-360.866485595703

> <r_mmod_Solvation_Energy-OPLS-2005>
-415.653167724609

> <b_mmod_Minimization_Converged-OPLS-2005>
0

> <r_mmod_RMS_Derivative-OPLS-2005>
10.3103361129761

$$$$
31
                    3D
 Structure written by MMmdl.
166175  0  0  1  0            999 V2000
  -30.6856  -14.4586   20.6642 C   0  0  0  0  0  0
  -30.4412  -12.3318   19.4052 C   0  0  0  0  0  0
  -29.4978  -12.5440   18.2019 C   0  0  0  0  0  0
  -28.0196  -12.3905   18.6131 C   0  0  0  0  0  0
  -27.6720  -13.2010   19.8888 C   0  0  2  0  0  0
  -28.7129  -12.9198   20.9959 C   0  0  0  0  0  0
  -25.2603  -13.8127   20.5635 C   0  0  0  0  0  0
  -24.1848  -13.0422   20.9139 C   0  0  0  0  0  0
  -24.6399  -11.6890   20.8717 C   0  0  0  0  0  0
  -23.9056  -10.4286   21.0397 C   0  0  0  0  0  0
  -24.3607   -9.4208   21.9183 C   0  0  0  0  0  0
  -23.6281   -8.2246   22.0757 C   0  0  0  0  0  0
  -22.4265   -8.0283   21.3546 C   0  0  0  0  0  0
  -21.9897   -9.0256   20.4650 C   0  0  0  0  0  0
  -22.7225  -10.2132   20.3053 C   0  0  0  0  0  0
  -21.6853   -6.0731   22.5277 C   0  0  0  0  0  0
  -21.4015   -6.5635   23.8211 C   0  0  0  0  0  0
  -21.3662   -5.6789   24.9172 C   0  0  0  0  0  0
  -21.6045   -4.3052   24.7223 C   0  0  0  0  0  0
  -21.8820   -3.8143   23.4346 C   0  0  0  0  0  0
  -21.9193   -4.6959   22.3401 C   0  0  0  0  0  0
  -22.7878  -13.5242   21.1812 C   0  0  0  0  0  0
  -22.1662   -4.2146   21.0979 F   0  0  0  0  0  0
  -21.5628   -3.4534   25.7737 F   0  0  0  0  0  0
  -30.0518  -13.2646   20.4761 N   0  0  0  0  0  0
  -26.3076  -12.9303   20.3411 N   0  0  0  0  0  0
  -25.9335  -11.6465   20.5772 N   0  0  0  0  0  0
  -22.0515  -12.8251   22.0381 N   0  0  0  0  0  0
  -25.4276  -15.1830   20.3995 N   0  0  0  0  0  0
  -31.6968  -14.7934   20.0374 O   0  0  0  0  0  0
  -21.6636   -6.8874   21.4240 O   0  0  0  0  0  0
  -22.3566  -14.5554   20.6672 O   0  0  0  0  0  0
  -24.6181  -31.8665   23.2082 C   0  0  0  0  0  0
  -25.9060  -32.4812   23.8393 C   0  0  1  0  0  0
  -27.2385  -27.4105   20.0954 C   0  0  0  0  0  0
  -25.5902  -33.8612   24.2319 N   0  0  0  0  0  0
  -23.4070  -30.4905   21.5495 C   0  0  2  0  0  0
  -24.8527  -28.9530   20.1167 C   0  0  0  0  0  0
  -22.7431  -29.4655   22.4981 C   0  0  0  0  0  0
  -18.0280  -28.1372   22.8492 C   0  0  0  0  0  0
  -24.1484  -36.7315   23.2640 C   0  0  0  0  0  0
  -25.9399  -30.8248   21.3653 C   0  0  0  0  0  0
  -26.0165  -29.4588   20.7088 C   0  0  0  0  0  0
  -27.2116  -28.6986   20.6871 C   0  0  0  0  0  0
  -26.0484  -26.9244   19.5034 C   0  0  0  0  0  0
  -24.8655  -27.6865   19.5106 C   0  0  0  0  0  0
  -23.6166  -29.8231   20.1649 C   0  0  0  0  0  0
  -25.4105  -36.3107   24.0338 C   0  0  1  0  0  0
  -20.5873  -28.3665   23.1309 C   0  0  2  0  0  0
  -20.6767  -26.9398   22.5415 C   0  0  0  0  0  0
  -19.5741  -26.6380   21.5214 C   0  0  0  0  0  0
  -18.1922  -26.7917   22.1628 C   0  0  0  0  0  0
  -19.1530  -28.8835   23.2897 C   0  0  0  0  0  0
  -18.9455  -30.1439   23.8910 C   0  0  0  0  0  0
  -17.6455  -30.6577   24.0563 C   0  0  0  0  0  0
  -25.9035  -34.9472   23.5125 C   0  0  0  0  0  0
  -16.5346  -29.9079   23.6321 C   0  0  0  0  0  0
  -16.7268  -28.6495   23.0345 C   0  0  0  0  0  0
  -26.4478  -31.6596   25.0731 C   0  0  0  0  0  0
  -25.3740  -31.3711   26.1479 C   0  0  0  0  0  0
  -27.0316  -30.3031   24.6131 C   0  0  0  0  0  0
  -27.6051  -32.4326   25.7488 C   0  0  0  0  0  0
  -27.5579  -37.1812   24.8465 C   0  0  0  0  0  0
  -21.4155  -29.3035   22.3717 N   0  0  0  0  0  0
  -26.4292  -37.3791   23.9408 N   0  0  0  0  0  0
  -24.6733  -31.0757   22.0986 N   0  0  0  0  0  0
  -23.4194  -28.8197   23.3028 O   0  0  0  0  0  0
  -28.4146  -26.6734   20.1007 O   0  0  0  0  0  0
  -26.5607  -34.8926   22.4693 O   0  0  0  0  0  0
  -23.5364  -32.1430   23.7456 O   0  0  0  0  0  0
  -27.3271  -17.5339   22.0573 C   0  0  0  0  0  0
  -28.1352  -16.3888   22.0436 C   0  0  0  0  0  0
  -29.9860  -17.6853   21.1240 C   0  0  0  0  0  0
  -27.8337  -18.7712   21.6261 C   0  0  0  0  0  0
  -29.1800  -18.8669   21.1807 C   0  0  0  0  0  0
  -29.4585  -16.4329   21.5603 C   0  0  0  0  0  0
  -30.0409  -22.4569   21.4970 C   0  0  0  0  0  0
  -29.6947  -23.0006   20.3067 C   0  0  0  0  0  0
  -29.4267  -22.0917   19.1906 C   0  0  0  0  0  0
  -30.0826  -21.0240   21.8076 C   0  0  0  0  0  0
  -29.1034  -22.5686   17.9685 C   0  0  0  0  0  0
  -29.5375  -20.5826   19.4217 C   0  0  0  0  0  0
  -26.9145  -19.9841   21.6827 C   0  0  0  0  0  0
  -28.8077  -21.7511   16.7242 C   0  0  0  0  0  0
  -29.7045  -24.5433   20.1633 C   0  0  0  0  0  0
  -28.3148  -25.2317   20.0559 C   0  0  0  0  0  0
  -29.6810  -20.1690   20.8259 N   0  0  0  0  0  0
  -30.1852  -15.2037   21.6678 N   0  0  0  0  0  0
  -30.4373  -20.6169   22.9196 O   0  0  0  0  0  0
  -31.4808  -12.4676   19.1018 H   0  0  0  0  0  0
  -30.3719  -11.3042   19.7658 H   0  0  0  0  0  0
  -29.7388  -11.8389   17.4050 H   0  0  0  0  0  0
  -29.6567  -13.5402   17.7858 H   0  0  0  0  0  0
  -27.8270  -11.3305   18.7833 H   0  0  0  0  0  0
  -27.3685  -12.6890   17.7906 H   0  0  0  0  0  0
  -27.7319  -14.2587   19.6309 H   0  0  0  0  0  0
  -28.6938  -11.8616   21.2611 H   0  0  0  0  0  0
  -28.4510  -13.4345   21.9181 H   0  0  0  0  0  0
  -25.2757   -9.5687   22.4751 H   0  0  0  0  0  0
  -23.9994   -7.4639   22.7476 H   0  0  0  0  0  0
  -21.0829   -8.8774   19.8957 H   0  0  0  0  0  0
  -22.3688  -10.9670   19.6159 H   0  0  0  0  0  0
  -21.2010   -7.6145   23.9712 H   0  0  0  0  0  0
  -21.1482   -6.0519   25.9074 H   0  0  0  0  0  0
  -22.0596   -2.7605   23.2844 H   0  0  0  0  0  0
  -22.4121  -11.9913   22.4778 H   0  0  0  0  0  0
  -21.1144  -13.1303   22.2591 H   0  0  0  0  0  0
  -24.6622  -15.8376   20.5135 H   0  0  0  0  0  0
  -26.2961  -15.6308   20.1346 H   0  0  0  0  0  0
  -26.7132  -32.5513   23.1159 H   0  0  0  0  0  0
  -25.0042  -33.9770   25.0456 H   0  0  0  0  0  0
  -22.6965  -31.3079   21.4099 H   0  0  0  0  0  0
  -23.3738  -35.9655   23.3314 H   0  0  0  0  0  0
  -24.3572  -36.8921   22.2051 H   0  0  0  0  0  0
  -23.7247  -37.6528   23.6649 H   0  0  0  0  0  0
  -26.0615  -31.5928   20.5999 H   0  0  0  0  0  0
  -26.8240  -30.8716   21.9895 H   0  0  0  0  0  0
  -28.1121  -29.0911   21.1387 H   0  0  0  0  0  0
  -26.0064  -25.9599   19.0211 H   0  0  0  0  0  0
  -23.9716  -27.2903   19.0489 H   0  0  0  0  0  0
  -23.7288  -30.5986   19.4063 H   0  0  0  0  0  0
  -22.7393  -29.2463   19.8663 H   0  0  0  0  0  0
  -25.1280  -36.1974   25.0832 H   0  0  0  0  0  0
  -20.9969  -28.3231   24.1426 H   0  0  0  0  0  0
  -20.5668  -26.2276   23.3606 H   0  0  0  0  0  0
  -21.6636  -26.7434   22.1209 H   0  0  0  0  0  0
  -19.6897  -25.6295   21.1231 H   0  0  0  0  0  0
  -19.6670  -27.3201   20.6752 H   0  0  0  0  0  0
  -17.4192  -26.6672   21.4028 H   0  0  0  0  0  0
  -18.0315  -26.0054   22.9021 H   0  0  0  0  0  0
  -19.7931  -30.7251   24.2287 H   0  0  0  0  0  0
  -17.5010  -31.6257   24.5164 H   0  0  0  0  0  0
  -15.5345  -30.2985   23.7630 H   0  0  0  0  0  0
  -15.8671  -28.0817   22.7050 H   0  0  0  0  0  0
  -24.5895  -30.7080   25.7812 H   0  0  0  0  0  0
  -24.8957  -32.2872   26.4954 H   0  0  0  0  0  0
  -25.8089  -30.8854   27.0224 H   0  0  0  0  0  0
  -26.2869  -29.6785   24.1183 H   0  0  0  0  0  0
  -27.4070  -29.7279   25.4606 H   0  0  0  0  0  0
  -27.8712  -30.4340   23.9299 H   0  0  0  0  0  0
  -27.2664  -33.3612   26.2097 H   0  0  0  0  0  0
  -28.3836  -32.6916   25.0297 H   0  0  0  0  0  0
  -28.0753  -31.8442   26.5378 H   0  0  0  0  0  0
  -28.2608  -38.0098   24.7503 H   0  0  0  0  0  0
  -28.1063  -36.2634   24.6296 H   0  0  0  0  0  0
  -27.2303  -37.1473   25.8869 H   0  0  0  0  0  0
  -20.9315  -29.8772   21.6954 H   0  0  0  0  0  0
  -26.0183  -38.2874   24.1390 H   0  0  0  0  0  0
  -26.3118  -17.4538   22.4205 H   0  0  0  0  0  0
  -27.7080  -15.4693   22.4160 H   0  0  0  0  0  0
  -31.0127  -17.7505   20.7913 H   0  0  0  0  0  0
  -30.2797  -23.1214   22.3136 H   0  0  0  0  0  0
  -29.0279  -23.6316   17.8025 H   0  0  0  0  0  0
  -30.3989  -20.2074   18.8686 H   0  0  0  0  0  0
  -28.6542  -20.0946   19.0068 H   0  0  0  0  0  0
  -25.8796  -19.6914   21.8623 H   0  0  0  0  0  0
  -26.9363  -20.5423   20.7464 H   0  0  0  0  0  0
  -27.2118  -20.6528   22.4905 H   0  0  0  0  0  0
  -29.0310  -20.6908   16.8363 H   0  0  0  0  0  0
  -29.4038  -22.1241   15.8911 H   0  0  0  0  0  0
  -27.7556  -21.8501   16.4559 H   0  0  0  0  0  0
  -30.3144  -24.8147   19.3008 H   0  0  0  0  0  0
  -30.2268  -24.9711   21.0195 H   0  0  0  0  0  0
  -27.6789  -24.8949   20.8761 H   0  0  0  0  0  0
  -27.8409  -24.9130   19.1297 H   0  0  0  0  0  0
  -29.7263  -14.5770   22.3116 H   0  0  0  0  0  0
  1 25  1  0  0  0
  1 30  2  0  0  0
  1 88  1  0  0  0
  2  3  1  0  0  0
  2 25  1  0  0  0
  2 90  1  0  0  0
  2 91  1  0  0  0
  3  4  1  0  0  0
  3 92  1  0  0  0
  3 93  1  0  0  0
  4  5  1  0  0  0
  4 94  1  0  0  0
  4 95  1  0  0  0
  5  6  1  0  0  0
  5 26  1  0  0  0
  5 96  1  0  0  0
  6 25  1  0  0  0
  6 97  1  0  0  0
  6 98  1  0  0  0
  7  8  2  0  0  0
  7 26  1  0  0  0
  7 29  1  0  0  0
  8  9  1  0  0  0
  8 22  1  0  0  0
  9 10  1  0  0  0
  9 27  2  0  0  0
 10 11  2  0  0  0
 10 15  1  0  0  0
 11 12  1  0  0  0
 11 99  1  0  0  0
 12 13  2  0  0  0
 12100  1  0  0  0
 13 14  1  0  0  0
 13 31  1  0  0  0
 14 15  2  0  0  0
 14101  1  0  0  0
 15102  1  0  0  0
 16 17  2  0  0  0
 16 21  1  0  0  0
 16 31  1  0  0  0
 17 18  1  0  0  0
 17103  1  0  0  0
 18 19  2  0  0  0
 18104  1  0  0  0
 19 20  1  0  0  0
 19 24  1  0  0  0
 20 21  2  0  0  0
 20105  1  0  0  0
 21 23  1  0  0  0
 22 28  1  0  0  0
 22 32  2  0  0  0
 26 27  1  0  0  0
 28106  1  0  0  0
 28107  1  0  0  0
 29108  1  0  0  0
 29109  1  0  0  0
 33 34  1  0  0  0
 33 66  1  0  0  0
 33 70  2  0  0  0
 34 36  1  0  0  0
 34 59  1  0  0  0
 34110  1  0  0  0
 35 44  2  0  0  0
 35 45  1  0  0  0
 35 68  1  0  0  0
 36 56  1  0  0  0
 36111  1  0  0  0
 37 39  1  0  0  0
 37 47  1  0  0  0
 37 66  1  0  0  0
 37112  1  0  0  0
 38 43  2  0  0  0
 38 46  1  0  0  0
 38 47  1  0  0  0
 39 64  1  0  0  0
 39 67  2  0  0  0
 40 52  1  0  0  0
 40 53  2  0  0  0
 40 58  1  0  0  0
 41113  1  0  0  0
 41114  1  0  0  0
 41115  1  0  0  0
 41 48  1  0  0  0
 42 43  1  0  0  0
 42 66  1  0  0  0
 42116  1  0  0  0
 42117  1  0  0  0
 43 44  1  0  0  0
 44118  1  0  0  0
 45 46  2  0  0  0
 45119  1  0  0  0
 46120  1  0  0  0
 47121  1  0  0  0
 47122  1  0  0  0
 48 56  1  0  0  0
 48 65  1  0  0  0
 48123  1  0  0  0
 49 50  1  0  0  0
 49 53  1  0  0  0
 49 64  1  0  0  0
 49124  1  0  0  0
 50 51  1  0  0  0
 50125  1  0  0  0
 50126  1  0  0  0
 51 52  1  0  0  0
 51127  1  0  0  0
 51128  1  0  0  0
 52129  1  0  0  0
 52130  1  0  0  0
 53 54  1  0  0  0
 54 55  2  0  0  0
 54131  1  0  0  0
 55 57  1  0  0  0
 55132  1  0  0  0
 56 69  2  0  0  0
 57 58  2  0  0  0
 57133  1  0  0  0
 58134  1  0  0  0
 59 60  1  0  0  0
 59 61  1  0  0  0
 59 62  1  0  0  0
 60135  1  0  0  0
 60136  1  0  0  0
 60137  1  0  0  0
 61138  1  0  0  0
 61139  1  0  0  0
 61140  1  0  0  0
 62141  1  0  0  0
 62142  1  0  0  0
 62143  1  0  0  0
 63 65  1  0  0  0
 63144  1  0  0  0
 63145  1  0  0  0
 63146  1  0  0  0
 64147  1  0  0  0
 65148  1  0  0  0
 68 86  1  0  0  0
 71 72  2  0  0  0
 71 74  1  0  0  0
 71149  1  0  0  0
 72 76  1  0  0  0
 72150  1  0  0  0
 73 75  1  0  0  0
 73 76  2  0  0  0
 73151  1  0  0  0
 74 75  2  0  0  0
 74 83  1  0  0  0
 75 87  1  0  0  0
 76 88  1  0  0  0
 77 78  2  0  0  0
 77 80  1  0  0  0
 77152  1  0  0  0
 78 79  1  0  0  0
 78 85  1  0  0  0
 79 81  2  0  0  0
 79 82  1  0  0  0
 80 87  1  0  0  0
 80 89  2  0  0  0
 81 84  1  0  0  0
 81153  1  0  0  0
 82 87  1  0  0  0
 82154  1  0  0  0
 82155  1  0  0  0
 83156  1  0  0  0
 83157  1  0  0  0
 83158  1  0  0  0
 84159  1  0  0  0
 84160  1  0  0  0
 84161  1  0  0  0
 85 86  1  0  0  0
 85162  1  0  0  0
 85163  1  0  0  0
 86164  1  0  0  0
 86165  1  0  0  0
 88166  1  0  0  0
M  ISO  4   1 100  68 101  86 101  88 100
M  END
> <chiral flag>
0

> <version>
0

> <s_m_source_file>
/data/baiqing/PycharmProjects/Reinvent-master-3.2/result/LINK_invent/BTK/process_docking_weight1_custom_product_contain_oxygen_bond_distance_aromatic_linkinvent_7_9_3/rearranged_h_0059.sdf

> <i_m_source_file_index>
32

> <r_mmod_Potential_Energy-OPLS-2005>
106.471313476562

> <r_mmod_Stretch_Energy-OPLS-2005>
49.8459777832031

> <r_mmod_Bend_Energy-OPLS-2005>
131.45100402832

> <r_mmod_Torsional_Energy-OPLS-2005>
314.503479003906

> <r_mmod_Improper_Torsional_Energy-OPLS-2005>
7.62827825546265

> <r_mmod_Van_der_Waal_Energy-OPLS-2005>
163.066802978516

> <r_mmod_Electrostatic_Energy-OPLS-2005>
-360.722961425781

> <r_mmod_Solvation_Energy-OPLS-2005>
-214.029693603516

> <b_mmod_Minimization_Converged-OPLS-2005>
0

> <r_mmod_RMS_Derivative-OPLS-2005>
0.775613069534302

$$$$
32
                    3D
 Structure written by MMmdl.
160168  0  0  1  0            999 V2000
  -30.7230  -14.5606   20.5243 C   0  0  0  0  0  0
  -30.4147  -12.3533   19.4499 C   0  0  0  0  0  0
  -29.4949  -12.4922   18.2205 C   0  0  0  0  0  0
  -28.0203  -12.3451   18.6370 C   0  0  0  0  0  0
  -27.6525  -13.2239   19.8626 C   0  0  2  0  0  0
  -28.6989  -13.0996   20.9941 C   0  0  0  0  0  0
  -25.2544  -13.8197   20.5680 C   0  0  0  0  0  0
  -24.1816  -13.0451   20.9201 C   0  0  0  0  0  0
  -24.6395  -11.6929   20.8758 C   0  0  0  0  0  0
  -23.9058  -10.4304   21.0413 C   0  0  0  0  0  0
  -24.3613   -9.4215   21.9178 C   0  0  0  0  0  0
  -23.6293   -8.2248   22.0747 C   0  0  0  0  0  0
  -22.4274   -8.0282   21.3537 C   0  0  0  0  0  0
  -21.9908   -9.0255   20.4639 C   0  0  0  0  0  0
  -22.7235  -10.2138   20.3054 C   0  0  0  0  0  0
  -21.6855   -6.0729   22.5272 C   0  0  0  0  0  0
  -21.4012   -6.5635   23.8204 C   0  0  0  0  0  0
  -21.3657   -5.6790   24.9165 C   0  0  0  0  0  0
  -21.6051   -4.3054   24.7220 C   0  0  0  0  0  0
  -21.8820   -3.8140   23.4343 C   0  0  0  0  0  0
  -21.9198   -4.6955   22.3398 C   0  0  0  0  0  0
  -22.7837  -13.5233   21.1850 C   0  0  0  0  0  0
  -22.1665   -4.2143   21.0974 F   0  0  0  0  0  0
  -21.5633   -3.4536   25.7730 F   0  0  0  0  0  0
  -30.0195  -13.3926   20.4204 N   0  0  0  0  0  0
  -26.2990  -12.9397   20.3352 N   0  0  0  0  0  0
  -25.9332  -11.6544   20.5800 N   0  0  0  0  0  0
  -22.0480  -12.8218   22.0407 N   0  0  0  0  0  0
  -25.4229  -15.1902   20.4008 N   0  0  0  0  0  0
  -31.8758  -14.6349   20.0963 O   0  0  0  0  0  0
  -21.6646   -6.8870   21.4231 O   0  0  0  0  0  0
  -22.3520  -14.5533   20.6691 O   0  0  0  0  0  0
  -24.6187  -31.8637   23.2047 C   0  0  0  0  0  0
  -25.9059  -32.4804   23.8354 C   0  0  1  0  0  0
  -27.2231  -27.3806   20.1007 C   0  0  0  0  0  0
  -25.5891  -33.8598   24.2286 N   0  0  0  0  0  0
  -23.4097  -30.4876   21.5479 C   0  0  2  0  0  0
  -24.8568  -28.9520   20.1079 C   0  0  0  0  0  0
  -22.7442  -29.4633   22.4962 C   0  0  0  0  0  0
  -18.0277  -28.1393   22.8511 C   0  0  0  0  0  0
  -24.1465  -36.7307   23.2640 C   0  0  0  0  0  0
  -25.9454  -30.8154   21.3641 C   0  0  0  0  0  0
  -26.0233  -29.4464   20.7085 C   0  0  0  0  0  0
  -27.2156  -28.6729   20.6929 C   0  0  0  0  0  0
  -26.0420  -26.9261   19.4740 C   0  0  0  0  0  0
  -24.8655  -27.6960   19.4800 C   0  0  0  0  0  0
  -23.6195  -29.8231   20.1623 C   0  0  0  0  0  0
  -25.4088  -36.3099   24.0336 C   0  0  1  0  0  0
  -20.5872  -28.3674   23.1320 C   0  0  2  0  0  0
  -20.6762  -26.9407   22.5417 C   0  0  0  0  0  0
  -19.5734  -26.6401   21.5219 C   0  0  0  0  0  0
  -18.1924  -26.7943   22.1636 C   0  0  0  0  0  0
  -19.1532  -28.8855   23.2910 C   0  0  0  0  0  0
  -18.9457  -30.1467   23.8911 C   0  0  0  0  0  0
  -17.6458  -30.6600   24.0583 C   0  0  0  0  0  0
  -25.9028  -34.9469   23.5110 C   0  0  0  0  0  0
  -16.5348  -29.9107   23.6340 C   0  0  0  0  0  0
  -16.7266  -28.6523   23.0362 C   0  0  0  0  0  0
  -26.4464  -31.6586   25.0695 C   0  0  0  0  0  0
  -25.3725  -31.3725   26.1447 C   0  0  0  0  0  0
  -27.0277  -30.3008   24.6097 C   0  0  0  0  0  0
  -27.6025  -32.4311   25.7476 C   0  0  0  0  0  0
  -27.5567  -37.1797   24.8477 C   0  0  0  0  0  0
  -21.4161  -29.3029   22.3725 N   0  0  0  0  0  0
  -26.4267  -37.3796   23.9432 N   0  0  0  0  0  0
  -24.6771  -31.0704   22.0966 N   0  0  0  0  0  0
  -23.4195  -28.8162   23.3005 O   0  0  0  0  0  0
  -28.3352  -26.5484   20.1237 O   0  0  0  0  0  0
  -26.5609  -34.8935   22.4683 O   0  0  0  0  0  0
  -23.5367  -32.1395   23.7430 O   0  0  0  0  0  0
  -32.4920  -18.5320   21.3913 C   0  0  0  0  0  0
  -31.7117  -19.6543   21.0810 C   0  0  0  0  0  0
  -31.9249  -17.2496   21.3676 C   0  0  0  0  0  0
  -30.3325  -19.5399   20.7927 C   0  0  0  0  0  0
  -29.7561  -18.2127   20.7673 C   0  0  0  0  0  0
  -30.5701  -17.0445   21.0086 C   0  0  0  0  0  0
  -29.5803  -20.8516   20.5228 C   0  0  0  0  0  0
  -29.6226  -23.1357   21.3352 C   0  0  0  0  0  0
  -28.9422  -24.0536   20.2738 C   0  0  0  0  0  0
  -28.2729  -18.0335   20.4711 C   0  0  0  0  0  0
  -29.4190  -23.7450   23.8180 C   0  0  0  0  0  0
  -30.2023  -23.9316   22.5072 C   0  0  0  0  0  0
  -28.0858  -25.2641   20.7792 C   0  0  0  0  0  0
  -29.9009  -21.8682   21.4283 N   0  0  0  0  0  0
  -30.0554  -15.6811   20.9306 N   0  0  0  0  0  0
  -28.7758  -20.9175   19.5936 O   0  0  0  0  0  0
  -29.0318  -23.8351   19.0595 O   0  0  0  0  0  0
  -31.4594  -12.4302   19.1436 H   0  0  0  0  0  0
  -30.3130  -11.3652   19.9010 H   0  0  0  0  0  0
  -29.7509  -11.7396   17.4731 H   0  0  0  0  0  0
  -29.6486  -13.4623   17.7450 H   0  0  0  0  0  0
  -27.8520  -11.2935   18.8732 H   0  0  0  0  0  0
  -27.3641  -12.5745   17.7964 H   0  0  0  0  0  0
  -27.6707  -14.2563   19.5136 H   0  0  0  0  0  0
  -28.6957  -12.0941   21.4174 H   0  0  0  0  0  0
  -28.4615  -13.7762   21.8159 H   0  0  0  0  0  0
  -25.2756   -9.5702   22.4748 H   0  0  0  0  0  0
  -24.0010   -7.4645   22.7468 H   0  0  0  0  0  0
  -21.0839   -8.8762   19.8948 H   0  0  0  0  0  0
  -22.3679  -10.9669   19.6167 H   0  0  0  0  0  0
  -21.1995   -7.6141   23.9699 H   0  0  0  0  0  0
  -21.1483   -6.0520   25.9068 H   0  0  0  0  0  0
  -22.0605   -2.7603   23.2842 H   0  0  0  0  0  0
  -22.4113  -11.9902   22.4819 H   0  0  0  0  0  0
  -21.1094  -13.1232   22.2605 H   0  0  0  0  0  0
  -24.6442  -15.8361   20.4736 H   0  0  0  0  0  0
  -26.2542  -15.6153   20.0124 H   0  0  0  0  0  0
  -26.7122  -32.5496   23.1108 H   0  0  0  0  0  0
  -25.0027  -33.9752   25.0427 H   0  0  0  0  0  0
  -22.6984  -31.3046   21.4108 H   0  0  0  0  0  0
  -23.3723  -35.9639   23.3311 H   0  0  0  0  0  0
  -24.3554  -36.8911   22.2050 H   0  0  0  0  0  0
  -23.7218  -37.6509   23.6648 H   0  0  0  0  0  0
  -26.0617  -31.5791   20.5943 H   0  0  0  0  0  0
  -26.8323  -30.8683   21.9841 H   0  0  0  0  0  0
  -28.1146  -29.0531   21.1563 H   0  0  0  0  0  0
  -26.0233  -25.9643   18.9809 H   0  0  0  0  0  0
  -23.9737  -27.3189   18.9982 H   0  0  0  0  0  0
  -23.7269  -30.6003   19.4051 H   0  0  0  0  0  0
  -22.7419  -29.2459   19.8645 H   0  0  0  0  0  0
  -25.1264  -36.1945   25.0828 H   0  0  0  0  0  0
  -20.9978  -28.3230   24.1429 H   0  0  0  0  0  0
  -20.5678  -26.2272   23.3589 H   0  0  0  0  0  0
  -21.6631  -26.7441   22.1198 H   0  0  0  0  0  0
  -19.6887  -25.6318   21.1222 H   0  0  0  0  0  0
  -19.6682  -27.3240   20.6768 H   0  0  0  0  0  0
  -17.4188  -26.6713   21.4038 H   0  0  0  0  0  0
  -18.0323  -26.0079   22.9021 H   0  0  0  0  0  0
  -19.7931  -30.7307   24.2258 H   0  0  0  0  0  0
  -17.5006  -31.6276   24.5193 H   0  0  0  0  0  0
  -15.5347  -30.3015   23.7660 H   0  0  0  0  0  0
  -15.8663  -28.0850   22.7060 H   0  0  0  0  0  0
  -24.5918  -30.7037   25.7820 H   0  0  0  0  0  0
  -24.8895  -32.2885   26.4831 H   0  0  0  0  0  0
  -25.8087  -30.8962   27.0236 H   0  0  0  0  0  0
  -26.2810  -29.6780   24.1152 H   0  0  0  0  0  0
  -27.4013  -29.7234   25.4560 H   0  0  0  0  0  0
  -27.8663  -30.4299   23.9255 H   0  0  0  0  0  0
  -27.2637  -33.3649   26.1974 H   0  0  0  0  0  0
  -28.3881  -32.6785   25.0335 H   0  0  0  0  0  0
  -28.0611  -31.8464   26.5457 H   0  0  0  0  0  0
  -28.2594  -38.0085   24.7530 H   0  0  0  0  0  0
  -28.1046  -36.2618   24.6289 H   0  0  0  0  0  0
  -27.2295  -37.1444   25.8883 H   0  0  0  0  0  0
  -20.9321  -29.8719   21.6927 H   0  0  0  0  0  0
  -26.0143  -38.2863   24.1466 H   0  0  0  0  0  0
  -33.5373  -18.6578   21.6427 H   0  0  0  0  0  0
  -32.1859  -20.6267   21.0930 H   0  0  0  0  0  0
  -32.5684  -16.4194   21.6228 H   0  0  0  0  0  0
  -27.6778  -18.7998   20.9675 H   0  0  0  0  0  0
  -27.8912  -17.0777   20.8246 H   0  0  0  0  0  0
  -28.0927  -18.0964   19.3979 H   0  0  0  0  0  0
  -29.8669  -24.3368   24.6170 H   0  0  0  0  0  0
  -29.4283  -22.7031   24.1421 H   0  0  0  0  0  0
  -28.3767  -24.0509   23.7236 H   0  0  0  0  0  0
  -30.2936  -24.9909   22.2648 H   0  0  0  0  0  0
  -31.2322  -23.6060   22.6616 H   0  0  0  0  0  0
  -28.2133  -25.4096   21.8486 H   0  0  0  0  0  0
  -27.0481  -24.9574   20.6621 H   0  0  0  0  0  0
  -29.0716  -15.5555   21.1078 H   0  0  0  0  0  0
  1 25  1  0  0  0
  1 30  2  0  0  0
  1 85  1  0  0  0
  2  3  1  0  0  0
  2 25  1  0  0  0
  2 88  1  0  0  0
  2 89  1  0  0  0
  3  4  1  0  0  0
  3 90  1  0  0  0
  3 91  1  0  0  0
  4  5  1  0  0  0
  4 92  1  0  0  0
  4 93  1  0  0  0
  5  6  1  0  0  0
  5 26  1  0  0  0
  5 94  1  0  0  0
  6 25  1  0  0  0
  6 95  1  0  0  0
  6 96  1  0  0  0
  7  8  2  0  0  0
  7 26  1  0  0  0
  7 29  1  0  0  0
  8  9  1  0  0  0
  8 22  1  0  0  0
  9 10  1  0  0  0
  9 27  2  0  0  0
 10 11  2  0  0  0
 10 15  1  0  0  0
 11 12  1  0  0  0
 11 97  1  0  0  0
 12 13  2  0  0  0
 12 98  1  0  0  0
 13 14  1  0  0  0
 13 31  1  0  0  0
 14 15  2  0  0  0
 14 99  1  0  0  0
 15100  1  0  0  0
 16 17  2  0  0  0
 16 21  1  0  0  0
 16 31  1  0  0  0
 17 18  1  0  0  0
 17101  1  0  0  0
 18 19  2  0  0  0
 18102  1  0  0  0
 19 20  1  0  0  0
 19 24  1  0  0  0
 20 21  2  0  0  0
 20103  1  0  0  0
 21 23  1  0  0  0
 22 28  1  0  0  0
 22 32  2  0  0  0
 26 27  1  0  0  0
 28104  1  0  0  0
 28105  1  0  0  0
 29106  1  0  0  0
 29107  1  0  0  0
 33 34  1  0  0  0
 33 66  1  0  0  0
 33 70  2  0  0  0
 34 36  1  0  0  0
 34 59  1  0  0  0
 34108  1  0  0  0
 35 44  2  0  0  0
 35 45  1  0  0  0
 35 68  1  0  0  0
 36 56  1  0  0  0
 36109  1  0  0  0
 37 39  1  0  0  0
 37 47  1  0  0  0
 37 66  1  0  0  0
 37110  1  0  0  0
 38 43  2  0  0  0
 38 46  1  0  0  0
 38 47  1  0  0  0
 39 64  1  0  0  0
 39 67  2  0  0  0
 40 52  1  0  0  0
 40 53  2  0  0  0
 40 58  1  0  0  0
 41111  1  0  0  0
 41112  1  0  0  0
 41113  1  0  0  0
 41 48  1  0  0  0
 42 43  1  0  0  0
 42 66  1  0  0  0
 42114  1  0  0  0
 42115  1  0  0  0
 43 44  1  0  0  0
 44116  1  0  0  0
 45 46  2  0  0  0
 45117  1  0  0  0
 46118  1  0  0  0
 47119  1  0  0  0
 47120  1  0  0  0
 48 56  1  0  0  0
 48 65  1  0  0  0
 48121  1  0  0  0
 49 50  1  0  0  0
 49 53  1  0  0  0
 49 64  1  0  0  0
 49122  1  0  0  0
 50 51  1  0  0  0
 50123  1  0  0  0
 50124  1  0  0  0
 51 52  1  0  0  0
 51125  1  0  0  0
 51126  1  0  0  0
 52127  1  0  0  0
 52128  1  0  0  0
 53 54  1  0  0  0
 54 55  2  0  0  0
 54129  1  0  0  0
 55 57  1  0  0  0
 55130  1  0  0  0
 56 69  2  0  0  0
 57 58  2  0  0  0
 57131  1  0  0  0
 58132  1  0  0  0
 59 60  1  0  0  0
 59 61  1  0  0  0
 59 62  1  0  0  0
 60133  1  0  0  0
 60134  1  0  0  0
 60135  1  0  0  0
 61136  1  0  0  0
 61137  1  0  0  0
 61138  1  0  0  0
 62139  1  0  0  0
 62140  1  0  0  0
 62141  1  0  0  0
 63 65  1  0  0  0
 63142  1  0  0  0
 63143  1  0  0  0
 63144  1  0  0  0
 64145  1  0  0  0
 65146  1  0  0  0
 68 83  1  0  0  0
 71 72  2  0  0  0
 71 73  1  0  0  0
 71147  1  0  0  0
 72 74  1  0  0  0
 72148  1  0  0  0
 73 76  2  0  0  0
 73149  1  0  0  0
 74 75  2  0  0  0
 74 77  1  0  0  0
 75 76  1  0  0  0
 75 80  1  0  0  0
 76 85  1  0  0  0
 77 84  1  0  0  0
 77 86  2  0  0  0
 78 79  1  0  0  0
 78 82  1  0  0  0
 78 84  2  0  0  0
 79 83  1  0  0  0
 79 87  2  0  0  0
 80150  1  0  0  0
 80151  1  0  0  0
 80152  1  0  0  0
 81 82  1  0  0  0
 81153  1  0  0  0
 81154  1  0  0  0
 81155  1  0  0  0
 82156  1  0  0  0
 82157  1  0  0  0
 83158  1  0  0  0
 83159  1  0  0  0
 85160  1  0  0  0
M  ISO  4   1 100  68 101  83 101  85 100
M  END
> <chiral flag>
0

> <version>
0

> <s_m_source_file>
/data/baiqing/PycharmProjects/Reinvent-master-3.2/result/LINK_invent/BTK/process_docking_weight1_custom_product_contain_oxygen_bond_distance_aromatic_linkinvent_7_9_3/rearranged_h_0059.sdf

> <i_m_source_file_index>
33

> <r_mmod_Potential_Energy-OPLS-2005>
92.3971710205078

> <r_mmod_Stretch_Energy-OPLS-2005>
69.5853042602539

> <r_mmod_Bend_Energy-OPLS-2005>
151.280197143555

> <r_mmod_Torsional_Energy-OPLS-2005>
253.585693359375

> <r_mmod_Improper_Torsional_Energy-OPLS-2005>
5.10136842727661

> <r_mmod_Van_der_Waal_Energy-OPLS-2005>
163.410049438477

> <r_mmod_Electrostatic_Energy-OPLS-2005>
-357.0791015625

> <r_mmod_Solvation_Energy-OPLS-2005>
-224.153182983398

> <b_mmod_Minimization_Converged-OPLS-2005>
0

> <r_mmod_RMS_Derivative-OPLS-2005>
2.12692093849182

$$$$
33
                    3D
 Structure written by MMmdl.
151159  0  0  1  0            999 V2000
  -30.5263  -14.9801   20.4256 C   0  0  0  0  0  0
  -30.4573  -12.6153   19.5084 C   0  0  0  0  0  0
  -29.5396  -12.5318   18.2646 C   0  0  0  0  0  0
  -28.0708  -12.3009   18.6735 C   0  0  0  0  0  0
  -27.6267  -13.2444   19.8222 C   0  0  2  0  0  0
  -28.6620  -13.2930   20.9658 C   0  0  0  0  0  0
  -25.2469  -13.8165   20.5694 C   0  0  0  0  0  0
  -24.1787  -13.0410   20.9241 C   0  0  0  0  0  0
  -24.6367  -11.6881   20.8706 C   0  0  0  0  0  0
  -23.9032  -10.4269   21.0329 C   0  0  0  0  0  0
  -24.3583   -9.4228   21.9149 C   0  0  0  0  0  0
  -23.6302   -8.2249   22.0725 C   0  0  0  0  0  0
  -22.4276   -8.0247   21.3536 C   0  0  0  0  0  0
  -21.9883   -9.0193   20.4620 C   0  0  0  0  0  0
  -22.7175  -10.2089   20.3020 C   0  0  0  0  0  0
  -21.6847   -6.0728   22.5285 C   0  0  0  0  0  0
  -21.4010   -6.5631   23.8220 C   0  0  0  0  0  0
  -21.3679   -5.6776   24.9190 C   0  0  0  0  0  0
  -21.6063   -4.3048   24.7212 C   0  0  0  0  0  0
  -21.8831   -3.8136   23.4332 C   0  0  0  0  0  0
  -21.9187   -4.6969   22.3391 C   0  0  0  0  0  0
  -22.7799  -13.5202   21.1860 C   0  0  0  0  0  0
  -22.1670   -4.2158   21.0984 F   0  0  0  0  0  0
  -21.5615   -3.4522   25.7722 F   0  0  0  0  0  0
  -29.9476  -13.7090   20.3819 N   0  0  0  0  0  0
  -26.2857  -12.9395   20.3097 N   0  0  0  0  0  0
  -25.9289  -11.6516   20.5603 N   0  0  0  0  0  0
  -22.0410  -12.8228   22.0403 N   0  0  0  0  0  0
  -25.4169  -15.1909   20.4178 N   0  0  0  0  0  0
  -31.7327  -15.0715   20.1753 O   0  0  0  0  0  0
  -21.6649   -6.8859   21.4236 O   0  0  0  0  0  0
  -22.3501  -14.5492   20.6674 O   0  0  0  0  0  0
  -24.6495  -31.8443   23.1869 C   0  0  0  0  0  0
  -25.9297  -32.4681   23.8243 C   0  0  1  0  0  0
  -27.2438  -27.1569   20.1604 C   0  0  0  0  0  0
  -25.6047  -33.8463   24.2218 N   0  0  0  0  0  0
  -23.4485  -30.4671   21.5294 C   0  0  2  0  0  0
  -24.8981  -28.8829   20.1091 C   0  0  0  0  0  0
  -22.7558  -29.4656   22.4874 C   0  0  0  0  0  0
  -18.0358  -28.1435   22.8528 C   0  0  0  0  0  0
  -24.1517  -36.7249   23.2623 C   0  0  0  0  0  0
  -25.9952  -30.7217   21.3745 C   0  0  0  0  0  0
  -26.0699  -29.3330   20.7231 C   0  0  0  0  0  0
  -27.2453  -28.4931   20.7258 C   0  0  0  0  0  0
  -26.0460  -26.7955   19.5037 C   0  0  0  0  0  0
  -24.8965  -27.6246   19.4817 C   0  0  0  0  0  0
  -23.6725  -29.7893   20.1492 C   0  0  0  0  0  0
  -25.4119  -36.3008   24.0343 C   0  0  1  0  0  0
  -20.5960  -28.3787   23.1188 C   0  0  2  0  0  0
  -20.6937  -26.9562   22.5258 C   0  0  0  0  0  0
  -19.5742  -26.6394   21.5235 C   0  0  0  0  0  0
  -18.2000  -26.7888   22.1832 C   0  0  0  0  0  0
  -19.1612  -28.8917   23.2873 C   0  0  0  0  0  0
  -18.9547  -30.1524   23.8878 C   0  0  0  0  0  0
  -17.6547  -30.6632   24.0613 C   0  0  0  0  0  0
  -25.9080  -34.9396   23.5083 C   0  0  0  0  0  0
  -16.5433  -29.9129   23.6386 C   0  0  0  0  0  0
  -16.7341  -28.6555   23.0380 C   0  0  0  0  0  0
  -26.4624  -31.6477   25.0642 C   0  0  0  0  0  0
  -25.3924  -31.3568   26.1413 C   0  0  0  0  0  0
  -27.0496  -30.2886   24.6154 C   0  0  0  0  0  0
  -27.6154  -32.4213   25.7451 C   0  0  0  0  0  0
  -27.5604  -37.1752   24.8448 C   0  0  0  0  0  0
  -21.4264  -29.3144   22.3574 N   0  0  0  0  0  0
  -26.4267  -37.3741   23.9442 N   0  0  0  0  0  0
  -24.7179  -31.0317   22.0871 N   0  0  0  0  0  0
  -23.4181  -28.8240   23.3084 O   0  0  0  0  0  0
  -28.3342  -26.2161   20.2536 O   0  0  0  0  0  0
  -26.5615  -34.8909   22.4626 O   0  0  0  0  0  0
  -23.5649  -32.1319   23.7172 O   0  0  0  0  0  0
  -28.4834  -19.9318   20.5656 C   0  0  0  0  0  0
  -30.8287  -19.9661   20.6216 C   0  0  0  0  0  0
  -28.5426  -18.4712   20.5139 C   0  0  0  0  0  0
  -30.8945  -18.5098   20.5291 C   0  0  0  0  0  0
  -29.6320  -20.7830   20.6585 C   0  0  0  0  0  0
  -29.7415  -17.6592   20.5067 C   0  0  0  0  0  0
  -29.7290  -22.3515   21.0090 C   0  0  0  0  0  0
  -29.2889  -23.7185   20.9314 C   0  0  0  0  0  0
  -30.0109  -24.6764   21.8973 C   0  0  0  0  0  0
  -28.2172  -24.6648   20.1283 C   0  0  0  0  0  0
  -29.6746  -16.1186   20.5301 N   0  0  0  0  0  0
  -31.4821  -12.8148   19.1916 H   0  0  0  0  0  0
  -30.4929  -11.6657   20.0470 H   0  0  0  0  0  0
  -29.8834  -11.7429   17.5937 H   0  0  0  0  0  0
  -29.6255  -13.4649   17.7029 H   0  0  0  0  0  0
  -27.9687  -11.2556   18.9759 H   0  0  0  0  0  0
  -27.4242  -12.4179   17.8039 H   0  0  0  0  0  0
  -27.5753  -14.2403   19.3797 H   0  0  0  0  0  0
  -28.7497  -12.3237   21.4527 H   0  0  0  0  0  0
  -28.3357  -13.9916   21.7398 H   0  0  0  0  0  0
  -25.2706   -9.5750   22.4733 H   0  0  0  0  0  0
  -24.0022   -7.4640   22.7423 H   0  0  0  0  0  0
  -21.0831   -8.8677   19.8914 H   0  0  0  0  0  0
  -22.3597  -10.9623   19.6139 H   0  0  0  0  0  0
  -21.2027   -7.6145   23.9756 H   0  0  0  0  0  0
  -21.1496   -6.0494   25.9107 H   0  0  0  0  0  0
  -22.0602   -2.7597   23.2818 H   0  0  0  0  0  0
  -22.3989  -11.9944   22.4959 H   0  0  0  0  0  0
  -21.0986  -13.1251   22.2434 H   0  0  0  0  0  0
  -24.6491  -15.8383   20.5611 H   0  0  0  0  0  0
  -26.2527  -15.6377   20.0616 H   0  0  0  0  0  0
  -26.7367  -32.5298   23.0970 H   0  0  0  0  0  0
  -25.0338  -33.9523   25.0490 H   0  0  0  0  0  0
  -22.7601  -31.3022   21.3800 H   0  0  0  0  0  0
  -23.3810  -35.9562   23.3203 H   0  0  0  0  0  0
  -24.3638  -36.8936   22.2051 H   0  0  0  0  0  0
  -23.7247  -37.6415   23.6702 H   0  0  0  0  0  0
  -26.1370  -31.4693   20.5933 H   0  0  0  0  0  0
  -26.8681  -30.7750   22.0100 H   0  0  0  0  0  0
  -28.1341  -28.8496   21.2289 H   0  0  0  0  0  0
  -25.9853  -25.8328   19.0171 H   0  0  0  0  0  0
  -24.0042  -27.2731   18.9845 H   0  0  0  0  0  0
  -23.8187  -30.5662   19.3934 H   0  0  0  0  0  0
  -22.7813  -29.2387   19.8393 H   0  0  0  0  0  0
  -25.1318  -36.1790   25.0843 H   0  0  0  0  0  0
  -21.0120  -28.3358   24.1269 H   0  0  0  0  0  0
  -20.6211  -26.2430   23.3482 H   0  0  0  0  0  0
  -21.6739  -26.7837   22.0777 H   0  0  0  0  0  0
  -19.6911  -25.6282   21.1254 H   0  0  0  0  0  0
  -19.6453  -27.3224   20.6755 H   0  0  0  0  0  0
  -17.4156  -26.6427   21.4406 H   0  0  0  0  0  0
  -18.0619  -26.0121   22.9362 H   0  0  0  0  0  0
  -19.8016  -30.7350   24.2258 H   0  0  0  0  0  0
  -17.5112  -31.6292   24.5276 H   0  0  0  0  0  0
  -15.5450  -30.3051   23.7746 H   0  0  0  0  0  0
  -15.8727  -28.0904   22.7115 H   0  0  0  0  0  0
  -24.6180  -30.6787   25.7781 H   0  0  0  0  0  0
  -24.9098  -32.2739   26.4817 H   0  0  0  0  0  0
  -25.8387  -30.8791   27.0170 H   0  0  0  0  0  0
  -26.3077  -29.6497   24.1329 H   0  0  0  0  0  0
  -27.4364  -29.7203   25.4628 H   0  0  0  0  0  0
  -27.8896  -30.4103   23.9304 H   0  0  0  0  0  0
  -27.2748  -33.3532   26.1951 H   0  0  0  0  0  0
  -28.4035  -32.6674   25.0335 H   0  0  0  0  0  0
  -28.0770  -31.8376   26.5413 H   0  0  0  0  0  0
  -28.2537  -38.0129   24.7668 H   0  0  0  0  0  0
  -28.1188  -36.2685   24.6090 H   0  0  0  0  0  0
  -27.2363  -37.1212   25.8848 H   0  0  0  0  0  0
  -20.9527  -29.8690   21.6577 H   0  0  0  0  0  0
  -26.0115  -38.2798   24.1496 H   0  0  0  0  0  0
  -27.5085  -20.3960   20.6209 H   0  0  0  0  0  0
  -31.7847  -20.4649   20.7276 H   0  0  0  0  0  0
  -27.5909  -17.9557   20.5206 H   0  0  0  0  0  0
  -31.8755  -18.0520   20.5252 H   0  0  0  0  0  0
  -30.5453  -22.3447   21.7182 H   0  0  0  0  0  0
  -30.7092  -24.2049   22.5911 H   0  0  0  0  0  0
  -29.2811  -25.1881   22.5335 H   0  0  0  0  0  0
  -30.5759  -25.4321   21.3486 H   0  0  0  0  0  0
  -27.2294  -24.3639   20.4735 H   0  0  0  0  0  0
  -28.2638  -24.4015   19.0690 H   0  0  0  0  0  0
  -28.7212  -15.8016   20.5986 H   0  0  0  0  0  0
  1 25  1  0  0  0
  1 30  2  0  0  0
  1 81  1  0  0  0
  2  3  1  0  0  0
  2 25  1  0  0  0
  2 82  1  0  0  0
  2 83  1  0  0  0
  3  4  1  0  0  0
  3 84  1  0  0  0
  3 85  1  0  0  0
  4  5  1  0  0  0
  4 86  1  0  0  0
  4 87  1  0  0  0
  5  6  1  0  0  0
  5 26  1  0  0  0
  5 88  1  0  0  0
  6 25  1  0  0  0
  6 89  1  0  0  0
  6 90  1  0  0  0
  7  8  2  0  0  0
  7 26  1  0  0  0
  7 29  1  0  0  0
  8  9  1  0  0  0
  8 22  1  0  0  0
  9 10  1  0  0  0
  9 27  2  0  0  0
 10 11  2  0  0  0
 10 15  1  0  0  0
 11 12  1  0  0  0
 11 91  1  0  0  0
 12 13  2  0  0  0
 12 92  1  0  0  0
 13 14  1  0  0  0
 13 31  1  0  0  0
 14 15  2  0  0  0
 14 93  1  0  0  0
 15 94  1  0  0  0
 16 17  2  0  0  0
 16 21  1  0  0  0
 16 31  1  0  0  0
 17 18  1  0  0  0
 17 95  1  0  0  0
 18 19  2  0  0  0
 18 96  1  0  0  0
 19 20  1  0  0  0
 19 24  1  0  0  0
 20 21  2  0  0  0
 20 97  1  0  0  0
 21 23  1  0  0  0
 22 28  1  0  0  0
 22 32  2  0  0  0
 26 27  1  0  0  0
 28 98  1  0  0  0
 28 99  1  0  0  0
 29100  1  0  0  0
 29101  1  0  0  0
 33 34  1  0  0  0
 33 66  1  0  0  0
 33 70  2  0  0  0
 34 36  1  0  0  0
 34 59  1  0  0  0
 34102  1  0  0  0
 35 44  2  0  0  0
 35 45  1  0  0  0
 35 68  1  0  0  0
 36 56  1  0  0  0
 36103  1  0  0  0
 37 39  1  0  0  0
 37 47  1  0  0  0
 37 66  1  0  0  0
 37104  1  0  0  0
 38 43  2  0  0  0
 38 46  1  0  0  0
 38 47  1  0  0  0
 39 64  1  0  0  0
 39 67  2  0  0  0
 40 52  1  0  0  0
 40 53  2  0  0  0
 40 58  1  0  0  0
 41105  1  0  0  0
 41106  1  0  0  0
 41107  1  0  0  0
 41 48  1  0  0  0
 42 43  1  0  0  0
 42 66  1  0  0  0
 42108  1  0  0  0
 42109  1  0  0  0
 43 44  1  0  0  0
 44110  1  0  0  0
 45 46  2  0  0  0
 45111  1  0  0  0
 46112  1  0  0  0
 47113  1  0  0  0
 47114  1  0  0  0
 48 56  1  0  0  0
 48 65  1  0  0  0
 48115  1  0  0  0
 49 50  1  0  0  0
 49 53  1  0  0  0
 49 64  1  0  0  0
 49116  1  0  0  0
 50 51  1  0  0  0
 50117  1  0  0  0
 50118  1  0  0  0
 51 52  1  0  0  0
 51119  1  0  0  0
 51120  1  0  0  0
 52121  1  0  0  0
 52122  1  0  0  0
 53 54  1  0  0  0
 54 55  2  0  0  0
 54123  1  0  0  0
 55 57  1  0  0  0
 55124  1  0  0  0
 56 69  2  0  0  0
 57 58  2  0  0  0
 57125  1  0  0  0
 58126  1  0  0  0
 59 60  1  0  0  0
 59 61  1  0  0  0
 59 62  1  0  0  0
 60127  1  0  0  0
 60128  1  0  0  0
 60129  1  0  0  0
 61130  1  0  0  0
 61131  1  0  0  0
 61132  1  0  0  0
 62133  1  0  0  0
 62134  1  0  0  0
 62135  1  0  0  0
 63 65  1  0  0  0
 63136  1  0  0  0
 63137  1  0  0  0
 63138  1  0  0  0
 64139  1  0  0  0
 65140  1  0  0  0
 68 80  1  0  0  0
 71 73  2  0  0  0
 71 75  1  0  0  0
 71141  1  0  0  0
 72 74  1  0  0  0
 72 75  2  0  0  0
 72142  1  0  0  0
 73 76  1  0  0  0
 73143  1  0  0  0
 74 76  2  0  0  0
 74144  1  0  0  0
 75 77  1  0  0  0
 76 81  1  0  0  0
 77 78  2  0  0  0
 77145  1  0  0  0
 78 79  1  0  0  0
 78 80  1  0  0  0
 79146  1  0  0  0
 79147  1  0  0  0
 79148  1  0  0  0
 80149  1  0  0  0
 80150  1  0  0  0
 81151  1  0  0  0
M  ISO  4   1 100  68 101  80 101  81 100
M  END
> <chiral flag>
0

> <version>
0

> <s_m_source_file>
/data/baiqing/PycharmProjects/Reinvent-master-3.2/result/LINK_invent/BTK/process_docking_weight1_custom_product_contain_oxygen_bond_distance_aromatic_linkinvent_7_9_3/rearranged_h_0059.sdf

> <i_m_source_file_index>
34

> <r_mmod_Potential_Energy-OPLS-2005>
599.233581542969

> <r_mmod_Stretch_Energy-OPLS-2005>
242.449722290039

> <r_mmod_Bend_Energy-OPLS-2005>
351.678741455078

> <r_mmod_Torsional_Energy-OPLS-2005>
233.759719848633

> <r_mmod_Improper_Torsional_Energy-OPLS-2005>
6.63045167922974

> <r_mmod_Van_der_Waal_Energy-OPLS-2005>
133.304000854492

> <r_mmod_Electrostatic_Energy-OPLS-2005>
-361.577697753906

> <r_mmod_Solvation_Energy-OPLS-2005>
-205.367095947266

> <b_mmod_Minimization_Converged-OPLS-2005>
0

> <r_mmod_RMS_Derivative-OPLS-2005>
6.88916349411011

$$$$
34
                    3D
 Structure written by MMmdl.
155163  0  0  1  0            999 V2000
  -30.6532  -14.5827   20.5240 C   0  0  0  0  0  0
  -30.4392  -12.3635   19.4443 C   0  0  0  0  0  0
  -29.5117  -12.5129   18.2180 C   0  0  0  0  0  0
  -28.0316  -12.3598   18.6246 C   0  0  0  0  0  0
  -27.6604  -13.2135   19.8660 C   0  0  2  0  0  0
  -28.7025  -13.0458   20.9957 C   0  0  0  0  0  0
  -25.2586  -13.8152   20.5660 C   0  0  0  0  0  0
  -24.1835  -13.0439   20.9179 C   0  0  0  0  0  0
  -24.6411  -11.6911   20.8732 C   0  0  0  0  0  0
  -23.9072  -10.4305   21.0410 C   0  0  0  0  0  0
  -24.3608   -9.4220   21.9202 C   0  0  0  0  0  0
  -23.6302   -8.2237   22.0753 C   0  0  0  0  0  0
  -22.4296   -8.0277   21.3528 C   0  0  0  0  0  0
  -21.9937   -9.0245   20.4625 C   0  0  0  0  0  0
  -22.7256  -10.2135   20.3047 C   0  0  0  0  0  0
  -21.6850   -6.0739   22.5281 C   0  0  0  0  0  0
  -21.4007   -6.5639   23.8212 C   0  0  0  0  0  0
  -21.3675   -5.6785   24.9171 C   0  0  0  0  0  0
  -21.6053   -4.3044   24.7216 C   0  0  0  0  0  0
  -21.8822   -3.8138   23.4328 C   0  0  0  0  0  0
  -21.9180   -4.6968   22.3389 C   0  0  0  0  0  0
  -22.7852  -13.5233   21.1831 C   0  0  0  0  0  0
  -22.1655   -4.2154   21.0973 F   0  0  0  0  0  0
  -21.5648   -3.4531   25.7729 F   0  0  0  0  0  0
  -30.0275  -13.3701   20.4397 N   0  0  0  0  0  0
  -26.3026  -12.9344   20.3308 N   0  0  0  0  0  0
  -25.9335  -11.6504   20.5716 N   0  0  0  0  0  0
  -22.0448  -12.8253   22.0371 N   0  0  0  0  0  0
  -25.4318  -15.1866   20.4081 N   0  0  0  0  0  0
  -31.8062  -14.7565   20.1158 O   0  0  0  0  0  0
  -21.6632   -6.8893   21.4243 O   0  0  0  0  0  0
  -22.3568  -14.5545   20.6682 O   0  0  0  0  0  0
  -24.6245  -31.8598   23.2088 C   0  0  0  0  0  0
  -25.9115  -32.4770   23.8391 C   0  0  1  0  0  0
  -27.2273  -27.3520   20.1198 C   0  0  0  0  0  0
  -25.5967  -33.8569   24.2349 N   0  0  0  0  0  0
  -23.4167  -30.4877   21.5464 C   0  0  2  0  0  0
  -24.8635  -28.9446   20.1181 C   0  0  0  0  0  0
  -22.7447  -29.4635   22.4927 C   0  0  0  0  0  0
  -18.0282  -28.1371   22.8463 C   0  0  0  0  0  0
  -24.1488  -36.7274   23.2644 C   0  0  0  0  0  0
  -25.9566  -30.8016   21.3759 C   0  0  0  0  0  0
  -26.0297  -29.4313   20.7223 C   0  0  0  0  0  0
  -27.2155  -28.6447   20.7151 C   0  0  0  0  0  0
  -26.0393  -26.9105   19.4907 C   0  0  0  0  0  0
  -24.8682  -27.6871   19.4969 C   0  0  0  0  0  0
  -23.6328  -29.8229   20.1613 C   0  0  0  0  0  0
  -25.4107  -36.3077   24.0355 C   0  0  1  0  0  0
  -20.5878  -28.3670   23.1264 C   0  0  2  0  0  0
  -20.6763  -26.9396   22.5379 C   0  0  0  0  0  0
  -19.5750  -26.6371   21.5177 C   0  0  0  0  0  0
  -18.1929  -26.7926   22.1584 C   0  0  0  0  0  0
  -19.1530  -28.8840   23.2863 C   0  0  0  0  0  0
  -18.9460  -30.1439   23.8876 C   0  0  0  0  0  0
  -17.6463  -30.6578   24.0552 C   0  0  0  0  0  0
  -25.9038  -34.9442   23.5135 C   0  0  0  0  0  0
  -16.5351  -29.9068   23.6338 C   0  0  0  0  0  0
  -16.7266  -28.6486   23.0355 C   0  0  0  0  0  0
  -26.4540  -31.6561   25.0733 C   0  0  0  0  0  0
  -25.3809  -31.3634   26.1477 C   0  0  0  0  0  0
  -27.0433  -30.3015   24.6159 C   0  0  0  0  0  0
  -27.6117  -32.4275   25.7498 C   0  0  0  0  0  0
  -27.5590  -37.1784   24.8472 C   0  0  0  0  0  0
  -21.4166  -29.3039   22.3667 N   0  0  0  0  0  0
  -26.4289  -37.3774   23.9440 N   0  0  0  0  0  0
  -24.6844  -31.0656   22.1008 N   0  0  0  0  0  0
  -23.4185  -28.8153   23.2981 O   0  0  0  0  0  0
  -28.3672  -26.5465   20.1445 O   0  0  0  0  0  0
  -26.5550  -34.8902   22.4673 O   0  0  0  0  0  0
  -23.5415  -32.1364   23.7449 O   0  0  0  0  0  0
  -30.7709  -17.8430   21.6022 C   0  0  0  0  0  0
  -30.8580  -19.2527   21.4364 C   0  0  0  0  0  0
  -29.4716  -19.1111   19.4570 C   0  0  0  0  0  0
  -29.3822  -17.6955   19.6148 C   0  0  0  0  0  0
  -30.0427  -17.0372   20.6918 C   0  0  0  0  0  0
  -30.2134  -19.9088   20.3610 C   0  0  0  0  0  0
  -28.5936  -16.8980   18.5877 C   0  0  0  0  0  0
  -29.4634  -24.2181   20.2257 C   0  0  0  0  0  0
  -28.1785  -25.1096   20.3787 C   0  0  0  0  0  0
  -29.8737  -15.6198   20.9330 N   0  0  0  0  0  0
  -29.2425  -22.7335   20.3826 N   0  0  0  0  0  0
  -31.6797  -22.1132   20.8825 O   0  0  0  0  0  0
  -30.7848  -21.8163   18.5390 O   0  0  0  0  0  0
  -30.5890  -21.6836   19.9924 S   0  0  0  0  0  0
  -31.4821  -12.4826   19.1449 H   0  0  0  0  0  0
  -30.3626  -11.3622   19.8701 H   0  0  0  0  0  0
  -29.7719  -11.7715   17.4620 H   0  0  0  0  0  0
  -29.6659  -13.4876   17.7525 H   0  0  0  0  0  0
  -27.8498  -11.3065   18.8337 H   0  0  0  0  0  0
  -27.3829  -12.6159   17.7858 H   0  0  0  0  0  0
  -27.6851  -14.2522   19.5417 H   0  0  0  0  0  0
  -28.6980  -12.0212   21.3716 H   0  0  0  0  0  0
  -28.4501  -13.6725   21.8524 H   0  0  0  0  0  0
  -25.2742   -9.5709   22.4790 H   0  0  0  0  0  0
  -24.0000   -7.4637   22.7488 H   0  0  0  0  0  0
  -21.0864   -8.8788   19.8926 H   0  0  0  0  0  0
  -22.3737  -10.9677   19.6147 H   0  0  0  0  0  0
  -21.2000   -7.6156   23.9733 H   0  0  0  0  0  0
  -21.1510   -6.0502   25.9087 H   0  0  0  0  0  0
  -22.0588   -2.7606   23.2806 H   0  0  0  0  0  0
  -22.4014  -11.9917   22.4807 H   0  0  0  0  0  0
  -21.1055  -13.1309   22.2512 H   0  0  0  0  0  0
  -24.6663  -15.8434   20.5192 H   0  0  0  0  0  0
  -26.2872  -15.6217   20.0876 H   0  0  0  0  0  0
  -26.7181  -32.5465   23.1138 H   0  0  0  0  0  0
  -25.0280  -33.9706   25.0609 H   0  0  0  0  0  0
  -22.7115  -31.3094   21.4035 H   0  0  0  0  0  0
  -23.3771  -35.9586   23.3265 H   0  0  0  0  0  0
  -24.3599  -36.8908   22.2067 H   0  0  0  0  0  0
  -23.7196  -37.6454   23.6665 H   0  0  0  0  0  0
  -26.0866  -31.5662   20.6091 H   0  0  0  0  0  0
  -26.8362  -30.8484   22.0058 H   0  0  0  0  0  0
  -28.1133  -29.0083   21.1954 H   0  0  0  0  0  0
  -25.9872  -25.9661   18.9720 H   0  0  0  0  0  0
  -23.9748  -27.3104   19.0173 H   0  0  0  0  0  0
  -23.7602  -30.5980   19.4044 H   0  0  0  0  0  0
  -22.7523  -29.2554   19.8532 H   0  0  0  0  0  0
  -25.1281  -36.1933   25.0846 H   0  0  0  0  0  0
  -20.9978  -28.3233   24.1384 H   0  0  0  0  0  0
  -20.5637  -26.2283   23.3565 H   0  0  0  0  0  0
  -21.6638  -26.7413   22.1194 H   0  0  0  0  0  0
  -19.6906  -25.6274   21.1225 H   0  0  0  0  0  0
  -19.6713  -27.3152   20.6685 H   0  0  0  0  0  0
  -17.4202  -26.6670   21.3979 H   0  0  0  0  0  0
  -18.0332  -26.0057   22.8965 H   0  0  0  0  0  0
  -19.7941  -30.7249   24.2240 H   0  0  0  0  0  0
  -17.5026  -31.6253   24.5148 H   0  0  0  0  0  0
  -15.5350  -30.2963   23.7688 H   0  0  0  0  0  0
  -15.8660  -28.0797   22.7098 H   0  0  0  0  0  0
  -24.5997  -30.6970   25.7791 H   0  0  0  0  0  0
  -24.8990  -32.2772   26.4966 H   0  0  0  0  0  0
  -25.8175  -30.8765   27.0209 H   0  0  0  0  0  0
  -26.3001  -29.6665   24.1320 H   0  0  0  0  0  0
  -27.4328  -29.7352   25.4629 H   0  0  0  0  0  0
  -27.8779  -30.4337   23.9268 H   0  0  0  0  0  0
  -27.2773  -33.3579   26.2091 H   0  0  0  0  0  0
  -28.3943  -32.6798   25.0332 H   0  0  0  0  0  0
  -28.0786  -31.8377   26.5397 H   0  0  0  0  0  0
  -28.2573  -38.0114   24.7580 H   0  0  0  0  0  0
  -28.1112  -36.2650   24.6225 H   0  0  0  0  0  0
  -27.2313  -37.1333   25.8869 H   0  0  0  0  0  0
  -20.9327  -29.8787   21.6907 H   0  0  0  0  0  0
  -26.0167  -38.2846   24.1455 H   0  0  0  0  0  0
  -31.2805  -17.3830   22.4369 H   0  0  0  0  0  0
  -31.4623  -19.8326   22.1194 H   0  0  0  0  0  0
  -29.0099  -19.5949   18.6085 H   0  0  0  0  0  0
  -28.4192  -17.4824   17.6844 H   0  0  0  0  0  0
  -27.6204  -16.6111   18.9843 H   0  0  0  0  0  0
  -29.1309  -15.9956   18.2886 H   0  0  0  0  0  0
  -30.2257  -24.5362   20.9390 H   0  0  0  0  0  0
  -29.8871  -24.3952   19.2362 H   0  0  0  0  0  0
  -27.7749  -24.9893   21.3875 H   0  0  0  0  0  0
  -27.4380  -24.6909   19.7012 H   0  0  0  0  0  0
  -28.9550  -15.3393   21.2400 H   0  0  0  0  0  0
  -28.4265  -22.4278   19.8478 H   0  0  0  0  0  0
  1 25  1  0  0  0
  1 30  2  0  0  0
  1 80  1  0  0  0
  2  3  1  0  0  0
  2 25  1  0  0  0
  2 85  1  0  0  0
  2 86  1  0  0  0
  3  4  1  0  0  0
  3 87  1  0  0  0
  3 88  1  0  0  0
  4  5  1  0  0  0
  4 89  1  0  0  0
  4 90  1  0  0  0
  5  6  1  0  0  0
  5 26  1  0  0  0
  5 91  1  0  0  0
  6 25  1  0  0  0
  6 92  1  0  0  0
  6 93  1  0  0  0
  7  8  2  0  0  0
  7 26  1  0  0  0
  7 29  1  0  0  0
  8  9  1  0  0  0
  8 22  1  0  0  0
  9 10  1  0  0  0
  9 27  2  0  0  0
 10 11  2  0  0  0
 10 15  1  0  0  0
 11 12  1  0  0  0
 11 94  1  0  0  0
 12 13  2  0  0  0
 12 95  1  0  0  0
 13 14  1  0  0  0
 13 31  1  0  0  0
 14 15  2  0  0  0
 14 96  1  0  0  0
 15 97  1  0  0  0
 16 17  2  0  0  0
 16 21  1  0  0  0
 16 31  1  0  0  0
 17 18  1  0  0  0
 17 98  1  0  0  0
 18 19  2  0  0  0
 18 99  1  0  0  0
 19 20  1  0  0  0
 19 24  1  0  0  0
 20 21  2  0  0  0
 20100  1  0  0  0
 21 23  1  0  0  0
 22 28  1  0  0  0
 22 32  2  0  0  0
 26 27  1  0  0  0
 28101  1  0  0  0
 28102  1  0  0  0
 29103  1  0  0  0
 29104  1  0  0  0
 33 34  1  0  0  0
 33 66  1  0  0  0
 33 70  2  0  0  0
 34 36  1  0  0  0
 34 59  1  0  0  0
 34105  1  0  0  0
 35 44  2  0  0  0
 35 45  1  0  0  0
 35 68  1  0  0  0
 36 56  1  0  0  0
 36106  1  0  0  0
 37 39  1  0  0  0
 37 47  1  0  0  0
 37 66  1  0  0  0
 37107  1  0  0  0
 38 43  2  0  0  0
 38 46  1  0  0  0
 38 47  1  0  0  0
 39 64  1  0  0  0
 39 67  2  0  0  0
 40 52  1  0  0  0
 40 53  2  0  0  0
 40 58  1  0  0  0
 41108  1  0  0  0
 41109  1  0  0  0
 41110  1  0  0  0
 41 48  1  0  0  0
 42 43  1  0  0  0
 42 66  1  0  0  0
 42111  1  0  0  0
 42112  1  0  0  0
 43 44  1  0  0  0
 44113  1  0  0  0
 45 46  2  0  0  0
 45114  1  0  0  0
 46115  1  0  0  0
 47116  1  0  0  0
 47117  1  0  0  0
 48 56  1  0  0  0
 48 65  1  0  0  0
 48118  1  0  0  0
 49 50  1  0  0  0
 49 53  1  0  0  0
 49 64  1  0  0  0
 49119  1  0  0  0
 50 51  1  0  0  0
 50120  1  0  0  0
 50121  1  0  0  0
 51 52  1  0  0  0
 51122  1  0  0  0
 51123  1  0  0  0
 52124  1  0  0  0
 52125  1  0  0  0
 53 54  1  0  0  0
 54 55  2  0  0  0
 54126  1  0  0  0
 55 57  1  0  0  0
 55127  1  0  0  0
 56 69  2  0  0  0
 57 58  2  0  0  0
 57128  1  0  0  0
 58129  1  0  0  0
 59 60  1  0  0  0
 59 61  1  0  0  0
 59 62  1  0  0  0
 60130  1  0  0  0
 60131  1  0  0  0
 60132  1  0  0  0
 61133  1  0  0  0
 61134  1  0  0  0
 61135  1  0  0  0
 62136  1  0  0  0
 62137  1  0  0  0
 62138  1  0  0  0
 63 65  1  0  0  0
 63139  1  0  0  0
 63140  1  0  0  0
 63141  1  0  0  0
 64142  1  0  0  0
 65143  1  0  0  0
 68 79  1  0  0  0
 71 72  2  0  0  0
 71 75  1  0  0  0
 71144  1  0  0  0
 72 76  1  0  0  0
 72145  1  0  0  0
 73 74  1  0  0  0
 73 76  2  0  0  0
 73146  1  0  0  0
 74 75  2  0  0  0
 74 77  1  0  0  0
 75 80  1  0  0  0
 76 84  1  0  0  0
 77147  1  0  0  0
 77148  1  0  0  0
 77149  1  0  0  0
 78 79  1  0  0  0
 78 81  1  0  0  0
 78150  1  0  0  0
 78151  1  0  0  0
 79152  1  0  0  0
 79153  1  0  0  0
 80154  1  0  0  0
 81155  1  0  0  0
 81 84  1  0  0  0
 82 84  2  0  0  0
 83 84  2  0  0  0
M  ISO  4   1 100  68 101  79 101  80 100
M  END
> <chiral flag>
0

> <version>
0

> <s_m_source_file>
/data/baiqing/PycharmProjects/Reinvent-master-3.2/result/LINK_invent/BTK/process_docking_weight1_custom_product_contain_oxygen_bond_distance_aromatic_linkinvent_7_9_3/rearranged_h_0059.sdf

> <i_m_source_file_index>
35

> <r_mmod_Potential_Energy-OPLS-2005>
-104.860496520996

> <r_mmod_Stretch_Energy-OPLS-2005>
59.8701705932617

> <r_mmod_Bend_Energy-OPLS-2005>
116.275253295898

> <r_mmod_Torsional_Energy-OPLS-2005>
262.450439453125

> <r_mmod_Improper_Torsional_Energy-OPLS-2005>
11.4077348709106

> <r_mmod_Van_der_Waal_Energy-OPLS-2005>
134.907043457031

> <r_mmod_Electrostatic_Energy-OPLS-2005>
-467.158081054688

> <r_mmod_Solvation_Energy-OPLS-2005>
-255.205429077148

> <b_mmod_Minimization_Converged-OPLS-2005>
0

> <r_mmod_RMS_Derivative-OPLS-2005>
2.76714682579041

$$$$
35
                    3D
 Structure written by MMmdl.
164173  0  0  1  0            999 V2000
  -30.6805  -14.5567   20.4716 C   0  0  0  0  0  0
  -30.4163  -12.3314   19.4539 C   0  0  0  0  0  0
  -29.4989  -12.4837   18.2217 C   0  0  0  0  0  0
  -28.0197  -12.3460   18.6322 C   0  0  0  0  0  0
  -27.6514  -13.2187   19.8620 C   0  0  2  0  0  0
  -28.6944  -13.0779   20.9945 C   0  0  0  0  0  0
  -25.2545  -13.8189   20.5696 C   0  0  0  0  0  0
  -24.1815  -13.0451   20.9206 C   0  0  0  0  0  0
  -24.6378  -11.6921   20.8738 C   0  0  0  0  0  0
  -23.9048  -10.4300   21.0403 C   0  0  0  0  0  0
  -24.3601   -9.4216   21.9179 C   0  0  0  0  0  0
  -23.6280   -8.2250   22.0752 C   0  0  0  0  0  0
  -22.4263   -8.0287   21.3545 C   0  0  0  0  0  0
  -21.9893   -9.0259   20.4648 C   0  0  0  0  0  0
  -22.7222  -10.2138   20.3055 C   0  0  0  0  0  0
  -21.6855   -6.0732   22.5276 C   0  0  0  0  0  0
  -21.4022   -6.5634   23.8213 C   0  0  0  0  0  0
  -21.3659   -5.6787   24.9171 C   0  0  0  0  0  0
  -21.6041   -4.3050   24.7223 C   0  0  0  0  0  0
  -21.8816   -3.8140   23.4345 C   0  0  0  0  0  0
  -21.9194   -4.6956   22.3402 C   0  0  0  0  0  0
  -22.7836  -13.5245   21.1863 C   0  0  0  0  0  0
  -22.1661   -4.2142   21.0980 F   0  0  0  0  0  0
  -21.5621   -3.4535   25.7736 F   0  0  0  0  0  0
  -30.0172  -13.3659   20.4254 N   0  0  0  0  0  0
  -26.2972  -12.9376   20.3320 N   0  0  0  0  0  0
  -25.9309  -11.6527   20.5763 N   0  0  0  0  0  0
  -22.0469  -12.8243   22.0416 N   0  0  0  0  0  0
  -25.4261  -15.1911   20.4122 N   0  0  0  0  0  0
  -31.8715  -14.6366   20.1617 O   0  0  0  0  0  0
  -21.6638   -6.8876   21.4240 O   0  0  0  0  0  0
  -22.3523  -14.5553   20.6711 O   0  0  0  0  0  0
  -24.6180  -31.8653   23.2071 C   0  0  0  0  0  0
  -25.9055  -32.4811   23.8385 C   0  0  1  0  0  0
  -27.2314  -27.3959   20.1121 C   0  0  0  0  0  0
  -25.5891  -33.8607   24.2315 N   0  0  0  0  0  0
  -23.4098  -30.4868   21.5475 C   0  0  2  0  0  0
  -24.8593  -28.9459   20.1153 C   0  0  0  0  0  0
  -22.7438  -29.4641   22.4970 C   0  0  0  0  0  0
  -18.0279  -28.1381   22.8489 C   0  0  0  0  0  0
  -24.1481  -36.7309   23.2642 C   0  0  0  0  0  0
  -25.9423  -30.8190   21.3667 C   0  0  0  0  0  0
  -26.0212  -29.4493   20.7160 C   0  0  0  0  0  0
  -27.2140  -28.6822   20.7105 C   0  0  0  0  0  0
  -26.0576  -26.9161   19.5005 C   0  0  0  0  0  0
  -24.8741  -27.6802   19.5024 C   0  0  0  0  0  0
  -23.6222  -29.8167   20.1633 C   0  0  0  0  0  0
  -25.4102  -36.3104   24.0341 C   0  0  1  0  0  0
  -20.5873  -28.3673   23.1302 C   0  0  2  0  0  0
  -20.6766  -26.9405   22.5415 C   0  0  0  0  0  0
  -19.5745  -26.6383   21.5210 C   0  0  0  0  0  0
  -18.1924  -26.7928   22.1622 C   0  0  0  0  0  0
  -19.1529  -28.8843   23.2896 C   0  0  0  0  0  0
  -18.9453  -30.1442   23.8917 C   0  0  0  0  0  0
  -17.6455  -30.6587   24.0564 C   0  0  0  0  0  0
  -25.9028  -34.9467   23.5132 C   0  0  0  0  0  0
  -16.5349  -29.9089   23.6324 C   0  0  0  0  0  0
  -16.7265  -28.6503   23.0351 C   0  0  0  0  0  0
  -26.4473  -31.6603   25.0726 C   0  0  0  0  0  0
  -25.3730  -31.3722   26.1471 C   0  0  0  0  0  0
  -27.0316  -30.3044   24.6124 C   0  0  0  0  0  0
  -27.6045  -32.4336   25.7481 C   0  0  0  0  0  0
  -27.5578  -37.1808   24.8466 C   0  0  0  0  0  0
  -21.4157  -29.3036   22.3706 N   0  0  0  0  0  0
  -26.4291  -37.3788   23.9409 N   0  0  0  0  0  0
  -24.6751  -31.0723   22.0983 N   0  0  0  0  0  0
  -23.4187  -28.8185   23.3031 O   0  0  0  0  0  0
  -28.3540  -26.5878   20.1046 O   0  0  0  0  0  0
  -26.5597  -34.8924   22.4694 O   0  0  0  0  0  0
  -23.5361  -32.1412   23.7442 O   0  0  0  0  0  0
  -31.1225  -18.4172   18.3440 C   0  0  0  0  0  0
  -30.9524  -17.1604   18.9446 C   0  0  0  0  0  0
  -29.4950  -18.1681   20.6053 C   0  0  0  0  0  0
  -30.4783  -19.5609   18.8510 C   0  0  0  0  0  0
  -29.6563  -19.4627   20.0051 C   0  0  0  0  0  0
  -30.1432  -16.9978   20.0945 C   0  0  0  0  0  0
  -30.7424  -21.9624   21.6655 C   0  0  0  0  0  0
  -31.4756  -23.2886   21.5699 C   0  0  0  0  0  0
  -30.8327  -23.9299   20.3402 C   0  0  0  0  0  0
  -29.4321  -23.2926   20.2549 C   0  0  2  0  0  0
  -30.6771  -20.8661   18.1006 C   0  0  0  0  0  0
  -28.8930  -20.7095   20.5530 C   0  0  0  0  0  0
  -28.3227  -24.1286   21.0018 C   0  0  0  0  0  0
  -28.4643  -25.6827   21.2295 C   0  0  0  0  0  0
  -29.6699  -21.9442   20.8572 N   0  0  0  0  0  0
  -29.9295  -15.6782   20.6715 N   0  0  0  0  0  0
  -31.1405  -21.0376   22.3788 O   0  0  0  0  0  0
  -31.4634  -12.4122   19.1578 H   0  0  0  0  0  0
  -30.3096  -11.3391   19.8945 H   0  0  0  0  0  0
  -29.7488  -11.7324   17.4721 H   0  0  0  0  0  0
  -29.6643  -13.4538   17.7495 H   0  0  0  0  0  0
  -27.8407  -11.2942   18.8588 H   0  0  0  0  0  0
  -27.3695  -12.5886   17.7907 H   0  0  0  0  0  0
  -27.6727  -14.2535   19.5195 H   0  0  0  0  0  0
  -28.6793  -12.0694   21.4109 H   0  0  0  0  0  0
  -28.4619  -13.7481   21.8235 H   0  0  0  0  0  0
  -25.2745   -9.5689   22.4756 H   0  0  0  0  0  0
  -23.9989   -7.4634   22.7467 H   0  0  0  0  0  0
  -21.0825   -8.8778   19.8949 H   0  0  0  0  0  0
  -22.3682  -10.9674   19.6163 H   0  0  0  0  0  0
  -21.2026   -7.6145   23.9716 H   0  0  0  0  0  0
  -21.1482   -6.0516   25.9074 H   0  0  0  0  0  0
  -22.0594   -2.7603   23.2849 H   0  0  0  0  0  0
  -22.4083  -11.9914   22.4825 H   0  0  0  0  0  0
  -21.1083  -13.1273   22.2615 H   0  0  0  0  0  0
  -24.6586  -15.8449   20.5249 H   0  0  0  0  0  0
  -26.2743  -15.6304   20.0767 H   0  0  0  0  0  0
  -26.7128  -32.5515   23.1149 H   0  0  0  0  0  0
  -25.0048  -33.9762   25.0467 H   0  0  0  0  0  0
  -22.7004  -31.3047   21.4053 H   0  0  0  0  0  0
  -23.3739  -35.9647   23.3316 H   0  0  0  0  0  0
  -24.3577  -36.8911   22.2055 H   0  0  0  0  0  0
  -23.7239  -37.6520   23.6649 H   0  0  0  0  0  0
  -26.0591  -31.5826   20.5963 H   0  0  0  0  0  0
  -26.8285  -30.8746   21.9875 H   0  0  0  0  0  0
  -28.1121  -29.0649   21.1748 H   0  0  0  0  0  0
  -26.0588  -25.9417   19.0326 H   0  0  0  0  0  0
  -23.9816  -27.2871   19.0350 H   0  0  0  0  0  0
  -23.7335  -30.5911   19.4033 H   0  0  0  0  0  0
  -22.7457  -29.2381   19.8666 H   0  0  0  0  0  0
  -25.1280  -36.1972   25.0837 H   0  0  0  0  0  0
  -20.9966  -28.3240   24.1423 H   0  0  0  0  0  0
  -20.5659  -26.2284   23.3606 H   0  0  0  0  0  0
  -21.6637  -26.7435   22.1215 H   0  0  0  0  0  0
  -19.6906  -25.6293   21.1242 H   0  0  0  0  0  0
  -19.6687  -27.3191   20.6739 H   0  0  0  0  0  0
  -17.4193  -26.6673   21.4024 H   0  0  0  0  0  0
  -18.0325  -26.0067   22.9016 H   0  0  0  0  0  0
  -19.7928  -30.7248   24.2308 H   0  0  0  0  0  0
  -17.5011  -31.6269   24.5157 H   0  0  0  0  0  0
  -15.5349  -30.2999   23.7634 H   0  0  0  0  0  0
  -15.8664  -28.0822   22.7069 H   0  0  0  0  0  0
  -24.5884  -30.7096   25.7803 H   0  0  0  0  0  0
  -24.8941  -32.2885   26.4934 H   0  0  0  0  0  0
  -25.8062  -30.8871   27.0226 H   0  0  0  0  0  0
  -26.2873  -29.6801   24.1166 H   0  0  0  0  0  0
  -27.4075  -29.7286   25.4592 H   0  0  0  0  0  0
  -27.8709  -30.4369   23.9293 H   0  0  0  0  0  0
  -27.2660  -33.3627   26.2081 H   0  0  0  0  0  0
  -28.3828  -32.6921   25.0289 H   0  0  0  0  0  0
  -28.0746  -31.8458   26.5376 H   0  0  0  0  0  0
  -28.2607  -38.0094   24.7502 H   0  0  0  0  0  0
  -28.1063  -36.2628   24.6302 H   0  0  0  0  0  0
  -27.2301  -37.1475   25.8872 H   0  0  0  0  0  0
  -20.9327  -29.8755   21.6921 H   0  0  0  0  0  0
  -26.0182  -38.2870   24.1398 H   0  0  0  0  0  0
  -31.7446  -18.4906   17.4624 H   0  0  0  0  0  0
  -31.4487  -16.3252   18.4733 H   0  0  0  0  0  0
  -28.8534  -18.0731   21.4700 H   0  0  0  0  0  0
  -32.5511  -23.1550   21.4534 H   0  0  0  0  0  0
  -31.2844  -23.8703   22.4720 H   0  0  0  0  0  0
  -31.4107  -23.6574   19.4568 H   0  0  0  0  0  0
  -30.8441  -25.0173   20.3644 H   0  0  0  0  0  0
  -29.1481  -23.2024   19.2062 H   0  0  0  0  0  0
  -31.1113  -20.6982   17.1144 H   0  0  0  0  0  0
  -31.3579  -21.5150   18.6476 H   0  0  0  0  0  0
  -29.7293  -21.3796   17.9468 H   0  0  0  0  0  0
  -28.3723  -20.4212   21.4673 H   0  0  0  0  0  0
  -28.1078  -20.9636   19.8413 H   0  0  0  0  0  0
  -28.2204  -23.7016   22.0008 H   0  0  0  0  0  0
  -27.3618  -23.9318   20.5256 H   0  0  0  0  0  0
  -29.4033  -25.8990   21.7375 H   0  0  0  0  0  0
  -27.7114  -25.9548   21.9723 H   0  0  0  0  0  0
  -29.0290  -15.5245   21.0986 H   0  0  0  0  0  0
  1 25  1  0  0  0
  1 30  2  0  0  0
  1 86  1  0  0  0
  2  3  1  0  0  0
  2 25  1  0  0  0
  2 88  1  0  0  0
  2 89  1  0  0  0
  3  4  1  0  0  0
  3 90  1  0  0  0
  3 91  1  0  0  0
  4  5  1  0  0  0
  4 92  1  0  0  0
  4 93  1  0  0  0
  5  6  1  0  0  0
  5 26  1  0  0  0
  5 94  1  0  0  0
  6 25  1  0  0  0
  6 95  1  0  0  0
  6 96  1  0  0  0
  7  8  2  0  0  0
  7 26  1  0  0  0
  7 29  1  0  0  0
  8  9  1  0  0  0
  8 22  1  0  0  0
  9 10  1  0  0  0
  9 27  2  0  0  0
 10 11  2  0  0  0
 10 15  1  0  0  0
 11 12  1  0  0  0
 11 97  1  0  0  0
 12 13  2  0  0  0
 12 98  1  0  0  0
 13 14  1  0  0  0
 13 31  1  0  0  0
 14 15  2  0  0  0
 14 99  1  0  0  0
 15100  1  0  0  0
 16 17  2  0  0  0
 16 21  1  0  0  0
 16 31  1  0  0  0
 17 18  1  0  0  0
 17101  1  0  0  0
 18 19  2  0  0  0
 18102  1  0  0  0
 19 20  1  0  0  0
 19 24  1  0  0  0
 20 21  2  0  0  0
 20103  1  0  0  0
 21 23  1  0  0  0
 22 28  1  0  0  0
 22 32  2  0  0  0
 26 27  1  0  0  0
 28104  1  0  0  0
 28105  1  0  0  0
 29106  1  0  0  0
 29107  1  0  0  0
 33 34  1  0  0  0
 33 66  1  0  0  0
 33 70  2  0  0  0
 34 36  1  0  0  0
 34 59  1  0  0  0
 34108  1  0  0  0
 35 44  2  0  0  0
 35 45  1  0  0  0
 35 68  1  0  0  0
 36 56  1  0  0  0
 36109  1  0  0  0
 37 39  1  0  0  0
 37 47  1  0  0  0
 37 66  1  0  0  0
 37110  1  0  0  0
 38 43  2  0  0  0
 38 46  1  0  0  0
 38 47  1  0  0  0
 39 64  1  0  0  0
 39 67  2  0  0  0
 40 52  1  0  0  0
 40 53  2  0  0  0
 40 58  1  0  0  0
 41111  1  0  0  0
 41112  1  0  0  0
 41113  1  0  0  0
 41 48  1  0  0  0
 42 43  1  0  0  0
 42 66  1  0  0  0
 42114  1  0  0  0
 42115  1  0  0  0
 43 44  1  0  0  0
 44116  1  0  0  0
 45 46  2  0  0  0
 45117  1  0  0  0
 46118  1  0  0  0
 47119  1  0  0  0
 47120  1  0  0  0
 48 56  1  0  0  0
 48 65  1  0  0  0
 48121  1  0  0  0
 49 50  1  0  0  0
 49 53  1  0  0  0
 49 64  1  0  0  0
 49122  1  0  0  0
 50 51  1  0  0  0
 50123  1  0  0  0
 50124  1  0  0  0
 51 52  1  0  0  0
 51125  1  0  0  0
 51126  1  0  0  0
 52127  1  0  0  0
 52128  1  0  0  0
 53 54  1  0  0  0
 54 55  2  0  0  0
 54129  1  0  0  0
 55 57  1  0  0  0
 55130  1  0  0  0
 56 69  2  0  0  0
 57 58  2  0  0  0
 57131  1  0  0  0
 58132  1  0  0  0
 59 60  1  0  0  0
 59 61  1  0  0  0
 59 62  1  0  0  0
 60133  1  0  0  0
 60134  1  0  0  0
 60135  1  0  0  0
 61136  1  0  0  0
 61137  1  0  0  0
 61138  1  0  0  0
 62139  1  0  0  0
 62140  1  0  0  0
 62141  1  0  0  0
 63 65  1  0  0  0
 63142  1  0  0  0
 63143  1  0  0  0
 63144  1  0  0  0
 64145  1  0  0  0
 65146  1  0  0  0
 68 84  1  0  0  0
 71 72  2  0  0  0
 71 74  1  0  0  0
 71147  1  0  0  0
 72 76  1  0  0  0
 72148  1  0  0  0
 73 75  1  0  0  0
 73 76  2  0  0  0
 73149  1  0  0  0
 74 75  2  0  0  0
 74 81  1  0  0  0
 75 82  1  0  0  0
 76 86  1  0  0  0
 77 78  1  0  0  0
 77 85  1  0  0  0
 77 87  2  0  0  0
 78 79  1  0  0  0
 78150  1  0  0  0
 78151  1  0  0  0
 79 80  1  0  0  0
 79152  1  0  0  0
 79153  1  0  0  0
 80 83  1  0  0  0
 80 85  1  0  0  0
 80154  1  0  0  0
 81155  1  0  0  0
 81156  1  0  0  0
 81157  1  0  0  0
 82 85  1  0  0  0
 82158  1  0  0  0
 82159  1  0  0  0
 83 84  1  0  0  0
 83160  1  0  0  0
 83161  1  0  0  0
 84162  1  0  0  0
 84163  1  0  0  0
 86164  1  0  0  0
M  ISO  4   1 100  68 101  84 101  86 100
M  END
> <chiral flag>
0

> <version>
0

> <s_m_source_file>
/data/baiqing/PycharmProjects/Reinvent-master-3.2/result/LINK_invent/BTK/process_docking_weight1_custom_product_contain_oxygen_bond_distance_aromatic_linkinvent_7_9_3/rearranged_h_0059.sdf

> <i_m_source_file_index>
36

> <r_mmod_Potential_Energy-OPLS-2005>
85.7077713012695

> <r_mmod_Stretch_Energy-OPLS-2005>
59.4690399169922

> <r_mmod_Bend_Energy-OPLS-2005>
150.534530639648

> <r_mmod_Torsional_Energy-OPLS-2005>
302.637451171875

> <r_mmod_Improper_Torsional_Energy-OPLS-2005>
5.46832275390625

> <r_mmod_Van_der_Waal_Energy-OPLS-2005>
143.440765380859

> <r_mmod_Electrostatic_Energy-OPLS-2005>
-374.657745361328

> <r_mmod_Solvation_Energy-OPLS-2005>
-229.780334472656

> <b_mmod_Minimization_Converged-OPLS-2005>
0

> <r_mmod_RMS_Derivative-OPLS-2005>
1.19243240356445

$$$$
36
                    3D
 Structure written by MMmdl.
161170  0  0  1  0            999 V2000
  -30.5901  -14.7346   20.4466 C   0  0  0  0  0  0
  -30.4236  -12.4502   19.4480 C   0  0  0  0  0  0
  -29.4952  -12.5160   18.2161 C   0  0  0  0  0  0
  -28.0217  -12.3369   18.6337 C   0  0  0  0  0  0
  -27.6358  -13.2250   19.8464 C   0  0  2  0  0  0
  -28.6850  -13.1485   20.9752 C   0  0  0  0  0  0
  -25.2522  -13.8179   20.5710 C   0  0  0  0  0  0
  -24.1808  -13.0451   20.9218 C   0  0  0  0  0  0
  -24.6375  -11.6918   20.8752 C   0  0  0  0  0  0
  -23.9051  -10.4308   21.0404 C   0  0  0  0  0  0
  -24.3618   -9.4231   21.9181 C   0  0  0  0  0  0
  -23.6315   -8.2253   22.0743 C   0  0  0  0  0  0
  -22.4298   -8.0280   21.3536 C   0  0  0  0  0  0
  -21.9924   -9.0242   20.4626 C   0  0  0  0  0  0
  -22.7229  -10.2134   20.3049 C   0  0  0  0  0  0
  -21.6872   -6.0747   22.5282 C   0  0  0  0  0  0
  -21.4007   -6.5652   23.8210 C   0  0  0  0  0  0
  -21.3663   -5.6807   24.9176 C   0  0  0  0  0  0
  -21.6055   -4.3068   24.7230 C   0  0  0  0  0  0
  -21.8821   -3.8160   23.4345 C   0  0  0  0  0  0
  -21.9200   -4.6977   22.3401 C   0  0  0  0  0  0
  -22.7835  -13.5239   21.1903 C   0  0  0  0  0  0
  -22.1681   -4.2163   21.0981 F   0  0  0  0  0  0
  -21.5635   -3.4553   25.7737 F   0  0  0  0  0  0
  -29.9767  -13.5072   20.3803 N   0  0  0  0  0  0
  -26.2908  -12.9363   20.3271 N   0  0  0  0  0  0
  -25.9295  -11.6509   20.5743 N   0  0  0  0  0  0
  -22.0504  -12.8168   22.0422 N   0  0  0  0  0  0
  -25.4265  -15.1900   20.4122 N   0  0  0  0  0  0
  -31.7944  -14.8289   20.1879 O   0  0  0  0  0  0
  -21.6670   -6.8880   21.4237 O   0  0  0  0  0  0
  -22.3517  -14.5576   20.6805 O   0  0  0  0  0  0
  -24.6285  -31.8501   23.1976 C   0  0  0  0  0  0
  -25.9119  -32.4708   23.8303 C   0  0  1  0  0  0
  -27.2191  -27.2762   20.1371 C   0  0  0  0  0  0
  -25.5910  -33.8514   24.2212 N   0  0  0  0  0  0
  -23.4211  -30.4701   21.5413 C   0  0  2  0  0  0
  -24.8666  -28.9037   20.1223 C   0  0  0  0  0  0
  -22.7447  -29.4590   22.4972 C   0  0  0  0  0  0
  -18.0255  -28.1380   22.8487 C   0  0  0  0  0  0
  -24.1494  -36.7287   23.2651 C   0  0  0  0  0  0
  -25.9633  -30.7690   21.3711 C   0  0  0  0  0  0
  -26.0371  -29.3900   20.7205 C   0  0  0  0  0  0
  -27.2206  -28.5894   20.7100 C   0  0  0  0  0  0
  -26.0277  -26.8371   19.5305 C   0  0  0  0  0  0
  -24.8651  -27.6348   19.5181 C   0  0  0  0  0  0
  -23.6334  -29.7841   20.1646 C   0  0  0  0  0  0
  -25.4118  -36.3036   24.0322 C   0  0  1  0  0  0
  -20.5852  -28.3661   23.1296 C   0  0  2  0  0  0
  -20.6733  -26.9393   22.5400 C   0  0  0  0  0  0
  -19.5723  -26.6381   21.5187 C   0  0  0  0  0  0
  -18.1900  -26.7936   22.1596 C   0  0  0  0  0  0
  -19.1513  -28.8844   23.2880 C   0  0  0  0  0  0
  -18.9456  -30.1454   23.8889 C   0  0  0  0  0  0
  -17.6462  -30.6598   24.0547 C   0  0  0  0  0  0
  -25.9050  -34.9409   23.5076 C   0  0  0  0  0  0
  -16.5345  -29.9085   23.6359 C   0  0  0  0  0  0
  -16.7244  -28.6492   23.0395 C   0  0  0  0  0  0
  -26.4512  -31.6567   25.0713 C   0  0  0  0  0  0
  -25.3753  -31.3670   26.1445 C   0  0  0  0  0  0
  -27.0415  -30.3000   24.6230 C   0  0  0  0  0  0
  -27.6032  -32.4357   25.7490 C   0  0  0  0  0  0
  -27.5582  -37.1788   24.8465 C   0  0  0  0  0  0
  -21.4158  -29.3027   22.3717 N   0  0  0  0  0  0
  -26.4280  -37.3746   23.9421 N   0  0  0  0  0  0
  -24.6897  -31.0489   22.0928 N   0  0  0  0  0  0
  -23.4160  -28.8147   23.3071 O   0  0  0  0  0  0
  -28.3454  -26.4421   20.0792 O   0  0  0  0  0  0
  -26.5635  -34.8899   22.4652 O   0  0  0  0  0  0
  -23.5452  -32.1311   23.7305 O   0  0  0  0  0  0
  -30.7945  -20.0375   21.2589 C   0  0  0  0  0  0
  -31.2467  -17.6286   21.4638 C   0  0  0  0  0  0
  -29.3060  -18.4219   20.2297 C   0  0  0  0  0  0
  -31.5883  -18.9695   21.7293 C   0  0  0  0  0  0
  -29.6368  -19.8274   20.4744 C   0  0  0  0  0  0
  -30.1041  -17.2968   20.7067 C   0  0  0  0  0  0
  -28.5113  -21.0574   18.6366 C   0  0  0  0  0  0
  -27.8898  -22.3320   18.0221 C   0  0  0  0  0  0
  -28.4302  -23.6588   18.5872 C   0  0  0  0  0  0
  -28.9409  -22.3882   20.6852 C   0  0  0  0  0  0
  -28.1690  -23.6781   20.0847 C   0  0  1  0  0  0
  -32.8507  -19.2647   22.5137 C   0  0  0  0  0  0
  -28.3745  -25.1264   20.7812 C   0  0  0  0  0  0
  -28.9309  -21.0430   19.9375 N   0  0  0  0  0  0
  -29.7757  -15.8600   20.5242 N   0  0  0  0  0  0
  -28.5845  -20.0742   17.8927 O   0  0  0  0  0  0
  -31.4654  -12.5773   19.1475 H   0  0  0  0  0  0
  -30.3639  -11.4705   19.9235 H   0  0  0  0  0  0
  -29.7734  -11.7548   17.4861 H   0  0  0  0  0  0
  -29.6138  -13.4780   17.7137 H   0  0  0  0  0  0
  -27.8723  -11.2839   18.8775 H   0  0  0  0  0  0
  -27.3623  -12.5485   17.7908 H   0  0  0  0  0  0
  -27.6295  -14.2486   19.4715 H   0  0  0  0  0  0
  -28.7275  -12.1462   21.4029 H   0  0  0  0  0  0
  -28.4305  -13.8216   21.7956 H   0  0  0  0  0  0
  -25.2755   -9.5753   22.4753 H   0  0  0  0  0  0
  -24.0067   -7.4660   22.7452 H   0  0  0  0  0  0
  -21.0873   -8.8718   19.8921 H   0  0  0  0  0  0
  -22.3657  -10.9671   19.6165 H   0  0  0  0  0  0
  -21.1973   -7.6152   23.9714 H   0  0  0  0  0  0
  -21.1495   -6.0537   25.9079 H   0  0  0  0  0  0
  -22.0595   -2.7622   23.2841 H   0  0  0  0  0  0
  -22.4161  -11.9787   22.4692 H   0  0  0  0  0  0
  -21.1117  -13.1130   22.2695 H   0  0  0  0  0  0
  -24.6639  -15.8490   20.5226 H   0  0  0  0  0  0
  -26.2655  -15.6199   20.0447 H   0  0  0  0  0  0
  -26.7187  -32.5349   23.1036 H   0  0  0  0  0  0
  -25.0022  -33.9612   25.0339 H   0  0  0  0  0  0
  -22.7163  -31.2897   21.3860 H   0  0  0  0  0  0
  -23.3753  -35.9620   23.3256 H   0  0  0  0  0  0
  -24.3587  -36.8975   22.2076 H   0  0  0  0  0  0
  -23.7247  -37.6471   23.6724 H   0  0  0  0  0  0
  -26.0971  -31.5286   20.6002 H   0  0  0  0  0  0
  -26.8434  -30.8178   22.0007 H   0  0  0  0  0  0
  -28.1279  -28.9642   21.1633 H   0  0  0  0  0  0
  -25.9957  -25.8625   19.0641 H   0  0  0  0  0  0
  -23.9680  -27.2528   19.0498 H   0  0  0  0  0  0
  -23.7387  -30.5428   19.3883 H   0  0  0  0  0  0
  -22.7566  -29.1964   19.8845 H   0  0  0  0  0  0
  -25.1312  -36.1840   25.0812 H   0  0  0  0  0  0
  -20.9911  -28.3212   24.1428 H   0  0  0  0  0  0
  -20.5576  -26.2279   23.3588 H   0  0  0  0  0  0
  -21.6611  -26.7402   22.1222 H   0  0  0  0  0  0
  -19.6880  -25.6279   21.1241 H   0  0  0  0  0  0
  -19.6685  -27.3172   20.6703 H   0  0  0  0  0  0
  -17.4163  -26.6687   21.4004 H   0  0  0  0  0  0
  -18.0312  -26.0051   22.8965 H   0  0  0  0  0  0
  -19.7938  -30.7263   24.2258 H   0  0  0  0  0  0
  -17.5025  -31.6301   24.5104 H   0  0  0  0  0  0
  -15.5351  -30.2989   23.7713 H   0  0  0  0  0  0
  -15.8624  -28.0796   22.7180 H   0  0  0  0  0  0
  -24.5977  -30.6946   25.7799 H   0  0  0  0  0  0
  -24.8903  -32.2814   26.4872 H   0  0  0  0  0  0
  -25.8127  -30.8885   27.0215 H   0  0  0  0  0  0
  -26.3027  -29.6672   24.1304 H   0  0  0  0  0  0
  -27.4161  -29.7329   25.4763 H   0  0  0  0  0  0
  -27.8852  -30.4307   23.9445 H   0  0  0  0  0  0
  -27.2613  -33.3679   26.1994 H   0  0  0  0  0  0
  -28.3881  -32.6883   25.0349 H   0  0  0  0  0  0
  -28.0652  -31.8533   26.5464 H   0  0  0  0  0  0
  -28.2563  -38.0123   24.7552 H   0  0  0  0  0  0
  -28.1115  -36.2655   24.6238 H   0  0  0  0  0  0
  -27.2300  -37.1364   25.8865 H   0  0  0  0  0  0
  -20.9330  -29.8754   21.6933 H   0  0  0  0  0  0
  -26.0141  -38.2805   24.1444 H   0  0  0  0  0  0
  -31.1322  -21.0383   21.4807 H   0  0  0  0  0  0
  -31.8766  -16.8464   21.8658 H   0  0  0  0  0  0
  -28.4260  -18.2051   19.6411 H   0  0  0  0  0  0
  -26.8101  -22.2808   18.1731 H   0  0  0  0  0  0
  -28.0371  -22.3129   16.9417 H   0  0  0  0  0  0
  -27.9387  -24.5031   18.1030 H   0  0  0  0  0  0
  -29.4981  -23.7597   18.3885 H   0  0  0  0  0  0
  -28.5885  -22.2110   21.7006 H   0  0  0  0  0  0
  -29.9845  -22.6836   20.7783 H   0  0  0  0  0  0
  -27.1014  -23.4823   20.1994 H   0  0  0  0  0  0
  -32.9667  -20.3323   22.7047 H   0  0  0  0  0  0
  -33.7230  -18.9309   21.9515 H   0  0  0  0  0  0
  -32.8411  -18.7489   23.4742 H   0  0  0  0  0  0
  -29.3596  -25.1014   21.2467 H   0  0  0  0  0  0
  -27.6846  -25.1932   21.6253 H   0  0  0  0  0  0
  -28.7898  -15.6541   20.4848 H   0  0  0  0  0  0
  1 25  1  0  0  0
  1 30  2  0  0  0
  1 85  1  0  0  0
  2  3  1  0  0  0
  2 25  1  0  0  0
  2 87  1  0  0  0
  2 88  1  0  0  0
  3  4  1  0  0  0
  3 89  1  0  0  0
  3 90  1  0  0  0
  4  5  1  0  0  0
  4 91  1  0  0  0
  4 92  1  0  0  0
  5  6  1  0  0  0
  5 26  1  0  0  0
  5 93  1  0  0  0
  6 25  1  0  0  0
  6 94  1  0  0  0
  6 95  1  0  0  0
  7  8  2  0  0  0
  7 26  1  0  0  0
  7 29  1  0  0  0
  8  9  1  0  0  0
  8 22  1  0  0  0
  9 10  1  0  0  0
  9 27  2  0  0  0
 10 11  2  0  0  0
 10 15  1  0  0  0
 11 12  1  0  0  0
 11 96  1  0  0  0
 12 13  2  0  0  0
 12 97  1  0  0  0
 13 14  1  0  0  0
 13 31  1  0  0  0
 14 15  2  0  0  0
 14 98  1  0  0  0
 15 99  1  0  0  0
 16 17  2  0  0  0
 16 21  1  0  0  0
 16 31  1  0  0  0
 17 18  1  0  0  0
 17100  1  0  0  0
 18 19  2  0  0  0
 18101  1  0  0  0
 19 20  1  0  0  0
 19 24  1  0  0  0
 20 21  2  0  0  0
 20102  1  0  0  0
 21 23  1  0  0  0
 22 28  1  0  0  0
 22 32  2  0  0  0
 26 27  1  0  0  0
 28103  1  0  0  0
 28104  1  0  0  0
 29105  1  0  0  0
 29106  1  0  0  0
 33 34  1  0  0  0
 33 66  1  0  0  0
 33 70  2  0  0  0
 34 36  1  0  0  0
 34 59  1  0  0  0
 34107  1  0  0  0
 35 44  2  0  0  0
 35 45  1  0  0  0
 35 68  1  0  0  0
 36 56  1  0  0  0
 36108  1  0  0  0
 37 39  1  0  0  0
 37 47  1  0  0  0
 37 66  1  0  0  0
 37109  1  0  0  0
 38 43  2  0  0  0
 38 46  1  0  0  0
 38 47  1  0  0  0
 39 64  1  0  0  0
 39 67  2  0  0  0
 40 52  1  0  0  0
 40 53  2  0  0  0
 40 58  1  0  0  0
 41110  1  0  0  0
 41111  1  0  0  0
 41112  1  0  0  0
 41 48  1  0  0  0
 42 43  1  0  0  0
 42 66  1  0  0  0
 42113  1  0  0  0
 42114  1  0  0  0
 43 44  1  0  0  0
 44115  1  0  0  0
 45 46  2  0  0  0
 45116  1  0  0  0
 46117  1  0  0  0
 47118  1  0  0  0
 47119  1  0  0  0
 48 56  1  0  0  0
 48 65  1  0  0  0
 48120  1  0  0  0
 49 50  1  0  0  0
 49 53  1  0  0  0
 49 64  1  0  0  0
 49121  1  0  0  0
 50 51  1  0  0  0
 50122  1  0  0  0
 50123  1  0  0  0
 51 52  1  0  0  0
 51124  1  0  0  0
 51125  1  0  0  0
 52126  1  0  0  0
 52127  1  0  0  0
 53 54  1  0  0  0
 54 55  2  0  0  0
 54128  1  0  0  0
 55 57  1  0  0  0
 55129  1  0  0  0
 56 69  2  0  0  0
 57 58  2  0  0  0
 57130  1  0  0  0
 58131  1  0  0  0
 59 60  1  0  0  0
 59 61  1  0  0  0
 59 62  1  0  0  0
 60132  1  0  0  0
 60133  1  0  0  0
 60134  1  0  0  0
 61135  1  0  0  0
 61136  1  0  0  0
 61137  1  0  0  0
 62138  1  0  0  0
 62139  1  0  0  0
 62140  1  0  0  0
 63 65  1  0  0  0
 63141  1  0  0  0
 63142  1  0  0  0
 63143  1  0  0  0
 64144  1  0  0  0
 65145  1  0  0  0
 68 83  1  0  0  0
 71 74  2  0  0  0
 71 75  1  0  0  0
 71146  1  0  0  0
 72 74  1  0  0  0
 72 76  2  0  0  0
 72147  1  0  0  0
 73 75  2  0  0  0
 73 76  1  0  0  0
 73148  1  0  0  0
 74 82  1  0  0  0
 75 84  1  0  0  0
 76 85  1  0  0  0
 77 78  1  0  0  0
 77 84  1  0  0  0
 77 86  2  0  0  0
 78 79  1  0  0  0
 78149  1  0  0  0
 78150  1  0  0  0
 79 81  1  0  0  0
 79151  1  0  0  0
 79152  1  0  0  0
 80 81  1  0  0  0
 80 84  1  0  0  0
 80153  1  0  0  0
 80154  1  0  0  0
 81 83  1  0  0  0
 81155  1  0  0  0
 82156  1  0  0  0
 82157  1  0  0  0
 82158  1  0  0  0
 83159  1  0  0  0
 83160  1  0  0  0
 85161  1  0  0  0
M  ISO  4   1 100  68 101  83 101  85 100
M  END
> <chiral flag>
0

> <version>
0

> <s_m_source_file>
/data/baiqing/PycharmProjects/Reinvent-master-3.2/result/LINK_invent/BTK/process_docking_weight1_custom_product_contain_oxygen_bond_distance_aromatic_linkinvent_7_9_3/rearranged_h_0059.sdf

> <i_m_source_file_index>
37

> <r_mmod_Potential_Energy-OPLS-2005>
280.397125244141

> <r_mmod_Stretch_Energy-OPLS-2005>
128.097900390625

> <r_mmod_Bend_Energy-OPLS-2005>
173.810012817383

> <r_mmod_Torsional_Energy-OPLS-2005>
302.589935302734

> <r_mmod_Improper_Torsional_Energy-OPLS-2005>
7.60975313186646

> <r_mmod_Van_der_Waal_Energy-OPLS-2005>
146.268905639648

> <r_mmod_Electrostatic_Energy-OPLS-2005>
-333.133819580078

> <r_mmod_Solvation_Energy-OPLS-2005>
-220.437393188477

> <b_mmod_Minimization_Converged-OPLS-2005>
0

> <r_mmod_RMS_Derivative-OPLS-2005>
2.69669198989868

$$$$
37
                    3D
 Structure written by MMmdl.
167176  0  0  1  0            999 V2000
  -30.6564  -14.5515   20.4783 C   0  0  0  0  0  0
  -30.4467  -12.3432   19.4187 C   0  0  0  0  0  0
  -29.5099  -12.5090   18.2012 C   0  0  0  0  0  0
  -28.0272  -12.3736   18.6071 C   0  0  0  0  0  0
  -27.6660  -13.2025   19.8706 C   0  0  2  0  0  0
  -28.7183  -13.0137   20.9888 C   0  0  0  0  0  0
  -25.2648  -13.8131   20.5627 C   0  0  0  0  0  0
  -24.1866  -13.0430   20.9134 C   0  0  0  0  0  0
  -24.6431  -11.6889   20.8714 C   0  0  0  0  0  0
  -23.9088  -10.4295   21.0390 C   0  0  0  0  0  0
  -24.3637   -9.4214   21.9165 C   0  0  0  0  0  0
  -23.6324   -8.2244   22.0734 C   0  0  0  0  0  0
  -22.4290   -8.0306   21.3551 C   0  0  0  0  0  0
  -21.9930   -9.0284   20.4652 C   0  0  0  0  0  0
  -22.7258  -10.2157   20.3054 C   0  0  0  0  0  0
  -21.6866   -6.0768   22.5277 C   0  0  0  0  0  0
  -21.4011   -6.5653   23.8216 C   0  0  0  0  0  0
  -21.3639   -5.6779   24.9160 C   0  0  0  0  0  0
  -21.6050   -4.3051   24.7196 C   0  0  0  0  0  0
  -21.8836   -3.8168   23.4308 C   0  0  0  0  0  0
  -21.9192   -4.6996   22.3380 C   0  0  0  0  0  0
  -22.7908  -13.5252   21.1821 C   0  0  0  0  0  0
  -22.1667   -4.2192   21.0960 F   0  0  0  0  0  0
  -21.5627   -3.4525   25.7700 F   0  0  0  0  0  0
  -30.0402  -13.3366   20.4252 N   0  0  0  0  0  0
  -26.3083  -12.9284   20.3339 N   0  0  0  0  0  0
  -25.9368  -11.6459   20.5734 N   0  0  0  0  0  0
  -22.0518  -12.8271   22.0372 N   0  0  0  0  0  0
  -25.4443  -15.1855   20.4049 N   0  0  0  0  0  0
  -31.8166  -14.7253   20.0955 O   0  0  0  0  0  0
  -21.6642   -6.8913   21.4243 O   0  0  0  0  0  0
  -22.3610  -14.5584   20.6700 O   0  0  0  0  0  0
  -24.6233  -31.8579   23.2013 C   0  0  0  0  0  0
  -25.9097  -32.4763   23.8332 C   0  0  1  0  0  0
  -27.2325  -27.3614   20.1059 C   0  0  0  0  0  0
  -25.5922  -33.8564   24.2250 N   0  0  0  0  0  0
  -23.4146  -30.4831   21.5401 C   0  0  2  0  0  0
  -24.8572  -28.9285   20.1139 C   0  0  0  0  0  0
  -22.7428  -29.4645   22.4928 C   0  0  0  0  0  0
  -18.0271  -28.1373   22.8500 C   0  0  0  0  0  0
  -24.1466  -36.7286   23.2643 C   0  0  0  0  0  0
  -25.9486  -30.7975   21.3669 C   0  0  0  0  0  0
  -26.0189  -29.4270   20.7132 C   0  0  0  0  0  0
  -27.2071  -28.6516   20.7029 C   0  0  0  0  0  0
  -26.0449  -26.8841   19.5076 C   0  0  0  0  0  0
  -24.8662  -27.6593   19.5063 C   0  0  0  0  0  0
  -23.6231  -29.8028   20.1589 C   0  0  0  0  0  0
  -25.4098  -36.3062   24.0320 C   0  0  1  0  0  0
  -20.5872  -28.3663   23.1285 C   0  0  2  0  0  0
  -20.6740  -26.9391   22.5392 C   0  0  0  0  0  0
  -19.5698  -26.6376   21.5200 C   0  0  0  0  0  0
  -18.1895  -26.7918   22.1628 C   0  0  0  0  0  0
  -19.1529  -28.8832   23.2897 C   0  0  0  0  0  0
  -18.9450  -30.1442   23.8901 C   0  0  0  0  0  0
  -17.6453  -30.6582   24.0570 C   0  0  0  0  0  0
  -25.9039  -34.9437   23.5078 C   0  0  0  0  0  0
  -16.5346  -29.9081   23.6341 C   0  0  0  0  0  0
  -16.7265  -28.6496   23.0375 C   0  0  0  0  0  0
  -26.4464  -31.6653   25.0763 C   0  0  0  0  0  0
  -25.3709  -31.3916   26.1540 C   0  0  0  0  0  0
  -27.0306  -30.3047   24.6312 C   0  0  0  0  0  0
  -27.5989  -32.4439   25.7534 C   0  0  0  0  0  0
  -27.5561  -37.1782   24.8452 C   0  0  0  0  0  0
  -21.4160  -29.3055   22.3688 N   0  0  0  0  0  0
  -26.4262  -37.3767   23.9413 N   0  0  0  0  0  0
  -24.6808  -31.0641   22.0911 N   0  0  0  0  0  0
  -23.4162  -28.8222   23.3032 O   0  0  0  0  0  0
  -28.4103  -26.6207   20.1614 O   0  0  0  0  0  0
  -26.5587  -34.8900   22.4631 O   0  0  0  0  0  0
  -23.5420  -32.1344   23.7381 O   0  0  0  0  0  0
  -29.0461  -16.6641   18.7464 C   0  0  0  0  0  0
  -30.0756  -18.0659   20.4412 C   0  0  0  0  0  0
  -28.8381  -17.7946   17.9360 C   0  0  0  0  0  0
  -29.9021  -19.2257   19.6282 C   0  0  0  0  0  0
  -29.3346  -19.0650   18.3316 C   0  0  0  0  0  0
  -29.6951  -16.7726   19.9943 C   0  0  0  0  0  0
  -29.2391  -21.6371   21.9890 C   0  0  0  0  0  0
  -28.4723  -22.8265   22.5774 C   0  0  0  0  0  0
  -28.7738  -24.1450   21.8400 C   0  0  0  0  0  0
  -29.1309  -22.7512   19.7479 C   0  0  0  0  0  0
  -28.3942  -24.0079   20.3618 C   0  0  2  0  0  0
  -28.0772  -17.6280   16.6296 C   0  0  0  0  0  0
  -29.2960  -20.2049   17.3178 C   0  0  0  0  0  0
  -30.4455  -20.5923   20.1217 C   0  0  0  0  0  0
  -28.5737  -25.3276   19.5129 C   0  0  0  0  0  0
  -29.4920  -21.6132   20.6558 N   0  0  0  0  0  0
  -29.8608  -15.5953   20.8045 N   0  0  0  0  0  0
  -29.6195  -20.7547   22.7656 O   0  0  0  0  0  0
  -31.4861  -12.4731   19.1082 H   0  0  0  0  0  0
  -30.3895  -11.3347   19.8301 H   0  0  0  0  0  0
  -29.7569  -11.7728   17.4371 H   0  0  0  0  0  0
  -29.6749  -13.4844   17.7376 H   0  0  0  0  0  0
  -27.8173  -11.3160   18.7766 H   0  0  0  0  0  0
  -27.3906  -12.6764   17.7755 H   0  0  0  0  0  0
  -27.6872  -14.2462   19.5727 H   0  0  0  0  0  0
  -28.7123  -11.9837   21.3463 H   0  0  0  0  0  0
  -28.4817  -13.6274   21.8591 H   0  0  0  0  0  0
  -25.2779   -9.5700   22.4742 H   0  0  0  0  0  0
  -24.0049   -7.4623   22.7448 H   0  0  0  0  0  0
  -21.0857   -8.8846   19.8969 H   0  0  0  0  0  0
  -22.3736  -10.9720   19.6184 H   0  0  0  0  0  0
  -21.2018   -7.6161   23.9739 H   0  0  0  0  0  0
  -21.1436   -6.0487   25.9066 H   0  0  0  0  0  0
  -22.0644   -2.7642   23.2765 H   0  0  0  0  0  0
  -22.4093  -11.9895   22.4718 H   0  0  0  0  0  0
  -21.1203  -13.1428   22.2657 H   0  0  0  0  0  0
  -24.6882  -15.8495   20.5248 H   0  0  0  0  0  0
  -26.3042  -15.6205   20.0957 H   0  0  0  0  0  0
  -26.7205  -32.5412   23.1118 H   0  0  0  0  0  0
  -25.0170  -33.9695   25.0457 H   0  0  0  0  0  0
  -22.7099  -31.3053   21.3931 H   0  0  0  0  0  0
  -23.3715  -35.9632   23.3295 H   0  0  0  0  0  0
  -24.3573  -36.8904   22.2059 H   0  0  0  0  0  0
  -23.7199  -37.6481   23.6667 H   0  0  0  0  0  0
  -26.0889  -31.5582   20.5976 H   0  0  0  0  0  0
  -26.8250  -30.8379   22.0050 H   0  0  0  0  0  0
  -28.1042  -29.0325   21.1701 H   0  0  0  0  0  0
  -26.0000  -25.9035   19.0574 H   0  0  0  0  0  0
  -23.9681  -27.2705   19.0440 H   0  0  0  0  0  0
  -23.7392  -30.5639   19.3862 H   0  0  0  0  0  0
  -22.7433  -29.2253   19.8708 H   0  0  0  0  0  0
  -25.1279  -36.1902   25.0812 H   0  0  0  0  0  0
  -21.0001  -28.3209   24.1388 H   0  0  0  0  0  0
  -20.5588  -26.2293   23.3594 H   0  0  0  0  0  0
  -21.6614  -26.7374   22.1219 H   0  0  0  0  0  0
  -19.6837  -25.6280   21.1246 H   0  0  0  0  0  0
  -19.6624  -27.3173   20.6715 H   0  0  0  0  0  0
  -17.4167  -26.6696   21.4030 H   0  0  0  0  0  0
  -18.0290  -26.0045   22.9011 H   0  0  0  0  0  0
  -19.7931  -30.7264   24.2254 H   0  0  0  0  0  0
  -17.5019  -31.6256   24.5165 H   0  0  0  0  0  0
  -15.5344  -30.2988   23.7646 H   0  0  0  0  0  0
  -15.8680  -28.0810   22.7089 H   0  0  0  0  0  0
  -24.5750  -30.7395   25.7950 H   0  0  0  0  0  0
  -24.9087  -32.3176   26.4978 H   0  0  0  0  0  0
  -25.8027  -30.9082   27.0313 H   0  0  0  0  0  0
  -26.2932  -29.6845   24.1215 H   0  0  0  0  0  0
  -27.3818  -29.7294   25.4889 H   0  0  0  0  0  0
  -27.8880  -30.4308   23.9693 H   0  0  0  0  0  0
  -27.2527  -33.3735   26.2082 H   0  0  0  0  0  0
  -28.3803  -32.7034   25.0379 H   0  0  0  0  0  0
  -28.0675  -31.8631   26.5488 H   0  0  0  0  0  0
  -28.2574  -38.0086   24.7511 H   0  0  0  0  0  0
  -28.1050  -36.2607   24.6246 H   0  0  0  0  0  0
  -27.2305  -37.1413   25.8865 H   0  0  0  0  0  0
  -20.9311  -29.8840   21.6973 H   0  0  0  0  0  0
  -26.0131  -38.2845   24.1401 H   0  0  0  0  0  0
  -28.7081  -15.7026   18.3878 H   0  0  0  0  0  0
  -30.5442  -18.1678   21.4101 H   0  0  0  0  0  0
  -28.7248  -22.9241   23.6345 H   0  0  0  0  0  0
  -27.4075  -22.5891   22.5311 H   0  0  0  0  0  0
  -29.8309  -24.3958   21.9438 H   0  0  0  0  0  0
  -28.2085  -24.9566   22.2981 H   0  0  0  0  0  0
  -30.0555  -23.0914   19.2800 H   0  0  0  0  0  0
  -28.5205  -22.3537   18.9384 H   0  0  0  0  0  0
  -27.3245  -23.7932   20.3504 H   0  0  0  0  0  0
  -27.4579  -16.7309   16.6448 H   0  0  0  0  0  0
  -28.7578  -17.5571   15.7807 H   0  0  0  0  0  0
  -27.4079  -18.4742   16.4646 H   0  0  0  0  0  0
  -28.3133  -20.6731   17.2811 H   0  0  0  0  0  0
  -29.5202  -19.8316   16.3187 H   0  0  0  0  0  0
  -30.0430  -20.9735   17.4975 H   0  0  0  0  0  0
  -31.0552  -21.0462   19.3442 H   0  0  0  0  0  0
  -31.2008  -20.3692   20.8778 H   0  0  0  0  0  0
  -27.9890  -25.2645   18.5945 H   0  0  0  0  0  0
  -29.6029  -25.3382   19.1550 H   0  0  0  0  0  0
  -29.0136  -15.2905   21.2563 H   0  0  0  0  0  0
  1 25  1  0  0  0
  1 30  2  0  0  0
  1 87  1  0  0  0
  2  3  1  0  0  0
  2 25  1  0  0  0
  2 89  1  0  0  0
  2 90  1  0  0  0
  3  4  1  0  0  0
  3 91  1  0  0  0
  3 92  1  0  0  0
  4  5  1  0  0  0
  4 93  1  0  0  0
  4 94  1  0  0  0
  5  6  1  0  0  0
  5 26  1  0  0  0
  5 95  1  0  0  0
  6 25  1  0  0  0
  6 96  1  0  0  0
  6 97  1  0  0  0
  7  8  2  0  0  0
  7 26  1  0  0  0
  7 29  1  0  0  0
  8  9  1  0  0  0
  8 22  1  0  0  0
  9 10  1  0  0  0
  9 27  2  0  0  0
 10 11  2  0  0  0
 10 15  1  0  0  0
 11 12  1  0  0  0
 11 98  1  0  0  0
 12 13  2  0  0  0
 12 99  1  0  0  0
 13 14  1  0  0  0
 13 31  1  0  0  0
 14 15  2  0  0  0
 14100  1  0  0  0
 15101  1  0  0  0
 16 17  2  0  0  0
 16 21  1  0  0  0
 16 31  1  0  0  0
 17 18  1  0  0  0
 17102  1  0  0  0
 18 19  2  0  0  0
 18103  1  0  0  0
 19 20  1  0  0  0
 19 24  1  0  0  0
 20 21  2  0  0  0
 20104  1  0  0  0
 21 23  1  0  0  0
 22 28  1  0  0  0
 22 32  2  0  0  0
 26 27  1  0  0  0
 28105  1  0  0  0
 28106  1  0  0  0
 29107  1  0  0  0
 29108  1  0  0  0
 33 34  1  0  0  0
 33 66  1  0  0  0
 33 70  2  0  0  0
 34 36  1  0  0  0
 34 59  1  0  0  0
 34109  1  0  0  0
 35 44  2  0  0  0
 35 45  1  0  0  0
 35 68  1  0  0  0
 36 56  1  0  0  0
 36110  1  0  0  0
 37 39  1  0  0  0
 37 47  1  0  0  0
 37 66  1  0  0  0
 37111  1  0  0  0
 38 43  2  0  0  0
 38 46  1  0  0  0
 38 47  1  0  0  0
 39 64  1  0  0  0
 39 67  2  0  0  0
 40 52  1  0  0  0
 40 53  2  0  0  0
 40 58  1  0  0  0
 41112  1  0  0  0
 41113  1  0  0  0
 41114  1  0  0  0
 41 48  1  0  0  0
 42 43  1  0  0  0
 42 66  1  0  0  0
 42115  1  0  0  0
 42116  1  0  0  0
 43 44  1  0  0  0
 44117  1  0  0  0
 45 46  2  0  0  0
 45118  1  0  0  0
 46119  1  0  0  0
 47120  1  0  0  0
 47121  1  0  0  0
 48 56  1  0  0  0
 48 65  1  0  0  0
 48122  1  0  0  0
 49 50  1  0  0  0
 49 53  1  0  0  0
 49 64  1  0  0  0
 49123  1  0  0  0
 50 51  1  0  0  0
 50124  1  0  0  0
 50125  1  0  0  0
 51 52  1  0  0  0
 51126  1  0  0  0
 51127  1  0  0  0
 52128  1  0  0  0
 52129  1  0  0  0
 53 54  1  0  0  0
 54 55  2  0  0  0
 54130  1  0  0  0
 55 57  1  0  0  0
 55131  1  0  0  0
 56 69  2  0  0  0
 57 58  2  0  0  0
 57132  1  0  0  0
 58133  1  0  0  0
 59 60  1  0  0  0
 59 61  1  0  0  0
 59 62  1  0  0  0
 60134  1  0  0  0
 60135  1  0  0  0
 60136  1  0  0  0
 61137  1  0  0  0
 61138  1  0  0  0
 61139  1  0  0  0
 62140  1  0  0  0
 62141  1  0  0  0
 62142  1  0  0  0
 63 65  1  0  0  0
 63143  1  0  0  0
 63144  1  0  0  0
 63145  1  0  0  0
 64146  1  0  0  0
 65147  1  0  0  0
 68 85  1  0  0  0
 71 73  2  0  0  0
 71 76  1  0  0  0
 71148  1  0  0  0
 72 74  1  0  0  0
 72 76  2  0  0  0
 72149  1  0  0  0
 73 75  1  0  0  0
 73 82  1  0  0  0
 74 75  2  0  0  0
 74 84  1  0  0  0
 75 83  1  0  0  0
 76 87  1  0  0  0
 77 78  1  0  0  0
 77 86  1  0  0  0
 77 88  2  0  0  0
 78 79  1  0  0  0
 78150  1  0  0  0
 78151  1  0  0  0
 79 81  1  0  0  0
 79152  1  0  0  0
 79153  1  0  0  0
 80 81  1  0  0  0
 80 86  1  0  0  0
 80154  1  0  0  0
 80155  1  0  0  0
 81 85  1  0  0  0
 81156  1  0  0  0
 82157  1  0  0  0
 82158  1  0  0  0
 82159  1  0  0  0
 83160  1  0  0  0
 83161  1  0  0  0
 83162  1  0  0  0
 84 86  1  0  0  0
 84163  1  0  0  0
 84164  1  0  0  0
 85165  1  0  0  0
 85166  1  0  0  0
 87167  1  0  0  0
M  ISO  4   1 100  68 101  85 101  87 100
M  END
> <chiral flag>
0

> <version>
0

> <s_m_source_file>
/data/baiqing/PycharmProjects/Reinvent-master-3.2/result/LINK_invent/BTK/process_docking_weight1_custom_product_contain_oxygen_bond_distance_aromatic_linkinvent_7_9_3/rearranged_h_0059.sdf

> <i_m_source_file_index>
38

> <r_mmod_Potential_Energy-OPLS-2005>
46.2196350097656

> <r_mmod_Stretch_Energy-OPLS-2005>
59.5865936279297

> <r_mmod_Bend_Energy-OPLS-2005>
133.610153198242

> <r_mmod_Torsional_Energy-OPLS-2005>
284.830139160156

> <r_mmod_Improper_Torsional_Energy-OPLS-2005>
8.40631294250488

> <r_mmod_Van_der_Waal_Energy-OPLS-2005>
153.720550537109

> <r_mmod_Electrostatic_Energy-OPLS-2005>
-389.623046875

> <r_mmod_Solvation_Energy-OPLS-2005>
-232.938568115234

> <b_mmod_Minimization_Converged-OPLS-2005>
0

> <r_mmod_RMS_Derivative-OPLS-2005>
4.66892576217651

$$$$
38
                    3D
 Structure written by MMmdl.
154162  0  0  1  0            999 V2000
  -30.7249  -14.4759   20.5726 C   0  0  0  0  0  0
  -30.4145  -12.3115   19.4256 C   0  0  0  0  0  0
  -29.4911  -12.4991   18.2062 C   0  0  0  0  0  0
  -28.0132  -12.3622   18.6199 C   0  0  0  0  0  0
  -27.6577  -13.2118   19.8695 C   0  0  2  0  0  0
  -28.7011  -13.0209   20.9936 C   0  0  0  0  0  0
  -25.2574  -13.8174   20.5682 C   0  0  0  0  0  0
  -24.1835  -13.0443   20.9185 C   0  0  0  0  0  0
  -24.6395  -11.6910   20.8736 C   0  0  0  0  0  0
  -23.9064  -10.4294   21.0409 C   0  0  0  0  0  0
  -24.3616   -9.4209   21.9188 C   0  0  0  0  0  0
  -23.6290   -8.2244   22.0755 C   0  0  0  0  0  0
  -22.4273   -8.0285   21.3545 C   0  0  0  0  0  0
  -21.9914   -9.0257   20.4644 C   0  0  0  0  0  0
  -22.7239  -10.2137   20.3055 C   0  0  0  0  0  0
  -21.6851   -6.0739   22.5279 C   0  0  0  0  0  0
  -21.4012   -6.5642   23.8213 C   0  0  0  0  0  0
  -21.3658   -5.6794   24.9175 C   0  0  0  0  0  0
  -21.6044   -4.3058   24.7225 C   0  0  0  0  0  0
  -21.8820   -3.8151   23.4346 C   0  0  0  0  0  0
  -21.9192   -4.6967   22.3402 C   0  0  0  0  0  0
  -22.7860  -13.5236   21.1854 C   0  0  0  0  0  0
  -22.1662   -4.2152   21.0979 F   0  0  0  0  0  0
  -21.5629   -3.4542   25.7737 F   0  0  0  0  0  0
  -30.0280  -13.3148   20.4309 N   0  0  0  0  0  0
  -26.3007  -12.9352   20.3352 N   0  0  0  0  0  0
  -25.9321  -11.6507   20.5765 N   0  0  0  0  0  0
  -22.0507  -12.8218   22.0405 N   0  0  0  0  0  0
  -25.4294  -15.1894   20.4081 N   0  0  0  0  0  0
  -31.8599  -14.6200   20.1097 O   0  0  0  0  0  0
  -21.6638   -6.8881   21.4241 O   0  0  0  0  0  0
  -22.3544  -14.5547   20.6708 O   0  0  0  0  0  0
  -24.6175  -31.8680   23.2113 C   0  0  0  0  0  0
  -25.9064  -32.4821   23.8408 C   0  0  1  0  0  0
  -27.2230  -27.4091   20.0931 C   0  0  0  0  0  0
  -25.5913  -33.8621   24.2336 N   0  0  0  0  0  0
  -23.4052  -30.4949   21.5532 C   0  0  2  0  0  0
  -24.8485  -28.9664   20.1110 C   0  0  0  0  0  0
  -22.7424  -29.4664   22.4984 C   0  0  0  0  0  0
  -18.0275  -28.1380   22.8497 C   0  0  0  0  0  0
  -24.1487  -36.7309   23.2641 C   0  0  0  0  0  0
  -25.9393  -30.8250   21.3705 C   0  0  0  0  0  0
  -26.0133  -29.4610   20.7110 C   0  0  0  0  0  0
  -27.2031  -28.6908   20.6988 C   0  0  0  0  0  0
  -26.0372  -26.9509   19.4672 C   0  0  0  0  0  0
  -24.8574  -27.7120   19.4846 C   0  0  0  0  0  0
  -23.6127  -29.8351   20.1657 C   0  0  0  0  0  0
  -25.4109  -36.3112   24.0339 C   0  0  1  0  0  0
  -20.5870  -28.3676   23.1310 C   0  0  2  0  0  0
  -20.6766  -26.9410   22.5414 C   0  0  0  0  0  0
  -19.5738  -26.6385   21.5215 C   0  0  0  0  0  0
  -18.1919  -26.7927   22.1626 C   0  0  0  0  0  0
  -19.1527  -28.8845   23.2898 C   0  0  0  0  0  0
  -18.9452  -30.1452   23.8905 C   0  0  0  0  0  0
  -17.6455  -30.6589   24.0564 C   0  0  0  0  0  0
  -25.9038  -34.9476   23.5132 C   0  0  0  0  0  0
  -16.5345  -29.9089   23.6330 C   0  0  0  0  0  0
  -16.7263  -28.6504   23.0355 C   0  0  0  0  0  0
  -26.4481  -31.6598   25.0740 C   0  0  0  0  0  0
  -25.3737  -31.3685   26.1473 C   0  0  0  0  0  0
  -27.0334  -30.3048   24.6131 C   0  0  0  0  0  0
  -27.6052  -32.4324   25.7505 C   0  0  0  0  0  0
  -27.5582  -37.1808   24.8468 C   0  0  0  0  0  0
  -21.4151  -29.3041   22.3718 N   0  0  0  0  0  0
  -26.4298  -37.3797   23.9409 N   0  0  0  0  0  0
  -24.6726  -31.0766   22.1027 N   0  0  0  0  0  0
  -23.4190  -28.8195   23.3023 O   0  0  0  0  0  0
  -28.3698  -26.6268   20.1398 O   0  0  0  0  0  0
  -26.5596  -34.8927   22.4690 O   0  0  0  0  0  0
  -23.5360  -32.1444   23.7492 O   0  0  0  0  0  0
  -32.3618  -18.2138   22.3260 C   0  0  0  0  0  0
  -31.6787  -19.3798   21.9369 C   0  0  0  0  0  0
  -31.8242  -16.9463   22.0475 C   0  0  0  0  0  0
  -29.8919  -18.0102   21.0063 C   0  0  0  0  0  0
  -30.4306  -19.3036   21.2693 C   0  0  0  0  0  0
  -30.5904  -16.8247   21.3706 C   0  0  0  0  0  0
  -29.9674  -21.7907   20.9767 C   0  0  0  0  0  0
  -28.9618  -22.7790   20.3497 C   0  0  0  0  0  0
  -29.2974  -24.2959   20.5163 C   0  0  0  0  0  0
  -28.1820  -25.2051   19.9495 C   0  0  0  0  0  0
  -29.6984  -20.4679   20.8360 N   0  0  0  0  0  0
  -30.0502  -15.5250   21.0947 N   0  0  0  0  0  0
  -30.9474  -22.2404   21.5735 O   0  0  0  0  0  0
  -31.4601  -12.3951   19.1240 H   0  0  0  0  0  0
  -30.3055  -11.3077   19.8391 H   0  0  0  0  0  0
  -29.7316  -11.7660   17.4350 H   0  0  0  0  0  0
  -29.6607  -13.4807   17.7602 H   0  0  0  0  0  0
  -27.8242  -11.3075   18.8235 H   0  0  0  0  0  0
  -27.3627  -12.6302   17.7866 H   0  0  0  0  0  0
  -27.6938  -14.2556   19.5566 H   0  0  0  0  0  0
  -28.6796  -11.9950   21.3645 H   0  0  0  0  0  0
  -28.4660  -13.6492   21.8540 H   0  0  0  0  0  0
  -25.2761   -9.5687   22.4761 H   0  0  0  0  0  0
  -24.0002   -7.4638   22.7476 H   0  0  0  0  0  0
  -21.0849   -8.8774   19.8947 H   0  0  0  0  0  0
  -22.3701  -10.9676   19.6161 H   0  0  0  0  0  0
  -21.2005   -7.6151   23.9716 H   0  0  0  0  0  0
  -21.1479   -6.0526   25.9077 H   0  0  0  0  0  0
  -22.0601   -2.7614   23.2844 H   0  0  0  0  0  0
  -22.4124  -11.9861   22.4760 H   0  0  0  0  0  0
  -21.1129  -13.1243   22.2632 H   0  0  0  0  0  0
  -24.6633  -15.8459   20.5134 H   0  0  0  0  0  0
  -26.2799  -15.6257   20.0751 H   0  0  0  0  0  0
  -26.7130  -32.5527   23.1167 H   0  0  0  0  0  0
  -25.0075  -33.9782   25.0487 H   0  0  0  0  0  0
  -22.6944  -31.3130   21.4179 H   0  0  0  0  0  0
  -23.3758  -35.9633   23.3305 H   0  0  0  0  0  0
  -24.3574  -36.8926   22.2053 H   0  0  0  0  0  0
  -23.7230  -37.6510   23.6655 H   0  0  0  0  0  0
  -26.0600  -31.5943   20.6063 H   0  0  0  0  0  0
  -26.8241  -30.8712   21.9935 H   0  0  0  0  0  0
  -28.0986  -29.0652   21.1752 H   0  0  0  0  0  0
  -25.9925  -25.9991   18.9587 H   0  0  0  0  0  0
  -23.9649  -27.3288   19.0090 H   0  0  0  0  0  0
  -23.7214  -30.6138   19.4097 H   0  0  0  0  0  0
  -22.7348  -29.2583   19.8690 H   0  0  0  0  0  0
  -25.1284  -36.1980   25.0833 H   0  0  0  0  0  0
  -20.9961  -28.3245   24.1430 H   0  0  0  0  0  0
  -20.5684  -26.2279   23.3602 H   0  0  0  0  0  0
  -21.6634  -26.7459   22.1197 H   0  0  0  0  0  0
  -19.6900  -25.6299   21.1235 H   0  0  0  0  0  0
  -19.6675  -27.3198   20.6749 H   0  0  0  0  0  0
  -17.4193  -26.6696   21.4021 H   0  0  0  0  0  0
  -18.0304  -26.0064   22.9015 H   0  0  0  0  0  0
  -19.7930  -30.7267   24.2272 H   0  0  0  0  0  0
  -17.5013  -31.6269   24.5168 H   0  0  0  0  0  0
  -15.5345  -30.2993   23.7650 H   0  0  0  0  0  0
  -15.8665  -28.0822   22.7066 H   0  0  0  0  0  0
  -24.5923  -30.7027   25.7791 H   0  0  0  0  0  0
  -24.8910  -32.2829   26.4934 H   0  0  0  0  0  0
  -25.8086  -30.8839   27.0225 H   0  0  0  0  0  0
  -26.2896  -29.6789   24.1192 H   0  0  0  0  0  0
  -27.4118  -29.7302   25.4596 H   0  0  0  0  0  0
  -27.8719  -30.4377   23.9290 H   0  0  0  0  0  0
  -27.2672  -33.3617   26.2105 H   0  0  0  0  0  0
  -28.3848  -32.6898   25.0322 H   0  0  0  0  0  0
  -28.0738  -31.8438   26.5402 H   0  0  0  0  0  0
  -28.2601  -38.0107   24.7534 H   0  0  0  0  0  0
  -28.1082  -36.2640   24.6284 H   0  0  0  0  0  0
  -27.2295  -37.1449   25.8870 H   0  0  0  0  0  0
  -20.9308  -29.8772   21.6950 H   0  0  0  0  0  0
  -26.0191  -38.2877   24.1413 H   0  0  0  0  0  0
  -33.3101  -18.2927   22.8387 H   0  0  0  0  0  0
  -32.1516  -20.3206   22.1691 H   0  0  0  0  0  0
  -32.3733  -16.0678   22.3580 H   0  0  0  0  0  0
  -28.9424  -17.9244   20.4971 H   0  0  0  0  0  0
  -27.9860  -22.5773   20.7934 H   0  0  0  0  0  0
  -28.8721  -22.5442   19.2886 H   0  0  0  0  0  0
  -30.2427  -24.5241   20.0228 H   0  0  0  0  0  0
  -29.4366  -24.5237   21.5737 H   0  0  0  0  0  0
  -27.2592  -24.8875   20.4387 H   0  0  0  0  0  0
  -28.0679  -25.0057   18.8828 H   0  0  0  0  0  0
  -28.8428  -20.2730   20.3335 H   0  0  0  0  0  0
  -29.0649  -15.3863   21.2601 H   0  0  0  0  0  0
  1 25  1  0  0  0
  1 30  2  0  0  0
  1 82  1  0  0  0
  2  3  1  0  0  0
  2 25  1  0  0  0
  2 84  1  0  0  0
  2 85  1  0  0  0
  3  4  1  0  0  0
  3 86  1  0  0  0
  3 87  1  0  0  0
  4  5  1  0  0  0
  4 88  1  0  0  0
  4 89  1  0  0  0
  5  6  1  0  0  0
  5 26  1  0  0  0
  5 90  1  0  0  0
  6 25  1  0  0  0
  6 91  1  0  0  0
  6 92  1  0  0  0
  7  8  2  0  0  0
  7 26  1  0  0  0
  7 29  1  0  0  0
  8  9  1  0  0  0
  8 22  1  0  0  0
  9 10  1  0  0  0
  9 27  2  0  0  0
 10 11  2  0  0  0
 10 15  1  0  0  0
 11 12  1  0  0  0
 11 93  1  0  0  0
 12 13  2  0  0  0
 12 94  1  0  0  0
 13 14  1  0  0  0
 13 31  1  0  0  0
 14 15  2  0  0  0
 14 95  1  0  0  0
 15 96  1  0  0  0
 16 17  2  0  0  0
 16 21  1  0  0  0
 16 31  1  0  0  0
 17 18  1  0  0  0
 17 97  1  0  0  0
 18 19  2  0  0  0
 18 98  1  0  0  0
 19 20  1  0  0  0
 19 24  1  0  0  0
 20 21  2  0  0  0
 20 99  1  0  0  0
 21 23  1  0  0  0
 22 28  1  0  0  0
 22 32  2  0  0  0
 26 27  1  0  0  0
 28100  1  0  0  0
 28101  1  0  0  0
 29102  1  0  0  0
 29103  1  0  0  0
 33 34  1  0  0  0
 33 66  1  0  0  0
 33 70  2  0  0  0
 34 36  1  0  0  0
 34 59  1  0  0  0
 34104  1  0  0  0
 35 44  2  0  0  0
 35 45  1  0  0  0
 35 68  1  0  0  0
 36 56  1  0  0  0
 36105  1  0  0  0
 37 39  1  0  0  0
 37 47  1  0  0  0
 37 66  1  0  0  0
 37106  1  0  0  0
 38 43  2  0  0  0
 38 46  1  0  0  0
 38 47  1  0  0  0
 39 64  1  0  0  0
 39 67  2  0  0  0
 40 52  1  0  0  0
 40 53  2  0  0  0
 40 58  1  0  0  0
 41107  1  0  0  0
 41108  1  0  0  0
 41109  1  0  0  0
 41 48  1  0  0  0
 42 43  1  0  0  0
 42 66  1  0  0  0
 42110  1  0  0  0
 42111  1  0  0  0
 43 44  1  0  0  0
 44112  1  0  0  0
 45 46  2  0  0  0
 45113  1  0  0  0
 46114  1  0  0  0
 47115  1  0  0  0
 47116  1  0  0  0
 48 56  1  0  0  0
 48 65  1  0  0  0
 48117  1  0  0  0
 49 50  1  0  0  0
 49 53  1  0  0  0
 49 64  1  0  0  0
 49118  1  0  0  0
 50 51  1  0  0  0
 50119  1  0  0  0
 50120  1  0  0  0
 51 52  1  0  0  0
 51121  1  0  0  0
 51122  1  0  0  0
 52123  1  0  0  0
 52124  1  0  0  0
 53 54  1  0  0  0
 54 55  2  0  0  0
 54125  1  0  0  0
 55 57  1  0  0  0
 55126  1  0  0  0
 56 69  2  0  0  0
 57 58  2  0  0  0
 57127  1  0  0  0
 58128  1  0  0  0
 59 60  1  0  0  0
 59 61  1  0  0  0
 59 62  1  0  0  0
 60129  1  0  0  0
 60130  1  0  0  0
 60131  1  0  0  0
 61132  1  0  0  0
 61133  1  0  0  0
 61134  1  0  0  0
 62135  1  0  0  0
 62136  1  0  0  0
 62137  1  0  0  0
 63 65  1  0  0  0
 63138  1  0  0  0
 63139  1  0  0  0
 63140  1  0  0  0
 64141  1  0  0  0
 65142  1  0  0  0
 68 80  1  0  0  0
 71 72  2  0  0  0
 71 73  1  0  0  0
 71143  1  0  0  0
 72 75  1  0  0  0
 72144  1  0  0  0
 73 76  2  0  0  0
 73145  1  0  0  0
 74 75  2  0  0  0
 74 76  1  0  0  0
 74146  1  0  0  0
 75 81  1  0  0  0
 76 82  1  0  0  0
 77 78  1  0  0  0
 77 81  1  0  0  0
 77 83  2  0  0  0
 78 79  1  0  0  0
 78147  1  0  0  0
 78148  1  0  0  0
 79 80  1  0  0  0
 79149  1  0  0  0
 79150  1  0  0  0
 80151  1  0  0  0
 80152  1  0  0  0
 81153  1  0  0  0
 82154  1  0  0  0
M  ISO  4   1 100  68 101  80 101  82 100
M  END
> <chiral flag>
0

> <version>
0

> <s_m_source_file>
/data/baiqing/PycharmProjects/Reinvent-master-3.2/result/LINK_invent/BTK/process_docking_weight1_custom_product_contain_oxygen_bond_distance_aromatic_linkinvent_7_9_3/rearranged_h_0059.sdf

> <i_m_source_file_index>
39

> <r_mmod_Potential_Energy-OPLS-2005>
-82.9036636352539

> <r_mmod_Stretch_Energy-OPLS-2005>
43.5146064758301

> <r_mmod_Bend_Energy-OPLS-2005>
102.434417724609

> <r_mmod_Torsional_Energy-OPLS-2005>
222.946380615234

> <r_mmod_Improper_Torsional_Energy-OPLS-2005>
3.56133818626404

> <r_mmod_Van_der_Waal_Energy-OPLS-2005>
167.015167236328

> <r_mmod_Electrostatic_Energy-OPLS-2005>
-401.277069091797

> <r_mmod_Solvation_Energy-OPLS-2005>
-238.666366577148

> <b_mmod_Minimization_Converged-OPLS-2005>
0

> <r_mmod_RMS_Derivative-OPLS-2005>
0.538797676563263

$$$$
39
                    3D
 Structure written by MMmdl.
151159  0  0  1  0            999 V2000
  -30.6158  -14.7137   20.4529 C   0  0  0  0  0  0
  -30.4330  -12.4223   19.4945 C   0  0  0  0  0  0
  -29.5262  -12.5195   18.2454 C   0  0  0  0  0  0
  -28.0443  -12.3522   18.6420 C   0  0  0  0  0  0
  -27.6498  -13.2345   19.8569 C   0  0  2  0  0  0
  -28.6875  -13.1448   20.9980 C   0  0  0  0  0  0
  -25.2547  -13.8207   20.5710 C   0  0  0  0  0  0
  -24.1826  -13.0428   20.9187 C   0  0  0  0  0  0
  -24.6428  -11.6919   20.8719 C   0  0  0  0  0  0
  -23.9103  -10.4293   21.0389 C   0  0  0  0  0  0
  -24.3645   -9.4212   21.9172 C   0  0  0  0  0  0
  -23.6308   -8.2249   22.0750 C   0  0  0  0  0  0
  -22.4285   -8.0288   21.3541 C   0  0  0  0  0  0
  -21.9929   -9.0267   20.4645 C   0  0  0  0  0  0
  -22.7267  -10.2138   20.3045 C   0  0  0  0  0  0
  -21.6852   -6.0739   22.5287 C   0  0  0  0  0  0
  -21.4017   -6.5641   23.8214 C   0  0  0  0  0  0
  -21.3662   -5.6791   24.9176 C   0  0  0  0  0  0
  -21.6040   -4.3050   24.7224 C   0  0  0  0  0  0
  -21.8819   -3.8145   23.4344 C   0  0  0  0  0  0
  -21.9199   -4.6971   22.3405 C   0  0  0  0  0  0
  -22.7847  -13.5219   21.1843 C   0  0  0  0  0  0
  -22.1660   -4.2151   21.0986 F   0  0  0  0  0  0
  -21.5634   -3.4536   25.7738 F   0  0  0  0  0  0
  -30.0008  -13.4820   20.4361 N   0  0  0  0  0  0
  -26.2979  -12.9423   20.3269 N   0  0  0  0  0  0
  -25.9362  -11.6559   20.5710 N   0  0  0  0  0  0
  -22.0496  -12.8212   22.0409 N   0  0  0  0  0  0
  -25.4277  -15.1929   20.4212 N   0  0  0  0  0  0
  -31.7914  -14.8162   20.0891 O   0  0  0  0  0  0
  -21.6635   -6.8887   21.4244 O   0  0  0  0  0  0
  -22.3521  -14.5512   20.6680 O   0  0  0  0  0  0
  -24.6361  -31.8583   23.1997 C   0  0  0  0  0  0
  -25.9163  -32.4799   23.8371 C   0  0  1  0  0  0
  -27.2043  -27.2587   20.1114 C   0  0  0  0  0  0
  -25.5944  -33.8602   24.2286 N   0  0  0  0  0  0
  -23.4312  -30.4835   21.5473 C   0  0  2  0  0  0
  -24.8713  -28.9351   20.1116 C   0  0  0  0  0  0
  -22.7552  -29.4626   22.4960 C   0  0  0  0  0  0
  -18.0302  -28.1408   22.8503 C   0  0  0  0  0  0
  -24.1477  -36.7281   23.2635 C   0  0  0  0  0  0
  -25.9810  -30.7720   21.3768 C   0  0  0  0  0  0
  -26.0495  -29.3952   20.7135 C   0  0  0  0  0  0
  -27.2226  -28.5711   20.6979 C   0  0  0  0  0  0
  -25.9975  -26.8712   19.4841 C   0  0  0  0  0  0
  -24.8501  -27.6823   19.4876 C   0  0  0  0  0  0
  -23.6464  -29.8252   20.1612 C   0  0  0  0  0  0
  -25.4108  -36.3109   24.0342 C   0  0  1  0  0  0
  -20.5909  -28.3702   23.1292 C   0  0  2  0  0  0
  -20.6790  -26.9430   22.5415 C   0  0  0  0  0  0
  -19.5745  -26.6395   21.5238 C   0  0  0  0  0  0
  -18.1922  -26.7947   22.1641 C   0  0  0  0  0  0
  -19.1555  -28.8879   23.2886 C   0  0  0  0  0  0
  -18.9462  -30.1472   23.8915 C   0  0  0  0  0  0
  -17.6457  -30.6601   24.0570 C   0  0  0  0  0  0
  -25.9055  -34.9477   23.5119 C   0  0  0  0  0  0
  -16.5349  -29.9099   23.6328 C   0  0  0  0  0  0
  -16.7286  -28.6514   23.0368 C   0  0  0  0  0  0
  -26.4495  -31.6635   25.0773 C   0  0  0  0  0  0
  -25.3674  -31.3784   26.1461 C   0  0  0  0  0  0
  -27.0318  -30.3061   24.6223 C   0  0  0  0  0  0
  -27.6061  -32.4378   25.7519 C   0  0  0  0  0  0
  -27.5587  -37.1804   24.8473 C   0  0  0  0  0  0
  -21.4258  -29.3048   22.3696 N   0  0  0  0  0  0
  -26.4291  -37.3804   23.9424 N   0  0  0  0  0  0
  -24.7024  -31.0563   22.0960 N   0  0  0  0  0  0
  -23.4272  -28.8165   23.3040 O   0  0  0  0  0  0
  -28.2844  -26.3443   20.1707 O   0  0  0  0  0  0
  -26.5632  -34.8948   22.4688 O   0  0  0  0  0  0
  -23.5509  -32.1382   23.7307 O   0  0  0  0  0  0
  -30.1881  -17.1580   18.6494 C   0  0  0  0  0  0
  -30.1876  -18.3449   17.8940 C   0  0  0  0  0  0
  -29.5561  -18.4608   20.6082 C   0  0  0  0  0  0
  -29.8899  -17.1604   20.0298 C   0  0  0  0  0  0
  -29.5470  -19.7081   19.8451 C   0  0  0  0  0  0
  -29.8974  -19.5935   18.4737 C   0  0  0  0  0  0
  -28.7419  -22.1912   19.8403 C   0  0  0  0  0  0
  -29.0192  -23.6874   20.3538 C   0  0  0  0  0  0
  -27.9987  -24.8786   19.9525 C   0  0  0  0  0  0
  -29.3293  -21.0685   20.4128 N   0  0  0  0  0  0
  -29.8577  -15.8455   20.7202 N   0  0  0  0  0  0
  -27.9356  -22.0566   18.9171 O   0  0  0  0  0  0
  -30.0259  -20.6919   17.6919 F   0  0  0  0  0  0
  -31.4832  -12.5183   19.2137 H   0  0  0  0  0  0
  -30.3442  -11.4384   19.9598 H   0  0  0  0  0  0
  -29.8120  -11.7626   17.5131 H   0  0  0  0  0  0
  -29.6708  -13.4877   17.7611 H   0  0  0  0  0  0
  -27.8870  -11.2999   18.8807 H   0  0  0  0  0  0
  -27.3976  -12.5699   17.7908 H   0  0  0  0  0  0
  -27.6572  -14.2621   19.4928 H   0  0  0  0  0  0
  -28.7049  -12.1404   21.4264 H   0  0  0  0  0  0
  -28.4251  -13.8204   21.8121 H   0  0  0  0  0  0
  -25.2799   -9.5660   22.4727 H   0  0  0  0  0  0
  -24.0009   -7.4636   22.7469 H   0  0  0  0  0  0
  -21.0850   -8.8784   19.8960 H   0  0  0  0  0  0
  -22.3736  -10.9663   19.6129 H   0  0  0  0  0  0
  -21.2006   -7.6142   23.9724 H   0  0  0  0  0  0
  -21.1481   -6.0514   25.9078 H   0  0  0  0  0  0
  -22.0601   -2.7610   23.2845 H   0  0  0  0  0  0
  -22.4116  -11.9879   22.4790 H   0  0  0  0  0  0
  -21.1114  -13.1219   22.2621 H   0  0  0  0  0  0
  -24.6659  -15.8495   20.5532 H   0  0  0  0  0  0
  -26.2857  -15.6371   20.1191 H   0  0  0  0  0  0
  -26.7259  -32.5459   23.1151 H   0  0  0  0  0  0
  -25.0134  -33.9738   25.0463 H   0  0  0  0  0  0
  -22.7245  -31.3041   21.4074 H   0  0  0  0  0  0
  -23.3775  -35.9578   23.3309 H   0  0  0  0  0  0
  -24.3561  -36.8878   22.2044 H   0  0  0  0  0  0
  -23.7181  -37.6469   23.6639 H   0  0  0  0  0  0
  -26.1215  -31.5323   20.6072 H   0  0  0  0  0  0
  -26.8590  -30.8214   22.0096 H   0  0  0  0  0  0
  -28.1277  -28.9194   21.1744 H   0  0  0  0  0  0
  -25.8900  -25.9129   18.9996 H   0  0  0  0  0  0
  -23.9471  -27.3233   19.0144 H   0  0  0  0  0  0
  -23.7816  -30.6049   19.4101 H   0  0  0  0  0  0
  -22.7602  -29.2678   19.8533 H   0  0  0  0  0  0
  -25.1281  -36.1964   25.0836 H   0  0  0  0  0  0
  -20.9987  -28.3273   24.1420 H   0  0  0  0  0  0
  -20.5705  -26.2324   23.3620 H   0  0  0  0  0  0
  -21.6653  -26.7469   22.1183 H   0  0  0  0  0  0
  -19.6891  -25.6305   21.1274 H   0  0  0  0  0  0
  -19.6668  -27.3207   20.6767 H   0  0  0  0  0  0
  -17.4197  -26.6730   21.4033 H   0  0  0  0  0  0
  -18.0294  -26.0094   22.9035 H   0  0  0  0  0  0
  -19.7929  -30.7288   24.2317 H   0  0  0  0  0  0
  -17.4998  -31.6277   24.5167 H   0  0  0  0  0  0
  -15.5346  -30.3002   23.7627 H   0  0  0  0  0  0
  -15.8689  -28.0814   22.7106 H   0  0  0  0  0  0
  -24.5893  -30.7086   25.7782 H   0  0  0  0  0  0
  -24.8797  -32.2939   26.4827 H   0  0  0  0  0  0
  -25.7957  -30.9018   27.0282 H   0  0  0  0  0  0
  -26.2887  -29.6853   24.1206 H   0  0  0  0  0  0
  -27.3965  -29.7300   25.4729 H   0  0  0  0  0  0
  -27.8787  -30.4367   23.9485 H   0  0  0  0  0  0
  -27.2705  -33.3719   26.2035 H   0  0  0  0  0  0
  -28.3875  -32.6873   25.0333 H   0  0  0  0  0  0
  -28.0710  -31.8534   26.5459 H   0  0  0  0  0  0
  -28.2618  -38.0096   24.7571 H   0  0  0  0  0  0
  -28.1080  -36.2643   24.6250 H   0  0  0  0  0  0
  -27.2321  -37.1391   25.8880 H   0  0  0  0  0  0
  -20.9474  -29.8775   21.6883 H   0  0  0  0  0  0
  -26.0188  -38.2884   24.1435 H   0  0  0  0  0  0
  -30.4128  -16.2336   18.1347 H   0  0  0  0  0  0
  -30.4358  -18.3065   16.8419 H   0  0  0  0  0  0
  -29.3122  -18.5062   21.6598 H   0  0  0  0  0  0
  -30.0016  -23.9599   19.9662 H   0  0  0  0  0  0
  -29.1281  -23.6633   21.4370 H   0  0  0  0  0  0
  -27.7679  -24.7561   18.8925 H   0  0  0  0  0  0
  -27.0774  -24.6514   20.4918 H   0  0  0  0  0  0
  -29.7587  -21.2269   21.3137 H   0  0  0  0  0  0
  -29.0294  -15.6705   21.2711 H   0  0  0  0  0  0
  1 25  1  0  0  0
  1 30  2  0  0  0
  1 81  1  0  0  0
  2  3  1  0  0  0
  2 25  1  0  0  0
  2 84  1  0  0  0
  2 85  1  0  0  0
  3  4  1  0  0  0
  3 86  1  0  0  0
  3 87  1  0  0  0
  4  5  1  0  0  0
  4 88  1  0  0  0
  4 89  1  0  0  0
  5  6  1  0  0  0
  5 26  1  0  0  0
  5 90  1  0  0  0
  6 25  1  0  0  0
  6 91  1  0  0  0
  6 92  1  0  0  0
  7  8  2  0  0  0
  7 26  1  0  0  0
  7 29  1  0  0  0
  8  9  1  0  0  0
  8 22  1  0  0  0
  9 10  1  0  0  0
  9 27  2  0  0  0
 10 11  2  0  0  0
 10 15  1  0  0  0
 11 12  1  0  0  0
 11 93  1  0  0  0
 12 13  2  0  0  0
 12 94  1  0  0  0
 13 14  1  0  0  0
 13 31  1  0  0  0
 14 15  2  0  0  0
 14 95  1  0  0  0
 15 96  1  0  0  0
 16 17  2  0  0  0
 16 21  1  0  0  0
 16 31  1  0  0  0
 17 18  1  0  0  0
 17 97  1  0  0  0
 18 19  2  0  0  0
 18 98  1  0  0  0
 19 20  1  0  0  0
 19 24  1  0  0  0
 20 21  2  0  0  0
 20 99  1  0  0  0
 21 23  1  0  0  0
 22 28  1  0  0  0
 22 32  2  0  0  0
 26 27  1  0  0  0
 28100  1  0  0  0
 28101  1  0  0  0
 29102  1  0  0  0
 29103  1  0  0  0
 33 34  1  0  0  0
 33 66  1  0  0  0
 33 70  2  0  0  0
 34 36  1  0  0  0
 34 59  1  0  0  0
 34104  1  0  0  0
 35 44  2  0  0  0
 35 45  1  0  0  0
 35 68  1  0  0  0
 36 56  1  0  0  0
 36105  1  0  0  0
 37 39  1  0  0  0
 37 47  1  0  0  0
 37 66  1  0  0  0
 37106  1  0  0  0
 38 43  2  0  0  0
 38 46  1  0  0  0
 38 47  1  0  0  0
 39 64  1  0  0  0
 39 67  2  0  0  0
 40 52  1  0  0  0
 40 53  2  0  0  0
 40 58  1  0  0  0
 41107  1  0  0  0
 41108  1  0  0  0
 41109  1  0  0  0
 41 48  1  0  0  0
 42 43  1  0  0  0
 42 66  1  0  0  0
 42110  1  0  0  0
 42111  1  0  0  0
 43 44  1  0  0  0
 44112  1  0  0  0
 45 46  2  0  0  0
 45113  1  0  0  0
 46114  1  0  0  0
 47115  1  0  0  0
 47116  1  0  0  0
 48 56  1  0  0  0
 48 65  1  0  0  0
 48117  1  0  0  0
 49 50  1  0  0  0
 49 53  1  0  0  0
 49 64  1  0  0  0
 49118  1  0  0  0
 50 51  1  0  0  0
 50119  1  0  0  0
 50120  1  0  0  0
 51 52  1  0  0  0
 51121  1  0  0  0
 51122  1  0  0  0
 52123  1  0  0  0
 52124  1  0  0  0
 53 54  1  0  0  0
 54 55  2  0  0  0
 54125  1  0  0  0
 55 57  1  0  0  0
 55126  1  0  0  0
 56 69  2  0  0  0
 57 58  2  0  0  0
 57127  1  0  0  0
 58128  1  0  0  0
 59 60  1  0  0  0
 59 61  1  0  0  0
 59 62  1  0  0  0
 60129  1  0  0  0
 60130  1  0  0  0
 60131  1  0  0  0
 61132  1  0  0  0
 61133  1  0  0  0
 61134  1  0  0  0
 62135  1  0  0  0
 62136  1  0  0  0
 62137  1  0  0  0
 63 65  1  0  0  0
 63138  1  0  0  0
 63139  1  0  0  0
 63140  1  0  0  0
 64141  1  0  0  0
 65142  1  0  0  0
 68 79  1  0  0  0
 71 72  2  0  0  0
 71 74  1  0  0  0
 71143  1  0  0  0
 72 76  1  0  0  0
 72144  1  0  0  0
 73 74  2  0  0  0
 73 75  1  0  0  0
 73145  1  0  0  0
 74 81  1  0  0  0
 75 76  2  0  0  0
 75 80  1  0  0  0
 76 83  1  0  0  0
 77 78  1  0  0  0
 77 80  1  0  0  0
 77 82  2  0  0  0
 78 79  1  0  0  0
 78146  1  0  0  0
 78147  1  0  0  0
 79148  1  0  0  0
 79149  1  0  0  0
 80150  1  0  0  0
 81151  1  0  0  0
M  ISO  4   1 100  68 101  79 101  81 100
M  END
> <chiral flag>
0

> <version>
0

> <s_m_source_file>
/data/baiqing/PycharmProjects/Reinvent-master-3.2/result/LINK_invent/BTK/process_docking_weight1_custom_product_contain_oxygen_bond_distance_aromatic_linkinvent_7_9_3/rearranged_h_0059.sdf

> <i_m_source_file_index>
40

> <r_mmod_Potential_Energy-OPLS-2005>
118.15348815918

> <r_mmod_Stretch_Energy-OPLS-2005>
125.266761779785

> <r_mmod_Bend_Energy-OPLS-2005>
152.227920532227

> <r_mmod_Torsional_Energy-OPLS-2005>
259.404388427734

> <r_mmod_Improper_Torsional_Energy-OPLS-2005>
5.40083837509155

> <r_mmod_Van_der_Waal_Energy-OPLS-2005>
146.966934204102

> <r_mmod_Electrostatic_Energy-OPLS-2005>
-411.594879150391

> <r_mmod_Solvation_Energy-OPLS-2005>
-239.772827148438

> <b_mmod_Minimization_Converged-OPLS-2005>
0

> <r_mmod_RMS_Derivative-OPLS-2005>
3.22829723358154

$$$$
40
                    3D
 Structure written by MMmdl.
161170  0  0  1  0            999 V2000
  -30.6763  -14.6027   20.4735 C   0  0  0  0  0  0
  -30.4250  -12.3631   19.4653 C   0  0  0  0  0  0
  -29.5119  -12.4931   18.2283 C   0  0  0  0  0  0
  -28.0323  -12.3471   18.6358 C   0  0  0  0  0  0
  -27.6525  -13.2289   19.8553 C   0  0  2  0  0  0
  -28.6931  -13.1124   20.9922 C   0  0  0  0  0  0
  -25.2552  -13.8204   20.5684 C   0  0  0  0  0  0
  -24.1830  -13.0446   20.9182 C   0  0  0  0  0  0
  -24.6417  -11.6922   20.8723 C   0  0  0  0  0  0
  -23.9088  -10.4297   21.0405 C   0  0  0  0  0  0
  -24.3626   -9.4210   21.9189 C   0  0  0  0  0  0
  -23.6294   -8.2249   22.0760 C   0  0  0  0  0  0
  -22.4280   -8.0282   21.3547 C   0  0  0  0  0  0
  -21.9908   -9.0258   20.4657 C   0  0  0  0  0  0
  -22.7248  -10.2132   20.3069 C   0  0  0  0  0  0
  -21.6855   -6.0738   22.5278 C   0  0  0  0  0  0
  -21.4017   -6.5636   23.8211 C   0  0  0  0  0  0
  -21.3655   -5.6782   24.9167 C   0  0  0  0  0  0
  -21.6057   -4.3048   24.7218 C   0  0  0  0  0  0
  -21.8816   -3.8145   23.4336 C   0  0  0  0  0  0
  -21.9189   -4.6966   22.3397 C   0  0  0  0  0  0
  -22.7844  -13.5235   21.1823 C   0  0  0  0  0  0
  -22.1665   -4.2152   21.0976 F   0  0  0  0  0  0
  -21.5620   -3.4526   25.7731 F   0  0  0  0  0  0
  -30.0134  -13.4083   20.4238 N   0  0  0  0  0  0
  -26.2990  -12.9418   20.3274 N   0  0  0  0  0  0
  -25.9352  -11.6554   20.5739 N   0  0  0  0  0  0
  -22.0476  -12.8251   22.0389 N   0  0  0  0  0  0
  -25.4234  -15.1933   20.4124 N   0  0  0  0  0  0
  -31.8691  -14.6729   20.1659 O   0  0  0  0  0  0
  -21.6643   -6.8882   21.4244 O   0  0  0  0  0  0
  -22.3528  -14.5532   20.6651 O   0  0  0  0  0  0
  -24.6257  -31.8635   23.2085 C   0  0  0  0  0  0
  -25.9129  -32.4790   23.8392 C   0  0  1  0  0  0
  -27.2063  -27.3183   20.1004 C   0  0  0  0  0  0
  -25.5962  -33.8590   24.2319 N   0  0  0  0  0  0
  -23.4157  -30.4940   21.5521 C   0  0  2  0  0  0
  -24.8564  -28.9613   20.1105 C   0  0  0  0  0  0
  -22.7476  -29.4650   22.4954 C   0  0  0  0  0  0
  -18.0295  -28.1391   22.8491 C   0  0  0  0  0  0
  -24.1484  -36.7288   23.2636 C   0  0  0  0  0  0
  -25.9604  -30.7898   21.3846 C   0  0  0  0  0  0
  -26.0271  -29.4201   20.7233 C   0  0  0  0  0  0
  -27.2003  -28.6092   20.7179 C   0  0  0  0  0  0
  -26.0056  -26.9300   19.4500 C   0  0  0  0  0  0
  -24.8489  -27.7209   19.4674 C   0  0  0  0  0  0
  -23.6286  -29.8435   20.1620 C   0  0  0  0  0  0
  -25.4108  -36.3092   24.0337 C   0  0  1  0  0  0
  -20.5894  -28.3696   23.1276 C   0  0  2  0  0  0
  -20.6781  -26.9422   22.5401 C   0  0  0  0  0  0
  -19.5752  -26.6393   21.5212 C   0  0  0  0  0  0
  -18.1936  -26.7932   22.1631 C   0  0  0  0  0  0
  -19.1543  -28.8865   23.2879 C   0  0  0  0  0  0
  -18.9465  -30.1463   23.8896 C   0  0  0  0  0  0
  -17.6456  -30.6592   24.0569 C   0  0  0  0  0  0
  -25.9050  -34.9459   23.5116 C   0  0  0  0  0  0
  -16.5354  -29.9087   23.6334 C   0  0  0  0  0  0
  -16.7275  -28.6510   23.0352 C   0  0  0  0  0  0
  -26.4505  -31.6588   25.0752 C   0  0  0  0  0  0
  -25.3734  -31.3735   26.1475 C   0  0  0  0  0  0
  -27.0350  -30.3014   24.6215 C   0  0  0  0  0  0
  -27.6071  -32.4312   25.7516 C   0  0  0  0  0  0
  -27.5576  -37.1814   24.8473 C   0  0  0  0  0  0
  -21.4193  -29.3048   22.3680 N   0  0  0  0  0  0
  -26.4294  -37.3779   23.9401 N   0  0  0  0  0  0
  -24.6857  -31.0660   22.1039 N   0  0  0  0  0  0
  -23.4214  -28.8180   23.3007 O   0  0  0  0  0  0
  -28.3335  -26.4776   20.1702 O   0  0  0  0  0  0
  -26.5600  -34.8921   22.4676 O   0  0  0  0  0  0
  -23.5431  -32.1438   23.7432 O   0  0  0  0  0  0
  -30.6831  -19.4823   18.6306 C   0  0  0  0  0  0
  -30.7894  -17.0552   18.7484 C   0  0  0  0  0  0
  -29.7817  -18.3175   20.5800 C   0  0  0  0  0  0
  -31.0408  -18.2515   18.0588 C   0  0  0  0  0  0
  -30.0555  -19.5591   19.8964 C   0  0  0  0  0  0
  -30.1814  -17.0426   20.0271 C   0  0  0  0  0  0
  -30.6428  -21.9156   20.3917 C   0  0  0  0  0  0
  -30.2299  -23.4206   20.3046 C   0  0  0  0  0  0
  -27.8577  -22.5848   20.0977 C   0  0  0  0  0  0
  -28.3368  -21.2460   20.7319 C   0  0  0  0  0  0
  -28.7335  -23.8212   20.4614 C   0  0  2  0  0  0
  -31.6905  -18.2125   16.6898 C   0  0  0  0  0  0
  -28.3128  -25.1039   19.6133 C   0  0  0  0  0  0
  -29.7186  -20.9059   20.3681 N   0  0  0  0  0  0
  -29.9415  -15.7461   20.6636 N   0  0  0  0  0  0
  -31.8551  -21.6813   20.4478 O   0  0  0  0  0  0
  -31.4739  -12.4481   19.1730 H   0  0  0  0  0  0
  -30.3239  -11.3744   19.9152 H   0  0  0  0  0  0
  -29.7731  -11.7361   17.4870 H   0  0  0  0  0  0
  -29.6711  -13.4602   17.7468 H   0  0  0  0  0  0
  -27.8621  -11.2959   18.8715 H   0  0  0  0  0  0
  -27.3834  -12.5795   17.7908 H   0  0  0  0  0  0
  -27.6681  -14.2594   19.4976 H   0  0  0  0  0  0
  -28.6859  -12.1099   21.4213 H   0  0  0  0  0  0
  -28.4505  -13.7943   21.8079 H   0  0  0  0  0  0
  -25.2771   -9.5677   22.4749 H   0  0  0  0  0  0
  -23.9988   -7.4652   22.7492 H   0  0  0  0  0  0
  -21.0826   -8.8796   19.8975 H   0  0  0  0  0  0
  -22.3722  -10.9662   19.6169 H   0  0  0  0  0  0
  -21.2031   -7.6146   23.9717 H   0  0  0  0  0  0
  -21.1475   -6.0514   25.9069 H   0  0  0  0  0  0
  -22.0604   -2.7609   23.2835 H   0  0  0  0  0  0
  -22.4055  -11.9911   22.4809 H   0  0  0  0  0  0
  -21.1103  -13.1311   22.2591 H   0  0  0  0  0  0
  -24.6508  -15.8397   20.5290 H   0  0  0  0  0  0
  -26.2703  -15.6374   20.0804 H   0  0  0  0  0  0
  -26.7201  -32.5461   23.1145 H   0  0  0  0  0  0
  -25.0148  -33.9733   25.0492 H   0  0  0  0  0  0
  -22.7084  -31.3155   21.4186 H   0  0  0  0  0  0
  -23.3747  -35.9622   23.3315 H   0  0  0  0  0  0
  -24.3574  -36.8883   22.2048 H   0  0  0  0  0  0
  -23.7242  -37.6504   23.6629 H   0  0  0  0  0  0
  -26.1030  -31.5519   20.6172 H   0  0  0  0  0  0
  -26.8370  -30.8279   22.0178 H   0  0  0  0  0  0
  -28.0945  -28.9549   21.2174 H   0  0  0  0  0  0
  -25.8753  -26.0167   18.9000 H   0  0  0  0  0  0
  -23.9554  -27.3698   18.9687 H   0  0  0  0  0  0
  -23.7536  -30.6254   19.4111 H   0  0  0  0  0  0
  -22.7463  -29.2802   19.8538 H   0  0  0  0  0  0
  -25.1291  -36.1956   25.0833 H   0  0  0  0  0  0
  -20.9986  -28.3262   24.1395 H   0  0  0  0  0  0
  -20.5696  -26.2303   23.3596 H   0  0  0  0  0  0
  -21.6648  -26.7458   22.1190 H   0  0  0  0  0  0
  -19.6897  -25.6304   21.1239 H   0  0  0  0  0  0
  -19.6678  -27.3201   20.6737 H   0  0  0  0  0  0
  -17.4204  -26.6684   21.4031 H   0  0  0  0  0  0
  -18.0338  -26.0069   22.9025 H   0  0  0  0  0  0
  -19.7932  -30.7292   24.2254 H   0  0  0  0  0  0
  -17.5009  -31.6262   24.5183 H   0  0  0  0  0  0
  -15.5353  -30.2994   23.7645 H   0  0  0  0  0  0
  -15.8677  -28.0826   22.7062 H   0  0  0  0  0  0
  -24.5924  -30.7062   25.7807 H   0  0  0  0  0  0
  -24.8913  -32.2906   26.4877 H   0  0  0  0  0  0
  -25.8065  -30.8943   27.0266 H   0  0  0  0  0  0
  -26.2934  -29.6767   24.1227 H   0  0  0  0  0  0
  -27.4026  -29.7271   25.4730 H   0  0  0  0  0  0
  -27.8813  -30.4297   23.9463 H   0  0  0  0  0  0
  -27.2699  -33.3621   26.2086 H   0  0  0  0  0  0
  -28.3887  -32.6857   25.0341 H   0  0  0  0  0  0
  -28.0724  -31.8438   26.5443 H   0  0  0  0  0  0
  -28.2622  -38.0082   24.7502 H   0  0  0  0  0  0
  -28.1051  -36.2629   24.6332 H   0  0  0  0  0  0
  -27.2298  -37.1500   25.8877 H   0  0  0  0  0  0
  -20.9373  -29.8797   21.6920 H   0  0  0  0  0  0
  -26.0185  -38.2859   24.1389 H   0  0  0  0  0  0
  -30.8863  -20.3876   18.0759 H   0  0  0  0  0  0
  -31.0651  -16.1316   18.2576 H   0  0  0  0  0  0
  -29.2863  -18.3470   21.5399 H   0  0  0  0  0  0
  -30.5685  -23.7340   19.3171 H   0  0  0  0  0  0
  -30.8284  -23.9954   21.0113 H   0  0  0  0  0  0
  -26.8243  -22.7736   20.3920 H   0  0  0  0  0  0
  -27.8408  -22.4603   19.0140 H   0  0  0  0  0  0
  -27.6683  -20.4384   20.4300 H   0  0  0  0  0  0
  -28.2763  -21.3019   21.8199 H   0  0  0  0  0  0
  -28.5543  -24.0379   21.5150 H   0  0  0  0  0  0
  -32.3198  -17.3292   16.5745 H   0  0  0  0  0  0
  -32.3135  -19.0923   16.5275 H   0  0  0  0  0  0
  -30.9264  -18.1855   15.9132 H   0  0  0  0  0  0
  -27.3433  -24.8211   19.2368 H   0  0  0  0  0  0
  -28.9175  -25.1381   18.7071 H   0  0  0  0  0  0
  -29.0391  -15.6247   21.0998 H   0  0  0  0  0  0
  1 25  1  0  0  0
  1 30  2  0  0  0
  1 85  1  0  0  0
  2  3  1  0  0  0
  2 25  1  0  0  0
  2 87  1  0  0  0
  2 88  1  0  0  0
  3  4  1  0  0  0
  3 89  1  0  0  0
  3 90  1  0  0  0
  4  5  1  0  0  0
  4 91  1  0  0  0
  4 92  1  0  0  0
  5  6  1  0  0  0
  5 26  1  0  0  0
  5 93  1  0  0  0
  6 25  1  0  0  0
  6 94  1  0  0  0
  6 95  1  0  0  0
  7  8  2  0  0  0
  7 26  1  0  0  0
  7 29  1  0  0  0
  8  9  1  0  0  0
  8 22  1  0  0  0
  9 10  1  0  0  0
  9 27  2  0  0  0
 10 11  2  0  0  0
 10 15  1  0  0  0
 11 12  1  0  0  0
 11 96  1  0  0  0
 12 13  2  0  0  0
 12 97  1  0  0  0
 13 14  1  0  0  0
 13 31  1  0  0  0
 14 15  2  0  0  0
 14 98  1  0  0  0
 15 99  1  0  0  0
 16 17  2  0  0  0
 16 21  1  0  0  0
 16 31  1  0  0  0
 17 18  1  0  0  0
 17100  1  0  0  0
 18 19  2  0  0  0
 18101  1  0  0  0
 19 20  1  0  0  0
 19 24  1  0  0  0
 20 21  2  0  0  0
 20102  1  0  0  0
 21 23  1  0  0  0
 22 28  1  0  0  0
 22 32  2  0  0  0
 26 27  1  0  0  0
 28103  1  0  0  0
 28104  1  0  0  0
 29105  1  0  0  0
 29106  1  0  0  0
 33 34  1  0  0  0
 33 66  1  0  0  0
 33 70  2  0  0  0
 34 36  1  0  0  0
 34 59  1  0  0  0
 34107  1  0  0  0
 35 44  2  0  0  0
 35 45  1  0  0  0
 35 68  1  0  0  0
 36 56  1  0  0  0
 36108  1  0  0  0
 37 39  1  0  0  0
 37 47  1  0  0  0
 37 66  1  0  0  0
 37109  1  0  0  0
 38 43  2  0  0  0
 38 46  1  0  0  0
 38 47  1  0  0  0
 39 64  1  0  0  0
 39 67  2  0  0  0
 40 52  1  0  0  0
 40 53  2  0  0  0
 40 58  1  0  0  0
 41110  1  0  0  0
 41111  1  0  0  0
 41112  1  0  0  0
 41 48  1  0  0  0
 42 43  1  0  0  0
 42 66  1  0  0  0
 42113  1  0  0  0
 42114  1  0  0  0
 43 44  1  0  0  0
 44115  1  0  0  0
 45 46  2  0  0  0
 45116  1  0  0  0
 46117  1  0  0  0
 47118  1  0  0  0
 47119  1  0  0  0
 48 56  1  0  0  0
 48 65  1  0  0  0
 48120  1  0  0  0
 49 50  1  0  0  0
 49 53  1  0  0  0
 49 64  1  0  0  0
 49121  1  0  0  0
 50 51  1  0  0  0
 50122  1  0  0  0
 50123  1  0  0  0
 51 52  1  0  0  0
 51124  1  0  0  0
 51125  1  0  0  0
 52126  1  0  0  0
 52127  1  0  0  0
 53 54  1  0  0  0
 54 55  2  0  0  0
 54128  1  0  0  0
 55 57  1  0  0  0
 55129  1  0  0  0
 56 69  2  0  0  0
 57 58  2  0  0  0
 57130  1  0  0  0
 58131  1  0  0  0
 59 60  1  0  0  0
 59 61  1  0  0  0
 59 62  1  0  0  0
 60132  1  0  0  0
 60133  1  0  0  0
 60134  1  0  0  0
 61135  1  0  0  0
 61136  1  0  0  0
 61137  1  0  0  0
 62138  1  0  0  0
 62139  1  0  0  0
 62140  1  0  0  0
 63 65  1  0  0  0
 63141  1  0  0  0
 63142  1  0  0  0
 63143  1  0  0  0
 64144  1  0  0  0
 65145  1  0  0  0
 68 83  1  0  0  0
 71 74  2  0  0  0
 71 75  1  0  0  0
 71146  1  0  0  0
 72 74  1  0  0  0
 72 76  2  0  0  0
 72147  1  0  0  0
 73 75  2  0  0  0
 73 76  1  0  0  0
 73148  1  0  0  0
 74 82  1  0  0  0
 75 84  1  0  0  0
 76 85  1  0  0  0
 77 78  1  0  0  0
 77 84  1  0  0  0
 77 86  2  0  0  0
 78 81  1  0  0  0
 78149  1  0  0  0
 78150  1  0  0  0
 79 80  1  0  0  0
 79 81  1  0  0  0
 79151  1  0  0  0
 79152  1  0  0  0
 80 84  1  0  0  0
 80153  1  0  0  0
 80154  1  0  0  0
 81 83  1  0  0  0
 81155  1  0  0  0
 82156  1  0  0  0
 82157  1  0  0  0
 82158  1  0  0  0
 83159  1  0  0  0
 83160  1  0  0  0
 85161  1  0  0  0
M  ISO  4   1 100  68 101  83 101  85 100
M  END
> <chiral flag>
0

> <version>
0

> <s_m_source_file>
/data/baiqing/PycharmProjects/Reinvent-master-3.2/result/LINK_invent/BTK/process_docking_weight1_custom_product_contain_oxygen_bond_distance_aromatic_linkinvent_7_9_3/rearranged_h_0059.sdf

> <i_m_source_file_index>
41

> <r_mmod_Potential_Energy-OPLS-2005>
201.205627441406

> <r_mmod_Stretch_Energy-OPLS-2005>
80.4354095458984

> <r_mmod_Bend_Energy-OPLS-2005>
146.663864135742

> <r_mmod_Torsional_Energy-OPLS-2005>
313.32421875

> <r_mmod_Improper_Torsional_Energy-OPLS-2005>
5.55032014846802

> <r_mmod_Van_der_Waal_Energy-OPLS-2005>
171.26432800293

> <r_mmod_Electrostatic_Energy-OPLS-2005>
-336.352172851562

> <r_mmod_Solvation_Energy-OPLS-2005>
-227.356201171875

> <b_mmod_Minimization_Converged-OPLS-2005>
0

> <r_mmod_RMS_Derivative-OPLS-2005>
2.09262847900391

$$$$
41
                    3D
 Structure written by MMmdl.
170179  0  0  1  0            999 V2000
  -30.7257  -14.3863   20.6610 C   0  0  0  0  0  0
  -30.4289  -12.2870   19.3974 C   0  0  0  0  0  0
  -29.4926  -12.5348   18.1975 C   0  0  0  0  0  0
  -28.0137  -12.3933   18.6084 C   0  0  0  0  0  0
  -27.6732  -13.1998   19.8885 C   0  0  2  0  0  0
  -28.7095  -12.9136   20.9979 C   0  0  0  0  0  0
  -25.2628  -13.8140   20.5661 C   0  0  0  0  0  0
  -24.1863  -13.0430   20.9139 C   0  0  0  0  0  0
  -24.6409  -11.6898   20.8712 C   0  0  0  0  0  0
  -23.9071  -10.4287   21.0394 C   0  0  0  0  0  0
  -24.3621   -9.4206   21.9176 C   0  0  0  0  0  0
  -23.6291   -8.2246   22.0757 C   0  0  0  0  0  0
  -22.4272   -8.0282   21.3549 C   0  0  0  0  0  0
  -21.9905   -9.0258   20.4649 C   0  0  0  0  0  0
  -22.7239  -10.2131   20.3051 C   0  0  0  0  0  0
  -21.6855   -6.0734   22.5281 C   0  0  0  0  0  0
  -21.4017   -6.5639   23.8215 C   0  0  0  0  0  0
  -21.3655   -5.6797   24.9176 C   0  0  0  0  0  0
  -21.6042   -4.3054   24.7226 C   0  0  0  0  0  0
  -21.8822   -3.8146   23.4349 C   0  0  0  0  0  0
  -21.9193   -4.6966   22.3406 C   0  0  0  0  0  0
  -22.7887  -13.5239   21.1799 C   0  0  0  0  0  0
  -22.1662   -4.2146   21.0985 F   0  0  0  0  0  0
  -21.5624   -3.4540   25.7741 F   0  0  0  0  0  0
  -30.0567  -13.2179   20.4724 N   0  0  0  0  0  0
  -26.3085  -12.9310   20.3417 N   0  0  0  0  0  0
  -25.9339  -11.6468   20.5769 N   0  0  0  0  0  0
  -22.0535  -12.8246   22.0371 N   0  0  0  0  0  0
  -25.4340  -15.1854   20.4068 N   0  0  0  0  0  0
  -31.7606  -14.6856   20.0563 O   0  0  0  0  0  0
  -21.6640   -6.8875   21.4243 O   0  0  0  0  0  0
  -22.3569  -14.5546   20.6651 O   0  0  0  0  0  0
  -24.6107  -31.8688   23.2099 C   0  0  0  0  0  0
  -25.9011  -32.4828   23.8376 C   0  0  1  0  0  0
  -27.2364  -27.4493   20.1031 C   0  0  0  0  0  0
  -25.5882  -33.8625   24.2318 N   0  0  0  0  0  0
  -23.3972  -30.4915   21.5495 C   0  0  2  0  0  0
  -24.8430  -28.9552   20.1156 C   0  0  0  0  0  0
  -22.7400  -29.4663   22.5011 C   0  0  0  0  0  0
  -18.0267  -28.1382   22.8470 C   0  0  0  0  0  0
  -24.1487  -36.7304   23.2646 C   0  0  0  0  0  0
  -25.9220  -30.8416   21.3559 C   0  0  0  0  0  0
  -25.9992  -29.4743   20.7096 C   0  0  0  0  0  0
  -27.1959  -28.7281   20.6993 C   0  0  0  0  0  0
  -26.0656  -26.9419   19.4955 C   0  0  0  0  0  0
  -24.8701  -27.6868   19.5087 C   0  0  0  0  0  0
  -23.6033  -29.8191   20.1652 C   0  0  0  0  0  0
  -25.4101  -36.3113   24.0354 C   0  0  1  0  0  0
  -20.5854  -28.3643   23.1332 C   0  0  2  0  0  0
  -20.6757  -26.9381   22.5428 C   0  0  0  0  0  0
  -19.5745  -26.6375   21.5222 C   0  0  0  0  0  0
  -18.1920  -26.7926   22.1622 C   0  0  0  0  0  0
  -19.1519  -28.8826   23.2900 C   0  0  0  0  0  0
  -18.9463  -30.1437   23.8895 C   0  0  0  0  0  0
  -17.6470  -30.6585   24.0563 C   0  0  0  0  0  0
  -25.9027  -34.9485   23.5135 C   0  0  0  0  0  0
  -16.5354  -29.9090   23.6335 C   0  0  0  0  0  0
  -16.7264  -28.6518   23.0323 C   0  0  0  0  0  0
  -26.4434  -31.6605   25.0698 C   0  0  0  0  0  0
  -25.3705  -31.3736   26.1457 C   0  0  0  0  0  0
  -27.0265  -30.3067   24.6030 C   0  0  0  0  0  0
  -27.6007  -32.4319   25.7457 C   0  0  0  0  0  0
  -27.5582  -37.1798   24.8472 C   0  0  0  0  0  0
  -21.4134  -29.3023   22.3748 N   0  0  0  0  0  0
  -26.4291  -37.3792   23.9422 N   0  0  0  0  0  0
  -24.6618  -31.0815   22.0980 N   0  0  0  0  0  0
  -23.4188  -28.8221   23.3050 O   0  0  0  0  0  0
  -28.4366  -26.7754   20.1002 O   0  0  0  0  0  0
  -26.5599  -34.8925   22.4701 O   0  0  0  0  0  0
  -23.5313  -32.1430   23.7519 O   0  0  0  0  0  0
  -28.5787  -19.0211   20.7813 C   0  0  0  0  0  0
  -28.4382  -16.8340   21.8454 C   0  0  0  0  0  0
  -30.4497  -17.4623   20.6177 C   0  0  0  0  0  0
  -27.8660  -18.0886   21.5603 C   0  0  0  0  0  0
  -29.8849  -18.7258   20.3351 C   0  0  0  0  0  0
  -29.7130  -16.4984   21.3459 C   0  0  0  0  0  0
  -32.1033  -23.1911   19.8437 C   0  0  0  0  0  0
  -31.4171  -24.0266   20.6705 C   0  0  0  0  0  0
  -31.6613  -21.9293   19.2563 C   0  0  0  0  0  0
  -29.6976  -22.5299   21.5440 C   0  0  0  0  0  0
  -32.5830  -26.1136   20.0341 C   0  0  0  0  0  0
  -32.0456  -25.3089   20.9653 C   0  0  0  0  0  0
  -30.7004  -21.3722   21.4675 C   0  0  0  0  0  0
  -26.4824  -18.4254   22.0793 C   0  0  0  0  0  0
  -30.6597  -19.7317   19.4891 C   0  0  0  0  0  0
  -29.2243  -24.9277   21.4503 C   0  0  0  0  0  0
  -28.4494  -25.3476   20.1837 C   0  0  0  0  0  0
  -30.1169  -23.7732   21.1904 N   0  0  0  0  0  0
  -31.0107  -21.0531   20.0647 N   0  0  0  0  0  0
  -30.1816  -15.1832   21.5910 N   0  0  0  0  0  0
  -31.9083  -21.6624   18.0772 O   0  0  0  0  0  0
  -28.5535  -22.2882   21.9421 O   0  0  0  0  0  0
  -31.4711  -12.4005   19.0935 H   0  0  0  0  0  0
  -30.3347  -11.2590   19.7504 H   0  0  0  0  0  0
  -29.7242  -11.8407   17.3883 H   0  0  0  0  0  0
  -29.6653  -13.5358   17.8001 H   0  0  0  0  0  0
  -27.8103  -11.3339   18.7702 H   0  0  0  0  0  0
  -27.3662  -12.7039   17.7879 H   0  0  0  0  0  0
  -27.7386  -14.2590   19.6358 H   0  0  0  0  0  0
  -28.6705  -11.8625   21.2857 H   0  0  0  0  0  0
  -28.4517  -13.4592   21.9053 H   0  0  0  0  0  0
  -25.2776   -9.5677   22.4736 H   0  0  0  0  0  0
  -24.0001   -7.4641   22.7481 H   0  0  0  0  0  0
  -21.0834   -8.8777   19.8961 H   0  0  0  0  0  0
  -22.3706  -10.9666   19.6150 H   0  0  0  0  0  0
  -21.2015   -7.6149   23.9717 H   0  0  0  0  0  0
  -21.1469   -6.0523   25.9077 H   0  0  0  0  0  0
  -22.0603   -2.7609   23.2856 H   0  0  0  0  0  0
  -22.4162  -11.9915   22.4761 H   0  0  0  0  0  0
  -21.1152  -13.1273   22.2576 H   0  0  0  0  0  0
  -24.6655  -15.8376   20.5098 H   0  0  0  0  0  0
  -26.2989  -15.6309   20.1261 H   0  0  0  0  0  0
  -26.7076  -32.5534   23.1132 H   0  0  0  0  0  0
  -25.0011  -33.9780   25.0448 H   0  0  0  0  0  0
  -22.6841  -31.3072   21.4088 H   0  0  0  0  0  0
  -23.3758  -35.9635   23.3321 H   0  0  0  0  0  0
  -24.3582  -36.8890   22.2060 H   0  0  0  0  0  0
  -23.7238  -37.6512   23.6635 H   0  0  0  0  0  0
  -26.0253  -31.6055   20.5836 H   0  0  0  0  0  0
  -26.8145  -30.9005   21.9670 H   0  0  0  0  0  0
  -28.0909  -29.1308   21.1520 H   0  0  0  0  0  0
  -26.0682  -25.9856   18.9926 H   0  0  0  0  0  0
  -23.9816  -27.2819   19.0453 H   0  0  0  0  0  0
  -23.7062  -30.5909   19.4020 H   0  0  0  0  0  0
  -22.7281  -29.2359   19.8717 H   0  0  0  0  0  0
  -25.1280  -36.1978   25.0851 H   0  0  0  0  0  0
  -20.9930  -28.3192   24.1461 H   0  0  0  0  0  0
  -20.5655  -26.2246   23.3602 H   0  0  0  0  0  0
  -21.6627  -26.7417   22.1224 H   0  0  0  0  0  0
  -19.6910  -25.6299   21.1223 H   0  0  0  0  0  0
  -19.6702  -27.3203   20.6772 H   0  0  0  0  0  0
  -17.4191  -26.6664   21.4023 H   0  0  0  0  0  0
  -18.0305  -26.0076   22.9019 H   0  0  0  0  0  0
  -19.7953  -30.7250   24.2237 H   0  0  0  0  0  0
  -17.5047  -31.6265   24.5169 H   0  0  0  0  0  0
  -15.5367  -30.3001   23.7681 H   0  0  0  0  0  0
  -15.8659  -28.0877   22.7006 H   0  0  0  0  0  0
  -24.5867  -30.7076   25.7820 H   0  0  0  0  0  0
  -24.8893  -32.2908   26.4870 H   0  0  0  0  0  0
  -25.8054  -30.8941   27.0238 H   0  0  0  0  0  0
  -26.2804  -29.6837   24.1077 H   0  0  0  0  0  0
  -27.4085  -29.7273   25.4446 H   0  0  0  0  0  0
  -27.8601  -30.4424   23.9134 H   0  0  0  0  0  0
  -27.2622  -33.3620   26.2032 H   0  0  0  0  0  0
  -28.3808  -32.6876   25.0276 H   0  0  0  0  0  0
  -28.0665  -31.8440   26.5372 H   0  0  0  0  0  0
  -28.2605  -38.0090   24.7508 H   0  0  0  0  0  0
  -28.1069  -36.2620   24.6298 H   0  0  0  0  0  0
  -27.2303  -37.1448   25.8876 H   0  0  0  0  0  0
  -20.9286  -29.8742   21.6973 H   0  0  0  0  0  0
  -26.0194  -38.2873   24.1420 H   0  0  0  0  0  0
  -28.1297  -19.9747   20.5366 H   0  0  0  0  0  0
  -27.8737  -16.1149   22.4240 H   0  0  0  0  0  0
  -31.4391  -17.2278   20.2498 H   0  0  0  0  0  0
  -33.0759  -23.5181   19.5040 H   0  0  0  0  0  0
  -33.0412  -27.0526   20.3103 H   0  0  0  0  0  0
  -32.5764  -25.8523   18.9849 H   0  0  0  0  0  0
  -32.0943  -25.6314   21.9971 H   0  0  0  0  0  0
  -30.3239  -20.5294   22.0399 H   0  0  0  0  0  0
  -31.6113  -21.6503   21.9979 H   0  0  0  0  0  0
  -26.3222  -19.5037   22.1092 H   0  0  0  0  0  0
  -26.3467  -18.0396   23.0900 H   0  0  0  0  0  0
  -25.7173  -17.9830   21.4415 H   0  0  0  0  0  0
  -30.0638  -19.8945   18.5884 H   0  0  0  0  0  0
  -31.5813  -19.2552   19.1479 H   0  0  0  0  0  0
  -28.5127  -24.7227   22.2514 H   0  0  0  0  0  0
  -29.7766  -25.7785   21.8451 H   0  0  0  0  0  0
  -27.4645  -24.8820   20.2117 H   0  0  0  0  0  0
  -28.9463  -24.9809   19.2847 H   0  0  0  0  0  0
  -29.5728  -14.6573   22.1992 H   0  0  0  0  0  0
  1 25  1  0  0  0
  1 30  2  0  0  0
  1 90  1  0  0  0
  2  3  1  0  0  0
  2 25  1  0  0  0
  2 93  1  0  0  0
  2 94  1  0  0  0
  3  4  1  0  0  0
  3 95  1  0  0  0
  3 96  1  0  0  0
  4  5  1  0  0  0
  4 97  1  0  0  0
  4 98  1  0  0  0
  5  6  1  0  0  0
  5 26  1  0  0  0
  5 99  1  0  0  0
  6 25  1  0  0  0
  6100  1  0  0  0
  6101  1  0  0  0
  7  8  2  0  0  0
  7 26  1  0  0  0
  7 29  1  0  0  0
  8  9  1  0  0  0
  8 22  1  0  0  0
  9 10  1  0  0  0
  9 27  2  0  0  0
 10 11  2  0  0  0
 10 15  1  0  0  0
 11 12  1  0  0  0
 11102  1  0  0  0
 12 13  2  0  0  0
 12103  1  0  0  0
 13 14  1  0  0  0
 13 31  1  0  0  0
 14 15  2  0  0  0
 14104  1  0  0  0
 15105  1  0  0  0
 16 17  2  0  0  0
 16 21  1  0  0  0
 16 31  1  0  0  0
 17 18  1  0  0  0
 17106  1  0  0  0
 18 19  2  0  0  0
 18107  1  0  0  0
 19 20  1  0  0  0
 19 24  1  0  0  0
 20 21  2  0  0  0
 20108  1  0  0  0
 21 23  1  0  0  0
 22 28  1  0  0  0
 22 32  2  0  0  0
 26 27  1  0  0  0
 28109  1  0  0  0
 28110  1  0  0  0
 29111  1  0  0  0
 29112  1  0  0  0
 33 34  1  0  0  0
 33 66  1  0  0  0
 33 70  2  0  0  0
 34 36  1  0  0  0
 34 59  1  0  0  0
 34113  1  0  0  0
 35 44  2  0  0  0
 35 45  1  0  0  0
 35 68  1  0  0  0
 36 56  1  0  0  0
 36114  1  0  0  0
 37 39  1  0  0  0
 37 47  1  0  0  0
 37 66  1  0  0  0
 37115  1  0  0  0
 38 43  2  0  0  0
 38 46  1  0  0  0
 38 47  1  0  0  0
 39 64  1  0  0  0
 39 67  2  0  0  0
 40 52  1  0  0  0
 40 53  2  0  0  0
 40 58  1  0  0  0
 41116  1  0  0  0
 41117  1  0  0  0
 41118  1  0  0  0
 41 48  1  0  0  0
 42 43  1  0  0  0
 42 66  1  0  0  0
 42119  1  0  0  0
 42120  1  0  0  0
 43 44  1  0  0  0
 44121  1  0  0  0
 45 46  2  0  0  0
 45122  1  0  0  0
 46123  1  0  0  0
 47124  1  0  0  0
 47125  1  0  0  0
 48 56  1  0  0  0
 48 65  1  0  0  0
 48126  1  0  0  0
 49 50  1  0  0  0
 49 53  1  0  0  0
 49 64  1  0  0  0
 49127  1  0  0  0
 50 51  1  0  0  0
 50128  1  0  0  0
 50129  1  0  0  0
 51 52  1  0  0  0
 51130  1  0  0  0
 51131  1  0  0  0
 52132  1  0  0  0
 52133  1  0  0  0
 53 54  1  0  0  0
 54 55  2  0  0  0
 54134  1  0  0  0
 55 57  1  0  0  0
 55135  1  0  0  0
 56 69  2  0  0  0
 57 58  2  0  0  0
 57136  1  0  0  0
 58137  1  0  0  0
 59 60  1  0  0  0
 59 61  1  0  0  0
 59 62  1  0  0  0
 60138  1  0  0  0
 60139  1  0  0  0
 60140  1  0  0  0
 61141  1  0  0  0
 61142  1  0  0  0
 61143  1  0  0  0
 62144  1  0  0  0
 62145  1  0  0  0
 62146  1  0  0  0
 63 65  1  0  0  0
 63147  1  0  0  0
 63148  1  0  0  0
 63149  1  0  0  0
 64150  1  0  0  0
 65151  1  0  0  0
 68 87  1  0  0  0
 71 74  2  0  0  0
 71 75  1  0  0  0
 71152  1  0  0  0
 72 74  1  0  0  0
 72 76  2  0  0  0
 72153  1  0  0  0
 73 75  2  0  0  0
 73 76  1  0  0  0
 73154  1  0  0  0
 74 84  1  0  0  0
 75 85  1  0  0  0
 76 90  1  0  0  0
 77 78  2  0  0  0
 77 79  1  0  0  0
 77155  1  0  0  0
 78 82  1  0  0  0
 78 88  1  0  0  0
 79 89  1  0  0  0
 79 91  2  0  0  0
 80 83  1  0  0  0
 80 88  1  0  0  0
 80 92  2  0  0  0
 81 82  2  0  0  0
 81156  1  0  0  0
 81157  1  0  0  0
 82158  1  0  0  0
 83 89  1  0  0  0
 83159  1  0  0  0
 83160  1  0  0  0
 84161  1  0  0  0
 84162  1  0  0  0
 84163  1  0  0  0
 85 89  1  0  0  0
 85164  1  0  0  0
 85165  1  0  0  0
 86 87  1  0  0  0
 86 88  1  0  0  0
 86166  1  0  0  0
 86167  1  0  0  0
 87168  1  0  0  0
 87169  1  0  0  0
 90170  1  0  0  0
M  ISO  4   1 100  68 101  87 101  90 100
M  END
> <chiral flag>
0

> <version>
0

> <s_m_source_file>
/data/baiqing/PycharmProjects/Reinvent-master-3.2/result/LINK_invent/BTK/process_docking_weight1_custom_product_contain_oxygen_bond_distance_aromatic_linkinvent_7_9_3/rearranged_h_0059.sdf

> <i_m_source_file_index>
42

> <r_mmod_Potential_Energy-OPLS-2005>
4.2447361946106

> <r_mmod_Stretch_Energy-OPLS-2005>
43.038330078125

> <r_mmod_Bend_Energy-OPLS-2005>
129.851409912109

> <r_mmod_Torsional_Energy-OPLS-2005>
305.173156738281

> <r_mmod_Improper_Torsional_Energy-OPLS-2005>
6.06235885620117

> <r_mmod_Van_der_Waal_Energy-OPLS-2005>
193.420440673828

> <r_mmod_Electrostatic_Energy-OPLS-2005>
-451.224853515625

> <r_mmod_Solvation_Energy-OPLS-2005>
-230.128265380859

> <b_mmod_Minimization_Converged-OPLS-2005>
0

> <r_mmod_RMS_Derivative-OPLS-2005>
1.92507207393646

$$$$
42
                    3D
 Structure written by MMmdl.
161169  0  0  1  0            999 V2000
  -30.7919  -14.4649   20.6505 C   0  0  0  0  0  0
  -30.4045  -12.3293   19.4502 C   0  0  0  0  0  0
  -29.4964  -12.5217   18.2199 C   0  0  0  0  0  0
  -28.0196  -12.3646   18.6191 C   0  0  0  0  0  0
  -27.6548  -13.2184   19.8587 C   0  0  2  0  0  0
  -28.6831  -13.0432   20.9932 C   0  0  0  0  0  0
  -25.2556  -13.8186   20.5654 C   0  0  0  0  0  0
  -24.1827  -13.0447   20.9165 C   0  0  0  0  0  0
  -24.6395  -11.6917   20.8707 C   0  0  0  0  0  0
  -23.9066  -10.4296   21.0391 C   0  0  0  0  0  0
  -24.3621   -9.4216   21.9168 C   0  0  0  0  0  0
  -23.6297   -8.2250   22.0748 C   0  0  0  0  0  0
  -22.4275   -8.0284   21.3544 C   0  0  0  0  0  0
  -21.9909   -9.0254   20.4648 C   0  0  0  0  0  0
  -22.7235  -10.2134   20.3048 C   0  0  0  0  0  0
  -21.6857   -6.0734   22.5277 C   0  0  0  0  0  0
  -21.4018   -6.5634   23.8215 C   0  0  0  0  0  0
  -21.3659   -5.6787   24.9175 C   0  0  0  0  0  0
  -21.6046   -4.3050   24.7225 C   0  0  0  0  0  0
  -21.8820   -3.8144   23.4346 C   0  0  0  0  0  0
  -21.9195   -4.6961   22.3402 C   0  0  0  0  0  0
  -22.7855  -13.5240   21.1848 C   0  0  0  0  0  0
  -22.1664   -4.2148   21.0979 F   0  0  0  0  0  0
  -21.5623   -3.4533   25.7736 F   0  0  0  0  0  0
  -30.0344  -13.3321   20.4739 N   0  0  0  0  0  0
  -26.2980  -12.9377   20.3248 N   0  0  0  0  0  0
  -25.9315  -11.6525   20.5694 N   0  0  0  0  0  0
  -22.0510  -12.8231   22.0413 N   0  0  0  0  0  0
  -25.4275  -15.1904   20.4103 N   0  0  0  0  0  0
  -31.8132  -14.6351   19.9771 O   0  0  0  0  0  0
  -21.6644   -6.8877   21.4240 O   0  0  0  0  0  0
  -22.3535  -14.5546   20.6699 O   0  0  0  0  0  0
  -24.6194  -31.8668   23.2102 C   0  0  0  0  0  0
  -25.9078  -32.4813   23.8398 C   0  0  1  0  0  0
  -27.2200  -27.3935   20.0935 C   0  0  0  0  0  0
  -25.5936  -33.8613   24.2328 N   0  0  0  0  0  0
  -23.4075  -30.4940   21.5522 C   0  0  2  0  0  0
  -24.8505  -28.9652   20.1089 C   0  0  0  0  0  0
  -22.7436  -29.4655   22.4975 C   0  0  0  0  0  0
  -18.0277  -28.1370   22.8491 C   0  0  0  0  0  0
  -24.1490  -36.7299   23.2629 C   0  0  0  0  0  0
  -25.9430  -30.8198   21.3712 C   0  0  0  0  0  0
  -26.0163  -29.4547   20.7109 C   0  0  0  0  0  0
  -27.2038  -28.6776   20.6998 C   0  0  0  0  0  0
  -26.0326  -26.9462   19.4632 C   0  0  0  0  0  0
  -24.8563  -27.7124   19.4800 C   0  0  0  0  0  0
  -23.6158  -29.8357   20.1642 C   0  0  0  0  0  0
  -25.4105  -36.3101   24.0341 C   0  0  1  0  0  0
  -20.5873  -28.3664   23.1307 C   0  0  2  0  0  0
  -20.6765  -26.9401   22.5408 C   0  0  0  0  0  0
  -19.5742  -26.6382   21.5206 C   0  0  0  0  0  0
  -18.1923  -26.7917   22.1626 C   0  0  0  0  0  0
  -19.1528  -28.8835   23.2894 C   0  0  0  0  0  0
  -18.9455  -30.1442   23.8899 C   0  0  0  0  0  0
  -17.6456  -30.6580   24.0557 C   0  0  0  0  0  0
  -25.9049  -34.9471   23.5126 C   0  0  0  0  0  0
  -16.5345  -29.9077   23.6329 C   0  0  0  0  0  0
  -16.7264  -28.6493   23.0352 C   0  0  0  0  0  0
  -26.4485  -31.6594   25.0735 C   0  0  0  0  0  0
  -25.3750  -31.3736   26.1493 C   0  0  0  0  0  0
  -27.0285  -30.3018   24.6132 C   0  0  0  0  0  0
  -27.6078  -32.4296   25.7482 C   0  0  0  0  0  0
  -27.5594  -37.1784   24.8450 C   0  0  0  0  0  0
  -21.4160  -29.3036   22.3721 N   0  0  0  0  0  0
  -26.4276  -37.3802   23.9436 N   0  0  0  0  0  0
  -24.6750  -31.0748   22.1017 N   0  0  0  0  0  0
  -23.4196  -28.8188   23.3023 O   0  0  0  0  0  0
  -28.3591  -26.5948   20.1428 O   0  0  0  0  0  0
  -26.5596  -34.8929   22.4680 O   0  0  0  0  0  0
  -23.5381  -32.1433   23.7480 O   0  0  0  0  0  0
  -32.7479  -18.3595   21.5113 C   0  0  0  0  0  0
  -31.9105  -19.4247   21.1515 C   0  0  0  0  0  0
  -32.2228  -17.0666   21.6402 C   0  0  0  0  0  0
  -30.0010  -17.8937   21.0243 C   0  0  0  0  0  0
  -30.5252  -19.2285   20.9337 C   0  0  0  0  0  0
  -30.8596  -16.7982   21.3743 C   0  0  0  0  0  0
  -29.8885  -15.8889   23.9090 C   0  0  0  0  0  0
  -30.1572  -15.0488   22.8917 C   0  0  0  0  0  0
  -29.8606  -21.6701   20.8790 C   0  0  0  0  0  0
  -28.5221  -17.6442   20.7618 C   0  0  0  0  0  0
  -28.9030  -22.6998   20.2326 C   0  0  0  0  0  0
  -29.2506  -24.2122   20.4673 C   0  0  0  0  0  0
  -28.1615  -25.1728   19.9185 C   0  0  0  0  0  0
  -29.6934  -20.3548   20.5735 N   0  0  0  0  0  0
  -30.4157  -15.4267   21.5557 N   0  0  0  0  0  0
  -30.7129  -22.0754   21.6738 O   0  0  0  0  0  0
  -31.4534  -12.3876   19.1542 H   0  0  0  0  0  0
  -30.2800  -11.3251   19.8584 H   0  0  0  0  0  0
  -29.7516  -11.7982   17.4444 H   0  0  0  0  0  0
  -29.6618  -13.5097   17.7869 H   0  0  0  0  0  0
  -27.8417  -11.3091   18.8284 H   0  0  0  0  0  0
  -27.3713  -12.6217   17.7807 H   0  0  0  0  0  0
  -27.6900  -14.2618   19.5439 H   0  0  0  0  0  0
  -28.6539  -12.0263   21.3868 H   0  0  0  0  0  0
  -28.3747  -13.6861   21.8128 H   0  0  0  0  0  0
  -25.2774   -9.5691   22.4731 H   0  0  0  0  0  0
  -24.0011   -7.4641   22.7463 H   0  0  0  0  0  0
  -21.0837   -8.8770   19.8956 H   0  0  0  0  0  0
  -22.3690  -10.9667   19.6150 H   0  0  0  0  0  0
  -21.2014   -7.6144   23.9718 H   0  0  0  0  0  0
  -21.1477   -6.0515   25.9077 H   0  0  0  0  0  0
  -22.0596   -2.7606   23.2842 H   0  0  0  0  0  0
  -22.4129  -11.9892   22.4796 H   0  0  0  0  0  0
  -21.1133  -13.1265   22.2631 H   0  0  0  0  0  0
  -24.6653  -15.8486   20.5304 H   0  0  0  0  0  0
  -26.2868  -15.6278   20.1038 H   0  0  0  0  0  0
  -26.7147  -32.5501   23.1155 H   0  0  0  0  0  0
  -25.0128  -33.9779   25.0500 H   0  0  0  0  0  0
  -22.6976  -31.3125   21.4175 H   0  0  0  0  0  0
  -23.3776  -35.9605   23.3241 H   0  0  0  0  0  0
  -24.3607  -36.8962   22.2057 H   0  0  0  0  0  0
  -23.7205  -37.6476   23.6667 H   0  0  0  0  0  0
  -26.0677  -31.5894   20.6083 H   0  0  0  0  0  0
  -26.8265  -30.8640   21.9960 H   0  0  0  0  0  0
  -28.0988  -29.0483   21.1793 H   0  0  0  0  0  0
  -25.9809  -25.9966   18.9514 H   0  0  0  0  0  0
  -23.9638  -27.3339   19.0008 H   0  0  0  0  0  0
  -23.7273  -30.6144   19.4087 H   0  0  0  0  0  0
  -22.7379  -29.2603   19.8654 H   0  0  0  0  0  0
  -25.1274  -36.1951   25.0831 H   0  0  0  0  0  0
  -20.9964  -28.3218   24.1427 H   0  0  0  0  0  0
  -20.5669  -26.2273   23.3594 H   0  0  0  0  0  0
  -21.6635  -26.7441   22.1203 H   0  0  0  0  0  0
  -19.6907  -25.6296   21.1230 H   0  0  0  0  0  0
  -19.6682  -27.3193   20.6738 H   0  0  0  0  0  0
  -17.4198  -26.6668   21.4021 H   0  0  0  0  0  0
  -18.0329  -26.0053   22.9020 H   0  0  0  0  0  0
  -19.7930  -30.7256   24.2270 H   0  0  0  0  0  0
  -17.5013  -31.6262   24.5153 H   0  0  0  0  0  0
  -15.5347  -30.2980   23.7651 H   0  0  0  0  0  0
  -15.8667  -28.0811   22.7064 H   0  0  0  0  0  0
  -24.5890  -30.7118   25.7839 H   0  0  0  0  0  0
  -24.8983  -32.2909   26.4960 H   0  0  0  0  0  0
  -25.8101  -30.8882   27.0239 H   0  0  0  0  0  0
  -26.2814  -29.6802   24.1180 H   0  0  0  0  0  0
  -27.4019  -29.7250   25.4601 H   0  0  0  0  0  0
  -27.8686  -30.4302   23.9303 H   0  0  0  0  0  0
  -27.2729  -33.3622   26.2036 H   0  0  0  0  0  0
  -28.3899  -32.6801   25.0301 H   0  0  0  0  0  0
  -28.0723  -31.8418   26.5411 H   0  0  0  0  0  0
  -28.2551  -38.0144   24.7605 H   0  0  0  0  0  0
  -28.1154  -36.2686   24.6126 H   0  0  0  0  0  0
  -27.2343  -37.1258   25.8857 H   0  0  0  0  0  0
  -20.9320  -29.8777   21.6960 H   0  0  0  0  0  0
  -26.0160  -38.2866   24.1496 H   0  0  0  0  0  0
  -33.7992  -18.5352   21.6891 H   0  0  0  0  0  0
  -32.3644  -20.3992   21.0455 H   0  0  0  0  0  0
  -32.8871  -16.2643   21.9312 H   0  0  0  0  0  0
  -29.7095  -15.5048   24.9032 H   0  0  0  0  0  0
  -29.8376  -16.9611   23.7842 H   0  0  0  0  0  0
  -30.1987  -13.9817   23.0721 H   0  0  0  0  0  0
  -27.9088  -18.4300   21.2023 H   0  0  0  0  0  0
  -28.1811  -16.7019   21.1894 H   0  0  0  0  0  0
  -28.3304  -17.6170   19.6892 H   0  0  0  0  0  0
  -27.9033  -22.4976   20.6186 H   0  0  0  0  0  0
  -28.8632  -22.5035   19.1603 H   0  0  0  0  0  0
  -30.2111  -24.4453   20.0066 H   0  0  0  0  0  0
  -29.3702  -24.3972   21.5354 H   0  0  0  0  0  0
  -27.2310  -24.8558   20.3924 H   0  0  0  0  0  0
  -28.0508  -25.0031   18.8466 H   0  0  0  0  0  0
  -28.8745  -20.1394   20.0216 H   0  0  0  0  0  0
  1 25  1  0  0  0
  1 30  2  0  0  0
  1 85  1  0  0  0
  2  3  1  0  0  0
  2 25  1  0  0  0
  2 87  1  0  0  0
  2 88  1  0  0  0
  3  4  1  0  0  0
  3 89  1  0  0  0
  3 90  1  0  0  0
  4  5  1  0  0  0
  4 91  1  0  0  0
  4 92  1  0  0  0
  5  6  1  0  0  0
  5 26  1  0  0  0
  5 93  1  0  0  0
  6 25  1  0  0  0
  6 94  1  0  0  0
  6 95  1  0  0  0
  7  8  2  0  0  0
  7 26  1  0  0  0
  7 29  1  0  0  0
  8  9  1  0  0  0
  8 22  1  0  0  0
  9 10  1  0  0  0
  9 27  2  0  0  0
 10 11  2  0  0  0
 10 15  1  0  0  0
 11 12  1  0  0  0
 11 96  1  0  0  0
 12 13  2  0  0  0
 12 97  1  0  0  0
 13 14  1  0  0  0
 13 31  1  0  0  0
 14 15  2  0  0  0
 14 98  1  0  0  0
 15 99  1  0  0  0
 16 17  2  0  0  0
 16 21  1  0  0  0
 16 31  1  0  0  0
 17 18  1  0  0  0
 17100  1  0  0  0
 18 19  2  0  0  0
 18101  1  0  0  0
 19 20  1  0  0  0
 19 24  1  0  0  0
 20 21  2  0  0  0
 20102  1  0  0  0
 21 23  1  0  0  0
 22 28  1  0  0  0
 22 32  2  0  0  0
 26 27  1  0  0  0
 28103  1  0  0  0
 28104  1  0  0  0
 29105  1  0  0  0
 29106  1  0  0  0
 33 34  1  0  0  0
 33 66  1  0  0  0
 33 70  2  0  0  0
 34 36  1  0  0  0
 34 59  1  0  0  0
 34107  1  0  0  0
 35 44  2  0  0  0
 35 45  1  0  0  0
 35 68  1  0  0  0
 36 56  1  0  0  0
 36108  1  0  0  0
 37 39  1  0  0  0
 37 47  1  0  0  0
 37 66  1  0  0  0
 37109  1  0  0  0
 38 43  2  0  0  0
 38 46  1  0  0  0
 38 47  1  0  0  0
 39 64  1  0  0  0
 39 67  2  0  0  0
 40 52  1  0  0  0
 40 53  2  0  0  0
 40 58  1  0  0  0
 41110  1  0  0  0
 41111  1  0  0  0
 41112  1  0  0  0
 41 48  1  0  0  0
 42 43  1  0  0  0
 42 66  1  0  0  0
 42113  1  0  0  0
 42114  1  0  0  0
 43 44  1  0  0  0
 44115  1  0  0  0
 45 46  2  0  0  0
 45116  1  0  0  0
 46117  1  0  0  0
 47118  1  0  0  0
 47119  1  0  0  0
 48 56  1  0  0  0
 48 65  1  0  0  0
 48120  1  0  0  0
 49 50  1  0  0  0
 49 53  1  0  0  0
 49 64  1  0  0  0
 49121  1  0  0  0
 50 51  1  0  0  0
 50122  1  0  0  0
 50123  1  0  0  0
 51 52  1  0  0  0
 51124  1  0  0  0
 51125  1  0  0  0
 52126  1  0  0  0
 52127  1  0  0  0
 53 54  1  0  0  0
 54 55  2  0  0  0
 54128  1  0  0  0
 55 57  1  0  0  0
 55129  1  0  0  0
 56 69  2  0  0  0
 57 58  2  0  0  0
 57130  1  0  0  0
 58131  1  0  0  0
 59 60  1  0  0  0
 59 61  1  0  0  0
 59 62  1  0  0  0
 60132  1  0  0  0
 60133  1  0  0  0
 60134  1  0  0  0
 61135  1  0  0  0
 61136  1  0  0  0
 61137  1  0  0  0
 62138  1  0  0  0
 62139  1  0  0  0
 62140  1  0  0  0
 63 65  1  0  0  0
 63141  1  0  0  0
 63142  1  0  0  0
 63143  1  0  0  0
 64144  1  0  0  0
 65145  1  0  0  0
 68 83  1  0  0  0
 71 72  2  0  0  0
 71 73  1  0  0  0
 71146  1  0  0  0
 72 75  1  0  0  0
 72147  1  0  0  0
 73 76  2  0  0  0
 73148  1  0  0  0
 74 75  2  0  0  0
 74 76  1  0  0  0
 74 80  1  0  0  0
 75 84  1  0  0  0
 76 85  1  0  0  0
 77 78  2  0  0  0
 77149  1  0  0  0
 77150  1  0  0  0
 78 85  1  0  0  0
 78151  1  0  0  0
 79 81  1  0  0  0
 79 84  1  0  0  0
 79 86  2  0  0  0
 80152  1  0  0  0
 80153  1  0  0  0
 80154  1  0  0  0
 81 82  1  0  0  0
 81155  1  0  0  0
 81156  1  0  0  0
 82 83  1  0  0  0
 82157  1  0  0  0
 82158  1  0  0  0
 83159  1  0  0  0
 83160  1  0  0  0
 84161  1  0  0  0
M  ISO  4   1 100  68 101  83 101  85 100
M  END
> <chiral flag>
0

> <version>
0

> <s_m_source_file>
/data/baiqing/PycharmProjects/Reinvent-master-3.2/result/LINK_invent/BTK/process_docking_weight1_custom_product_contain_oxygen_bond_distance_aromatic_linkinvent_7_9_3/rearranged_h_0059.sdf

> <i_m_source_file_index>
43

> <r_mmod_Potential_Energy-OPLS-2005>
116.774826049805

> <r_mmod_Stretch_Energy-OPLS-2005>
58.1974258422852

> <r_mmod_Bend_Energy-OPLS-2005>
118.164794921875

> <r_mmod_Torsional_Energy-OPLS-2005>
314.412811279297

> <r_mmod_Improper_Torsional_Energy-OPLS-2005>
3.88008856773376

> <r_mmod_Van_der_Waal_Energy-OPLS-2005>
177.79460144043

> <r_mmod_Electrostatic_Energy-OPLS-2005>
-354.860107421875

> <r_mmod_Solvation_Energy-OPLS-2005>
-220.388534545898

> <b_mmod_Minimization_Converged-OPLS-2005>
0

> <r_mmod_RMS_Derivative-OPLS-2005>
0.752972960472107

$$$$
43
                    3D
 Structure written by MMmdl.
162170  0  0  1  0            999 V2000
  -30.6568  -14.5466   20.5317 C   0  0  0  0  0  0
  -30.4234  -12.3398   19.4344 C   0  0  0  0  0  0
  -29.5016  -12.5098   18.2089 C   0  0  0  0  0  0
  -28.0203  -12.3644   18.6155 C   0  0  0  0  0  0
  -27.6545  -13.2121   19.8648 C   0  0  2  0  0  0
  -28.6966  -13.0316   20.9907 C   0  0  0  0  0  0
  -25.2562  -13.8163   20.5652 C   0  0  0  0  0  0
  -24.1831  -13.0439   20.9166 C   0  0  0  0  0  0
  -24.6388  -11.6908   20.8730 C   0  0  0  0  0  0
  -23.9053  -10.4296   21.0401 C   0  0  0  0  0  0
  -24.3612   -9.4219   21.9182 C   0  0  0  0  0  0
  -23.6299   -8.2247   22.0760 C   0  0  0  0  0  0
  -22.4278   -8.0279   21.3550 C   0  0  0  0  0  0
  -21.9901   -9.0244   20.4642 C   0  0  0  0  0  0
  -22.7223  -10.2128   20.3049 C   0  0  0  0  0  0
  -21.6856   -6.0734   22.5283 C   0  0  0  0  0  0
  -21.4011   -6.5643   23.8215 C   0  0  0  0  0  0
  -21.3663   -5.6797   24.9179 C   0  0  0  0  0  0
  -21.6047   -4.3056   24.7229 C   0  0  0  0  0  0
  -21.8826   -3.8147   23.4356 C   0  0  0  0  0  0
  -21.9193   -4.6962   22.3410 C   0  0  0  0  0  0
  -22.7860  -13.5231   21.1856 C   0  0  0  0  0  0
  -22.1665   -4.2146   21.0986 F   0  0  0  0  0  0
  -21.5633   -3.4544   25.7746 F   0  0  0  0  0  0
  -30.0159  -13.3482   20.4262 N   0  0  0  0  0  0
  -26.2990  -12.9336   20.3310 N   0  0  0  0  0  0
  -25.9309  -11.6492   20.5727 N   0  0  0  0  0  0
  -22.0505  -12.8205   22.0401 N   0  0  0  0  0  0
  -25.4255  -15.1881   20.4032 N   0  0  0  0  0  0
  -31.8204  -14.6997   20.1473 O   0  0  0  0  0  0
  -21.6647   -6.8874   21.4244 O   0  0  0  0  0  0
  -22.3540  -14.5545   20.6717 O   0  0  0  0  0  0
  -24.6195  -31.8627   23.2059 C   0  0  0  0  0  0
  -25.9065  -32.4782   23.8372 C   0  0  1  0  0  0
  -27.2256  -27.3772   20.1094 C   0  0  0  0  0  0
  -25.5896  -33.8583   24.2300 N   0  0  0  0  0  0
  -23.4105  -30.4880   21.5464 C   0  0  2  0  0  0
  -24.8567  -28.9458   20.1170 C   0  0  0  0  0  0
  -22.7428  -29.4652   22.4943 C   0  0  0  0  0  0
  -18.0285  -28.1408   22.8487 C   0  0  0  0  0  0
  -24.1486  -36.7302   23.2643 C   0  0  0  0  0  0
  -25.9454  -30.8151   21.3650 C   0  0  0  0  0  0
  -26.0222  -29.4442   20.7126 C   0  0  0  0  0  0
  -27.2131  -28.6708   20.6976 C   0  0  0  0  0  0
  -26.0406  -26.9108   19.5030 C   0  0  0  0  0  0
  -24.8631  -27.6813   19.5065 C   0  0  0  0  0  0
  -23.6220  -29.8199   20.1628 C   0  0  0  0  0  0
  -25.4101  -36.3081   24.0333 C   0  0  1  0  0  0
  -20.5878  -28.3703   23.1291 C   0  0  2  0  0  0
  -20.6779  -26.9427   22.5413 C   0  0  0  0  0  0
  -19.5754  -26.6406   21.5221 C   0  0  0  0  0  0
  -18.1933  -26.7951   22.1627 C   0  0  0  0  0  0
  -19.1537  -28.8868   23.2893 C   0  0  0  0  0  0
  -18.9458  -30.1469   23.8906 C   0  0  0  0  0  0
  -17.6457  -30.6598   24.0579 C   0  0  0  0  0  0
  -25.9027  -34.9448   23.5109 C   0  0  0  0  0  0
  -16.5349  -29.9096   23.6345 C   0  0  0  0  0  0
  -16.7275  -28.6527   23.0347 C   0  0  0  0  0  0
  -26.4509  -31.6564   25.0702 C   0  0  0  0  0  0
  -25.3783  -31.3635   26.1454 C   0  0  0  0  0  0
  -27.0379  -30.3011   24.6088 C   0  0  0  0  0  0
  -27.6080  -32.4300   25.7464 C   0  0  0  0  0  0
  -27.5575  -37.1783   24.8461 C   0  0  0  0  0  0
  -21.4151  -29.3053   22.3674 N   0  0  0  0  0  0
  -26.4287  -37.3768   23.9409 N   0  0  0  0  0  0
  -24.6772  -31.0692   22.0977 N   0  0  0  0  0  0
  -23.4171  -28.8193   23.3012 O   0  0  0  0  0  0
  -28.3709  -26.5947   20.0881 O   0  0  0  0  0  0
  -26.5585  -34.8899   22.4668 O   0  0  0  0  0  0
  -23.5376  -32.1407   23.7416 O   0  0  0  0  0  0
  -31.7714  -18.6918   21.8862 C   0  0  0  0  0  0
  -30.9398  -19.7225   21.4096 C   0  0  0  0  0  0
  -31.4284  -17.3407   21.6947 C   0  0  0  0  0  0
  -29.3815  -18.0471   20.5771 C   0  0  0  0  0  0
  -29.7289  -19.4277   20.7387 C   0  0  0  0  0  0
  -30.2324  -16.9911   21.0297 C   0  0  0  0  0  0
  -28.8749  -20.5489   20.1468 C   0  0  0  0  0  0
  -30.3226  -23.6569   19.0460 C   0  0  0  0  0  0
  -30.3427  -24.5071   17.7845 C   0  0  0  0  0  0
  -26.6626  -23.3314   20.4814 C   0  0  0  0  0  0
  -28.3128  -25.2943   20.7457 C   0  0  0  0  0  0
  -28.9928  -22.9875   19.4283 C   0  0  2  0  0  0
  -27.8955  -24.0365   19.8840 C   0  0  1  0  0  0
  -29.8691  -15.6036   20.8700 N   0  0  0  0  0  0
  -29.2706  -21.8332   20.3326 N   0  0  0  0  0  0
  -27.8963  -20.2696   19.4518 O   0  0  0  0  0  0
  -31.3530  -23.5265   19.7134 O   0  0  0  0  0  0
  -31.4701  -12.4388   19.1425 H   0  0  0  0  0  0
  -30.3213  -11.3373   19.8535 H   0  0  0  0  0  0
  -29.7534  -11.7808   17.4374 H   0  0  0  0  0  0
  -29.6620  -13.4922   17.7622 H   0  0  0  0  0  0
  -27.8317  -11.3091   18.8119 H   0  0  0  0  0  0
  -27.3766  -12.6383   17.7791 H   0  0  0  0  0  0
  -27.6818  -14.2543   19.5471 H   0  0  0  0  0  0
  -28.6893  -12.0064   21.3629 H   0  0  0  0  0  0
  -28.4589  -13.6608   21.8500 H   0  0  0  0  0  0
  -25.2765   -9.5704   22.4744 H   0  0  0  0  0  0
  -24.0022   -7.4640   22.7478 H   0  0  0  0  0  0
  -21.0836   -8.8748   19.8941 H   0  0  0  0  0  0
  -22.3686  -10.9658   19.6147 H   0  0  0  0  0  0
  -21.1999   -7.6149   23.9712 H   0  0  0  0  0  0
  -21.1480   -6.0531   25.9080 H   0  0  0  0  0  0
  -22.0597   -2.7608   23.2859 H   0  0  0  0  0  0
  -22.4128  -11.9849   22.4758 H   0  0  0  0  0  0
  -21.1120  -13.1217   22.2620 H   0  0  0  0  0  0
  -24.6510  -15.8365   20.4934 H   0  0  0  0  0  0
  -26.2675  -15.6263   20.0540 H   0  0  0  0  0  0
  -26.7123  -32.5499   23.1130 H   0  0  0  0  0  0
  -25.0057  -33.9744   25.0453 H   0  0  0  0  0  0
  -22.7049  -31.3084   21.4017 H   0  0  0  0  0  0
  -23.3740  -35.9646   23.3303 H   0  0  0  0  0  0
  -24.3587  -36.8925   22.2058 H   0  0  0  0  0  0
  -23.7254  -37.6504   23.6680 H   0  0  0  0  0  0
  -26.0618  -31.5791   20.5948 H   0  0  0  0  0  0
  -26.8312  -30.8708   21.9860 H   0  0  0  0  0  0
  -28.1160  -29.0508   21.1541 H   0  0  0  0  0  0
  -26.0145  -25.9524   19.0111 H   0  0  0  0  0  0
  -23.9695  -27.2950   19.0362 H   0  0  0  0  0  0
  -23.7374  -30.5960   19.4057 H   0  0  0  0  0  0
  -22.7440  -29.2449   19.8629 H   0  0  0  0  0  0
  -25.1284  -36.1936   25.0829 H   0  0  0  0  0  0
  -20.9996  -28.3302   24.1403 H   0  0  0  0  0  0
  -20.5727  -26.2302   23.3607 H   0  0  0  0  0  0
  -21.6638  -26.7482   22.1171 H   0  0  0  0  0  0
  -19.6918  -25.6326   21.1232 H   0  0  0  0  0  0
  -19.6697  -27.3232   20.6765 H   0  0  0  0  0  0
  -17.4195  -26.6697   21.4032 H   0  0  0  0  0  0
  -18.0323  -26.0109   22.9034 H   0  0  0  0  0  0
  -19.7937  -30.7293   24.2261 H   0  0  0  0  0  0
  -17.5014  -31.6276   24.5189 H   0  0  0  0  0  0
  -15.5352  -30.3000   23.7669 H   0  0  0  0  0  0
  -15.8677  -28.0863   22.7032 H   0  0  0  0  0  0
  -24.5961  -30.6984   25.7775 H   0  0  0  0  0  0
  -24.8981  -32.2773   26.4958 H   0  0  0  0  0  0
  -25.8149  -30.8760   27.0180 H   0  0  0  0  0  0
  -26.2926  -29.6685   24.1244 H   0  0  0  0  0  0
  -27.4280  -29.7316   25.4534 H   0  0  0  0  0  0
  -27.8706  -30.4341   23.9172 H   0  0  0  0  0  0
  -27.2700  -33.3598   26.2057 H   0  0  0  0  0  0
  -28.3888  -32.6839   25.0279 H   0  0  0  0  0  0
  -28.0772  -31.8419   26.5369 H   0  0  0  0  0  0
  -28.2558  -38.0105   24.7512 H   0  0  0  0  0  0
  -28.1090  -36.2619   24.6290 H   0  0  0  0  0  0
  -27.2283  -37.1436   25.8861 H   0  0  0  0  0  0
  -20.9312  -29.8740   21.6866 H   0  0  0  0  0  0
  -26.0165  -38.2835   24.1442 H   0  0  0  0  0  0
  -32.6909  -18.9409   22.3971 H   0  0  0  0  0  0
  -31.2611  -20.7432   21.5529 H   0  0  0  0  0  0
  -32.0929  -16.5758   22.0724 H   0  0  0  0  0  0
  -28.4614  -17.8001   20.0650 H   0  0  0  0  0  0
  -30.0720  -23.9014   16.9201 H   0  0  0  0  0  0
  -31.3363  -24.9236   17.6169 H   0  0  0  0  0  0
  -29.6338  -25.3306   17.8684 H   0  0  0  0  0  0
  -25.8666  -24.0410   20.7066 H   0  0  0  0  0  0
  -26.9123  -22.8103   21.4065 H   0  0  0  0  0  0
  -26.2530  -22.5974   19.7878 H   0  0  0  0  0  0
  -29.2891  -25.1140   21.1948 H   0  0  0  0  0  0
  -27.6482  -25.3890   21.6066 H   0  0  0  0  0  0
  -28.6094  -22.5531   18.5032 H   0  0  0  0  0  0
  -27.5511  -24.4584   18.9404 H   0  0  0  0  0  0
  -28.8905  -15.3837   20.9731 H   0  0  0  0  0  0
  -30.0762  -21.9624   20.9272 H   0  0  0  0  0  0
  1 25  1  0  0  0
  1 30  2  0  0  0
  1 84  1  0  0  0
  2  3  1  0  0  0
  2 25  1  0  0  0
  2 88  1  0  0  0
  2 89  1  0  0  0
  3  4  1  0  0  0
  3 90  1  0  0  0
  3 91  1  0  0  0
  4  5  1  0  0  0
  4 92  1  0  0  0
  4 93  1  0  0  0
  5  6  1  0  0  0
  5 26  1  0  0  0
  5 94  1  0  0  0
  6 25  1  0  0  0
  6 95  1  0  0  0
  6 96  1  0  0  0
  7  8  2  0  0  0
  7 26  1  0  0  0
  7 29  1  0  0  0
  8  9  1  0  0  0
  8 22  1  0  0  0
  9 10  1  0  0  0
  9 27  2  0  0  0
 10 11  2  0  0  0
 10 15  1  0  0  0
 11 12  1  0  0  0
 11 97  1  0  0  0
 12 13  2  0  0  0
 12 98  1  0  0  0
 13 14  1  0  0  0
 13 31  1  0  0  0
 14 15  2  0  0  0
 14 99  1  0  0  0
 15100  1  0  0  0
 16 17  2  0  0  0
 16 21  1  0  0  0
 16 31  1  0  0  0
 17 18  1  0  0  0
 17101  1  0  0  0
 18 19  2  0  0  0
 18102  1  0  0  0
 19 20  1  0  0  0
 19 24  1  0  0  0
 20 21  2  0  0  0
 20103  1  0  0  0
 21 23  1  0  0  0
 22 28  1  0  0  0
 22 32  2  0  0  0
 26 27  1  0  0  0
 28104  1  0  0  0
 28105  1  0  0  0
 29106  1  0  0  0
 29107  1  0  0  0
 33 34  1  0  0  0
 33 66  1  0  0  0
 33 70  2  0  0  0
 34 36  1  0  0  0
 34 59  1  0  0  0
 34108  1  0  0  0
 35 44  2  0  0  0
 35 45  1  0  0  0
 35 68  1  0  0  0
 36 56  1  0  0  0
 36109  1  0  0  0
 37 39  1  0  0  0
 37 47  1  0  0  0
 37 66  1  0  0  0
 37110  1  0  0  0
 38 43  2  0  0  0
 38 46  1  0  0  0
 38 47  1  0  0  0
 39 64  1  0  0  0
 39 67  2  0  0  0
 40 52  1  0  0  0
 40 53  2  0  0  0
 40 58  1  0  0  0
 41111  1  0  0  0
 41112  1  0  0  0
 41113  1  0  0  0
 41 48  1  0  0  0
 42 43  1  0  0  0
 42 66  1  0  0  0
 42114  1  0  0  0
 42115  1  0  0  0
 43 44  1  0  0  0
 44116  1  0  0  0
 45 46  2  0  0  0
 45117  1  0  0  0
 46118  1  0  0  0
 47119  1  0  0  0
 47120  1  0  0  0
 48 56  1  0  0  0
 48 65  1  0  0  0
 48121  1  0  0  0
 49 50  1  0  0  0
 49 53  1  0  0  0
 49 64  1  0  0  0
 49122  1  0  0  0
 50 51  1  0  0  0
 50123  1  0  0  0
 50124  1  0  0  0
 51 52  1  0  0  0
 51125  1  0  0  0
 51126  1  0  0  0
 52127  1  0  0  0
 52128  1  0  0  0
 53 54  1  0  0  0
 54 55  2  0  0  0
 54129  1  0  0  0
 55 57  1  0  0  0
 55130  1  0  0  0
 56 69  2  0  0  0
 57 58  2  0  0  0
 57131  1  0  0  0
 58132  1  0  0  0
 59 60  1  0  0  0
 59 61  1  0  0  0
 59 62  1  0  0  0
 60133  1  0  0  0
 60134  1  0  0  0
 60135  1  0  0  0
 61136  1  0  0  0
 61137  1  0  0  0
 61138  1  0  0  0
 62139  1  0  0  0
 62140  1  0  0  0
 62141  1  0  0  0
 63 65  1  0  0  0
 63142  1  0  0  0
 63143  1  0  0  0
 63144  1  0  0  0
 64145  1  0  0  0
 65146  1  0  0  0
 68 81  1  0  0  0
 71 72  2  0  0  0
 71 73  1  0  0  0
 71147  1  0  0  0
 72 75  1  0  0  0
 72148  1  0  0  0
 73 76  2  0  0  0
 73149  1  0  0  0
 74 75  2  0  0  0
 74 76  1  0  0  0
 74150  1  0  0  0
 75 77  1  0  0  0
 76 84  1  0  0  0
 77 85  1  0  0  0
 77 86  2  0  0  0
 78 79  1  0  0  0
 78 82  1  0  0  0
 78 87  2  0  0  0
 79151  1  0  0  0
 79152  1  0  0  0
 79153  1  0  0  0
 80154  1  0  0  0
 80155  1  0  0  0
 80156  1  0  0  0
 80 83  1  0  0  0
 81 83  1  0  0  0
 81157  1  0  0  0
 81158  1  0  0  0
 82 83  1  0  0  0
 82 85  1  0  0  0
 82159  1  0  0  0
 83160  1  0  0  0
 84161  1  0  0  0
 85162  1  0  0  0
M  ISO  4   1 100  68 101  81 101  84 100
M  END
> <chiral flag>
0

> <version>
0

> <s_m_source_file>
/data/baiqing/PycharmProjects/Reinvent-master-3.2/result/LINK_invent/BTK/process_docking_weight1_custom_product_contain_oxygen_bond_distance_aromatic_linkinvent_7_9_3/rearranged_h_0059.sdf

> <i_m_source_file_index>
44

> <r_mmod_Potential_Energy-OPLS-2005>
-121.330223083496

> <r_mmod_Stretch_Energy-OPLS-2005>
56.5039596557617

> <r_mmod_Bend_Energy-OPLS-2005>
122.045120239258

> <r_mmod_Torsional_Energy-OPLS-2005>
266.900024414062

> <r_mmod_Improper_Torsional_Energy-OPLS-2005>
7.08577442169189

> <r_mmod_Van_der_Waal_Energy-OPLS-2005>
148.02067565918

> <r_mmod_Electrostatic_Energy-OPLS-2005>
-518.664672851562

> <r_mmod_Solvation_Energy-OPLS-2005>
-227.474563598633

> <b_mmod_Minimization_Converged-OPLS-2005>
0

> <r_mmod_RMS_Derivative-OPLS-2005>
2.12003874778748

$$$$
44
                    3D
 Structure written by MMmdl.
168177  0  0  1  0            999 V2000
  -30.5937  -14.7524   20.4505 C   0  0  0  0  0  0
  -30.4364  -12.4607   19.4484 C   0  0  0  0  0  0
  -29.5058  -12.5133   18.2175 C   0  0  0  0  0  0
  -28.0321  -12.3329   18.6358 C   0  0  0  0  0  0
  -27.6372  -13.2277   19.8406 C   0  0  2  0  0  0
  -28.6906  -13.1659   20.9675 C   0  0  0  0  0  0
  -25.2509  -13.8214   20.5700 C   0  0  0  0  0  0
  -24.1796  -13.0472   20.9203 C   0  0  0  0  0  0
  -24.6376  -11.6943   20.8741 C   0  0  0  0  0  0
  -23.9048  -10.4323   21.0421 C   0  0  0  0  0  0
  -24.3599   -9.4239   21.9198 C   0  0  0  0  0  0
  -23.6271   -8.2280   22.0771 C   0  0  0  0  0  0
  -22.4250   -8.0312   21.3559 C   0  0  0  0  0  0
  -21.9881   -9.0284   20.4664 C   0  0  0  0  0  0
  -22.7218  -10.2158   20.3079 C   0  0  0  0  0  0
  -21.6855   -6.0734   22.5274 C   0  0  0  0  0  0
  -21.4022   -6.5637   23.8210 C   0  0  0  0  0  0
  -21.3658   -5.6776   24.9171 C   0  0  0  0  0  0
  -21.6046   -4.3043   24.7209 C   0  0  0  0  0  0
  -21.8821   -3.8140   23.4332 C   0  0  0  0  0  0
  -21.9192   -4.6964   22.3382 C   0  0  0  0  0  0
  -22.7816  -13.5290   21.1838 C   0  0  0  0  0  0
  -22.1664   -4.2160   21.0966 F   0  0  0  0  0  0
  -21.5612   -3.4517   25.7717 F   0  0  0  0  0  0
  -29.9835  -13.5224   20.3695 N   0  0  0  0  0  0
  -26.2923  -12.9388   20.3252 N   0  0  0  0  0  0
  -25.9300  -11.6550   20.5729 N   0  0  0  0  0  0
  -22.0406  -12.8334   22.0387 N   0  0  0  0  0  0
  -25.4232  -15.1936   20.4159 N   0  0  0  0  0  0
  -31.8084  -14.8598   20.2599 O   0  0  0  0  0  0
  -21.6644   -6.8891   21.4244 O   0  0  0  0  0  0
  -22.3550  -14.5591   20.6655 O   0  0  0  0  0  0
  -24.6341  -31.8552   23.2016 C   0  0  0  0  0  0
  -25.9155  -32.4760   23.8361 C   0  0  1  0  0  0
  -27.2150  -27.2463   20.1345 C   0  0  0  0  0  0
  -25.5941  -33.8562   24.2265 N   0  0  0  0  0  0
  -23.4306  -30.4814   21.5446 C   0  0  2  0  0  0
  -24.8764  -28.9287   20.1156 C   0  0  0  0  0  0
  -22.7521  -29.4612   22.4918 C   0  0  0  0  0  0
  -18.0289  -28.1422   22.8478 C   0  0  0  0  0  0
  -24.1474  -36.7276   23.2636 C   0  0  0  0  0  0
  -25.9794  -30.7658   21.3834 C   0  0  0  0  0  0
  -26.0511  -29.3871   20.7248 C   0  0  0  0  0  0
  -27.2236  -28.5604   20.7198 C   0  0  0  0  0  0
  -26.0127  -26.8647   19.4933 C   0  0  0  0  0  0
  -24.8630  -27.6759   19.4893 C   0  0  0  0  0  0
  -23.6508  -29.8206   20.1593 C   0  0  0  0  0  0
  -25.4102  -36.3072   24.0325 C   0  0  1  0  0  0
  -20.5897  -28.3725   23.1264 C   0  0  2  0  0  0
  -20.6788  -26.9443   22.5412 C   0  0  0  0  0  0
  -19.5757  -26.6397   21.5225 C   0  0  0  0  0  0
  -18.1929  -26.7960   22.1623 C   0  0  0  0  0  0
  -19.1545  -28.8893   23.2859 C   0  0  0  0  0  0
  -18.9472  -30.1491   23.8881 C   0  0  0  0  0  0
  -17.6473  -30.6612   24.0576 C   0  0  0  0  0  0
  -25.9055  -34.9444   23.5098 C   0  0  0  0  0  0
  -16.5362  -29.9115   23.6345 C   0  0  0  0  0  0
  -16.7277  -28.6540   23.0350 C   0  0  0  0  0  0
  -26.4511  -31.6608   25.0765 C   0  0  0  0  0  0
  -25.3721  -31.3805   26.1488 C   0  0  0  0  0  0
  -27.0367  -30.3013   24.6300 C   0  0  0  0  0  0
  -27.6050  -32.4371   25.7540 C   0  0  0  0  0  0
  -27.5570  -37.1791   24.8455 C   0  0  0  0  0  0
  -21.4228  -29.3057   22.3653 N   0  0  0  0  0  0
  -26.4270  -37.3778   23.9422 N   0  0  0  0  0  0
  -24.7007  -31.0519   22.0993 N   0  0  0  0  0  0
  -23.4213  -28.8124   23.3001 O   0  0  0  0  0  0
  -28.3078  -26.3391   20.1795 O   0  0  0  0  0  0
  -26.5625  -34.8924   22.4668 O   0  0  0  0  0  0
  -23.5485  -32.1368   23.7307 O   0  0  0  0  0  0
  -29.7835  -18.5010   20.3583 C   0  0  0  0  0  0
  -29.3973  -17.1636   22.3510 C   0  0  0  0  0  0
  -29.2165  -19.6244   22.4621 C   0  0  0  0  0  0
  -29.5190  -19.7530   21.0716 C   0  0  0  0  0  0
  -29.7356  -17.1825   20.9870 C   0  0  0  0  0  0
  -29.1440  -18.3440   23.0738 C   0  0  0  0  0  0
  -31.4898  -21.9058   18.9090 C   0  0  0  0  0  0
  -28.7751  -22.1650   20.4041 C   0  0  0  0  0  0
  -31.1192  -21.5187   20.3417 C   0  0  0  0  0  0
  -29.9262  -23.9413   18.8327 C   0  0  0  0  0  0
  -29.1999  -23.7094   20.1841 C   0  0  1  0  0  0
  -29.0014  -20.8679   23.3265 C   0  0  0  0  0  0
  -30.6786  -22.6574   15.8499 C   0  0  0  0  0  0
  -28.0387  -24.8503   20.2750 C   0  0  0  0  0  0
  -31.4143  -23.4010   16.9754 C   0  0  0  0  0  0
  -29.7162  -21.1333   20.5143 N   0  0  0  0  0  0
  -30.9399  -22.9950   18.3115 N   0  0  0  0  0  0
  -29.7629  -15.8576   20.3268 N   0  0  0  0  0  0
  -32.3144  -21.1921   18.3299 O   0  0  0  0  0  0
  -27.5695  -21.9141   20.4699 O   0  0  0  0  0  0
  -28.7233  -18.1562   24.7429 Cl  0  0  0  0  0  0
  -31.4762  -12.5971   19.1489 H   0  0  0  0  0  0
  -30.3805  -11.4840   19.9313 H   0  0  0  0  0  0
  -29.7894  -11.7518   17.4910 H   0  0  0  0  0  0
  -29.6230  -13.4722   17.7118 H   0  0  0  0  0  0
  -27.8835  -11.2812   18.8857 H   0  0  0  0  0  0
  -27.3776  -12.5386   17.7884 H   0  0  0  0  0  0
  -27.6223  -14.2467   19.4566 H   0  0  0  0  0  0
  -28.7319  -12.1677   21.4077 H   0  0  0  0  0  0
  -28.4311  -13.8509   21.7750 H   0  0  0  0  0  0
  -25.2738   -9.5714   22.4768 H   0  0  0  0  0  0
  -23.9965   -7.4683   22.7505 H   0  0  0  0  0  0
  -21.0798   -8.8831   19.8964 H   0  0  0  0  0  0
  -22.3693  -10.9704   19.6191 H   0  0  0  0  0  0
  -21.2035   -7.6138   23.9722 H   0  0  0  0  0  0
  -21.1467   -6.0499   25.9072 H   0  0  0  0  0  0
  -22.0591   -2.7604   23.2828 H   0  0  0  0  0  0
  -22.3939  -11.9986   22.4808 H   0  0  0  0  0  0
  -21.1054  -13.1480   22.2588 H   0  0  0  0  0  0
  -24.6605  -15.8490   20.5457 H   0  0  0  0  0  0
  -26.2759  -15.6382   20.1027 H   0  0  0  0  0  0
  -26.7224  -32.5410   23.1109 H   0  0  0  0  0  0
  -25.0111  -33.9703   25.0428 H   0  0  0  0  0  0
  -22.7275  -31.3046   21.4017 H   0  0  0  0  0  0
  -23.3747  -35.9595   23.3286 H   0  0  0  0  0  0
  -24.3557  -36.8918   22.2052 H   0  0  0  0  0  0
  -23.7215  -37.6467   23.6674 H   0  0  0  0  0  0
  -26.1210  -31.5268   20.6145 H   0  0  0  0  0  0
  -26.8555  -30.8131   22.0190 H   0  0  0  0  0  0
  -28.1230  -28.9076   21.2102 H   0  0  0  0  0  0
  -25.9168  -25.9208   18.9830 H   0  0  0  0  0  0
  -23.9637  -27.3241   19.0035 H   0  0  0  0  0  0
  -23.7859  -30.6000   19.4083 H   0  0  0  0  0  0
  -22.7660  -29.2637   19.8458 H   0  0  0  0  0  0
  -25.1281  -36.1917   25.0812 H   0  0  0  0  0  0
  -20.9975  -28.3318   24.1393 H   0  0  0  0  0  0
  -20.5715  -26.2337   23.3621 H   0  0  0  0  0  0
  -21.6659  -26.7483   22.1197 H   0  0  0  0  0  0
  -19.6917  -25.6299   21.1277 H   0  0  0  0  0  0
  -19.6696  -27.3192   20.6742 H   0  0  0  0  0  0
  -17.4205  -26.6711   21.4020 H   0  0  0  0  0  0
  -18.0307  -26.0114   22.9023 H   0  0  0  0  0  0
  -19.7949  -30.7321   24.2236 H   0  0  0  0  0  0
  -17.5030  -31.6290   24.5187 H   0  0  0  0  0  0
  -15.5368  -30.3021   23.7691 H   0  0  0  0  0  0
  -15.8667  -28.0874   22.7063 H   0  0  0  0  0  0
  -24.5843  -30.7213   25.7832 H   0  0  0  0  0  0
  -24.8984  -32.3008   26.4918 H   0  0  0  0  0  0
  -25.8014  -30.8970   27.0271 H   0  0  0  0  0  0
  -26.2985  -29.6758   24.1270 H   0  0  0  0  0  0
  -27.3959  -29.7294   25.4869 H   0  0  0  0  0  0
  -27.8897  -30.4268   23.9625 H   0  0  0  0  0  0
  -27.2620  -33.3649   26.2138 H   0  0  0  0  0  0
  -28.3848  -32.6983   25.0371 H   0  0  0  0  0  0
  -28.0738  -31.8504   26.5455 H   0  0  0  0  0  0
  -28.2586  -38.0093   24.7531 H   0  0  0  0  0  0
  -28.1075  -36.2635   24.6240 H   0  0  0  0  0  0
  -27.2303  -37.1391   25.8861 H   0  0  0  0  0  0
  -20.9431  -29.8788   21.6854 H   0  0  0  0  0  0
  -26.0145  -38.2843   24.1469 H   0  0  0  0  0  0
  -30.0224  -18.5544   19.3054 H   0  0  0  0  0  0
  -29.2840  -16.2192   22.8636 H   0  0  0  0  0  0
  -31.3954  -22.3293   21.0165 H   0  0  0  0  0  0
  -31.7647  -20.6918   20.6412 H   0  0  0  0  0  0
  -30.4014  -24.9221   18.8967 H   0  0  0  0  0  0
  -29.1629  -24.0404   18.0589 H   0  0  0  0  0  0
  -29.8946  -23.9406   20.9907 H   0  0  0  0  0  0
  -29.7477  -21.6326   23.1158 H   0  0  0  0  0  0
  -29.0884  -20.6722   24.3930 H   0  0  0  0  0  0
  -28.0100  -21.2849   23.1482 H   0  0  0  0  0  0
  -31.0635  -22.9604   14.8759 H   0  0  0  0  0  0
  -29.6103  -22.8757   15.8632 H   0  0  0  0  0  0
  -30.8035  -21.5774   15.9307 H   0  0  0  0  0  0
  -27.4900  -24.6959   21.2048 H   0  0  0  0  0  0
  -27.3438  -24.5704   19.4880 H   0  0  0  0  0  0
  -31.2909  -24.4766   16.8342 H   0  0  0  0  0  0
  -32.4902  -23.2363   16.8801 H   0  0  0  0  0  0
  -28.8384  -15.5508   20.0705 H   0  0  0  0  0  0
  1 25  1  0  0  0
  1 30  2  0  0  0
  1 88  1  0  0  0
  2  3  1  0  0  0
  2 25  1  0  0  0
  2 92  1  0  0  0
  2 93  1  0  0  0
  3  4  1  0  0  0
  3 94  1  0  0  0
  3 95  1  0  0  0
  4  5  1  0  0  0
  4 96  1  0  0  0
  4 97  1  0  0  0
  5  6  1  0  0  0
  5 26  1  0  0  0
  5 98  1  0  0  0
  6 25  1  0  0  0
  6 99  1  0  0  0
  6100  1  0  0  0
  7  8  2  0  0  0
  7 26  1  0  0  0
  7 29  1  0  0  0
  8  9  1  0  0  0
  8 22  1  0  0  0
  9 10  1  0  0  0
  9 27  2  0  0  0
 10 11  2  0  0  0
 10 15  1  0  0  0
 11 12  1  0  0  0
 11101  1  0  0  0
 12 13  2  0  0  0
 12102  1  0  0  0
 13 14  1  0  0  0
 13 31  1  0  0  0
 14 15  2  0  0  0
 14103  1  0  0  0
 15104  1  0  0  0
 16 17  2  0  0  0
 16 21  1  0  0  0
 16 31  1  0  0  0
 17 18  1  0  0  0
 17105  1  0  0  0
 18 19  2  0  0  0
 18106  1  0  0  0
 19 20  1  0  0  0
 19 24  1  0  0  0
 20 21  2  0  0  0
 20107  1  0  0  0
 21 23  1  0  0  0
 22 28  1  0  0  0
 22 32  2  0  0  0
 26 27  1  0  0  0
 28108  1  0  0  0
 28109  1  0  0  0
 29110  1  0  0  0
 29111  1  0  0  0
 33 34  1  0  0  0
 33 66  1  0  0  0
 33 70  2  0  0  0
 34 36  1  0  0  0
 34 59  1  0  0  0
 34112  1  0  0  0
 35 44  2  0  0  0
 35 45  1  0  0  0
 35 68  1  0  0  0
 36 56  1  0  0  0
 36113  1  0  0  0
 37 39  1  0  0  0
 37 47  1  0  0  0
 37 66  1  0  0  0
 37114  1  0  0  0
 38 43  2  0  0  0
 38 46  1  0  0  0
 38 47  1  0  0  0
 39 64  1  0  0  0
 39 67  2  0  0  0
 40 52  1  0  0  0
 40 53  2  0  0  0
 40 58  1  0  0  0
 41115  1  0  0  0
 41116  1  0  0  0
 41117  1  0  0  0
 41 48  1  0  0  0
 42 43  1  0  0  0
 42 66  1  0  0  0
 42118  1  0  0  0
 42119  1  0  0  0
 43 44  1  0  0  0
 44120  1  0  0  0
 45 46  2  0  0  0
 45121  1  0  0  0
 46122  1  0  0  0
 47123  1  0  0  0
 47124  1  0  0  0
 48 56  1  0  0  0
 48 65  1  0  0  0
 48125  1  0  0  0
 49 50  1  0  0  0
 49 53  1  0  0  0
 49 64  1  0  0  0
 49126  1  0  0  0
 50 51  1  0  0  0
 50127  1  0  0  0
 50128  1  0  0  0
 51 52  1  0  0  0
 51129  1  0  0  0
 51130  1  0  0  0
 52131  1  0  0  0
 52132  1  0  0  0
 53 54  1  0  0  0
 54 55  2  0  0  0
 54133  1  0  0  0
 55 57  1  0  0  0
 55134  1  0  0  0
 56 69  2  0  0  0
 57 58  2  0  0  0
 57135  1  0  0  0
 58136  1  0  0  0
 59 60  1  0  0  0
 59 61  1  0  0  0
 59 62  1  0  0  0
 60137  1  0  0  0
 60138  1  0  0  0
 60139  1  0  0  0
 61140  1  0  0  0
 61141  1  0  0  0
 61142  1  0  0  0
 62143  1  0  0  0
 62144  1  0  0  0
 62145  1  0  0  0
 63 65  1  0  0  0
 63146  1  0  0  0
 63147  1  0  0  0
 63148  1  0  0  0
 64149  1  0  0  0
 65150  1  0  0  0
 68 84  1  0  0  0
 71 74  2  0  0  0
 71 75  1  0  0  0
 71151  1  0  0  0
 72 75  2  0  0  0
 72 76  1  0  0  0
 72152  1  0  0  0
 73 74  1  0  0  0
 73 76  2  0  0  0
 73 82  1  0  0  0
 74 86  1  0  0  0
 75 88  1  0  0  0
 76 91  1  0  0  0
 77 79  1  0  0  0
 77 87  1  0  0  0
 77 89  2  0  0  0
 78 81  1  0  0  0
 78 86  1  0  0  0
 78 90  2  0  0  0
 79 86  1  0  0  0
 79153  1  0  0  0
 79154  1  0  0  0
 80 81  1  0  0  0
 80 87  1  0  0  0
 80155  1  0  0  0
 80156  1  0  0  0
 81 84  1  0  0  0
 81157  1  0  0  0
 82158  1  0  0  0
 82159  1  0  0  0
 82160  1  0  0  0
 83 85  1  0  0  0
 83161  1  0  0  0
 83162  1  0  0  0
 83163  1  0  0  0
 84164  1  0  0  0
 84165  1  0  0  0
 85 87  1  0  0  0
 85166  1  0  0  0
 85167  1  0  0  0
 88168  1  0  0  0
M  ISO  4   1 100  68 101  84 101  88 100
M  END
> <chiral flag>
0

> <version>
0

> <s_m_source_file>
/data/baiqing/PycharmProjects/Reinvent-master-3.2/result/LINK_invent/BTK/process_docking_weight1_custom_product_contain_oxygen_bond_distance_aromatic_linkinvent_7_9_3/rearranged_h_0059.sdf

> <i_m_source_file_index>
45

> <r_mmod_Potential_Energy-OPLS-2005>
323.49365234375

> <r_mmod_Stretch_Energy-OPLS-2005>
144.033782958984

> <r_mmod_Bend_Energy-OPLS-2005>
196.833206176758

> <r_mmod_Torsional_Energy-OPLS-2005>
336.296325683594

> <r_mmod_Improper_Torsional_Energy-OPLS-2005>
16.453332901001

> <r_mmod_Van_der_Waal_Energy-OPLS-2005>
156.389343261719

> <r_mmod_Electrostatic_Energy-OPLS-2005>
-376.165344238281

> <r_mmod_Solvation_Energy-OPLS-2005>
-246.227752685547

> <b_mmod_Minimization_Converged-OPLS-2005>
0

> <r_mmod_RMS_Derivative-OPLS-2005>
2.77068996429443

$$$$
45
                    3D
 Structure written by MMmdl.
166174  0  0  1  0            999 V2000
  -30.7150  -14.4496   20.4835 C   0  0  0  0  0  0
  -30.4147  -12.2785   19.4155 C   0  0  0  0  0  0
  -29.4886  -12.4774   18.1984 C   0  0  0  0  0  0
  -28.0086  -12.3518   18.6150 C   0  0  0  0  0  0
  -27.6555  -13.1996   19.8667 C   0  0  2  0  0  0
  -28.7046  -12.9956   20.9832 C   0  0  0  0  0  0
  -25.2558  -13.8117   20.5688 C   0  0  0  0  0  0
  -24.1811  -13.0400   20.9169 C   0  0  0  0  0  0
  -24.6370  -11.6874   20.8725 C   0  0  0  0  0  0
  -23.9040  -10.4274   21.0388 C   0  0  0  0  0  0
  -24.3605   -9.4202   21.9172 C   0  0  0  0  0  0
  -23.6290   -8.2234   22.0746 C   0  0  0  0  0  0
  -22.4272   -8.0268   21.3532 C   0  0  0  0  0  0
  -21.9891   -9.0237   20.4635 C   0  0  0  0  0  0
  -22.7210  -10.2119   20.3041 C   0  0  0  0  0  0
  -21.6848   -6.0735   22.5272 C   0  0  0  0  0  0
  -21.4012   -6.5639   23.8210 C   0  0  0  0  0  0
  -21.3658   -5.6789   24.9169 C   0  0  0  0  0  0
  -21.6044   -4.3054   24.7218 C   0  0  0  0  0  0
  -21.8826   -3.8145   23.4340 C   0  0  0  0  0  0
  -21.9199   -4.6963   22.3395 C   0  0  0  0  0  0
  -22.7841  -13.5214   21.1828 C   0  0  0  0  0  0
  -22.1669   -4.2153   21.0975 F   0  0  0  0  0  0
  -21.5622   -3.4536   25.7733 F   0  0  0  0  0  0
  -30.0266  -13.2821   20.4153 N   0  0  0  0  0  0
  -26.3002  -12.9295   20.3367 N   0  0  0  0  0  0
  -25.9295  -11.6455   20.5766 N   0  0  0  0  0  0
  -22.0485  -12.8214   22.0391 N   0  0  0  0  0  0
  -25.4188  -15.1834   20.4152 N   0  0  0  0  0  0
  -31.9188  -14.5407   20.2471 O   0  0  0  0  0  0
  -21.6632   -6.8872   21.4233 O   0  0  0  0  0  0
  -22.3534  -14.5520   20.6677 O   0  0  0  0  0  0
  -24.6101  -31.8714   23.2118 C   0  0  0  0  0  0
  -25.9005  -32.4843   23.8406 C   0  0  1  0  0  0
  -27.2439  -27.4760   20.0722 C   0  0  0  0  0  0
  -25.5862  -33.8640   24.2342 N   0  0  0  0  0  0
  -23.3957  -30.4959   21.5534 C   0  0  2  0  0  0
  -24.8409  -28.9643   20.1191 C   0  0  0  0  0  0
  -22.7364  -29.4678   22.5016 C   0  0  0  0  0  0
  -18.0309  -28.1367   22.8430 C   0  0  0  0  0  0
  -24.1492  -36.7322   23.2643 C   0  0  0  0  0  0
  -25.9218  -30.8454   21.3619 C   0  0  0  0  0  0
  -25.9980  -29.4830   20.7095 C   0  0  0  0  0  0
  -27.1977  -28.7443   20.6869 C   0  0  0  0  0  0
  -26.0605  -26.9579   19.4919 C   0  0  0  0  0  0
  -24.8640  -27.6964   19.5152 C   0  0  0  0  0  0
  -23.6006  -29.8254   20.1698 C   0  0  0  0  0  0
  -25.4114  -36.3132   24.0351 C   0  0  1  0  0  0
  -20.5866  -28.3679   23.1374 C   0  0  2  0  0  0
  -20.6773  -26.9401   22.5503 C   0  0  0  0  0  0
  -19.5861  -26.6484   21.5163 C   0  0  0  0  0  0
  -18.2007  -26.7951   22.1489 C   0  0  0  0  0  0
  -19.1522  -28.8826   23.2922 C   0  0  0  0  0  0
  -18.9413  -30.1416   23.8945 C   0  0  0  0  0  0
  -17.6403  -30.6544   24.0534 C   0  0  0  0  0  0
  -25.9036  -34.9490   23.5154 C   0  0  0  0  0  0
  -16.5336  -29.9060   23.6194 C   0  0  0  0  0  0
  -16.7298  -28.6489   23.0216 C   0  0  0  0  0  0
  -26.4444  -31.6611   25.0724 C   0  0  0  0  0  0
  -25.3722  -31.3690   26.1478 C   0  0  0  0  0  0
  -27.0281  -30.3067   24.6074 C   0  0  0  0  0  0
  -27.6036  -32.4325   25.7471 C   0  0  0  0  0  0
  -27.5593  -37.1815   24.8470 C   0  0  0  0  0  0
  -21.4103  -29.3052   22.3760 N   0  0  0  0  0  0
  -26.4309  -37.3807   23.9409 N   0  0  0  0  0  0
  -24.6609  -31.0851   22.1003 N   0  0  0  0  0  0
  -23.4149  -28.8196   23.3032 O   0  0  0  0  0  0
  -28.4562  -26.8193   20.0630 O   0  0  0  0  0  0
  -26.5602  -34.8927   22.4721 O   0  0  0  0  0  0
  -23.5303  -32.1430   23.7543 O   0  0  0  0  0  0
  -28.8067  -16.1618   22.3315 C   0  0  0  0  0  0
  -28.2276  -17.1327   20.1850 C   0  0  0  0  0  0
  -27.8360  -16.9716   22.9668 C   0  0  0  0  0  0
  -27.2481  -17.9431   20.7849 C   0  0  0  0  0  0
  -27.0128  -17.8453   22.1884 C   0  0  0  0  0  0
  -28.9979  -16.2380   20.9387 C   0  0  0  0  0  0
  -27.7149  -16.8179   24.4453 C   0  0  0  0  0  0
  -26.5162  -18.8867   19.8742 C   0  0  0  0  0  0
  -27.8115  -23.0990   19.8865 C   0  0  0  0  0  0
  -25.8707  -18.6331   22.8401 C   0  0  0  0  0  0
  -27.7078  -18.0901   25.2844 C   0  0  0  0  0  0
  -27.9856  -24.4752   20.5220 C   0  0  0  0  0  0
  -28.5407  -25.5046   19.5221 C   0  0  0  0  0  0
  -26.1926  -21.2799   19.3717 C   0  0  0  0  0  0
  -30.0029  -15.5516   20.2227 N   0  0  0  0  0  0
  -26.5752  -20.1702   20.2324 N   0  0  0  0  0  0
  -26.5872  -22.5596   19.9442 N   0  0  0  0  0  0
  -27.6955  -15.7225   25.0128 O   0  0  0  0  0  0
  -26.0087  -18.4972   18.8208 O   0  0  0  0  0  0
  -28.7710  -22.5309   19.3612 O   0  0  0  0  0  0
  -31.4591  -12.3700   19.1115 H   0  0  0  0  0  0
  -30.3073  -11.2716   19.8220 H   0  0  0  0  0  0
  -29.7208  -11.7458   17.4228 H   0  0  0  0  0  0
  -29.6630  -13.4577   17.7547 H   0  0  0  0  0  0
  -27.8128  -11.2977   18.8140 H   0  0  0  0  0  0
  -27.3599  -12.6292   17.7841 H   0  0  0  0  0  0
  -27.6872  -14.2404   19.5493 H   0  0  0  0  0  0
  -28.6764  -11.9653   21.3403 H   0  0  0  0  0  0
  -28.4885  -13.6101   21.8532 H   0  0  0  0  0  0
  -25.2755   -9.5708   22.4733 H   0  0  0  0  0  0
  -24.0010   -7.4635   22.7473 H   0  0  0  0  0  0
  -21.0817   -8.8759   19.8937 H   0  0  0  0  0  0
  -22.3668  -10.9664   19.6153 H   0  0  0  0  0  0
  -21.1997   -7.6149   23.9724 H   0  0  0  0  0  0
  -21.1471   -6.0507   25.9078 H   0  0  0  0  0  0
  -22.0606   -2.7607   23.2831 H   0  0  0  0  0  0
  -22.4131  -11.9900   22.4811 H   0  0  0  0  0  0
  -21.1097  -13.1208   22.2595 H   0  0  0  0  0  0
  -24.6541  -15.8329   20.5599 H   0  0  0  0  0  0
  -26.3004  -15.6439   20.2226 H   0  0  0  0  0  0
  -26.7085  -32.5572   23.1178 H   0  0  0  0  0  0
  -24.9996  -33.9814   25.0477 H   0  0  0  0  0  0
  -22.6841  -31.3120   21.4154 H   0  0  0  0  0  0
  -23.3754  -35.9657   23.3324 H   0  0  0  0  0  0
  -24.3584  -36.8904   22.2052 H   0  0  0  0  0  0
  -23.7232  -37.6532   23.6633 H   0  0  0  0  0  0
  -26.0362  -31.6124   20.5947 H   0  0  0  0  0  0
  -26.8096  -30.8962   21.9805 H   0  0  0  0  0  0
  -28.0933  -29.1503   21.1352 H   0  0  0  0  0  0
  -26.0327  -25.9904   19.0141 H   0  0  0  0  0  0
  -23.9713  -27.2862   19.0637 H   0  0  0  0  0  0
  -23.6989  -30.5962   19.4054 H   0  0  0  0  0  0
  -22.7277  -29.2386   19.8807 H   0  0  0  0  0  0
  -25.1288  -36.2022   25.0848 H   0  0  0  0  0  0
  -20.9932  -28.3273   24.1504 H   0  0  0  0  0  0
  -20.5487  -26.2302   23.3687 H   0  0  0  0  0  0
  -21.6681  -26.7369   22.1446 H   0  0  0  0  0  0
  -19.7089  -25.6465   21.1041 H   0  0  0  0  0  0
  -19.6864  -27.3422   20.6799 H   0  0  0  0  0  0
  -17.4351  -26.6746   21.3810 H   0  0  0  0  0  0
  -18.0383  -26.0047   22.8839 H   0  0  0  0  0  0
  -19.7867  -30.7214   24.2378 H   0  0  0  0  0  0
  -17.4906  -31.6215   24.5152 H   0  0  0  0  0  0
  -15.5313  -30.2941   23.7428 H   0  0  0  0  0  0
  -15.8745  -28.0830   22.6786 H   0  0  0  0  0  0
  -24.5885  -30.7055   25.7800 H   0  0  0  0  0  0
  -24.8920  -32.2836   26.4970 H   0  0  0  0  0  0
  -25.8074  -30.8813   27.0210 H   0  0  0  0  0  0
  -26.2822  -29.6833   24.1129 H   0  0  0  0  0  0
  -27.4066  -29.7291   25.4514 H   0  0  0  0  0  0
  -27.8645  -30.4407   23.9213 H   0  0  0  0  0  0
  -27.2666  -33.3607   26.2096 H   0  0  0  0  0  0
  -28.3802  -32.6911   25.0262 H   0  0  0  0  0  0
  -28.0759  -31.8423   26.5331 H   0  0  0  0  0  0
  -28.2629  -38.0096   24.7514 H   0  0  0  0  0  0
  -28.1065  -36.2625   24.6309 H   0  0  0  0  0  0
  -27.2305  -37.1492   25.8871 H   0  0  0  0  0  0
  -20.9221  -29.8801   21.7032 H   0  0  0  0  0  0
  -26.0209  -38.2899   24.1380 H   0  0  0  0  0  0
  -29.4234  -15.5047   22.9291 H   0  0  0  0  0  0
  -28.4015  -17.2205   19.1206 H   0  0  0  0  0  0
  -25.4064  -18.0803   23.6569 H   0  0  0  0  0  0
  -25.0601  -18.8401   22.1430 H   0  0  0  0  0  0
  -26.2335  -19.5851   23.2293 H   0  0  0  0  0  0
  -28.3244  -17.9540   26.1720 H   0  0  0  0  0  0
  -26.6954  -18.3332   25.6004 H   0  0  0  0  0  0
  -28.1097  -18.9281   24.7147 H   0  0  0  0  0  0
  -28.6551  -24.3968   21.3786 H   0  0  0  0  0  0
  -27.0267  -24.8038   20.9216 H   0  0  0  0  0  0
  -28.0657  -25.4394   18.5415 H   0  0  0  0  0  0
  -29.5950  -25.2949   19.3409 H   0  0  0  0  0  0
  -25.1099  -21.2748   19.2354 H   0  0  0  0  0  0
  -26.6324  -21.1595   18.3785 H   0  0  0  0  0  0
  -30.5049  -16.1523   19.5857 H   0  0  0  0  0  0
  -27.0491  -20.3770   21.0982 H   0  0  0  0  0  0
  -25.8513  -23.1113   20.3669 H   0  0  0  0  0  0
  1 25  1  0  0  0
  1 30  2  0  0  0
  1 85  1  0  0  0
  2  3  1  0  0  0
  2 25  1  0  0  0
  2 91  1  0  0  0
  2 92  1  0  0  0
  3  4  1  0  0  0
  3 93  1  0  0  0
  3 94  1  0  0  0
  4  5  1  0  0  0
  4 95  1  0  0  0
  4 96  1  0  0  0
  5  6  1  0  0  0
  5 26  1  0  0  0
  5 97  1  0  0  0
  6 25  1  0  0  0
  6 98  1  0  0  0
  6 99  1  0  0  0
  7  8  2  0  0  0
  7 26  1  0  0  0
  7 29  1  0  0  0
  8  9  1  0  0  0
  8 22  1  0  0  0
  9 10  1  0  0  0
  9 27  2  0  0  0
 10 11  2  0  0  0
 10 15  1  0  0  0
 11 12  1  0  0  0
 11100  1  0  0  0
 12 13  2  0  0  0
 12101  1  0  0  0
 13 14  1  0  0  0
 13 31  1  0  0  0
 14 15  2  0  0  0
 14102  1  0  0  0
 15103  1  0  0  0
 16 17  2  0  0  0
 16 21  1  0  0  0
 16 31  1  0  0  0
 17 18  1  0  0  0
 17104  1  0  0  0
 18 19  2  0  0  0
 18105  1  0  0  0
 19 20  1  0  0  0
 19 24  1  0  0  0
 20 21  2  0  0  0
 20106  1  0  0  0
 21 23  1  0  0  0
 22 28  1  0  0  0
 22 32  2  0  0  0
 26 27  1  0  0  0
 28107  1  0  0  0
 28108  1  0  0  0
 29109  1  0  0  0
 29110  1  0  0  0
 33 34  1  0  0  0
 33 66  1  0  0  0
 33 70  2  0  0  0
 34 36  1  0  0  0
 34 59  1  0  0  0
 34111  1  0  0  0
 35 44  2  0  0  0
 35 45  1  0  0  0
 35 68  1  0  0  0
 36 56  1  0  0  0
 36112  1  0  0  0
 37 39  1  0  0  0
 37 47  1  0  0  0
 37 66  1  0  0  0
 37113  1  0  0  0
 38 43  2  0  0  0
 38 46  1  0  0  0
 38 47  1  0  0  0
 39 64  1  0  0  0
 39 67  2  0  0  0
 40 52  1  0  0  0
 40 53  2  0  0  0
 40 58  1  0  0  0
 41114  1  0  0  0
 41115  1  0  0  0
 41116  1  0  0  0
 41 48  1  0  0  0
 42 43  1  0  0  0
 42 66  1  0  0  0
 42117  1  0  0  0
 42118  1  0  0  0
 43 44  1  0  0  0
 44119  1  0  0  0
 45 46  2  0  0  0
 45120  1  0  0  0
 46121  1  0  0  0
 47122  1  0  0  0
 47123  1  0  0  0
 48 56  1  0  0  0
 48 65  1  0  0  0
 48124  1  0  0  0
 49 50  1  0  0  0
 49 53  1  0  0  0
 49 64  1  0  0  0
 49125  1  0  0  0
 50 51  1  0  0  0
 50126  1  0  0  0
 50127  1  0  0  0
 51 52  1  0  0  0
 51128  1  0  0  0
 51129  1  0  0  0
 52130  1  0  0  0
 52131  1  0  0  0
 53 54  1  0  0  0
 54 55  2  0  0  0
 54132  1  0  0  0
 55 57  1  0  0  0
 55133  1  0  0  0
 56 69  2  0  0  0
 57 58  2  0  0  0
 57134  1  0  0  0
 58135  1  0  0  0
 59 60  1  0  0  0
 59 61  1  0  0  0
 59 62  1  0  0  0
 60136  1  0  0  0
 60137  1  0  0  0
 60138  1  0  0  0
 61139  1  0  0  0
 61140  1  0  0  0
 61141  1  0  0  0
 62142  1  0  0  0
 62143  1  0  0  0
 62144  1  0  0  0
 63 65  1  0  0  0
 63145  1  0  0  0
 63146  1  0  0  0
 63147  1  0  0  0
 64148  1  0  0  0
 65149  1  0  0  0
 68 83  1  0  0  0
 71 73  2  0  0  0
 71 76  1  0  0  0
 71150  1  0  0  0
 72 74  1  0  0  0
 72 76  2  0  0  0
 72151  1  0  0  0
 73 75  1  0  0  0
 73 77  1  0  0  0
 74 75  2  0  0  0
 74 78  1  0  0  0
 75 80  1  0  0  0
 76 85  1  0  0  0
 77 81  1  0  0  0
 77 88  2  0  0  0
 78 86  1  0  0  0
 78 89  2  0  0  0
 79 82  1  0  0  0
 79 87  1  0  0  0
 79 90  2  0  0  0
 80152  1  0  0  0
 80153  1  0  0  0
 80154  1  0  0  0
 81155  1  0  0  0
 81156  1  0  0  0
 81157  1  0  0  0
 82 83  1  0  0  0
 82158  1  0  0  0
 82159  1  0  0  0
 83160  1  0  0  0
 83161  1  0  0  0
 84 86  1  0  0  0
 84 87  1  0  0  0
 84162  1  0  0  0
 84163  1  0  0  0
 85164  1  0  0  0
 86165  1  0  0  0
 87166  1  0  0  0
M  ISO  4   1 100  68 101  83 101  85 100
M  END
> <chiral flag>
0

> <version>
0

> <s_m_source_file>
/data/baiqing/PycharmProjects/Reinvent-master-3.2/result/LINK_invent/BTK/process_docking_weight1_custom_product_contain_oxygen_bond_distance_aromatic_linkinvent_7_9_3/rearranged_h_0059.sdf

> <i_m_source_file_index>
46

> <r_mmod_Potential_Energy-OPLS-2005>
-92.7594833374023

> <r_mmod_Stretch_Energy-OPLS-2005>
33.8884506225586

> <r_mmod_Bend_Energy-OPLS-2005>
124.497261047363

> <r_mmod_Torsional_Energy-OPLS-2005>
302.174285888672

> <r_mmod_Improper_Torsional_Energy-OPLS-2005>
23.2135181427002

> <r_mmod_Van_der_Waal_Energy-OPLS-2005>
152.604202270508

> <r_mmod_Electrostatic_Energy-OPLS-2005>
-491.489654541016

> <r_mmod_Solvation_Energy-OPLS-2005>
-258.455505371094

> <b_mmod_Minimization_Converged-OPLS-2005>
0

> <r_mmod_RMS_Derivative-OPLS-2005>
2.39246106147766

$$$$
46
                    3D
 Structure written by MMmdl.
160168  0  0  1  0            999 V2000
  -30.6690  -14.5015   20.5142 C   0  0  0  0  0  0
  -30.4202  -12.3135   19.4198 C   0  0  0  0  0  0
  -29.4934  -12.5165   18.2032 C   0  0  0  0  0  0
  -28.0117  -12.3767   18.6103 C   0  0  0  0  0  0
  -27.6567  -13.2106   19.8756 C   0  0  2  0  0  0
  -28.7075  -12.9930   20.9921 C   0  0  0  0  0  0
  -25.2557  -13.8209   20.5695 C   0  0  0  0  0  0
  -24.1819  -13.0477   20.9193 C   0  0  0  0  0  0
  -24.6385  -11.6938   20.8736 C   0  0  0  0  0  0
  -23.9061  -10.4317   21.0389 C   0  0  0  0  0  0
  -24.3622   -9.4239   21.9172 C   0  0  0  0  0  0
  -23.6300   -8.2268   22.0742 C   0  0  0  0  0  0
  -22.4279   -8.0297   21.3539 C   0  0  0  0  0  0
  -21.9913   -9.0272   20.4648 C   0  0  0  0  0  0
  -22.7234  -10.2151   20.3043 C   0  0  0  0  0  0
  -21.6879   -6.0741   22.5277 C   0  0  0  0  0  0
  -21.4024   -6.5637   23.8220 C   0  0  0  0  0  0
  -21.3650   -5.6792   24.9180 C   0  0  0  0  0  0
  -21.6037   -4.3049   24.7237 C   0  0  0  0  0  0
  -21.8823   -3.8147   23.4351 C   0  0  0  0  0  0
  -21.9202   -4.6960   22.3412 C   0  0  0  0  0  0
  -22.7847  -13.5264   21.1864 C   0  0  0  0  0  0
  -22.1668   -4.2159   21.0986 F   0  0  0  0  0  0
  -21.5623   -3.4527   25.7740 F   0  0  0  0  0  0
  -30.0225  -13.3084   20.4249 N   0  0  0  0  0  0
  -26.3001  -12.9385   20.3394 N   0  0  0  0  0  0
  -25.9300  -11.6538   20.5734 N   0  0  0  0  0  0
  -22.0470  -12.8275   22.0414 N   0  0  0  0  0  0
  -25.4218  -15.1935   20.4032 N   0  0  0  0  0  0
  -31.8595  -14.6371   20.2278 O   0  0  0  0  0  0
  -21.6653   -6.8879   21.4241 O   0  0  0  0  0  0
  -22.3516  -14.5570   20.6694 O   0  0  0  0  0  0
  -24.6125  -31.8675   23.2043 C   0  0  0  0  0  0
  -25.9011  -32.4830   23.8381 C   0  0  1  0  0  0
  -27.2478  -27.4357   20.1260 C   0  0  0  0  0  0
  -25.5879  -33.8630   24.2318 N   0  0  0  0  0  0
  -23.4061  -30.4785   21.5456 C   0  0  2  0  0  0
  -24.8610  -28.9462   20.1161 C   0  0  0  0  0  0
  -22.7442  -29.4577   22.4994 C   0  0  0  0  0  0
  -18.0248  -28.1398   22.8490 C   0  0  0  0  0  0
  -24.1486  -36.7322   23.2633 C   0  0  0  0  0  0
  -25.9289  -30.8361   21.3578 C   0  0  0  0  0  0
  -26.0145  -29.4656   20.7178 C   0  0  0  0  0  0
  -27.2109  -28.7155   20.7212 C   0  0  0  0  0  0
  -26.0813  -26.9242   19.5193 C   0  0  0  0  0  0
  -24.8893  -27.6754   19.5134 C   0  0  0  0  0  0
  -23.6199  -29.8076   20.1603 C   0  0  0  0  0  0
  -25.4108  -36.3122   24.0334 C   0  0  1  0  0  0
  -20.5838  -28.3635   23.1386 C   0  0  2  0  0  0
  -20.6750  -26.9385   22.5438 C   0  0  0  0  0  0
  -19.5727  -26.6382   21.5237 C   0  0  0  0  0  0
  -18.1906  -26.7943   22.1635 C   0  0  0  0  0  0
  -19.1500  -28.8838   23.2928 C   0  0  0  0  0  0
  -18.9422  -30.1453   23.8915 C   0  0  0  0  0  0
  -17.6422  -30.6598   24.0562 C   0  0  0  0  0  0
  -25.9029  -34.9486   23.5132 C   0  0  0  0  0  0
  -16.5316  -29.9098   23.6316 C   0  0  0  0  0  0
  -16.7242  -28.6522   23.0341 C   0  0  0  0  0  0
  -26.4450  -31.6627   25.0731 C   0  0  0  0  0  0
  -25.3696  -31.3765   26.1473 C   0  0  0  0  0  0
  -27.0293  -30.3069   24.6118 C   0  0  0  0  0  0
  -27.6029  -32.4353   25.7493 C   0  0  0  0  0  0
  -27.5584  -37.1813   24.8469 C   0  0  0  0  0  0
  -21.4152  -29.3001   22.3823 N   0  0  0  0  0  0
  -26.4294  -37.3802   23.9410 N   0  0  0  0  0  0
  -24.6662  -31.0751   22.0949 N   0  0  0  0  0  0
  -23.4230  -28.8130   23.3041 O   0  0  0  0  0  0
  -28.4252  -26.7260   20.0809 O   0  0  0  0  0  0
  -26.5598  -34.8936   22.4698 O   0  0  0  0  0  0
  -23.5297  -32.1456   23.7374 O   0  0  0  0  0  0
  -28.5266  -18.6722   22.9063 C   0  0  0  0  0  0
  -28.3046  -16.4032   22.0363 C   0  0  0  0  0  0
  -30.2077  -17.7783   21.3793 C   0  0  0  0  0  0
  -27.8177  -17.4577   22.8379 C   0  0  0  0  0  0
  -29.7268  -18.8403   22.1896 C   0  0  0  0  0  0
  -29.4983  -16.5520   21.2983 C   0  0  0  0  0  0
  -29.7167  -22.3676   21.6224 C   0  0  0  0  0  0
  -26.5306  -17.2901   23.6225 C   0  0  0  0  0  0
  -30.5190  -20.1316   22.3873 C   0  0  0  0  0  0
  -30.3427  -23.6148   20.9736 C   0  0  0  0  0  0
  -29.4196  -24.5054   20.0969 C   0  0  0  0  0  0
  -28.4791  -25.4982   20.8255 C   0  0  0  0  0  0
  -29.8720  -15.5723   20.3340 N   0  0  0  0  0  0
  -30.3408  -21.1960   21.3950 N   0  0  0  0  0  0
  -28.7707  -22.4853   22.4028 O   0  0  0  0  0  0
  -31.4672  -12.4111   19.1256 H   0  0  0  0  0  0
  -30.3072  -11.3039   19.8185 H   0  0  0  0  0  0
  -29.7402  -11.8015   17.4177 H   0  0  0  0  0  0
  -29.6561  -13.5077   17.7745 H   0  0  0  0  0  0
  -27.8092  -11.3188   18.7847 H   0  0  0  0  0  0
  -27.3761  -12.6679   17.7740 H   0  0  0  0  0  0
  -27.6916  -14.2562   19.5732 H   0  0  0  0  0  0
  -28.6893  -11.9547   21.3275 H   0  0  0  0  0  0
  -28.5143  -13.5827   21.8852 H   0  0  0  0  0  0
  -25.2755   -9.5736   22.4763 H   0  0  0  0  0  0
  -24.0010   -7.4677   22.7472 H   0  0  0  0  0  0
  -21.0835   -8.8791   19.8988 H   0  0  0  0  0  0
  -22.3668  -10.9690   19.6161 H   0  0  0  0  0  0
  -21.2021   -7.6147   23.9729 H   0  0  0  0  0  0
  -21.1457   -6.0510   25.9087 H   0  0  0  0  0  0
  -22.0607   -2.7604   23.2852 H   0  0  0  0  0  0
  -22.4047  -11.9939   22.4847 H   0  0  0  0  0  0
  -21.1071  -13.1309   22.2564 H   0  0  0  0  0  0
  -24.6435  -15.8390   20.4818 H   0  0  0  0  0  0
  -26.2719  -15.6397   20.0827 H   0  0  0  0  0  0
  -26.7105  -32.5574   23.1173 H   0  0  0  0  0  0
  -25.0089  -33.9808   25.0504 H   0  0  0  0  0  0
  -22.6937  -31.2917   21.3995 H   0  0  0  0  0  0
  -23.3745  -35.9658   23.3321 H   0  0  0  0  0  0
  -24.3557  -36.8911   22.2037 H   0  0  0  0  0  0
  -23.7252  -37.6535   23.6644 H   0  0  0  0  0  0
  -26.0335  -31.5919   20.5775 H   0  0  0  0  0  0
  -26.8185  -30.9054   21.9708 H   0  0  0  0  0  0
  -28.1037  -29.1106   21.1869 H   0  0  0  0  0  0
  -26.1031  -25.9538   19.0444 H   0  0  0  0  0  0
  -24.0045  -27.2721   19.0419 H   0  0  0  0  0  0
  -23.7325  -30.5801   19.3984 H   0  0  0  0  0  0
  -22.7523  -29.2159   19.8623 H   0  0  0  0  0  0
  -25.1277  -36.1986   25.0823 H   0  0  0  0  0  0
  -20.9880  -28.3131   24.1533 H   0  0  0  0  0  0
  -20.5682  -26.2214   23.3590 H   0  0  0  0  0  0
  -21.6628  -26.7476   22.1216 H   0  0  0  0  0  0
  -19.6881  -25.6294   21.1264 H   0  0  0  0  0  0
  -19.6687  -27.3206   20.6782 H   0  0  0  0  0  0
  -17.4193  -26.6687   21.4024 H   0  0  0  0  0  0
  -18.0280  -26.0101   22.9040 H   0  0  0  0  0  0
  -19.7884  -30.7278   24.2311 H   0  0  0  0  0  0
  -17.4960  -31.6267   24.5185 H   0  0  0  0  0  0
  -15.5319  -30.3015   23.7616 H   0  0  0  0  0  0
  -15.8635  -28.0841   22.7069 H   0  0  0  0  0  0
  -24.5845  -30.7158   25.7788 H   0  0  0  0  0  0
  -24.8913  -32.2945   26.4896 H   0  0  0  0  0  0
  -25.7985  -30.8925   27.0258 H   0  0  0  0  0  0
  -26.2865  -29.6834   24.1126 H   0  0  0  0  0  0
  -27.4050  -29.7295   25.4578 H   0  0  0  0  0  0
  -27.8690  -30.4413   23.9296 H   0  0  0  0  0  0
  -27.2669  -33.3653   26.2089 H   0  0  0  0  0  0
  -28.3813  -32.6915   25.0302 H   0  0  0  0  0  0
  -28.0752  -31.8494   26.5385 H   0  0  0  0  0  0
  -28.2613  -38.0098   24.7504 H   0  0  0  0  0  0
  -28.1077  -36.2633   24.6310 H   0  0  0  0  0  0
  -27.2318  -37.1488   25.8879 H   0  0  0  0  0  0
  -20.9327  -29.8769   21.7076 H   0  0  0  0  0  0
  -26.0189  -38.2888   24.1381 H   0  0  0  0  0  0
  -28.1582  -19.4802   23.5241 H   0  0  0  0  0  0
  -27.7168  -15.5046   21.9623 H   0  0  0  0  0  0
  -31.1229  -17.9115   20.8183 H   0  0  0  0  0  0
  -26.0674  -18.2572   23.8219 H   0  0  0  0  0  0
  -26.7356  -16.8142   24.5823 H   0  0  0  0  0  0
  -25.8050  -16.6833   23.0791 H   0  0  0  0  0  0
  -31.5792  -19.8781   22.3852 H   0  0  0  0  0  0
  -30.3211  -20.5220   23.3879 H   0  0  0  0  0  0
  -31.1832  -23.2753   20.3657 H   0  0  0  0  0  0
  -30.7935  -24.2175   21.7649 H   0  0  0  0  0  0
  -28.8383  -23.8877   19.4139 H   0  0  0  0  0  0
  -30.0823  -25.0906   19.4580 H   0  0  0  0  0  0
  -28.8766  -25.7393   21.8116 H   0  0  0  0  0  0
  -27.4950  -25.0547   20.9918 H   0  0  0  0  0  0
  -30.2205  -16.0396   19.5110 H   0  0  0  0  0  0
  -31.0451  -21.2055   20.6697 H   0  0  0  0  0  0
  1 25  1  0  0  0
  1 30  2  0  0  0
  1 83  1  0  0  0
  2  3  1  0  0  0
  2 25  1  0  0  0
  2 86  1  0  0  0
  2 87  1  0  0  0
  3  4  1  0  0  0
  3 88  1  0  0  0
  3 89  1  0  0  0
  4  5  1  0  0  0
  4 90  1  0  0  0
  4 91  1  0  0  0
  5  6  1  0  0  0
  5 26  1  0  0  0
  5 92  1  0  0  0
  6 25  1  0  0  0
  6 93  1  0  0  0
  6 94  1  0  0  0
  7  8  2  0  0  0
  7 26  1  0  0  0
  7 29  1  0  0  0
  8  9  1  0  0  0
  8 22  1  0  0  0
  9 10  1  0  0  0
  9 27  2  0  0  0
 10 11  2  0  0  0
 10 15  1  0  0  0
 11 12  1  0  0  0
 11 95  1  0  0  0
 12 13  2  0  0  0
 12 96  1  0  0  0
 13 14  1  0  0  0
 13 31  1  0  0  0
 14 15  2  0  0  0
 14 97  1  0  0  0
 15 98  1  0  0  0
 16 17  2  0  0  0
 16 21  1  0  0  0
 16 31  1  0  0  0
 17 18  1  0  0  0
 17 99  1  0  0  0
 18 19  2  0  0  0
 18100  1  0  0  0
 19 20  1  0  0  0
 19 24  1  0  0  0
 20 21  2  0  0  0
 20101  1  0  0  0
 21 23  1  0  0  0
 22 28  1  0  0  0
 22 32  2  0  0  0
 26 27  1  0  0  0
 28102  1  0  0  0
 28103  1  0  0  0
 29104  1  0  0  0
 29105  1  0  0  0
 33 34  1  0  0  0
 33 66  1  0  0  0
 33 70  2  0  0  0
 34 36  1  0  0  0
 34 59  1  0  0  0
 34106  1  0  0  0
 35 44  2  0  0  0
 35 45  1  0  0  0
 35 68  1  0  0  0
 36 56  1  0  0  0
 36107  1  0  0  0
 37 39  1  0  0  0
 37 47  1  0  0  0
 37 66  1  0  0  0
 37108  1  0  0  0
 38 43  2  0  0  0
 38 46  1  0  0  0
 38 47  1  0  0  0
 39 64  1  0  0  0
 39 67  2  0  0  0
 40 52  1  0  0  0
 40 53  2  0  0  0
 40 58  1  0  0  0
 41109  1  0  0  0
 41110  1  0  0  0
 41111  1  0  0  0
 41 48  1  0  0  0
 42 43  1  0  0  0
 42 66  1  0  0  0
 42112  1  0  0  0
 42113  1  0  0  0
 43 44  1  0  0  0
 44114  1  0  0  0
 45 46  2  0  0  0
 45115  1  0  0  0
 46116  1  0  0  0
 47117  1  0  0  0
 47118  1  0  0  0
 48 56  1  0  0  0
 48 65  1  0  0  0
 48119  1  0  0  0
 49 50  1  0  0  0
 49 53  1  0  0  0
 49 64  1  0  0  0
 49120  1  0  0  0
 50 51  1  0  0  0
 50121  1  0  0  0
 50122  1  0  0  0
 51 52  1  0  0  0
 51123  1  0  0  0
 51124  1  0  0  0
 52125  1  0  0  0
 52126  1  0  0  0
 53 54  1  0  0  0
 54 55  2  0  0  0
 54127  1  0  0  0
 55 57  1  0  0  0
 55128  1  0  0  0
 56 69  2  0  0  0
 57 58  2  0  0  0
 57129  1  0  0  0
 58130  1  0  0  0
 59 60  1  0  0  0
 59 61  1  0  0  0
 59 62  1  0  0  0
 60131  1  0  0  0
 60132  1  0  0  0
 60133  1  0  0  0
 61134  1  0  0  0
 61135  1  0  0  0
 61136  1  0  0  0
 62137  1  0  0  0
 62138  1  0  0  0
 62139  1  0  0  0
 63 65  1  0  0  0
 63140  1  0  0  0
 63141  1  0  0  0
 63142  1  0  0  0
 64143  1  0  0  0
 65144  1  0  0  0
 68 82  1  0  0  0
 71 74  2  0  0  0
 71 75  1  0  0  0
 71145  1  0  0  0
 72 74  1  0  0  0
 72 76  2  0  0  0
 72146  1  0  0  0
 73 75  2  0  0  0
 73 76  1  0  0  0
 73147  1  0  0  0
 74 78  1  0  0  0
 75 79  1  0  0  0
 76 83  1  0  0  0
 77 80  1  0  0  0
 77 84  1  0  0  0
 77 85  2  0  0  0
 78148  1  0  0  0
 78149  1  0  0  0
 78150  1  0  0  0
 79 84  1  0  0  0
 79151  1  0  0  0
 79152  1  0  0  0
 80 81  1  0  0  0
 80153  1  0  0  0
 80154  1  0  0  0
 81 82  1  0  0  0
 81155  1  0  0  0
 81156  1  0  0  0
 82157  1  0  0  0
 82158  1  0  0  0
 83159  1  0  0  0
 84160  1  0  0  0
M  ISO  4   1 100  68 101  82 101  83 100
M  END
> <chiral flag>
0

> <version>
0

> <s_m_source_file>
/data/baiqing/PycharmProjects/Reinvent-master-3.2/result/LINK_invent/BTK/process_docking_weight1_custom_product_contain_oxygen_bond_distance_aromatic_linkinvent_7_9_3/rearranged_h_0059.sdf

> <i_m_source_file_index>
47

> <r_mmod_Potential_Energy-OPLS-2005>
-59.2720909118652

> <r_mmod_Stretch_Energy-OPLS-2005>
36.3127784729004

> <r_mmod_Bend_Energy-OPLS-2005>
116.319862365723

> <r_mmod_Torsional_Energy-OPLS-2005>
319.395233154297

> <r_mmod_Improper_Torsional_Energy-OPLS-2005>
29.1720104217529

> <r_mmod_Van_der_Waal_Energy-OPLS-2005>
131.775421142578

> <r_mmod_Electrostatic_Energy-OPLS-2005>
-485.365112304688

> <r_mmod_Solvation_Energy-OPLS-2005>
-225.235260009766

> <b_mmod_Minimization_Converged-OPLS-2005>
0

> <r_mmod_RMS_Derivative-OPLS-2005>
3.76870203018188

$$$$
47
                    3D
 Structure written by MMmdl.
171180  0  0  1  0            999 V2000
  -30.6945  -14.4992   20.5137 C   0  0  0  0  0  0
  -30.4159  -12.3047   19.4405 C   0  0  0  0  0  0
  -29.4960  -12.4881   18.2153 C   0  0  0  0  0  0
  -28.0167  -12.3534   18.6259 C   0  0  0  0  0  0
  -27.6567  -13.2113   19.8691 C   0  0  2  0  0  0
  -28.6976  -13.0309   20.9975 C   0  0  0  0  0  0
  -25.2576  -13.8177   20.5689 C   0  0  0  0  0  0
  -24.1834  -13.0447   20.9187 C   0  0  0  0  0  0
  -24.6388  -11.6913   20.8742 C   0  0  0  0  0  0
  -23.9057  -10.4294   21.0404 C   0  0  0  0  0  0
  -24.3611   -9.4212   21.9182 C   0  0  0  0  0  0
  -23.6289   -8.2247   22.0753 C   0  0  0  0  0  0
  -22.4274   -8.0280   21.3544 C   0  0  0  0  0  0
  -21.9907   -9.0252   20.4645 C   0  0  0  0  0  0
  -22.7232  -10.2132   20.3051 C   0  0  0  0  0  0
  -21.6855   -6.0734   22.5275 C   0  0  0  0  0  0
  -21.4013   -6.5637   23.8209 C   0  0  0  0  0  0
  -21.3661   -5.6789   24.9171 C   0  0  0  0  0  0
  -21.6045   -4.3050   24.7221 C   0  0  0  0  0  0
  -21.8821   -3.8144   23.4343 C   0  0  0  0  0  0
  -21.9193   -4.6962   22.3400 C   0  0  0  0  0  0
  -22.7856  -13.5242   21.1844 C   0  0  0  0  0  0
  -22.1662   -4.2147   21.0979 F   0  0  0  0  0  0
  -21.5631   -3.4535   25.7735 F   0  0  0  0  0  0
  -30.0263  -13.3161   20.4369 N   0  0  0  0  0  0
  -26.3000  -12.9347   20.3346 N   0  0  0  0  0  0
  -25.9314  -11.6503   20.5773 N   0  0  0  0  0  0
  -22.0495  -12.8230   22.0396 N   0  0  0  0  0  0
  -25.4309  -15.1895   20.4095 N   0  0  0  0  0  0
  -31.8673  -14.6067   20.1478 O   0  0  0  0  0  0
  -21.6642   -6.8877   21.4237 O   0  0  0  0  0  0
  -22.3544  -14.5557   20.6705 O   0  0  0  0  0  0
  -24.6147  -31.8669   23.2102 C   0  0  0  0  0  0
  -25.9046  -32.4813   23.8395 C   0  0  1  0  0  0
  -27.2303  -27.4270   20.1109 C   0  0  0  0  0  0
  -25.5911  -33.8612   24.2336 N   0  0  0  0  0  0
  -23.4030  -30.4896   21.5499 C   0  0  2  0  0  0
  -24.8516  -28.9520   20.1171 C   0  0  0  0  0  0
  -22.7401  -29.4659   22.4995 C   0  0  0  0  0  0
  -18.0265  -28.1380   22.8490 C   0  0  0  0  0  0
  -24.1484  -36.7309   23.2640 C   0  0  0  0  0  0
  -25.9313  -30.8307   21.3647 C   0  0  0  0  0  0
  -26.0099  -29.4623   20.7181 C   0  0  0  0  0  0
  -27.2044  -28.7050   20.7158 C   0  0  0  0  0  0
  -26.0629  -26.9335   19.4969 C   0  0  0  0  0  0
  -24.8727  -27.6862   19.5040 C   0  0  0  0  0  0
  -23.6130  -29.8188   20.1650 C   0  0  0  0  0  0
  -25.4105  -36.3106   24.0341 C   0  0  1  0  0  0
  -20.5854  -28.3666   23.1319 C   0  0  2  0  0  0
  -20.6761  -26.9403   22.5420 C   0  0  0  0  0  0
  -19.5745  -26.6389   21.5212 C   0  0  0  0  0  0
  -18.1918  -26.7933   22.1613 C   0  0  0  0  0  0
  -19.1513  -28.8839   23.2902 C   0  0  0  0  0  0
  -18.9447  -30.1449   23.8908 C   0  0  0  0  0  0
  -17.6450  -30.6591   24.0565 C   0  0  0  0  0  0
  -25.9031  -34.9470   23.5131 C   0  0  0  0  0  0
  -16.5339  -29.9090   23.6335 C   0  0  0  0  0  0
  -16.7253  -28.6507   23.0351 C   0  0  0  0  0  0
  -26.4486  -31.6584   25.0716 C   0  0  0  0  0  0
  -25.3760  -31.3675   26.1466 C   0  0  0  0  0  0
  -27.0329  -30.3029   24.6090 C   0  0  0  0  0  0
  -27.6061  -32.4305   25.7478 C   0  0  0  0  0  0
  -27.5577  -37.1810   24.8468 C   0  0  0  0  0  0
  -21.4129  -29.3031   22.3727 N   0  0  0  0  0  0
  -26.4291  -37.3790   23.9412 N   0  0  0  0  0  0
  -24.6677  -31.0771   22.1002 N   0  0  0  0  0  0
  -23.4170  -28.8206   23.3044 O   0  0  0  0  0  0
  -28.3735  -26.6607   20.0910 O   0  0  0  0  0  0
  -26.5582  -34.8922   22.4686 O   0  0  0  0  0  0
  -23.5341  -32.1418   23.7499 O   0  0  0  0  0  0
  -31.2817  -18.6333   19.0660 C   0  0  0  0  0  0
  -30.7271  -19.6721   19.8246 C   0  0  0  0  0  0
  -31.0086  -17.2990   19.3979 C   0  0  0  0  0  0
  -29.8539  -19.3986   20.8974 C   0  0  0  0  0  0
  -29.5702  -18.0323   21.2351 C   0  0  0  0  0  0
  -30.1881  -16.9653   20.5050 C   0  0  0  0  0  0
  -28.3998  -22.0540   19.7596 C   0  0  0  0  0  0
  -27.3899  -19.6859   17.0993 C   0  0  0  0  0  0
  -28.1365  -21.5120   18.5534 C   0  0  0  0  0  0
  -27.6230  -20.1716   18.3282 C   0  0  0  0  0  0
  -28.8984  -23.4895   19.9880 C   0  0  0  0  0  0
  -27.8665  -23.5109   22.2570 C   0  0  0  0  0  0
  -27.3206  -22.0868   22.0065 C   0  0  0  0  0  0
  -28.0022  -24.3084   20.9453 C   0  0  1  0  0  0
  -28.6379  -17.7049   22.3979 C   0  0  0  0  0  0
  -29.3166  -20.6206   21.6750 C   0  0  0  0  0  0
  -28.5155  -25.7584   21.2010 C   0  0  0  0  0  0
  -29.9508  -15.5822   20.8498 N   0  0  0  0  0  0
  -28.1458  -21.3068   21.0439 N   0  3  2  0  0  0
  -31.4630  -12.3864   19.1431 H   0  0  0  0  0  0
  -30.3045  -11.3030   19.8590 H   0  0  0  0  0  0
  -29.7389  -11.7501   17.4498 H   0  0  0  0  0  0
  -29.6673  -13.4664   17.7636 H   0  0  0  0  0  0
  -27.8314  -11.2999   18.8378 H   0  0  0  0  0  0
  -27.3669  -12.6116   17.7890 H   0  0  0  0  0  0
  -27.6890  -14.2531   19.5490 H   0  0  0  0  0  0
  -28.6723  -12.0103   21.3820 H   0  0  0  0  0  0
  -28.4673  -13.6738   21.8486 H   0  0  0  0  0  0
  -25.2755   -9.5695   22.4753 H   0  0  0  0  0  0
  -24.0001   -7.4642   22.7471 H   0  0  0  0  0  0
  -21.0840   -8.8766   19.8946 H   0  0  0  0  0  0
  -22.3689  -10.9669   19.6158 H   0  0  0  0  0  0
  -21.2001   -7.6142   23.9714 H   0  0  0  0  0  0
  -21.1481   -6.0517   25.9076 H   0  0  0  0  0  0
  -22.0600   -2.7606   23.2841 H   0  0  0  0  0  0
  -22.4098  -11.9883   22.4778 H   0  0  0  0  0  0
  -21.1110  -13.1254   22.2595 H   0  0  0  0  0  0
  -24.6618  -15.8428   20.5104 H   0  0  0  0  0  0
  -26.2760  -15.6237   20.0607 H   0  0  0  0  0  0
  -26.7118  -32.5530   23.1160 H   0  0  0  0  0  0
  -25.0106  -33.9776   25.0513 H   0  0  0  0  0  0
  -22.6918  -31.3061   21.4088 H   0  0  0  0  0  0
  -23.3742  -35.9645   23.3308 H   0  0  0  0  0  0
  -24.3581  -36.8913   22.2054 H   0  0  0  0  0  0
  -23.7238  -37.6517   23.6647 H   0  0  0  0  0  0
  -26.0399  -31.5934   20.5923 H   0  0  0  0  0  0
  -26.8202  -30.8889   21.9806 H   0  0  0  0  0  0
  -28.1004  -29.0936   21.1799 H   0  0  0  0  0  0
  -26.0742  -25.9648   19.0179 H   0  0  0  0  0  0
  -23.9836  -27.2879   19.0349 H   0  0  0  0  0  0
  -23.7205  -30.5919   19.4036 H   0  0  0  0  0  0
  -22.7378  -29.2373   19.8696 H   0  0  0  0  0  0
  -25.1281  -36.1970   25.0836 H   0  0  0  0  0  0
  -20.9935  -28.3234   24.1443 H   0  0  0  0  0  0
  -20.5670  -26.2273   23.3606 H   0  0  0  0  0  0
  -21.6633  -26.7462   22.1204 H   0  0  0  0  0  0
  -19.6908  -25.6301   21.1236 H   0  0  0  0  0  0
  -19.6696  -27.3204   20.6749 H   0  0  0  0  0  0
  -17.4197  -26.6690   21.4003 H   0  0  0  0  0  0
  -18.0305  -26.0063   22.8994 H   0  0  0  0  0  0
  -19.7927  -30.7260   24.2276 H   0  0  0  0  0  0
  -17.5011  -31.6274   24.5162 H   0  0  0  0  0  0
  -15.5342  -30.3000   23.7667 H   0  0  0  0  0  0
  -15.8648  -28.0840   22.7061 H   0  0  0  0  0  0
  -24.5961  -30.6985   25.7812 H   0  0  0  0  0  0
  -24.8918  -32.2817   26.4907 H   0  0  0  0  0  0
  -25.8129  -30.8867   27.0227 H   0  0  0  0  0  0
  -26.2874  -29.6767   24.1175 H   0  0  0  0  0  0
  -27.4138  -29.7287   25.4547 H   0  0  0  0  0  0
  -27.8689  -30.4351   23.9216 H   0  0  0  0  0  0
  -27.2686  -33.3605   26.2065 H   0  0  0  0  0  0
  -28.3869  -32.6859   25.0302 H   0  0  0  0  0  0
  -28.0731  -31.8419   26.5384 H   0  0  0  0  0  0
  -28.2600  -38.0102   24.7505 H   0  0  0  0  0  0
  -28.1068  -36.2632   24.6303 H   0  0  0  0  0  0
  -27.2296  -37.1468   25.8871 H   0  0  0  0  0  0
  -20.9293  -29.8749   21.6942 H   0  0  0  0  0  0
  -26.0178  -38.2870   24.1403 H   0  0  0  0  0  0
  -31.9280  -18.8602   18.2295 H   0  0  0  0  0  0
  -30.9715  -20.6931   19.5634 H   0  0  0  0  0  0
  -31.4554  -16.5398   18.7734 H   0  0  0  0  0  0
  -27.0090  -18.6835   16.9612 H   0  0  0  0  0  0
  -27.5741  -20.2739   16.2108 H   0  0  0  0  0  0
  -28.3213  -22.1289   17.6846 H   0  0  0  0  0  0
  -27.4147  -19.5174   19.1627 H   0  0  0  0  0  0
  -28.9585  -24.0024   19.0269 H   0  0  0  0  0  0
  -29.9202  -23.4484   20.3671 H   0  0  0  0  0  0
  -28.8288  -23.4590   22.7680 H   0  0  0  0  0  0
  -27.1913  -24.0337   22.9361 H   0  0  0  0  0  0
  -26.3153  -22.1645   21.5910 H   0  0  0  0  0  0
  -27.2065  -21.5484   22.9483 H   0  0  0  0  0  0
  -27.0069  -24.3818   20.5062 H   0  0  0  0  0  0
  -27.8166  -18.4165   22.4707 H   0  0  0  0  0  0
  -29.1896  -17.7171   23.3386 H   0  0  0  0  0  0
  -28.1737  -16.7243   22.2959 H   0  0  0  0  0  0
  -30.1214  -21.3467   21.7963 H   0  0  0  0  0  0
  -29.0730  -20.3119   22.6907 H   0  0  0  0  0  0
  -29.5715  -25.7243   21.4700 H   0  0  0  0  0  0
  -28.0103  -26.1749   22.0753 H   0  0  0  0  0  0
  -29.0626  -15.3764   21.2789 H   0  0  0  0  0  0
  -27.5444  -20.5338   20.8052 H   0  0  0  0  0  0
  1 25  1  0  0  0
  1 30  2  0  0  0
  1 88  1  0  0  0
  2  3  1  0  0  0
  2 25  1  0  0  0
  2 90  1  0  0  0
  2 91  1  0  0  0
  3  4  1  0  0  0
  3 92  1  0  0  0
  3 93  1  0  0  0
  4  5  1  0  0  0
  4 94  1  0  0  0
  4 95  1  0  0  0
  5  6  1  0  0  0
  5 26  1  0  0  0
  5 96  1  0  0  0
  6 25  1  0  0  0
  6 97  1  0  0  0
  6 98  1  0  0  0
  7  8  2  0  0  0
  7 26  1  0  0  0
  7 29  1  0  0  0
  8  9  1  0  0  0
  8 22  1  0  0  0
  9 10  1  0  0  0
  9 27  2  0  0  0
 10 11  2  0  0  0
 10 15  1  0  0  0
 11 12  1  0  0  0
 11 99  1  0  0  0
 12 13  2  0  0  0
 12100  1  0  0  0
 13 14  1  0  0  0
 13 31  1  0  0  0
 14 15  2  0  0  0
 14101  1  0  0  0
 15102  1  0  0  0
 16 17  2  0  0  0
 16 21  1  0  0  0
 16 31  1  0  0  0
 17 18  1  0  0  0
 17103  1  0  0  0
 18 19  2  0  0  0
 18104  1  0  0  0
 19 20  1  0  0  0
 19 24  1  0  0  0
 20 21  2  0  0  0
 20105  1  0  0  0
 21 23  1  0  0  0
 22 28  1  0  0  0
 22 32  2  0  0  0
 26 27  1  0  0  0
 28106  1  0  0  0
 28107  1  0  0  0
 29108  1  0  0  0
 29109  1  0  0  0
 33 34  1  0  0  0
 33 66  1  0  0  0
 33 70  2  0  0  0
 34 36  1  0  0  0
 34 59  1  0  0  0
 34110  1  0  0  0
 35 44  2  0  0  0
 35 45  1  0  0  0
 35 68  1  0  0  0
 36 56  1  0  0  0
 36111  1  0  0  0
 37 39  1  0  0  0
 37 47  1  0  0  0
 37 66  1  0  0  0
 37112  1  0  0  0
 38 43  2  0  0  0
 38 46  1  0  0  0
 38 47  1  0  0  0
 39 64  1  0  0  0
 39 67  2  0  0  0
 40 52  1  0  0  0
 40 53  2  0  0  0
 40 58  1  0  0  0
 41113  1  0  0  0
 41114  1  0  0  0
 41115  1  0  0  0
 41 48  1  0  0  0
 42 43  1  0  0  0
 42 66  1  0  0  0
 42116  1  0  0  0
 42117  1  0  0  0
 43 44  1  0  0  0
 44118  1  0  0  0
 45 46  2  0  0  0
 45119  1  0  0  0
 46120  1  0  0  0
 47121  1  0  0  0
 47122  1  0  0  0
 48 56  1  0  0  0
 48 65  1  0  0  0
 48123  1  0  0  0
 49 50  1  0  0  0
 49 53  1  0  0  0
 49 64  1  0  0  0
 49124  1  0  0  0
 50 51  1  0  0  0
 50125  1  0  0  0
 50126  1  0  0  0
 51 52  1  0  0  0
 51127  1  0  0  0
 51128  1  0  0  0
 52129  1  0  0  0
 52130  1  0  0  0
 53 54  1  0  0  0
 54 55  2  0  0  0
 54131  1  0  0  0
 55 57  1  0  0  0
 55132  1  0  0  0
 56 69  2  0  0  0
 57 58  2  0  0  0
 57133  1  0  0  0
 58134  1  0  0  0
 59 60  1  0  0  0
 59 61  1  0  0  0
 59 62  1  0  0  0
 60135  1  0  0  0
 60136  1  0  0  0
 60137  1  0  0  0
 61138  1  0  0  0
 61139  1  0  0  0
 61140  1  0  0  0
 62141  1  0  0  0
 62142  1  0  0  0
 62143  1  0  0  0
 63 65  1  0  0  0
 63144  1  0  0  0
 63145  1  0  0  0
 63146  1  0  0  0
 64147  1  0  0  0
 65148  1  0  0  0
 68 87  1  0  0  0
 71 72  2  0  0  0
 71 73  1  0  0  0
 71149  1  0  0  0
 72 74  1  0  0  0
 72150  1  0  0  0
 73 76  2  0  0  0
 73151  1  0  0  0
 74 75  2  0  0  0
 74 86  1  0  0  0
 75 76  1  0  0  0
 75 85  1  0  0  0
 76 88  1  0  0  0
 77 79  2  0  0  0
 77 81  1  0  0  0
 77 89  1  0  0  0
 78 80  2  0  0  0
 78152  1  0  0  0
 78153  1  0  0  0
 79 80  1  0  0  0
 79154  1  0  0  0
 80155  1  0  0  0
 81 84  1  0  0  0
 81156  1  0  0  0
 81157  1  0  0  0
 82 83  1  0  0  0
 82 84  1  0  0  0
 82158  1  0  0  0
 82159  1  0  0  0
 83 89  1  0  0  0
 83160  1  0  0  0
 83161  1  0  0  0
 84 87  1  0  0  0
 84162  1  0  0  0
 85163  1  0  0  0
 85164  1  0  0  0
 85165  1  0  0  0
 86166  1  0  0  0
 86167  1  0  0  0
 86 89  1  0  0  0
 87168  1  0  0  0
 87169  1  0  0  0
 88170  1  0  0  0
 89171  1  0  0  0
M  CHG  1  89   1
M  ISO  4   1 100  68 101  87 101  88 100
M  END
> <chiral flag>
0

> <version>
0

> <s_m_source_file>
/data/baiqing/PycharmProjects/Reinvent-master-3.2/result/LINK_invent/BTK/process_docking_weight1_custom_product_contain_oxygen_bond_distance_aromatic_linkinvent_7_9_3/rearranged_h_0059.sdf

> <i_m_source_file_index>
48

> <r_mmod_Potential_Energy-OPLS-2005>
-126.759780883789

> <r_mmod_Stretch_Energy-OPLS-2005>
47.179027557373

> <r_mmod_Bend_Energy-OPLS-2005>
109.962577819824

> <r_mmod_Torsional_Energy-OPLS-2005>
257.065582275391

> <r_mmod_Improper_Torsional_Energy-OPLS-2005>
4.29723119735718

> <r_mmod_Van_der_Waal_Energy-OPLS-2005>
148.283157348633

> <r_mmod_Electrostatic_Energy-OPLS-2005>
-272.719970703125

> <r_mmod_Solvation_Energy-OPLS-2005>
-438.713043212891

> <b_mmod_Minimization_Converged-OPLS-2005>
0

> <r_mmod_RMS_Derivative-OPLS-2005>
0.887536644935608

$$$$
48
                    3D
 Structure written by MMmdl.
157165  0  0  1  0            999 V2000
  -30.7439  -14.4695   20.5906 C   0  0  0  0  0  0
  -30.4166  -12.3080   19.4328 C   0  0  0  0  0  0
  -29.4953  -12.4990   18.2132 C   0  0  0  0  0  0
  -28.0166  -12.3637   18.6186 C   0  0  0  0  0  0
  -27.6603  -13.2109   19.8703 C   0  0  2  0  0  0
  -28.7030  -13.0190   20.9939 C   0  0  0  0  0  0
  -25.2564  -13.8175   20.5722 C   0  0  0  0  0  0
  -24.1829  -13.0435   20.9217 C   0  0  0  0  0  0
  -24.6366  -11.6914   20.8727 C   0  0  0  0  0  0
  -23.9015  -10.4295   21.0382 C   0  0  0  0  0  0
  -24.3562   -9.4207   21.9158 C   0  0  0  0  0  0
  -23.6246   -8.2231   22.0723 C   0  0  0  0  0  0
  -22.4238   -8.0240   21.3511 C   0  0  0  0  0  0
  -21.9865   -9.0226   20.4633 C   0  0  0  0  0  0
  -22.7183  -10.2114   20.3040 C   0  0  0  0  0  0
  -21.6854   -6.0683   22.5282 C   0  0  0  0  0  0
  -21.4023   -6.5583   23.8217 C   0  0  0  0  0  0
  -21.3689   -5.6745   24.9187 C   0  0  0  0  0  0
  -21.6043   -4.3000   24.7236 C   0  0  0  0  0  0
  -21.8824   -3.8085   23.4360 C   0  0  0  0  0  0
  -21.9199   -4.6907   22.3408 C   0  0  0  0  0  0
  -22.7838  -13.5221   21.1864 C   0  0  0  0  0  0
  -22.1667   -4.2088   21.0986 F   0  0  0  0  0  0
  -21.5647   -3.4485   25.7750 F   0  0  0  0  0  0
  -30.0378  -13.3110   20.4435 N   0  0  0  0  0  0
  -26.3012  -12.9366   20.3357 N   0  0  0  0  0  0
  -25.9293  -11.6520   20.5721 N   0  0  0  0  0  0
  -22.0422  -12.8293   22.0441 N   0  0  0  0  0  0
  -25.4234  -15.1889   20.4198 N   0  0  0  0  0  0
  -31.8677  -14.6236   20.1067 O   0  0  0  0  0  0
  -21.6616   -6.8816   21.4229 O   0  0  0  0  0  0
  -22.3530  -14.5493   20.6650 O   0  0  0  0  0  0
  -24.6169  -31.8648   23.2083 C   0  0  0  0  0  0
  -25.9044  -32.4822   23.8412 C   0  0  1  0  0  0
  -27.2423  -27.4275   20.0947 C   0  0  0  0  0  0
  -25.5889  -33.8640   24.2337 N   0  0  0  0  0  0
  -23.4093  -30.4875   21.5452 C   0  0  2  0  0  0
  -24.8600  -28.9591   20.1100 C   0  0  0  0  0  0
  -22.7452  -29.4631   22.4942 C   0  0  0  0  0  0
  -18.0316  -28.1411   22.8529 C   0  0  0  0  0  0
  -24.1489  -36.7317   23.2637 C   0  0  0  0  0  0
  -25.9405  -30.8312   21.3634 C   0  0  0  0  0  0
  -26.0225  -29.4669   20.7071 C   0  0  0  0  0  0
  -27.2204  -28.7107   20.6957 C   0  0  0  0  0  0
  -26.0682  -26.9516   19.4685 C   0  0  0  0  0  0
  -24.8764  -27.7033   19.4827 C   0  0  0  0  0  0
  -23.6197  -29.8218   20.1606 C   0  0  0  0  0  0
  -25.4109  -36.3118   24.0334 C   0  0  1  0  0  0
  -20.5887  -28.3689   23.1334 C   0  0  2  0  0  0
  -20.6768  -26.9426   22.5443 C   0  0  0  0  0  0
  -19.5749  -26.6421   21.5224 C   0  0  0  0  0  0
  -18.1937  -26.7977   22.1616 C   0  0  0  0  0  0
  -19.1551  -28.8861   23.2941 C   0  0  0  0  0  0
  -18.9470  -30.1470   23.8921 C   0  0  0  0  0  0
  -17.6465  -30.6607   24.0615 C   0  0  0  0  0  0
  -25.9023  -34.9487   23.5127 C   0  0  0  0  0  0
  -16.5372  -29.9105   23.6355 C   0  0  0  0  0  0
  -16.7283  -28.6545   23.0349 C   0  0  0  0  0  0
  -26.4470  -31.6608   25.0738 C   0  0  0  0  0  0
  -25.3756  -31.3717   26.1482 C   0  0  0  0  0  0
  -27.0284  -30.3055   24.6107 C   0  0  0  0  0  0
  -27.6064  -32.4335   25.7487 C   0  0  0  0  0  0
  -27.5586  -37.1805   24.8458 C   0  0  0  0  0  0
  -21.4175  -29.3032   22.3729 N   0  0  0  0  0  0
  -26.4296  -37.3802   23.9415 N   0  0  0  0  0  0
  -24.6737  -31.0761   22.0967 N   0  0  0  0  0  0
  -23.4234  -28.8153   23.2978 O   0  0  0  0  0  0
  -28.3793  -26.6391   20.1220 O   0  0  0  0  0  0
  -26.5589  -34.8916   22.4691 O   0  0  0  0  0  0
  -23.5352  -32.1387   23.7438 O   0  0  0  0  0  0
  -31.3247  -19.5524   21.6955 C   0  0  0  0  0  0
  -31.8275  -17.1707   21.7366 C   0  0  0  0  0  0
  -29.9972  -19.2954   21.2766 C   0  0  0  0  0  0
  -29.6018  -17.9333   21.0362 C   0  0  0  0  0  0
  -30.5164  -16.8644   21.2921 C   0  0  0  0  0  0
  -32.2347  -18.5033   21.9102 C   0  0  0  0  0  0
  -29.0187  -20.4584   21.2456 C   0  0  0  0  0  0
  -28.2083  -17.5997   20.4870 C   0  0  0  0  0  0
  -29.1713  -24.2181   20.4451 C   0  0  0  0  0  0
  -28.6623  -22.8959   21.0836 C   0  0  0  0  0  0
  -28.1873  -25.3735   20.7895 C   0  0  0  0  0  0
  -30.0889  -15.4935   21.1824 N   0  0  0  0  0  0
  -29.4641  -21.6754   20.8596 N   0  0  0  0  0  0
  -27.8535  -20.2933   21.6188 O   0  0  0  0  0  0
  -33.5020  -18.7795   22.3128 F   0  0  0  0  0  0
  -31.4614  -12.3913   19.1275 H   0  0  0  0  0  0
  -30.3026  -11.3036   19.8437 H   0  0  0  0  0  0
  -29.7345  -11.7680   17.4406 H   0  0  0  0  0  0
  -29.6671  -13.4840   17.7752 H   0  0  0  0  0  0
  -27.8175  -11.3068   18.8076 H   0  0  0  0  0  0
  -27.3708  -12.6447   17.7878 H   0  0  0  0  0  0
  -27.6949  -14.2565   19.5666 H   0  0  0  0  0  0
  -28.6775  -11.9906   21.3577 H   0  0  0  0  0  0
  -28.4558  -13.6430   21.8556 H   0  0  0  0  0  0
  -25.2700   -9.5691   22.4740 H   0  0  0  0  0  0
  -23.9956   -7.4615   22.7438 H   0  0  0  0  0  0
  -21.0798   -8.8736   19.8939 H   0  0  0  0  0  0
  -22.3606  -10.9645   19.6158 H   0  0  0  0  0  0
  -21.1995   -7.6082   23.9705 H   0  0  0  0  0  0
  -21.1542   -6.0466   25.9093 H   0  0  0  0  0  0
  -22.0584   -2.7531   23.2889 H   0  0  0  0  0  0
  -22.3972  -12.0006   22.4985 H   0  0  0  0  0  0
  -21.1006  -13.1348   22.2496 H   0  0  0  0  0  0
  -24.6436  -15.8304   20.5238 H   0  0  0  0  0  0
  -26.2670  -15.6416   20.0942 H   0  0  0  0  0  0
  -26.7136  -32.5542   23.1200 H   0  0  0  0  0  0
  -25.0104  -33.9840   25.0525 H   0  0  0  0  0  0
  -22.6978  -31.3033   21.4051 H   0  0  0  0  0  0
  -23.3752  -35.9647   23.3297 H   0  0  0  0  0  0
  -24.3574  -36.8923   22.2048 H   0  0  0  0  0  0
  -23.7228  -37.6521   23.6640 H   0  0  0  0  0  0
  -26.0542  -31.5985   20.5966 H   0  0  0  0  0  0
  -26.8299  -30.8871   21.9760 H   0  0  0  0  0  0
  -28.1156  -29.0995   21.1620 H   0  0  0  0  0  0
  -26.0643  -25.9958   18.9643 H   0  0  0  0  0  0
  -23.9863  -27.3153   19.0068 H   0  0  0  0  0  0
  -23.7290  -30.5961   19.4019 H   0  0  0  0  0  0
  -22.7475  -29.2319   19.8706 H   0  0  0  0  0  0
  -25.1299  -36.1988   25.0826 H   0  0  0  0  0  0
  -21.0041  -28.3254   24.1437 H   0  0  0  0  0  0
  -20.5669  -26.2283   23.3614 H   0  0  0  0  0  0
  -21.6650  -26.7469   22.1243 H   0  0  0  0  0  0
  -19.6896  -25.6343   21.1227 H   0  0  0  0  0  0
  -19.6674  -27.3247   20.6786 H   0  0  0  0  0  0
  -17.4233  -26.6809   21.3992 H   0  0  0  0  0  0
  -18.0260  -26.0096   22.8964 H   0  0  0  0  0  0
  -19.7938  -30.7336   24.2235 H   0  0  0  0  0  0
  -17.5003  -31.6265   24.5247 H   0  0  0  0  0  0
  -15.5351  -30.3011   23.7628 H   0  0  0  0  0  0
  -15.8694  -28.0882   22.6984 H   0  0  0  0  0  0
  -24.5938  -30.7050   25.7829 H   0  0  0  0  0  0
  -24.8943  -32.2877   26.4930 H   0  0  0  0  0  0
  -25.8109  -30.8896   27.0253 H   0  0  0  0  0  0
  -26.2807  -29.6823   24.1174 H   0  0  0  0  0  0
  -27.4075  -29.7263   25.4556 H   0  0  0  0  0  0
  -27.8665  -30.4377   23.9248 H   0  0  0  0  0  0
  -27.2689  -33.3632   26.2096 H   0  0  0  0  0  0
  -28.3839  -32.6906   25.0281 H   0  0  0  0  0  0
  -28.0784  -31.8457   26.5358 H   0  0  0  0  0  0
  -28.2616  -38.0096   24.7534 H   0  0  0  0  0  0
  -28.1068  -36.2632   24.6265 H   0  0  0  0  0  0
  -27.2308  -37.1461   25.8861 H   0  0  0  0  0  0
  -20.9284  -29.8772   21.7010 H   0  0  0  0  0  0
  -26.0172  -38.2879   24.1422 H   0  0  0  0  0  0
  -31.6572  -20.5622   21.8931 H   0  0  0  0  0  0
  -32.5400  -16.3861   21.9586 H   0  0  0  0  0  0
  -27.4742  -17.5429   21.2937 H   0  0  0  0  0  0
  -28.1886  -16.6581   19.9416 H   0  0  0  0  0  0
  -27.8668  -18.3465   19.7678 H   0  0  0  0  0  0
  -29.2313  -24.0891   19.3653 H   0  0  0  0  0  0
  -30.1744  -24.4554   20.7954 H   0  0  0  0  0  0
  -27.6591  -22.7129   20.6974 H   0  0  0  0  0  0
  -28.5560  -23.0374   22.1631 H   0  0  0  0  0  0
  -28.2334  -25.5674   21.8618 H   0  0  0  0  0  0
  -27.1861  -24.9860   20.6081 H   0  0  0  0  0  0
  -29.1376  -15.2979   21.4430 H   0  0  0  0  0  0
  -30.4148  -21.7607   20.5206 H   0  0  0  0  0  0
  1 25  1  0  0  0
  1 30  2  0  0  0
  1 82  1  0  0  0
  2  3  1  0  0  0
  2 25  1  0  0  0
  2 86  1  0  0  0
  2 87  1  0  0  0
  3  4  1  0  0  0
  3 88  1  0  0  0
  3 89  1  0  0  0
  4  5  1  0  0  0
  4 90  1  0  0  0
  4 91  1  0  0  0
  5  6  1  0  0  0
  5 26  1  0  0  0
  5 92  1  0  0  0
  6 25  1  0  0  0
  6 93  1  0  0  0
  6 94  1  0  0  0
  7  8  2  0  0  0
  7 26  1  0  0  0
  7 29  1  0  0  0
  8  9  1  0  0  0
  8 22  1  0  0  0
  9 10  1  0  0  0
  9 27  2  0  0  0
 10 11  2  0  0  0
 10 15  1  0  0  0
 11 12  1  0  0  0
 11 95  1  0  0  0
 12 13  2  0  0  0
 12 96  1  0  0  0
 13 14  1  0  0  0
 13 31  1  0  0  0
 14 15  2  0  0  0
 14 97  1  0  0  0
 15 98  1  0  0  0
 16 17  2  0  0  0
 16 21  1  0  0  0
 16 31  1  0  0  0
 17 18  1  0  0  0
 17 99  1  0  0  0
 18 19  2  0  0  0
 18100  1  0  0  0
 19 20  1  0  0  0
 19 24  1  0  0  0
 20 21  2  0  0  0
 20101  1  0  0  0
 21 23  1  0  0  0
 22 28  1  0  0  0
 22 32  2  0  0  0
 26 27  1  0  0  0
 28102  1  0  0  0
 28103  1  0  0  0
 29104  1  0  0  0
 29105  1  0  0  0
 33 34  1  0  0  0
 33 66  1  0  0  0
 33 70  2  0  0  0
 34 36  1  0  0  0
 34 59  1  0  0  0
 34106  1  0  0  0
 35 44  2  0  0  0
 35 45  1  0  0  0
 35 68  1  0  0  0
 36 56  1  0  0  0
 36107  1  0  0  0
 37 39  1  0  0  0
 37 47  1  0  0  0
 37 66  1  0  0  0
 37108  1  0  0  0
 38 43  2  0  0  0
 38 46  1  0  0  0
 38 47  1  0  0  0
 39 64  1  0  0  0
 39 67  2  0  0  0
 40 52  1  0  0  0
 40 53  2  0  0  0
 40 58  1  0  0  0
 41109  1  0  0  0
 41110  1  0  0  0
 41111  1  0  0  0
 41 48  1  0  0  0
 42 43  1  0  0  0
 42 66  1  0  0  0
 42112  1  0  0  0
 42113  1  0  0  0
 43 44  1  0  0  0
 44114  1  0  0  0
 45 46  2  0  0  0
 45115  1  0  0  0
 46116  1  0  0  0
 47117  1  0  0  0
 47118  1  0  0  0
 48 56  1  0  0  0
 48 65  1  0  0  0
 48119  1  0  0  0
 49 50  1  0  0  0
 49 53  1  0  0  0
 49 64  1  0  0  0
 49120  1  0  0  0
 50 51  1  0  0  0
 50121  1  0  0  0
 50122  1  0  0  0
 51 52  1  0  0  0
 51123  1  0  0  0
 51124  1  0  0  0
 52125  1  0  0  0
 52126  1  0  0  0
 53 54  1  0  0  0
 54 55  2  0  0  0
 54127  1  0  0  0
 55 57  1  0  0  0
 55128  1  0  0  0
 56 69  2  0  0  0
 57 58  2  0  0  0
 57129  1  0  0  0
 58130  1  0  0  0
 59 60  1  0  0  0
 59 61  1  0  0  0
 59 62  1  0  0  0
 60131  1  0  0  0
 60132  1  0  0  0
 60133  1  0  0  0
 61134  1  0  0  0
 61135  1  0  0  0
 61136  1  0  0  0
 62137  1  0  0  0
 62138  1  0  0  0
 62139  1  0  0  0
 63 65  1  0  0  0
 63140  1  0  0  0
 63141  1  0  0  0
 63142  1  0  0  0
 64143  1  0  0  0
 65144  1  0  0  0
 68 81  1  0  0  0
 71 73  2  0  0  0
 71 76  1  0  0  0
 71145  1  0  0  0
 72 75  1  0  0  0
 72 76  2  0  0  0
 72146  1  0  0  0
 73 74  1  0  0  0
 73 77  1  0  0  0
 74 75  2  0  0  0
 74 78  1  0  0  0
 75 82  1  0  0  0
 76 85  1  0  0  0
 77 83  1  0  0  0
 77 84  2  0  0  0
 78147  1  0  0  0
 78148  1  0  0  0
 78149  1  0  0  0
 79 80  1  0  0  0
 79 81  1  0  0  0
 79150  1  0  0  0
 79151  1  0  0  0
 80 83  1  0  0  0
 80152  1  0  0  0
 80153  1  0  0  0
 81154  1  0  0  0
 81155  1  0  0  0
 82156  1  0  0  0
 83157  1  0  0  0
M  ISO  4   1 100  68 101  81 101  82 100
M  END
> <chiral flag>
0

> <version>
0

> <s_m_source_file>
/data/baiqing/PycharmProjects/Reinvent-master-3.2/result/LINK_invent/BTK/process_docking_weight1_custom_product_contain_oxygen_bond_distance_aromatic_linkinvent_7_9_3/rearranged_h_0059.sdf

> <i_m_source_file_index>
49

> <r_mmod_Potential_Energy-OPLS-2005>
-89.7074203491211

> <r_mmod_Stretch_Energy-OPLS-2005>
47.0000648498535

> <r_mmod_Bend_Energy-OPLS-2005>
100.890739440918

> <r_mmod_Torsional_Energy-OPLS-2005>
251.864074707031

> <r_mmod_Improper_Torsional_Energy-OPLS-2005>
4.1743745803833

> <r_mmod_Van_der_Waal_Energy-OPLS-2005>
160.852066040039

> <r_mmod_Electrostatic_Energy-OPLS-2005>
-446.67626953125

> <r_mmod_Solvation_Energy-OPLS-2005>
-223.385070800781

> <b_mmod_Minimization_Converged-OPLS-2005>
0

> <r_mmod_RMS_Derivative-OPLS-2005>
5.47445106506348

$$$$
49
                    3D
 Structure written by MMmdl.
160168  0  0  1  0            999 V2000
  -30.7100  -14.4293   20.6763 C   0  0  0  0  0  0
  -30.4333  -12.3186   19.4035 C   0  0  0  0  0  0
  -29.4970  -12.5502   18.1997 C   0  0  0  0  0  0
  -28.0181  -12.3988   18.6096 C   0  0  0  0  0  0
  -27.6716  -13.2038   19.8894 C   0  0  2  0  0  0
  -28.7092  -12.9278   20.9987 C   0  0  0  0  0  0
  -25.2616  -13.8149   20.5678 C   0  0  0  0  0  0
  -24.1852  -13.0428   20.9137 C   0  0  0  0  0  0
  -24.6394  -11.6892   20.8688 C   0  0  0  0  0  0
  -23.9057  -10.4285   21.0371 C   0  0  0  0  0  0
  -24.3611   -9.4207   21.9163 C   0  0  0  0  0  0
  -23.6289   -8.2245   22.0751 C   0  0  0  0  0  0
  -22.4268   -8.0277   21.3540 C   0  0  0  0  0  0
  -21.9896   -9.0245   20.4637 C   0  0  0  0  0  0
  -22.7225  -10.2125   20.3031 C   0  0  0  0  0  0
  -21.6863   -6.0726   22.5274 C   0  0  0  0  0  0
  -21.4028   -6.5634   23.8202 C   0  0  0  0  0  0
  -21.3658   -5.6785   24.9167 C   0  0  0  0  0  0
  -21.6042   -4.3047   24.7216 C   0  0  0  0  0  0
  -21.8824   -3.8137   23.4337 C   0  0  0  0  0  0
  -21.9198   -4.6956   22.3393 C   0  0  0  0  0  0
  -22.7884  -13.5231   21.1824 C   0  0  0  0  0  0
  -22.1667   -4.2139   21.0974 F   0  0  0  0  0  0
  -21.5620   -3.4532   25.7733 F   0  0  0  0  0  0
  -30.0520  -13.2530   20.4749 N   0  0  0  0  0  0
  -26.3072  -12.9320   20.3407 N   0  0  0  0  0  0
  -25.9328  -11.6472   20.5743 N   0  0  0  0  0  0
  -22.0530  -12.8213   22.0379 N   0  0  0  0  0  0
  -25.4340  -15.1861   20.4138 N   0  0  0  0  0  0
  -31.7365  -14.7427   20.0646 O   0  0  0  0  0  0
  -21.6644   -6.8868   21.4234 O   0  0  0  0  0  0
  -22.3556  -14.5530   20.6673 O   0  0  0  0  0  0
  -24.6122  -31.8680   23.2092 C   0  0  0  0  0  0
  -25.9032  -32.4815   23.8389 C   0  0  1  0  0  0
  -27.2491  -27.4421   20.0902 C   0  0  0  0  0  0
  -25.5897  -33.8619   24.2323 N   0  0  0  0  0  0
  -23.4012  -30.4894   21.5457 C   0  0  2  0  0  0
  -24.8496  -28.9536   20.1106 C   0  0  0  0  0  0
  -22.7414  -29.4654   22.4958 C   0  0  0  0  0  0
  -18.0276  -28.1381   22.8474 C   0  0  0  0  0  0
  -24.1489  -36.7319   23.2640 C   0  0  0  0  0  0
  -25.9295  -30.8314   21.3664 C   0  0  0  0  0  0
  -26.0036  -29.4653   20.7136 C   0  0  0  0  0  0
  -27.1977  -28.7130   20.7061 C   0  0  0  0  0  0
  -26.0709  -26.9320   19.4965 C   0  0  0  0  0  0
  -24.8786  -27.6841   19.5023 C   0  0  0  0  0  0
  -23.6094  -29.8181   20.1598 C   0  0  0  0  0  0
  -25.4115  -36.3109   24.0331 C   0  0  1  0  0  0
  -20.5864  -28.3682   23.1294 C   0  0  2  0  0  0
  -20.6773  -26.9406   22.5418 C   0  0  0  0  0  0
  -19.5746  -26.6382   21.5222 C   0  0  0  0  0  0
  -18.1926  -26.7922   22.1621 C   0  0  0  0  0  0
  -19.1521  -28.8848   23.2881 C   0  0  0  0  0  0
  -18.9452  -30.1455   23.8891 C   0  0  0  0  0  0
  -17.6449  -30.6581   24.0568 C   0  0  0  0  0  0
  -25.9038  -34.9476   23.5123 C   0  0  0  0  0  0
  -16.5343  -29.9091   23.6315 C   0  0  0  0  0  0
  -16.7264  -28.6509   23.0332 C   0  0  0  0  0  0
  -26.4469  -31.6587   25.0717 C   0  0  0  0  0  0
  -25.3752  -31.3678   26.1472 C   0  0  0  0  0  0
  -27.0315  -30.3022   24.6119 C   0  0  0  0  0  0
  -27.6036  -32.4323   25.7494 C   0  0  0  0  0  0
  -27.5583  -37.1820   24.8466 C   0  0  0  0  0  0
  -21.4141  -29.3050   22.3708 N   0  0  0  0  0  0
  -26.4302  -37.3800   23.9400 N   0  0  0  0  0  0
  -24.6645  -31.0805   22.0969 N   0  0  0  0  0  0
  -23.4197  -28.8193   23.2990 O   0  0  0  0  0  0
  -28.4472  -26.7565   20.1292 O   0  0  0  0  0  0
  -26.5612  -34.8921   22.4694 O   0  0  0  0  0  0
  -23.5313  -32.1431   23.7475 O   0  0  0  0  0  0
  -28.8107  -18.3938   22.9355 C   0  0  0  0  0  0
  -29.4888  -19.3599   22.1705 C   0  0  0  0  0  0
  -29.0752  -17.0248   22.7469 C   0  0  0  0  0  0
  -30.7043  -17.5746   21.0246 C   0  0  0  0  0  0
  -30.4442  -18.9609   21.2103 C   0  0  0  0  0  0
  -30.0162  -16.5945   21.7861 C   0  0  0  0  0  0
  -29.7187  -21.8587   19.6542 C   0  0  0  0  0  0
  -32.6937  -20.0216   20.9197 C   0  0  0  0  0  0
  -29.7816  -23.3433   19.2479 C   0  0  0  0  0  0
  -28.7497  -24.2949   19.9075 C   0  0  0  0  0  0
  -28.7327  -25.6861   19.2232 C   0  0  0  0  0  0
  -31.2466  -19.9908   20.4050 C   0  0  2  0  0  0
  -30.1788  -15.1801   21.6596 N   0  0  0  0  0  0
  -30.7502  -21.3769   20.3714 N   0  0  0  0  0  0
  -28.8066  -21.1462   19.2344 O   0  0  0  0  0  0
  -31.4759  -12.4389   19.1030 H   0  0  0  0  0  0
  -30.3471  -11.2909   19.7578 H   0  0  0  0  0  0
  -29.7371  -11.8531   17.3967 H   0  0  0  0  0  0
  -29.6625  -13.5500   17.7969 H   0  0  0  0  0  0
  -27.8188  -11.3394   18.7704 H   0  0  0  0  0  0
  -27.3698  -12.7111   17.7901 H   0  0  0  0  0  0
  -27.7333  -14.2619   19.6335 H   0  0  0  0  0  0
  -28.6808  -11.8752   21.2842 H   0  0  0  0  0  0
  -28.4408  -13.4679   21.9067 H   0  0  0  0  0  0
  -25.2761   -9.5692   22.4727 H   0  0  0  0  0  0
  -24.0001   -7.4641   22.7472 H   0  0  0  0  0  0
  -21.0824   -8.8743   19.8948 H   0  0  0  0  0  0
  -22.3668  -10.9653   19.6123 H   0  0  0  0  0  0
  -21.2035   -7.6145   23.9701 H   0  0  0  0  0  0
  -21.1478   -6.0518   25.9064 H   0  0  0  0  0  0
  -22.0607   -2.7602   23.2839 H   0  0  0  0  0  0
  -22.4169  -11.9882   22.4768 H   0  0  0  0  0  0
  -21.1146  -13.1220   22.2599 H   0  0  0  0  0  0
  -24.6706  -15.8432   20.5273 H   0  0  0  0  0  0
  -26.3004  -15.6318   20.1373 H   0  0  0  0  0  0
  -26.7094  -32.5513   23.1142 H   0  0  0  0  0  0
  -25.0078  -33.9808   25.0483 H   0  0  0  0  0  0
  -22.6861  -31.3030   21.4039 H   0  0  0  0  0  0
  -23.3747  -35.9655   23.3330 H   0  0  0  0  0  0
  -24.3582  -36.8927   22.2047 H   0  0  0  0  0  0
  -23.7249  -37.6535   23.6651 H   0  0  0  0  0  0
  -26.0482  -31.5968   20.5983 H   0  0  0  0  0  0
  -26.8148  -30.8805   21.9889 H   0  0  0  0  0  0
  -28.0889  -29.1097   21.1756 H   0  0  0  0  0  0
  -26.0534  -25.9523   19.0439 H   0  0  0  0  0  0
  -23.9906  -27.2786   19.0393 H   0  0  0  0  0  0
  -23.7090  -30.5908   19.3960 H   0  0  0  0  0  0
  -22.7375  -29.2301   19.8644 H   0  0  0  0  0  0
  -25.1289  -36.1985   25.0825 H   0  0  0  0  0  0
  -20.9956  -28.3269   24.1413 H   0  0  0  0  0  0
  -20.5700  -26.2294   23.3619 H   0  0  0  0  0  0
  -21.6649  -26.7460   22.1198 H   0  0  0  0  0  0
  -19.6917  -25.6305   21.1230 H   0  0  0  0  0  0
  -19.6689  -27.3213   20.6768 H   0  0  0  0  0  0
  -17.4204  -26.6661   21.4019 H   0  0  0  0  0  0
  -18.0324  -26.0080   22.9024 H   0  0  0  0  0  0
  -19.7937  -30.7269   24.2262 H   0  0  0  0  0  0
  -17.5010  -31.6256   24.5187 H   0  0  0  0  0  0
  -15.5344  -30.2988   23.7662 H   0  0  0  0  0  0
  -15.8660  -28.0845   22.7027 H   0  0  0  0  0  0
  -24.5895  -30.7081   25.7785 H   0  0  0  0  0  0
  -24.8986  -32.2830   26.4977 H   0  0  0  0  0  0
  -25.8096  -30.8773   27.0193 H   0  0  0  0  0  0
  -26.2855  -29.6754   24.1216 H   0  0  0  0  0  0
  -27.4081  -29.7280   25.4599 H   0  0  0  0  0  0
  -27.8699  -30.4310   23.9274 H   0  0  0  0  0  0
  -27.2626  -33.3585   26.2128 H   0  0  0  0  0  0
  -28.3806  -32.6968   25.0314 H   0  0  0  0  0  0
  -28.0757  -31.8455   26.5379 H   0  0  0  0  0  0
  -28.2622  -38.0096   24.7497 H   0  0  0  0  0  0
  -28.1063  -36.2635   24.6308 H   0  0  0  0  0  0
  -27.2311  -37.1498   25.8875 H   0  0  0  0  0  0
  -20.9308  -29.8783   21.6925 H   0  0  0  0  0  0
  -26.0190  -38.2891   24.1376 H   0  0  0  0  0  0
  -28.0853  -18.7055   23.6735 H   0  0  0  0  0  0
  -29.2734  -20.4059   22.3331 H   0  0  0  0  0  0
  -28.5357  -16.3037   23.3477 H   0  0  0  0  0  0
  -31.4426  -17.2766   20.2930 H   0  0  0  0  0  0
  -33.1478  -19.0310   20.8842 H   0  0  0  0  0  0
  -32.7418  -20.3607   21.9560 H   0  0  0  0  0  0
  -33.3160  -20.6814   20.3170 H   0  0  0  0  0  0
  -30.7902  -23.7242   19.4151 H   0  0  0  0  0  0
  -29.6398  -23.3700   18.1667 H   0  0  0  0  0  0
  -29.0121  -24.4086   20.9606 H   0  0  0  0  0  0
  -27.7493  -23.8635   19.8906 H   0  0  0  0  0  0
  -28.1076  -25.6856   18.3315 H   0  0  0  0  0  0
  -29.7382  -25.8995   18.8542 H   0  0  0  0  0  0
  -31.2651  -19.6389   19.3724 H   0  0  0  0  0  0
  -29.5291  -14.6495   22.2172 H   0  0  0  0  0  0
  -31.3990  -22.0675   20.7224 H   0  0  0  0  0  0
  1 25  1  0  0  0
  1 30  2  0  0  0
  1 83  1  0  0  0
  2  3  1  0  0  0
  2 25  1  0  0  0
  2 86  1  0  0  0
  2 87  1  0  0  0
  3  4  1  0  0  0
  3 88  1  0  0  0
  3 89  1  0  0  0
  4  5  1  0  0  0
  4 90  1  0  0  0
  4 91  1  0  0  0
  5  6  1  0  0  0
  5 26  1  0  0  0
  5 92  1  0  0  0
  6 25  1  0  0  0
  6 93  1  0  0  0
  6 94  1  0  0  0
  7  8  2  0  0  0
  7 26  1  0  0  0
  7 29  1  0  0  0
  8  9  1  0  0  0
  8 22  1  0  0  0
  9 10  1  0  0  0
  9 27  2  0  0  0
 10 11  2  0  0  0
 10 15  1  0  0  0
 11 12  1  0  0  0
 11 95  1  0  0  0
 12 13  2  0  0  0
 12 96  1  0  0  0
 13 14  1  0  0  0
 13 31  1  0  0  0
 14 15  2  0  0  0
 14 97  1  0  0  0
 15 98  1  0  0  0
 16 17  2  0  0  0
 16 21  1  0  0  0
 16 31  1  0  0  0
 17 18  1  0  0  0
 17 99  1  0  0  0
 18 19  2  0  0  0
 18100  1  0  0  0
 19 20  1  0  0  0
 19 24  1  0  0  0
 20 21  2  0  0  0
 20101  1  0  0  0
 21 23  1  0  0  0
 22 28  1  0  0  0
 22 32  2  0  0  0
 26 27  1  0  0  0
 28102  1  0  0  0
 28103  1  0  0  0
 29104  1  0  0  0
 29105  1  0  0  0
 33 34  1  0  0  0
 33 66  1  0  0  0
 33 70  2  0  0  0
 34 36  1  0  0  0
 34 59  1  0  0  0
 34106  1  0  0  0
 35 44  2  0  0  0
 35 45  1  0  0  0
 35 68  1  0  0  0
 36 56  1  0  0  0
 36107  1  0  0  0
 37 39  1  0  0  0
 37 47  1  0  0  0
 37 66  1  0  0  0
 37108  1  0  0  0
 38 43  2  0  0  0
 38 46  1  0  0  0
 38 47  1  0  0  0
 39 64  1  0  0  0
 39 67  2  0  0  0
 40 52  1  0  0  0
 40 53  2  0  0  0
 40 58  1  0  0  0
 41109  1  0  0  0
 41110  1  0  0  0
 41111  1  0  0  0
 41 48  1  0  0  0
 42 43  1  0  0  0
 42 66  1  0  0  0
 42112  1  0  0  0
 42113  1  0  0  0
 43 44  1  0  0  0
 44114  1  0  0  0
 45 46  2  0  0  0
 45115  1  0  0  0
 46116  1  0  0  0
 47117  1  0  0  0
 47118  1  0  0  0
 48 56  1  0  0  0
 48 65  1  0  0  0
 48119  1  0  0  0
 49 50  1  0  0  0
 49 53  1  0  0  0
 49 64  1  0  0  0
 49120  1  0  0  0
 50 51  1  0  0  0
 50121  1  0  0  0
 50122  1  0  0  0
 51 52  1  0  0  0
 51123  1  0  0  0
 51124  1  0  0  0
 52125  1  0  0  0
 52126  1  0  0  0
 53 54  1  0  0  0
 54 55  2  0  0  0
 54127  1  0  0  0
 55 57  1  0  0  0
 55128  1  0  0  0
 56 69  2  0  0  0
 57 58  2  0  0  0
 57129  1  0  0  0
 58130  1  0  0  0
 59 60  1  0  0  0
 59 61  1  0  0  0
 59 62  1  0  0  0
 60131  1  0  0  0
 60132  1  0  0  0
 60133  1  0  0  0
 61134  1  0  0  0
 61135  1  0  0  0
 61136  1  0  0  0
 62137  1  0  0  0
 62138  1  0  0  0
 62139  1  0  0  0
 63 65  1  0  0  0
 63140  1  0  0  0
 63141  1  0  0  0
 63142  1  0  0  0
 64143  1  0  0  0
 65144  1  0  0  0
 68 81  1  0  0  0
 71 72  2  0  0  0
 71 73  1  0  0  0
 71145  1  0  0  0
 72 75  1  0  0  0
 72146  1  0  0  0
 73 76  2  0  0  0
 73147  1  0  0  0
 74 75  2  0  0  0
 74 76  1  0  0  0
 74148  1  0  0  0
 75 82  1  0  0  0
 76 83  1  0  0  0
 77 79  1  0  0  0
 77 84  1  0  0  0
 77 85  2  0  0  0
 78149  1  0  0  0
 78150  1  0  0  0
 78151  1  0  0  0
 78 82  1  0  0  0
 79 80  1  0  0  0
 79152  1  0  0  0
 79153  1  0  0  0
 80 81  1  0  0  0
 80154  1  0  0  0
 80155  1  0  0  0
 81156  1  0  0  0
 81157  1  0  0  0
 82 84  1  0  0  0
 82158  1  0  0  0
 83159  1  0  0  0
 84160  1  0  0  0
M  ISO  4   1 100  68 101  81 101  83 100
M  END
> <chiral flag>
0

> <version>
0

> <s_m_source_file>
/data/baiqing/PycharmProjects/Reinvent-master-3.2/result/LINK_invent/BTK/process_docking_weight1_custom_product_contain_oxygen_bond_distance_aromatic_linkinvent_7_9_3/rearranged_h_0059.sdf

> <i_m_source_file_index>
50

> <r_mmod_Potential_Energy-OPLS-2005>
-163.673492431641

> <r_mmod_Stretch_Energy-OPLS-2005>
38.4886512756348

> <r_mmod_Bend_Energy-OPLS-2005>
122.074951171875

> <r_mmod_Torsional_Energy-OPLS-2005>
217.068572998047

> <r_mmod_Improper_Torsional_Energy-OPLS-2005>
5.27934455871582

> <r_mmod_Van_der_Waal_Energy-OPLS-2005>
148.326919555664

> <r_mmod_Electrostatic_Energy-OPLS-2005>
-474.734771728516

> <r_mmod_Solvation_Energy-OPLS-2005>
-231.037780761719

> <b_mmod_Minimization_Converged-OPLS-2005>
0

> <r_mmod_RMS_Derivative-OPLS-2005>
2.88274383544922

$$$$
50
                    3D
 Structure written by MMmdl.
163171  0  0  1  0            999 V2000
  -30.7097  -14.5201   20.5220 C   0  0  0  0  0  0
  -30.4159  -12.3247   19.4361 C   0  0  0  0  0  0
  -29.4900  -12.4913   18.2145 C   0  0  0  0  0  0
  -28.0133  -12.3576   18.6297 C   0  0  0  0  0  0
  -27.6550  -13.2178   19.8713 C   0  0  2  0  0  0
  -28.7027  -13.0495   20.9960 C   0  0  0  0  0  0
  -25.2529  -13.8174   20.5676 C   0  0  0  0  0  0
  -24.1816  -13.0438   20.9218 C   0  0  0  0  0  0
  -24.6396  -11.6912   20.8777 C   0  0  0  0  0  0
  -23.9066  -10.4289   21.0424 C   0  0  0  0  0  0
  -24.3617   -9.4199   21.9199 C   0  0  0  0  0  0
  -23.6294   -8.2232   22.0755 C   0  0  0  0  0  0
  -22.4279   -8.0277   21.3537 C   0  0  0  0  0  0
  -21.9916   -9.0255   20.4642 C   0  0  0  0  0  0
  -22.7241  -10.2137   20.3064 C   0  0  0  0  0  0
  -21.6854   -6.0736   22.5275 C   0  0  0  0  0  0
  -21.4011   -6.5638   23.8213 C   0  0  0  0  0  0
  -21.3660   -5.6788   24.9175 C   0  0  0  0  0  0
  -21.6044   -4.3050   24.7220 C   0  0  0  0  0  0
  -21.8823   -3.8144   23.4344 C   0  0  0  0  0  0
  -21.9192   -4.6964   22.3399 C   0  0  0  0  0  0
  -22.7829  -13.5214   21.1867 C   0  0  0  0  0  0
  -22.1663   -4.2143   21.0977 F   0  0  0  0  0  0
  -21.5631   -3.4538   25.7739 F   0  0  0  0  0  0
  -30.0258  -13.3440   20.4258 N   0  0  0  0  0  0
  -26.2996  -12.9376   20.3383 N   0  0  0  0  0  0
  -25.9330  -11.6529   20.5820 N   0  0  0  0  0  0
  -22.0477  -12.8204   22.0424 N   0  0  0  0  0  0
  -25.4189  -15.1879   20.3993 N   0  0  0  0  0  0
  -31.8649  -14.6263   20.1047 O   0  0  0  0  0  0
  -21.6639   -6.8877   21.4236 O   0  0  0  0  0  0
  -22.3518  -14.5523   20.6708 O   0  0  0  0  0  0
  -24.6173  -31.8662   23.2096 C   0  0  0  0  0  0
  -25.9061  -32.4817   23.8397 C   0  0  1  0  0  0
  -27.2276  -27.4063   20.1092 C   0  0  0  0  0  0
  -25.5910  -33.8618   24.2323 N   0  0  0  0  0  0
  -23.4064  -30.4892   21.5507 C   0  0  2  0  0  0
  -24.8553  -28.9554   20.1089 C   0  0  0  0  0  0
  -22.7438  -29.4642   22.5006 C   0  0  0  0  0  0
  -18.0278  -28.1356   22.8487 C   0  0  0  0  0  0
  -24.1491  -36.7308   23.2640 C   0  0  0  0  0  0
  -25.9386  -30.8254   21.3661 C   0  0  0  0  0  0
  -26.0187  -29.4594   20.7081 C   0  0  0  0  0  0
  -27.2123  -28.6928   20.7048 C   0  0  0  0  0  0
  -26.0534  -26.9290   19.4905 C   0  0  0  0  0  0
  -24.8697  -27.6914   19.4927 C   0  0  0  0  0  0
  -23.6155  -29.8235   20.1640 C   0  0  0  0  0  0
  -25.4106  -36.3111   24.0335 C   0  0  1  0  0  0
  -20.5866  -28.3642   23.1320 C   0  0  2  0  0  0
  -20.6766  -26.9380   22.5419 C   0  0  0  0  0  0
  -19.5753  -26.6361   21.5211 C   0  0  0  0  0  0
  -18.1924  -26.7902   22.1614 C   0  0  0  0  0  0
  -19.1524  -28.8822   23.2889 C   0  0  0  0  0  0
  -18.9456  -30.1428   23.8896 C   0  0  0  0  0  0
  -17.6466  -30.6572   24.0555 C   0  0  0  0  0  0
  -25.9030  -34.9477   23.5125 C   0  0  0  0  0  0
  -16.5359  -29.9056   23.6330 C   0  0  0  0  0  0
  -16.7270  -28.6471   23.0350 C   0  0  0  0  0  0
  -26.4470  -31.6602   25.0730 C   0  0  0  0  0  0
  -25.3718  -31.3718   26.1468 C   0  0  0  0  0  0
  -27.0311  -30.3051   24.6110 C   0  0  0  0  0  0
  -27.6051  -32.4327   25.7489 C   0  0  0  0  0  0
  -27.5581  -37.1807   24.8461 C   0  0  0  0  0  0
  -21.4166  -29.3005   22.3740 N   0  0  0  0  0  0
  -26.4294  -37.3788   23.9404 N   0  0  0  0  0  0
  -24.6721  -31.0739   22.1001 N   0  0  0  0  0  0
  -23.4208  -28.8193   23.3063 O   0  0  0  0  0  0
  -28.3372  -26.5829   20.1556 O   0  0  0  0  0  0
  -26.5614  -34.8935   22.4701 O   0  0  0  0  0  0
  -23.5354  -32.1446   23.7456 O   0  0  0  0  0  0
  -32.2012  -18.6518   21.1955 C   0  0  0  0  0  0
  -31.3336  -19.6825   20.8034 C   0  0  0  0  0  0
  -31.7470  -17.3250   21.2456 C   0  0  0  0  0  0
  -29.9807  -19.4223   20.4858 C   0  0  0  0  0  0
  -29.5160  -18.0577   20.5525 C   0  0  0  0  0  0
  -30.4179  -16.9928   20.8946 C   0  0  0  0  0  0
  -29.1235  -20.5979   20.0196 C   0  0  0  0  0  0
  -28.0594  -17.7169   20.2475 C   0  0  0  0  0  0
  -30.5201  -24.7354   20.4779 C   0  0  0  0  0  0
  -29.4597  -23.9011   22.5807 C   0  0  0  0  0  0
  -28.6067  -23.0524   20.3579 C   0  0  0  0  0  0
  -28.1826  -25.5221   21.1306 C   0  0  0  0  0  0
  -29.1849  -24.3053   21.1101 C   0  0  0  0  0  0
  -29.9967  -15.6079   20.9154 N   0  0  0  0  0  0
  -29.3553  -21.7963   20.5971 N   0  0  0  0  0  0
  -28.2535  -20.4547   19.1580 O   0  0  0  0  0  0
  -31.4595  -12.4098   19.1285 H   0  0  0  0  0  0
  -30.3164  -11.3268   19.8659 H   0  0  0  0  0  0
  -29.7309  -11.7474   17.4547 H   0  0  0  0  0  0
  -29.6556  -13.4659   17.7531 H   0  0  0  0  0  0
  -27.8246  -11.3048   18.8424 H   0  0  0  0  0  0
  -27.3620  -12.6182   17.7950 H   0  0  0  0  0  0
  -27.6837  -14.2577   19.5465 H   0  0  0  0  0  0
  -28.6874  -12.0290   21.3836 H   0  0  0  0  0  0
  -28.4722  -13.6947   21.8458 H   0  0  0  0  0  0
  -25.2765   -9.5671   22.4774 H   0  0  0  0  0  0
  -24.0000   -7.4622   22.7475 H   0  0  0  0  0  0
  -21.0849   -8.8776   19.8948 H   0  0  0  0  0  0
  -22.3705  -10.9681   19.6174 H   0  0  0  0  0  0
  -21.2007   -7.6148   23.9709 H   0  0  0  0  0  0
  -21.1480   -6.0524   25.9076 H   0  0  0  0  0  0
  -22.0605   -2.7603   23.2846 H   0  0  0  0  0  0
  -22.4101  -11.9858   22.4794 H   0  0  0  0  0  0
  -21.1101  -13.1215   22.2650 H   0  0  0  0  0  0
  -24.6405  -15.8325   20.4823 H   0  0  0  0  0  0
  -26.2411  -15.6106   19.9917 H   0  0  0  0  0  0
  -26.7135  -32.5525   23.1161 H   0  0  0  0  0  0
  -25.0068  -33.9776   25.0472 H   0  0  0  0  0  0
  -22.6946  -31.3064   21.4124 H   0  0  0  0  0  0
  -23.3763  -35.9630   23.3304 H   0  0  0  0  0  0
  -24.3594  -36.8917   22.2058 H   0  0  0  0  0  0
  -23.7237  -37.6503   23.6662 H   0  0  0  0  0  0
  -26.0553  -31.5947   20.6008 H   0  0  0  0  0  0
  -26.8234  -30.8758   21.9886 H   0  0  0  0  0  0
  -28.1068  -29.0669   21.1848 H   0  0  0  0  0  0
  -26.0455  -25.9508   19.0303 H   0  0  0  0  0  0
  -23.9749  -27.2980   19.0283 H   0  0  0  0  0  0
  -23.7250  -30.6027   19.4069 H   0  0  0  0  0  0
  -22.7386  -29.2438   19.8674 H   0  0  0  0  0  0
  -25.1290  -36.1988   25.0826 H   0  0  0  0  0  0
  -20.9945  -28.3206   24.1447 H   0  0  0  0  0  0
  -20.5669  -26.2254   23.3604 H   0  0  0  0  0  0
  -21.6635  -26.7430   22.1215 H   0  0  0  0  0  0
  -19.6920  -25.6273   21.1238 H   0  0  0  0  0  0
  -19.6690  -27.3178   20.6744 H   0  0  0  0  0  0
  -17.4197  -26.6661   21.4009 H   0  0  0  0  0  0
  -18.0308  -26.0028   22.8998 H   0  0  0  0  0  0
  -19.7937  -30.7223   24.2274 H   0  0  0  0  0  0
  -17.5025  -31.6259   24.5148 H   0  0  0  0  0  0
  -15.5353  -30.2967   23.7646 H   0  0  0  0  0  0
  -15.8663  -28.0796   22.7068 H   0  0  0  0  0  0
  -24.5887  -30.7072   25.7804 H   0  0  0  0  0  0
  -24.8904  -32.2876   26.4926 H   0  0  0  0  0  0
  -25.8043  -30.8889   27.0237 H   0  0  0  0  0  0
  -26.2860  -29.6807   24.1156 H   0  0  0  0  0  0
  -27.4092  -29.7302   25.4569 H   0  0  0  0  0  0
  -27.8696  -30.4383   23.9257 H   0  0  0  0  0  0
  -27.2676  -33.3632   26.2080 H   0  0  0  0  0  0
  -28.3850  -32.6877   25.0295 H   0  0  0  0  0  0
  -28.0727  -31.8434   26.5390 H   0  0  0  0  0  0
  -28.2602  -38.0107   24.7530 H   0  0  0  0  0  0
  -28.1085  -36.2645   24.6270 H   0  0  0  0  0  0
  -27.2314  -37.1428   25.8869 H   0  0  0  0  0  0
  -20.9350  -29.8733   21.6952 H   0  0  0  0  0  0
  -26.0203  -38.2869   24.1408 H   0  0  0  0  0  0
  -33.2293  -18.8775   21.4451 H   0  0  0  0  0  0
  -31.7303  -20.6864   20.7369 H   0  0  0  0  0  0
  -32.4516  -16.5635   21.5488 H   0  0  0  0  0  0
  -27.3833  -18.4780   20.6368 H   0  0  0  0  0  0
  -27.7470  -16.7812   20.7060 H   0  0  0  0  0  0
  -27.9059  -17.6367   19.1708 H   0  0  0  0  0  0
  -31.2546  -23.9307   20.4953 H   0  0  0  0  0  0
  -30.9509  -25.5831   21.0111 H   0  0  0  0  0  0
  -30.3863  -25.0361   19.4384 H   0  0  0  0  0  0
  -30.2257  -23.1303   22.6661 H   0  0  0  0  0  0
  -28.5571  -23.5217   23.0625 H   0  0  0  0  0  0
  -29.8122  -24.7485   23.1712 H   0  0  0  0  0  0
  -28.5588  -23.2532   19.2867 H   0  0  0  0  0  0
  -27.5771  -22.8759   20.6747 H   0  0  0  0  0  0
  -28.2690  -26.0298   22.0923 H   0  0  0  0  0  0
  -27.1645  -25.1292   21.1281 H   0  0  0  0  0  0
  -29.0229  -15.4332   21.1059 H   0  0  0  0  0  0
  -30.0704  -21.8239   21.3098 H   0  0  0  0  0  0
  1 25  1  0  0  0
  1 30  2  0  0  0
  1 84  1  0  0  0
  2  3  1  0  0  0
  2 25  1  0  0  0
  2 87  1  0  0  0
  2 88  1  0  0  0
  3  4  1  0  0  0
  3 89  1  0  0  0
  3 90  1  0  0  0
  4  5  1  0  0  0
  4 91  1  0  0  0
  4 92  1  0  0  0
  5  6  1  0  0  0
  5 26  1  0  0  0
  5 93  1  0  0  0
  6 25  1  0  0  0
  6 94  1  0  0  0
  6 95  1  0  0  0
  7  8  2  0  0  0
  7 26  1  0  0  0
  7 29  1  0  0  0
  8  9  1  0  0  0
  8 22  1  0  0  0
  9 10  1  0  0  0
  9 27  2  0  0  0
 10 11  2  0  0  0
 10 15  1  0  0  0
 11 12  1  0  0  0
 11 96  1  0  0  0
 12 13  2  0  0  0
 12 97  1  0  0  0
 13 14  1  0  0  0
 13 31  1  0  0  0
 14 15  2  0  0  0
 14 98  1  0  0  0
 15 99  1  0  0  0
 16 17  2  0  0  0
 16 21  1  0  0  0
 16 31  1  0  0  0
 17 18  1  0  0  0
 17100  1  0  0  0
 18 19  2  0  0  0
 18101  1  0  0  0
 19 20  1  0  0  0
 19 24  1  0  0  0
 20 21  2  0  0  0
 20102  1  0  0  0
 21 23  1  0  0  0
 22 28  1  0  0  0
 22 32  2  0  0  0
 26 27  1  0  0  0
 28103  1  0  0  0
 28104  1  0  0  0
 29105  1  0  0  0
 29106  1  0  0  0
 33 34  1  0  0  0
 33 66  1  0  0  0
 33 70  2  0  0  0
 34 36  1  0  0  0
 34 59  1  0  0  0
 34107  1  0  0  0
 35 44  2  0  0  0
 35 45  1  0  0  0
 35 68  1  0  0  0
 36 56  1  0  0  0
 36108  1  0  0  0
 37 39  1  0  0  0
 37 47  1  0  0  0
 37 66  1  0  0  0
 37109  1  0  0  0
 38 43  2  0  0  0
 38 46  1  0  0  0
 38 47  1  0  0  0
 39 64  1  0  0  0
 39 67  2  0  0  0
 40 52  1  0  0  0
 40 53  2  0  0  0
 40 58  1  0  0  0
 41110  1  0  0  0
 41111  1  0  0  0
 41112  1  0  0  0
 41 48  1  0  0  0
 42 43  1  0  0  0
 42 66  1  0  0  0
 42113  1  0  0  0
 42114  1  0  0  0
 43 44  1  0  0  0
 44115  1  0  0  0
 45 46  2  0  0  0
 45116  1  0  0  0
 46117  1  0  0  0
 47118  1  0  0  0
 47119  1  0  0  0
 48 56  1  0  0  0
 48 65  1  0  0  0
 48120  1  0  0  0
 49 50  1  0  0  0
 49 53  1  0  0  0
 49 64  1  0  0  0
 49121  1  0  0  0
 50 51  1  0  0  0
 50122  1  0  0  0
 50123  1  0  0  0
 51 52  1  0  0  0
 51124  1  0  0  0
 51125  1  0  0  0
 52126  1  0  0  0
 52127  1  0  0  0
 53 54  1  0  0  0
 54 55  2  0  0  0
 54128  1  0  0  0
 55 57  1  0  0  0
 55129  1  0  0  0
 56 69  2  0  0  0
 57 58  2  0  0  0
 57130  1  0  0  0
 58131  1  0  0  0
 59 60  1  0  0  0
 59 61  1  0  0  0
 59 62  1  0  0  0
 60132  1  0  0  0
 60133  1  0  0  0
 60134  1  0  0  0
 61135  1  0  0  0
 61136  1  0  0  0
 61137  1  0  0  0
 62138  1  0  0  0
 62139  1  0  0  0
 62140  1  0  0  0
 63 65  1  0  0  0
 63141  1  0  0  0
 63142  1  0  0  0
 63143  1  0  0  0
 64144  1  0  0  0
 65145  1  0  0  0
 68 82  1  0  0  0
 71 72  2  0  0  0
 71 73  1  0  0  0
 71146  1  0  0  0
 72 74  1  0  0  0
 72147  1  0  0  0
 73 76  2  0  0  0
 73148  1  0  0  0
 74 75  2  0  0  0
 74 77  1  0  0  0
 75 76  1  0  0  0
 75 78  1  0  0  0
 76 84  1  0  0  0
 77 85  1  0  0  0
 77 86  2  0  0  0
 78149  1  0  0  0
 78150  1  0  0  0
 78151  1  0  0  0
 79152  1  0  0  0
 79153  1  0  0  0
 79154  1  0  0  0
 79 83  1  0  0  0
 80 83  1  0  0  0
 80155  1  0  0  0
 80156  1  0  0  0
 80157  1  0  0  0
 81 83  1  0  0  0
 81 85  1  0  0  0
 81158  1  0  0  0
 81159  1  0  0  0
 82 83  1  0  0  0
 82160  1  0  0  0
 82161  1  0  0  0
 84162  1  0  0  0
 85163  1  0  0  0
M  ISO  4   1 100  68 101  82 101  84 100
M  END
> <chiral flag>
0

> <version>
0

> <s_m_source_file>
/data/baiqing/PycharmProjects/Reinvent-master-3.2/result/LINK_invent/BTK/process_docking_weight1_custom_product_contain_oxygen_bond_distance_aromatic_linkinvent_7_9_3/rearranged_h_0059.sdf

> <i_m_source_file_index>
51

> <r_mmod_Potential_Energy-OPLS-2005>
-44.6789360046387

> <r_mmod_Stretch_Energy-OPLS-2005>
54.0990409851074

> <r_mmod_Bend_Energy-OPLS-2005>
107.111877441406

> <r_mmod_Torsional_Energy-OPLS-2005>
276.693328857422

> <r_mmod_Improper_Torsional_Energy-OPLS-2005>
5.09297895431519

> <r_mmod_Van_der_Waal_Energy-OPLS-2005>
162.135803222656

> <r_mmod_Electrostatic_Energy-OPLS-2005>
-457.528411865234

> <r_mmod_Solvation_Energy-OPLS-2005>
-215.537307739258

> <b_mmod_Minimization_Converged-OPLS-2005>
0

> <r_mmod_RMS_Derivative-OPLS-2005>
2.16113972663879

$$$$
51
                    3D
 Structure written by MMmdl.
154162  0  0  1  0            999 V2000
  -30.6118  -14.7429   20.4552 C   0  0  0  0  0  0
  -30.4404  -12.4561   19.4736 C   0  0  0  0  0  0
  -29.5205  -12.5409   18.2336 C   0  0  0  0  0  0
  -28.0436  -12.3712   18.6415 C   0  0  0  0  0  0
  -27.6571  -13.2456   19.8646 C   0  0  2  0  0  0
  -28.7038  -13.1453   20.9962 C   0  0  0  0  0  0
  -25.2553  -13.8208   20.5729 C   0  0  0  0  0  0
  -24.1873  -13.0438   20.9257 C   0  0  0  0  0  0
  -24.6481  -11.6931   20.8794 C   0  0  0  0  0  0
  -23.9173  -10.4283   21.0440 C   0  0  0  0  0  0
  -24.3713   -9.4165   21.9186 C   0  0  0  0  0  0
  -23.6341   -8.2226   22.0741 C   0  0  0  0  0  0
  -22.4323   -8.0310   21.3529 C   0  0  0  0  0  0
  -22.0004   -9.0302   20.4638 C   0  0  0  0  0  0
  -22.7374  -10.2147   20.3033 C   0  0  0  0  0  0
  -21.6848   -6.0780   22.5280 C   0  0  0  0  0  0
  -21.4059   -6.5659   23.8239 C   0  0  0  0  0  0
  -21.3670   -5.6787   24.9173 C   0  0  0  0  0  0
  -21.6043   -4.3048   24.7207 C   0  0  0  0  0  0
  -21.8797   -3.8171   23.4303 C   0  0  0  0  0  0
  -21.9175   -4.7007   22.3383 C   0  0  0  0  0  0
  -22.7851  -13.5189   21.1862 C   0  0  0  0  0  0
  -22.1620   -4.2210   21.0949 F   0  0  0  0  0  0
  -21.5625   -3.4518   25.7695 F   0  0  0  0  0  0
  -30.0063  -13.5059   20.4249 N   0  0  0  0  0  0
  -26.3057  -12.9470   20.3359 N   0  0  0  0  0  0
  -25.9422  -11.6607   20.5801 N   0  0  0  0  0  0
  -22.0462  -12.8197   22.0421 N   0  0  0  0  0  0
  -25.4142  -15.1931   20.4112 N   0  0  0  0  0  0
  -31.7896  -14.8435   20.0926 O   0  0  0  0  0  0
  -21.6620   -6.8953   21.4259 O   0  0  0  0  0  0
  -22.3505  -14.5449   20.6663 O   0  0  0  0  0  0
  -24.6325  -31.8624   23.1972 C   0  0  0  0  0  0
  -25.9129  -32.4831   23.8401 C   0  0  1  0  0  0
  -27.2396  -27.2727   20.1519 C   0  0  0  0  0  0
  -25.5961  -33.8627   24.2373 N   0  0  0  0  0  0
  -23.4335  -30.4853   21.5329 C   0  0  2  0  0  0
  -24.8915  -28.9326   20.1098 C   0  0  0  0  0  0
  -22.7542  -29.4683   22.4834 C   0  0  0  0  0  0
  -18.0335  -28.1423   22.8482 C   0  0  0  0  0  0
  -24.1495  -36.7332   23.2634 C   0  0  0  0  0  0
  -25.9728  -30.7967   21.3575 C   0  0  0  0  0  0
  -26.0559  -29.4044   20.7275 C   0  0  0  0  0  0
  -27.2291  -28.5809   20.7457 C   0  0  0  0  0  0
  -26.0525  -26.8758   19.4944 C   0  0  0  0  0  0
  -24.8941  -27.6770   19.4851 C   0  0  0  0  0  0
  -23.6638  -29.8223   20.1461 C   0  0  0  0  0  0
  -25.4097  -36.3128   24.0358 C   0  0  1  0  0  0
  -20.5951  -28.3788   23.1267 C   0  0  2  0  0  0
  -20.6865  -26.9500   22.5426 C   0  0  0  0  0  0
  -19.5843  -26.6413   21.5240 C   0  0  0  0  0  0
  -18.2002  -26.7969   22.1601 C   0  0  0  0  0  0
  -19.1582  -28.8892   23.2908 C   0  0  0  0  0  0
  -18.9479  -30.1461   23.8972 C   0  0  0  0  0  0
  -17.6478  -30.6603   24.0586 C   0  0  0  0  0  0
  -25.9033  -34.9490   23.5146 C   0  0  0  0  0  0
  -16.5385  -29.9130   23.6260 C   0  0  0  0  0  0
  -16.7322  -28.6549   23.0290 C   0  0  0  0  0  0
  -26.4493  -31.6571   25.0717 C   0  0  0  0  0  0
  -25.3748  -31.3653   26.1449 C   0  0  0  0  0  0
  -27.0291  -30.3053   24.5952 C   0  0  0  0  0  0
  -27.6092  -32.4225   25.7522 C   0  0  0  0  0  0
  -27.5581  -37.1843   24.8460 C   0  0  0  0  0  0
  -21.4235  -29.3130   22.3617 N   0  0  0  0  0  0
  -26.4286  -37.3819   23.9431 N   0  0  0  0  0  0
  -24.7000  -31.0640   22.0911 N   0  0  0  0  0  0
  -23.4242  -28.8179   23.2903 O   0  0  0  0  0  0
  -28.3467  -26.3901   20.2310 O   0  0  0  0  0  0
  -26.5535  -34.8942   22.4674 O   0  0  0  0  0  0
  -23.5464  -32.1385   23.7277 O   0  0  0  0  0  0
  -30.5565  -18.6244   18.1886 C   0  0  0  0  0  0
  -30.0745  -19.8048   18.7878 C   0  0  0  0  0  0
  -30.4853  -17.3729   18.8383 C   0  0  0  0  0  0
  -29.4147  -18.4728   20.7181 C   0  0  0  0  0  0
  -29.4875  -19.7857   20.0770 C   0  0  0  0  0  0
  -29.9298  -17.2397   20.1347 C   0  0  0  0  0  0
  -28.9931  -21.1193   20.7311 C   0  0  0  0  0  0
  -29.2276  -23.9452   22.1457 C   0  0  0  0  0  0
  -28.1790  -24.9155   19.9607 C   0  0  0  0  0  0
  -29.1867  -23.8183   20.6015 C   0  0  2  0  0  0
  -29.8559  -15.8766   20.7365 N   0  0  0  0  0  0
  -29.1575  -22.3527   20.1067 N   0  0  0  0  0  0
  -28.4695  -21.0480   21.8438 O   0  0  0  0  0  0
  -31.4859  -12.5718   19.1819 H   0  0  0  0  0  0
  -30.3734  -11.4689   19.9365 H   0  0  0  0  0  0
  -29.8069  -11.7870   17.5002 H   0  0  0  0  0  0
  -29.6494  -13.5072   17.7412 H   0  0  0  0  0  0
  -27.8856  -11.3193   18.8753 H   0  0  0  0  0  0
  -27.3860  -12.5986   17.8010 H   0  0  0  0  0  0
  -27.6627  -14.2779   19.5111 H   0  0  0  0  0  0
  -28.7334  -12.1350   21.4118 H   0  0  0  0  0  0
  -28.4539  -13.8101   21.8212 H   0  0  0  0  0  0
  -25.2856   -9.5593   22.4761 H   0  0  0  0  0  0
  -24.0017   -7.4587   22.7464 H   0  0  0  0  0  0
  -21.0936   -8.8893   19.8919 H   0  0  0  0  0  0
  -22.3914  -10.9710   19.6122 H   0  0  0  0  0  0
  -21.2087   -7.6173   23.9802 H   0  0  0  0  0  0
  -21.1518   -6.0476   25.9103 H   0  0  0  0  0  0
  -22.0564   -2.7636   23.2763 H   0  0  0  0  0  0
  -22.4121  -11.9920   22.4890 H   0  0  0  0  0  0
  -21.1031  -13.1190   22.2555 H   0  0  0  0  0  0
  -24.6435  -15.8367   20.5639 H   0  0  0  0  0  0
  -26.2303  -15.6375   20.0097 H   0  0  0  0  0  0
  -26.7227  -32.5557   23.1211 H   0  0  0  0  0  0
  -25.0322  -33.9809   25.0651 H   0  0  0  0  0  0
  -22.7314  -31.3079   21.3821 H   0  0  0  0  0  0
  -23.3761  -35.9659   23.3251 H   0  0  0  0  0  0
  -24.3622  -36.8964   22.2059 H   0  0  0  0  0  0
  -23.7229  -37.6528   23.6646 H   0  0  0  0  0  0
  -26.0441  -31.5384   20.5589 H   0  0  0  0  0  0
  -26.8750  -30.9156   21.9439 H   0  0  0  0  0  0
  -28.1153  -28.9299   21.2558 H   0  0  0  0  0  0
  -25.9863  -25.9235   18.9928 H   0  0  0  0  0  0
  -24.0018  -27.3164   18.9926 H   0  0  0  0  0  0
  -23.8118  -30.6049   19.4008 H   0  0  0  0  0  0
  -22.7842  -29.2689   19.8152 H   0  0  0  0  0  0
  -25.1256  -36.1998   25.0854 H   0  0  0  0  0  0
  -21.0094  -28.3400   24.1368 H   0  0  0  0  0  0
  -20.5843  -26.2395   23.3647 H   0  0  0  0  0  0
  -21.6733  -26.7566   22.1194 H   0  0  0  0  0  0
  -19.7029  -25.6311   21.1310 H   0  0  0  0  0  0
  -19.6779  -27.3186   20.6752 H   0  0  0  0  0  0
  -17.4303  -26.6754   21.3960 H   0  0  0  0  0  0
  -18.0349  -26.0107   22.8988 H   0  0  0  0  0  0
  -19.7947  -30.7259   24.2422 H   0  0  0  0  0  0
  -17.5020  -31.6258   24.5238 H   0  0  0  0  0  0
  -15.5390  -30.3062   23.7506 H   0  0  0  0  0  0
  -15.8739  -28.0897   22.6922 H   0  0  0  0  0  0
  -24.5952  -30.6959   25.7778 H   0  0  0  0  0  0
  -24.8890  -32.2795   26.4895 H   0  0  0  0  0  0
  -25.8118  -30.8841   27.0214 H   0  0  0  0  0  0
  -26.2753  -29.6835   24.1101 H   0  0  0  0  0  0
  -27.4263  -29.7245   25.4285 H   0  0  0  0  0  0
  -27.8511  -30.4465   23.8928 H   0  0  0  0  0  0
  -27.2755  -33.3519   26.2161 H   0  0  0  0  0  0
  -28.3925  -32.6762   25.0363 H   0  0  0  0  0  0
  -28.0726  -31.8265   26.5396 H   0  0  0  0  0  0
  -28.2577  -38.0165   24.7508 H   0  0  0  0  0  0
  -28.1098  -36.2686   24.6251 H   0  0  0  0  0  0
  -27.2326  -37.1466   25.8877 H   0  0  0  0  0  0
  -20.9389  -29.8917   21.6895 H   0  0  0  0  0  0
  -26.0153  -38.2898   24.1432 H   0  0  0  0  0  0
  -30.9914  -18.6738   17.1994 H   0  0  0  0  0  0
  -30.1628  -20.7282   18.2332 H   0  0  0  0  0  0
  -30.8525  -16.5048   18.3095 H   0  0  0  0  0  0
  -28.9548  -18.4297   21.6970 H   0  0  0  0  0  0
  -29.5542  -24.9338   22.4861 H   0  0  0  0  0  0
  -29.9349  -23.2257   22.5610 H   0  0  0  0  0  0
  -28.2535  -23.7657   22.6068 H   0  0  0  0  0  0
  -27.1830  -24.6022   20.2672 H   0  0  0  0  0  0
  -28.2110  -24.8064   18.8751 H   0  0  0  0  0  0
  -30.1757  -24.1309   20.2593 H   0  0  0  0  0  0
  -29.0436  -15.7035   21.3104 H   0  0  0  0  0  0
  -29.4805  -22.2514   19.1547 H   0  0  0  0  0  0
  1 25  1  0  0  0
  1 30  2  0  0  0
  1 81  1  0  0  0
  2  3  1  0  0  0
  2 25  1  0  0  0
  2 84  1  0  0  0
  2 85  1  0  0  0
  3  4  1  0  0  0
  3 86  1  0  0  0
  3 87  1  0  0  0
  4  5  1  0  0  0
  4 88  1  0  0  0
  4 89  1  0  0  0
  5  6  1  0  0  0
  5 26  1  0  0  0
  5 90  1  0  0  0
  6 25  1  0  0  0
  6 91  1  0  0  0
  6 92  1  0  0  0
  7  8  2  0  0  0
  7 26  1  0  0  0
  7 29  1  0  0  0
  8  9  1  0  0  0
  8 22  1  0  0  0
  9 10  1  0  0  0
  9 27  2  0  0  0
 10 11  2  0  0  0
 10 15  1  0  0  0
 11 12  1  0  0  0
 11 93  1  0  0  0
 12 13  2  0  0  0
 12 94  1  0  0  0
 13 14  1  0  0  0
 13 31  1  0  0  0
 14 15  2  0  0  0
 14 95  1  0  0  0
 15 96  1  0  0  0
 16 17  2  0  0  0
 16 21  1  0  0  0
 16 31  1  0  0  0
 17 18  1  0  0  0
 17 97  1  0  0  0
 18 19  2  0  0  0
 18 98  1  0  0  0
 19 20  1  0  0  0
 19 24  1  0  0  0
 20 21  2  0  0  0
 20 99  1  0  0  0
 21 23  1  0  0  0
 22 28  1  0  0  0
 22 32  2  0  0  0
 26 27  1  0  0  0
 28100  1  0  0  0
 28101  1  0  0  0
 29102  1  0  0  0
 29103  1  0  0  0
 33 34  1  0  0  0
 33 66  1  0  0  0
 33 70  2  0  0  0
 34 36  1  0  0  0
 34 59  1  0  0  0
 34104  1  0  0  0
 35 44  2  0  0  0
 35 45  1  0  0  0
 35 68  1  0  0  0
 36 56  1  0  0  0
 36105  1  0  0  0
 37 39  1  0  0  0
 37 47  1  0  0  0
 37 66  1  0  0  0
 37106  1  0  0  0
 38 43  2  0  0  0
 38 46  1  0  0  0
 38 47  1  0  0  0
 39 64  1  0  0  0
 39 67  2  0  0  0
 40 52  1  0  0  0
 40 53  2  0  0  0
 40 58  1  0  0  0
 41107  1  0  0  0
 41108  1  0  0  0
 41109  1  0  0  0
 41 48  1  0  0  0
 42 43  1  0  0  0
 42 66  1  0  0  0
 42110  1  0  0  0
 42111  1  0  0  0
 43 44  1  0  0  0
 44112  1  0  0  0
 45 46  2  0  0  0
 45113  1  0  0  0
 46114  1  0  0  0
 47115  1  0  0  0
 47116  1  0  0  0
 48 56  1  0  0  0
 48 65  1  0  0  0
 48117  1  0  0  0
 49 50  1  0  0  0
 49 53  1  0  0  0
 49 64  1  0  0  0
 49118  1  0  0  0
 50 51  1  0  0  0
 50119  1  0  0  0
 50120  1  0  0  0
 51 52  1  0  0  0
 51121  1  0  0  0
 51122  1  0  0  0
 52123  1  0  0  0
 52124  1  0  0  0
 53 54  1  0  0  0
 54 55  2  0  0  0
 54125  1  0  0  0
 55 57  1  0  0  0
 55126  1  0  0  0
 56 69  2  0  0  0
 57 58  2  0  0  0
 57127  1  0  0  0
 58128  1  0  0  0
 59 60  1  0  0  0
 59 61  1  0  0  0
 59 62  1  0  0  0
 60129  1  0  0  0
 60130  1  0  0  0
 60131  1  0  0  0
 61132  1  0  0  0
 61133  1  0  0  0
 61134  1  0  0  0
 62135  1  0  0  0
 62136  1  0  0  0
 62137  1  0  0  0
 63 65  1  0  0  0
 63138  1  0  0  0
 63139  1  0  0  0
 63140  1  0  0  0
 64141  1  0  0  0
 65142  1  0  0  0
 68 79  1  0  0  0
 71 72  2  0  0  0
 71 73  1  0  0  0
 71143  1  0  0  0
 72 75  1  0  0  0
 72144  1  0  0  0
 73 76  2  0  0  0
 73145  1  0  0  0
 74 75  2  0  0  0
 74 76  1  0  0  0
 74146  1  0  0  0
 75 77  1  0  0  0
 76 81  1  0  0  0
 77 82  1  0  0  0
 77 83  2  0  0  0
 78147  1  0  0  0
 78148  1  0  0  0
 78149  1  0  0  0
 78 80  1  0  0  0
 79 80  1  0  0  0
 79150  1  0  0  0
 79151  1  0  0  0
 80 82  1  0  0  0
 80152  1  0  0  0
 81153  1  0  0  0
 82154  1  0  0  0
M  ISO  4   1 100  68 101  79 101  81 100
M  END
> <chiral flag>
0

> <version>
0

> <s_m_source_file>
/data/baiqing/PycharmProjects/Reinvent-master-3.2/result/LINK_invent/BTK/process_docking_weight1_custom_product_contain_oxygen_bond_distance_aromatic_linkinvent_7_9_3/rearranged_h_0059.sdf

> <i_m_source_file_index>
52

> <r_mmod_Potential_Energy-OPLS-2005>
102.943496704102

> <r_mmod_Stretch_Energy-OPLS-2005>
132.061462402344

> <r_mmod_Bend_Energy-OPLS-2005>
169.48860168457

> <r_mmod_Torsional_Energy-OPLS-2005>
238.566970825195

> <r_mmod_Improper_Torsional_Energy-OPLS-2005>
4.64875650405884

> <r_mmod_Van_der_Waal_Energy-OPLS-2005>
141.439208984375

> <r_mmod_Electrostatic_Energy-OPLS-2005>
-429.987518310547

> <r_mmod_Solvation_Energy-OPLS-2005>
-233.621124267578

> <b_mmod_Minimization_Converged-OPLS-2005>
0

> <r_mmod_RMS_Derivative-OPLS-2005>
6.48413944244385

$$$$
52
                    3D
 Structure written by MMmdl.
150158  0  0  1  0            999 V2000
  -30.7635  -14.5182   20.5177 C   0  0  0  0  0  0
  -30.3976  -12.3216   19.4555 C   0  0  0  0  0  0
  -29.4923  -12.4924   18.2208 C   0  0  0  0  0  0
  -28.0162  -12.3573   18.6321 C   0  0  0  0  0  0
  -27.6535  -13.2291   19.8658 C   0  0  2  0  0  0
  -28.7000  -13.1041   20.9992 C   0  0  0  0  0  0
  -25.2549  -13.8207   20.5711 C   0  0  0  0  0  0
  -24.1823  -13.0450   20.9191 C   0  0  0  0  0  0
  -24.6405  -11.6927   20.8739 C   0  0  0  0  0  0
  -23.9079  -10.4300   21.0395 C   0  0  0  0  0  0
  -24.3626   -9.4217   21.9176 C   0  0  0  0  0  0
  -23.6297   -8.2253   22.0752 C   0  0  0  0  0  0
  -22.4280   -8.0285   21.3541 C   0  0  0  0  0  0
  -21.9915   -9.0260   20.4645 C   0  0  0  0  0  0
  -22.7246  -10.2138   20.3050 C   0  0  0  0  0  0
  -21.6856   -6.0735   22.5277 C   0  0  0  0  0  0
  -21.4019   -6.5639   23.8211 C   0  0  0  0  0  0
  -21.3660   -5.6792   24.9171 C   0  0  0  0  0  0
  -21.6048   -4.3056   24.7220 C   0  0  0  0  0  0
  -21.8819   -3.8145   23.4342 C   0  0  0  0  0  0
  -21.9195   -4.6962   22.3397 C   0  0  0  0  0  0
  -22.7842  -13.5232   21.1846 C   0  0  0  0  0  0
  -22.1664   -4.2146   21.0977 F   0  0  0  0  0  0
  -21.5627   -3.4540   25.7733 F   0  0  0  0  0  0
  -30.0268  -13.3711   20.4272 N   0  0  0  0  0  0
  -26.3001  -12.9421   20.3369 N   0  0  0  0  0  0
  -25.9345  -11.6563   20.5786 N   0  0  0  0  0  0
  -22.0488  -12.8216   22.0405 N   0  0  0  0  0  0
  -25.4241  -15.1923   20.4115 N   0  0  0  0  0  0
  -31.8999  -14.5514   20.0494 O   0  0  0  0  0  0
  -21.6645   -6.8876   21.4239 O   0  0  0  0  0  0
  -22.3521  -14.5534   20.6693 O   0  0  0  0  0  0
  -24.6200  -31.8678   23.2115 C   0  0  0  0  0  0
  -25.9085  -32.4814   23.8407 C   0  0  1  0  0  0
  -27.2092  -27.3796   20.0944 C   0  0  0  0  0  0
  -25.5933  -33.8616   24.2336 N   0  0  0  0  0  0
  -23.4096  -30.4950   21.5537 C   0  0  2  0  0  0
  -24.8536  -28.9727   20.1033 C   0  0  0  0  0  0
  -22.7441  -29.4648   22.4961 C   0  0  0  0  0  0
  -18.0275  -28.1373   22.8488 C   0  0  0  0  0  0
  -24.1489  -36.7313   23.2632 C   0  0  0  0  0  0
  -25.9475  -30.8108   21.3833 C   0  0  0  0  0  0
  -26.0190  -29.4464   20.7217 C   0  0  0  0  0  0
  -27.1985  -28.6524   20.7258 C   0  0  0  0  0  0
  -26.0398  -26.9807   19.4030 C   0  0  0  0  0  0
  -24.8624  -27.7404   19.4386 C   0  0  0  0  0  0
  -23.6196  -29.8438   20.1631 C   0  0  0  0  0  0
  -25.4107  -36.3105   24.0333 C   0  0  1  0  0  0
  -20.5869  -28.3673   23.1293 C   0  0  2  0  0  0
  -20.6764  -26.9407   22.5406 C   0  0  0  0  0  0
  -19.5746  -26.6386   21.5200 C   0  0  0  0  0  0
  -18.1927  -26.7924   22.1619 C   0  0  0  0  0  0
  -19.1527  -28.8841   23.2889 C   0  0  0  0  0  0
  -18.9455  -30.1449   23.8902 C   0  0  0  0  0  0
  -17.6456  -30.6588   24.0557 C   0  0  0  0  0  0
  -25.9035  -34.9472   23.5124 C   0  0  0  0  0  0
  -16.5347  -29.9085   23.6324 C   0  0  0  0  0  0
  -16.7261  -28.6496   23.0348 C   0  0  0  0  0  0
  -26.4491  -31.6590   25.0747 C   0  0  0  0  0  0
  -25.3740  -31.3721   26.1484 C   0  0  0  0  0  0
  -27.0322  -30.3013   24.6179 C   0  0  0  0  0  0
  -27.6053  -32.4320   25.7514 C   0  0  0  0  0  0
  -27.5575  -37.1818   24.8468 C   0  0  0  0  0  0
  -21.4161  -29.3046   22.3703 N   0  0  0  0  0  0
  -26.4303  -37.3785   23.9389 N   0  0  0  0  0  0
  -24.6771  -31.0730   22.1063 N   0  0  0  0  0  0
  -23.4197  -28.8166   23.2999 O   0  0  0  0  0  0
  -28.3006  -26.5148   20.1675 O   0  0  0  0  0  0
  -26.5596  -34.8924   22.4684 O   0  0  0  0  0  0
  -23.5382  -32.1471   23.7468 O   0  0  0  0  0  0
  -28.7347  -24.1222   20.7789 C   0  0  0  0  0  0
  -32.6399  -18.5548   20.8161 C   0  0  0  0  0  0
  -31.7862  -19.6655   20.8275 C   0  0  0  0  0  0
  -32.1151  -17.2549   20.8974 C   0  0  0  0  0  0
  -29.8639  -18.1635   21.0076 C   0  0  0  0  0  0
  -30.3889  -19.4952   20.9358 C   0  0  0  0  0  0
  -30.7152  -17.0123   20.9535 C   0  0  0  0  0  0
  -29.1169  -22.9654   21.3045 C   0  0  0  0  0  0
  -28.0120  -25.1650   20.4020 C   0  0  0  0  0  0
  -29.7402  -21.8901   20.5268 C   0  0  0  0  0  0
  -29.5614  -20.6646   21.0876 N   0  0  0  0  0  0
  -30.1697  -15.6573   20.9758 N   0  0  0  0  0  0
  -30.3578  -22.0500   19.4684 O   0  0  0  0  0  0
  -31.4472  -12.3551   19.1586 H   0  0  0  0  0  0
  -30.2555  -11.3349   19.8986 H   0  0  0  0  0  0
  -29.7383  -11.7456   17.4645 H   0  0  0  0  0  0
  -29.6643  -13.4662   17.7599 H   0  0  0  0  0  0
  -27.8343  -11.3047   18.8537 H   0  0  0  0  0  0
  -27.3661  -12.6061   17.7924 H   0  0  0  0  0  0
  -27.6713  -14.2638   19.5228 H   0  0  0  0  0  0
  -28.6802  -12.1036   21.4340 H   0  0  0  0  0  0
  -28.4697  -13.7921   21.8137 H   0  0  0  0  0  0
  -25.2768   -9.5689   22.4750 H   0  0  0  0  0  0
  -24.0007   -7.4640   22.7467 H   0  0  0  0  0  0
  -21.0850   -8.8774   19.8946 H   0  0  0  0  0  0
  -22.3700  -10.9676   19.6158 H   0  0  0  0  0  0
  -21.2017   -7.6148   23.9711 H   0  0  0  0  0  0
  -21.1483   -6.0524   25.9074 H   0  0  0  0  0  0
  -22.0598   -2.7608   23.2843 H   0  0  0  0  0  0
  -22.4121  -11.9891   22.4806 H   0  0  0  0  0  0
  -21.1098  -13.1226   22.2593 H   0  0  0  0  0  0
  -24.6554  -15.8461   20.5140 H   0  0  0  0  0  0
  -26.2758  -15.6325   20.0861 H   0  0  0  0  0  0
  -26.7142  -32.5510   23.1150 H   0  0  0  0  0  0
  -25.0080  -33.9775   25.0482 H   0  0  0  0  0  0
  -22.6995  -31.3137   21.4200 H   0  0  0  0  0  0
  -23.3745  -35.9657   23.3330 H   0  0  0  0  0  0
  -24.3572  -36.8898   22.2040 H   0  0  0  0  0  0
  -23.7270  -37.6539   23.6628 H   0  0  0  0  0  0
  -26.0761  -31.5801   20.6213 H   0  0  0  0  0  0
  -26.8283  -30.8526   22.0112 H   0  0  0  0  0  0
  -28.0861  -28.9967   21.2373 H   0  0  0  0  0  0
  -26.0099  -26.0594   18.8393 H   0  0  0  0  0  0
  -23.9765  -27.3827   18.9308 H   0  0  0  0  0  0
  -23.7313  -30.6284   19.4136 H   0  0  0  0  0  0
  -22.7402  -29.2720   19.8610 H   0  0  0  0  0  0
  -25.1291  -36.1962   25.0832 H   0  0  0  0  0  0
  -20.9955  -28.3250   24.1419 H   0  0  0  0  0  0
  -20.5666  -26.2294   23.3605 H   0  0  0  0  0  0
  -21.6629  -26.7454   22.1197 H   0  0  0  0  0  0
  -19.6918  -25.6296   21.1231 H   0  0  0  0  0  0
  -19.6670  -27.3205   20.6736 H   0  0  0  0  0  0
  -17.4189  -26.6660   21.4033 H   0  0  0  0  0  0
  -18.0329  -26.0069   22.9019 H   0  0  0  0  0  0
  -19.7936  -30.7255   24.2278 H   0  0  0  0  0  0
  -17.5014  -31.6266   24.5163 H   0  0  0  0  0  0
  -15.5346  -30.2985   23.7651 H   0  0  0  0  0  0
  -15.8658  -28.0817   22.7059 H   0  0  0  0  0  0
  -24.5915  -30.7065   25.7822 H   0  0  0  0  0  0
  -24.8931  -32.2883   26.4916 H   0  0  0  0  0  0
  -25.8086  -30.8901   27.0249 H   0  0  0  0  0  0
  -26.2889  -29.6783   24.1194 H   0  0  0  0  0  0
  -27.4005  -29.7249   25.4673 H   0  0  0  0  0  0
  -27.8767  -30.4293   23.9404 H   0  0  0  0  0  0
  -27.2656  -33.3605   26.2119 H   0  0  0  0  0  0
  -28.3855  -32.6915   25.0342 H   0  0  0  0  0  0
  -28.0734  -31.8435   26.5417 H   0  0  0  0  0  0
  -28.2617  -38.0085   24.7469 H   0  0  0  0  0  0
  -28.1048  -36.2623   24.6357 H   0  0  0  0  0  0
  -27.2285  -37.1541   25.8869 H   0  0  0  0  0  0
  -20.9325  -29.8788   21.6940 H   0  0  0  0  0  0
  -26.0198  -38.2872   24.1369 H   0  0  0  0  0  0
  -33.7100  -18.7001   20.7599 H   0  0  0  0  0  0
  -32.2278  -20.6522   20.7943 H   0  0  0  0  0  0
  -32.8435  -16.4603   20.9152 H   0  0  0  0  0  0
  -28.7960  -18.0255   21.0976 H   0  0  0  0  0  0
  -28.9792  -22.8077   22.3646 H   0  0  0  0  0  0
  -26.9674  -24.9422   20.2630 H   0  0  0  0  0  0
  -28.8405  -20.6051   21.7934 H   0  0  0  0  0  0
  -29.2038  -15.5612   21.2497 H   0  0  0  0  0  0
  1 25  1  0  0  0
  1 30  2  0  0  0
  1 82  1  0  0  0
  2  3  1  0  0  0
  2 25  1  0  0  0
  2 84  1  0  0  0
  2 85  1  0  0  0
  3  4  1  0  0  0
  3 86  1  0  0  0
  3 87  1  0  0  0
  4  5  1  0  0  0
  4 88  1  0  0  0
  4 89  1  0  0  0
  5  6  1  0  0  0
  5 26  1  0  0  0
  5 90  1  0  0  0
  6 25  1  0  0  0
  6 91  1  0  0  0
  6 92  1  0  0  0
  7  8  2  0  0  0
  7 26  1  0  0  0
  7 29  1  0  0  0
  8  9  1  0  0  0
  8 22  1  0  0  0
  9 10  1  0  0  0
  9 27  2  0  0  0
 10 11  2  0  0  0
 10 15  1  0  0  0
 11 12  1  0  0  0
 11 93  1  0  0  0
 12 13  2  0  0  0
 12 94  1  0  0  0
 13 14  1  0  0  0
 13 31  1  0  0  0
 14 15  2  0  0  0
 14 95  1  0  0  0
 15 96  1  0  0  0
 16 17  2  0  0  0
 16 21  1  0  0  0
 16 31  1  0  0  0
 17 18  1  0  0  0
 17 97  1  0  0  0
 18 19  2  0  0  0
 18 98  1  0  0  0
 19 20  1  0  0  0
 19 24  1  0  0  0
 20 21  2  0  0  0
 20 99  1  0  0  0
 21 23  1  0  0  0
 22 28  1  0  0  0
 22 32  2  0  0  0
 26 27  1  0  0  0
 28100  1  0  0  0
 28101  1  0  0  0
 29102  1  0  0  0
 29103  1  0  0  0
 33 34  1  0  0  0
 33 66  1  0  0  0
 33 70  2  0  0  0
 34 36  1  0  0  0
 34 59  1  0  0  0
 34104  1  0  0  0
 35 44  2  0  0  0
 35 45  1  0  0  0
 35 68  1  0  0  0
 36 56  1  0  0  0
 36105  1  0  0  0
 37 39  1  0  0  0
 37 47  1  0  0  0
 37 66  1  0  0  0
 37106  1  0  0  0
 38 43  2  0  0  0
 38 46  1  0  0  0
 38 47  1  0  0  0
 39 64  1  0  0  0
 39 67  2  0  0  0
 40 52  1  0  0  0
 40 53  2  0  0  0
 40 58  1  0  0  0
 41107  1  0  0  0
 41108  1  0  0  0
 41109  1  0  0  0
 41 48  1  0  0  0
 42 43  1  0  0  0
 42 66  1  0  0  0
 42110  1  0  0  0
 42111  1  0  0  0
 43 44  1  0  0  0
 44112  1  0  0  0
 45 46  2  0  0  0
 45113  1  0  0  0
 46114  1  0  0  0
 47115  1  0  0  0
 47116  1  0  0  0
 48 56  1  0  0  0
 48 65  1  0  0  0
 48117  1  0  0  0
 49 50  1  0  0  0
 49 53  1  0  0  0
 49 64  1  0  0  0
 49118  1  0  0  0
 50 51  1  0  0  0
 50119  1  0  0  0
 50120  1  0  0  0
 51 52  1  0  0  0
 51121  1  0  0  0
 51122  1  0  0  0
 52123  1  0  0  0
 52124  1  0  0  0
 53 54  1  0  0  0
 54 55  2  0  0  0
 54125  1  0  0  0
 55 57  1  0  0  0
 55126  1  0  0  0
 56 69  2  0  0  0
 57 58  2  0  0  0
 57127  1  0  0  0
 58128  1  0  0  0
 59 60  1  0  0  0
 59 61  1  0  0  0
 59 62  1  0  0  0
 60129  1  0  0  0
 60130  1  0  0  0
 60131  1  0  0  0
 61132  1  0  0  0
 61133  1  0  0  0
 61134  1  0  0  0
 62135  1  0  0  0
 62136  1  0  0  0
 62137  1  0  0  0
 63 65  1  0  0  0
 63138  1  0  0  0
 63139  1  0  0  0
 63140  1  0  0  0
 64141  1  0  0  0
 65142  1  0  0  0
 68 79  1  0  0  0
 71 78  2  0  0  0
 71 79  2  0  0  0
 72 73  2  0  0  0
 72 74  1  0  0  0
 72143  1  0  0  0
 73 76  1  0  0  0
 73144  1  0  0  0
 74 77  2  0  0  0
 74145  1  0  0  0
 75 76  2  0  0  0
 75 77  1  0  0  0
 75146  1  0  0  0
 76 81  1  0  0  0
 77 82  1  0  0  0
 78 80  1  0  0  0
 78147  1  0  0  0
 79148  1  0  0  0
 80 81  1  0  0  0
 80 83  2  0  0  0
 81149  1  0  0  0
 82150  1  0  0  0
M  ISO  4   1 100  68 101  79 101  82 100
M  END
> <chiral flag>
0

> <version>
0

> <s_m_source_file>
/data/baiqing/PycharmProjects/Reinvent-master-3.2/result/LINK_invent/BTK/process_docking_weight1_custom_product_contain_oxygen_bond_distance_aromatic_linkinvent_7_9_3/rearranged_h_0059.sdf

> <i_m_source_file_index>
53

> <r_mmod_Potential_Energy-OPLS-2005>
-69.3600234985352

> <r_mmod_Stretch_Energy-OPLS-2005>
53.2272109985352

> <r_mmod_Bend_Energy-OPLS-2005>
124.817428588867

> <r_mmod_Torsional_Energy-OPLS-2005>
154.256423950195

> <r_mmod_Improper_Torsional_Energy-OPLS-2005>
4.34521055221558

> <r_mmod_Van_der_Waal_Energy-OPLS-2005>
174.635879516602

> <r_mmod_Electrostatic_Energy-OPLS-2005>
-379.963531494141

> <r_mmod_Solvation_Energy-OPLS-2005>
-235.519226074219

> <b_mmod_Minimization_Converged-OPLS-2005>
0

> <r_mmod_RMS_Derivative-OPLS-2005>
1.62145960330963

$$$$
53
                    3D
 Structure written by MMmdl.
155163  0  0  1  0            999 V2000
  -30.6638  -14.5858   20.5231 C   0  0  0  0  0  0
  -30.4293  -12.3618   19.4500 C   0  0  0  0  0  0
  -29.5079  -12.5224   18.2214 C   0  0  0  0  0  0
  -28.0281  -12.3703   18.6256 C   0  0  0  0  0  0
  -27.6589  -13.2199   19.8713 C   0  0  2  0  0  0
  -28.7020  -13.0517   20.9996 C   0  0  0  0  0  0
  -25.2601  -13.8169   20.5684 C   0  0  0  0  0  0
  -24.1861  -13.0440   20.9188 C   0  0  0  0  0  0
  -24.6433  -11.6913   20.8723 C   0  0  0  0  0  0
  -23.9095  -10.4298   21.0396 C   0  0  0  0  0  0
  -24.3643   -9.4220   21.9182 C   0  0  0  0  0  0
  -23.6304   -8.2258   22.0767 C   0  0  0  0  0  0
  -22.4294   -8.0296   21.3548 C   0  0  0  0  0  0
  -21.9923   -9.0269   20.4656 C   0  0  0  0  0  0
  -22.7258  -10.2147   20.3050 C   0  0  0  0  0  0
  -21.6858   -6.0762   22.5283 C   0  0  0  0  0  0
  -21.4020   -6.5660   23.8224 C   0  0  0  0  0  0
  -21.3655   -5.6810   24.9182 C   0  0  0  0  0  0
  -21.6036   -4.3063   24.7228 C   0  0  0  0  0  0
  -21.8812   -3.8170   23.4336 C   0  0  0  0  0  0
  -21.9198   -4.6988   22.3411 C   0  0  0  0  0  0
  -22.7879  -13.5240   21.1813 C   0  0  0  0  0  0
  -22.1662   -4.2181   21.0979 F   0  0  0  0  0  0
  -21.5622   -3.4545   25.7734 F   0  0  0  0  0  0
  -30.0264  -13.3760   20.4444 N   0  0  0  0  0  0
  -26.3029  -12.9358   20.3336 N   0  0  0  0  0  0
  -25.9363  -11.6499   20.5728 N   0  0  0  0  0  0
  -22.0515  -12.8255   22.0377 N   0  0  0  0  0  0
  -25.4291  -15.1895   20.4112 N   0  0  0  0  0  0
  -31.8058  -14.7407   20.0816 O   0  0  0  0  0  0
  -21.6642   -6.8899   21.4246 O   0  0  0  0  0  0
  -22.3570  -14.5555   20.6662 O   0  0  0  0  0  0
  -24.6240  -31.8596   23.2024 C   0  0  0  0  0  0
  -25.9092  -32.4782   23.8353 C   0  0  1  0  0  0
  -27.2369  -27.3352   20.1188 C   0  0  0  0  0  0
  -25.5909  -33.8585   24.2277 N   0  0  0  0  0  0
  -23.4174  -30.4820   21.5440 C   0  0  2  0  0  0
  -24.8679  -28.9395   20.1103 C   0  0  0  0  0  0
  -22.7459  -29.4638   22.4946 C   0  0  0  0  0  0
  -18.0276  -28.1418   22.8491 C   0  0  0  0  0  0
  -24.1461  -36.7273   23.2645 C   0  0  0  0  0  0
  -25.9575  -30.7945   21.3734 C   0  0  0  0  0  0
  -26.0349  -29.4243   20.7146 C   0  0  0  0  0  0
  -27.2213  -28.6359   20.7075 C   0  0  0  0  0  0
  -26.0442  -26.8972   19.4957 C   0  0  0  0  0  0
  -24.8759  -27.6808   19.4912 C   0  0  0  0  0  0
  -23.6312  -29.8128   20.1605 C   0  0  0  0  0  0
  -25.4094  -36.3085   24.0336 C   0  0  1  0  0  0
  -20.5863  -28.3705   23.1288 C   0  0  2  0  0  0
  -20.6753  -26.9424   22.5426 C   0  0  0  0  0  0
  -19.5738  -26.6403   21.5214 C   0  0  0  0  0  0
  -18.1921  -26.7959   22.1629 C   0  0  0  0  0  0
  -19.1528  -28.8882   23.2877 C   0  0  0  0  0  0
  -18.9469  -30.1473   23.8910 C   0  0  0  0  0  0
  -17.6477  -30.6616   24.0580 C   0  0  0  0  0  0
  -25.9043  -34.9455   23.5107 C   0  0  0  0  0  0
  -16.5357  -29.9128   23.6341 C   0  0  0  0  0  0
  -16.7267  -28.6543   23.0351 C   0  0  0  0  0  0
  -26.4497  -31.6606   25.0719 C   0  0  0  0  0  0
  -25.3754  -31.3731   26.1456 C   0  0  0  0  0  0
  -27.0364  -30.3029   24.6194 C   0  0  0  0  0  0
  -27.6043  -32.4356   25.7492 C   0  0  0  0  0  0
  -27.5560  -37.1786   24.8469 C   0  0  0  0  0  0
  -21.4174  -29.3041   22.3673 N   0  0  0  0  0  0
  -26.4273  -37.3782   23.9428 N   0  0  0  0  0  0
  -24.6847  -31.0613   22.0968 N   0  0  0  0  0  0
  -23.4181  -28.8180   23.3025 O   0  0  0  0  0  0
  -28.3699  -26.5072   20.1724 O   0  0  0  0  0  0
  -26.5619  -34.8934   22.4676 O   0  0  0  0  0  0
  -23.5415  -32.1393   23.7357 O   0  0  0  0  0  0
  -30.9567  -19.1208   19.7498 C   0  0  0  0  0  0
  -30.9266  -17.7036   19.8946 C   0  0  0  0  0  0
  -29.2719  -17.9436   21.6182 C   0  0  0  0  0  0
  -30.1373  -19.9990   20.5155 C   0  0  0  0  0  0
  -29.3203  -19.3661   21.4999 C   0  0  0  0  0  0
  -30.0677  -17.0732   20.8298 C   0  0  0  0  0  0
  -30.3053  -21.5199   20.3253 C   0  0  0  0  0  0
  -28.5180  -20.1773   22.5028 C   0  0  0  0  0  0
  -29.0809  -22.5033   20.2380 C   0  0  0  0  0  0
  -29.3629  -24.0665   20.4003 C   0  0  0  0  0  0
  -28.1728  -25.0506   20.0438 C   0  0  0  0  0  0
  -29.9292  -15.6305   21.0021 N   0  0  0  0  0  0
  -31.4305  -22.0013   20.1555 O   0  0  0  0  0  0
  -31.4770  -12.4593   19.1578 H   0  0  0  0  0  0
  -30.3313  -11.3586   19.8663 H   0  0  0  0  0  0
  -29.7630  -11.7877   17.4562 H   0  0  0  0  0  0
  -29.6671  -13.5048   17.7724 H   0  0  0  0  0  0
  -27.8505  -11.3134   18.8250 H   0  0  0  0  0  0
  -27.3816  -12.6354   17.7881 H   0  0  0  0  0  0
  -27.6852  -14.2618   19.5534 H   0  0  0  0  0  0
  -28.7003  -12.0265   21.3719 H   0  0  0  0  0  0
  -28.4509  -13.6768   21.8567 H   0  0  0  0  0  0
  -25.2784   -9.5696   22.4760 H   0  0  0  0  0  0
  -24.0020   -7.4654   22.7491 H   0  0  0  0  0  0
  -21.0851   -8.8772   19.8963 H   0  0  0  0  0  0
  -22.3697  -10.9686   19.6164 H   0  0  0  0  0  0
  -21.2006   -7.6171   23.9730 H   0  0  0  0  0  0
  -21.1478   -6.0544   25.9089 H   0  0  0  0  0  0
  -22.0589   -2.7629   23.2827 H   0  0  0  0  0  0
  -22.4117  -11.9933   22.4796 H   0  0  0  0  0  0
  -21.1120  -13.1265   22.2528 H   0  0  0  0  0  0
  -24.6568  -15.8380   20.5147 H   0  0  0  0  0  0
  -26.2737  -15.6304   20.0670 H   0  0  0  0  0  0
  -26.7160  -32.5467   23.1104 H   0  0  0  0  0  0
  -25.0053  -33.9725   25.0422 H   0  0  0  0  0  0
  -22.7108  -31.3027   21.3998 H   0  0  0  0  0  0
  -23.3736  -35.9587   23.3335 H   0  0  0  0  0  0
  -24.3527  -36.8869   22.2053 H   0  0  0  0  0  0
  -23.7214  -37.6473   23.6655 H   0  0  0  0  0  0
  -26.0898  -31.5555   20.6032 H   0  0  0  0  0  0
  -26.8366  -30.8409   22.0049 H   0  0  0  0  0  0
  -28.1166  -29.0079   21.1876 H   0  0  0  0  0  0
  -25.9831  -25.9340   19.0128 H   0  0  0  0  0  0
  -23.9827  -27.3015   19.0142 H   0  0  0  0  0  0
  -23.7389  -30.5841   19.3973 H   0  0  0  0  0  0
  -22.7546  -29.2309   19.8671 H   0  0  0  0  0  0
  -25.1279  -36.1929   25.0825 H   0  0  0  0  0  0
  -20.9969  -28.3300   24.1402 H   0  0  0  0  0  0
  -20.5621  -26.2332   23.3631 H   0  0  0  0  0  0
  -21.6634  -26.7441   22.1234 H   0  0  0  0  0  0
  -19.6889  -25.6312   21.1249 H   0  0  0  0  0  0
  -19.6681  -27.3224   20.6753 H   0  0  0  0  0  0
  -17.4173  -26.6698   21.4035 H   0  0  0  0  0  0
  -18.0318  -26.0107   22.9041 H   0  0  0  0  0  0
  -19.7941  -30.7275   24.2290 H   0  0  0  0  0  0
  -17.5040  -31.6304   24.5178 H   0  0  0  0  0  0
  -15.5360  -30.3062   23.7649 H   0  0  0  0  0  0
  -15.8657  -28.0883   22.7074 H   0  0  0  0  0  0
  -24.5872  -30.7166   25.7770 H   0  0  0  0  0  0
  -24.9022  -32.2897   26.4968 H   0  0  0  0  0  0
  -25.8067  -30.8826   27.0190 H   0  0  0  0  0  0
  -26.2957  -29.6749   24.1233 H   0  0  0  0  0  0
  -27.4068  -29.7305   25.4710 H   0  0  0  0  0  0
  -27.8809  -30.4308   23.9420 H   0  0  0  0  0  0
  -27.2626  -33.3626   26.2107 H   0  0  0  0  0  0
  -28.3825  -32.6985   25.0320 H   0  0  0  0  0  0
  -28.0756  -31.8495   26.5380 H   0  0  0  0  0  0
  -28.2605  -38.0063   24.7510 H   0  0  0  0  0  0
  -28.1033  -36.2598   24.6306 H   0  0  0  0  0  0
  -27.2269  -37.1442   25.8869 H   0  0  0  0  0  0
  -20.9367  -29.8758   21.6862 H   0  0  0  0  0  0
  -26.0150  -38.2844   24.1455 H   0  0  0  0  0  0
  -31.6411  -19.5410   19.0258 H   0  0  0  0  0  0
  -31.5734  -17.1092   19.2659 H   0  0  0  0  0  0
  -28.6192  -17.5129   22.3644 H   0  0  0  0  0  0
  -28.3221  -19.5984   23.4061 H   0  0  0  0  0  0
  -27.5574  -20.4711   22.0791 H   0  0  0  0  0  0
  -29.0618  -21.0697   22.8197 H   0  0  0  0  0  0
  -28.3198  -22.2027   20.9522 H   0  0  0  0  0  0
  -28.6390  -22.3328   19.2573 H   0  0  0  0  0  0
  -30.2273  -24.3378   19.7928 H   0  0  0  0  0  0
  -29.6676  -24.2464   21.4322 H   0  0  0  0  0  0
  -27.8834  -24.8382   19.0147 H   0  0  0  0  0  0
  -27.3234  -24.7705   20.6696 H   0  0  0  0  0  0
  -29.0805  -15.3383   21.4606 H   0  0  0  0  0  0
  1 25  1  0  0  0
  1 30  2  0  0  0
  1 82  1  0  0  0
  2  3  1  0  0  0
  2 25  1  0  0  0
  2 84  1  0  0  0
  2 85  1  0  0  0
  3  4  1  0  0  0
  3 86  1  0  0  0
  3 87  1  0  0  0
  4  5  1  0  0  0
  4 88  1  0  0  0
  4 89  1  0  0  0
  5  6  1  0  0  0
  5 26  1  0  0  0
  5 90  1  0  0  0
  6 25  1  0  0  0
  6 91  1  0  0  0
  6 92  1  0  0  0
  7  8  2  0  0  0
  7 26  1  0  0  0
  7 29  1  0  0  0
  8  9  1  0  0  0
  8 22  1  0  0  0
  9 10  1  0  0  0
  9 27  2  0  0  0
 10 11  2  0  0  0
 10 15  1  0  0  0
 11 12  1  0  0  0
 11 93  1  0  0  0
 12 13  2  0  0  0
 12 94  1  0  0  0
 13 14  1  0  0  0
 13 31  1  0  0  0
 14 15  2  0  0  0
 14 95  1  0  0  0
 15 96  1  0  0  0
 16 17  2  0  0  0
 16 21  1  0  0  0
 16 31  1  0  0  0
 17 18  1  0  0  0
 17 97  1  0  0  0
 18 19  2  0  0  0
 18 98  1  0  0  0
 19 20  1  0  0  0
 19 24  1  0  0  0
 20 21  2  0  0  0
 20 99  1  0  0  0
 21 23  1  0  0  0
 22 28  1  0  0  0
 22 32  2  0  0  0
 26 27  1  0  0  0
 28100  1  0  0  0
 28101  1  0  0  0
 29102  1  0  0  0
 29103  1  0  0  0
 33 34  1  0  0  0
 33 66  1  0  0  0
 33 70  2  0  0  0
 34 36  1  0  0  0
 34 59  1  0  0  0
 34104  1  0  0  0
 35 44  2  0  0  0
 35 45  1  0  0  0
 35 68  1  0  0  0
 36 56  1  0  0  0
 36105  1  0  0  0
 37 39  1  0  0  0
 37 47  1  0  0  0
 37 66  1  0  0  0
 37106  1  0  0  0
 38 43  2  0  0  0
 38 46  1  0  0  0
 38 47  1  0  0  0
 39 64  1  0  0  0
 39 67  2  0  0  0
 40 52  1  0  0  0
 40 53  2  0  0  0
 40 58  1  0  0  0
 41107  1  0  0  0
 41108  1  0  0  0
 41109  1  0  0  0
 41 48  1  0  0  0
 42 43  1  0  0  0
 42 66  1  0  0  0
 42110  1  0  0  0
 42111  1  0  0  0
 43 44  1  0  0  0
 44112  1  0  0  0
 45 46  2  0  0  0
 45113  1  0  0  0
 46114  1  0  0  0
 47115  1  0  0  0
 47116  1  0  0  0
 48 56  1  0  0  0
 48 65  1  0  0  0
 48117  1  0  0  0
 49 50  1  0  0  0
 49 53  1  0  0  0
 49 64  1  0  0  0
 49118  1  0  0  0
 50 51  1  0  0  0
 50119  1  0  0  0
 50120  1  0  0  0
 51 52  1  0  0  0
 51121  1  0  0  0
 51122  1  0  0  0
 52123  1  0  0  0
 52124  1  0  0  0
 53 54  1  0  0  0
 54 55  2  0  0  0
 54125  1  0  0  0
 55 57  1  0  0  0
 55126  1  0  0  0
 56 69  2  0  0  0
 57 58  2  0  0  0
 57127  1  0  0  0
 58128  1  0  0  0
 59 60  1  0  0  0
 59 61  1  0  0  0
 59 62  1  0  0  0
 60129  1  0  0  0
 60130  1  0  0  0
 60131  1  0  0  0
 61132  1  0  0  0
 61133  1  0  0  0
 61134  1  0  0  0
 62135  1  0  0  0
 62136  1  0  0  0
 62137  1  0  0  0
 63 65  1  0  0  0
 63138  1  0  0  0
 63139  1  0  0  0
 63140  1  0  0  0
 64141  1  0  0  0
 65142  1  0  0  0
 68 81  1  0  0  0
 71 72  2  0  0  0
 71 74  1  0  0  0
 71143  1  0  0  0
 72 76  1  0  0  0
 72144  1  0  0  0
 73 75  1  0  0  0
 73 76  2  0  0  0
 73145  1  0  0  0
 74 75  2  0  0  0
 74 77  1  0  0  0
 75 78  1  0  0  0
 76 82  1  0  0  0
 77 79  1  0  0  0
 77 83  2  0  0  0
 78146  1  0  0  0
 78147  1  0  0  0
 78148  1  0  0  0
 79 80  1  0  0  0
 79149  1  0  0  0
 79150  1  0  0  0
 80 81  1  0  0  0
 80151  1  0  0  0
 80152  1  0  0  0
 81153  1  0  0  0
 81154  1  0  0  0
 82155  1  0  0  0
M  ISO  4   1 100  68 101  81 101  82 100
M  END
> <chiral flag>
0

> <version>
0

> <s_m_source_file>
/data/baiqing/PycharmProjects/Reinvent-master-3.2/result/LINK_invent/BTK/process_docking_weight1_custom_product_contain_oxygen_bond_distance_aromatic_linkinvent_7_9_3/rearranged_h_0059.sdf

> <i_m_source_file_index>
54

> <r_mmod_Potential_Energy-OPLS-2005>
72.3189315795898

> <r_mmod_Stretch_Energy-OPLS-2005>
74.6097412109375

> <r_mmod_Bend_Energy-OPLS-2005>
130.679046630859

> <r_mmod_Torsional_Energy-OPLS-2005>
243.826629638672

> <r_mmod_Improper_Torsional_Energy-OPLS-2005>
4.30102205276489

> <r_mmod_Van_der_Waal_Energy-OPLS-2005>
151.567749023438

> <r_mmod_Electrostatic_Energy-OPLS-2005>
-349.7041015625

> <r_mmod_Solvation_Energy-OPLS-2005>
-218.950820922852

> <b_mmod_Minimization_Converged-OPLS-2005>
0

> <r_mmod_RMS_Derivative-OPLS-2005>
3.0055046081543

$$$$
54
                    3D
 Structure written by MMmdl.
159167  0  0  1  0            999 V2000
  -30.6701  -14.5106   20.5569 C   0  0  0  0  0  0
  -30.4295  -12.3279   19.4210 C   0  0  0  0  0  0
  -29.4951  -12.5027   18.2054 C   0  0  0  0  0  0
  -28.0166  -12.3550   18.6190 C   0  0  0  0  0  0
  -27.6567  -13.2026   19.8682 C   0  0  2  0  0  0
  -28.7007  -12.9987   20.9890 C   0  0  0  0  0  0
  -25.2574  -13.8140   20.5675 C   0  0  0  0  0  0
  -24.1829  -13.0423   20.9193 C   0  0  0  0  0  0
  -24.6378  -11.6888   20.8743 C   0  0  0  0  0  0
  -23.9048  -10.4277   21.0402 C   0  0  0  0  0  0
  -24.3610   -9.4196   21.9176 C   0  0  0  0  0  0
  -23.6288   -8.2233   22.0748 C   0  0  0  0  0  0
  -22.4270   -8.0274   21.3538 C   0  0  0  0  0  0
  -21.9900   -9.0247   20.4642 C   0  0  0  0  0  0
  -22.7224  -10.2124   20.3046 C   0  0  0  0  0  0
  -21.6851   -6.0729   22.5279 C   0  0  0  0  0  0
  -21.4016   -6.5637   23.8212 C   0  0  0  0  0  0
  -21.3657   -5.6790   24.9177 C   0  0  0  0  0  0
  -21.6043   -4.3052   24.7227 C   0  0  0  0  0  0
  -21.8821   -3.8144   23.4348 C   0  0  0  0  0  0
  -21.9197   -4.6959   22.3405 C   0  0  0  0  0  0
  -22.7852  -13.5230   21.1857 C   0  0  0  0  0  0
  -22.1659   -4.2146   21.0983 F   0  0  0  0  0  0
  -21.5629   -3.4537   25.7738 F   0  0  0  0  0  0
  -30.0249  -13.3178   20.4304 N   0  0  0  0  0  0
  -26.2997  -12.9297   20.3337 N   0  0  0  0  0  0
  -25.9303  -11.6467   20.5769 N   0  0  0  0  0  0
  -22.0491  -12.8226   22.0416 N   0  0  0  0  0  0
  -25.4289  -15.1857   20.4056 N   0  0  0  0  0  0
  -31.8239  -14.6916   20.1566 O   0  0  0  0  0  0
  -21.6637   -6.8869   21.4237 O   0  0  0  0  0  0
  -22.3541  -14.5538   20.6699 O   0  0  0  0  0  0
  -24.6162  -31.8651   23.2086 C   0  0  0  0  0  0
  -25.9048  -32.4814   23.8386 C   0  0  1  0  0  0
  -27.2393  -27.4104   20.0879 C   0  0  0  0  0  0
  -25.5897  -33.8617   24.2313 N   0  0  0  0  0  0
  -23.4046  -30.4893   21.5492 C   0  0  2  0  0  0
  -24.8498  -28.9489   20.1162 C   0  0  0  0  0  0
  -22.7408  -29.4649   22.4974 C   0  0  0  0  0  0
  -18.0277  -28.1371   22.8506 C   0  0  0  0  0  0
  -24.1485  -36.7314   23.2643 C   0  0  0  0  0  0
  -25.9358  -30.8221   21.3654 C   0  0  0  0  0  0
  -26.0112  -29.4543   20.7121 C   0  0  0  0  0  0
  -27.2028  -28.6914   20.6954 C   0  0  0  0  0  0
  -26.0470  -26.9155   19.5080 C   0  0  0  0  0  0
  -24.8633  -27.6790   19.5156 C   0  0  0  0  0  0
  -23.6130  -29.8188   20.1647 C   0  0  0  0  0  0
  -25.4111  -36.3113   24.0335 C   0  0  1  0  0  0
  -20.5866  -28.3665   23.1309 C   0  0  2  0  0  0
  -20.6758  -26.9398   22.5413 C   0  0  0  0  0  0
  -19.5740  -26.6381   21.5211 C   0  0  0  0  0  0
  -18.1924  -26.7923   22.1628 C   0  0  0  0  0  0
  -19.1527  -28.8832   23.2910 C   0  0  0  0  0  0
  -18.9453  -30.1438   23.8921 C   0  0  0  0  0  0
  -17.6455  -30.6579   24.0565 C   0  0  0  0  0  0
  -25.9033  -34.9475   23.5122 C   0  0  0  0  0  0
  -16.5347  -29.9081   23.6325 C   0  0  0  0  0  0
  -16.7265  -28.6491   23.0360 C   0  0  0  0  0  0
  -26.4474  -31.6612   25.0729 C   0  0  0  0  0  0
  -25.3740  -31.3723   26.1478 C   0  0  0  0  0  0
  -27.0312  -30.3057   24.6124 C   0  0  0  0  0  0
  -27.6046  -32.4345   25.7484 C   0  0  0  0  0  0
  -27.5583  -37.1814   24.8466 C   0  0  0  0  0  0
  -21.4131  -29.3040   22.3716 N   0  0  0  0  0  0
  -26.4301  -37.3794   23.9403 N   0  0  0  0  0  0
  -24.6709  -31.0730   22.0998 N   0  0  0  0  0  0
  -23.4167  -28.8187   23.3021 O   0  0  0  0  0  0
  -28.4349  -26.7068   20.1032 O   0  0  0  0  0  0
  -26.5597  -34.8923   22.4686 O   0  0  0  0  0  0
  -23.5353  -32.1410   23.7472 O   0  0  0  0  0  0
  -31.5297  -18.5788   22.3806 C   0  0  0  0  0  0
  -30.9713  -19.6090   21.6002 C   0  0  0  0  0  0
  -31.1892  -17.2378   22.1351 C   0  0  0  0  0  0
  -30.0513  -19.3221   20.5674 C   0  0  0  0  0  0
  -29.6586  -17.9542   20.3549 C   0  0  0  0  0  0
  -30.2606  -16.9099   21.1254 C   0  0  0  0  0  0
  -29.6268  -20.4662   19.7148 C   0  0  0  0  0  0
  -28.6134  -17.5671   19.3099 C   0  0  0  0  0  0
  -28.6605  -24.1927   20.2593 C   0  0  0  0  0  0
  -28.9194  -22.8980   19.4318 C   0  0  0  0  0  0
  -28.6082  -25.4723   19.3727 C   0  0  0  0  0  0
  -29.6756  -20.3284   18.3908 N   0  0  0  0  0  0
  -29.8875  -15.5366   20.9600 N   0  0  0  0  0  0
  -29.2516  -21.6695   20.2166 N   0  3  0  0  0  0
  -31.4713  -12.4449   19.1176 H   0  0  0  0  0  0
  -30.3483  -11.3192   19.8293 H   0  0  0  0  0  0
  -29.7417  -11.7722   17.4334 H   0  0  0  0  0  0
  -29.6532  -13.4847   17.7568 H   0  0  0  0  0  0
  -27.8350  -11.2995   18.8234 H   0  0  0  0  0  0
  -27.3642  -12.6190   17.7850 H   0  0  0  0  0  0
  -27.6921  -14.2460   19.5566 H   0  0  0  0  0  0
  -28.6892  -11.9635   21.3335 H   0  0  0  0  0  0
  -28.4618  -13.6018   21.8662 H   0  0  0  0  0  0
  -25.2747   -9.5680   22.4752 H   0  0  0  0  0  0
  -24.0000   -7.4626   22.7460 H   0  0  0  0  0  0
  -21.0835   -8.8766   19.8947 H   0  0  0  0  0  0
  -22.3680  -10.9670   19.6164 H   0  0  0  0  0  0
  -21.2001   -7.6142   23.9716 H   0  0  0  0  0  0
  -21.1479   -6.0518   25.9081 H   0  0  0  0  0  0
  -22.0603   -2.7605   23.2853 H   0  0  0  0  0  0
  -22.4112  -11.9890   22.4805 H   0  0  0  0  0  0
  -21.1100  -13.1245   22.2608 H   0  0  0  0  0  0
  -24.6568  -15.8359   20.5044 H   0  0  0  0  0  0
  -26.2649  -15.6212   20.0415 H   0  0  0  0  0  0
  -26.7109  -32.5507   23.1135 H   0  0  0  0  0  0
  -25.0058  -33.9790   25.0465 H   0  0  0  0  0  0
  -22.6962  -31.3082   21.4089 H   0  0  0  0  0  0
  -23.3747  -35.9647   23.3316 H   0  0  0  0  0  0
  -24.3576  -36.8922   22.2056 H   0  0  0  0  0  0
  -23.7237  -37.6524   23.6645 H   0  0  0  0  0  0
  -26.0526  -31.5874   20.5972 H   0  0  0  0  0  0
  -26.8228  -30.8739   21.9857 H   0  0  0  0  0  0
  -28.1004  -29.0835   21.1532 H   0  0  0  0  0  0
  -25.9933  -25.9369   19.0571 H   0  0  0  0  0  0
  -23.9659  -27.2787   19.0642 H   0  0  0  0  0  0
  -23.7205  -30.5925   19.4032 H   0  0  0  0  0  0
  -22.7367  -29.2379   19.8707 H   0  0  0  0  0  0
  -25.1290  -36.1983   25.0830 H   0  0  0  0  0  0
  -20.9974  -28.3228   24.1422 H   0  0  0  0  0  0
  -20.5649  -26.2277   23.3601 H   0  0  0  0  0  0
  -21.6627  -26.7427   22.1213 H   0  0  0  0  0  0
  -19.6893  -25.6293   21.1238 H   0  0  0  0  0  0
  -19.6676  -27.3186   20.6739 H   0  0  0  0  0  0
  -17.4189  -26.6685   21.4030 H   0  0  0  0  0  0
  -18.0326  -26.0048   22.9006 H   0  0  0  0  0  0
  -19.7928  -30.7251   24.2298 H   0  0  0  0  0  0
  -17.5009  -31.6266   24.5159 H   0  0  0  0  0  0
  -15.5349  -30.2989   23.7629 H   0  0  0  0  0  0
  -15.8667  -28.0807   22.7073 H   0  0  0  0  0  0
  -24.5886  -30.7105   25.7807 H   0  0  0  0  0  0
  -24.8962  -32.2883   26.4962 H   0  0  0  0  0  0
  -25.8090  -30.8854   27.0214 H   0  0  0  0  0  0
  -26.2858  -29.6816   24.1179 H   0  0  0  0  0  0
  -27.4080  -29.7306   25.4593 H   0  0  0  0  0  0
  -27.8692  -30.4383   23.9278 H   0  0  0  0  0  0
  -27.2654  -33.3625   26.2099 H   0  0  0  0  0  0
  -28.3824  -32.6949   25.0292 H   0  0  0  0  0  0
  -28.0745  -31.8454   26.5370 H   0  0  0  0  0  0
  -28.2612  -38.0101   24.7504 H   0  0  0  0  0  0
  -28.1069  -36.2636   24.6298 H   0  0  0  0  0  0
  -27.2300  -37.1472   25.8870 H   0  0  0  0  0  0
  -20.9281  -29.8775   21.6958 H   0  0  0  0  0  0
  -26.0194  -38.2877   24.1395 H   0  0  0  0  0  0
  -32.2364  -18.8142   23.1640 H   0  0  0  0  0  0
  -31.2875  -20.6271   21.7821 H   0  0  0  0  0  0
  -31.6317  -16.4611   22.7427 H   0  0  0  0  0  0
  -27.9596  -18.3934   19.0336 H   0  0  0  0  0  0
  -27.9588  -16.7825   19.6858 H   0  0  0  0  0  0
  -29.1004  -17.1928   18.4089 H   0  0  0  0  0  0
  -29.4401  -24.3135   21.0121 H   0  0  0  0  0  0
  -27.7191  -24.0975   20.8000 H   0  0  0  0  0  0
  -29.7525  -23.0898   18.7529 H   0  0  0  0  0  0
  -28.0524  -22.6964   18.8003 H   0  0  0  0  0  0
  -27.9105  -25.3503   18.5467 H   0  0  0  0  0  0
  -29.5756  -25.5646   18.8785 H   0  0  0  0  0  0
  -30.0328  -19.4675   18.0055 H   0  0  0  0  0  0
  -29.4159  -21.0622   17.7547 H   0  0  0  0  0  0
  -28.9183  -15.3104   21.1162 H   0  0  0  0  0  0
  -29.1648  -21.7255   21.2250 H   0  0  0  0  0  0
  1 25  1  0  0  0
  1 30  2  0  0  0
  1 83  1  0  0  0
  2  3  1  0  0  0
  2 25  1  0  0  0
  2 85  1  0  0  0
  2 86  1  0  0  0
  3  4  1  0  0  0
  3 87  1  0  0  0
  3 88  1  0  0  0
  4  5  1  0  0  0
  4 89  1  0  0  0
  4 90  1  0  0  0
  5  6  1  0  0  0
  5 26  1  0  0  0
  5 91  1  0  0  0
  6 25  1  0  0  0
  6 92  1  0  0  0
  6 93  1  0  0  0
  7  8  2  0  0  0
  7 26  1  0  0  0
  7 29  1  0  0  0
  8  9  1  0  0  0
  8 22  1  0  0  0
  9 10  1  0  0  0
  9 27  2  0  0  0
 10 11  2  0  0  0
 10 15  1  0  0  0
 11 12  1  0  0  0
 11 94  1  0  0  0
 12 13  2  0  0  0
 12 95  1  0  0  0
 13 14  1  0  0  0
 13 31  1  0  0  0
 14 15  2  0  0  0
 14 96  1  0  0  0
 15 97  1  0  0  0
 16 17  2  0  0  0
 16 21  1  0  0  0
 16 31  1  0  0  0
 17 18  1  0  0  0
 17 98  1  0  0  0
 18 19  2  0  0  0
 18 99  1  0  0  0
 19 20  1  0  0  0
 19 24  1  0  0  0
 20 21  2  0  0  0
 20100  1  0  0  0
 21 23  1  0  0  0
 22 28  1  0  0  0
 22 32  2  0  0  0
 26 27  1  0  0  0
 28101  1  0  0  0
 28102  1  0  0  0
 29103  1  0  0  0
 29104  1  0  0  0
 33 34  1  0  0  0
 33 66  1  0  0  0
 33 70  2  0  0  0
 34 36  1  0  0  0
 34 59  1  0  0  0
 34105  1  0  0  0
 35 44  2  0  0  0
 35 45  1  0  0  0
 35 68  1  0  0  0
 36 56  1  0  0  0
 36106  1  0  0  0
 37 39  1  0  0  0
 37 47  1  0  0  0
 37 66  1  0  0  0
 37107  1  0  0  0
 38 43  2  0  0  0
 38 46  1  0  0  0
 38 47  1  0  0  0
 39 64  1  0  0  0
 39 67  2  0  0  0
 40 52  1  0  0  0
 40 53  2  0  0  0
 40 58  1  0  0  0
 41108  1  0  0  0
 41109  1  0  0  0
 41110  1  0  0  0
 41 48  1  0  0  0
 42 43  1  0  0  0
 42 66  1  0  0  0
 42111  1  0  0  0
 42112  1  0  0  0
 43 44  1  0  0  0
 44113  1  0  0  0
 45 46  2  0  0  0
 45114  1  0  0  0
 46115  1  0  0  0
 47116  1  0  0  0
 47117  1  0  0  0
 48 56  1  0  0  0
 48 65  1  0  0  0
 48118  1  0  0  0
 49 50  1  0  0  0
 49 53  1  0  0  0
 49 64  1  0  0  0
 49119  1  0  0  0
 50 51  1  0  0  0
 50120  1  0  0  0
 50121  1  0  0  0
 51 52  1  0  0  0
 51122  1  0  0  0
 51123  1  0  0  0
 52124  1  0  0  0
 52125  1  0  0  0
 53 54  1  0  0  0
 54 55  2  0  0  0
 54126  1  0  0  0
 55 57  1  0  0  0
 55127  1  0  0  0
 56 69  2  0  0  0
 57 58  2  0  0  0
 57128  1  0  0  0
 58129  1  0  0  0
 59 60  1  0  0  0
 59 61  1  0  0  0
 59 62  1  0  0  0
 60130  1  0  0  0
 60131  1  0  0  0
 60132  1  0  0  0
 61133  1  0  0  0
 61134  1  0  0  0
 61135  1  0  0  0
 62136  1  0  0  0
 62137  1  0  0  0
 62138  1  0  0  0
 63 65  1  0  0  0
 63139  1  0  0  0
 63140  1  0  0  0
 63141  1  0  0  0
 64142  1  0  0  0
 65143  1  0  0  0
 68 81  1  0  0  0
 71 72  2  0  0  0
 71 73  1  0  0  0
 71144  1  0  0  0
 72 74  1  0  0  0
 72145  1  0  0  0
 73 76  2  0  0  0
 73146  1  0  0  0
 74 75  2  0  0  0
 74 77  1  0  0  0
 75 76  1  0  0  0
 75 78  1  0  0  0
 76 83  1  0  0  0
 77 82  1  0  0  0
 77 84  2  0  0  0
 78147  1  0  0  0
 78148  1  0  0  0
 78149  1  0  0  0
 79 80  1  0  0  0
 79 81  1  0  0  0
 79150  1  0  0  0
 79151  1  0  0  0
 80 84  1  0  0  0
 80152  1  0  0  0
 80153  1  0  0  0
 81154  1  0  0  0
 81155  1  0  0  0
 82156  1  0  0  0
 82157  1  0  0  0
 83158  1  0  0  0
 84159  1  0  0  0
M  CHG  1  84   1
M  ISO  4   1 100  68 101  81 101  83 100
M  END
> <chiral flag>
0

> <version>
0

> <s_m_source_file>
/data/baiqing/PycharmProjects/Reinvent-master-3.2/result/LINK_invent/BTK/process_docking_weight1_custom_product_contain_oxygen_bond_distance_aromatic_linkinvent_7_9_3/rearranged_h_0059.sdf

> <i_m_source_file_index>
55

> <r_mmod_Potential_Energy-OPLS-2005>
-234.468856811523

> <r_mmod_Stretch_Energy-OPLS-2005>
46.2636451721191

> <r_mmod_Bend_Energy-OPLS-2005>
110.056274414062

> <r_mmod_Torsional_Energy-OPLS-2005>
226.434555053711

> <r_mmod_Improper_Torsional_Energy-OPLS-2005>
5.26702690124512

> <r_mmod_Van_der_Waal_Energy-OPLS-2005>
156.069961547852

> <r_mmod_Electrostatic_Energy-OPLS-2005>
-380.093872070312

> <r_mmod_Solvation_Energy-OPLS-2005>
-416.052124023438

> <b_mmod_Minimization_Converged-OPLS-2005>
0

> <r_mmod_RMS_Derivative-OPLS-2005>
1.19871091842651

$$$$
55
                    3D
 Structure written by MMmdl.
157165  0  0  1  0            999 V2000
  -30.7846  -14.4021   20.6130 C   0  0  0  0  0  0
  -30.4021  -12.2842   19.4190 C   0  0  0  0  0  0
  -29.4817  -12.5083   18.2046 C   0  0  0  0  0  0
  -28.0069  -12.3708   18.6200 C   0  0  0  0  0  0
  -27.6617  -13.2129   19.8773 C   0  0  2  0  0  0
  -28.7044  -13.0095   21.0016 C   0  0  0  0  0  0
  -25.2581  -13.8195   20.5690 C   0  0  0  0  0  0
  -24.1835  -13.0461   20.9191 C   0  0  0  0  0  0
  -24.6403  -11.6932   20.8748 C   0  0  0  0  0  0
  -23.9069  -10.4306   21.0417 C   0  0  0  0  0  0
  -24.3622   -9.4222   21.9188 C   0  0  0  0  0  0
  -23.6307   -8.2250   22.0747 C   0  0  0  0  0  0
  -22.4282   -8.0289   21.3541 C   0  0  0  0  0  0
  -21.9927   -9.0261   20.4635 C   0  0  0  0  0  0
  -22.7251  -10.2148   20.3057 C   0  0  0  0  0  0
  -21.6858   -6.0748   22.5286 C   0  0  0  0  0  0
  -21.4009   -6.5647   23.8217 C   0  0  0  0  0  0
  -21.3662   -5.6796   24.9175 C   0  0  0  0  0  0
  -21.6044   -4.3063   24.7227 C   0  0  0  0  0  0
  -21.8818   -3.8158   23.4348 C   0  0  0  0  0  0
  -21.9191   -4.6973   22.3407 C   0  0  0  0  0  0
  -22.7848  -13.5241   21.1860 C   0  0  0  0  0  0
  -22.1657   -4.2168   21.0985 F   0  0  0  0  0  0
  -21.5637   -3.4543   25.7737 F   0  0  0  0  0  0
  -30.0437  -13.2734   20.4470 N   0  0  0  0  0  0
  -26.3028  -12.9368   20.3395 N   0  0  0  0  0  0
  -25.9336  -11.6525   20.5795 N   0  0  0  0  0  0
  -22.0489  -12.8215   22.0403 N   0  0  0  0  0  0
  -25.4302  -15.1905   20.4066 N   0  0  0  0  0  0
  -31.8557  -14.5763   20.0217 O   0  0  0  0  0  0
  -21.6639   -6.8892   21.4249 O   0  0  0  0  0  0
  -22.3530  -14.5555   20.6731 O   0  0  0  0  0  0
  -24.6125  -31.8698   23.2114 C   0  0  0  0  0  0
  -25.9034  -32.4825   23.8405 C   0  0  1  0  0  0
  -27.2298  -27.4541   20.1036 C   0  0  0  0  0  0
  -25.5899  -33.8624   24.2342 N   0  0  0  0  0  0
  -23.3986  -30.4924   21.5537 C   0  0  2  0  0  0
  -24.8435  -28.9599   20.1156 C   0  0  0  0  0  0
  -22.7391  -29.4653   22.5018 C   0  0  0  0  0  0
  -18.0264  -28.1362   22.8491 C   0  0  0  0  0  0
  -24.1492  -36.7314   23.2636 C   0  0  0  0  0  0
  -25.9234  -30.8442   21.3587 C   0  0  0  0  0  0
  -26.0036  -29.4811   20.7042 C   0  0  0  0  0  0
  -27.2023  -28.7367   20.6898 C   0  0  0  0  0  0
  -26.0584  -26.9398   19.5103 C   0  0  0  0  0  0
  -24.8642  -27.6869   19.5164 C   0  0  0  0  0  0
  -23.6040  -29.8240   20.1672 C   0  0  0  0  0  0
  -25.4111  -36.3108   24.0334 C   0  0  1  0  0  0
  -20.5856  -28.3644   23.1325 C   0  0  2  0  0  0
  -20.6752  -26.9385   22.5415 C   0  0  0  0  0  0
  -19.5727  -26.6375   21.5214 C   0  0  0  0  0  0
  -18.1900  -26.7912   22.1619 C   0  0  0  0  0  0
  -19.1515  -28.8823   23.2897 C   0  0  0  0  0  0
  -18.9450  -30.1437   23.8903 C   0  0  0  0  0  0
  -17.6456  -30.6579   24.0566 C   0  0  0  0  0  0
  -25.9045  -34.9469   23.5136 C   0  0  0  0  0  0
  -16.5347  -29.9073   23.6345 C   0  0  0  0  0  0
  -16.7256  -28.6486   23.0366 C   0  0  0  0  0  0
  -26.4478  -31.6601   25.0734 C   0  0  0  0  0  0
  -25.3736  -31.3702   26.1480 C   0  0  0  0  0  0
  -27.0322  -30.3051   24.6095 C   0  0  0  0  0  0
  -27.6063  -32.4321   25.7484 C   0  0  0  0  0  0
  -27.5580  -37.1800   24.8461 C   0  0  0  0  0  0
  -21.4127  -29.3015   22.3746 N   0  0  0  0  0  0
  -26.4296  -37.3791   23.9412 N   0  0  0  0  0  0
  -24.6632  -31.0827   22.0999 N   0  0  0  0  0  0
  -23.4164  -28.8210   23.3066 O   0  0  0  0  0  0
  -28.3954  -26.7268   20.1074 O   0  0  0  0  0  0
  -26.5593  -34.8895   22.4693 O   0  0  0  0  0  0
  -23.5338  -32.1456   23.7538 O   0  0  0  0  0  0
  -32.9276  -17.8412   22.3587 C   0  0  0  0  0  0
  -32.2438  -19.0548   22.1795 C   0  0  0  0  0  0
  -32.2729  -16.6220   22.1179 C   0  0  0  0  0  0
  -30.2284  -17.8281   21.5432 C   0  0  0  0  0  0
  -30.8918  -19.0637   21.7587 C   0  0  0  0  0  0
  -30.9246  -16.6024   21.6886 C   0  0  0  0  0  0
  -30.6668  -21.4629   21.1628 C   0  0  0  0  0  0
  -29.8227  -22.7228   21.4025 C   0  0  0  0  0  0
  -28.6362  -22.9032   20.4269 C   0  0  0  0  0  0
  -28.5387  -24.3042   19.7799 C   0  0  0  0  0  0
  -28.3255  -25.4628   20.7744 C   0  0  0  0  0  0
  -30.1784  -20.2907   21.6129 N   0  0  0  0  0  0
  -30.2760  -15.3623   21.4052 N   0  0  0  0  0  0
  -31.7475  -21.5675   20.5769 O   0  0  0  0  0  0
  -31.4489  -12.3434   19.1171 H   0  0  0  0  0  0
  -30.2714  -11.2762   19.8172 H   0  0  0  0  0  0
  -29.7166  -11.7925   17.4166 H   0  0  0  0  0  0
  -29.6562  -13.5001   17.7824 H   0  0  0  0  0  0
  -27.8150  -11.3151   18.8144 H   0  0  0  0  0  0
  -27.3575  -12.6480   17.7899 H   0  0  0  0  0  0
  -27.7030  -14.2594   19.5737 H   0  0  0  0  0  0
  -28.6662  -11.9852   21.3740 H   0  0  0  0  0  0
  -28.4675  -13.6418   21.8583 H   0  0  0  0  0  0
  -25.2767   -9.5703   22.4760 H   0  0  0  0  0  0
  -24.0027   -7.4635   22.7462 H   0  0  0  0  0  0
  -21.0866   -8.8785   19.8925 H   0  0  0  0  0  0
  -22.3721  -10.9690   19.6164 H   0  0  0  0  0  0
  -21.1989   -7.6149   23.9733 H   0  0  0  0  0  0
  -21.1486   -6.0518   25.9081 H   0  0  0  0  0  0
  -22.0592   -2.7624   23.2841 H   0  0  0  0  0  0
  -22.4091  -11.9861   22.4773 H   0  0  0  0  0  0
  -21.1102  -13.1226   22.2602 H   0  0  0  0  0  0
  -24.6674  -15.8513   20.5013 H   0  0  0  0  0  0
  -26.2884  -15.6229   20.0877 H   0  0  0  0  0  0
  -26.7111  -32.5553   23.1178 H   0  0  0  0  0  0
  -25.0081  -33.9804   25.0505 H   0  0  0  0  0  0
  -22.6852  -31.3067   21.4141 H   0  0  0  0  0  0
  -23.3747  -35.9652   23.3323 H   0  0  0  0  0  0
  -24.3593  -36.8931   22.2051 H   0  0  0  0  0  0
  -23.7247  -37.6515   23.6658 H   0  0  0  0  0  0
  -26.0346  -31.6130   20.5924 H   0  0  0  0  0  0
  -26.8095  -30.8942   21.9783 H   0  0  0  0  0  0
  -28.1016  -29.1329   21.1407 H   0  0  0  0  0  0
  -26.0693  -25.9669   19.0422 H   0  0  0  0  0  0
  -23.9710  -27.2807   19.0623 H   0  0  0  0  0  0
  -23.7002  -30.5967   19.4041 H   0  0  0  0  0  0
  -22.7278  -29.2382   19.8814 H   0  0  0  0  0  0
  -25.1287  -36.1974   25.0827 H   0  0  0  0  0  0
  -20.9940  -28.3207   24.1445 H   0  0  0  0  0  0
  -20.5687  -26.2246   23.3593 H   0  0  0  0  0  0
  -21.6613  -26.7436   22.1188 H   0  0  0  0  0  0
  -19.6910  -25.6288   21.1225 H   0  0  0  0  0  0
  -19.6692  -27.3202   20.6751 H   0  0  0  0  0  0
  -17.4189  -26.6690   21.4002 H   0  0  0  0  0  0
  -18.0280  -26.0033   22.8988 H   0  0  0  0  0  0
  -19.7932  -30.7239   24.2264 H   0  0  0  0  0  0
  -17.5013  -31.6261   24.5148 H   0  0  0  0  0  0
  -15.5334  -30.2973   23.7672 H   0  0  0  0  0  0
  -15.8651  -28.0804   22.7086 H   0  0  0  0  0  0
  -24.5905  -30.7063   25.7815 H   0  0  0  0  0  0
  -24.8919  -32.2850   26.4938 H   0  0  0  0  0  0
  -25.8070  -30.8861   27.0240 H   0  0  0  0  0  0
  -26.2870  -29.6777   24.1189 H   0  0  0  0  0  0
  -27.4169  -29.7320   25.4543 H   0  0  0  0  0  0
  -27.8661  -30.4407   23.9199 H   0  0  0  0  0  0
  -27.2716  -33.3646   26.2042 H   0  0  0  0  0  0
  -28.3866  -32.6851   25.0293 H   0  0  0  0  0  0
  -28.0718  -31.8445   26.5411 H   0  0  0  0  0  0
  -28.2585  -38.0099   24.7510 H   0  0  0  0  0  0
  -28.1077  -36.2633   24.6286 H   0  0  0  0  0  0
  -27.2290  -37.1444   25.8854 H   0  0  0  0  0  0
  -20.9281  -29.8735   21.6972 H   0  0  0  0  0  0
  -26.0189  -38.2877   24.1396 H   0  0  0  0  0  0
  -33.9610  -17.8441   22.6758 H   0  0  0  0  0  0
  -32.7689  -19.9787   22.3832 H   0  0  0  0  0  0
  -32.8237  -15.7012   22.2492 H   0  0  0  0  0  0
  -29.1960  -17.8247   21.2220 H   0  0  0  0  0  0
  -30.5015  -23.5748   21.3297 H   0  0  0  0  0  0
  -29.4659  -22.7226   22.4330 H   0  0  0  0  0  0
  -27.7087  -22.6831   20.9581 H   0  0  0  0  0  0
  -28.6936  -22.1626   19.6273 H   0  0  0  0  0  0
  -27.7157  -24.2979   19.0655 H   0  0  0  0  0  0
  -29.4377  -24.4933   19.1944 H   0  0  0  0  0  0
  -29.1186  -25.4595   21.5233 H   0  0  0  0  0  0
  -27.3927  -25.3292   21.3284 H   0  0  0  0  0  0
  -29.2063  -20.2851   21.8896 H   0  0  0  0  0  0
  -29.3330  -15.2297   21.7411 H   0  0  0  0  0  0
  1 25  1  0  0  0
  1 30  2  0  0  0
  1 83  1  0  0  0
  2  3  1  0  0  0
  2 25  1  0  0  0
  2 85  1  0  0  0
  2 86  1  0  0  0
  3  4  1  0  0  0
  3 87  1  0  0  0
  3 88  1  0  0  0
  4  5  1  0  0  0
  4 89  1  0  0  0
  4 90  1  0  0  0
  5  6  1  0  0  0
  5 26  1  0  0  0
  5 91  1  0  0  0
  6 25  1  0  0  0
  6 92  1  0  0  0
  6 93  1  0  0  0
  7  8  2  0  0  0
  7 26  1  0  0  0
  7 29  1  0  0  0
  8  9  1  0  0  0
  8 22  1  0  0  0
  9 10  1  0  0  0
  9 27  2  0  0  0
 10 11  2  0  0  0
 10 15  1  0  0  0
 11 12  1  0  0  0
 11 94  1  0  0  0
 12 13  2  0  0  0
 12 95  1  0  0  0
 13 14  1  0  0  0
 13 31  1  0  0  0
 14 15  2  0  0  0
 14 96  1  0  0  0
 15 97  1  0  0  0
 16 17  2  0  0  0
 16 21  1  0  0  0
 16 31  1  0  0  0
 17 18  1  0  0  0
 17 98  1  0  0  0
 18 19  2  0  0  0
 18 99  1  0  0  0
 19 20  1  0  0  0
 19 24  1  0  0  0
 20 21  2  0  0  0
 20100  1  0  0  0
 21 23  1  0  0  0
 22 28  1  0  0  0
 22 32  2  0  0  0
 26 27  1  0  0  0
 28101  1  0  0  0
 28102  1  0  0  0
 29103  1  0  0  0
 29104  1  0  0  0
 33 34  1  0  0  0
 33 66  1  0  0  0
 33 70  2  0  0  0
 34 36  1  0  0  0
 34 59  1  0  0  0
 34105  1  0  0  0
 35 44  2  0  0  0
 35 45  1  0  0  0
 35 68  1  0  0  0
 36 56  1  0  0  0
 36106  1  0  0  0
 37 39  1  0  0  0
 37 47  1  0  0  0
 37 66  1  0  0  0
 37107  1  0  0  0
 38 43  2  0  0  0
 38 46  1  0  0  0
 38 47  1  0  0  0
 39 64  1  0  0  0
 39 67  2  0  0  0
 40 52  1  0  0  0
 40 53  2  0  0  0
 40 58  1  0  0  0
 41108  1  0  0  0
 41109  1  0  0  0
 41110  1  0  0  0
 41 48  1  0  0  0
 42 43  1  0  0  0
 42 66  1  0  0  0
 42111  1  0  0  0
 42112  1  0  0  0
 43 44  1  0  0  0
 44113  1  0  0  0
 45 46  2  0  0  0
 45114  1  0  0  0
 46115  1  0  0  0
 47116  1  0  0  0
 47117  1  0  0  0
 48 56  1  0  0  0
 48 65  1  0  0  0
 48118  1  0  0  0
 49 50  1  0  0  0
 49 53  1  0  0  0
 49 64  1  0  0  0
 49119  1  0  0  0
 50 51  1  0  0  0
 50120  1  0  0  0
 50121  1  0  0  0
 51 52  1  0  0  0
 51122  1  0  0  0
 51123  1  0  0  0
 52124  1  0  0  0
 52125  1  0  0  0
 53 54  1  0  0  0
 54 55  2  0  0  0
 54126  1  0  0  0
 55 57  1  0  0  0
 55127  1  0  0  0
 56 69  2  0  0  0
 57 58  2  0  0  0
 57128  1  0  0  0
 58129  1  0  0  0
 59 60  1  0  0  0
 59 61  1  0  0  0
 59 62  1  0  0  0
 60130  1  0  0  0
 60131  1  0  0  0
 60132  1  0  0  0
 61133  1  0  0  0
 61134  1  0  0  0
 61135  1  0  0  0
 62136  1  0  0  0
 62137  1  0  0  0
 62138  1  0  0  0
 63 65  1  0  0  0
 63139  1  0  0  0
 63140  1  0  0  0
 63141  1  0  0  0
 64142  1  0  0  0
 65143  1  0  0  0
 68 81  1  0  0  0
 71 72  2  0  0  0
 71 73  1  0  0  0
 71144  1  0  0  0
 72 75  1  0  0  0
 72145  1  0  0  0
 73 76  2  0  0  0
 73146  1  0  0  0
 74 75  2  0  0  0
 74 76  1  0  0  0
 74147  1  0  0  0
 75 82  1  0  0  0
 76 83  1  0  0  0
 77 78  1  0  0  0
 77 82  1  0  0  0
 77 84  2  0  0  0
 78 79  1  0  0  0
 78148  1  0  0  0
 78149  1  0  0  0
 79 80  1  0  0  0
 79150  1  0  0  0
 79151  1  0  0  0
 80 81  1  0  0  0
 80152  1  0  0  0
 80153  1  0  0  0
 81154  1  0  0  0
 81155  1  0  0  0
 82156  1  0  0  0
 83157  1  0  0  0
M  ISO  4   1 100  68 101  81 101  83 100
M  END
> <chiral flag>
0

> <version>
0

> <s_m_source_file>
/data/baiqing/PycharmProjects/Reinvent-master-3.2/result/LINK_invent/BTK/process_docking_weight1_custom_product_contain_oxygen_bond_distance_aromatic_linkinvent_7_9_3/rearranged_h_0059.sdf

> <i_m_source_file_index>
56

> <r_mmod_Potential_Energy-OPLS-2005>
-39.010440826416

> <r_mmod_Stretch_Energy-OPLS-2005>
35.0459938049316

> <r_mmod_Bend_Energy-OPLS-2005>
90.2208404541016

> <r_mmod_Torsional_Energy-OPLS-2005>
272.779113769531

> <r_mmod_Improper_Torsional_Energy-OPLS-2005>
2.15276980400085

> <r_mmod_Van_der_Waal_Energy-OPLS-2005>
159.641143798828

> <r_mmod_Electrostatic_Energy-OPLS-2005>
-372.939605712891

> <r_mmod_Solvation_Energy-OPLS-2005>
-236.258087158203

> <b_mmod_Minimization_Converged-OPLS-2005>
0

> <r_mmod_RMS_Derivative-OPLS-2005>
2.73557949066162

$$$$
56
                    3D
 Structure written by MMmdl.
157165  0  0  1  0            999 V2000
  -30.7066  -14.4714   20.5451 C   0  0  0  0  0  0
  -30.4222  -12.2927   19.4406 C   0  0  0  0  0  0
  -29.5023  -12.4920   18.2160 C   0  0  0  0  0  0
  -28.0185  -12.3815   18.6158 C   0  0  0  0  0  0
  -27.6657  -13.2143   19.8779 C   0  0  2  0  0  0
  -28.7054  -13.0030   21.0046 C   0  0  0  0  0  0
  -25.2594  -13.8182   20.5664 C   0  0  0  0  0  0
  -24.1838  -13.0470   20.9175 C   0  0  0  0  0  0
  -24.6395  -11.6932   20.8734 C   0  0  0  0  0  0
  -23.9053  -10.4318   21.0400 C   0  0  0  0  0  0
  -24.3617   -9.4237   21.9167 C   0  0  0  0  0  0
  -23.6311   -8.2259   22.0726 C   0  0  0  0  0  0
  -22.4302   -8.0272   21.3513 C   0  0  0  0  0  0
  -21.9935   -9.0253   20.4627 C   0  0  0  0  0  0
  -22.7238  -10.2152   20.3039 C   0  0  0  0  0  0
  -21.6867   -6.0734   22.5252 C   0  0  0  0  0  0
  -21.4027   -6.5631   23.8190 C   0  0  0  0  0  0
  -21.3663   -5.6783   24.9153 C   0  0  0  0  0  0
  -21.6050   -4.3044   24.7213 C   0  0  0  0  0  0
  -21.8815   -3.8144   23.4325 C   0  0  0  0  0  0
  -21.9201   -4.6962   22.3389 C   0  0  0  0  0  0
  -22.7849  -13.5249   21.1828 C   0  0  0  0  0  0
  -22.1655   -4.2140   21.0971 F   0  0  0  0  0  0
  -21.5643   -3.4522   25.7729 F   0  0  0  0  0  0
  -30.0418  -13.2880   20.4552 N   0  0  0  0  0  0
  -26.3034  -12.9362   20.3359 N   0  0  0  0  0  0
  -25.9326  -11.6519   20.5762 N   0  0  0  0  0  0
  -22.0490  -12.8230   22.0379 N   0  0  0  0  0  0
  -25.4360  -15.1880   20.4037 N   0  0  0  0  0  0
  -31.8410  -14.6388   20.0880 O   0  0  0  0  0  0
  -21.6640   -6.8879   21.4221 O   0  0  0  0  0  0
  -22.3510  -14.5561   20.6695 O   0  0  0  0  0  0
  -24.6142  -31.8686   23.2112 C   0  0  0  0  0  0
  -25.9042  -32.4821   23.8394 C   0  0  1  0  0  0
  -27.2086  -27.4075   20.1007 C   0  0  0  0  0  0
  -25.5910  -33.8621   24.2319 N   0  0  0  0  0  0
  -23.4008  -30.5010   21.5520 C   0  0  2  0  0  0
  -24.8437  -28.9743   20.1096 C   0  0  0  0  0  0
  -22.7385  -29.4689   22.4943 C   0  0  0  0  0  0
  -18.0278  -28.1339   22.8503 C   0  0  0  0  0  0
  -24.1492  -36.7313   23.2638 C   0  0  0  0  0  0
  -25.9358  -30.8292   21.3705 C   0  0  0  0  0  0
  -26.0101  -29.4670   20.7082 C   0  0  0  0  0  0
  -27.1987  -28.6926   20.6996 C   0  0  0  0  0  0
  -26.0223  -26.9541   19.4736 C   0  0  0  0  0  0
  -24.8465  -27.7186   19.4880 C   0  0  0  0  0  0
  -23.6086  -29.8437   20.1627 C   0  0  0  0  0  0
  -25.4110  -36.3100   24.0336 C   0  0  1  0  0  0
  -20.5869  -28.3640   23.1284 C   0  0  2  0  0  0
  -20.6753  -26.9368   22.5393 C   0  0  0  0  0  0
  -19.5737  -26.6352   21.5184 C   0  0  0  0  0  0
  -18.1920  -26.7894   22.1619 C   0  0  0  0  0  0
  -19.1525  -28.8804   23.2909 C   0  0  0  0  0  0
  -18.9463  -30.1411   23.8916 C   0  0  0  0  0  0
  -17.6470  -30.6565   24.0547 C   0  0  0  0  0  0
  -25.9036  -34.9470   23.5115 C   0  0  0  0  0  0
  -16.5356  -29.9060   23.6317 C   0  0  0  0  0  0
  -16.7274  -28.6460   23.0371 C   0  0  0  0  0  0
  -26.4469  -31.6605   25.0727 C   0  0  0  0  0  0
  -25.3750  -31.3747   26.1496 C   0  0  0  0  0  0
  -27.0299  -30.3035   24.6131 C   0  0  0  0  0  0
  -27.6020  -32.4348   25.7514 C   0  0  0  0  0  0
  -27.5579  -37.1808   24.8462 C   0  0  0  0  0  0
  -21.4110  -29.3042   22.3689 N   0  0  0  0  0  0
  -26.4286  -37.3783   23.9404 N   0  0  0  0  0  0
  -24.6689  -31.0785   22.1021 N   0  0  0  0  0  0
  -23.4162  -28.8195   23.2951 O   0  0  0  0  0  0
  -28.3293  -26.5918   20.1674 O   0  0  0  0  0  0
  -26.5595  -34.8921   22.4673 O   0  0  0  0  0  0
  -23.5337  -32.1452   23.7513 O   0  0  0  0  0  0
  -30.1419  -18.3718   18.5893 C   0  0  0  0  0  0
  -29.7785  -19.4535   19.4119 C   0  0  0  0  0  0
  -30.2441  -17.0765   19.1246 C   0  0  0  0  0  0
  -29.6190  -17.9358   21.3153 C   0  0  0  0  0  0
  -29.5323  -19.2487   20.7868 C   0  0  0  0  0  0
  -29.9841  -16.8369   20.4963 C   0  0  0  0  0  0
  -28.6714  -22.8027   21.1228 C   0  0  0  0  0  0
  -30.9970  -21.9543   21.0713 C   0  0  0  0  0  0
  -29.1412  -20.4182   21.7024 C   0  0  0  0  0  0
  -29.1708  -24.2263   20.7406 C   0  0  0  0  0  0
  -28.0092  -25.1966   20.4042 C   0  0  0  0  0  0
  -29.9991  -15.5102   21.0353 N   0  0  0  0  0  0
  -29.5537  -21.7769   21.2659 N   0  0  0  0  0  0
  -27.4603  -22.6312   21.3047 O   0  0  0  0  0  0
  -31.4674  -12.3799   19.1423 H   0  0  0  0  0  0
  -30.3101  -11.2852   19.8456 H   0  0  0  0  0  0
  -29.7452  -11.7566   17.4487 H   0  0  0  0  0  0
  -29.6884  -13.4696   17.7681 H   0  0  0  0  0  0
  -27.7971  -11.3281   18.7853 H   0  0  0  0  0  0
  -27.3888  -12.6855   17.7800 H   0  0  0  0  0  0
  -27.7144  -14.2627   19.5859 H   0  0  0  0  0  0
  -28.6703  -11.9752   21.3657 H   0  0  0  0  0  0
  -28.4693  -13.6249   21.8698 H   0  0  0  0  0  0
  -25.2766   -9.5726   22.4730 H   0  0  0  0  0  0
  -24.0022   -7.4667   22.7453 H   0  0  0  0  0  0
  -21.0849   -8.8754   19.8972 H   0  0  0  0  0  0
  -22.3652  -10.9669   19.6141 H   0  0  0  0  0  0
  -21.1998   -7.6148   23.9689 H   0  0  0  0  0  0
  -21.1495   -6.0517   25.9055 H   0  0  0  0  0  0
  -22.0605   -2.7606   23.2823 H   0  0  0  0  0  0
  -22.4134  -11.9933   22.4823 H   0  0  0  0  0  0
  -21.1099  -13.1252   22.2556 H   0  0  0  0  0  0
  -24.6823  -15.8551   20.5162 H   0  0  0  0  0  0
  -26.2980  -15.6192   20.0912 H   0  0  0  0  0  0
  -26.7104  -32.5524   23.1147 H   0  0  0  0  0  0
  -25.0057  -33.9788   25.0464 H   0  0  0  0  0  0
  -22.6908  -31.3204   21.4187 H   0  0  0  0  0  0
  -23.3738  -35.9659   23.3307 H   0  0  0  0  0  0
  -24.3589  -36.8915   22.2047 H   0  0  0  0  0  0
  -23.7251  -37.6528   23.6651 H   0  0  0  0  0  0
  -26.0598  -31.6030   20.6118 H   0  0  0  0  0  0
  -26.8178  -30.8706   21.9964 H   0  0  0  0  0  0
  -28.0929  -29.0585   21.1855 H   0  0  0  0  0  0
  -25.9654  -26.0030   18.9688 H   0  0  0  0  0  0
  -23.9500  -27.3345   19.0209 H   0  0  0  0  0  0
  -23.7150  -30.6235   19.4080 H   0  0  0  0  0  0
  -22.7294  -29.2705   19.8670 H   0  0  0  0  0  0
  -25.1284  -36.1953   25.0824 H   0  0  0  0  0  0
  -21.0019  -28.3204   24.1387 H   0  0  0  0  0  0
  -20.5590  -26.2262   23.3587 H   0  0  0  0  0  0
  -21.6625  -26.7360   22.1225 H   0  0  0  0  0  0
  -19.6885  -25.6254   21.1217 H   0  0  0  0  0  0
  -19.6666  -27.3144   20.6695 H   0  0  0  0  0  0
  -17.4181  -26.6644   21.4028 H   0  0  0  0  0  0
  -18.0346  -26.0009   22.8991 H   0  0  0  0  0  0
  -19.7949  -30.7201   24.2290 H   0  0  0  0  0  0
  -17.5040  -31.6266   24.5116 H   0  0  0  0  0  0
  -15.5352  -30.2974   23.7623 H   0  0  0  0  0  0
  -15.8680  -28.0766   22.7106 H   0  0  0  0  0  0
  -24.5863  -30.7162   25.7844 H   0  0  0  0  0  0
  -24.9035  -32.2944   26.4980 H   0  0  0  0  0  0
  -25.8112  -30.8875   27.0229 H   0  0  0  0  0  0
  -26.2854  -29.6811   24.1160 H   0  0  0  0  0  0
  -27.4019  -29.7254   25.4600 H   0  0  0  0  0  0
  -27.8716  -30.4321   23.9320 H   0  0  0  0  0  0
  -27.2578  -33.3604   26.2148 H   0  0  0  0  0  0
  -28.3817  -32.6995   25.0360 H   0  0  0  0  0  0
  -28.0719  -31.8462   26.5405 H   0  0  0  0  0  0
  -28.2590  -38.0111   24.7500 H   0  0  0  0  0  0
  -28.1080  -36.2636   24.6293 H   0  0  0  0  0  0
  -27.2313  -37.1468   25.8872 H   0  0  0  0  0  0
  -20.9208  -29.8848   21.7023 H   0  0  0  0  0  0
  -26.0176  -38.2860   24.1405 H   0  0  0  0  0  0
  -30.3315  -18.5367   17.5387 H   0  0  0  0  0  0
  -29.6917  -20.4362   18.9712 H   0  0  0  0  0  0
  -30.5080  -16.2691   18.4567 H   0  0  0  0  0  0
  -29.4106  -17.7724   22.3637 H   0  0  0  0  0  0
  -31.3588  -22.8620   21.5526 H   0  0  0  0  0  0
  -31.2341  -22.0049   20.0066 H   0  0  0  0  0  0
  -31.5658  -21.1267   21.4966 H   0  0  0  0  0  0
  -29.5716  -20.2456   22.6903 H   0  0  0  0  0  0
  -28.0622  -20.3474   21.8501 H   0  0  0  0  0  0
  -29.8316  -24.1513   19.8776 H   0  0  0  0  0  0
  -29.7560  -24.6241   21.5700 H   0  0  0  0  0  0
  -27.2861  -25.1572   21.2233 H   0  0  0  0  0  0
  -27.5191  -24.7753   19.5266 H   0  0  0  0  0  0
  -29.2126  -15.2637   21.6166 H   0  0  0  0  0  0
  1 25  1  0  0  0
  1 30  2  0  0  0
  1 82  1  0  0  0
  2  3  1  0  0  0
  2 25  1  0  0  0
  2 85  1  0  0  0
  2 86  1  0  0  0
  3  4  1  0  0  0
  3 87  1  0  0  0
  3 88  1  0  0  0
  4  5  1  0  0  0
  4 89  1  0  0  0
  4 90  1  0  0  0
  5  6  1  0  0  0
  5 26  1  0  0  0
  5 91  1  0  0  0
  6 25  1  0  0  0
  6 92  1  0  0  0
  6 93  1  0  0  0
  7  8  2  0  0  0
  7 26  1  0  0  0
  7 29  1  0  0  0
  8  9  1  0  0  0
  8 22  1  0  0  0
  9 10  1  0  0  0
  9 27  2  0  0  0
 10 11  2  0  0  0
 10 15  1  0  0  0
 11 12  1  0  0  0
 11 94  1  0  0  0
 12 13  2  0  0  0
 12 95  1  0  0  0
 13 14  1  0  0  0
 13 31  1  0  0  0
 14 15  2  0  0  0
 14 96  1  0  0  0
 15 97  1  0  0  0
 16 17  2  0  0  0
 16 21  1  0  0  0
 16 31  1  0  0  0
 17 18  1  0  0  0
 17 98  1  0  0  0
 18 19  2  0  0  0
 18 99  1  0  0  0
 19 20  1  0  0  0
 19 24  1  0  0  0
 20 21  2  0  0  0
 20100  1  0  0  0
 21 23  1  0  0  0
 22 28  1  0  0  0
 22 32  2  0  0  0
 26 27  1  0  0  0
 28101  1  0  0  0
 28102  1  0  0  0
 29103  1  0  0  0
 29104  1  0  0  0
 33 34  1  0  0  0
 33 66  1  0  0  0
 33 70  2  0  0  0
 34 36  1  0  0  0
 34 59  1  0  0  0
 34105  1  0  0  0
 35 44  2  0  0  0
 35 45  1  0  0  0
 35 68  1  0  0  0
 36 56  1  0  0  0
 36106  1  0  0  0
 37 39  1  0  0  0
 37 47  1  0  0  0
 37 66  1  0  0  0
 37107  1  0  0  0
 38 43  2  0  0  0
 38 46  1  0  0  0
 38 47  1  0  0  0
 39 64  1  0  0  0
 39 67  2  0  0  0
 40 52  1  0  0  0
 40 53  2  0  0  0
 40 58  1  0  0  0
 41108  1  0  0  0
 41109  1  0  0  0
 41110  1  0  0  0
 41 48  1  0  0  0
 42 43  1  0  0  0
 42 66  1  0  0  0
 42111  1  0  0  0
 42112  1  0  0  0
 43 44  1  0  0  0
 44113  1  0  0  0
 45 46  2  0  0  0
 45114  1  0  0  0
 46115  1  0  0  0
 47116  1  0  0  0
 47117  1  0  0  0
 48 56  1  0  0  0
 48 65  1  0  0  0
 48118  1  0  0  0
 49 50  1  0  0  0
 49 53  1  0  0  0
 49 64  1  0  0  0
 49119  1  0  0  0
 50 51  1  0  0  0
 50120  1  0  0  0
 50121  1  0  0  0
 51 52  1  0  0  0
 51122  1  0  0  0
 51123  1  0  0  0
 52124  1  0  0  0
 52125  1  0  0  0
 53 54  1  0  0  0
 54 55  2  0  0  0
 54126  1  0  0  0
 55 57  1  0  0  0
 55127  1  0  0  0
 56 69  2  0  0  0
 57 58  2  0  0  0
 57128  1  0  0  0
 58129  1  0  0  0
 59 60  1  0  0  0
 59 61  1  0  0  0
 59 62  1  0  0  0
 60130  1  0  0  0
 60131  1  0  0  0
 60132  1  0  0  0
 61133  1  0  0  0
 61134  1  0  0  0
 61135  1  0  0  0
 62136  1  0  0  0
 62137  1  0  0  0
 62138  1  0  0  0
 63 65  1  0  0  0
 63139  1  0  0  0
 63140  1  0  0  0
 63141  1  0  0  0
 64142  1  0  0  0
 65143  1  0  0  0
 68 81  1  0  0  0
 71 72  2  0  0  0
 71 73  1  0  0  0
 71144  1  0  0  0
 72 75  1  0  0  0
 72145  1  0  0  0
 73 76  2  0  0  0
 73146  1  0  0  0
 74 75  2  0  0  0
 74 76  1  0  0  0
 74147  1  0  0  0
 75 79  1  0  0  0
 76 82  1  0  0  0
 77 80  1  0  0  0
 77 83  1  0  0  0
 77 84  2  0  0  0
 78 83  1  0  0  0
 78148  1  0  0  0
 78149  1  0  0  0
 78150  1  0  0  0
 79 83  1  0  0  0
 79151  1  0  0  0
 79152  1  0  0  0
 80 81  1  0  0  0
 80153  1  0  0  0
 80154  1  0  0  0
 81155  1  0  0  0
 81156  1  0  0  0
 82157  1  0  0  0
M  ISO  4   1 100  68 101  81 101  82 100
M  END
> <chiral flag>
0

> <version>
0

> <s_m_source_file>
/data/baiqing/PycharmProjects/Reinvent-master-3.2/result/LINK_invent/BTK/process_docking_weight1_custom_product_contain_oxygen_bond_distance_aromatic_linkinvent_7_9_3/rearranged_h_0059.sdf

> <i_m_source_file_index>
57

> <r_mmod_Potential_Energy-OPLS-2005>
-38.1307678222656

> <r_mmod_Stretch_Energy-OPLS-2005>
43.8576850891113

> <r_mmod_Bend_Energy-OPLS-2005>
95.3992691040039

> <r_mmod_Torsional_Energy-OPLS-2005>
245.196868896484

> <r_mmod_Improper_Torsional_Energy-OPLS-2005>
4.75518465042114

> <r_mmod_Van_der_Waal_Energy-OPLS-2005>
173.766723632812

> <r_mmod_Electrostatic_Energy-OPLS-2005>
-392.342407226562

> <r_mmod_Solvation_Energy-OPLS-2005>
-227.919067382812

> <b_mmod_Minimization_Converged-OPLS-2005>
0

> <r_mmod_RMS_Derivative-OPLS-2005>
3.65159678459167

$$$$
57
                    3D
 Structure written by MMmdl.
158166  0  0  1  0            999 V2000
  -30.7181  -14.4916   20.5828 C   0  0  0  0  0  0
  -30.4184  -12.3399   19.4008 C   0  0  0  0  0  0
  -29.4724  -12.4916   18.1914 C   0  0  0  0  0  0
  -28.0021  -12.3373   18.6253 C   0  0  0  0  0  0
  -27.6486  -13.1917   19.8702 C   0  0  2  0  0  0
  -28.7040  -13.0175   20.9843 C   0  0  0  0  0  0
  -25.2582  -13.8141   20.5737 C   0  0  0  0  0  0
  -24.1810  -13.0438   20.9207 C   0  0  0  0  0  0
  -24.6335  -11.6897   20.8761 C   0  0  0  0  0  0
  -23.9006  -10.4298   21.0429 C   0  0  0  0  0  0
  -24.3573   -9.4207   21.9195 C   0  0  0  0  0  0
  -23.6267   -8.2231   22.0758 C   0  0  0  0  0  0
  -22.4252   -8.0271   21.3542 C   0  0  0  0  0  0
  -21.9877   -9.0236   20.4642 C   0  0  0  0  0  0
  -22.7194  -10.2127   20.3063 C   0  0  0  0  0  0
  -21.6849   -6.0727   22.5276 C   0  0  0  0  0  0
  -21.4010   -6.5633   23.8210 C   0  0  0  0  0  0
  -21.3652   -5.6786   24.9174 C   0  0  0  0  0  0
  -21.6045   -4.3049   24.7223 C   0  0  0  0  0  0
  -21.8822   -3.8139   23.4345 C   0  0  0  0  0  0
  -21.9197   -4.6956   22.3401 C   0  0  0  0  0  0
  -22.7839  -13.5264   21.1828 C   0  0  0  0  0  0
  -22.1670   -4.2146   21.0977 F   0  0  0  0  0  0
  -21.5621   -3.4530   25.7732 F   0  0  0  0  0  0
  -30.0202  -13.3346   20.4099 N   0  0  0  0  0  0
  -26.2965  -12.9249   20.3422 N   0  0  0  0  0  0
  -25.9259  -11.6422   20.5837 N   0  0  0  0  0  0
  -22.0445  -12.8282   22.0387 N   0  0  0  0  0  0
  -25.4344  -15.1857   20.4146 N   0  0  0  0  0  0
  -31.8475  -14.6621   20.1198 O   0  0  0  0  0  0
  -21.6633   -6.8857   21.4234 O   0  0  0  0  0  0
  -22.3549  -14.5564   20.6671 O   0  0  0  0  0  0
  -24.6170  -31.8631   23.2009 C   0  0  0  0  0  0
  -25.9046  -32.4782   23.8326 C   0  0  1  0  0  0
  -27.2607  -27.4156   20.0981 C   0  0  0  0  0  0
  -25.5906  -33.8580   24.2277 N   0  0  0  0  0  0
  -23.4108  -30.4807   21.5371 C   0  0  2  0  0  0
  -24.8666  -28.9413   20.1095 C   0  0  0  0  0  0
  -22.7418  -29.4640   22.4905 C   0  0  0  0  0  0
  -18.0284  -28.1362   22.8465 C   0  0  0  0  0  0
  -24.1495  -36.7299   23.2635 C   0  0  0  0  0  0
  -25.9394  -30.8213   21.3617 C   0  0  0  0  0  0
  -26.0199  -29.4530   20.7141 C   0  0  0  0  0  0
  -27.2171  -28.6963   20.7058 C   0  0  0  0  0  0
  -26.0847  -26.9222   19.4877 C   0  0  0  0  0  0
  -24.8995  -27.6809   19.4893 C   0  0  0  0  0  0
  -23.6250  -29.8027   20.1562 C   0  0  0  0  0  0
  -25.4119  -36.3081   24.0331 C   0  0  1  0  0  0
  -20.5872  -28.3648   23.1296 C   0  0  2  0  0  0
  -20.6755  -26.9402   22.5295 C   0  0  0  0  0  0
  -19.5753  -26.6497   21.5066 C   0  0  0  0  0  0
  -18.1927  -26.7962   22.1506 C   0  0  0  0  0  0
  -19.1530  -28.8811   23.2908 C   0  0  0  0  0  0
  -18.9483  -30.1373   23.8985 C   0  0  0  0  0  0
  -17.6501  -30.6537   24.0651 C   0  0  0  0  0  0
  -25.9048  -34.9446   23.5107 C   0  0  0  0  0  0
  -16.5384  -29.9074   23.6346 C   0  0  0  0  0  0
  -16.7283  -28.6503   23.0324 C   0  0  0  0  0  0
  -26.4492  -31.6570   25.0658 C   0  0  0  0  0  0
  -25.3755  -31.3674   26.1394 C   0  0  0  0  0  0
  -27.0348  -30.3012   24.6084 C   0  0  0  0  0  0
  -27.6056  -32.4298   25.7438 C   0  0  0  0  0  0
  -27.5586  -37.1799   24.8468 C   0  0  0  0  0  0
  -21.4135  -29.3041   22.3699 N   0  0  0  0  0  0
  -26.4303  -37.3778   23.9402 N   0  0  0  0  0  0
  -24.6720  -31.0730   22.0902 N   0  0  0  0  0  0
  -23.4173  -28.8180   23.2962 O   0  0  0  0  0  0
  -28.4513  -26.7026   20.1240 O   0  0  0  0  0  0
  -26.5618  -34.8922   22.4673 O   0  0  0  0  0  0
  -23.5366  -32.1383   23.7421 O   0  0  0  0  0  0
  -28.1334  -17.5768   18.7455 C   0  0  0  0  0  0
  -28.8910  -16.5219   19.2869 C   0  0  0  0  0  0
  -29.2035  -17.8098   21.3239 C   0  0  0  0  0  0
  -27.9048  -18.7591   19.4775 C   0  0  0  0  0  0
  -29.3999  -16.6013   20.6027 C   0  0  0  0  0  0
  -28.4875  -18.9023   20.7644 C   0  0  0  0  0  0
  -27.0122  -19.8201   18.8579 C   0  0  0  0  0  0
  -27.8749  -24.3053   20.7029 C   0  0  0  0  0  0
  -28.7759  -23.1498   21.2657 C   0  0  0  0  0  0
  -28.5157  -25.3216   19.6991 C   0  0  0  0  0  0
  -30.0950  -15.5054   21.2225 N   0  0  0  0  0  0
  -28.5235  -21.8019   20.6802 N   0  0  0  0  0  0
  -26.9521  -20.5224   22.2774 O   0  0  0  0  0  0
  -29.4503  -20.5025   22.6951 O   0  0  0  0  0  0
  -28.3220  -20.4361   21.7510 S   0  0  0  0  0  0
  -31.4545  -12.4580   19.0791 H   0  0  0  0  0  0
  -30.3503  -11.3344   19.8209 H   0  0  0  0  0  0
  -29.7147  -11.7510   17.4288 H   0  0  0  0  0  0
  -29.6175  -13.4666   17.7233 H   0  0  0  0  0  0
  -27.8331  -11.2817   18.8434 H   0  0  0  0  0  0
  -27.3349  -12.5814   17.7970 H   0  0  0  0  0  0
  -27.6627  -14.2273   19.5474 H   0  0  0  0  0  0
  -28.7039  -11.9906   21.3521 H   0  0  0  0  0  0
  -28.4670  -13.6420   21.8465 H   0  0  0  0  0  0
  -25.2712   -9.5705   22.4784 H   0  0  0  0  0  0
  -23.9984   -7.4632   22.7483 H   0  0  0  0  0  0
  -21.0812   -8.8741   19.8953 H   0  0  0  0  0  0
  -22.3637  -10.9662   19.6180 H   0  0  0  0  0  0
  -21.2001   -7.6139   23.9712 H   0  0  0  0  0  0
  -21.1473   -6.0513   25.9073 H   0  0  0  0  0  0
  -22.0609   -2.7603   23.2842 H   0  0  0  0  0  0
  -22.4028  -11.9948   22.4814 H   0  0  0  0  0  0
  -21.1061  -13.1327   22.2541 H   0  0  0  0  0  0
  -24.6723  -15.8461   20.5240 H   0  0  0  0  0  0
  -26.3034  -15.6245   20.1359 H   0  0  0  0  0  0
  -26.7114  -32.5503   23.1093 H   0  0  0  0  0  0
  -25.0050  -33.9726   25.0416 H   0  0  0  0  0  0
  -22.6985  -31.2952   21.3878 H   0  0  0  0  0  0
  -23.3752  -35.9637   23.3311 H   0  0  0  0  0  0
  -24.3584  -36.8911   22.2045 H   0  0  0  0  0  0
  -23.7263  -37.6511   23.6658 H   0  0  0  0  0  0
  -26.0645  -31.5885   20.5961 H   0  0  0  0  0  0
  -26.8219  -30.8723   21.9875 H   0  0  0  0  0  0
  -28.1080  -29.0910   21.1771 H   0  0  0  0  0  0
  -26.0680  -25.9580   18.9999 H   0  0  0  0  0  0
  -24.0216  -27.2883   19.0000 H   0  0  0  0  0  0
  -23.7180  -30.5673   19.3859 H   0  0  0  0  0  0
  -22.7562  -29.2073   19.8681 H   0  0  0  0  0  0
  -25.1305  -36.1927   25.0830 H   0  0  0  0  0  0
  -21.0002  -28.3158   24.1374 H   0  0  0  0  0  0
  -20.5632  -26.2220   23.3423 H   0  0  0  0  0  0
  -21.6637  -26.7481   22.1093 H   0  0  0  0  0  0
  -19.6914  -25.6488   21.0890 H   0  0  0  0  0  0
  -19.6646  -27.3444   20.6706 H   0  0  0  0  0  0
  -17.4189  -26.6779   21.3881 H   0  0  0  0  0  0
  -18.0319  -26.0000   22.8794 H   0  0  0  0  0  0
  -19.7966  -30.7136   24.2430 H   0  0  0  0  0  0
  -17.5072  -31.6184   24.5320 H   0  0  0  0  0  0
  -15.5385  -30.3018   23.7686 H   0  0  0  0  0  0
  -15.8672  -28.0894   22.6976 H   0  0  0  0  0  0
  -24.5912  -30.7072   25.7701 H   0  0  0  0  0  0
  -24.8976  -32.2826   26.4883 H   0  0  0  0  0  0
  -25.8084  -30.8776   27.0121 H   0  0  0  0  0  0
  -26.2901  -29.6715   24.1216 H   0  0  0  0  0  0
  -27.4183  -29.7314   25.4554 H   0  0  0  0  0  0
  -27.8697  -30.4309   23.9197 H   0  0  0  0  0  0
  -27.2664  -33.3570   26.2074 H   0  0  0  0  0  0
  -28.3844  -32.6912   25.0258 H   0  0  0  0  0  0
  -28.0765  -31.8387   26.5309 H   0  0  0  0  0  0
  -28.2610  -38.0089   24.7512 H   0  0  0  0  0  0
  -28.1076  -36.2621   24.6302 H   0  0  0  0  0  0
  -27.2298  -37.1457   25.8869 H   0  0  0  0  0  0
  -20.9307  -29.8746   21.6897 H   0  0  0  0  0  0
  -26.0181  -38.2860   24.1397 H   0  0  0  0  0  0
  -27.7164  -17.4644   17.7533 H   0  0  0  0  0  0
  -29.0550  -15.6501   18.6705 H   0  0  0  0  0  0
  -29.5946  -17.9089   22.3252 H   0  0  0  0  0  0
  -27.6119  -20.6216   18.4254 H   0  0  0  0  0  0
  -26.3228  -20.2386   19.5919 H   0  0  0  0  0  0
  -26.4065  -19.3954   18.0561 H   0  0  0  0  0  0
  -27.5194  -24.8841   21.5592 H   0  0  0  0  0  0
  -26.9659  -23.8972   20.2629 H   0  0  0  0  0  0
  -28.5767  -23.0766   22.3391 H   0  0  0  0  0  0
  -29.8378  -23.3911   21.1916 H   0  0  0  0  0  0
  -29.5679  -25.0827   19.5395 H   0  0  0  0  0  0
  -28.0785  -25.2107   18.7096 H   0  0  0  0  0  0
  -30.6020  -15.7851   22.0486 H   0  0  0  0  0  0
  -27.7764  -21.8025   19.9804 H   0  0  0  0  0  0
  1 25  1  0  0  0
  1 30  2  0  0  0
  1 81  1  0  0  0
  2  3  1  0  0  0
  2 25  1  0  0  0
  2 86  1  0  0  0
  2 87  1  0  0  0
  3  4  1  0  0  0
  3 88  1  0  0  0
  3 89  1  0  0  0
  4  5  1  0  0  0
  4 90  1  0  0  0
  4 91  1  0  0  0
  5  6  1  0  0  0
  5 26  1  0  0  0
  5 92  1  0  0  0
  6 25  1  0  0  0
  6 93  1  0  0  0
  6 94  1  0  0  0
  7  8  2  0  0  0
  7 26  1  0  0  0
  7 29  1  0  0  0
  8  9  1  0  0  0
  8 22  1  0  0  0
  9 10  1  0  0  0
  9 27  2  0  0  0
 10 11  2  0  0  0
 10 15  1  0  0  0
 11 12  1  0  0  0
 11 95  1  0  0  0
 12 13  2  0  0  0
 12 96  1  0  0  0
 13 14  1  0  0  0
 13 31  1  0  0  0
 14 15  2  0  0  0
 14 97  1  0  0  0
 15 98  1  0  0  0
 16 17  2  0  0  0
 16 21  1  0  0  0
 16 31  1  0  0  0
 17 18  1  0  0  0
 17 99  1  0  0  0
 18 19  2  0  0  0
 18100  1  0  0  0
 19 20  1  0  0  0
 19 24  1  0  0  0
 20 21  2  0  0  0
 20101  1  0  0  0
 21 23  1  0  0  0
 22 28  1  0  0  0
 22 32  2  0  0  0
 26 27  1  0  0  0
 28102  1  0  0  0
 28103  1  0  0  0
 29104  1  0  0  0
 29105  1  0  0  0
 33 34  1  0  0  0
 33 66  1  0  0  0
 33 70  2  0  0  0
 34 36  1  0  0  0
 34 59  1  0  0  0
 34106  1  0  0  0
 35 44  2  0  0  0
 35 45  1  0  0  0
 35 68  1  0  0  0
 36 56  1  0  0  0
 36107  1  0  0  0
 37 39  1  0  0  0
 37 47  1  0  0  0
 37 66  1  0  0  0
 37108  1  0  0  0
 38 43  2  0  0  0
 38 46  1  0  0  0
 38 47  1  0  0  0
 39 64  1  0  0  0
 39 67  2  0  0  0
 40 52  1  0  0  0
 40 53  2  0  0  0
 40 58  1  0  0  0
 41109  1  0  0  0
 41110  1  0  0  0
 41111  1  0  0  0
 41 48  1  0  0  0
 42 43  1  0  0  0
 42 66  1  0  0  0
 42112  1  0  0  0
 42113  1  0  0  0
 43 44  1  0  0  0
 44114  1  0  0  0
 45 46  2  0  0  0
 45115  1  0  0  0
 46116  1  0  0  0
 47117  1  0  0  0
 47118  1  0  0  0
 48 56  1  0  0  0
 48 65  1  0  0  0
 48119  1  0  0  0
 49 50  1  0  0  0
 49 53  1  0  0  0
 49 64  1  0  0  0
 49120  1  0  0  0
 50 51  1  0  0  0
 50121  1  0  0  0
 50122  1  0  0  0
 51 52  1  0  0  0
 51123  1  0  0  0
 51124  1  0  0  0
 52125  1  0  0  0
 52126  1  0  0  0
 53 54  1  0  0  0
 54 55  2  0  0  0
 54127  1  0  0  0
 55 57  1  0  0  0
 55128  1  0  0  0
 56 69  2  0  0  0
 57 58  2  0  0  0
 57129  1  0  0  0
 58130  1  0  0  0
 59 60  1  0  0  0
 59 61  1  0  0  0
 59 62  1  0  0  0
 60131  1  0  0  0
 60132  1  0  0  0
 60133  1  0  0  0
 61134  1  0  0  0
 61135  1  0  0  0
 61136  1  0  0  0
 62137  1  0  0  0
 62138  1  0  0  0
 62139  1  0  0  0
 63 65  1  0  0  0
 63140  1  0  0  0
 63141  1  0  0  0
 63142  1  0  0  0
 64143  1  0  0  0
 65144  1  0  0  0
 68 80  1  0  0  0
 71 72  2  0  0  0
 71 74  1  0  0  0
 71145  1  0  0  0
 72 75  1  0  0  0
 72146  1  0  0  0
 73 75  2  0  0  0
 73 76  1  0  0  0
 73147  1  0  0  0
 74 76  2  0  0  0
 74 77  1  0  0  0
 75 81  1  0  0  0
 76 85  1  0  0  0
 77148  1  0  0  0
 77149  1  0  0  0
 77150  1  0  0  0
 78 79  1  0  0  0
 78 80  1  0  0  0
 78151  1  0  0  0
 78152  1  0  0  0
 79 82  1  0  0  0
 79153  1  0  0  0
 79154  1  0  0  0
 80155  1  0  0  0
 80156  1  0  0  0
 81157  1  0  0  0
 82158  1  0  0  0
 82 85  1  0  0  0
 83 85  2  0  0  0
 84 85  2  0  0  0
M  ISO  4   1 100  68 101  80 101  81 100
M  END
> <chiral flag>
0

> <version>
0

> <s_m_source_file>
/data/baiqing/PycharmProjects/Reinvent-master-3.2/result/LINK_invent/BTK/process_docking_weight1_custom_product_contain_oxygen_bond_distance_aromatic_linkinvent_7_9_3/rearranged_h_0059.sdf

> <i_m_source_file_index>
58

> <r_mmod_Potential_Energy-OPLS-2005>
-22.1878490447998

> <r_mmod_Stretch_Energy-OPLS-2005>
46.0544319152832

> <r_mmod_Bend_Energy-OPLS-2005>
121.816383361816

> <r_mmod_Torsional_Energy-OPLS-2005>
285.861968994141

> <r_mmod_Improper_Torsional_Energy-OPLS-2005>
9.52693271636963

> <r_mmod_Van_der_Waal_Energy-OPLS-2005>
140.678344726562

> <r_mmod_Electrostatic_Energy-OPLS-2005>
-403.676574707031

> <r_mmod_Solvation_Energy-OPLS-2005>
-239.658157348633

> <b_mmod_Minimization_Converged-OPLS-2005>
0

> <r_mmod_RMS_Derivative-OPLS-2005>
5.87843894958496

$$$$
58
                    3D
 Structure written by MMmdl.
156164  0  0  1  0            999 V2000
  -31.2305  -14.6503   20.9270 C   0  0  0  0  0  0
  -30.9593  -12.3111   19.1632 C   0  0  0  0  0  0
  -29.4965  -12.1248   17.8982 C   0  0  0  0  0  0
  -27.6476  -12.6594   18.1317 C   0  0  0  0  0  0
  -27.1026  -13.5713   19.7930 C   0  0  2  0  0  0
  -29.9164  -13.2491   21.4881 C   0  0  0  0  0  0
  -24.9176  -13.9039   20.6313 C   0  0  0  0  0  0
  -23.9390  -13.0518   20.9725 C   0  0  0  0  0  0
  -24.4395  -11.7182   20.8398 C   0  0  0  0  0  0
  -23.8064  -10.4302   21.0315 C   0  0  0  0  0  0
  -24.3159   -9.4419   21.9040 C   0  0  0  0  0  0
  -23.6153   -8.2270   22.0663 C   0  0  0  0  0  0
  -22.4122   -8.0078   21.3523 C   0  0  0  0  0  0
  -21.9454   -8.9841   20.4586 C   0  0  0  0  0  0
  -22.6411  -10.1853   20.2934 C   0  0  0  0  0  0
  -21.6849   -6.0605   22.5336 C   0  0  0  0  0  0
  -21.3998   -6.5575   23.8237 C   0  0  0  0  0  0
  -21.3676   -5.6760   24.9219 C   0  0  0  0  0  0
  -21.6051   -4.3018   24.7301 C   0  0  0  0  0  0
  -21.8810   -3.8065   23.4436 C   0  0  0  0  0  0
  -21.9191   -4.6847   22.3478 C   0  0  0  0  0  0
  -22.5706  -13.5004   21.2647 C   0  0  0  0  0  0
  -22.1653   -4.2032   21.1054 F   0  0  0  0  0  0
  -21.5654   -3.4526   25.7833 F   0  0  0  0  0  0
  -31.0764  -13.2470   20.6398 N   0  0  0  0  0  0
  -25.8662  -13.0709   20.1950 N   0  0  0  0  0  0
  -25.6205  -11.7402   20.2934 N   0  0  0  0  0  0
  -21.8778  -12.7824   22.1290 N   0  0  0  0  0  0
  -25.0758  -15.2940   20.6073 N   0  0  0  0  0  0
  -32.1189  -15.1805   20.2805 O   0  0  0  0  0  0
  -21.6625   -6.8630   21.4251 O   0  0  0  0  0  0
  -22.1411  -14.5301   20.7476 O   0  0  0  0  0  0
  -24.6438  -31.8507   23.1961 C   0  0  0  0  0  0
  -25.9251  -32.4716   23.8302 C   0  0  1  0  0  0
  -27.1733  -27.1683   20.0944 C   0  0  0  0  0  0
  -25.6017  -33.8518   24.2223 N   0  0  0  0  0  0
  -23.4387  -30.4832   21.5438 C   0  0  2  0  0  0
  -24.8752  -28.9322   20.0999 C   0  0  0  0  0  0
  -22.7546  -29.4614   22.4863 C   0  0  0  0  0  0
  -18.0306  -28.1407   22.8478 C   0  0  0  0  0  0
  -24.1506  -36.7255   23.2633 C   0  0  0  0  0  0
  -25.9987  -30.7275   21.3973 C   0  0  0  0  0  0
  -26.0581  -29.3488   20.7243 C   0  0  0  0  0  0
  -27.2110  -28.4780   20.7182 C   0  0  0  0  0  0
  -25.9725  -26.8753   19.4083 C   0  0  0  0  0  0
  -24.8433  -27.7052   19.4330 C   0  0  0  0  0  0
  -23.6580  -29.8362   20.1552 C   0  0  0  0  0  0
  -25.4137  -36.3033   24.0311 C   0  0  1  0  0  0
  -20.5916  -28.3737   23.1230 C   0  0  2  0  0  0
  -20.6803  -26.9447   22.5388 C   0  0  0  0  0  0
  -19.5772  -26.6393   21.5209 C   0  0  0  0  0  0
  -18.1952  -26.7946   22.1624 C   0  0  0  0  0  0
  -19.1561  -28.8887   23.2851 C   0  0  0  0  0  0
  -18.9483  -30.1483   23.8876 C   0  0  0  0  0  0
  -17.6482  -30.6602   24.0564 C   0  0  0  0  0  0
  -25.9095  -34.9412   23.5063 C   0  0  0  0  0  0
  -16.5371  -29.9097   23.6339 C   0  0  0  0  0  0
  -16.7292  -28.6518   23.0352 C   0  0  0  0  0  0
  -26.4562  -31.6558   25.0727 C   0  0  0  0  0  0
  -25.3722  -31.3772   26.1400 C   0  0  0  0  0  0
  -27.0442  -30.2946   24.6332 C   0  0  0  0  0  0
  -27.6102  -32.4302   25.7510 C   0  0  0  0  0  0
  -27.5589  -37.1783   24.8466 C   0  0  0  0  0  0
  -21.4241  -29.3087   22.3613 N   0  0  0  0  0  0
  -26.4300  -37.3748   23.9409 N   0  0  0  0  0  0
  -24.7135  -31.0393   22.1000 N   0  0  0  0  0  0
  -23.4212  -28.8127   23.2970 O   0  0  0  0  0  0
  -28.1772  -26.1415   20.1518 O   0  0  0  0  0  0
  -26.5654  -34.8905   22.4627 O   0  0  0  0  0  0
  -23.5567  -32.1401   23.7199 O   0  0  0  0  0  0
  -28.6327  -12.0747   20.2139 C   0  0  0  0  0  0
  -27.8272  -12.3484   21.6882 C   0  0  0  0  0  0
  -29.1976  -13.9731   19.4213 C   0  0  0  0  0  0
  -27.7630  -13.9388   22.1683 C   0  0  0  0  0  0
  -28.8374  -15.3493   20.0949 C   0  0  0  0  0  0
  -28.5649  -15.2199   21.5151 C   0  0  0  0  0  0
  -28.6908  -20.6335   20.0903 C   0  0  0  0  0  0
  -28.5130  -19.3535   19.5224 C   0  0  0  0  0  0
  -28.2426  -22.0319   19.6258 C   0  0  0  0  0  0
  -28.4381  -23.3085   20.1898 C   0  0  0  0  0  0
  -28.9129  -18.0335   20.1887 C   0  0  0  0  0  0
  -27.7803  -24.7111   19.7204 C   0  0  0  0  0  0
  -28.8381  -16.7773   19.5305 N   0  0  0  0  0  0
  -30.1552  -15.4842   21.5928 N   0  0  0  0  0  0
  -29.3380  -18.0785   21.3440 O   0  0  0  0  0  0
  -31.8171  -12.6297   18.5705 H   0  0  0  0  0  0
  -31.2286  -11.2976   19.4632 H   0  0  0  0  0  0
  -29.4850  -11.0763   17.5970 H   0  0  0  0  0  0
  -29.8292  -12.6070   16.9789 H   0  0  0  0  0  0
  -27.0420  -11.7594   18.0252 H   0  0  0  0  0  0
  -27.3439  -13.2730   17.2827 H   0  0  0  0  0  0
  -26.8527  -14.5281   19.3244 H   0  0  0  0  0  0
  -30.1902  -12.2292   21.8317 H   0  0  0  0  0  0
  -30.0230  -13.4573   22.5792 H   0  0  0  0  0  0
  -25.2285   -9.6223   22.4546 H   0  0  0  0  0  0
  -24.0049   -7.4755   22.7381 H   0  0  0  0  0  0
  -21.0377   -8.8104   19.8975 H   0  0  0  0  0  0
  -22.2634  -10.9309   19.6079 H   0  0  0  0  0  0
  -21.1948   -7.6079   23.9699 H   0  0  0  0  0  0
  -21.1520   -6.0514   25.9119 H   0  0  0  0  0  0
  -22.0566   -2.7517   23.2973 H   0  0  0  0  0  0
  -22.2665  -11.9550   22.5569 H   0  0  0  0  0  0
  -20.9434  -13.0718   22.3795 H   0  0  0  0  0  0
  -24.3078  -15.9159   20.8378 H   0  0  0  0  0  0
  -25.9077  -15.7865   20.3115 H   0  0  0  0  0  0
  -26.7311  -32.5315   23.1015 H   0  0  0  0  0  0
  -25.0157  -33.9641   25.0363 H   0  0  0  0  0  0
  -22.7400  -31.3119   21.4053 H   0  0  0  0  0  0
  -23.3778  -35.9577   23.3268 H   0  0  0  0  0  0
  -24.3600  -36.8912   22.2055 H   0  0  0  0  0  0
  -23.7254  -37.6439   23.6687 H   0  0  0  0  0  0
  -26.1668  -31.4912   20.6364 H   0  0  0  0  0  0
  -26.8661  -30.7588   22.0451 H   0  0  0  0  0  0
  -28.1079  -28.7845   21.2377 H   0  0  0  0  0  0
  -25.8406  -25.9659   18.8425 H   0  0  0  0  0  0
  -23.9458  -27.3882   18.9195 H   0  0  0  0  0  0
  -23.7983  -30.6256   19.4151 H   0  0  0  0  0  0
  -22.7676  -29.2915   19.8365 H   0  0  0  0  0  0
  -25.1320  -36.1851   25.0801 H   0  0  0  0  0  0
  -21.0017  -28.3335   24.1347 H   0  0  0  0  0  0
  -20.5721  -26.2356   23.3607 H   0  0  0  0  0  0
  -21.6668  -26.7479   22.1172 H   0  0  0  0  0  0
  -19.6935  -25.6293   21.1266 H   0  0  0  0  0  0
  -19.6704  -27.3178   20.6717 H   0  0  0  0  0  0
  -17.4217  -26.6684   21.4031 H   0  0  0  0  0  0
  -18.0361  -26.0095   22.9030 H   0  0  0  0  0  0
  -19.7957  -30.7308   24.2231 H   0  0  0  0  0  0
  -17.5036  -31.6279   24.5172 H   0  0  0  0  0  0
  -15.5371  -30.2998   23.7673 H   0  0  0  0  0  0
  -15.8691  -28.0835   22.7073 H   0  0  0  0  0  0
  -24.5880  -30.7163   25.7688 H   0  0  0  0  0  0
  -24.8944  -32.2979   26.4755 H   0  0  0  0  0  0
  -25.7958  -30.8950   27.0216 H   0  0  0  0  0  0
  -26.3088  -29.6627   24.1340 H   0  0  0  0  0  0
  -27.4057  -29.7281   25.4926 H   0  0  0  0  0  0
  -27.8989  -30.4175   23.9677 H   0  0  0  0  0  0
  -27.2719  -33.3623   26.2044 H   0  0  0  0  0  0
  -28.3941  -32.6815   25.0354 H   0  0  0  0  0  0
  -28.0738  -31.8442   26.5455 H   0  0  0  0  0  0
  -28.2577  -38.0108   24.7533 H   0  0  0  0  0  0
  -28.1115  -36.2636   24.6262 H   0  0  0  0  0  0
  -27.2307  -37.1386   25.8868 H   0  0  0  0  0  0
  -20.9422  -29.8844   21.6845 H   0  0  0  0  0  0
  -26.0159  -38.2813   24.1409 H   0  0  0  0  0  0
  -28.7499  -11.0649   19.8393 H   0  0  0  0  0  0
  -27.3807  -11.5496   22.2648 H   0  0  0  0  0  0
  -29.6274  -14.2491   18.4640 H   0  0  0  0  0  0
  -27.2720  -14.1279   23.1111 H   0  0  0  0  0  0
  -29.2064  -20.6350   21.0407 H   0  0  0  0  0  0
  -28.0204  -19.2931   18.5630 H   0  0  0  0  0  0
  -27.6330  -22.0358   18.7310 H   0  0  0  0  0  0
  -29.0410  -23.3756   21.0844 H   0  0  0  0  0  0
  -26.7665  -24.5505   20.0865 H   0  0  0  0  0  0
  -27.7220  -24.6833   18.6324 H   0  0  0  0  0  0
  -28.6668  -16.8430   18.5365 H   0  0  0  0  0  0
  -30.3890  -16.4668   21.6641 H   0  0  0  0  0  0
  1 25  1  0  0  0
  1 30  2  0  0  0
  1 84  1  0  0  0
  2  3  1  0  0  0
  2 25  1  0  0  0
  2 86  1  0  0  0
  2 87  1  0  0  0
  3  4  1  0  0  0
  3 88  1  0  0  0
  3 89  1  0  0  0
  4  5  1  0  0  0
  4 90  1  0  0  0
  4 91  1  0  0  0
  5  6  1  0  0  0
  5 26  1  0  0  0
  5 92  1  0  0  0
  6 25  1  0  0  0
  6 93  1  0  0  0
  6 94  1  0  0  0
  7  8  2  0  0  0
  7 26  1  0  0  0
  7 29  1  0  0  0
  8  9  1  0  0  0
  8 22  1  0  0  0
  9 10  1  0  0  0
  9 27  2  0  0  0
 10 11  2  0  0  0
 10 15  1  0  0  0
 11 12  1  0  0  0
 11 95  1  0  0  0
 12 13  2  0  0  0
 12 96  1  0  0  0
 13 14  1  0  0  0
 13 31  1  0  0  0
 14 15  2  0  0  0
 14 97  1  0  0  0
 15 98  1  0  0  0
 16 17  2  0  0  0
 16 21  1  0  0  0
 16 31  1  0  0  0
 17 18  1  0  0  0
 17 99  1  0  0  0
 18 19  2  0  0  0
 18100  1  0  0  0
 19 20  1  0  0  0
 19 24  1  0  0  0
 20 21  2  0  0  0
 20101  1  0  0  0
 21 23  1  0  0  0
 22 28  1  0  0  0
 22 32  2  0  0  0
 26 27  1  0  0  0
 28102  1  0  0  0
 28103  1  0  0  0
 29104  1  0  0  0
 29105  1  0  0  0
 33 34  1  0  0  0
 33 66  1  0  0  0
 33 70  2  0  0  0
 34 36  1  0  0  0
 34 59  1  0  0  0
 34106  1  0  0  0
 35 44  2  0  0  0
 35 45  1  0  0  0
 35 68  1  0  0  0
 36 56  1  0  0  0
 36107  1  0  0  0
 37 39  1  0  0  0
 37 47  1  0  0  0
 37 66  1  0  0  0
 37108  1  0  0  0
 38 43  2  0  0  0
 38 46  1  0  0  0
 38 47  1  0  0  0
 39 64  1  0  0  0
 39 67  2  0  0  0
 40 52  1  0  0  0
 40 53  2  0  0  0
 40 58  1  0  0  0
 41109  1  0  0  0
 41110  1  0  0  0
 41111  1  0  0  0
 41 48  1  0  0  0
 42 43  1  0  0  0
 42 66  1  0  0  0
 42112  1  0  0  0
 42113  1  0  0  0
 43 44  1  0  0  0
 44114  1  0  0  0
 45 46  2  0  0  0
 45115  1  0  0  0
 46116  1  0  0  0
 47117  1  0  0  0
 47118  1  0  0  0
 48 56  1  0  0  0
 48 65  1  0  0  0
 48119  1  0  0  0
 49 50  1  0  0  0
 49 53  1  0  0  0
 49 64  1  0  0  0
 49120  1  0  0  0
 50 51  1  0  0  0
 50121  1  0  0  0
 50122  1  0  0  0
 51 52  1  0  0  0
 51123  1  0  0  0
 51124  1  0  0  0
 52125  1  0  0  0
 52126  1  0  0  0
 53 54  1  0  0  0
 54 55  2  0  0  0
 54127  1  0  0  0
 55 57  1  0  0  0
 55128  1  0  0  0
 56 69  2  0  0  0
 57 58  2  0  0  0
 57129  1  0  0  0
 58130  1  0  0  0
 59 60  1  0  0  0
 59 61  1  0  0  0
 59 62  1  0  0  0
 60131  1  0  0  0
 60132  1  0  0  0
 60133  1  0  0  0
 61134  1  0  0  0
 61135  1  0  0  0
 61136  1  0  0  0
 62137  1  0  0  0
 62138  1  0  0  0
 62139  1  0  0  0
 63 65  1  0  0  0
 63140  1  0  0  0
 63141  1  0  0  0
 63142  1  0  0  0
 64143  1  0  0  0
 65144  1  0  0  0
 68 82  1  0  0  0
 71 72  2  0  0  0
 71 73  1  0  0  0
 71145  1  0  0  0
 72 74  1  0  0  0
 72146  1  0  0  0
 73 75  2  0  0  0
 73147  1  0  0  0
 74 76  2  0  0  0
 74148  1  0  0  0
 75 76  1  0  0  0
 75 83  1  0  0  0
 76 84  1  0  0  0
 77 78  2  0  0  0
 77 79  1  0  0  0
 77149  1  0  0  0
 78 81  1  0  0  0
 78150  1  0  0  0
 79 80  2  0  0  0
 79151  1  0  0  0
 80 82  1  0  0  0
 80152  1  0  0  0
 81 83  1  0  0  0
 81 85  2  0  0  0
 82153  1  0  0  0
 82154  1  0  0  0
 83155  1  0  0  0
 84156  1  0  0  0
M  ISO  4   1 100  68 101  82 101  84 100
M  END
> <chiral flag>
0

> <version>
0

> <s_m_source_file>
/data/baiqing/PycharmProjects/Reinvent-master-3.2/result/LINK_invent/BTK/process_docking_weight1_custom_product_contain_oxygen_bond_distance_aromatic_linkinvent_7_9_3/rearranged_h_0059.sdf

> <i_m_source_file_index>
59

> <r_mmod_Potential_Energy-OPLS-2005>
10541.0419921875

> <r_mmod_Stretch_Energy-OPLS-2005>
6148.22900390625

> <r_mmod_Bend_Energy-OPLS-2005>
680.994567871094

> <r_mmod_Torsional_Energy-OPLS-2005>
491.689575195312

> <r_mmod_Improper_Torsional_Energy-OPLS-2005>
45.6101455688477

> <r_mmod_Van_der_Waal_Energy-OPLS-2005>
3185.77661132812

> <r_mmod_Electrostatic_Energy-OPLS-2005>
-487.253784179688

> <r_mmod_Solvation_Energy-OPLS-2005>
-224.312652587891

> <b_mmod_Minimization_Converged-OPLS-2005>
0

> <r_mmod_RMS_Derivative-OPLS-2005>
3.33748149871826

$$$$
59
                    3D
 Structure written by MMmdl.
158166  0  0  1  0            999 V2000
  -30.7467  -14.3994   20.6337 C   0  0  0  0  0  0
  -30.4125  -12.2888   19.4051 C   0  0  0  0  0  0
  -29.4836  -12.5125   18.1964 C   0  0  0  0  0  0
  -28.0072  -12.3704   18.6133 C   0  0  0  0  0  0
  -27.6604  -13.2041   19.8754 C   0  0  2  0  0  0
  -28.6995  -12.9667   20.9928 C   0  0  0  0  0  0
  -25.2578  -13.8151   20.5676 C   0  0  0  0  0  0
  -24.1826  -13.0430   20.9161 C   0  0  0  0  0  0
  -24.6380  -11.6902   20.8719 C   0  0  0  0  0  0
  -23.9044  -10.4289   21.0393 C   0  0  0  0  0  0
  -24.3608   -9.4208   21.9171 C   0  0  0  0  0  0
  -23.6292   -8.2238   22.0748 C   0  0  0  0  0  0
  -22.4271   -8.0271   21.3540 C   0  0  0  0  0  0
  -21.9897   -9.0237   20.4637 C   0  0  0  0  0  0
  -22.7218  -10.2124   20.3042 C   0  0  0  0  0  0
  -21.6853   -6.0725   22.5279 C   0  0  0  0  0  0
  -21.4015   -6.5635   23.8208 C   0  0  0  0  0  0
  -21.3657   -5.6793   24.9175 C   0  0  0  0  0  0
  -21.6045   -4.3053   24.7230 C   0  0  0  0  0  0
  -21.8822   -3.8140   23.4352 C   0  0  0  0  0  0
  -21.9197   -4.6952   22.3406 C   0  0  0  0  0  0
  -22.7853  -13.5222   21.1843 C   0  0  0  0  0  0
  -22.1666   -4.2137   21.0982 F   0  0  0  0  0  0
  -21.5629   -3.4539   25.7742 F   0  0  0  0  0  0
  -30.0351  -13.2582   20.4431 N   0  0  0  0  0  0
  -26.3011  -12.9318   20.3363 N   0  0  0  0  0  0
  -25.9306  -11.6480   20.5753 N   0  0  0  0  0  0
  -22.0515  -12.8195   22.0409 N   0  0  0  0  0  0
  -25.4309  -15.1875   20.4115 N   0  0  0  0  0  0
  -31.8606  -14.5874   20.1385 O   0  0  0  0  0  0
  -21.6644   -6.8868   21.4238 O   0  0  0  0  0  0
  -22.3526  -14.5536   20.6717 O   0  0  0  0  0  0
  -24.6108  -31.8711   23.2106 C   0  0  0  0  0  0
  -25.9007  -32.4833   23.8406 C   0  0  1  0  0  0
  -27.2420  -27.4746   20.0866 C   0  0  0  0  0  0
  -25.5876  -33.8635   24.2334 N   0  0  0  0  0  0
  -23.3990  -30.4918   21.5510 C   0  0  2  0  0  0
  -24.8491  -28.9598   20.1164 C   0  0  0  0  0  0
  -22.7397  -29.4668   22.5022 C   0  0  0  0  0  0
  -18.0262  -28.1368   22.8498 C   0  0  0  0  0  0
  -24.1487  -36.7335   23.2638 C   0  0  0  0  0  0
  -25.9224  -30.8465   21.3596 C   0  0  0  0  0  0
  -26.0039  -29.4798   20.7170 C   0  0  0  0  0  0
  -27.2055  -28.7388   20.7107 C   0  0  0  0  0  0
  -26.0798  -26.9616   19.4797 C   0  0  0  0  0  0
  -24.8785  -27.6966   19.4975 C   0  0  0  0  0  0
  -23.6062  -29.8196   20.1665 C   0  0  0  0  0  0
  -25.4102  -36.3115   24.0338 C   0  0  1  0  0  0
  -20.5849  -28.3658   23.1324 C   0  0  2  0  0  0
  -20.6746  -26.9397   22.5418 C   0  0  0  0  0  0
  -19.5728  -26.6377   21.5206 C   0  0  0  0  0  0
  -18.1901  -26.7919   22.1616 C   0  0  0  0  0  0
  -19.1513  -28.8837   23.2894 C   0  0  0  0  0  0
  -18.9444  -30.1442   23.8905 C   0  0  0  0  0  0
  -17.6446  -30.6583   24.0561 C   0  0  0  0  0  0
  -25.9027  -34.9479   23.5130 C   0  0  0  0  0  0
  -16.5327  -29.9080   23.6335 C   0  0  0  0  0  0
  -16.7247  -28.6489   23.0365 C   0  0  0  0  0  0
  -26.4433  -31.6611   25.0731 C   0  0  0  0  0  0
  -25.3702  -31.3717   26.1481 C   0  0  0  0  0  0
  -27.0267  -30.3067   24.6078 C   0  0  0  0  0  0
  -27.6003  -32.4339   25.7494 C   0  0  0  0  0  0
  -27.5587  -37.1802   24.8456 C   0  0  0  0  0  0
  -21.4133  -29.3027   22.3734 N   0  0  0  0  0  0
  -26.4295  -37.3795   23.9410 N   0  0  0  0  0  0
  -24.6619  -31.0835   22.0994 N   0  0  0  0  0  0
  -23.4168  -28.8210   23.3073 O   0  0  0  0  0  0
  -28.3969  -26.7402   20.0213 O   0  0  0  0  0  0
  -26.5604  -34.8922   22.4695 O   0  0  0  0  0  0
  -23.5312  -32.1446   23.7528 O   0  0  0  0  0  0
  -30.8819  -17.5962   19.3677 C   0  0  0  0  0  0
  -30.7583  -18.6505   18.4475 C   0  0  0  0  0  0
  -30.0695  -19.0441   21.1442 C   0  0  0  0  0  0
  -30.5301  -17.7770   20.7224 C   0  0  0  0  0  0
  -30.2841  -19.9098   18.8634 C   0  0  0  0  0  0
  -29.9610  -20.1169   20.2307 C   0  0  0  0  0  0
  -29.2292  -23.6221   21.0851 C   0  0  0  0  0  0
  -29.6239  -24.9025   20.9375 C   0  0  0  0  0  0
  -30.1089  -22.5247   20.7223 C   0  0  0  0  0  0
  -30.1137  -20.9968   17.8140 C   0  0  0  0  0  0
  -30.6892  -16.6462   21.7390 C   0  0  0  0  0  0
  -28.7596  -26.1077   21.2399 C   0  0  0  0  0  0
  -29.4521  -21.3548   20.6973 N   0  0  0  0  0  0
  -30.1259  -15.3552   21.3381 N   0  0  0  0  0  0
  -31.3107  -22.6338   20.4611 O   0  0  0  0  0  0
  -31.4568  -12.3806   19.1014 H   0  0  0  0  0  0
  -30.3034  -11.2730   19.7888 H   0  0  0  0  0  0
  -29.7174  -11.8010   17.4037 H   0  0  0  0  0  0
  -29.6526  -13.5057   17.7778 H   0  0  0  0  0  0
  -27.8185  -11.3135   18.8061 H   0  0  0  0  0  0
  -27.3522  -12.6498   17.7871 H   0  0  0  0  0  0
  -27.7117  -14.2545   19.5879 H   0  0  0  0  0  0
  -28.6657  -11.9285   21.3264 H   0  0  0  0  0  0
  -28.4581  -13.5584   21.8763 H   0  0  0  0  0  0
  -25.2758   -9.5691   22.4735 H   0  0  0  0  0  0
  -24.0007   -7.4632   22.7471 H   0  0  0  0  0  0
  -21.0825   -8.8747   19.8942 H   0  0  0  0  0  0
  -22.3669  -10.9659   19.6146 H   0  0  0  0  0  0
  -21.2007   -7.6144   23.9709 H   0  0  0  0  0  0
  -21.1473   -6.0525   25.9079 H   0  0  0  0  0  0
  -22.0605   -2.7601   23.2860 H   0  0  0  0  0  0
  -22.4158  -11.9848   22.4756 H   0  0  0  0  0  0
  -21.1138  -13.1201   22.2660 H   0  0  0  0  0  0
  -24.6660  -15.8455   20.5173 H   0  0  0  0  0  0
  -26.2945  -15.6270   20.1160 H   0  0  0  0  0  0
  -26.7089  -32.5570   23.1197 H   0  0  0  0  0  0
  -25.0028  -33.9802   25.0481 H   0  0  0  0  0  0
  -22.6861  -31.3063   21.4114 H   0  0  0  0  0  0
  -23.3738  -35.9681   23.3280 H   0  0  0  0  0  0
  -24.3578  -36.8982   22.2056 H   0  0  0  0  0  0
  -23.7257  -37.6537   23.6672 H   0  0  0  0  0  0
  -26.0214  -31.6068   20.5832 H   0  0  0  0  0  0
  -26.8138  -30.9085   21.9710 H   0  0  0  0  0  0
  -28.1022  -29.1384   21.1644 H   0  0  0  0  0  0
  -26.1075  -25.9969   18.9925 H   0  0  0  0  0  0
  -23.9935  -27.2939   19.0248 H   0  0  0  0  0  0
  -23.7031  -30.5906   19.4013 H   0  0  0  0  0  0
  -22.7331  -29.2300   19.8796 H   0  0  0  0  0  0
  -25.1270  -36.1980   25.0835 H   0  0  0  0  0  0
  -20.9916  -28.3214   24.1454 H   0  0  0  0  0  0
  -20.5644  -26.2265   23.3604 H   0  0  0  0  0  0
  -21.6622  -26.7452   22.1217 H   0  0  0  0  0  0
  -19.6895  -25.6286   21.1246 H   0  0  0  0  0  0
  -19.6672  -27.3181   20.6728 H   0  0  0  0  0  0
  -17.4175  -26.6683   21.3994 H   0  0  0  0  0  0
  -18.0282  -26.0050   22.9007 H   0  0  0  0  0  0
  -19.7933  -30.7236   24.2284 H   0  0  0  0  0  0
  -17.5016  -31.6271   24.5149 H   0  0  0  0  0  0
  -15.5329  -30.2974   23.7688 H   0  0  0  0  0  0
  -15.8642  -28.0800   22.7095 H   0  0  0  0  0  0
  -24.5886  -30.7041   25.7824 H   0  0  0  0  0  0
  -24.8861  -32.2867   26.4920 H   0  0  0  0  0  0
  -25.8059  -30.8914   27.0253 H   0  0  0  0  0  0
  -26.2810  -29.6824   24.1146 H   0  0  0  0  0  0
  -27.4068  -29.7300   25.4519 H   0  0  0  0  0  0
  -27.8612  -30.4408   23.9194 H   0  0  0  0  0  0
  -27.2622  -33.3653   26.2061 H   0  0  0  0  0  0
  -28.3802  -32.6893   25.0302 H   0  0  0  0  0  0
  -28.0664  -31.8474   26.5420 H   0  0  0  0  0  0
  -28.2570  -38.0131   24.7521 H   0  0  0  0  0  0
  -28.1111  -36.2651   24.6241 H   0  0  0  0  0  0
  -27.2303  -37.1409   25.8860 H   0  0  0  0  0  0
  -20.9301  -29.8736   21.6938 H   0  0  0  0  0  0
  -26.0179  -38.2878   24.1402 H   0  0  0  0  0  0
  -31.2608  -16.6527   19.0085 H   0  0  0  0  0  0
  -31.0289  -18.4827   17.4144 H   0  0  0  0  0  0
  -29.8072  -19.1989   22.1825 H   0  0  0  0  0  0
  -28.2377  -23.4183   21.4645 H   0  0  0  0  0  0
  -30.6119  -25.1266   20.5575 H   0  0  0  0  0  0
  -30.0460  -20.5682   16.8137 H   0  0  0  0  0  0
  -30.9640  -21.6783   17.8287 H   0  0  0  0  0  0
  -29.2025  -21.5709   17.9826 H   0  0  0  0  0  0
  -30.2106  -16.9321   22.6766 H   0  0  0  0  0  0
  -31.7491  -16.5339   21.9754 H   0  0  0  0  0  0
  -29.3157  -26.8045   21.8677 H   0  0  0  0  0  0
  -27.8742  -25.7945   21.7996 H   0  0  0  0  0  0
  -28.5037  -21.3541   21.0456 H   0  0  0  0  0  0
  -29.1999  -15.1378   21.6748 H   0  0  0  0  0  0
  1 25  1  0  0  0
  1 30  2  0  0  0
  1 84  1  0  0  0
  2  3  1  0  0  0
  2 25  1  0  0  0
  2 86  1  0  0  0
  2 87  1  0  0  0
  3  4  1  0  0  0
  3 88  1  0  0  0
  3 89  1  0  0  0
  4  5  1  0  0  0
  4 90  1  0  0  0
  4 91  1  0  0  0
  5  6  1  0  0  0
  5 26  1  0  0  0
  5 92  1  0  0  0
  6 25  1  0  0  0
  6 93  1  0  0  0
  6 94  1  0  0  0
  7  8  2  0  0  0
  7 26  1  0  0  0
  7 29  1  0  0  0
  8  9  1  0  0  0
  8 22  1  0  0  0
  9 10  1  0  0  0
  9 27  2  0  0  0
 10 11  2  0  0  0
 10 15  1  0  0  0
 11 12  1  0  0  0
 11 95  1  0  0  0
 12 13  2  0  0  0
 12 96  1  0  0  0
 13 14  1  0  0  0
 13 31  1  0  0  0
 14 15  2  0  0  0
 14 97  1  0  0  0
 15 98  1  0  0  0
 16 17  2  0  0  0
 16 21  1  0  0  0
 16 31  1  0  0  0
 17 18  1  0  0  0
 17 99  1  0  0  0
 18 19  2  0  0  0
 18100  1  0  0  0
 19 20  1  0  0  0
 19 24  1  0  0  0
 20 21  2  0  0  0
 20101  1  0  0  0
 21 23  1  0  0  0
 22 28  1  0  0  0
 22 32  2  0  0  0
 26 27  1  0  0  0
 28102  1  0  0  0
 28103  1  0  0  0
 29104  1  0  0  0
 29105  1  0  0  0
 33 34  1  0  0  0
 33 66  1  0  0  0
 33 70  2  0  0  0
 34 36  1  0  0  0
 34 59  1  0  0  0
 34106  1  0  0  0
 35 44  2  0  0  0
 35 45  1  0  0  0
 35 68  1  0  0  0
 36 56  1  0  0  0
 36107  1  0  0  0
 37 39  1  0  0  0
 37 47  1  0  0  0
 37 66  1  0  0  0
 37108  1  0  0  0
 38 43  2  0  0  0
 38 46  1  0  0  0
 38 47  1  0  0  0
 39 64  1  0  0  0
 39 67  2  0  0  0
 40 52  1  0  0  0
 40 53  2  0  0  0
 40 58  1  0  0  0
 41109  1  0  0  0
 41110  1  0  0  0
 41111  1  0  0  0
 41 48  1  0  0  0
 42 43  1  0  0  0
 42 66  1  0  0  0
 42112  1  0  0  0
 42113  1  0  0  0
 43 44  1  0  0  0
 44114  1  0  0  0
 45 46  2  0  0  0
 45115  1  0  0  0
 46116  1  0  0  0
 47117  1  0  0  0
 47118  1  0  0  0
 48 56  1  0  0  0
 48 65  1  0  0  0
 48119  1  0  0  0
 49 50  1  0  0  0
 49 53  1  0  0  0
 49 64  1  0  0  0
 49120  1  0  0  0
 50 51  1  0  0  0
 50121  1  0  0  0
 50122  1  0  0  0
 51 52  1  0  0  0
 51123  1  0  0  0
 51124  1  0  0  0
 52125  1  0  0  0
 52126  1  0  0  0
 53 54  1  0  0  0
 54 55  2  0  0  0
 54127  1  0  0  0
 55 57  1  0  0  0
 55128  1  0  0  0
 56 69  2  0  0  0
 57 58  2  0  0  0
 57129  1  0  0  0
 58130  1  0  0  0
 59 60  1  0  0  0
 59 61  1  0  0  0
 59 62  1  0  0  0
 60131  1  0  0  0
 60132  1  0  0  0
 60133  1  0  0  0
 61134  1  0  0  0
 61135  1  0  0  0
 61136  1  0  0  0
 62137  1  0  0  0
 62138  1  0  0  0
 62139  1  0  0  0
 63 65  1  0  0  0
 63140  1  0  0  0
 63141  1  0  0  0
 63142  1  0  0  0
 64143  1  0  0  0
 65144  1  0  0  0
 68 82  1  0  0  0
 71 72  2  0  0  0
 71 74  1  0  0  0
 71145  1  0  0  0
 72 75  1  0  0  0
 72146  1  0  0  0
 73 74  2  0  0  0
 73 76  1  0  0  0
 73147  1  0  0  0
 74 81  1  0  0  0
 75 76  2  0  0  0
 75 80  1  0  0  0
 76 83  1  0  0  0
 77 78  2  0  0  0
 77 79  1  0  0  0
 77148  1  0  0  0
 78 82  1  0  0  0
 78149  1  0  0  0
 79 83  1  0  0  0
 79 85  2  0  0  0
 80150  1  0  0  0
 80151  1  0  0  0
 80152  1  0  0  0
 81 84  1  0  0  0
 81153  1  0  0  0
 81154  1  0  0  0
 82155  1  0  0  0
 82156  1  0  0  0
 83157  1  0  0  0
 84158  1  0  0  0
M  ISO  4   1 100  68 101  82 101  84 100
M  END
> <chiral flag>
0

> <version>
0

> <s_m_source_file>
/data/baiqing/PycharmProjects/Reinvent-master-3.2/result/LINK_invent/BTK/process_docking_weight1_custom_product_contain_oxygen_bond_distance_aromatic_linkinvent_7_9_3/rearranged_h_0059.sdf

> <i_m_source_file_index>
60

> <r_mmod_Potential_Energy-OPLS-2005>
-188.316818237305

> <r_mmod_Stretch_Energy-OPLS-2005>
31.8676567077637

> <r_mmod_Bend_Energy-OPLS-2005>
86.4751358032227

> <r_mmod_Torsional_Energy-OPLS-2005>
245.669921875

> <r_mmod_Improper_Torsional_Energy-OPLS-2005>
2.3802502155304

> <r_mmod_Van_der_Waal_Energy-OPLS-2005>
155.936676025391

> <r_mmod_Electrostatic_Energy-OPLS-2005>
-484.646240234375

> <r_mmod_Solvation_Energy-OPLS-2005>
-234.603149414062

> <b_mmod_Minimization_Converged-OPLS-2005>
0

> <r_mmod_RMS_Derivative-OPLS-2005>
1.8924617767334

$$$$
60
                    3D
 Structure written by MMmdl.
156164  0  0  1  0            999 V2000
  -30.5301  -14.8917   20.4112 C   0  0  0  0  0  0
  -30.4350  -12.5605   19.5012 C   0  0  0  0  0  0
  -29.5328  -12.5390   18.2466 C   0  0  0  0  0  0
  -28.0619  -12.3286   18.6544 C   0  0  0  0  0  0
  -27.6309  -13.2486   19.8294 C   0  0  2  0  0  0
  -28.6584  -13.2475   20.9755 C   0  0  0  0  0  0
  -25.2469  -13.8183   20.5704 C   0  0  0  0  0  0
  -24.1787  -13.0411   20.9247 C   0  0  0  0  0  0
  -24.6397  -11.6908   20.8743 C   0  0  0  0  0  0
  -23.9057  -10.4302   21.0406 C   0  0  0  0  0  0
  -24.3618   -9.4242   21.9177 C   0  0  0  0  0  0
  -23.6315   -8.2267   22.0746 C   0  0  0  0  0  0
  -22.4298   -8.0284   21.3543 C   0  0  0  0  0  0
  -21.9919   -9.0268   20.4669 C   0  0  0  0  0  0
  -22.7234  -10.2142   20.3083 C   0  0  0  0  0  0
  -21.6859   -6.0775   22.5287 C   0  0  0  0  0  0
  -21.4026   -6.5666   23.8232 C   0  0  0  0  0  0
  -21.3667   -5.6798   24.9180 C   0  0  0  0  0  0
  -21.6063   -4.3068   24.7225 C   0  0  0  0  0  0
  -21.8791   -3.8172   23.4330 C   0  0  0  0  0  0
  -21.9185   -4.7004   22.3401 C   0  0  0  0  0  0
  -22.7802  -13.5251   21.1885 C   0  0  0  0  0  0
  -22.1650   -4.2192   21.0980 F   0  0  0  0  0  0
  -21.5637   -3.4551   25.7737 F   0  0  0  0  0  0
  -29.9429  -13.6416   20.3903 N   0  0  0  0  0  0
  -26.2873  -12.9436   20.3111 N   0  0  0  0  0  0
  -25.9331  -11.6564   20.5627 N   0  0  0  0  0  0
  -22.0407  -12.8295   22.0446 N   0  0  0  0  0  0
  -25.4073  -15.1922   20.4205 N   0  0  0  0  0  0
  -31.7421  -14.9516   20.1680 O   0  0  0  0  0  0
  -21.6657   -6.8900   21.4235 O   0  0  0  0  0  0
  -22.3518  -14.5569   20.6718 O   0  0  0  0  0  0
  -24.6378  -31.8544   23.2019 C   0  0  0  0  0  0
  -25.9178  -32.4749   23.8388 C   0  0  1  0  0  0
  -27.2090  -27.2186   20.1159 C   0  0  0  0  0  0
  -25.5945  -33.8556   24.2288 N   0  0  0  0  0  0
  -23.4323  -30.4829   21.5509 C   0  0  2  0  0  0
  -24.8716  -28.9236   20.1218 C   0  0  0  0  0  0
  -22.7502  -29.4624   22.4950 C   0  0  0  0  0  0
  -18.0300  -28.1357   22.8488 C   0  0  0  0  0  0
  -24.1461  -36.7244   23.2660 C   0  0  0  0  0  0
  -25.9896  -30.7498   21.3908 C   0  0  0  0  0  0
  -26.0560  -29.3747   20.7199 C   0  0  0  0  0  0
  -27.2268  -28.5367   20.7077 C   0  0  0  0  0  0
  -25.9745  -26.8415   19.5333 C   0  0  0  0  0  0
  -24.8348  -27.6580   19.5290 C   0  0  0  0  0  0
  -23.6497  -29.8227   20.1679 C   0  0  0  0  0  0
  -25.4094  -36.3077   24.0358 C   0  0  1  0  0  0
  -20.5911  -28.3660   23.1308 C   0  0  2  0  0  0
  -20.6779  -26.9365   22.5460 C   0  0  0  0  0  0
  -19.5787  -26.6342   21.5230 C   0  0  0  0  0  0
  -18.1943  -26.7907   22.1600 C   0  0  0  0  0  0
  -19.1552  -28.8829   23.2903 C   0  0  0  0  0  0
  -18.9459  -30.1427   23.8917 C   0  0  0  0  0  0
  -17.6470  -30.6566   24.0557 C   0  0  0  0  0  0
  -25.9051  -34.9440   23.5140 C   0  0  0  0  0  0
  -16.5356  -29.9064   23.6308 C   0  0  0  0  0  0
  -16.7293  -28.6474   23.0330 C   0  0  0  0  0  0
  -26.4487  -31.6612   25.0815 C   0  0  0  0  0  0
  -25.3710  -31.3800   26.1560 C   0  0  0  0  0  0
  -27.0316  -30.3016   24.6377 C   0  0  0  0  0  0
  -27.6042  -32.4370   25.7567 C   0  0  0  0  0  0
  -27.5578  -37.1785   24.8470 C   0  0  0  0  0  0
  -21.4225  -29.3025   22.3688 N   0  0  0  0  0  0
  -26.4267  -37.3784   23.9447 N   0  0  0  0  0  0
  -24.7070  -31.0478   22.1006 N   0  0  0  0  0  0
  -23.4209  -28.8180   23.3065 O   0  0  0  0  0  0
  -28.2654  -26.2542   20.1663 O   0  0  0  0  0  0
  -26.5612  -34.8928   22.4691 O   0  0  0  0  0  0
  -23.5513  -32.1355   23.7291 O   0  0  0  0  0  0
  -31.1149  -18.8802   18.3600 C   0  0  0  0  0  0
  -30.8735  -17.6369   18.9640 C   0  0  0  0  0  0
  -29.2480  -18.7253   20.3931 C   0  0  0  0  0  0
  -30.4378  -20.0644   18.7216 C   0  0  0  0  0  0
  -29.9464  -17.4729   20.0150 C   0  0  0  0  0  0
  -29.4907  -20.0600   19.7914 C   0  0  0  0  0  0
  -28.3939  -23.6833   19.4347 C   0  0  0  0  0  0
  -28.1487  -25.0643   19.3737 C   0  0  0  0  0  0
  -29.0334  -22.6422   20.3232 C   0  0  0  0  0  0
  -29.7253  -21.4290   16.6836 C   0  0  0  0  0  0
  -30.7398  -21.2825   17.8339 C   0  0  0  0  0  0
  -30.1927  -21.6024   15.4516 N   0  0  0  0  0  0
  -28.6890  -21.3149   20.0249 N   0  0  0  0  0  0
  -29.7399  -16.0603   20.5337 N   0  0  0  0  0  0
  -29.8326  -22.9091   21.2223 O   0  0  0  0  0  0
  -28.5132  -21.4006   16.8913 O   0  0  0  0  0  0
  -31.4798  -12.6998   19.2166 H   0  0  0  0  0  0
  -30.3916  -11.6042   20.0213 H   0  0  0  0  0  0
  -29.8619  -11.7549   17.5672 H   0  0  0  0  0  0
  -29.6231  -13.4798   17.7013 H   0  0  0  0  0  0
  -27.9530  -11.2799   18.9419 H   0  0  0  0  0  0
  -27.4054  -12.4791   17.7989 H   0  0  0  0  0  0
  -27.6092  -14.2610   19.4203 H   0  0  0  0  0  0
  -28.7237  -12.2718   21.4616 H   0  0  0  0  0  0
  -28.3658  -13.9619   21.7482 H   0  0  0  0  0  0
  -25.2759   -9.5830   22.4714 H   0  0  0  0  0  0
  -24.0090   -7.4720   22.7474 H   0  0  0  0  0  0
  -21.0831   -8.8790   19.8999 H   0  0  0  0  0  0
  -22.3663  -10.9679   19.6217 H   0  0  0  0  0  0
  -21.2011   -7.6174   23.9773 H   0  0  0  0  0  0
  -21.1518   -6.0513   25.9095 H   0  0  0  0  0  0
  -22.0555   -2.7633   23.2808 H   0  0  0  0  0  0
  -22.3994  -12.0027   22.4998 H   0  0  0  0  0  0
  -21.1036  -13.1377   22.2554 H   0  0  0  0  0  0
  -24.6311  -15.8212   20.5990 H   0  0  0  0  0  0
  -26.2307  -15.6583   20.0598 H   0  0  0  0  0  0
  -26.7247  -32.5336   23.1128 H   0  0  0  0  0  0
  -25.0080  -33.9685   25.0431 H   0  0  0  0  0  0
  -22.7325  -31.3120   21.4105 H   0  0  0  0  0  0
  -23.3756  -35.9542   23.3312 H   0  0  0  0  0  0
  -24.3548  -36.8850   22.2074 H   0  0  0  0  0  0
  -23.7175  -37.6434   23.6654 H   0  0  0  0  0  0
  -26.1522  -31.5161   20.6321 H   0  0  0  0  0  0
  -26.8547  -30.7811   22.0412 H   0  0  0  0  0  0
  -28.1272  -28.8754   21.1981 H   0  0  0  0  0  0
  -25.8219  -25.8616   19.1122 H   0  0  0  0  0  0
  -23.9176  -27.2767   19.1031 H   0  0  0  0  0  0
  -23.7850  -30.6012   19.4176 H   0  0  0  0  0  0
  -22.7588  -29.2784   19.8529 H   0  0  0  0  0  0
  -25.1269  -36.1917   25.0851 H   0  0  0  0  0  0
  -20.9998  -28.3206   24.1438 H   0  0  0  0  0  0
  -20.5583  -26.2270   23.3651 H   0  0  0  0  0  0
  -21.6664  -26.7336   22.1344 H   0  0  0  0  0  0
  -19.6931  -25.6239   21.1278 H   0  0  0  0  0  0
  -19.6743  -27.3123   20.6726 H   0  0  0  0  0  0
  -17.4229  -26.6693   21.3963 H   0  0  0  0  0  0
  -18.0292  -26.0030   22.8963 H   0  0  0  0  0  0
  -19.7930  -30.7237   24.2281 H   0  0  0  0  0  0
  -17.5009  -31.6225   24.5170 H   0  0  0  0  0  0
  -15.5346  -30.2965   23.7621 H   0  0  0  0  0  0
  -15.8691  -28.0801   22.7026 H   0  0  0  0  0  0
  -24.5899  -30.7095   25.7975 H   0  0  0  0  0  0
  -24.8842  -32.2940   26.4975 H   0  0  0  0  0  0
  -25.8053  -30.9057   27.0372 H   0  0  0  0  0  0
  -26.2897  -29.6802   24.1351 H   0  0  0  0  0  0
  -27.3875  -29.7311   25.4971 H   0  0  0  0  0  0
  -27.8851  -30.4281   23.9718 H   0  0  0  0  0  0
  -27.2641  -33.3662   26.2190 H   0  0  0  0  0  0
  -28.3811  -32.6979   25.0353 H   0  0  0  0  0  0
  -28.0772  -31.8474   26.5448 H   0  0  0  0  0  0
  -28.2645  -38.0046   24.7497 H   0  0  0  0  0  0
  -28.1025  -36.2580   24.6272 H   0  0  0  0  0  0
  -27.2314  -37.1436   25.8887 H   0  0  0  0  0  0
  -20.9369  -29.8764   21.6926 H   0  0  0  0  0  0
  -26.0142  -38.2863   24.1425 H   0  0  0  0  0  0
  -31.8217  -18.9033   17.5441 H   0  0  0  0  0  0
  -31.4026  -16.7921   18.5588 H   0  0  0  0  0  0
  -28.4916  -18.6755   21.1644 H   0  0  0  0  0  0
  -28.0524  -23.2233   18.5234 H   0  0  0  0  0  0
  -27.7330  -25.3685   18.4201 H   0  0  0  0  0  0
  -31.7406  -21.1538   17.4161 H   0  0  0  0  0  0
  -30.8136  -22.2069   18.3958 H   0  0  0  0  0  0
  -31.1849  -21.6268   15.2658 H   0  0  0  0  0  0
  -29.5551  -21.7343   14.6799 H   0  0  0  0  0  0
  -27.7971  -21.2837   19.5527 H   0  0  0  0  0  0
  -28.8168  -15.8857   20.9060 H   0  0  0  0  0  0
  1 25  1  0  0  0
  1 30  2  0  0  0
  1 84  1  0  0  0
  2  3  1  0  0  0
  2 25  1  0  0  0
  2 87  1  0  0  0
  2 88  1  0  0  0
  3  4  1  0  0  0
  3 89  1  0  0  0
  3 90  1  0  0  0
  4  5  1  0  0  0
  4 91  1  0  0  0
  4 92  1  0  0  0
  5  6  1  0  0  0
  5 26  1  0  0  0
  5 93  1  0  0  0
  6 25  1  0  0  0
  6 94  1  0  0  0
  6 95  1  0  0  0
  7  8  2  0  0  0
  7 26  1  0  0  0
  7 29  1  0  0  0
  8  9  1  0  0  0
  8 22  1  0  0  0
  9 10  1  0  0  0
  9 27  2  0  0  0
 10 11  2  0  0  0
 10 15  1  0  0  0
 11 12  1  0  0  0
 11 96  1  0  0  0
 12 13  2  0  0  0
 12 97  1  0  0  0
 13 14  1  0  0  0
 13 31  1  0  0  0
 14 15  2  0  0  0
 14 98  1  0  0  0
 15 99  1  0  0  0
 16 17  2  0  0  0
 16 21  1  0  0  0
 16 31  1  0  0  0
 17 18  1  0  0  0
 17100  1  0  0  0
 18 19  2  0  0  0
 18101  1  0  0  0
 19 20  1  0  0  0
 19 24  1  0  0  0
 20 21  2  0  0  0
 20102  1  0  0  0
 21 23  1  0  0  0
 22 28  1  0  0  0
 22 32  2  0  0  0
 26 27  1  0  0  0
 28103  1  0  0  0
 28104  1  0  0  0
 29105  1  0  0  0
 29106  1  0  0  0
 33 34  1  0  0  0
 33 66  1  0  0  0
 33 70  2  0  0  0
 34 36  1  0  0  0
 34 59  1  0  0  0
 34107  1  0  0  0
 35 44  2  0  0  0
 35 45  1  0  0  0
 35 68  1  0  0  0
 36 56  1  0  0  0
 36108  1  0  0  0
 37 39  1  0  0  0
 37 47  1  0  0  0
 37 66  1  0  0  0
 37109  1  0  0  0
 38 43  2  0  0  0
 38 46  1  0  0  0
 38 47  1  0  0  0
 39 64  1  0  0  0
 39 67  2  0  0  0
 40 52  1  0  0  0
 40 53  2  0  0  0
 40 58  1  0  0  0
 41110  1  0  0  0
 41111  1  0  0  0
 41112  1  0  0  0
 41 48  1  0  0  0
 42 43  1  0  0  0
 42 66  1  0  0  0
 42113  1  0  0  0
 42114  1  0  0  0
 43 44  1  0  0  0
 44115  1  0  0  0
 45 46  2  0  0  0
 45116  1  0  0  0
 46117  1  0  0  0
 47118  1  0  0  0
 47119  1  0  0  0
 48 56  1  0  0  0
 48 65  1  0  0  0
 48120  1  0  0  0
 49 50  1  0  0  0
 49 53  1  0  0  0
 49 64  1  0  0  0
 49121  1  0  0  0
 50 51  1  0  0  0
 50122  1  0  0  0
 50123  1  0  0  0
 51 52  1  0  0  0
 51124  1  0  0  0
 51125  1  0  0  0
 52126  1  0  0  0
 52127  1  0  0  0
 53 54  1  0  0  0
 54 55  2  0  0  0
 54128  1  0  0  0
 55 57  1  0  0  0
 55129  1  0  0  0
 56 69  2  0  0  0
 57 58  2  0  0  0
 57130  1  0  0  0
 58131  1  0  0  0
 59 60  1  0  0  0
 59 61  1  0  0  0
 59 62  1  0  0  0
 60132  1  0  0  0
 60133  1  0  0  0
 60134  1  0  0  0
 61135  1  0  0  0
 61136  1  0  0  0
 61137  1  0  0  0
 62138  1  0  0  0
 62139  1  0  0  0
 62140  1  0  0  0
 63 65  1  0  0  0
 63141  1  0  0  0
 63142  1  0  0  0
 63143  1  0  0  0
 64144  1  0  0  0
 65145  1  0  0  0
 68 78  1  0  0  0
 71 72  2  0  0  0
 71 74  1  0  0  0
 71146  1  0  0  0
 72 75  1  0  0  0
 72147  1  0  0  0
 73 75  2  0  0  0
 73 76  1  0  0  0
 73148  1  0  0  0
 74 76  2  0  0  0
 74 81  1  0  0  0
 75 84  1  0  0  0
 76 83  1  0  0  0
 77 78  2  0  0  0
 77 79  1  0  0  0
 77149  1  0  0  0
 78150  1  0  0  0
 79 83  1  0  0  0
 79 85  2  0  0  0
 80 81  1  0  0  0
 80 82  1  0  0  0
 80 86  2  0  0  0
 81151  1  0  0  0
 81152  1  0  0  0
 82153  1  0  0  0
 82154  1  0  0  0
 83155  1  0  0  0
 84156  1  0  0  0
M  ISO  4   1 100  68 101  78 101  84 100
M  END
> <chiral flag>
0

> <version>
0

> <s_m_source_file>
/data/baiqing/PycharmProjects/Reinvent-master-3.2/result/LINK_invent/BTK/process_docking_weight1_custom_product_contain_oxygen_bond_distance_aromatic_linkinvent_7_9_3/rearranged_h_0059.sdf

> <i_m_source_file_index>
61

> <r_mmod_Potential_Energy-OPLS-2005>
271.945129394531

> <r_mmod_Stretch_Energy-OPLS-2005>
167.826644897461

> <r_mmod_Bend_Energy-OPLS-2005>
268.692321777344

> <r_mmod_Torsional_Energy-OPLS-2005>
290.294372558594

> <r_mmod_Improper_Torsional_Energy-OPLS-2005>
8.00295448303223

> <r_mmod_Van_der_Waal_Energy-OPLS-2005>
150.019943237305

> <r_mmod_Electrostatic_Energy-OPLS-2005>
-489.680938720703

> <r_mmod_Solvation_Energy-OPLS-2005>
-272.280212402344

> <b_mmod_Minimization_Converged-OPLS-2005>
0

> <r_mmod_RMS_Derivative-OPLS-2005>
6.72309637069702

$$$$
61
                    3D
 Structure written by MMmdl.
154162  0  0  1  0            999 V2000
  -30.6191  -14.6455   20.4992 C   0  0  0  0  0  0
  -30.4393  -12.3940   19.4566 C   0  0  0  0  0  0
  -29.5097  -12.5077   18.2272 C   0  0  0  0  0  0
  -28.0323  -12.3441   18.6378 C   0  0  0  0  0  0
  -27.6542  -13.2159   19.8649 C   0  0  2  0  0  0
  -28.6981  -13.0712   20.9957 C   0  0  0  0  0  0
  -25.2567  -13.8168   20.5686 C   0  0  0  0  0  0
  -24.1830  -13.0438   20.9186 C   0  0  0  0  0  0
  -24.6395  -11.6907   20.8736 C   0  0  0  0  0  0
  -23.9061  -10.4292   21.0404 C   0  0  0  0  0  0
  -24.3614   -9.4208   21.9183 C   0  0  0  0  0  0
  -23.6290   -8.2243   22.0753 C   0  0  0  0  0  0
  -22.4273   -8.0280   21.3544 C   0  0  0  0  0  0
  -21.9906   -9.0251   20.4646 C   0  0  0  0  0  0
  -22.7233  -10.2132   20.3055 C   0  0  0  0  0  0
  -21.6853   -6.0736   22.5279 C   0  0  0  0  0  0
  -21.4014   -6.5640   23.8212 C   0  0  0  0  0  0
  -21.3659   -5.6793   24.9174 C   0  0  0  0  0  0
  -21.6044   -4.3056   24.7225 C   0  0  0  0  0  0
  -21.8820   -3.8147   23.4346 C   0  0  0  0  0  0
  -21.9192   -4.6964   22.3403 C   0  0  0  0  0  0
  -22.7855  -13.5234   21.1850 C   0  0  0  0  0  0
  -22.1662   -4.2150   21.0981 F   0  0  0  0  0  0
  -21.5628   -3.4539   25.7737 F   0  0  0  0  0  0
  -30.0143  -13.4161   20.4346 N   0  0  0  0  0  0
  -26.2993  -12.9347   20.3323 N   0  0  0  0  0  0
  -25.9323  -11.6502   20.5755 N   0  0  0  0  0  0
  -22.0495  -12.8225   22.0406 N   0  0  0  0  0  0
  -25.4288  -15.1890   20.4106 N   0  0  0  0  0  0
  -31.7767  -14.8079   20.1020 O   0  0  0  0  0  0
  -21.6639   -6.8877   21.4240 O   0  0  0  0  0  0
  -22.3541  -14.5541   20.6700 O   0  0  0  0  0  0
  -24.6264  -31.8598   23.2018 C   0  0  0  0  0  0
  -25.9108  -32.4778   23.8351 C   0  0  1  0  0  0
  -27.2263  -27.3188   20.1154 C   0  0  0  0  0  0
  -25.5924  -33.8579   24.2275 N   0  0  0  0  0  0
  -23.4196  -30.4830   21.5450 C   0  0  2  0  0  0
  -24.8663  -28.9382   20.1113 C   0  0  0  0  0  0
  -22.7476  -29.4617   22.4937 C   0  0  0  0  0  0
  -18.0284  -28.1383   22.8479 C   0  0  0  0  0  0
  -24.1490  -36.7293   23.2640 C   0  0  0  0  0  0
  -25.9611  -30.7911   21.3724 C   0  0  0  0  0  0
  -26.0358  -29.4188   20.7137 C   0  0  0  0  0  0
  -27.2184  -28.6214   20.7046 C   0  0  0  0  0  0
  -26.0311  -26.8903   19.4924 C   0  0  0  0  0  0
  -24.8658  -27.6792   19.4922 C   0  0  0  0  0  0
  -23.6345  -29.8185   20.1601 C   0  0  0  0  0  0
  -25.4116  -36.3082   24.0330 C   0  0  1  0  0  0
  -20.5884  -28.3682   23.1286 C   0  0  2  0  0  0
  -20.6774  -26.9405   22.5412 C   0  0  0  0  0  0
  -19.5754  -26.6381   21.5212 C   0  0  0  0  0  0
  -18.1931  -26.7925   22.1620 C   0  0  0  0  0  0
  -19.1537  -28.8849   23.2876 C   0  0  0  0  0  0
  -18.9465  -30.1452   23.8890 C   0  0  0  0  0  0
  -17.6466  -30.6583   24.0561 C   0  0  0  0  0  0
  -25.9052  -34.9452   23.5101 C   0  0  0  0  0  0
  -16.5354  -29.9083   23.6333 C   0  0  0  0  0  0
  -16.7273  -28.6506   23.0343 C   0  0  0  0  0  0
  -26.4493  -31.6587   25.0722 C   0  0  0  0  0  0
  -25.3725  -31.3734   26.1448 C   0  0  0  0  0  0
  -27.0339  -30.3015   24.6171 C   0  0  0  0  0  0
  -27.6050  -32.4322   25.7494 C   0  0  0  0  0  0
  -27.5578  -37.1801   24.8466 C   0  0  0  0  0  0
  -21.4188  -29.3036   22.3683 N   0  0  0  0  0  0
  -26.4292  -37.3776   23.9408 N   0  0  0  0  0  0
  -24.6878  -31.0610   22.0969 N   0  0  0  0  0  0
  -23.4202  -28.8155   23.3015 O   0  0  0  0  0  0
  -28.3491  -26.4759   20.1640 O   0  0  0  0  0  0
  -26.5622  -34.8920   22.4667 O   0  0  0  0  0  0
  -23.5428  -32.1396   23.7348 O   0  0  0  0  0  0
  -28.9683  -17.9825   21.3923 C   0  0  0  0  0  0
  -30.8586  -17.8295   19.9271 C   0  0  0  0  0  0
  -29.9518  -20.0983   20.5097 C   0  0  0  0  0  0
  -28.9807  -19.4129   21.3057 C   0  0  0  0  0  0
  -29.9124  -17.1474   20.7326 C   0  0  0  0  0  0
  -30.8769  -19.2532   19.8183 C   0  0  0  0  0  0
  -30.1616  -21.6371   20.5126 C   0  0  0  0  0  0
  -27.9553  -20.1811   22.1271 C   0  0  0  0  0  0
  -29.3553  -24.0516   20.4060 C   0  0  0  0  0  0
  -28.1437  -25.0115   20.0423 C   0  0  0  0  0  0
  -29.8179  -15.6894   20.8886 N   0  0  0  0  0  0
  -29.1529  -22.5509   20.3471 N   0  0  0  0  0  0
  -31.3110  -22.0527   20.6771 O   0  0  0  0  0  0
  -31.8301  -19.8031   19.0260 F   0  0  0  0  0  0
  -31.4810  -12.5190   19.1556 H   0  0  0  0  0  0
  -30.3742  -11.3987   19.8985 H   0  0  0  0  0  0
  -29.7755  -11.7559   17.4828 H   0  0  0  0  0  0
  -29.6512  -13.4771   17.7465 H   0  0  0  0  0  0
  -27.8705  -11.2908   18.8706 H   0  0  0  0  0  0
  -27.3780  -12.5723   17.7956 H   0  0  0  0  0  0
  -27.6727  -14.2511   19.5233 H   0  0  0  0  0  0
  -28.7100  -12.0490   21.3769 H   0  0  0  0  0  0
  -28.4406  -13.7009   21.8485 H   0  0  0  0  0  0
  -25.2759   -9.5688   22.4755 H   0  0  0  0  0  0
  -24.0002   -7.4637   22.7473 H   0  0  0  0  0  0
  -21.0838   -8.8768   19.8951 H   0  0  0  0  0  0
  -22.3690  -10.9670   19.6164 H   0  0  0  0  0  0
  -21.2007   -7.6147   23.9716 H   0  0  0  0  0  0
  -21.1481   -6.0523   25.9077 H   0  0  0  0  0  0
  -22.0598   -2.7609   23.2846 H   0  0  0  0  0  0
  -22.4109  -11.9886   22.4795 H   0  0  0  0  0  0
  -21.1113  -13.1254   22.2611 H   0  0  0  0  0  0
  -24.6598  -15.8422   20.5133 H   0  0  0  0  0  0
  -26.2761  -15.6272   20.0722 H   0  0  0  0  0  0
  -26.7175  -32.5447   23.1099 H   0  0  0  0  0  0
  -25.0073  -33.9727   25.0421 H   0  0  0  0  0  0
  -22.7134  -31.3037   21.4025 H   0  0  0  0  0  0
  -23.3751  -35.9626   23.3308 H   0  0  0  0  0  0
  -24.3583  -36.8909   22.2052 H   0  0  0  0  0  0
  -23.7250  -37.6499   23.6660 H   0  0  0  0  0  0
  -26.0931  -31.5556   20.6053 H   0  0  0  0  0  0
  -26.8414  -30.8386   22.0021 H   0  0  0  0  0  0
  -28.1159  -28.9860   21.1846 H   0  0  0  0  0  0
  -25.9671  -25.9293   19.0056 H   0  0  0  0  0  0
  -23.9691  -27.3041   19.0183 H   0  0  0  0  0  0
  -23.7545  -30.5959   19.4049 H   0  0  0  0  0  0
  -22.7543  -29.2490   19.8557 H   0  0  0  0  0  0
  -25.1296  -36.1934   25.0825 H   0  0  0  0  0  0
  -20.9972  -28.3250   24.1410 H   0  0  0  0  0  0
  -20.5681  -26.2285   23.3607 H   0  0  0  0  0  0
  -21.6642  -26.7437   22.1202 H   0  0  0  0  0  0
  -19.6920  -25.6296   21.1237 H   0  0  0  0  0  0
  -19.6696  -27.3192   20.6744 H   0  0  0  0  0  0
  -17.4201  -26.6665   21.4022 H   0  0  0  0  0  0
  -18.0332  -26.0073   22.9024 H   0  0  0  0  0  0
  -19.7944  -30.7267   24.2252 H   0  0  0  0  0  0
  -17.5026  -31.6265   24.5162 H   0  0  0  0  0  0
  -15.5356  -30.2985   23.7667 H   0  0  0  0  0  0
  -15.8672  -28.0833   22.7051 H   0  0  0  0  0  0
  -24.5898  -30.7084   25.7781 H   0  0  0  0  0  0
  -24.8920  -32.2903   26.4866 H   0  0  0  0  0  0
  -25.8046  -30.8918   27.0228 H   0  0  0  0  0  0
  -26.2914  -29.6765   24.1195 H   0  0  0  0  0  0
  -27.4048  -29.7273   25.4671 H   0  0  0  0  0  0
  -27.8777  -30.4314   23.9391 H   0  0  0  0  0  0
  -27.2659  -33.3625   26.2064 H   0  0  0  0  0  0
  -28.3862  -32.6874   25.0322 H   0  0  0  0  0  0
  -28.0712  -31.8452   26.5417 H   0  0  0  0  0  0
  -28.2593  -38.0099   24.7506 H   0  0  0  0  0  0
  -28.1074  -36.2627   24.6296 H   0  0  0  0  0  0
  -27.2296  -37.1457   25.8869 H   0  0  0  0  0  0
  -20.9365  -29.8773   21.6907 H   0  0  0  0  0  0
  -26.0173  -38.2853   24.1408 H   0  0  0  0  0  0
  -28.2164  -17.5113   22.0110 H   0  0  0  0  0  0
  -31.5971  -17.2697   19.3729 H   0  0  0  0  0  0
  -27.4435  -19.5311   22.8373 H   0  0  0  0  0  0
  -27.1985  -20.6222   21.4784 H   0  0  0  0  0  0
  -28.4258  -20.9780   22.7043 H   0  0  0  0  0  0
  -29.6887  -24.2954   21.4154 H   0  0  0  0  0  0
  -30.1897  -24.3072   19.7510 H   0  0  0  0  0  0
  -27.3002  -24.7303   20.6751 H   0  0  0  0  0  0
  -27.8522  -24.7914   19.0151 H   0  0  0  0  0  0
  -28.9459  -15.3702   21.2826 H   0  0  0  0  0  0
  -28.2161  -22.2031   20.1971 H   0  0  0  0  0  0
  1 25  1  0  0  0
  1 30  2  0  0  0
  1 81  1  0  0  0
  2  3  1  0  0  0
  2 25  1  0  0  0
  2 85  1  0  0  0
  2 86  1  0  0  0
  3  4  1  0  0  0
  3 87  1  0  0  0
  3 88  1  0  0  0
  4  5  1  0  0  0
  4 89  1  0  0  0
  4 90  1  0  0  0
  5  6  1  0  0  0
  5 26  1  0  0  0
  5 91  1  0  0  0
  6 25  1  0  0  0
  6 92  1  0  0  0
  6 93  1  0  0  0
  7  8  2  0  0  0
  7 26  1  0  0  0
  7 29  1  0  0  0
  8  9  1  0  0  0
  8 22  1  0  0  0
  9 10  1  0  0  0
  9 27  2  0  0  0
 10 11  2  0  0  0
 10 15  1  0  0  0
 11 12  1  0  0  0
 11 94  1  0  0  0
 12 13  2  0  0  0
 12 95  1  0  0  0
 13 14  1  0  0  0
 13 31  1  0  0  0
 14 15  2  0  0  0
 14 96  1  0  0  0
 15 97  1  0  0  0
 16 17  2  0  0  0
 16 21  1  0  0  0
 16 31  1  0  0  0
 17 18  1  0  0  0
 17 98  1  0  0  0
 18 19  2  0  0  0
 18 99  1  0  0  0
 19 20  1  0  0  0
 19 24  1  0  0  0
 20 21  2  0  0  0
 20100  1  0  0  0
 21 23  1  0  0  0
 22 28  1  0  0  0
 22 32  2  0  0  0
 26 27  1  0  0  0
 28101  1  0  0  0
 28102  1  0  0  0
 29103  1  0  0  0
 29104  1  0  0  0
 33 34  1  0  0  0
 33 66  1  0  0  0
 33 70  2  0  0  0
 34 36  1  0  0  0
 34 59  1  0  0  0
 34105  1  0  0  0
 35 44  2  0  0  0
 35 45  1  0  0  0
 35 68  1  0  0  0
 36 56  1  0  0  0
 36106  1  0  0  0
 37 39  1  0  0  0
 37 47  1  0  0  0
 37 66  1  0  0  0
 37107  1  0  0  0
 38 43  2  0  0  0
 38 46  1  0  0  0
 38 47  1  0  0  0
 39 64  1  0  0  0
 39 67  2  0  0  0
 40 52  1  0  0  0
 40 53  2  0  0  0
 40 58  1  0  0  0
 41108  1  0  0  0
 41109  1  0  0  0
 41110  1  0  0  0
 41 48  1  0  0  0
 42 43  1  0  0  0
 42 66  1  0  0  0
 42111  1  0  0  0
 42112  1  0  0  0
 43 44  1  0  0  0
 44113  1  0  0  0
 45 46  2  0  0  0
 45114  1  0  0  0
 46115  1  0  0  0
 47116  1  0  0  0
 47117  1  0  0  0
 48 56  1  0  0  0
 48 65  1  0  0  0
 48118  1  0  0  0
 49 50  1  0  0  0
 49 53  1  0  0  0
 49 64  1  0  0  0
 49119  1  0  0  0
 50 51  1  0  0  0
 50120  1  0  0  0
 50121  1  0  0  0
 51 52  1  0  0  0
 51122  1  0  0  0
 51123  1  0  0  0
 52124  1  0  0  0
 52125  1  0  0  0
 53 54  1  0  0  0
 54 55  2  0  0  0
 54126  1  0  0  0
 55 57  1  0  0  0
 55127  1  0  0  0
 56 69  2  0  0  0
 57 58  2  0  0  0
 57128  1  0  0  0
 58129  1  0  0  0
 59 60  1  0  0  0
 59 61  1  0  0  0
 59 62  1  0  0  0
 60130  1  0  0  0
 60131  1  0  0  0
 60132  1  0  0  0
 61133  1  0  0  0
 61134  1  0  0  0
 61135  1  0  0  0
 62136  1  0  0  0
 62137  1  0  0  0
 62138  1  0  0  0
 63 65  1  0  0  0
 63139  1  0  0  0
 63140  1  0  0  0
 63141  1  0  0  0
 64142  1  0  0  0
 65143  1  0  0  0
 68 80  1  0  0  0
 71 74  2  0  0  0
 71 75  1  0  0  0
 71144  1  0  0  0
 72 75  2  0  0  0
 72 76  1  0  0  0
 72145  1  0  0  0
 73 74  1  0  0  0
 73 76  2  0  0  0
 73 77  1  0  0  0
 74 78  1  0  0  0
 75 81  1  0  0  0
 76 84  1  0  0  0
 77 82  1  0  0  0
 77 83  2  0  0  0
 78146  1  0  0  0
 78147  1  0  0  0
 78148  1  0  0  0
 79 80  1  0  0  0
 79 82  1  0  0  0
 79149  1  0  0  0
 79150  1  0  0  0
 80151  1  0  0  0
 80152  1  0  0  0
 81153  1  0  0  0
 82154  1  0  0  0
M  ISO  4   1 100  68 101  80 101  81 100
M  END
> <chiral flag>
0

> <version>
0

> <s_m_source_file>
/data/baiqing/PycharmProjects/Reinvent-master-3.2/result/LINK_invent/BTK/process_docking_weight1_custom_product_contain_oxygen_bond_distance_aromatic_linkinvent_7_9_3/rearranged_h_0059.sdf

> <i_m_source_file_index>
62

> <r_mmod_Potential_Energy-OPLS-2005>
60.3446922302246

> <r_mmod_Stretch_Energy-OPLS-2005>
83.045295715332

> <r_mmod_Bend_Energy-OPLS-2005>
140.287750244141

> <r_mmod_Torsional_Energy-OPLS-2005>
225.857406616211

> <r_mmod_Improper_Torsional_Energy-OPLS-2005>
4.35589647293091

> <r_mmod_Van_der_Waal_Energy-OPLS-2005>
148.778915405273

> <r_mmod_Electrostatic_Energy-OPLS-2005>
-351.594299316406

> <r_mmod_Solvation_Energy-OPLS-2005>
-239.243453979492

> <b_mmod_Minimization_Converged-OPLS-2005>
0

> <r_mmod_RMS_Derivative-OPLS-2005>
0.611391246318817

$$$$
62
                    3D
 Structure written by MMmdl.
173181  0  0  1  0            999 V2000
  -30.7536  -14.4070   20.6552 C   0  0  0  0  0  0
  -30.4129  -12.3036   19.4065 C   0  0  0  0  0  0
  -29.4883  -12.5364   18.1975 C   0  0  0  0  0  0
  -28.0106  -12.3901   18.6085 C   0  0  0  0  0  0
  -27.6633  -13.2105   19.8795 C   0  0  2  0  0  0
  -28.7021  -12.9707   20.9972 C   0  0  0  0  0  0
  -25.2598  -13.8164   20.5672 C   0  0  0  0  0  0
  -24.1844  -13.0433   20.9152 C   0  0  0  0  0  0
  -24.6401  -11.6901   20.8719 C   0  0  0  0  0  0
  -23.9059  -10.4290   21.0388 C   0  0  0  0  0  0
  -24.3611   -9.4223   21.9179 C   0  0  0  0  0  0
  -23.6287   -8.2255   22.0752 C   0  0  0  0  0  0
  -22.4278   -8.0280   21.3538 C   0  0  0  0  0  0
  -21.9909   -9.0246   20.4636 C   0  0  0  0  0  0
  -22.7227  -10.2128   20.3038 C   0  0  0  0  0  0
  -21.6856   -6.0742   22.5273 C   0  0  0  0  0  0
  -21.4012   -6.5647   23.8202 C   0  0  0  0  0  0
  -21.3655   -5.6801   24.9166 C   0  0  0  0  0  0
  -21.6043   -4.3061   24.7215 C   0  0  0  0  0  0
  -21.8823   -3.8151   23.4336 C   0  0  0  0  0  0
  -21.9198   -4.6971   22.3396 C   0  0  0  0  0  0
  -22.7874  -13.5241   21.1825 C   0  0  0  0  0  0
  -22.1670   -4.2159   21.0973 F   0  0  0  0  0  0
  -21.5625   -3.4546   25.7729 F   0  0  0  0  0  0
  -30.0391  -13.2685   20.4519 N   0  0  0  0  0  0
  -26.3031  -12.9337   20.3381 N   0  0  0  0  0  0
  -25.9331  -11.6490   20.5757 N   0  0  0  0  0  0
  -22.0507  -12.8218   22.0362 N   0  0  0  0  0  0
  -25.4332  -15.1880   20.4089 N   0  0  0  0  0  0
  -31.8238  -14.6340   20.0826 O   0  0  0  0  0  0
  -21.6639   -6.8884   21.4236 O   0  0  0  0  0  0
  -22.3563  -14.5561   20.6695 O   0  0  0  0  0  0
  -24.6165  -31.8642   23.2122 C   0  0  0  0  0  0
  -25.9083  -32.4777   23.8379 C   0  0  1  0  0  0
  -27.2306  -27.4401   20.0767 C   0  0  0  0  0  0
  -25.5969  -33.8576   24.2354 N   0  0  0  0  0  0
  -23.3991  -30.4928   21.5541 C   0  0  2  0  0  0
  -24.8401  -28.9608   20.1160 C   0  0  0  0  0  0
  -22.7378  -29.4654   22.5009 C   0  0  0  0  0  0
  -18.0258  -28.1362   22.8492 C   0  0  0  0  0  0
  -24.1479  -36.7277   23.2631 C   0  0  0  0  0  0
  -25.9240  -30.8365   21.3551 C   0  0  0  0  0  0
  -26.0011  -29.4676   20.7113 C   0  0  0  0  0  0
  -27.1955  -28.7109   20.6971 C   0  0  0  0  0  0
  -26.0431  -26.9489   19.4793 C   0  0  0  0  0  0
  -24.8539  -27.6991   19.5033 C   0  0  0  0  0  0
  -23.6023  -29.8265   20.1684 C   0  0  0  0  0  0
  -25.4082  -36.3064   24.0356 C   0  0  1  0  0  0
  -20.5849  -28.3641   23.1322 C   0  0  2  0  0  0
  -20.6756  -26.9377   22.5428 C   0  0  0  0  0  0
  -19.5756  -26.6389   21.5201 C   0  0  0  0  0  0
  -18.1914  -26.7929   22.1572 C   0  0  0  0  0  0
  -19.1507  -28.8816   23.2921 C   0  0  0  0  0  0
  -18.9434  -30.1418   23.8940 C   0  0  0  0  0  0
  -17.6437  -30.6565   24.0567 C   0  0  0  0  0  0
  -25.9025  -34.9440   23.5134 C   0  0  0  0  0  0
  -16.5326  -29.9069   23.6334 C   0  0  0  0  0  0
  -16.7236  -28.6480   23.0356 C   0  0  0  0  0  0
  -26.4558  -31.6516   25.0657 C   0  0  0  0  0  0
  -25.3863  -31.3565   26.1425 C   0  0  0  0  0  0
  -27.0383  -30.2973   24.5948 C   0  0  0  0  0  0
  -27.6161  -32.4206   25.7401 C   0  0  0  0  0  0
  -27.5562  -37.1767   24.8468 C   0  0  0  0  0  0
  -21.4110  -29.3024   22.3733 N   0  0  0  0  0  0
  -26.4252  -37.3768   23.9451 N   0  0  0  0  0  0
  -24.6661  -31.0759   22.1016 N   0  0  0  0  0  0
  -23.4148  -28.8183   23.3039 O   0  0  0  0  0  0
  -28.4184  -26.7323   20.0756 O   0  0  0  0  0  0
  -26.5533  -34.8912   22.4659 O   0  0  0  0  0  0
  -23.5370  -32.1383   23.7549 O   0  0  0  0  0  0
  -29.9540  -17.6621   22.1138 C   0  0  0  0  0  0
  -32.1099  -16.5757   22.3899 C   0  0  0  0  0  0
  -30.4738  -18.8664   22.6454 C   0  0  0  0  0  0
  -31.8229  -18.9051   23.0959 C   0  0  0  0  0  0
  -30.7617  -16.5148   21.9721 C   0  0  0  0  0  0
  -32.6438  -17.7592   22.9432 C   0  0  0  0  0  0
  -29.7957  -24.7552   19.5647 C   0  0  0  0  0  0
  -32.4197  -20.1615   23.7270 C   0  0  0  0  0  0
  -30.6892  -24.9677   18.3638 C   0  0  0  0  0  0
  -35.3819  -18.6503   21.1302 C   0  0  0  0  0  0
  -29.5414  -20.0772   22.7341 C   0  0  0  0  0  0
  -28.4339  -25.4442   19.4466 C   0  0  0  0  0  0
  -29.9300  -21.2608   21.8191 C   0  0  0  0  0  0
  -28.8636  -22.3817   21.8050 C   0  0  0  0  0  0
  -29.4287  -23.8157   21.7396 C   0  0  0  0  0  0
  -30.2145  -24.0342   20.5349 N   0  0  0  0  0  0
  -30.1811  -15.3149   21.4667 N   0  0  0  0  0  0
  -33.9772  -17.7944   23.3699 N   0  0  0  0  0  0
  -36.5200  -17.6849   23.3739 O   0  0  0  0  0  0
  -35.1904  -16.0727   21.9073 O   0  0  0  0  0  0
  -35.3928  -17.4171   22.4666 S   0  0  0  0  0  0
  -31.4588  -12.3910   19.1075 H   0  0  0  0  0  0
  -30.2966  -11.2871   19.7838 H   0  0  0  0  0  0
  -29.7277  -11.8379   17.3948 H   0  0  0  0  0  0
  -29.6563  -13.5365   17.7938 H   0  0  0  0  0  0
  -27.8122  -11.3314   18.7808 H   0  0  0  0  0  0
  -27.3614  -12.6878   17.7848 H   0  0  0  0  0  0
  -27.7139  -14.2641   19.6012 H   0  0  0  0  0  0
  -28.6711  -11.9316   21.3266 H   0  0  0  0  0  0
  -28.4547  -13.5573   21.8825 H   0  0  0  0  0  0
  -25.2760   -9.5709   22.4758 H   0  0  0  0  0  0
  -23.9998   -7.4655   22.7485 H   0  0  0  0  0  0
  -21.0840   -8.8749   19.8944 H   0  0  0  0  0  0
  -22.3682  -10.9657   19.6139 H   0  0  0  0  0  0
  -21.1998   -7.6157   23.9705 H   0  0  0  0  0  0
  -21.1472   -6.0533   25.9069 H   0  0  0  0  0  0
  -22.0612   -2.7611   23.2828 H   0  0  0  0  0  0
  -22.4108  -11.9853   22.4705 H   0  0  0  0  0  0
  -21.1119  -13.1229   22.2549 H   0  0  0  0  0  0
  -24.6655  -15.8451   20.4989 H   0  0  0  0  0  0
  -26.2923  -15.6240   20.0945 H   0  0  0  0  0  0
  -26.7116  -32.5512   23.1117 H   0  0  0  0  0  0
  -25.0297  -33.9720   25.0619 H   0  0  0  0  0  0
  -22.6910  -31.3125   21.4182 H   0  0  0  0  0  0
  -23.3750  -35.9594   23.3210 H   0  0  0  0  0  0
  -24.3620  -36.8941   22.2064 H   0  0  0  0  0  0
  -23.7195  -37.6456   23.6663 H   0  0  0  0  0  0
  -26.0102  -31.5938   20.5748 H   0  0  0  0  0  0
  -26.8256  -30.9065   21.9525 H   0  0  0  0  0  0
  -28.0935  -29.1000   21.1578 H   0  0  0  0  0  0
  -26.0004  -25.9924   18.9809 H   0  0  0  0  0  0
  -23.9585  -27.3033   19.0433 H   0  0  0  0  0  0
  -23.7027  -30.5989   19.4048 H   0  0  0  0  0  0
  -22.7272  -29.2425   19.8787 H   0  0  0  0  0  0
  -25.1240  -36.1898   25.0845 H   0  0  0  0  0  0
  -20.9937  -28.3195   24.1441 H   0  0  0  0  0  0
  -20.5614  -26.2237   23.3607 H   0  0  0  0  0  0
  -21.6632  -26.7413   22.1230 H   0  0  0  0  0  0
  -19.6914  -25.6310   21.1204 H   0  0  0  0  0  0
  -19.6727  -27.3229   20.6761 H   0  0  0  0  0  0
  -17.4214  -26.6719   21.3947 H   0  0  0  0  0  0
  -18.0269  -26.0034   22.8911 H   0  0  0  0  0  0
  -19.7916  -30.7229   24.2322 H   0  0  0  0  0  0
  -17.4989  -31.6259   24.5146 H   0  0  0  0  0  0
  -15.5318  -30.2976   23.7667 H   0  0  0  0  0  0
  -15.8628  -28.0810   22.7067 H   0  0  0  0  0  0
  -24.6239  -30.6630   25.7850 H   0  0  0  0  0  0
  -24.8819  -32.2653   26.4707 H   0  0  0  0  0  0
  -25.8329  -30.8984   27.0258 H   0  0  0  0  0  0
  -26.2849  -29.6628   24.1256 H   0  0  0  0  0  0
  -27.4477  -29.7295   25.4313 H   0  0  0  0  0  0
  -27.8540  -30.4307   23.8840 H   0  0  0  0  0  0
  -27.2841  -33.3536   26.1968 H   0  0  0  0  0  0
  -28.4000  -32.6670   25.0222 H   0  0  0  0  0  0
  -28.0797  -31.8299   26.5317 H   0  0  0  0  0  0
  -28.2547  -38.0094   24.7540 H   0  0  0  0  0  0
  -28.1079  -36.2625   24.6218 H   0  0  0  0  0  0
  -27.2298  -37.1324   25.8876 H   0  0  0  0  0  0
  -20.9238  -29.8742   21.6976 H   0  0  0  0  0  0
  -26.0113  -38.2815   24.1525 H   0  0  0  0  0  0
  -28.9186  -17.6211   21.8029 H   0  0  0  0  0  0
  -32.7320  -15.6965   22.3138 H   0  0  0  0  0  0
  -31.6675  -20.8439   24.1160 H   0  0  0  0  0  0
  -33.0206  -20.6961   22.9904 H   0  0  0  0  0  0
  -33.0613  -19.9175   24.5731 H   0  0  0  0  0  0
  -30.5618  -25.9750   17.9643 H   0  0  0  0  0  0
  -30.4417  -24.2489   17.5826 H   0  0  0  0  0  0
  -31.7376  -24.8374   18.6326 H   0  0  0  0  0  0
  -35.4450  -19.6503   21.5529 H   0  0  0  0  0  0
  -34.4679  -18.5534   20.5493 H   0  0  0  0  0  0
  -36.2400  -18.4808   20.4835 H   0  0  0  0  0  0
  -29.4824  -20.4108   23.7707 H   0  0  0  0  0  0
  -28.5296  -19.7571   22.4824 H   0  0  0  0  0  0
  -27.6655  -24.7877   19.8562 H   0  0  0  0  0  0
  -28.2008  -25.5642   18.3870 H   0  0  0  0  0  0
  -30.0860  -20.9080   20.7982 H   0  0  0  0  0  0
  -30.8846  -21.6770   22.1368 H   0  0  0  0  0  0
  -28.2746  -22.3194   22.7215 H   0  0  0  0  0  0
  -28.1544  -22.2132   20.9926 H   0  0  0  0  0  0
  -30.0677  -23.9772   22.6077 H   0  0  0  0  0  0
  -28.6180  -24.5354   21.8632 H   0  0  0  0  0  0
  -29.2243  -15.1272   21.7265 H   0  0  0  0  0  0
  -34.1631  -18.5111   24.0566 H   0  0  0  0  0  0
  1 25  1  0  0  0
  1 30  2  0  0  0
  1 87  1  0  0  0
  2  3  1  0  0  0
  2 25  1  0  0  0
  2 92  1  0  0  0
  2 93  1  0  0  0
  3  4  1  0  0  0
  3 94  1  0  0  0
  3 95  1  0  0  0
  4  5  1  0  0  0
  4 96  1  0  0  0
  4 97  1  0  0  0
  5  6  1  0  0  0
  5 26  1  0  0  0
  5 98  1  0  0  0
  6 25  1  0  0  0
  6 99  1  0  0  0
  6100  1  0  0  0
  7  8  2  0  0  0
  7 26  1  0  0  0
  7 29  1  0  0  0
  8  9  1  0  0  0
  8 22  1  0  0  0
  9 10  1  0  0  0
  9 27  2  0  0  0
 10 11  2  0  0  0
 10 15  1  0  0  0
 11 12  1  0  0  0
 11101  1  0  0  0
 12 13  2  0  0  0
 12102  1  0  0  0
 13 14  1  0  0  0
 13 31  1  0  0  0
 14 15  2  0  0  0
 14103  1  0  0  0
 15104  1  0  0  0
 16 17  2  0  0  0
 16 21  1  0  0  0
 16 31  1  0  0  0
 17 18  1  0  0  0
 17105  1  0  0  0
 18 19  2  0  0  0
 18106  1  0  0  0
 19 20  1  0  0  0
 19 24  1  0  0  0
 20 21  2  0  0  0
 20107  1  0  0  0
 21 23  1  0  0  0
 22 28  1  0  0  0
 22 32  2  0  0  0
 26 27  1  0  0  0
 28108  1  0  0  0
 28109  1  0  0  0
 29110  1  0  0  0
 29111  1  0  0  0
 33 34  1  0  0  0
 33 66  1  0  0  0
 33 70  2  0  0  0
 34 36  1  0  0  0
 34 59  1  0  0  0
 34112  1  0  0  0
 35 44  2  0  0  0
 35 45  1  0  0  0
 35 68  1  0  0  0
 36 56  1  0  0  0
 36113  1  0  0  0
 37 39  1  0  0  0
 37 47  1  0  0  0
 37 66  1  0  0  0
 37114  1  0  0  0
 38 43  2  0  0  0
 38 46  1  0  0  0
 38 47  1  0  0  0
 39 64  1  0  0  0
 39 67  2  0  0  0
 40 52  1  0  0  0
 40 53  2  0  0  0
 40 58  1  0  0  0
 41115  1  0  0  0
 41116  1  0  0  0
 41117  1  0  0  0
 41 48  1  0  0  0
 42 43  1  0  0  0
 42 66  1  0  0  0
 42118  1  0  0  0
 42119  1  0  0  0
 43 44  1  0  0  0
 44120  1  0  0  0
 45 46  2  0  0  0
 45121  1  0  0  0
 46122  1  0  0  0
 47123  1  0  0  0
 47124  1  0  0  0
 48 56  1  0  0  0
 48 65  1  0  0  0
 48125  1  0  0  0
 49 50  1  0  0  0
 49 53  1  0  0  0
 49 64  1  0  0  0
 49126  1  0  0  0
 50 51  1  0  0  0
 50127  1  0  0  0
 50128  1  0  0  0
 51 52  1  0  0  0
 51129  1  0  0  0
 51130  1  0  0  0
 52131  1  0  0  0
 52132  1  0  0  0
 53 54  1  0  0  0
 54 55  2  0  0  0
 54133  1  0  0  0
 55 57  1  0  0  0
 55134  1  0  0  0
 56 69  2  0  0  0
 57 58  2  0  0  0
 57135  1  0  0  0
 58136  1  0  0  0
 59 60  1  0  0  0
 59 61  1  0  0  0
 59 62  1  0  0  0
 60137  1  0  0  0
 60138  1  0  0  0
 60139  1  0  0  0
 61140  1  0  0  0
 61141  1  0  0  0
 61142  1  0  0  0
 62143  1  0  0  0
 62144  1  0  0  0
 62145  1  0  0  0
 63 65  1  0  0  0
 63146  1  0  0  0
 63147  1  0  0  0
 63148  1  0  0  0
 64149  1  0  0  0
 65150  1  0  0  0
 68 82  1  0  0  0
 71 73  2  0  0  0
 71 75  1  0  0  0
 71151  1  0  0  0
 72 75  2  0  0  0
 72 76  1  0  0  0
 72152  1  0  0  0
 73 74  1  0  0  0
 73 81  1  0  0  0
 74 76  2  0  0  0
 74 78  1  0  0  0
 75 87  1  0  0  0
 76 88  1  0  0  0
 77 79  1  0  0  0
 77 82  1  0  0  0
 77 86  2  0  0  0
 78153  1  0  0  0
 78154  1  0  0  0
 78155  1  0  0  0
 79156  1  0  0  0
 79157  1  0  0  0
 79158  1  0  0  0
 80159  1  0  0  0
 80160  1  0  0  0
 80161  1  0  0  0
 80 91  1  0  0  0
 81 83  1  0  0  0
 81162  1  0  0  0
 81163  1  0  0  0
 82164  1  0  0  0
 82165  1  0  0  0
 83 84  1  0  0  0
 83166  1  0  0  0
 83167  1  0  0  0
 84 85  1  0  0  0
 84168  1  0  0  0
 84169  1  0  0  0
 85 86  1  0  0  0
 85170  1  0  0  0
 85171  1  0  0  0
 87172  1  0  0  0
 88 91  1  0  0  0
 88173  1  0  0  0
 89 91  2  0  0  0
 90 91  2  0  0  0
M  ISO  4   1 100  68 101  82 101  87 100
M  END
> <chiral flag>
0

> <version>
0

> <s_m_source_file>
/data/baiqing/PycharmProjects/Reinvent-master-3.2/result/LINK_invent/BTK/process_docking_weight1_custom_product_contain_oxygen_bond_distance_aromatic_linkinvent_7_9_3/rearranged_h_0059.sdf

> <i_m_source_file_index>
63

> <r_mmod_Potential_Energy-OPLS-2005>
-310.52783203125

> <r_mmod_Stretch_Energy-OPLS-2005>
38.5658187866211

> <r_mmod_Bend_Energy-OPLS-2005>
108.362831115723

> <r_mmod_Torsional_Energy-OPLS-2005>
224.945663452148

> <r_mmod_Improper_Torsional_Energy-OPLS-2005>
4.47077560424805

> <r_mmod_Van_der_Waal_Energy-OPLS-2005>
161.319763183594

> <r_mmod_Electrostatic_Energy-OPLS-2005>
-595.232482910156

> <r_mmod_Solvation_Energy-OPLS-2005>
-261.831298828125

> <b_mmod_Minimization_Converged-OPLS-2005>
0

> <r_mmod_RMS_Derivative-OPLS-2005>
2.2560670375824

$$$$
63
                    3D
 Structure written by MMmdl.
155163  0  0  1  0            999 V2000
  -30.7192  -14.4205   20.6326 C   0  0  0  0  0  0
  -30.4177  -12.2916   19.4154 C   0  0  0  0  0  0
  -29.4874  -12.5105   18.2052 C   0  0  0  0  0  0
  -28.0086  -12.3727   18.6155 C   0  0  0  0  0  0
  -27.6627  -13.2011   19.8799 C   0  0  2  0  0  0
  -28.7000  -12.9493   20.9989 C   0  0  0  0  0  0
  -25.2580  -13.8160   20.5663 C   0  0  0  0  0  0
  -24.1827  -13.0439   20.9165 C   0  0  0  0  0  0
  -24.6367  -11.6904   20.8713 C   0  0  0  0  0  0
  -23.9029  -10.4300   21.0393 C   0  0  0  0  0  0
  -24.3585   -9.4216   21.9171 C   0  0  0  0  0  0
  -23.6276   -8.2249   22.0753 C   0  0  0  0  0  0
  -22.4267   -8.0276   21.3533 C   0  0  0  0  0  0
  -21.9886   -9.0238   20.4631 C   0  0  0  0  0  0
  -22.7202  -10.2126   20.3042 C   0  0  0  0  0  0
  -21.6839   -6.0723   22.5266 C   0  0  0  0  0  0
  -21.4013   -6.5623   23.8196 C   0  0  0  0  0  0
  -21.3663   -5.6788   24.9168 C   0  0  0  0  0  0
  -21.6054   -4.3046   24.7234 C   0  0  0  0  0  0
  -21.8820   -3.8139   23.4348 C   0  0  0  0  0  0
  -21.9188   -4.6952   22.3394 C   0  0  0  0  0  0
  -22.7848  -13.5235   21.1838 C   0  0  0  0  0  0
  -22.1654   -4.2142   21.0974 F   0  0  0  0  0  0
  -21.5635   -3.4536   25.7746 F   0  0  0  0  0  0
  -30.0389  -13.2543   20.4620 N   0  0  0  0  0  0
  -26.3009  -12.9315   20.3363 N   0  0  0  0  0  0
  -25.9292  -11.6476   20.5750 N   0  0  0  0  0  0
  -22.0506  -12.8223   22.0405 N   0  0  0  0  0  0
  -25.4310  -15.1883   20.4073 N   0  0  0  0  0  0
  -31.7957  -14.6437   20.0708 O   0  0  0  0  0  0
  -21.6631   -6.8869   21.4229 O   0  0  0  0  0  0
  -22.3527  -14.5533   20.6688 O   0  0  0  0  0  0
  -24.6132  -31.8700   23.2070 C   0  0  0  0  0  0
  -25.9035  -32.4838   23.8370 C   0  0  1  0  0  0
  -27.2433  -27.4547   20.0812 C   0  0  0  0  0  0
  -25.5887  -33.8627   24.2334 N   0  0  0  0  0  0
  -23.3970  -30.4919   21.5503 C   0  0  2  0  0  0
  -24.8425  -28.9549   20.1191 C   0  0  0  0  0  0
  -22.7398  -29.4661   22.5015 C   0  0  0  0  0  0
  -18.0275  -28.1366   22.8496 C   0  0  0  0  0  0
  -24.1474  -36.7309   23.2641 C   0  0  0  0  0  0
  -25.9226  -30.8433   21.3525 C   0  0  0  0  0  0
  -26.0000  -29.4741   20.7092 C   0  0  0  0  0  0
  -27.1977  -28.7291   20.6894 C   0  0  0  0  0  0
  -26.0580  -26.9341   19.5104 C   0  0  0  0  0  0
  -24.8655  -27.6838   19.5204 C   0  0  0  0  0  0
  -23.6005  -29.8159   20.1676 C   0  0  0  0  0  0
  -25.4097  -36.3123   24.0348 C   0  0  1  0  0  0
  -20.5857  -28.3654   23.1329 C   0  0  2  0  0  0
  -20.6740  -26.9385   22.5435 C   0  0  0  0  0  0
  -19.5730  -26.6367   21.5224 C   0  0  0  0  0  0
  -18.1912  -26.7912   22.1637 C   0  0  0  0  0  0
  -19.1521  -28.8828   23.2901 C   0  0  0  0  0  0
  -18.9461  -30.1443   23.8902 C   0  0  0  0  0  0
  -17.6462  -30.6584   24.0549 C   0  0  0  0  0  0
  -25.9038  -34.9484   23.5151 C   0  0  0  0  0  0
  -16.5354  -29.9090   23.6305 C   0  0  0  0  0  0
  -16.7267  -28.6504   23.0335 C   0  0  0  0  0  0
  -26.4441  -31.6607   25.0689 C   0  0  0  0  0  0
  -25.3683  -31.3710   26.1413 C   0  0  0  0  0  0
  -27.0282  -30.3069   24.6033 C   0  0  0  0  0  0
  -27.6009  -32.4309   25.7470 C   0  0  0  0  0  0
  -27.5581  -37.1802   24.8470 C   0  0  0  0  0  0
  -21.4133  -29.3023   22.3746 N   0  0  0  0  0  0
  -26.4287  -37.3810   23.9433 N   0  0  0  0  0  0
  -24.6629  -31.0814   22.0959 N   0  0  0  0  0  0
  -23.4187  -28.8201   23.3040 O   0  0  0  0  0  0
  -28.4630  -26.8109   20.0715 O   0  0  0  0  0  0
  -26.5602  -34.8934   22.4708 O   0  0  0  0  0  0
  -23.5335  -32.1443   23.7488 O   0  0  0  0  0  0
  -31.7912  -18.7008   21.4628 C   0  0  0  0  0  0
  -30.6820  -19.5361   21.6906 C   0  0  0  0  0  0
  -31.6218  -17.3054   21.3824 C   0  0  0  0  0  0
  -29.2311  -17.5792   21.7636 C   0  0  0  0  0  0
  -29.3950  -18.9812   21.8554 C   0  0  0  0  0  0
  -30.3347  -16.7302   21.5067 C   0  0  0  0  0  0
  -28.2363  -23.2290   20.5201 C   0  0  0  0  0  0
  -28.7915  -24.4569   20.5476 C   0  0  0  0  0  0
  -28.4967  -22.2889   21.5973 C   0  0  0  0  0  0
  -28.1991  -19.8764   22.1754 C   0  0  0  0  0  0
  -28.6410  -25.5231   19.4812 C   0  0  0  0  0  0
  -30.1028  -15.3249   21.4191 N   0  0  0  0  0  0
  -28.0741  -21.0509   21.3078 N   0  0  0  0  0  0
  -29.0579  -22.5648   22.6605 O   0  0  0  0  0  0
  -31.4618  -12.3861   19.1125 H   0  0  0  0  0  0
  -30.3142  -11.2738   19.7954 H   0  0  0  0  0  0
  -29.7184  -11.7945   17.4159 H   0  0  0  0  0  0
  -29.6621  -13.5007   17.7805 H   0  0  0  0  0  0
  -27.8091  -11.3162   18.8007 H   0  0  0  0  0  0
  -27.3610  -12.6614   17.7870 H   0  0  0  0  0  0
  -27.7183  -14.2520   19.5956 H   0  0  0  0  0  0
  -28.6717  -11.9024   21.3074 H   0  0  0  0  0  0
  -28.4512  -13.5174   21.8950 H   0  0  0  0  0  0
  -25.2729   -9.5698   22.4741 H   0  0  0  0  0  0
  -23.9975   -7.4652   22.7489 H   0  0  0  0  0  0
  -21.0816   -8.8751   19.8945 H   0  0  0  0  0  0
  -22.3647  -10.9658   19.6150 H   0  0  0  0  0  0
  -21.2006   -7.6132   23.9692 H   0  0  0  0  0  0
  -21.1484   -6.0523   25.9067 H   0  0  0  0  0  0
  -22.0601   -2.7602   23.2852 H   0  0  0  0  0  0
  -22.4127  -11.9860   22.4742 H   0  0  0  0  0  0
  -21.1134  -13.1257   22.2660 H   0  0  0  0  0  0
  -24.6661  -15.8469   20.5087 H   0  0  0  0  0  0
  -26.2874  -15.6232   20.0859 H   0  0  0  0  0  0
  -26.7103  -32.5571   23.1146 H   0  0  0  0  0  0
  -24.9988  -33.9787   25.0434 H   0  0  0  0  0  0
  -22.6835  -31.3070   21.4078 H   0  0  0  0  0  0
  -23.3749  -35.9617   23.3299 H   0  0  0  0  0  0
  -24.3558  -36.8955   22.2056 H   0  0  0  0  0  0
  -23.7208  -37.6503   23.6651 H   0  0  0  0  0  0
  -26.0188  -31.6038   20.5756 H   0  0  0  0  0  0
  -26.8189  -30.9104   21.9593 H   0  0  0  0  0  0
  -28.0969  -29.1327   21.1331 H   0  0  0  0  0  0
  -26.0179  -25.9564   19.0549 H   0  0  0  0  0  0
  -23.9726  -27.2697   19.0743 H   0  0  0  0  0  0
  -23.6959  -30.5840   19.3992 H   0  0  0  0  0  0
  -22.7284  -29.2249   19.8807 H   0  0  0  0  0  0
  -25.1260  -36.1991   25.0836 H   0  0  0  0  0  0
  -20.9954  -28.3222   24.1442 H   0  0  0  0  0  0
  -20.5684  -26.2246   23.3621 H   0  0  0  0  0  0
  -21.6609  -26.7451   22.1214 H   0  0  0  0  0  0
  -19.6886  -25.6290   21.1239 H   0  0  0  0  0  0
  -19.6663  -27.3177   20.6743 H   0  0  0  0  0  0
  -17.4185  -26.6698   21.4032 H   0  0  0  0  0  0
  -18.0295  -26.0046   22.9026 H   0  0  0  0  0  0
  -19.7931  -30.7252   24.2290 H   0  0  0  0  0  0
  -17.5024  -31.6256   24.5158 H   0  0  0  0  0  0
  -15.5367  -30.2999   23.7628 H   0  0  0  0  0  0
  -15.8660  -28.0852   22.7024 H   0  0  0  0  0  0
  -24.5838  -30.7103   25.7716 H   0  0  0  0  0  0
  -24.8867  -32.2866   26.4829 H   0  0  0  0  0  0
  -25.7982  -30.8862   27.0192 H   0  0  0  0  0  0
  -26.2833  -29.6857   24.1046 H   0  0  0  0  0  0
  -27.4060  -29.7262   25.4463 H   0  0  0  0  0  0
  -27.8637  -30.4423   23.9163 H   0  0  0  0  0  0
  -27.2636  -33.3618   26.2027 H   0  0  0  0  0  0
  -28.3814  -32.6885   25.0305 H   0  0  0  0  0  0
  -28.0647  -31.8439   26.5412 H   0  0  0  0  0  0
  -28.2579  -38.0124   24.7571 H   0  0  0  0  0  0
  -28.1114  -36.2662   24.6219 H   0  0  0  0  0  0
  -27.2299  -37.1385   25.8876 H   0  0  0  0  0  0
  -20.9300  -29.8775   21.6994 H   0  0  0  0  0  0
  -26.0188  -38.2894   24.1435 H   0  0  0  0  0  0
  -32.7762  -19.1327   21.3588 H   0  0  0  0  0  0
  -30.8297  -20.6039   21.7610 H   0  0  0  0  0  0
  -32.4977  -16.6926   21.2284 H   0  0  0  0  0  0
  -28.2435  -17.1574   21.8843 H   0  0  0  0  0  0
  -27.6043  -22.9476   19.6877 H   0  0  0  0  0  0
  -29.4260  -24.7371   21.3783 H   0  0  0  0  0  0
  -28.2733  -20.1816   23.2209 H   0  0  0  0  0  0
  -27.2734  -19.3035   22.1100 H   0  0  0  0  0  0
  -27.9159  -25.2473   18.7197 H   0  0  0  0  0  0
  -29.5950  -25.5662   18.9561 H   0  0  0  0  0  0
  -29.2405  -14.9931   21.8218 H   0  0  0  0  0  0
  -27.6021  -20.9141   20.4259 H   0  0  0  0  0  0
  1 25  1  0  0  0
  1 30  2  0  0  0
  1 82  1  0  0  0
  2  3  1  0  0  0
  2 25  1  0  0  0
  2 85  1  0  0  0
  2 86  1  0  0  0
  3  4  1  0  0  0
  3 87  1  0  0  0
  3 88  1  0  0  0
  4  5  1  0  0  0
  4 89  1  0  0  0
  4 90  1  0  0  0
  5  6  1  0  0  0
  5 26  1  0  0  0
  5 91  1  0  0  0
  6 25  1  0  0  0
  6 92  1  0  0  0
  6 93  1  0  0  0
  7  8  2  0  0  0
  7 26  1  0  0  0
  7 29  1  0  0  0
  8  9  1  0  0  0
  8 22  1  0  0  0
  9 10  1  0  0  0
  9 27  2  0  0  0
 10 11  2  0  0  0
 10 15  1  0  0  0
 11 12  1  0  0  0
 11 94  1  0  0  0
 12 13  2  0  0  0
 12 95  1  0  0  0
 13 14  1  0  0  0
 13 31  1  0  0  0
 14 15  2  0  0  0
 14 96  1  0  0  0
 15 97  1  0  0  0
 16 17  2  0  0  0
 16 21  1  0  0  0
 16 31  1  0  0  0
 17 18  1  0  0  0
 17 98  1  0  0  0
 18 19  2  0  0  0
 18 99  1  0  0  0
 19 20  1  0  0  0
 19 24  1  0  0  0
 20 21  2  0  0  0
 20100  1  0  0  0
 21 23  1  0  0  0
 22 28  1  0  0  0
 22 32  2  0  0  0
 26 27  1  0  0  0
 28101  1  0  0  0
 28102  1  0  0  0
 29103  1  0  0  0
 29104  1  0  0  0
 33 34  1  0  0  0
 33 66  1  0  0  0
 33 70  2  0  0  0
 34 36  1  0  0  0
 34 59  1  0  0  0
 34105  1  0  0  0
 35 44  2  0  0  0
 35 45  1  0  0  0
 35 68  1  0  0  0
 36 56  1  0  0  0
 36106  1  0  0  0
 37 39  1  0  0  0
 37 47  1  0  0  0
 37 66  1  0  0  0
 37107  1  0  0  0
 38 43  2  0  0  0
 38 46  1  0  0  0
 38 47  1  0  0  0
 39 64  1  0  0  0
 39 67  2  0  0  0
 40 52  1  0  0  0
 40 53  2  0  0  0
 40 58  1  0  0  0
 41108  1  0  0  0
 41109  1  0  0  0
 41110  1  0  0  0
 41 48  1  0  0  0
 42 43  1  0  0  0
 42 66  1  0  0  0
 42111  1  0  0  0
 42112  1  0  0  0
 43 44  1  0  0  0
 44113  1  0  0  0
 45 46  2  0  0  0
 45114  1  0  0  0
 46115  1  0  0  0
 47116  1  0  0  0
 47117  1  0  0  0
 48 56  1  0  0  0
 48 65  1  0  0  0
 48118  1  0  0  0
 49 50  1  0  0  0
 49 53  1  0  0  0
 49 64  1  0  0  0
 49119  1  0  0  0
 50 51  1  0  0  0
 50120  1  0  0  0
 50121  1  0  0  0
 51 52  1  0  0  0
 51122  1  0  0  0
 51123  1  0  0  0
 52124  1  0  0  0
 52125  1  0  0  0
 53 54  1  0  0  0
 54 55  2  0  0  0
 54126  1  0  0  0
 55 57  1  0  0  0
 55127  1  0  0  0
 56 69  2  0  0  0
 57 58  2  0  0  0
 57128  1  0  0  0
 58129  1  0  0  0
 59 60  1  0  0  0
 59 61  1  0  0  0
 59 62  1  0  0  0
 60130  1  0  0  0
 60131  1  0  0  0
 60132  1  0  0  0
 61133  1  0  0  0
 61134  1  0  0  0
 61135  1  0  0  0
 62136  1  0  0  0
 62137  1  0  0  0
 62138  1  0  0  0
 63 65  1  0  0  0
 63139  1  0  0  0
 63140  1  0  0  0
 63141  1  0  0  0
 64142  1  0  0  0
 65143  1  0  0  0
 68 81  1  0  0  0
 71 72  2  0  0  0
 71 73  1  0  0  0
 71144  1  0  0  0
 72 75  1  0  0  0
 72145  1  0  0  0
 73 76  2  0  0  0
 73146  1  0  0  0
 74 75  2  0  0  0
 74 76  1  0  0  0
 74147  1  0  0  0
 75 80  1  0  0  0
 76 82  1  0  0  0
 77 78  2  0  0  0
 77 79  1  0  0  0
 77148  1  0  0  0
 78 81  1  0  0  0
 78149  1  0  0  0
 79 83  1  0  0  0
 79 84  2  0  0  0
 80 83  1  0  0  0
 80150  1  0  0  0
 80151  1  0  0  0
 81152  1  0  0  0
 81153  1  0  0  0
 82154  1  0  0  0
 83155  1  0  0  0
M  ISO  4   1 100  68 101  81 101  82 100
M  END
> <chiral flag>
0

> <version>
0

> <s_m_source_file>
/data/baiqing/PycharmProjects/Reinvent-master-3.2/result/LINK_invent/BTK/process_docking_weight1_custom_product_contain_oxygen_bond_distance_aromatic_linkinvent_7_9_3/rearranged_h_0059.sdf

> <i_m_source_file_index>
64

> <r_mmod_Potential_Energy-OPLS-2005>
-198.623962402344

> <r_mmod_Stretch_Energy-OPLS-2005>
34.0698394775391

> <r_mmod_Bend_Energy-OPLS-2005>
105.001525878906

> <r_mmod_Torsional_Energy-OPLS-2005>
195.473526000977

> <r_mmod_Improper_Torsional_Energy-OPLS-2005>
2.85309195518494

> <r_mmod_Van_der_Waal_Energy-OPLS-2005>
161.974914550781

> <r_mmod_Electrostatic_Energy-OPLS-2005>
-466.150909423828

> <r_mmod_Solvation_Energy-OPLS-2005>
-241.060882568359

> <b_mmod_Minimization_Converged-OPLS-2005>
0

> <r_mmod_RMS_Derivative-OPLS-2005>
2.72616934776306

$$$$
64
                    3D
 Structure written by MMmdl.
155163  0  0  1  0            999 V2000
  -30.6160  -14.6650   20.4779 C   0  0  0  0  0  0
  -30.4434  -12.4040   19.4543 C   0  0  0  0  0  0
  -29.5103  -12.4971   18.2259 C   0  0  0  0  0  0
  -28.0354  -12.3295   18.6410 C   0  0  0  0  0  0
  -27.6520  -13.2137   19.8564 C   0  0  2  0  0  0
  -28.6986  -13.0879   20.9877 C   0  0  0  0  0  0
  -25.2558  -13.8154   20.5658 C   0  0  0  0  0  0
  -24.1834  -13.0431   20.9214 C   0  0  0  0  0  0
  -24.6396  -11.6904   20.8752 C   0  0  0  0  0  0
  -23.9064  -10.4291   21.0416 C   0  0  0  0  0  0
  -24.3620   -9.4200   21.9180 C   0  0  0  0  0  0
  -23.6291   -8.2237   22.0753 C   0  0  0  0  0  0
  -22.4273   -8.0282   21.3545 C   0  0  0  0  0  0
  -21.9909   -9.0261   20.4650 C   0  0  0  0  0  0
  -22.7243  -10.2132   20.3061 C   0  0  0  0  0  0
  -21.6852   -6.0732   22.5279 C   0  0  0  0  0  0
  -21.4016   -6.5634   23.8213 C   0  0  0  0  0  0
  -21.3656   -5.6785   24.9173 C   0  0  0  0  0  0
  -21.6041   -4.3049   24.7223 C   0  0  0  0  0  0
  -21.8819   -3.8146   23.4342 C   0  0  0  0  0  0
  -21.9197   -4.6963   22.3398 C   0  0  0  0  0  0
  -22.7854  -13.5229   21.1866 C   0  0  0  0  0  0
  -22.1664   -4.2156   21.0972 F   0  0  0  0  0  0
  -21.5627   -3.4530   25.7732 F   0  0  0  0  0  0
  -30.0130  -13.4334   20.4213 N   0  0  0  0  0  0
  -26.2982  -12.9332   20.3285 N   0  0  0  0  0  0
  -25.9320  -11.6496   20.5746 N   0  0  0  0  0  0
  -22.0496  -12.8230   22.0425 N   0  0  0  0  0  0
  -25.4241  -15.1870   20.3985 N   0  0  0  0  0  0
  -31.7878  -14.8207   20.1220 O   0  0  0  0  0  0
  -21.6638   -6.8878   21.4242 O   0  0  0  0  0  0
  -22.3544  -14.5537   20.6709 O   0  0  0  0  0  0
  -24.6252  -31.8595   23.2024 C   0  0  0  0  0  0
  -25.9097  -32.4780   23.8347 C   0  0  1  0  0  0
  -27.2327  -27.3240   20.1250 C   0  0  0  0  0  0
  -25.5919  -33.8581   24.2284 N   0  0  0  0  0  0
  -23.4197  -30.4819   21.5453 C   0  0  2  0  0  0
  -24.8681  -28.9327   20.1167 C   0  0  0  0  0  0
  -22.7470  -29.4618   22.4951 C   0  0  0  0  0  0
  -18.0284  -28.1397   22.8492 C   0  0  0  0  0  0
  -24.1490  -36.7289   23.2645 C   0  0  0  0  0  0
  -25.9584  -30.7932   21.3714 C   0  0  0  0  0  0
  -26.0354  -29.4175   20.7200 C   0  0  0  0  0  0
  -27.2208  -28.6259   20.7125 C   0  0  0  0  0  0
  -26.0456  -26.8899   19.4947 C   0  0  0  0  0  0
  -24.8746  -27.6734   19.4958 C   0  0  0  0  0  0
  -23.6357  -29.8132   20.1620 C   0  0  0  0  0  0
  -25.4122  -36.3088   24.0332 C   0  0  1  0  0  0
  -20.5886  -28.3688   23.1296 C   0  0  2  0  0  0
  -20.6773  -26.9414   22.5421 C   0  0  0  0  0  0
  -19.5748  -26.6398   21.5220 C   0  0  0  0  0  0
  -18.1925  -26.7938   22.1629 C   0  0  0  0  0  0
  -19.1538  -28.8862   23.2891 C   0  0  0  0  0  0
  -18.9461  -30.1466   23.8900 C   0  0  0  0  0  0
  -17.6458  -30.6592   24.0574 C   0  0  0  0  0  0
  -25.9043  -34.9452   23.5102 C   0  0  0  0  0  0
  -16.5350  -29.9090   23.6334 C   0  0  0  0  0  0
  -16.7269  -28.6516   23.0341 C   0  0  0  0  0  0
  -26.4496  -31.6586   25.0710 C   0  0  0  0  0  0
  -25.3733  -31.3738   26.1447 C   0  0  0  0  0  0
  -27.0329  -30.3009   24.6148 C   0  0  0  0  0  0
  -27.6074  -32.4312   25.7466 C   0  0  0  0  0  0
  -27.5571  -37.1825   24.8488 C   0  0  0  0  0  0
  -21.4187  -29.3036   22.3683 N   0  0  0  0  0  0
  -26.4312  -37.3765   23.9384 N   0  0  0  0  0  0
  -24.6865  -31.0617   22.0969 N   0  0  0  0  0  0
  -23.4198  -28.8159   23.3025 O   0  0  0  0  0  0
  -28.3632  -26.4948   20.1326 O   0  0  0  0  0  0
  -26.5610  -34.8910   22.4670 O   0  0  0  0  0  0
  -23.5416  -32.1385   23.7351 O   0  0  0  0  0  0
  -31.0716  -19.3375   20.3299 C   0  0  0  0  0  0
  -31.0802  -17.9204   20.5199 C   0  0  0  0  0  0
  -28.6875  -17.9261   20.3726 C   0  0  0  0  0  0
  -29.8803  -20.1019   20.1286 C   0  0  0  0  0  0
  -28.6692  -19.3430   20.1503 C   0  0  0  0  0  0
  -29.8801  -17.1660   20.5414 C   0  0  0  0  0  0
  -29.9918  -21.5926   19.7907 C   0  0  0  0  0  0
  -29.2483  -24.0730   19.8990 C   0  0  0  0  0  0
  -27.3208  -20.0015   19.8934 C   0  0  0  0  0  0
  -28.1931  -25.0696   20.5207 C   0  0  0  0  0  0
  -29.7831  -15.7180   20.7636 N   0  0  0  0  0  0
  -29.1867  -22.6243   20.2460 N   0  0  0  0  0  0
  -30.9842  -21.8921   18.9449 N   0  3  0  0  0  0
  -30.1127  -24.4993   19.1208 O   0  0  0  0  0  0
  -31.4830  -12.5348   19.1490 H   0  0  0  0  0  0
  -30.3863  -11.4139   19.9090 H   0  0  0  0  0  0
  -29.7796  -11.7372   17.4910 H   0  0  0  0  0  0
  -29.6447  -13.4605   17.7321 H   0  0  0  0  0  0
  -27.8846  -11.2784   18.8910 H   0  0  0  0  0  0
  -27.3775  -12.5372   17.7967 H   0  0  0  0  0  0
  -27.6639  -14.2433   19.4990 H   0  0  0  0  0  0
  -28.7154  -12.0710   21.3830 H   0  0  0  0  0  0
  -28.4406  -13.7293   21.8317 H   0  0  0  0  0  0
  -25.2769   -9.5667   22.4746 H   0  0  0  0  0  0
  -24.0008   -7.4621   22.7461 H   0  0  0  0  0  0
  -21.0845   -8.8781   19.8949 H   0  0  0  0  0  0
  -22.3710  -10.9673   19.6169 H   0  0  0  0  0  0
  -21.2008   -7.6143   23.9717 H   0  0  0  0  0  0
  -21.1472   -6.0512   25.9073 H   0  0  0  0  0  0
  -22.0603   -2.7612   23.2839 H   0  0  0  0  0  0
  -22.4113  -11.9891   22.4819 H   0  0  0  0  0  0
  -21.1113  -13.1254   22.2624 H   0  0  0  0  0  0
  -24.6382  -15.8247   20.4694 H   0  0  0  0  0  0
  -26.2286  -15.6022   19.9503 H   0  0  0  0  0  0
  -26.7161  -32.5472   23.1093 H   0  0  0  0  0  0
  -25.0083  -33.9729   25.0440 H   0  0  0  0  0  0
  -22.7135  -31.3025   21.4022 H   0  0  0  0  0  0
  -23.3720  -35.9664   23.3406 H   0  0  0  0  0  0
  -24.3553  -36.8800   22.2039 H   0  0  0  0  0  0
  -23.7294  -37.6546   23.6591 H   0  0  0  0  0  0
  -26.0840  -31.5545   20.6001 H   0  0  0  0  0  0
  -26.8396  -30.8473   21.9983 H   0  0  0  0  0  0
  -28.1179  -28.9974   21.1871 H   0  0  0  0  0  0
  -26.0124  -25.9357   18.9891 H   0  0  0  0  0  0
  -23.9814  -27.3006   19.0127 H   0  0  0  0  0  0
  -23.7551  -30.5876   19.4035 H   0  0  0  0  0  0
  -22.7554  -29.2422   19.8631 H   0  0  0  0  0  0
  -25.1310  -36.1959   25.0829 H   0  0  0  0  0  0
  -20.9976  -28.3258   24.1418 H   0  0  0  0  0  0
  -20.5671  -26.2292   23.3612 H   0  0  0  0  0  0
  -21.6643  -26.7448   22.1218 H   0  0  0  0  0  0
  -19.6904  -25.6312   21.1245 H   0  0  0  0  0  0
  -19.6684  -27.3208   20.6750 H   0  0  0  0  0  0
  -17.4197  -26.6691   21.4029 H   0  0  0  0  0  0
  -18.0317  -26.0082   22.9025 H   0  0  0  0  0  0
  -19.7934  -30.7296   24.2256 H   0  0  0  0  0  0
  -17.5009  -31.6265   24.5189 H   0  0  0  0  0  0
  -15.5347  -30.2991   23.7666 H   0  0  0  0  0  0
  -15.8671  -28.0844   22.7039 H   0  0  0  0  0  0
  -24.5903  -30.7085   25.7794 H   0  0  0  0  0  0
  -24.8922  -32.2907   26.4862 H   0  0  0  0  0  0
  -25.8056  -30.8935   27.0228 H   0  0  0  0  0  0
  -26.2886  -29.6761   24.1194 H   0  0  0  0  0  0
  -27.4066  -29.7276   25.4640 H   0  0  0  0  0  0
  -27.8737  -30.4315   23.9329 H   0  0  0  0  0  0
  -27.2710  -33.3621   26.2043 H   0  0  0  0  0  0
  -28.3870  -32.6853   25.0270 H   0  0  0  0  0  0
  -28.0740  -31.8425   26.5375 H   0  0  0  0  0  0
  -28.2689  -38.0019   24.7402 H   0  0  0  0  0  0
  -28.0957  -36.2553   24.6484 H   0  0  0  0  0  0
  -27.2265  -37.1700   25.8887 H   0  0  0  0  0  0
  -20.9359  -29.8751   21.6893 H   0  0  0  0  0  0
  -26.0203  -38.2863   24.1296 H   0  0  0  0  0  0
  -32.0278  -19.8423   20.3196 H   0  0  0  0  0  0
  -32.0293  -17.4210   20.6534 H   0  0  0  0  0  0
  -27.7443  -17.3988   20.3863 H   0  0  0  0  0  0
  -26.5516  -19.2614   19.6692 H   0  0  0  0  0  0
  -27.3652  -20.6777   19.0386 H   0  0  0  0  0  0
  -26.9906  -20.5610   20.7688 H   0  0  0  0  0  0
  -28.2863  -25.0125   21.6055 H   0  0  0  0  0  0
  -27.2039  -24.6811   20.2855 H   0  0  0  0  0  0
  -28.8614  -15.4035   21.0210 H   0  0  0  0  0  0
  -28.5033  -22.2944   20.9088 H   0  0  0  0  0  0
  -31.5525  -21.1663   18.5387 H   0  0  0  0  0  0
  -31.1072  -22.8572   18.6594 H   0  0  0  0  0  0
  1 25  1  0  0  0
  1 30  2  0  0  0
  1 81  1  0  0  0
  2  3  1  0  0  0
  2 25  1  0  0  0
  2 85  1  0  0  0
  2 86  1  0  0  0
  3  4  1  0  0  0
  3 87  1  0  0  0
  3 88  1  0  0  0
  4  5  1  0  0  0
  4 89  1  0  0  0
  4 90  1  0  0  0
  5  6  1  0  0  0
  5 26  1  0  0  0
  5 91  1  0  0  0
  6 25  1  0  0  0
  6 92  1  0  0  0
  6 93  1  0  0  0
  7  8  2  0  0  0
  7 26  1  0  0  0
  7 29  1  0  0  0
  8  9  1  0  0  0
  8 22  1  0  0  0
  9 10  1  0  0  0
  9 27  2  0  0  0
 10 11  2  0  0  0
 10 15  1  0  0  0
 11 12  1  0  0  0
 11 94  1  0  0  0
 12 13  2  0  0  0
 12 95  1  0  0  0
 13 14  1  0  0  0
 13 31  1  0  0  0
 14 15  2  0  0  0
 14 96  1  0  0  0
 15 97  1  0  0  0
 16 17  2  0  0  0
 16 21  1  0  0  0
 16 31  1  0  0  0
 17 18  1  0  0  0
 17 98  1  0  0  0
 18 19  2  0  0  0
 18 99  1  0  0  0
 19 20  1  0  0  0
 19 24  1  0  0  0
 20 21  2  0  0  0
 20100  1  0  0  0
 21 23  1  0  0  0
 22 28  1  0  0  0
 22 32  2  0  0  0
 26 27  1  0  0  0
 28101  1  0  0  0
 28102  1  0  0  0
 29103  1  0  0  0
 29104  1  0  0  0
 33 34  1  0  0  0
 33 66  1  0  0  0
 33 70  2  0  0  0
 34 36  1  0  0  0
 34 59  1  0  0  0
 34105  1  0  0  0
 35 44  2  0  0  0
 35 45  1  0  0  0
 35 68  1  0  0  0
 36 56  1  0  0  0
 36106  1  0  0  0
 37 39  1  0  0  0
 37 47  1  0  0  0
 37 66  1  0  0  0
 37107  1  0  0  0
 38 43  2  0  0  0
 38 46  1  0  0  0
 38 47  1  0  0  0
 39 64  1  0  0  0
 39 67  2  0  0  0
 40 52  1  0  0  0
 40 53  2  0  0  0
 40 58  1  0  0  0
 41108  1  0  0  0
 41109  1  0  0  0
 41110  1  0  0  0
 41 48  1  0  0  0
 42 43  1  0  0  0
 42 66  1  0  0  0
 42111  1  0  0  0
 42112  1  0  0  0
 43 44  1  0  0  0
 44113  1  0  0  0
 45 46  2  0  0  0
 45114  1  0  0  0
 46115  1  0  0  0
 47116  1  0  0  0
 47117  1  0  0  0
 48 56  1  0  0  0
 48 65  1  0  0  0
 48118  1  0  0  0
 49 50  1  0  0  0
 49 53  1  0  0  0
 49 64  1  0  0  0
 49119  1  0  0  0
 50 51  1  0  0  0
 50120  1  0  0  0
 50121  1  0  0  0
 51 52  1  0  0  0
 51122  1  0  0  0
 51123  1  0  0  0
 52124  1  0  0  0
 52125  1  0  0  0
 53 54  1  0  0  0
 54 55  2  0  0  0
 54126  1  0  0  0
 55 57  1  0  0  0
 55127  1  0  0  0
 56 69  2  0  0  0
 57 58  2  0  0  0
 57128  1  0  0  0
 58129  1  0  0  0
 59 60  1  0  0  0
 59 61  1  0  0  0
 59 62  1  0  0  0
 60130  1  0  0  0
 60131  1  0  0  0
 60132  1  0  0  0
 61133  1  0  0  0
 61134  1  0  0  0
 61135  1  0  0  0
 62136  1  0  0  0
 62137  1  0  0  0
 62138  1  0  0  0
 63 65  1  0  0  0
 63139  1  0  0  0
 63140  1  0  0  0
 63141  1  0  0  0
 64142  1  0  0  0
 65143  1  0  0  0
 68 80  1  0  0  0
 71 72  2  0  0  0
 71 74  1  0  0  0
 71144  1  0  0  0
 72 76  1  0  0  0
 72145  1  0  0  0
 73 75  1  0  0  0
 73 76  2  0  0  0
 73146  1  0  0  0
 74 75  2  0  0  0
 74 77  1  0  0  0
 75 79  1  0  0  0
 76 81  1  0  0  0
 77 82  1  0  0  0
 77 83  2  0  0  0
 78 80  1  0  0  0
 78 82  1  0  0  0
 78 84  2  0  0  0
 79147  1  0  0  0
 79148  1  0  0  0
 79149  1  0  0  0
 80150  1  0  0  0
 80151  1  0  0  0
 81152  1  0  0  0
 82153  1  0  0  0
 83154  1  0  0  0
 83155  1  0  0  0
M  CHG  1  83   1
M  ISO  4   1 100  68 101  80 101  81 100
M  END
> <chiral flag>
0

> <version>
0

> <s_m_source_file>
/data/baiqing/PycharmProjects/Reinvent-master-3.2/result/LINK_invent/BTK/process_docking_weight1_custom_product_contain_oxygen_bond_distance_aromatic_linkinvent_7_9_3/rearranged_h_0059.sdf

> <i_m_source_file_index>
65

> <r_mmod_Potential_Energy-OPLS-2005>
-167.755645751953

> <r_mmod_Stretch_Energy-OPLS-2005>
88.2246932983398

> <r_mmod_Bend_Energy-OPLS-2005>
145.65495300293

> <r_mmod_Torsional_Energy-OPLS-2005>
227.079010009766

> <r_mmod_Improper_Torsional_Energy-OPLS-2005>
5.98124170303345

> <r_mmod_Van_der_Waal_Energy-OPLS-2005>
154.946105957031

> <r_mmod_Electrostatic_Energy-OPLS-2005>
-390.169372558594

> <r_mmod_Solvation_Energy-OPLS-2005>
-450.176391601562

> <b_mmod_Minimization_Converged-OPLS-2005>
0

> <r_mmod_RMS_Derivative-OPLS-2005>
1.58949184417725

$$$$
65
                    3D
 Structure written by MMmdl.
152160  0  0  1  0            999 V2000
  -30.7156  -14.5183   20.5484 C   0  0  0  0  0  0
  -30.4152  -12.3307   19.4372 C   0  0  0  0  0  0
  -29.4932  -12.4970   18.2130 C   0  0  0  0  0  0
  -28.0167  -12.3532   18.6279 C   0  0  0  0  0  0
  -27.6547  -13.2163   19.8667 C   0  0  2  0  0  0
  -28.6990  -13.0535   20.9947 C   0  0  0  0  0  0
  -25.2559  -13.8183   20.5687 C   0  0  0  0  0  0
  -24.1825  -13.0448   20.9192 C   0  0  0  0  0  0
  -24.6393  -11.6919   20.8745 C   0  0  0  0  0  0
  -23.9065  -10.4301   21.0407 C   0  0  0  0  0  0
  -24.3616   -9.4213   21.9183 C   0  0  0  0  0  0
  -23.6292   -8.2246   22.0753 C   0  0  0  0  0  0
  -22.4273   -8.0284   21.3545 C   0  0  0  0  0  0
  -21.9909   -9.0258   20.4646 C   0  0  0  0  0  0
  -22.7238  -10.2139   20.3056 C   0  0  0  0  0  0
  -21.6853   -6.0736   22.5279 C   0  0  0  0  0  0
  -21.4013   -6.5639   23.8213 C   0  0  0  0  0  0
  -21.3659   -5.6793   24.9175 C   0  0  0  0  0  0
  -21.6044   -4.3056   24.7227 C   0  0  0  0  0  0
  -21.8819   -3.8147   23.4347 C   0  0  0  0  0  0
  -21.9192   -4.6964   22.3401 C   0  0  0  0  0  0
  -22.7846  -13.5237   21.1853 C   0  0  0  0  0  0
  -22.1661   -4.2150   21.0979 F   0  0  0  0  0  0
  -21.5629   -3.4539   25.7738 F   0  0  0  0  0  0
  -30.0226  -13.3497   20.4269 N   0  0  0  0  0  0
  -26.2994  -12.9368   20.3348 N   0  0  0  0  0  0
  -25.9323  -11.6520   20.5778 N   0  0  0  0  0  0
  -22.0486  -12.8229   22.0407 N   0  0  0  0  0  0
  -25.4267  -15.1901   20.4078 N   0  0  0  0  0  0
  -31.8625  -14.6345   20.1082 O   0  0  0  0  0  0
  -21.6639   -6.8880   21.4241 O   0  0  0  0  0  0
  -22.3532  -14.5545   20.6703 O   0  0  0  0  0  0
  -24.6187  -31.8657   23.2087 C   0  0  0  0  0  0
  -25.9067  -32.4809   23.8389 C   0  0  1  0  0  0
  -27.2239  -27.3965   20.1059 C   0  0  0  0  0  0
  -25.5911  -33.8610   24.2317 N   0  0  0  0  0  0
  -23.4087  -30.4899   21.5498 C   0  0  2  0  0  0
  -24.8558  -28.9571   20.1097 C   0  0  0  0  0  0
  -22.7434  -29.4646   22.4973 C   0  0  0  0  0  0
  -18.0273  -28.1376   22.8483 C   0  0  0  0  0  0
  -24.1489  -36.7308   23.2639 C   0  0  0  0  0  0
  -25.9425  -30.8206   21.3686 C   0  0  0  0  0  0
  -26.0199  -29.4543   20.7109 C   0  0  0  0  0  0
  -27.2112  -28.6832   20.7035 C   0  0  0  0  0  0
  -26.0475  -26.9363   19.4754 C   0  0  0  0  0  0
  -24.8666  -27.6995   19.4850 C   0  0  0  0  0  0
  -23.6194  -29.8270   20.1627 C   0  0  0  0  0  0
  -25.4110  -36.3104   24.0334 C   0  0  1  0  0  0
  -20.5868  -28.3669   23.1303 C   0  0  2  0  0  0
  -20.6767  -26.9403   22.5413 C   0  0  0  0  0  0
  -19.5746  -26.6383   21.5206 C   0  0  0  0  0  0
  -18.1922  -26.7917   22.1620 C   0  0  0  0  0  0
  -19.1523  -28.8839   23.2888 C   0  0  0  0  0  0
  -18.9454  -30.1446   23.8903 C   0  0  0  0  0  0
  -17.6458  -30.6585   24.0563 C   0  0  0  0  0  0
  -25.9039  -34.9469   23.5121 C   0  0  0  0  0  0
  -16.5348  -29.9087   23.6331 C   0  0  0  0  0  0
  -16.7264  -28.6502   23.0349 C   0  0  0  0  0  0
  -26.4481  -31.6596   25.0728 C   0  0  0  0  0  0
  -25.3738  -31.3713   26.1473 C   0  0  0  0  0  0
  -27.0311  -30.3033   24.6122 C   0  0  0  0  0  0
  -27.6055  -32.4318   25.7489 C   0  0  0  0  0  0
  -27.5581  -37.1808   24.8465 C   0  0  0  0  0  0
  -21.4158  -29.3034   22.3715 N   0  0  0  0  0  0
  -26.4294  -37.3791   23.9409 N   0  0  0  0  0  0
  -24.6751  -31.0730   22.1004 N   0  0  0  0  0  0
  -23.4191  -28.8183   23.3024 O   0  0  0  0  0  0
  -28.3367  -26.5716   20.1475 O   0  0  0  0  0  0
  -26.5606  -34.8927   22.4685 O   0  0  0  0  0  0
  -23.5372  -32.1427   23.7460 O   0  0  0  0  0  0
  -32.3678  -18.3905   21.9799 C   0  0  0  0  0  0
  -31.6099  -19.5334   21.6736 C   0  0  0  0  0  0
  -31.8456  -17.1063   21.7531 C   0  0  0  0  0  0
  -29.7795  -18.1055   20.9275 C   0  0  0  0  0  0
  -30.3067  -19.4204   21.1314 C   0  0  0  0  0  0
  -30.5508  -16.9339   21.2097 C   0  0  0  0  0  0
  -28.8785  -22.8832   20.6996 C   0  0  0  0  0  0
  -29.1425  -24.2192   20.6644 C   0  0  0  0  0  0
  -29.9359  -21.8697   20.6081 C   0  0  0  0  0  0
  -28.0903  -25.3219   20.8467 C   0  0  0  0  0  0
  -29.5131  -20.6023   20.8693 N   0  0  0  0  0  0
  -30.0296  -15.6021   20.9977 N   0  0  0  0  0  0
  -31.1017  -22.1349   20.3022 O   0  0  0  0  0  0
  -31.4606  -12.4139   19.1350 H   0  0  0  0  0  0
  -30.3107  -11.3325   19.8650 H   0  0  0  0  0  0
  -29.7403  -11.7569   17.4508 H   0  0  0  0  0  0
  -29.6555  -13.4743   17.7556 H   0  0  0  0  0  0
  -27.8384  -11.3000   18.8468 H   0  0  0  0  0  0
  -27.3637  -12.6032   17.7910 H   0  0  0  0  0  0
  -27.6822  -14.2556   19.5385 H   0  0  0  0  0  0
  -28.6846  -12.0355   21.3866 H   0  0  0  0  0  0
  -28.4625  -13.7005   21.8407 H   0  0  0  0  0  0
  -25.2761   -9.5688   22.4763 H   0  0  0  0  0  0
  -24.0003   -7.4635   22.7473 H   0  0  0  0  0  0
  -21.0842   -8.8777   19.8950 H   0  0  0  0  0  0
  -22.3695  -10.9678   19.6167 H   0  0  0  0  0  0
  -21.2007   -7.6150   23.9717 H   0  0  0  0  0  0
  -21.1481   -6.0523   25.9078 H   0  0  0  0  0  0
  -22.0598   -2.7610   23.2846 H   0  0  0  0  0  0
  -22.4098  -11.9889   22.4796 H   0  0  0  0  0  0
  -21.1104  -13.1256   22.2613 H   0  0  0  0  0  0
  -24.6583  -15.8443   20.5102 H   0  0  0  0  0  0
  -26.2743  -15.6272   20.0691 H   0  0  0  0  0  0
  -26.7139  -32.5514   23.1154 H   0  0  0  0  0  0
  -25.0072  -33.9769   25.0468 H   0  0  0  0  0  0
  -22.6986  -31.3077   21.4110 H   0  0  0  0  0  0
  -23.3750  -35.9644   23.3309 H   0  0  0  0  0  0
  -24.3583  -36.8916   22.2052 H   0  0  0  0  0  0
  -23.7240  -37.6514   23.6648 H   0  0  0  0  0  0
  -26.0612  -31.5879   20.6022 H   0  0  0  0  0  0
  -26.8274  -30.8708   21.9911 H   0  0  0  0  0  0
  -28.1057  -29.0548   21.1843 H   0  0  0  0  0  0
  -26.0344  -25.9741   18.9829 H   0  0  0  0  0  0
  -23.9751  -27.3140   19.0099 H   0  0  0  0  0  0
  -23.7298  -30.6047   19.4058 H   0  0  0  0  0  0
  -22.7420  -29.2499   19.8652 H   0  0  0  0  0  0
  -25.1284  -36.1973   25.0827 H   0  0  0  0  0  0
  -20.9954  -28.3239   24.1427 H   0  0  0  0  0  0
  -20.5669  -26.2279   23.3602 H   0  0  0  0  0  0
  -21.6638  -26.7448   22.1204 H   0  0  0  0  0  0
  -19.6915  -25.6297   21.1232 H   0  0  0  0  0  0
  -19.6688  -27.3201   20.6739 H   0  0  0  0  0  0
  -17.4191  -26.6663   21.4023 H   0  0  0  0  0  0
  -18.0329  -26.0058   22.9015 H   0  0  0  0  0  0
  -19.7935  -30.7250   24.2282 H   0  0  0  0  0  0
  -17.5018  -31.6267   24.5159 H   0  0  0  0  0  0
  -15.5348  -30.2994   23.7653 H   0  0  0  0  0  0
  -15.8658  -28.0829   22.7063 H   0  0  0  0  0  0
  -24.5904  -30.7070   25.7807 H   0  0  0  0  0  0
  -24.8942  -32.2875   26.4932 H   0  0  0  0  0  0
  -25.8086  -30.8871   27.0226 H   0  0  0  0  0  0
  -26.2860  -29.6797   24.1170 H   0  0  0  0  0  0
  -27.4063  -29.7273   25.4590 H   0  0  0  0  0  0
  -27.8707  -30.4340   23.9290 H   0  0  0  0  0  0
  -27.2673  -33.3616   26.2081 H   0  0  0  0  0  0
  -28.3858  -32.6884   25.0307 H   0  0  0  0  0  0
  -28.0730  -31.8430   26.5395 H   0  0  0  0  0  0
  -28.2602  -38.0105   24.7513 H   0  0  0  0  0  0
  -28.1072  -36.2633   24.6286 H   0  0  0  0  0  0
  -27.2299  -37.1455   25.8870 H   0  0  0  0  0  0
  -20.9326  -29.8766   21.6942 H   0  0  0  0  0  0
  -26.0186  -38.2870   24.1412 H   0  0  0  0  0  0
  -33.3578  -18.4998   22.4001 H   0  0  0  0  0  0
  -32.0478  -20.4976   21.8872 H   0  0  0  0  0  0
  -32.4576  -16.2530   22.0109 H   0  0  0  0  0  0
  -28.7797  -17.9948   20.5322 H   0  0  0  0  0  0
  -27.8540  -22.5611   20.8227 H   0  0  0  0  0  0
  -30.1605  -24.5629   20.5431 H   0  0  0  0  0  0
  -28.0527  -25.5552   21.9119 H   0  0  0  0  0  0
  -27.1213  -24.8860   20.6036 H   0  0  0  0  0  0
  -28.5116  -20.4856   20.9369 H   0  0  0  0  0  0
  -29.0422  -15.4649   21.1519 H   0  0  0  0  0  0
  1 25  1  0  0  0
  1 30  2  0  0  0
  1 82  1  0  0  0
  2  3  1  0  0  0
  2 25  1  0  0  0
  2 84  1  0  0  0
  2 85  1  0  0  0
  3  4  1  0  0  0
  3 86  1  0  0  0
  3 87  1  0  0  0
  4  5  1  0  0  0
  4 88  1  0  0  0
  4 89  1  0  0  0
  5  6  1  0  0  0
  5 26  1  0  0  0
  5 90  1  0  0  0
  6 25  1  0  0  0
  6 91  1  0  0  0
  6 92  1  0  0  0
  7  8  2  0  0  0
  7 26  1  0  0  0
  7 29  1  0  0  0
  8  9  1  0  0  0
  8 22  1  0  0  0
  9 10  1  0  0  0
  9 27  2  0  0  0
 10 11  2  0  0  0
 10 15  1  0  0  0
 11 12  1  0  0  0
 11 93  1  0  0  0
 12 13  2  0  0  0
 12 94  1  0  0  0
 13 14  1  0  0  0
 13 31  1  0  0  0
 14 15  2  0  0  0
 14 95  1  0  0  0
 15 96  1  0  0  0
 16 17  2  0  0  0
 16 21  1  0  0  0
 16 31  1  0  0  0
 17 18  1  0  0  0
 17 97  1  0  0  0
 18 19  2  0  0  0
 18 98  1  0  0  0
 19 20  1  0  0  0
 19 24  1  0  0  0
 20 21  2  0  0  0
 20 99  1  0  0  0
 21 23  1  0  0  0
 22 28  1  0  0  0
 22 32  2  0  0  0
 26 27  1  0  0  0
 28100  1  0  0  0
 28101  1  0  0  0
 29102  1  0  0  0
 29103  1  0  0  0
 33 34  1  0  0  0
 33 66  1  0  0  0
 33 70  2  0  0  0
 34 36  1  0  0  0
 34 59  1  0  0  0
 34104  1  0  0  0
 35 44  2  0  0  0
 35 45  1  0  0  0
 35 68  1  0  0  0
 36 56  1  0  0  0
 36105  1  0  0  0
 37 39  1  0  0  0
 37 47  1  0  0  0
 37 66  1  0  0  0
 37106  1  0  0  0
 38 43  2  0  0  0
 38 46  1  0  0  0
 38 47  1  0  0  0
 39 64  1  0  0  0
 39 67  2  0  0  0
 40 52  1  0  0  0
 40 53  2  0  0  0
 40 58  1  0  0  0
 41107  1  0  0  0
 41108  1  0  0  0
 41109  1  0  0  0
 41 48  1  0  0  0
 42 43  1  0  0  0
 42 66  1  0  0  0
 42110  1  0  0  0
 42111  1  0  0  0
 43 44  1  0  0  0
 44112  1  0  0  0
 45 46  2  0  0  0
 45113  1  0  0  0
 46114  1  0  0  0
 47115  1  0  0  0
 47116  1  0  0  0
 48 56  1  0  0  0
 48 65  1  0  0  0
 48117  1  0  0  0
 49 50  1  0  0  0
 49 53  1  0  0  0
 49 64  1  0  0  0
 49118  1  0  0  0
 50 51  1  0  0  0
 50119  1  0  0  0
 50120  1  0  0  0
 51 52  1  0  0  0
 51121  1  0  0  0
 51122  1  0  0  0
 52123  1  0  0  0
 52124  1  0  0  0
 53 54  1  0  0  0
 54 55  2  0  0  0
 54125  1  0  0  0
 55 57  1  0  0  0
 55126  1  0  0  0
 56 69  2  0  0  0
 57 58  2  0  0  0
 57127  1  0  0  0
 58128  1  0  0  0
 59 60  1  0  0  0
 59 61  1  0  0  0
 59 62  1  0  0  0
 60129  1  0  0  0
 60130  1  0  0  0
 60131  1  0  0  0
 61132  1  0  0  0
 61133  1  0  0  0
 61134  1  0  0  0
 62135  1  0  0  0
 62136  1  0  0  0
 62137  1  0  0  0
 63 65  1  0  0  0
 63138  1  0  0  0
 63139  1  0  0  0
 63140  1  0  0  0
 64141  1  0  0  0
 65142  1  0  0  0
 68 80  1  0  0  0
 71 72  2  0  0  0
 71 73  1  0  0  0
 71143  1  0  0  0
 72 75  1  0  0  0
 72144  1  0  0  0
 73 76  2  0  0  0
 73145  1  0  0  0
 74 75  2  0  0  0
 74 76  1  0  0  0
 74146  1  0  0  0
 75 81  1  0  0  0
 76 82  1  0  0  0
 77 78  2  0  0  0
 77 79  1  0  0  0
 77147  1  0  0  0
 78 80  1  0  0  0
 78148  1  0  0  0
 79 81  1  0  0  0
 79 83  2  0  0  0
 80149  1  0  0  0
 80150  1  0  0  0
 81151  1  0  0  0
 82152  1  0  0  0
M  ISO  4   1 100  68 101  80 101  82 100
M  END
> <chiral flag>
0

> <version>
0

> <s_m_source_file>
/data/baiqing/PycharmProjects/Reinvent-master-3.2/result/LINK_invent/BTK/process_docking_weight1_custom_product_contain_oxygen_bond_distance_aromatic_linkinvent_7_9_3/rearranged_h_0059.sdf

> <i_m_source_file_index>
66

> <r_mmod_Potential_Energy-OPLS-2005>
-49.5611343383789

> <r_mmod_Stretch_Energy-OPLS-2005>
49.6872673034668

> <r_mmod_Bend_Energy-OPLS-2005>
97.8554916381836

> <r_mmod_Torsional_Energy-OPLS-2005>
250.232345581055

> <r_mmod_Improper_Torsional_Energy-OPLS-2005>
4.59473848342896

> <r_mmod_Van_der_Waal_Energy-OPLS-2005>
160.846084594727

> <r_mmod_Electrostatic_Energy-OPLS-2005>
-399.101959228516

> <r_mmod_Solvation_Energy-OPLS-2005>
-237.277526855469

> <b_mmod_Minimization_Converged-OPLS-2005>
0

> <r_mmod_RMS_Derivative-OPLS-2005>
0.667279124259949

$$$$
66
                    3D
 Structure written by MMmdl.
156164  0  0  1  0            999 V2000
  -30.6888  -14.5138   20.6020 C   0  0  0  0  0  0
  -30.4344  -12.3376   19.4239 C   0  0  0  0  0  0
  -29.4976  -12.5091   18.2092 C   0  0  0  0  0  0
  -28.0189  -12.3609   18.6231 C   0  0  0  0  0  0
  -27.6650  -13.2008   19.8784 C   0  0  2  0  0  0
  -28.7136  -12.9785   20.9953 C   0  0  0  0  0  0
  -25.2621  -13.8148   20.5717 C   0  0  0  0  0  0
  -24.1848  -13.0428   20.9165 C   0  0  0  0  0  0
  -24.6398  -11.6891   20.8734 C   0  0  0  0  0  0
  -23.9063  -10.4285   21.0409 C   0  0  0  0  0  0
  -24.3610   -9.4199   21.9186 C   0  0  0  0  0  0
  -23.6289   -8.2232   22.0752 C   0  0  0  0  0  0
  -22.4270   -8.0277   21.3543 C   0  0  0  0  0  0
  -21.9911   -9.0251   20.4639 C   0  0  0  0  0  0
  -22.7245  -10.2128   20.3054 C   0  0  0  0  0  0
  -21.6850   -6.0737   22.5281 C   0  0  0  0  0  0
  -21.4006   -6.5634   23.8215 C   0  0  0  0  0  0
  -21.3658   -5.6787   24.9174 C   0  0  0  0  0  0
  -21.6047   -4.3055   24.7224 C   0  0  0  0  0  0
  -21.8818   -3.8151   23.4345 C   0  0  0  0  0  0
  -21.9190   -4.6967   22.3405 C   0  0  0  0  0  0
  -22.7871  -13.5230   21.1840 C   0  0  0  0  0  0
  -22.1664   -4.2156   21.0981 F   0  0  0  0  0  0
  -21.5629   -3.4536   25.7734 F   0  0  0  0  0  0
  -30.0349  -13.3212   20.4455 N   0  0  0  0  0  0
  -26.3055  -12.9300   20.3419 N   0  0  0  0  0  0
  -25.9331  -11.6467   20.5787 N   0  0  0  0  0  0
  -22.0511  -12.8214   22.0392 N   0  0  0  0  0  0
  -25.4386  -15.1864   20.4194 N   0  0  0  0  0  0
  -31.7878  -14.7006   20.0668 O   0  0  0  0  0  0
  -21.6632   -6.8880   21.4242 O   0  0  0  0  0  0
  -22.3553  -14.5546   20.6713 O   0  0  0  0  0  0
  -24.6189  -31.8671   23.2102 C   0  0  0  0  0  0
  -25.9064  -32.4825   23.8409 C   0  0  1  0  0  0
  -27.2335  -27.4010   20.0968 C   0  0  0  0  0  0
  -25.5938  -33.8615   24.2359 N   0  0  0  0  0  0
  -23.4091  -30.4939   21.5478 C   0  0  2  0  0  0
  -24.8562  -28.9637   20.1083 C   0  0  0  0  0  0
  -22.7458  -29.4660   22.4939 C   0  0  0  0  0  0
  -18.0303  -28.1382   22.8503 C   0  0  0  0  0  0
  -24.1486  -36.7258   23.2639 C   0  0  0  0  0  0
  -25.9445  -30.8205   21.3727 C   0  0  0  0  0  0
  -26.0193  -29.4554   20.7138 C   0  0  0  0  0  0
  -27.2079  -28.6817   20.7059 C   0  0  0  0  0  0
  -26.0492  -26.9475   19.4631 C   0  0  0  0  0  0
  -24.8686  -27.7102   19.4782 C   0  0  0  0  0  0
  -23.6215  -29.8341   20.1596 C   0  0  0  0  0  0
  -25.4107  -36.3095   24.0356 C   0  0  1  0  0  0
  -20.5907  -28.3669   23.1292 C   0  0  2  0  0  0
  -20.6794  -26.9400   22.5408 C   0  0  0  0  0  0
  -19.5770  -26.6399   21.5206 C   0  0  0  0  0  0
  -18.1949  -26.7931   22.1621 C   0  0  0  0  0  0
  -19.1556  -28.8841   23.2905 C   0  0  0  0  0  0
  -18.9479  -30.1451   23.8913 C   0  0  0  0  0  0
  -17.6480  -30.6594   24.0570 C   0  0  0  0  0  0
  -25.9047  -34.9470   23.5144 C   0  0  0  0  0  0
  -16.5369  -29.9099   23.6339 C   0  0  0  0  0  0
  -16.7294  -28.6508   23.0374 C   0  0  0  0  0  0
  -26.4498  -31.6594   25.0725 C   0  0  0  0  0  0
  -25.3784  -31.3690   26.1492 C   0  0  0  0  0  0
  -27.0340  -30.3047   24.6076 C   0  0  0  0  0  0
  -27.6081  -32.4314   25.7475 C   0  0  0  0  0  0
  -27.5579  -37.1788   24.8474 C   0  0  0  0  0  0
  -21.4180  -29.3032   22.3681 N   0  0  0  0  0  0
  -26.4281  -37.3794   23.9439 N   0  0  0  0  0  0
  -24.6754  -31.0761   22.1007 N   0  0  0  0  0  0
  -23.4216  -28.8207   23.2990 O   0  0  0  0  0  0
  -28.3865  -26.6225   20.1477 O   0  0  0  0  0  0
  -26.5578  -34.8921   22.4685 O   0  0  0  0  0  0
  -23.5372  -32.1436   23.7482 O   0  0  0  0  0  0
  -32.6624  -18.4284   22.0766 C   0  0  0  0  0  0
  -32.0106  -17.1906   21.9626 C   0  0  0  0  0  0
  -32.0357  -19.6040   21.6325 C   0  0  0  0  0  0
  -30.7387  -17.0831   21.3565 C   0  0  0  0  0  0
  -30.1336  -18.2839   20.8371 C   0  0  0  0  0  0
  -30.7547  -19.5632   21.0302 C   0  0  0  0  0  0
  -29.2738  -22.9522   20.3134 C   0  0  0  0  0  0
  -29.3726  -24.3085   20.3057 C   0  0  0  0  0  0
  -30.3236  -22.0804   20.8425 C   0  0  0  0  0  0
  -28.8118  -18.2224   20.0745 C   0  0  0  0  0  0
  -28.2721  -25.2278   19.7721 C   0  0  0  0  0  0
  -30.0475  -15.6846   21.4284 C   0  0  1  0  0  0
  -30.0615  -20.7666   20.6248 N   0  0  0  0  0  0
  -31.3268  -22.5009   21.4236 O   0  0  0  0  0  0
  -28.7377  -15.7697   21.1910 F   0  0  0  0  0  0
  -31.4751  -12.4495   19.1158 H   0  0  0  0  0  0
  -30.3568  -11.3263   19.8274 H   0  0  0  0  0  0
  -29.7417  -11.7749   17.4405 H   0  0  0  0  0  0
  -29.6592  -13.4891   17.7578 H   0  0  0  0  0  0
  -27.8334  -11.3053   18.8227 H   0  0  0  0  0  0
  -27.3657  -12.6324   17.7928 H   0  0  0  0  0  0
  -27.7046  -14.2452   19.5718 H   0  0  0  0  0  0
  -28.7076  -11.9341   21.3100 H   0  0  0  0  0  0
  -28.4688  -13.5421   21.8950 H   0  0  0  0  0  0
  -25.2755   -9.5666   22.4768 H   0  0  0  0  0  0
  -23.9996   -7.4615   22.7467 H   0  0  0  0  0  0
  -21.0848   -8.8774   19.8942 H   0  0  0  0  0  0
  -22.3717  -10.9663   19.6160 H   0  0  0  0  0  0
  -21.1993   -7.6143   23.9721 H   0  0  0  0  0  0
  -21.1484   -6.0514   25.9077 H   0  0  0  0  0  0
  -22.0600   -2.7615   23.2839 H   0  0  0  0  0  0
  -22.4106  -11.9843   22.4738 H   0  0  0  0  0  0
  -21.1136  -13.1249   22.2623 H   0  0  0  0  0  0
  -24.6925  -15.8552   20.5717 H   0  0  0  0  0  0
  -26.3352  -15.6209   20.2352 H   0  0  0  0  0  0
  -26.7123  -32.5504   23.1156 H   0  0  0  0  0  0
  -25.0188  -33.9779   25.0579 H   0  0  0  0  0  0
  -22.7008  -31.3140   21.4130 H   0  0  0  0  0  0
  -23.3767  -35.9571   23.3317 H   0  0  0  0  0  0
  -24.3598  -36.8848   22.2049 H   0  0  0  0  0  0
  -23.7203  -37.6460   23.6623 H   0  0  0  0  0  0
  -26.0764  -31.5890   20.6103 H   0  0  0  0  0  0
  -26.8256  -30.8605   22.0015 H   0  0  0  0  0  0
  -28.1004  -29.0576   21.1892 H   0  0  0  0  0  0
  -26.0066  -26.0025   18.9439 H   0  0  0  0  0  0
  -23.9797  -27.3303   18.9932 H   0  0  0  0  0  0
  -23.7413  -30.6136   19.4055 H   0  0  0  0  0  0
  -22.7437  -29.2629   19.8534 H   0  0  0  0  0  0
  -25.1290  -36.1955   25.0852 H   0  0  0  0  0  0
  -21.0051  -28.3214   24.1398 H   0  0  0  0  0  0
  -20.5706  -26.2274   23.3604 H   0  0  0  0  0  0
  -21.6660  -26.7460   22.1179 H   0  0  0  0  0  0
  -19.6928  -25.6330   21.1187 H   0  0  0  0  0  0
  -19.6674  -27.3241   20.6757 H   0  0  0  0  0  0
  -17.4235  -26.6719   21.3998 H   0  0  0  0  0  0
  -18.0319  -26.0062   22.8997 H   0  0  0  0  0  0
  -19.7952  -30.7260   24.2283 H   0  0  0  0  0  0
  -17.5038  -31.6270   24.5189 H   0  0  0  0  0  0
  -15.5368  -30.3010   23.7652 H   0  0  0  0  0  0
  -15.8699  -28.0832   22.7093 H   0  0  0  0  0  0
  -24.5960  -30.7030   25.7833 H   0  0  0  0  0  0
  -24.8970  -32.2839   26.4950 H   0  0  0  0  0  0
  -25.8171  -30.8862   27.0233 H   0  0  0  0  0  0
  -26.2866  -29.6786   24.1180 H   0  0  0  0  0  0
  -27.4205  -29.7307   25.4507 H   0  0  0  0  0  0
  -27.8678  -30.4411   23.9184 H   0  0  0  0  0  0
  -27.2728  -33.3636   26.2030 H   0  0  0  0  0  0
  -28.3891  -32.6825   25.0285 H   0  0  0  0  0  0
  -28.0732  -31.8438   26.5402 H   0  0  0  0  0  0
  -28.2600  -38.0088   24.7577 H   0  0  0  0  0  0
  -28.1091  -36.2627   24.6259 H   0  0  0  0  0  0
  -27.2316  -37.1411   25.8885 H   0  0  0  0  0  0
  -20.9356  -29.8782   21.6925 H   0  0  0  0  0  0
  -26.0161  -38.2867   24.1472 H   0  0  0  0  0  0
  -33.6392  -18.4826   22.5377 H   0  0  0  0  0  0
  -32.4969  -16.3103   22.3582 H   0  0  0  0  0  0
  -32.5743  -20.5276   21.7747 H   0  0  0  0  0  0
  -28.3742  -22.4999   19.9161 H   0  0  0  0  0  0
  -30.2633  -24.7943   20.6833 H   0  0  0  0  0  0
  -28.7932  -17.3561   19.4139 H   0  0  0  0  0  0
  -28.6477  -19.0781   19.4216 H   0  0  0  0  0  0
  -27.9706  -18.1568   20.7659 H   0  0  0  0  0  0
  -27.3406  -24.7959   20.1443 H   0  0  0  0  0  0
  -28.2603  -25.1544   18.6837 H   0  0  0  0  0  0
  -30.1045  -15.3708   22.4707 H   0  0  0  0  0  0
  -29.1905  -20.6050   20.1410 H   0  0  0  0  0  0
  1 25  1  0  0  0
  1 30  2  0  0  0
  1 82  1  0  0  0
  2  3  1  0  0  0
  2 25  1  0  0  0
  2 86  1  0  0  0
  2 87  1  0  0  0
  3  4  1  0  0  0
  3 88  1  0  0  0
  3 89  1  0  0  0
  4  5  1  0  0  0
  4 90  1  0  0  0
  4 91  1  0  0  0
  5  6  1  0  0  0
  5 26  1  0  0  0
  5 92  1  0  0  0
  6 25  1  0  0  0
  6 93  1  0  0  0
  6 94  1  0  0  0
  7  8  2  0  0  0
  7 26  1  0  0  0
  7 29  1  0  0  0
  8  9  1  0  0  0
  8 22  1  0  0  0
  9 10  1  0  0  0
  9 27  2  0  0  0
 10 11  2  0  0  0
 10 15  1  0  0  0
 11 12  1  0  0  0
 11 95  1  0  0  0
 12 13  2  0  0  0
 12 96  1  0  0  0
 13 14  1  0  0  0
 13 31  1  0  0  0
 14 15  2  0  0  0
 14 97  1  0  0  0
 15 98  1  0  0  0
 16 17  2  0  0  0
 16 21  1  0  0  0
 16 31  1  0  0  0
 17 18  1  0  0  0
 17 99  1  0  0  0
 18 19  2  0  0  0
 18100  1  0  0  0
 19 20  1  0  0  0
 19 24  1  0  0  0
 20 21  2  0  0  0
 20101  1  0  0  0
 21 23  1  0  0  0
 22 28  1  0  0  0
 22 32  2  0  0  0
 26 27  1  0  0  0
 28102  1  0  0  0
 28103  1  0  0  0
 29104  1  0  0  0
 29105  1  0  0  0
 33 34  1  0  0  0
 33 66  1  0  0  0
 33 70  2  0  0  0
 34 36  1  0  0  0
 34 59  1  0  0  0
 34106  1  0  0  0
 35 44  2  0  0  0
 35 45  1  0  0  0
 35 68  1  0  0  0
 36 56  1  0  0  0
 36107  1  0  0  0
 37 39  1  0  0  0
 37 47  1  0  0  0
 37 66  1  0  0  0
 37108  1  0  0  0
 38 43  2  0  0  0
 38 46  1  0  0  0
 38 47  1  0  0  0
 39 64  1  0  0  0
 39 67  2  0  0  0
 40 52  1  0  0  0
 40 53  2  0  0  0
 40 58  1  0  0  0
 41109  1  0  0  0
 41110  1  0  0  0
 41111  1  0  0  0
 41 48  1  0  0  0
 42 43  1  0  0  0
 42 66  1  0  0  0
 42112  1  0  0  0
 42113  1  0  0  0
 43 44  1  0  0  0
 44114  1  0  0  0
 45 46  2  0  0  0
 45115  1  0  0  0
 46116  1  0  0  0
 47117  1  0  0  0
 47118  1  0  0  0
 48 56  1  0  0  0
 48 65  1  0  0  0
 48119  1  0  0  0
 49 50  1  0  0  0
 49 53  1  0  0  0
 49 64  1  0  0  0
 49120  1  0  0  0
 50 51  1  0  0  0
 50121  1  0  0  0
 50122  1  0  0  0
 51 52  1  0  0  0
 51123  1  0  0  0
 51124  1  0  0  0
 52125  1  0  0  0
 52126  1  0  0  0
 53 54  1  0  0  0
 54 55  2  0  0  0
 54127  1  0  0  0
 55 57  1  0  0  0
 55128  1  0  0  0
 56 69  2  0  0  0
 57 58  2  0  0  0
 57129  1  0  0  0
 58130  1  0  0  0
 59 60  1  0  0  0
 59 61  1  0  0  0
 59 62  1  0  0  0
 60131  1  0  0  0
 60132  1  0  0  0
 60133  1  0  0  0
 61134  1  0  0  0
 61135  1  0  0  0
 61136  1  0  0  0
 62137  1  0  0  0
 62138  1  0  0  0
 62139  1  0  0  0
 63 65  1  0  0  0
 63140  1  0  0  0
 63141  1  0  0  0
 63142  1  0  0  0
 64143  1  0  0  0
 65144  1  0  0  0
 68 81  1  0  0  0
 71 72  2  0  0  0
 71 73  1  0  0  0
 71145  1  0  0  0
 72 74  1  0  0  0
 72146  1  0  0  0
 73 76  2  0  0  0
 73147  1  0  0  0
 74 75  2  0  0  0
 74 82  1  0  0  0
 75 76  1  0  0  0
 75 80  1  0  0  0
 76 83  1  0  0  0
 77 78  2  0  0  0
 77 79  1  0  0  0
 77148  1  0  0  0
 78 81  1  0  0  0
 78149  1  0  0  0
 79 83  1  0  0  0
 79 84  2  0  0  0
 80150  1  0  0  0
 80151  1  0  0  0
 80152  1  0  0  0
 81153  1  0  0  0
 81154  1  0  0  0
 82 85  1  0  0  0
 82155  1  0  0  0
 83156  1  0  0  0
M  ISO  4   1 100  68 101  81 101  82 100
M  END
> <chiral flag>
0

> <version>
0

> <s_m_source_file>
/data/baiqing/PycharmProjects/Reinvent-master-3.2/result/LINK_invent/BTK/process_docking_weight1_custom_product_contain_oxygen_bond_distance_aromatic_linkinvent_7_9_3/rearranged_h_0059.sdf

> <i_m_source_file_index>
67

> <r_mmod_Potential_Energy-OPLS-2005>
-2.00866222381592

> <r_mmod_Stretch_Energy-OPLS-2005>
54.7129135131836

> <r_mmod_Bend_Energy-OPLS-2005>
115.600425720215

> <r_mmod_Torsional_Energy-OPLS-2005>
179.5380859375

> <r_mmod_Improper_Torsional_Energy-OPLS-2005>
2.23122215270996

> <r_mmod_Van_der_Waal_Energy-OPLS-2005>
174.960739135742

> <r_mmod_Electrostatic_Energy-OPLS-2005>
-330.864105224609

> <r_mmod_Solvation_Energy-OPLS-2005>
-216.678039550781

> <b_mmod_Minimization_Converged-OPLS-2005>
0

> <r_mmod_RMS_Derivative-OPLS-2005>
2.20111131668091

$$$$
67
                    3D
 Structure written by MMmdl.
167176  0  0  1  0            999 V2000
  -30.6435  -14.7937   20.4564 C   0  0  0  0  0  0
  -30.4274  -12.4899   19.4863 C   0  0  0  0  0  0
  -29.5114  -12.5099   18.2445 C   0  0  0  0  0  0
  -28.0423  -12.3221   18.6631 C   0  0  0  0  0  0
  -27.6388  -13.2417   19.8464 C   0  0  2  0  0  0
  -28.6839  -13.2276   20.9840 C   0  0  0  0  0  0
  -25.2496  -13.8220   20.5709 C   0  0  0  0  0  0
  -24.1798  -13.0453   20.9210 C   0  0  0  0  0  0
  -24.6407  -11.6930   20.8758 C   0  0  0  0  0  0
  -23.9087  -10.4297   21.0414 C   0  0  0  0  0  0
  -24.3634   -9.4207   21.9189 C   0  0  0  0  0  0
  -23.6301   -8.2247   22.0759 C   0  0  0  0  0  0
  -22.4282   -8.0288   21.3545 C   0  0  0  0  0  0
  -21.9922   -9.0263   20.4648 C   0  0  0  0  0  0
  -22.7261  -10.2140   20.3057 C   0  0  0  0  0  0
  -21.6858   -6.0741   22.5279 C   0  0  0  0  0  0
  -21.4015   -6.5645   23.8213 C   0  0  0  0  0  0
  -21.3655   -5.6797   24.9174 C   0  0  0  0  0  0
  -21.6045   -4.3057   24.7227 C   0  0  0  0  0  0
  -21.8818   -3.8149   23.4345 C   0  0  0  0  0  0
  -21.9191   -4.6966   22.3400 C   0  0  0  0  0  0
  -22.7815  -13.5217   21.1870 C   0  0  0  0  0  0
  -22.1662   -4.2147   21.0977 F   0  0  0  0  0  0
  -21.5628   -3.4536   25.7739 F   0  0  0  0  0  0
  -29.9806  -13.5813   20.3921 N   0  0  0  0  0  0
  -26.2935  -12.9448   20.3292 N   0  0  0  0  0  0
  -25.9339  -11.6575   20.5771 N   0  0  0  0  0  0
  -22.0465  -12.8191   22.0422 N   0  0  0  0  0  0
  -25.4178  -15.1947   20.4125 N   0  0  0  0  0  0
  -31.8334  -14.8078   20.1361 O   0  0  0  0  0  0
  -21.6644   -6.8887   21.4239 O   0  0  0  0  0  0
  -22.3490  -14.5519   20.6724 O   0  0  0  0  0  0
  -24.6334  -31.8526   23.1987 C   0  0  0  0  0  0
  -25.9141  -32.4742   23.8346 C   0  0  1  0  0  0
  -27.2127  -27.2286   20.1297 C   0  0  0  0  0  0
  -25.5934  -33.8547   24.2263 N   0  0  0  0  0  0
  -23.4333  -30.4779   21.5390 C   0  0  2  0  0  0
  -24.8789  -28.9256   20.1062 C   0  0  0  0  0  0
  -22.7522  -29.4586   22.4866 C   0  0  0  0  0  0
  -18.0290  -28.1387   22.8482 C   0  0  0  0  0  0
  -24.1491  -36.7268   23.2643 C   0  0  0  0  0  0
  -25.9834  -30.7565   21.3845 C   0  0  0  0  0  0
  -26.0518  -29.3781   20.7218 C   0  0  0  0  0  0
  -27.2162  -28.5415   20.7242 C   0  0  0  0  0  0
  -26.0049  -26.8472   19.4981 C   0  0  0  0  0  0
  -24.8619  -27.6692   19.4861 C   0  0  0  0  0  0
  -23.6555  -29.8205   20.1516 C   0  0  0  0  0  0
  -25.4119  -36.3052   24.0326 C   0  0  1  0  0  0
  -20.5900  -28.3692   23.1249 C   0  0  2  0  0  0
  -20.6778  -26.9403   22.5406 C   0  0  0  0  0  0
  -19.5749  -26.6379   21.5209 C   0  0  0  0  0  0
  -18.1929  -26.7943   22.1614 C   0  0  0  0  0  0
  -19.1550  -28.8862   23.2864 C   0  0  0  0  0  0
  -18.9474  -30.1464   23.8886 C   0  0  0  0  0  0
  -17.6473  -30.6592   24.0559 C   0  0  0  0  0  0
  -25.9060  -34.9423   23.5097 C   0  0  0  0  0  0
  -16.5358  -29.9097   23.6326 C   0  0  0  0  0  0
  -16.7276  -28.6510   23.0354 C   0  0  0  0  0  0
  -26.4522  -31.6572   25.0735 C   0  0  0  0  0  0
  -25.3749  -31.3732   26.1448 C   0  0  0  0  0  0
  -27.0388  -30.2997   24.6229 C   0  0  0  0  0  0
  -27.6072  -32.4329   25.7492 C   0  0  0  0  0  0
  -27.5580  -37.1791   24.8463 C   0  0  0  0  0  0
  -21.4226  -29.3042   22.3637 N   0  0  0  0  0  0
  -26.4283  -37.3763   23.9415 N   0  0  0  0  0  0
  -24.7024  -31.0490   22.0959 N   0  0  0  0  0  0
  -23.4215  -28.8096   23.2943 O   0  0  0  0  0  0
  -28.3071  -26.3253   20.2326 O   0  0  0  0  0  0
  -26.5627  -34.8905   22.4664 O   0  0  0  0  0  0
  -23.5473  -32.1323   23.7278 O   0  0  0  0  0  0
  -31.7628  -17.7185   20.8022 C   0  0  0  0  0  0
  -28.0405  -23.0761   21.4720 C   0  0  0  0  0  0
  -29.5287  -18.6315   20.6134 C   0  0  0  0  0  0
  -32.2895  -19.0237   20.8765 C   0  0  0  0  0  0
  -28.5959  -23.5583   20.2418 C   0  0  0  0  0  0
  -31.4378  -20.1608   20.8363 C   0  0  0  0  0  0
  -30.0285  -20.0144   20.6670 C   0  0  0  0  0  0
  -30.3826  -17.4361   20.6762 C   0  0  0  0  0  0
  -28.4175  -21.7623   21.6864 C   0  0  0  0  0  0
  -29.2760  -22.4137   19.7786 C   0  0  0  0  0  0
  -34.5113  -19.5542   19.9856 C   0  0  0  0  0  0
  -33.7535  -19.1616   21.0232 C   0  0  0  0  0  0
  -32.0549  -21.5539   21.0108 C   0  0  0  0  0  0
  -34.8080  -17.4383   22.5895 C   0  0  0  0  0  0
  -28.3833  -24.9896   19.5244 C   0  0  0  0  0  0
  -34.3610  -18.8927   22.3924 C   0  0  0  0  0  0
  -29.2340  -21.2875   20.6643 N   0  0  0  0  0  0
  -29.9336  -15.9911   20.6557 N   0  0  0  0  0  0
  -28.1237  -20.9633   22.7497 O   0  0  0  0  0  0
  -29.9762  -22.2883   18.6159 O   0  0  0  0  0  0
  -31.4684  -12.5997   19.1776 H   0  0  0  0  0  0
  -30.3722  -11.5259   19.9948 H   0  0  0  0  0  0
  -29.8056  -11.7265   17.5447 H   0  0  0  0  0  0
  -29.6265  -13.4556   17.7127 H   0  0  0  0  0  0
  -27.9186  -11.2781   18.9530 H   0  0  0  0  0  0
  -27.3791  -12.4843   17.8131 H   0  0  0  0  0  0
  -27.6195  -14.2532   19.4395 H   0  0  0  0  0  0
  -28.7323  -12.2490   21.4639 H   0  0  0  0  0  0
  -28.4104  -13.9407   21.7632 H   0  0  0  0  0  0
  -25.2784   -9.5675   22.4758 H   0  0  0  0  0  0
  -24.0008   -7.4634   22.7479 H   0  0  0  0  0  0
  -21.0858   -8.8787   19.8952 H   0  0  0  0  0  0
  -22.3733  -10.9675   19.6159 H   0  0  0  0  0  0
  -21.2011   -7.6154   23.9715 H   0  0  0  0  0  0
  -21.1475   -6.0527   25.9078 H   0  0  0  0  0  0
  -22.0599   -2.7608   23.2847 H   0  0  0  0  0  0
  -22.4090  -11.9857   22.4801 H   0  0  0  0  0  0
  -21.1080  -13.1206   22.2636 H   0  0  0  0  0  0
  -24.6506  -15.8486   20.5257 H   0  0  0  0  0  0
  -26.2656  -15.6347   20.0787 H   0  0  0  0  0  0
  -26.7188  -32.5381   23.1068 H   0  0  0  0  0  0
  -25.0124  -33.9706   25.0441 H   0  0  0  0  0  0
  -22.7310  -31.3015   21.3961 H   0  0  0  0  0  0
  -23.3772  -35.9583   23.3283 H   0  0  0  0  0  0
  -24.3597  -36.8902   22.2063 H   0  0  0  0  0  0
  -23.7214  -37.6455   23.6679 H   0  0  0  0  0  0
  -26.1359  -31.5193   20.6198 H   0  0  0  0  0  0
  -26.8562  -30.7984   22.0245 H   0  0  0  0  0  0
  -28.1107  -28.8826   21.2269 H   0  0  0  0  0  0
  -25.8747  -25.8784   19.0470 H   0  0  0  0  0  0
  -23.9548  -27.3149   19.0153 H   0  0  0  0  0  0
  -23.7963  -30.6023   19.4030 H   0  0  0  0  0  0
  -22.7707  -29.2650   19.8340 H   0  0  0  0  0  0
  -25.1312  -36.1902   25.0817 H   0  0  0  0  0  0
  -20.9999  -28.3256   24.1361 H   0  0  0  0  0  0
  -20.5673  -26.2298   23.3619 H   0  0  0  0  0  0
  -21.6648  -26.7426   22.1199 H   0  0  0  0  0  0
  -19.6907  -25.6290   21.1238 H   0  0  0  0  0  0
  -19.6689  -27.3191   20.6741 H   0  0  0  0  0  0
  -17.4212  -26.6680   21.4004 H   0  0  0  0  0  0
  -18.0315  -26.0101   22.9019 H   0  0  0  0  0  0
  -19.7949  -30.7283   24.2242 H   0  0  0  0  0  0
  -17.5027  -31.6270   24.5173 H   0  0  0  0  0  0
  -15.5358  -30.2999   23.7680 H   0  0  0  0  0  0
  -15.8663  -28.0835   22.7070 H   0  0  0  0  0  0
  -24.5915  -30.7086   25.7779 H   0  0  0  0  0  0
  -24.8963  -32.2912   26.4864 H   0  0  0  0  0  0
  -25.8074  -30.8911   27.0222 H   0  0  0  0  0  0
  -26.2979  -29.6716   24.1270 H   0  0  0  0  0  0
  -27.4094  -29.7275   25.4743 H   0  0  0  0  0  0
  -27.8839  -30.4291   23.9469 H   0  0  0  0  0  0
  -27.2680  -33.3654   26.2018 H   0  0  0  0  0  0
  -28.3901  -32.6839   25.0323 H   0  0  0  0  0  0
  -28.0710  -31.8479   26.5442 H   0  0  0  0  0  0
  -28.2587  -38.0100   24.7554 H   0  0  0  0  0  0
  -28.1091  -36.2646   24.6256 H   0  0  0  0  0  0
  -27.2312  -37.1376   25.8864 H   0  0  0  0  0  0
  -20.9403  -29.8813   21.6896 H   0  0  0  0  0  0
  -26.0159  -38.2825   24.1454 H   0  0  0  0  0  0
  -32.4826  -16.9202   20.8610 H   0  0  0  0  0  0
  -27.4162  -23.6505   22.1435 H   0  0  0  0  0  0
  -28.4601  -18.4948   20.5318 H   0  0  0  0  0  0
  -34.0759  -19.7646   19.0182 H   0  0  0  0  0  0
  -35.5812  -19.6718   20.0857 H   0  0  0  0  0  0
  -32.9984  -21.5393   21.5544 H   0  0  0  0  0  0
  -31.4112  -22.2233   21.5808 H   0  0  0  0  0  0
  -32.2413  -22.0069   20.0374 H   0  0  0  0  0  0
  -35.2462  -17.2999   23.5786 H   0  0  0  0  0  0
  -35.5633  -17.1563   21.8548 H   0  0  0  0  0  0
  -33.9768  -16.7412   22.5053 H   0  0  0  0  0  0
  -27.5823  -24.8465   18.8063 H   0  0  0  0  0  0
  -29.2535  -25.1025   18.8787 H   0  0  0  0  0  0
  -33.6705  -19.2115   23.1754 H   0  0  0  0  0  0
  -35.2456  -19.5233   22.5016 H   0  0  0  0  0  0
  -28.9434  -15.8496   20.7887 H   0  0  0  0  0  0
  -27.5128  -21.4326   23.3109 H   0  0  0  0  0  0
  -29.9804  -23.1305   18.1748 H   0  0  0  0  0  0
  1 25  1  0  0  0
  1 30  2  0  0  0
  1 88  1  0  0  0
  2  3  1  0  0  0
  2 25  1  0  0  0
  2 91  1  0  0  0
  2 92  1  0  0  0
  3  4  1  0  0  0
  3 93  1  0  0  0
  3 94  1  0  0  0
  4  5  1  0  0  0
  4 95  1  0  0  0
  4 96  1  0  0  0
  5  6  1  0  0  0
  5 26  1  0  0  0
  5 97  1  0  0  0
  6 25  1  0  0  0
  6 98  1  0  0  0
  6 99  1  0  0  0
  7  8  2  0  0  0
  7 26  1  0  0  0
  7 29  1  0  0  0
  8  9  1  0  0  0
  8 22  1  0  0  0
  9 10  1  0  0  0
  9 27  2  0  0  0
 10 11  2  0  0  0
 10 15  1  0  0  0
 11 12  1  0  0  0
 11100  1  0  0  0
 12 13  2  0  0  0
 12101  1  0  0  0
 13 14  1  0  0  0
 13 31  1  0  0  0
 14 15  2  0  0  0
 14102  1  0  0  0
 15103  1  0  0  0
 16 17  2  0  0  0
 16 21  1  0  0  0
 16 31  1  0  0  0
 17 18  1  0  0  0
 17104  1  0  0  0
 18 19  2  0  0  0
 18105  1  0  0  0
 19 20  1  0  0  0
 19 24  1  0  0  0
 20 21  2  0  0  0
 20106  1  0  0  0
 21 23  1  0  0  0
 22 28  1  0  0  0
 22 32  2  0  0  0
 26 27  1  0  0  0
 28107  1  0  0  0
 28108  1  0  0  0
 29109  1  0  0  0
 29110  1  0  0  0
 33 34  1  0  0  0
 33 66  1  0  0  0
 33 70  2  0  0  0
 34 36  1  0  0  0
 34 59  1  0  0  0
 34111  1  0  0  0
 35 44  2  0  0  0
 35 45  1  0  0  0
 35 68  1  0  0  0
 36 56  1  0  0  0
 36112  1  0  0  0
 37 39  1  0  0  0
 37 47  1  0  0  0
 37 66  1  0  0  0
 37113  1  0  0  0
 38 43  2  0  0  0
 38 46  1  0  0  0
 38 47  1  0  0  0
 39 64  1  0  0  0
 39 67  2  0  0  0
 40 52  1  0  0  0
 40 53  2  0  0  0
 40 58  1  0  0  0
 41114  1  0  0  0
 41115  1  0  0  0
 41116  1  0  0  0
 41 48  1  0  0  0
 42 43  1  0  0  0
 42 66  1  0  0  0
 42117  1  0  0  0
 42118  1  0  0  0
 43 44  1  0  0  0
 44119  1  0  0  0
 45 46  2  0  0  0
 45120  1  0  0  0
 46121  1  0  0  0
 47122  1  0  0  0
 47123  1  0  0  0
 48 56  1  0  0  0
 48 65  1  0  0  0
 48124  1  0  0  0
 49 50  1  0  0  0
 49 53  1  0  0  0
 49 64  1  0  0  0
 49125  1  0  0  0
 50 51  1  0  0  0
 50126  1  0  0  0
 50127  1  0  0  0
 51 52  1  0  0  0
 51128  1  0  0  0
 51129  1  0  0  0
 52130  1  0  0  0
 52131  1  0  0  0
 53 54  1  0  0  0
 54 55  2  0  0  0
 54132  1  0  0  0
 55 57  1  0  0  0
 55133  1  0  0  0
 56 69  2  0  0  0
 57 58  2  0  0  0
 57134  1  0  0  0
 58135  1  0  0  0
 59 60  1  0  0  0
 59 61  1  0  0  0
 59 62  1  0  0  0
 60136  1  0  0  0
 60137  1  0  0  0
 60138  1  0  0  0
 61139  1  0  0  0
 61140  1  0  0  0
 61141  1  0  0  0
 62142  1  0  0  0
 62143  1  0  0  0
 62144  1  0  0  0
 63 65  1  0  0  0
 63145  1  0  0  0
 63146  1  0  0  0
 63147  1  0  0  0
 64148  1  0  0  0
 65149  1  0  0  0
 68 85  1  0  0  0
 71 74  2  0  0  0
 71 78  1  0  0  0
 71150  1  0  0  0
 72 75  1  0  0  0
 72 79  2  0  0  0
 72151  1  0  0  0
 73 77  1  0  0  0
 73 78  2  0  0  0
 73152  1  0  0  0
 74 76  1  0  0  0
 74 82  1  0  0  0
 75 80  2  0  0  0
 75 85  1  0  0  0
 76 77  2  0  0  0
 76 83  1  0  0  0
 77 87  1  0  0  0
 78 88  1  0  0  0
 79 87  1  0  0  0
 79 89  1  0  0  0
 80 87  1  0  0  0
 80 90  1  0  0  0
 81 82  2  0  0  0
 81153  1  0  0  0
 81154  1  0  0  0
 82 86  1  0  0  0
 83155  1  0  0  0
 83156  1  0  0  0
 83157  1  0  0  0
 84 86  1  0  0  0
 84158  1  0  0  0
 84159  1  0  0  0
 84160  1  0  0  0
 85161  1  0  0  0
 85162  1  0  0  0
 86163  1  0  0  0
 86164  1  0  0  0
 88165  1  0  0  0
 89166  1  0  0  0
 90167  1  0  0  0
M  ISO  4   1 100  68 101  85 101  88 100
M  END
> <chiral flag>
0

> <version>
0

> <s_m_source_file>
/data/baiqing/PycharmProjects/Reinvent-master-3.2/result/LINK_invent/BTK/process_docking_weight1_custom_product_contain_oxygen_bond_distance_aromatic_linkinvent_7_9_3/rearranged_h_0059.sdf

> <i_m_source_file_index>
68

> <r_mmod_Potential_Energy-OPLS-2005>
294.070983886719

> <r_mmod_Stretch_Energy-OPLS-2005>
155.594650268555

> <r_mmod_Bend_Energy-OPLS-2005>
194.239242553711

> <r_mmod_Torsional_Energy-OPLS-2005>
259.269195556641

> <r_mmod_Improper_Torsional_Energy-OPLS-2005>
6.85046768188477

> <r_mmod_Van_der_Waal_Energy-OPLS-2005>
146.031692504883

> <r_mmod_Electrostatic_Energy-OPLS-2005>
-346.638946533203

> <r_mmod_Solvation_Energy-OPLS-2005>
-229.137298583984

> <b_mmod_Minimization_Converged-OPLS-2005>
0

> <r_mmod_RMS_Derivative-OPLS-2005>
2.10080146789551

$$$$
68
                    3D
 Structure written by MMmdl.
159168  0  0  1  0            999 V2000
  -30.7696  -14.4893   20.5361 C   0  0  0  0  0  0
  -30.4045  -12.3103   19.4442 C   0  0  0  0  0  0
  -29.4818  -12.4778   18.2210 C   0  0  0  0  0  0
  -28.0115  -12.3344   18.6478 C   0  0  0  0  0  0
  -27.6568  -13.2178   19.8736 C   0  0  2  0  0  0
  -28.7053  -13.0799   21.0044 C   0  0  0  0  0  0
  -25.2566  -13.8233   20.5754 C   0  0  0  0  0  0
  -24.1812  -13.0482   20.9236 C   0  0  0  0  0  0
  -24.6401  -11.6965   20.8818 C   0  0  0  0  0  0
  -23.9086  -10.4329   21.0465 C   0  0  0  0  0  0
  -24.3628   -9.4230   21.9230 C   0  0  0  0  0  0
  -23.6305   -8.2260   22.0777 C   0  0  0  0  0  0
  -22.4285   -8.0312   21.3557 C   0  0  0  0  0  0
  -21.9949   -9.0292   20.4646 C   0  0  0  0  0  0
  -22.7286  -10.2169   20.3085 C   0  0  0  0  0  0
  -21.6842   -6.0764   22.5290 C   0  0  0  0  0  0
  -21.4008   -6.5661   23.8233 C   0  0  0  0  0  0
  -21.3659   -5.6807   24.9182 C   0  0  0  0  0  0
  -21.6033   -4.3070   24.7231 C   0  0  0  0  0  0
  -21.8814   -3.8169   23.4347 C   0  0  0  0  0  0
  -21.9187   -4.6987   22.3398 C   0  0  0  0  0  0
  -22.7832  -13.5281   21.1866 C   0  0  0  0  0  0
  -22.1650   -4.2181   21.0973 F   0  0  0  0  0  0
  -21.5627   -3.4540   25.7740 F   0  0  0  0  0  0
  -30.0325  -13.3455   20.4299 N   0  0  0  0  0  0
  -26.3004  -12.9408   20.3443 N   0  0  0  0  0  0
  -25.9325  -11.6562   20.5888 N   0  0  0  0  0  0
  -22.0435  -12.8264   22.0392 N   0  0  0  0  0  0
  -25.4363  -15.1931   20.4142 N   0  0  0  0  0  0
  -31.8950  -14.5630   20.0412 O   0  0  0  0  0  0
  -21.6639   -6.8907   21.4251 O   0  0  0  0  0  0
  -22.3543  -14.5593   20.6722 O   0  0  0  0  0  0
  -24.6184  -31.8632   23.2124 C   0  0  0  0  0  0
  -25.9064  -32.4792   23.8412 C   0  0  1  0  0  0
  -27.2250  -27.3833   20.0950 C   0  0  0  0  0  0
  -25.5893  -33.8586   24.2307 N   0  0  0  0  0  0
  -23.4112  -30.4863   21.5498 C   0  0  2  0  0  0
  -24.8594  -28.9577   20.1049 C   0  0  0  0  0  0
  -22.7453  -29.4600   22.4949 C   0  0  0  0  0  0
  -18.0290  -28.1349   22.8448 C   0  0  0  0  0  0
  -24.1488  -36.7272   23.2647 C   0  0  0  0  0  0
  -25.9471  -30.8058   21.3850 C   0  0  0  0  0  0
  -26.0202  -29.4443   20.7179 C   0  0  0  0  0  0
  -27.2042  -28.6608   20.7155 C   0  0  0  0  0  0
  -26.0452  -26.9379   19.4534 C   0  0  0  0  0  0
  -24.8695  -27.7079   19.4662 C   0  0  0  0  0  0
  -23.6267  -29.8294   20.1614 C   0  0  0  0  0  0
  -25.4111  -36.3086   24.0312 C   0  0  1  0  0  0
  -20.5865  -28.3649   23.1264 C   0  0  2  0  0  0
  -20.6786  -26.9373   22.5406 C   0  0  0  0  0  0
  -19.5776  -26.6330   21.5199 C   0  0  0  0  0  0
  -18.1950  -26.7883   22.1596 C   0  0  0  0  0  0
  -19.1533  -28.8816   23.2841 C   0  0  0  0  0  0
  -18.9499  -30.1426   23.8846 C   0  0  0  0  0  0
  -17.6510  -30.6572   24.0527 C   0  0  0  0  0  0
  -25.9029  -34.9450   23.5112 C   0  0  0  0  0  0
  -16.5387  -29.9066   23.6307 C   0  0  0  0  0  0
  -16.7290  -28.6486   23.0300 C   0  0  0  0  0  0
  -26.4504  -31.6589   25.0763 C   0  0  0  0  0  0
  -25.3758  -31.3693   26.1508 C   0  0  0  0  0  0
  -27.0411  -30.3043   24.6198 C   0  0  0  0  0  0
  -27.6036  -32.4361   25.7555 C   0  0  0  0  0  0
  -27.5575  -37.1793   24.8458 C   0  0  0  0  0  0
  -21.4174  -29.3008   22.3684 N   0  0  0  0  0  0
  -26.4302  -37.3751   23.9380 N   0  0  0  0  0  0
  -24.6759  -31.0678   22.1056 N   0  0  0  0  0  0
  -23.4193  -28.8135   23.3023 O   0  0  0  0  0  0
  -28.3769  -26.6065   20.1421 O   0  0  0  0  0  0
  -26.5621  -34.8923   22.4698 O   0  0  0  0  0  0
  -23.5357  -32.1429   23.7457 O   0  0  0  0  0  0
  -32.8226  -18.2622   21.4420 C   0  0  0  0  0  0
  -32.1618  -17.0266   21.4883 C   0  0  0  0  0  0
  -30.0932  -18.1101   20.8097 C   0  0  0  0  0  0
  -32.1437  -19.4331   21.0513 C   0  0  0  0  0  0
  -30.7455  -19.3868   20.7706 C   0  0  0  0  0  0
  -30.8025  -16.9084   21.1175 C   0  0  0  0  0  0
  -28.8810  -22.1647   19.2207 C   0  0  0  0  0  0
  -29.3489  -22.8166   20.2891 C   0  0  0  0  0  0
  -29.2934  -20.7712   19.2819 C   0  0  0  0  0  0
  -30.0604  -21.8432   21.1965 C   0  0  0  0  0  0
  -32.9954  -20.6845   20.8903 C   0  0  0  0  0  0
  -29.3279  -24.3284   20.5959 C   0  0  0  0  0  0
  -28.2661  -25.1871   19.8588 C   0  0  0  0  0  0
  -30.0153  -20.5888   20.4183 N   0  0  0  0  0  0
  -30.1847  -15.6004   21.0562 N   0  0  0  0  0  0
  -29.0680  -19.9094   18.4267 O   0  0  0  0  0  0
  -31.4497  -12.3636   19.1341 H   0  0  0  0  0  0
  -30.2847  -11.3192   19.8847 H   0  0  0  0  0  0
  -29.7256  -11.7319   17.4629 H   0  0  0  0  0  0
  -29.6405  -13.4527   17.7578 H   0  0  0  0  0  0
  -27.8441  -11.2841   18.8911 H   0  0  0  0  0  0
  -27.3488  -12.5580   17.8122 H   0  0  0  0  0  0
  -27.6843  -14.2521   19.5302 H   0  0  0  0  0  0
  -28.6795  -12.0742   21.4275 H   0  0  0  0  0  0
  -28.4757  -13.7568   21.8284 H   0  0  0  0  0  0
  -25.2765   -9.5688   22.4821 H   0  0  0  0  0  0
  -24.0010   -7.4635   22.7496 H   0  0  0  0  0  0
  -21.0895   -8.8813   19.8923 H   0  0  0  0  0  0
  -22.3777  -10.9713   19.6184 H   0  0  0  0  0  0
  -21.2003   -7.6178   23.9745 H   0  0  0  0  0  0
  -21.1477   -6.0536   25.9096 H   0  0  0  0  0  0
  -22.0593   -2.7637   23.2834 H   0  0  0  0  0  0
  -22.4014  -11.9891   22.4745 H   0  0  0  0  0  0
  -21.1057  -13.1293   22.2583 H   0  0  0  0  0  0
  -24.6851  -15.8657   20.5256 H   0  0  0  0  0  0
  -26.3004  -15.6170   20.1013 H   0  0  0  0  0  0
  -26.7091  -32.5506   23.1111 H   0  0  0  0  0  0
  -25.0052  -33.9693   25.0475 H   0  0  0  0  0  0
  -22.7052  -31.3066   21.4094 H   0  0  0  0  0  0
  -23.3768  -35.9591   23.3322 H   0  0  0  0  0  0
  -24.3560  -36.8890   22.2060 H   0  0  0  0  0  0
  -23.7246  -37.6462   23.6689 H   0  0  0  0  0  0
  -26.0846  -31.5837   20.6343 H   0  0  0  0  0  0
  -26.8245  -30.8393   22.0200 H   0  0  0  0  0  0
  -28.0992  -29.0130   21.2077 H   0  0  0  0  0  0
  -26.0071  -25.9947   18.9286 H   0  0  0  0  0  0
  -23.9811  -27.3336   18.9754 H   0  0  0  0  0  0
  -23.7511  -30.6102   19.4113 H   0  0  0  0  0  0
  -22.7521  -29.2544   19.8600 H   0  0  0  0  0  0
  -25.1294  -36.1952   25.0798 H   0  0  0  0  0  0
  -20.9906  -28.3278   24.1381 H   0  0  0  0  0  0
  -20.5688  -26.2273   23.3627 H   0  0  0  0  0  0
  -21.6660  -26.7413   22.1200 H   0  0  0  0  0  0
  -19.6948  -25.6236   21.1242 H   0  0  0  0  0  0
  -19.6714  -27.3131   20.6739 H   0  0  0  0  0  0
  -17.4202  -26.6580   21.4033 H   0  0  0  0  0  0
  -18.0362  -26.0058   22.9029 H   0  0  0  0  0  0
  -19.8021  -30.7210   24.2167 H   0  0  0  0  0  0
  -17.5116  -31.6241   24.5181 H   0  0  0  0  0  0
  -15.5406  -30.2966   23.7671 H   0  0  0  0  0  0
  -15.8683  -28.0834   22.6954 H   0  0  0  0  0  0
  -24.5916  -30.7038   25.7880 H   0  0  0  0  0  0
  -24.8980  -32.2854   26.5005 H   0  0  0  0  0  0
  -25.8102  -30.8867   27.0264 H   0  0  0  0  0  0
  -26.2993  -29.6726   24.1300 H   0  0  0  0  0  0
  -27.4237  -29.7358   25.4685 H   0  0  0  0  0  0
  -27.8793  -30.4381   23.9344 H   0  0  0  0  0  0
  -27.2573  -33.3654   26.2101 H   0  0  0  0  0  0
  -28.3878  -32.6915   25.0404 H   0  0  0  0  0  0
  -28.0670  -31.8523   26.5526 H   0  0  0  0  0  0
  -28.2565  -38.0129   24.7509 H   0  0  0  0  0  0
  -28.1087  -36.2627   24.6281 H   0  0  0  0  0  0
  -27.2246  -37.1410   25.8855 H   0  0  0  0  0  0
  -20.9385  -29.8735   21.6877 H   0  0  0  0  0  0
  -26.0198  -38.2810   24.1436 H   0  0  0  0  0  0
  -33.8781  -18.2969   21.6757 H   0  0  0  0  0  0
  -32.7431  -16.1563   21.7630 H   0  0  0  0  0  0
  -29.0412  -18.0523   20.5667 H   0  0  0  0  0  0
  -28.3512  -22.6018   18.3888 H   0  0  0  0  0  0
  -29.5275  -21.7216   22.1405 H   0  0  0  0  0  0
  -31.0554  -22.2190   21.4008 H   0  0  0  0  0  0
  -34.0174  -20.4232   20.6075 H   0  0  0  0  0  0
  -33.0487  -21.2338   21.8326 H   0  0  0  0  0  0
  -32.6189  -21.3359   20.1004 H   0  0  0  0  0  0
  -30.3251  -24.7163   20.3884 H   0  0  0  0  0  0
  -29.1815  -24.4508   21.6681 H   0  0  0  0  0  0
  -27.3040  -24.7901   20.1836 H   0  0  0  0  0  0
  -28.3303  -25.0414   18.7796 H   0  0  0  0  0  0
  -29.2127  -15.5224   21.3123 H   0  0  0  0  0  0
  1 25  1  0  0  0
  1 30  2  0  0  0
  1 85  1  0  0  0
  2  3  1  0  0  0
  2 25  1  0  0  0
  2 87  1  0  0  0
  2 88  1  0  0  0
  3  4  1  0  0  0
  3 89  1  0  0  0
  3 90  1  0  0  0
  4  5  1  0  0  0
  4 91  1  0  0  0
  4 92  1  0  0  0
  5  6  1  0  0  0
  5 26  1  0  0  0
  5 93  1  0  0  0
  6 25  1  0  0  0
  6 94  1  0  0  0
  6 95  1  0  0  0
  7  8  2  0  0  0
  7 26  1  0  0  0
  7 29  1  0  0  0
  8  9  1  0  0  0
  8 22  1  0  0  0
  9 10  1  0  0  0
  9 27  2  0  0  0
 10 11  2  0  0  0
 10 15  1  0  0  0
 11 12  1  0  0  0
 11 96  1  0  0  0
 12 13  2  0  0  0
 12 97  1  0  0  0
 13 14  1  0  0  0
 13 31  1  0  0  0
 14 15  2  0  0  0
 14 98  1  0  0  0
 15 99  1  0  0  0
 16 17  2  0  0  0
 16 21  1  0  0  0
 16 31  1  0  0  0
 17 18  1  0  0  0
 17100  1  0  0  0
 18 19  2  0  0  0
 18101  1  0  0  0
 19 20  1  0  0  0
 19 24  1  0  0  0
 20 21  2  0  0  0
 20102  1  0  0  0
 21 23  1  0  0  0
 22 28  1  0  0  0
 22 32  2  0  0  0
 26 27  1  0  0  0
 28103  1  0  0  0
 28104  1  0  0  0
 29105  1  0  0  0
 29106  1  0  0  0
 33 34  1  0  0  0
 33 66  1  0  0  0
 33 70  2  0  0  0
 34 36  1  0  0  0
 34 59  1  0  0  0
 34107  1  0  0  0
 35 44  2  0  0  0
 35 45  1  0  0  0
 35 68  1  0  0  0
 36 56  1  0  0  0
 36108  1  0  0  0
 37 39  1  0  0  0
 37 47  1  0  0  0
 37 66  1  0  0  0
 37109  1  0  0  0
 38 43  2  0  0  0
 38 46  1  0  0  0
 38 47  1  0  0  0
 39 64  1  0  0  0
 39 67  2  0  0  0
 40 52  1  0  0  0
 40 53  2  0  0  0
 40 58  1  0  0  0
 41110  1  0  0  0
 41111  1  0  0  0
 41112  1  0  0  0
 41 48  1  0  0  0
 42 43  1  0  0  0
 42 66  1  0  0  0
 42113  1  0  0  0
 42114  1  0  0  0
 43 44  1  0  0  0
 44115  1  0  0  0
 45 46  2  0  0  0
 45116  1  0  0  0
 46117  1  0  0  0
 47118  1  0  0  0
 47119  1  0  0  0
 48 56  1  0  0  0
 48 65  1  0  0  0
 48120  1  0  0  0
 49 50  1  0  0  0
 49 53  1  0  0  0
 49 64  1  0  0  0
 49121  1  0  0  0
 50 51  1  0  0  0
 50122  1  0  0  0
 50123  1  0  0  0
 51 52  1  0  0  0
 51124  1  0  0  0
 51125  1  0  0  0
 52126  1  0  0  0
 52127  1  0  0  0
 53 54  1  0  0  0
 54 55  2  0  0  0
 54128  1  0  0  0
 55 57  1  0  0  0
 55129  1  0  0  0
 56 69  2  0  0  0
 57 58  2  0  0  0
 57130  1  0  0  0
 58131  1  0  0  0
 59 60  1  0  0  0
 59 61  1  0  0  0
 59 62  1  0  0  0
 60132  1  0  0  0
 60133  1  0  0  0
 60134  1  0  0  0
 61135  1  0  0  0
 61136  1  0  0  0
 61137  1  0  0  0
 62138  1  0  0  0
 62139  1  0  0  0
 62140  1  0  0  0
 63 65  1  0  0  0
 63141  1  0  0  0
 63142  1  0  0  0
 63143  1  0  0  0
 64144  1  0  0  0
 65145  1  0  0  0
 68 83  1  0  0  0
 71 72  2  0  0  0
 71 74  1  0  0  0
 71146  1  0  0  0
 72 76  1  0  0  0
 72147  1  0  0  0
 73 75  1  0  0  0
 73 76  2  0  0  0
 73148  1  0  0  0
 74 75  2  0  0  0
 74 81  1  0  0  0
 75 84  1  0  0  0
 76 85  1  0  0  0
 77 78  2  0  0  0
 77 79  1  0  0  0
 77149  1  0  0  0
 78 80  1  0  0  0
 78 82  1  0  0  0
 79 84  1  0  0  0
 79 86  2  0  0  0
 80 84  1  0  0  0
 80150  1  0  0  0
 80151  1  0  0  0
 81152  1  0  0  0
 81153  1  0  0  0
 81154  1  0  0  0
 82 83  1  0  0  0
 82155  1  0  0  0
 82156  1  0  0  0
 83157  1  0  0  0
 83158  1  0  0  0
 85159  1  0  0  0
M  ISO  4   1 100  68 101  83 101  85 100
M  END
> <chiral flag>
0

> <version>
0

> <s_m_source_file>
/data/baiqing/PycharmProjects/Reinvent-master-3.2/result/LINK_invent/BTK/process_docking_weight1_custom_product_contain_oxygen_bond_distance_aromatic_linkinvent_7_9_3/rearranged_h_0059.sdf

> <i_m_source_file_index>
69

> <r_mmod_Potential_Energy-OPLS-2005>
104.697937011719

> <r_mmod_Stretch_Energy-OPLS-2005>
52.4475593566895

> <r_mmod_Bend_Energy-OPLS-2005>
156.334686279297

> <r_mmod_Torsional_Energy-OPLS-2005>
270.362945556641

> <r_mmod_Improper_Torsional_Energy-OPLS-2005>
3.867027759552

> <r_mmod_Van_der_Waal_Energy-OPLS-2005>
161.344177246094

> <r_mmod_Electrostatic_Energy-OPLS-2005>
-342.930084228516

> <r_mmod_Solvation_Energy-OPLS-2005>
-221.940307617188

> <b_mmod_Minimization_Converged-OPLS-2005>
0

> <r_mmod_RMS_Derivative-OPLS-2005>
4.44915676116943

$$$$
69
                    3D
 Structure written by MMmdl.
157165  0  0  1  0            999 V2000
  -30.6101  -14.7325   20.4669 C   0  0  0  0  0  0
  -30.4390  -12.4494   19.4507 C   0  0  0  0  0  0
  -29.5081  -12.4894   18.2192 C   0  0  0  0  0  0
  -28.0335  -12.3164   18.6402 C   0  0  0  0  0  0
  -27.6377  -13.2231   19.8364 C   0  0  2  0  0  0
  -28.6883  -13.1592   20.9646 C   0  0  0  0  0  0
  -25.2517  -13.8180   20.5698 C   0  0  0  0  0  0
  -24.1804  -13.0434   20.9223 C   0  0  0  0  0  0
  -24.6384  -11.6909   20.8738 C   0  0  0  0  0  0
  -23.9046  -10.4292   21.0390 C   0  0  0  0  0  0
  -24.3601   -9.4211   21.9171 C   0  0  0  0  0  0
  -23.6287   -8.2241   22.0738 C   0  0  0  0  0  0
  -22.4269   -8.0274   21.3526 C   0  0  0  0  0  0
  -21.9900   -9.0240   20.4633 C   0  0  0  0  0  0
  -22.7217  -10.2128   20.3042 C   0  0  0  0  0  0
  -21.6856   -6.0730   22.5285 C   0  0  0  0  0  0
  -21.4013   -6.5635   23.8218 C   0  0  0  0  0  0
  -21.3656   -5.6790   24.9174 C   0  0  0  0  0  0
  -21.6043   -4.3047   24.7230 C   0  0  0  0  0  0
  -21.8819   -3.8140   23.4353 C   0  0  0  0  0  0
  -21.9195   -4.6962   22.3406 C   0  0  0  0  0  0
  -22.7827  -13.5218   21.1889 C   0  0  0  0  0  0
  -22.1660   -4.2146   21.0990 F   0  0  0  0  0  0
  -21.5626   -3.4536   25.7744 F   0  0  0  0  0  0
  -29.9830  -13.5128   20.3700 N   0  0  0  0  0  0
  -26.2914  -12.9360   20.3216 N   0  0  0  0  0  0
  -25.9305  -11.6508   20.5712 N   0  0  0  0  0  0
  -22.0464  -12.8209   22.0444 N   0  0  0  0  0  0
  -25.4188  -15.1915   20.4142 N   0  0  0  0  0  0
  -31.8210  -14.8260   20.2505 O   0  0  0  0  0  0
  -21.6630   -6.8871   21.4241 O   0  0  0  0  0  0
  -22.3515  -14.5517   20.6730 O   0  0  0  0  0  0
  -24.6323  -31.8569   23.1980 C   0  0  0  0  0  0
  -25.9138  -32.4781   23.8332 C   0  0  1  0  0  0
  -27.2143  -27.2503   20.1319 C   0  0  0  0  0  0
  -25.5932  -33.8579   24.2267 N   0  0  0  0  0  0
  -23.4296  -30.4809   21.5423 C   0  0  2  0  0  0
  -24.8758  -28.9314   20.1117 C   0  0  0  0  0  0
  -22.7523  -29.4608   22.4900 C   0  0  0  0  0  0
  -18.0303  -28.1381   22.8504 C   0  0  0  0  0  0
  -24.1488  -36.7256   23.2643 C   0  0  0  0  0  0
  -25.9783  -30.7692   21.3801 C   0  0  0  0  0  0
  -26.0512  -29.3922   20.7187 C   0  0  0  0  0  0
  -27.2243  -28.5663   20.7145 C   0  0  0  0  0  0
  -26.0125  -26.8682   19.4912 C   0  0  0  0  0  0
  -24.8636  -27.6794   19.4867 C   0  0  0  0  0  0
  -23.6474  -29.8193   20.1573 C   0  0  0  0  0  0
  -25.4118  -36.3081   24.0340 C   0  0  1  0  0  0
  -20.5916  -28.3687   23.1271 C   0  0  2  0  0  0
  -20.6786  -26.9396   22.5411 C   0  0  0  0  0  0
  -19.5746  -26.6379   21.5225 C   0  0  0  0  0  0
  -18.1930  -26.7931   22.1642 C   0  0  0  0  0  0
  -19.1563  -28.8851   23.2889 C   0  0  0  0  0  0
  -18.9475  -30.1457   23.8898 C   0  0  0  0  0  0
  -17.6471  -30.6582   24.0562 C   0  0  0  0  0  0
  -25.9053  -34.9451   23.5097 C   0  0  0  0  0  0
  -16.5360  -29.9075   23.6336 C   0  0  0  0  0  0
  -16.7294  -28.6490   23.0369 C   0  0  0  0  0  0
  -26.4491  -31.6609   25.0722 C   0  0  0  0  0  0
  -25.3713  -31.3748   26.1443 C   0  0  0  0  0  0
  -27.0330  -30.3031   24.6200 C   0  0  0  0  0  0
  -27.6049  -32.4353   25.7492 C   0  0  0  0  0  0
  -27.5577  -37.1787   24.8474 C   0  0  0  0  0  0
  -21.4229  -29.3035   22.3657 N   0  0  0  0  0  0
  -26.4291  -37.3780   23.9417 N   0  0  0  0  0  0
  -24.6991  -31.0534   22.0956 N   0  0  0  0  0  0
  -23.4231  -28.8136   23.2988 O   0  0  0  0  0  0
  -28.3034  -26.3408   20.1779 O   0  0  0  0  0  0
  -26.5619  -34.8933   22.4666 O   0  0  0  0  0  0
  -23.5466  -32.1369   23.7279 O   0  0  0  0  0  0
  -30.4932  -17.2942   22.3388 C   0  0  0  0  0  0
  -29.6732  -18.4915   20.3932 C   0  0  0  0  0  0
  -30.6423  -18.5216   23.0213 C   0  0  0  0  0  0
  -30.3411  -19.7595   22.3799 C   0  0  0  0  0  0
  -30.0258  -17.2218   21.0164 C   0  0  0  0  0  0
  -29.8070  -19.7859   21.0536 C   0  0  0  0  0  0
  -28.8321  -22.2099   20.7877 C   0  0  0  0  0  0
  -30.6386  -21.0635   23.1197 C   0  0  0  0  0  0
  -29.1521  -23.6987   20.2717 C   0  0  0  0  0  0
  -28.0154  -24.8582   20.3027 C   0  0  0  0  0  0
  -31.1471  -18.4802   24.4659 C   0  0  0  0  0  0
  -29.5738  -21.1030   20.3883 N   0  0  0  0  0  0
  -29.8050  -15.8642   20.4668 N   0  0  0  0  0  0
  -27.8874  -22.0685   21.5667 O   0  0  0  0  0  0
  -31.3029  -17.2354   24.9197 F   0  0  0  0  0  0
  -30.3056  -19.1123   25.2856 F   0  0  0  0  0  0
  -31.4760  -12.5911   19.1398 H   0  0  0  0  0  0
  -30.3977  -11.4733   19.9361 H   0  0  0  0  0  0
  -29.7892  -11.7112   17.5075 H   0  0  0  0  0  0
  -29.6311  -13.4390   17.6961 H   0  0  0  0  0  0
  -27.8912  -11.2695   18.9119 H   0  0  0  0  0  0
  -27.3753  -12.4946   17.7890 H   0  0  0  0  0  0
  -27.6275  -14.2406   19.4471 H   0  0  0  0  0  0
  -28.7267  -12.1636   21.4092 H   0  0  0  0  0  0
  -28.4298  -13.8490   21.7692 H   0  0  0  0  0  0
  -25.2747   -9.5707   22.4743 H   0  0  0  0  0  0
  -24.0010   -7.4636   22.7459 H   0  0  0  0  0  0
  -21.0836   -8.8752   19.8949 H   0  0  0  0  0  0
  -22.3664  -10.9655   19.6156 H   0  0  0  0  0  0
  -21.1999   -7.6146   23.9722 H   0  0  0  0  0  0
  -21.1474   -6.0515   25.9083 H   0  0  0  0  0  0
  -22.0599   -2.7608   23.2858 H   0  0  0  0  0  0
  -22.4057  -11.9883   22.4874 H   0  0  0  0  0  0
  -21.1064  -13.1217   22.2586 H   0  0  0  0  0  0
  -24.6544  -15.8439   20.5482 H   0  0  0  0  0  0
  -26.2653  -15.6416   20.0927 H   0  0  0  0  0  0
  -26.7210  -32.5435   23.1077 H   0  0  0  0  0  0
  -25.0119  -33.9722   25.0442 H   0  0  0  0  0  0
  -22.7256  -31.3026   21.3980 H   0  0  0  0  0  0
  -23.3775  -35.9560   23.3321 H   0  0  0  0  0  0
  -24.3573  -36.8857   22.2050 H   0  0  0  0  0  0
  -23.7221  -37.6457   23.6646 H   0  0  0  0  0  0
  -26.1230  -31.5356   20.6168 H   0  0  0  0  0  0
  -26.8522  -30.8114   22.0176 H   0  0  0  0  0  0
  -28.1234  -28.9149   21.2028 H   0  0  0  0  0  0
  -25.9178  -25.9228   18.9824 H   0  0  0  0  0  0
  -23.9656  -27.3220   19.0017 H   0  0  0  0  0  0
  -23.7697  -30.5961   19.4010 H   0  0  0  0  0  0
  -22.7659  -29.2534   19.8528 H   0  0  0  0  0  0
  -25.1309  -36.1917   25.0834 H   0  0  0  0  0  0
  -21.0034  -28.3244   24.1385 H   0  0  0  0  0  0
  -20.5682  -26.2282   23.3612 H   0  0  0  0  0  0
  -21.6645  -26.7404   22.1191 H   0  0  0  0  0  0
  -19.6885  -25.6293   21.1237 H   0  0  0  0  0  0
  -19.6676  -27.3210   20.6770 H   0  0  0  0  0  0
  -17.4204  -26.6717   21.4041 H   0  0  0  0  0  0
  -18.0301  -26.0071   22.9028 H   0  0  0  0  0  0
  -19.7945  -30.7286   24.2258 H   0  0  0  0  0  0
  -17.5016  -31.6265   24.5153 H   0  0  0  0  0  0
  -15.5358  -30.2965   23.7654 H   0  0  0  0  0  0
  -15.8705  -28.0796   22.7084 H   0  0  0  0  0  0
  -24.5898  -30.7096   25.7756 H   0  0  0  0  0  0
  -24.8885  -32.2909   26.4852 H   0  0  0  0  0  0
  -25.8030  -30.8931   27.0224 H   0  0  0  0  0  0
  -26.2907  -29.6813   24.1188 H   0  0  0  0  0  0
  -27.3979  -29.7269   25.4707 H   0  0  0  0  0  0
  -27.8807  -30.4321   23.9471 H   0  0  0  0  0  0
  -27.2663  -33.3667   26.2040 H   0  0  0  0  0  0
  -28.3863  -32.6900   25.0319 H   0  0  0  0  0  0
  -28.0712  -31.8501   26.5426 H   0  0  0  0  0  0
  -28.2610  -38.0070   24.7531 H   0  0  0  0  0  0
  -28.1069  -36.2611   24.6309 H   0  0  0  0  0  0
  -27.2291  -37.1437   25.8876 H   0  0  0  0  0  0
  -20.9399  -29.8763   21.6872 H   0  0  0  0  0  0
  -26.0175  -38.2854   24.1430 H   0  0  0  0  0  0
  -30.7174  -16.3729   22.8566 H   0  0  0  0  0  0
  -29.2956  -18.4727   19.3811 H   0  0  0  0  0  0
  -29.7256  -21.4706   23.5554 H   0  0  0  0  0  0
  -31.0641  -21.8082   22.4482 H   0  0  0  0  0  0
  -31.3632  -20.9554   23.9243 H   0  0  0  0  0  0
  -29.5537  -23.6221   19.2624 H   0  0  0  0  0  0
  -29.9805  -24.0409   20.8909 H   0  0  0  0  0  0
  -27.4387  -24.7389   21.2211 H   0  0  0  0  0  0
  -27.3436  -24.5601   19.5018 H   0  0  0  0  0  0
  -32.1267  -18.9516   24.5504 H   0  0  0  0  0  0
  -30.1810  -21.2827   19.6001 H   0  0  0  0  0  0
  -28.8462  -15.6655   20.2270 H   0  0  0  0  0  0
  1 25  1  0  0  0
  1 30  2  0  0  0
  1 83  1  0  0  0
  2  3  1  0  0  0
  2 25  1  0  0  0
  2 87  1  0  0  0
  2 88  1  0  0  0
  3  4  1  0  0  0
  3 89  1  0  0  0
  3 90  1  0  0  0
  4  5  1  0  0  0
  4 91  1  0  0  0
  4 92  1  0  0  0
  5  6  1  0  0  0
  5 26  1  0  0  0
  5 93  1  0  0  0
  6 25  1  0  0  0
  6 94  1  0  0  0
  6 95  1  0  0  0
  7  8  2  0  0  0
  7 26  1  0  0  0
  7 29  1  0  0  0
  8  9  1  0  0  0
  8 22  1  0  0  0
  9 10  1  0  0  0
  9 27  2  0  0  0
 10 11  2  0  0  0
 10 15  1  0  0  0
 11 12  1  0  0  0
 11 96  1  0  0  0
 12 13  2  0  0  0
 12 97  1  0  0  0
 13 14  1  0  0  0
 13 31  1  0  0  0
 14 15  2  0  0  0
 14 98  1  0  0  0
 15 99  1  0  0  0
 16 17  2  0  0  0
 16 21  1  0  0  0
 16 31  1  0  0  0
 17 18  1  0  0  0
 17100  1  0  0  0
 18 19  2  0  0  0
 18101  1  0  0  0
 19 20  1  0  0  0
 19 24  1  0  0  0
 20 21  2  0  0  0
 20102  1  0  0  0
 21 23  1  0  0  0
 22 28  1  0  0  0
 22 32  2  0  0  0
 26 27  1  0  0  0
 28103  1  0  0  0
 28104  1  0  0  0
 29105  1  0  0  0
 29106  1  0  0  0
 33 34  1  0  0  0
 33 66  1  0  0  0
 33 70  2  0  0  0
 34 36  1  0  0  0
 34 59  1  0  0  0
 34107  1  0  0  0
 35 44  2  0  0  0
 35 45  1  0  0  0
 35 68  1  0  0  0
 36 56  1  0  0  0
 36108  1  0  0  0
 37 39  1  0  0  0
 37 47  1  0  0  0
 37 66  1  0  0  0
 37109  1  0  0  0
 38 43  2  0  0  0
 38 46  1  0  0  0
 38 47  1  0  0  0
 39 64  1  0  0  0
 39 67  2  0  0  0
 40 52  1  0  0  0
 40 53  2  0  0  0
 40 58  1  0  0  0
 41110  1  0  0  0
 41111  1  0  0  0
 41112  1  0  0  0
 41 48  1  0  0  0
 42 43  1  0  0  0
 42 66  1  0  0  0
 42113  1  0  0  0
 42114  1  0  0  0
 43 44  1  0  0  0
 44115  1  0  0  0
 45 46  2  0  0  0
 45116  1  0  0  0
 46117  1  0  0  0
 47118  1  0  0  0
 47119  1  0  0  0
 48 56  1  0  0  0
 48 65  1  0  0  0
 48120  1  0  0  0
 49 50  1  0  0  0
 49 53  1  0  0  0
 49 64  1  0  0  0
 49121  1  0  0  0
 50 51  1  0  0  0
 50122  1  0  0  0
 50123  1  0  0  0
 51 52  1  0  0  0
 51124  1  0  0  0
 51125  1  0  0  0
 52126  1  0  0  0
 52127  1  0  0  0
 53 54  1  0  0  0
 54 55  2  0  0  0
 54128  1  0  0  0
 55 57  1  0  0  0
 55129  1  0  0  0
 56 69  2  0  0  0
 57 58  2  0  0  0
 57130  1  0  0  0
 58131  1  0  0  0
 59 60  1  0  0  0
 59 61  1  0  0  0
 59 62  1  0  0  0
 60132  1  0  0  0
 60133  1  0  0  0
 60134  1  0  0  0
 61135  1  0  0  0
 61136  1  0  0  0
 61137  1  0  0  0
 62138  1  0  0  0
 62139  1  0  0  0
 62140  1  0  0  0
 63 65  1  0  0  0
 63141  1  0  0  0
 63142  1  0  0  0
 63143  1  0  0  0
 64144  1  0  0  0
 65145  1  0  0  0
 68 80  1  0  0  0
 71 73  2  0  0  0
 71 75  1  0  0  0
 71146  1  0  0  0
 72 75  2  0  0  0
 72 76  1  0  0  0
 72147  1  0  0  0
 73 74  1  0  0  0
 73 81  1  0  0  0
 74 76  2  0  0  0
 74 78  1  0  0  0
 75 83  1  0  0  0
 76 82  1  0  0  0
 77 79  1  0  0  0
 77 82  1  0  0  0
 77 84  2  0  0  0
 78148  1  0  0  0
 78149  1  0  0  0
 78150  1  0  0  0
 79 80  1  0  0  0
 79151  1  0  0  0
 79152  1  0  0  0
 80153  1  0  0  0
 80154  1  0  0  0
 81 85  1  0  0  0
 81 86  1  0  0  0
 81155  1  0  0  0
 82156  1  0  0  0
 83157  1  0  0  0
M  ISO  4   1 100  68 101  80 101  83 100
M  END
> <chiral flag>
0

> <version>
0

> <s_m_source_file>
/data/baiqing/PycharmProjects/Reinvent-master-3.2/result/LINK_invent/BTK/process_docking_weight1_custom_product_contain_oxygen_bond_distance_aromatic_linkinvent_7_9_3/rearranged_h_0059.sdf

> <i_m_source_file_index>
70

> <r_mmod_Potential_Energy-OPLS-2005>
183.889282226562

> <r_mmod_Stretch_Energy-OPLS-2005>
130.085922241211

> <r_mmod_Bend_Energy-OPLS-2005>
161.606994628906

> <r_mmod_Torsional_Energy-OPLS-2005>
283.386199951172

> <r_mmod_Improper_Torsional_Energy-OPLS-2005>
10.4432353973389

> <r_mmod_Van_der_Waal_Energy-OPLS-2005>
149.58512878418

> <r_mmod_Electrostatic_Energy-OPLS-2005>
-403.036499023438

> <r_mmod_Solvation_Energy-OPLS-2005>
-237.91291809082

> <b_mmod_Minimization_Converged-OPLS-2005>
0

> <r_mmod_RMS_Derivative-OPLS-2005>
2.13393974304199

$$$$
70
                    3D
 Structure written by MMmdl.
171180  0  0  1  0            999 V2000
  -30.6832  -14.4918   20.5485 C   0  0  0  0  0  0
  -30.4276  -12.3116   19.4294 C   0  0  0  0  0  0
  -29.4978  -12.5118   18.2138 C   0  0  0  0  0  0
  -28.0181  -12.3619   18.6224 C   0  0  0  0  0  0
  -27.6598  -13.1826   19.8890 C   0  0  2  0  0  0
  -28.7085  -12.9812   21.0070 C   0  0  0  0  0  0
  -25.2592  -13.8083   20.5717 C   0  0  0  0  0  0
  -24.1816  -13.0392   20.9181 C   0  0  0  0  0  0
  -24.6347  -11.6854   20.8756 C   0  0  0  0  0  0
  -23.9016  -10.4264   21.0428 C   0  0  0  0  0  0
  -24.3584   -9.4184   21.9198 C   0  0  0  0  0  0
  -23.6266   -8.2222   22.0758 C   0  0  0  0  0  0
  -22.4244   -8.0266   21.3551 C   0  0  0  0  0  0
  -21.9879   -9.0237   20.4654 C   0  0  0  0  0  0
  -22.7204  -10.2112   20.3064 C   0  0  0  0  0  0
  -21.6841   -6.0720   22.5277 C   0  0  0  0  0  0
  -21.4010   -6.5631   23.8206 C   0  0  0  0  0  0
  -21.3659   -5.6784   24.9173 C   0  0  0  0  0  0
  -21.6042   -4.3047   24.7224 C   0  0  0  0  0  0
  -21.8820   -3.8139   23.4347 C   0  0  0  0  0  0
  -21.9191   -4.6954   22.3400 C   0  0  0  0  0  0
  -22.7849  -13.5232   21.1839 C   0  0  0  0  0  0
  -22.1658   -4.2148   21.0977 F   0  0  0  0  0  0
  -21.5636   -3.4526   25.7735 F   0  0  0  0  0  0
  -30.0397  -13.2950   20.4531 N   0  0  0  0  0  0
  -26.3006  -12.9190   20.3459 N   0  0  0  0  0  0
  -25.9268  -11.6381   20.5816 N   0  0  0  0  0  0
  -22.0460  -12.8246   22.0394 N   0  0  0  0  0  0
  -25.4328  -15.1805   20.4149 N   0  0  0  0  0  0
  -31.8048  -14.6949   20.0726 O   0  0  0  0  0  0
  -21.6624   -6.8857   21.4234 O   0  0  0  0  0  0
  -22.3576  -14.5551   20.6685 O   0  0  0  0  0  0
  -24.6120  -31.8677   23.2109 C   0  0  0  0  0  0
  -25.9019  -32.4820   23.8402 C   0  0  1  0  0  0
  -27.2441  -27.4475   20.0875 C   0  0  0  0  0  0
  -25.5881  -33.8619   24.2331 N   0  0  0  0  0  0
  -23.4003  -30.4900   21.5483 C   0  0  2  0  0  0
  -24.8485  -28.9546   20.1116 C   0  0  0  0  0  0
  -22.7400  -29.4645   22.4972 C   0  0  0  0  0  0
  -18.0268  -28.1372   22.8486 C   0  0  0  0  0  0
  -24.1473  -36.7303   23.2640 C   0  0  0  0  0  0
  -25.9263  -30.8340   21.3645 C   0  0  0  0  0  0
  -26.0027  -29.4679   20.7137 C   0  0  0  0  0  0
  -27.1958  -28.7152   20.7092 C   0  0  0  0  0  0
  -26.0695  -26.9385   19.4881 C   0  0  0  0  0  0
  -24.8749  -27.6874   19.5001 C   0  0  0  0  0  0
  -23.6102  -29.8214   20.1620 C   0  0  0  0  0  0
  -25.4093  -36.3105   24.0345 C   0  0  1  0  0  0
  -20.5858  -28.3652   23.1313 C   0  0  2  0  0  0
  -20.6751  -26.9387   22.5416 C   0  0  0  0  0  0
  -19.5733  -26.6380   21.5201 C   0  0  0  0  0  0
  -18.1912  -26.7923   22.1615 C   0  0  0  0  0  0
  -19.1520  -28.8828   23.2902 C   0  0  0  0  0  0
  -18.9451  -30.1430   23.8920 C   0  0  0  0  0  0
  -17.6457  -30.6579   24.0568 C   0  0  0  0  0  0
  -25.9023  -34.9473   23.5140 C   0  0  0  0  0  0
  -16.5347  -29.9086   23.6322 C   0  0  0  0  0  0
  -16.7260  -28.6501   23.0345 C   0  0  0  0  0  0
  -26.4464  -31.6600   25.0724 C   0  0  0  0  0  0
  -25.3747  -31.3700   26.1487 C   0  0  0  0  0  0
  -27.0294  -30.3048   24.6090 C   0  0  0  0  0  0
  -27.6050  -32.4318   25.7475 C   0  0  0  0  0  0
  -27.5573  -37.1798   24.8462 C   0  0  0  0  0  0
  -21.4128  -29.3020   22.3717 N   0  0  0  0  0  0
  -26.4274  -37.3796   23.9423 N   0  0  0  0  0  0
  -24.6637  -31.0792   22.0998 N   0  0  0  0  0  0
  -23.4176  -28.8188   23.3011 O   0  0  0  0  0  0
  -28.4363  -26.7575   20.1308 O   0  0  0  0  0  0
  -26.5592  -34.8926   22.4702 O   0  0  0  0  0  0
  -23.5315  -32.1424   23.7510 O   0  0  0  0  0  0
  -28.9601  -19.2596   19.4408 C   0  0  0  0  0  0
  -28.8440  -16.8441   19.4057 C   0  0  0  0  0  0
  -30.2800  -17.9590   21.0244 C   0  0  0  0  0  0
  -28.4224  -18.0823   18.8913 C   0  0  0  0  0  0
  -29.9141  -19.2213   20.4830 C   0  0  0  0  0  0
  -29.7403  -16.7593   20.4937 C   0  0  0  0  0  0
  -30.3185  -22.2045   19.2217 C   0  0  0  0  0  0
  -27.4021  -18.0961   17.8240 C   0  0  0  0  0  0
  -26.4012  -18.9821   17.6234 C   0  0  0  0  0  0
  -29.6339  -23.4603   18.6462 C   0  0  0  0  0  0
  -29.3266  -24.1648   21.0558 C   0  0  0  0  0  0
  -29.3508  -22.6720   21.4544 C   0  0  0  0  0  0
  -28.7987  -24.3281   19.6237 C   0  0  1  0  0  0
  -25.4801  -18.8678   16.4241 C   0  0  0  0  0  0
  -26.0799  -20.1584   18.5326 C   0  0  0  0  0  0
  -30.5551  -20.5134   21.0280 C   0  0  0  0  0  0
  -28.7652  -25.8002   19.1236 C   0  0  0  0  0  0
  -30.0625  -21.8094   20.4938 N   0  0  0  0  0  0
  -29.9683  -15.4878   21.1056 N   0  0  0  0  0  0
  -31.0658  -21.5682   18.4729 O   0  0  0  0  0  0
  -31.4729  -12.4107   19.1305 H   0  0  0  0  0  0
  -30.3272  -11.3006   19.8257 H   0  0  0  0  0  0
  -29.7428  -11.7964   17.4279 H   0  0  0  0  0  0
  -29.6632  -13.5020   17.7858 H   0  0  0  0  0  0
  -27.8259  -11.3034   18.8014 H   0  0  0  0  0  0
  -27.3718  -12.6522   17.7927 H   0  0  0  0  0  0
  -27.6818  -14.2220   19.6004 H   0  0  0  0  0  0
  -28.6924  -11.9476   21.3548 H   0  0  0  0  0  0
  -28.4648  -13.5833   21.8836 H   0  0  0  0  0  0
  -25.2732   -9.5666   22.4773 H   0  0  0  0  0  0
  -23.9986   -7.4605   22.7458 H   0  0  0  0  0  0
  -21.0818   -8.8742   19.8953 H   0  0  0  0  0  0
  -22.3663  -10.9652   19.6172 H   0  0  0  0  0  0
  -21.1995   -7.6137   23.9709 H   0  0  0  0  0  0
  -21.1487   -6.0516   25.9076 H   0  0  0  0  0  0
  -22.0604   -2.7602   23.2839 H   0  0  0  0  0  0
  -22.4052  -11.9911   22.4814 H   0  0  0  0  0  0
  -21.1083  -13.1295   22.2593 H   0  0  0  0  0  0
  -24.6664  -15.8348   20.5287 H   0  0  0  0  0  0
  -26.2879  -15.6285   20.1147 H   0  0  0  0  0  0
  -26.7087  -32.5538   23.1165 H   0  0  0  0  0  0
  -25.0026  -33.9786   25.0473 H   0  0  0  0  0  0
  -22.6879  -31.3058   21.4084 H   0  0  0  0  0  0
  -23.3745  -35.9626   23.3301 H   0  0  0  0  0  0
  -24.3571  -36.8922   22.2055 H   0  0  0  0  0  0
  -23.7219  -37.6504   23.6656 H   0  0  0  0  0  0
  -26.0390  -31.5998   20.5957 H   0  0  0  0  0  0
  -26.8146  -30.8891   21.9821 H   0  0  0  0  0  0
  -28.0870  -29.1070   21.1788 H   0  0  0  0  0  0
  -26.0597  -25.9618   19.0272 H   0  0  0  0  0  0
  -23.9840  -27.2843   19.0386 H   0  0  0  0  0  0
  -23.7224  -30.5970   19.4032 H   0  0  0  0  0  0
  -22.7348  -29.2425   19.8627 H   0  0  0  0  0  0
  -25.1265  -36.1966   25.0838 H   0  0  0  0  0  0
  -20.9952  -28.3221   24.1431 H   0  0  0  0  0  0
  -20.5619  -26.2264   23.3602 H   0  0  0  0  0  0
  -21.6630  -26.7407   22.1234 H   0  0  0  0  0  0
  -19.6893  -25.6295   21.1218 H   0  0  0  0  0  0
  -19.6675  -27.3203   20.6741 H   0  0  0  0  0  0
  -17.4178  -26.6665   21.4021 H   0  0  0  0  0  0
  -18.0318  -26.0064   22.9009 H   0  0  0  0  0  0
  -19.7932  -30.7227   24.2311 H   0  0  0  0  0  0
  -17.5018  -31.6264   24.5165 H   0  0  0  0  0  0
  -15.5348  -30.2995   23.7631 H   0  0  0  0  0  0
  -15.8661  -28.0822   22.7055 H   0  0  0  0  0  0
  -24.5908  -30.7056   25.7832 H   0  0  0  0  0  0
  -24.8951  -32.2853   26.4965 H   0  0  0  0  0  0
  -25.8117  -30.8850   27.0225 H   0  0  0  0  0  0
  -26.2828  -29.6807   24.1164 H   0  0  0  0  0  0
  -27.4097  -29.7285   25.4535 H   0  0  0  0  0  0
  -27.8649  -30.4375   23.9213 H   0  0  0  0  0  0
  -27.2679  -33.3608   26.2085 H   0  0  0  0  0  0
  -28.3836  -32.6896   25.0283 H   0  0  0  0  0  0
  -28.0745  -31.8427   26.5362 H   0  0  0  0  0  0
  -28.2584  -38.0101   24.7537 H   0  0  0  0  0  0
  -28.1076  -36.2645   24.6240 H   0  0  0  0  0  0
  -27.2309  -37.1404   25.8868 H   0  0  0  0  0  0
  -20.9277  -29.8740   21.6947 H   0  0  0  0  0  0
  -26.0161  -38.2864   24.1464 H   0  0  0  0  0  0
  -28.6433  -20.1993   19.0209 H   0  0  0  0  0  0
  -28.4362  -15.9594   18.9546 H   0  0  0  0  0  0
  -30.9707  -17.9141   21.8555 H   0  0  0  0  0  0
  -27.5052  -17.2948   17.1043 H   0  0  0  0  0  0
  -29.0062  -23.1572   17.8081 H   0  0  0  0  0  0
  -30.4378  -24.0560   18.2150 H   0  0  0  0  0  0
  -30.3249  -24.5982   21.1396 H   0  0  0  0  0  0
  -28.6929  -24.7167   21.7521 H   0  0  0  0  0  0
  -28.3321  -22.2956   21.5525 H   0  0  0  0  0  0
  -29.8073  -22.5886   22.4422 H   0  0  0  0  0  0
  -27.7728  -23.9562   19.6249 H   0  0  0  0  0  0
  -25.7172  -17.9994   15.8080 H   0  0  0  0  0  0
  -25.5556  -19.7583   15.7995 H   0  0  0  0  0  0
  -24.4445  -18.7702   16.7511 H   0  0  0  0  0  0
  -26.4161  -19.9879   19.5548 H   0  0  0  0  0  0
  -25.0030  -20.3219   18.5822 H   0  0  0  0  0  0
  -26.5437  -21.0708   18.1539 H   0  0  0  0  0  0
  -31.6299  -20.4558   20.8462 H   0  0  0  0  0  0
  -30.4496  -20.4933   22.1131 H   0  0  0  0  0  0
  -28.1467  -25.8922   18.2300 H   0  0  0  0  0  0
  -29.7639  -26.0890   18.7958 H   0  0  0  0  0  0
  -29.1631  -15.1298   21.5982 H   0  0  0  0  0  0
  1 25  1  0  0  0
  1 30  2  0  0  0
  1 89  1  0  0  0
  2  3  1  0  0  0
  2 25  1  0  0  0
  2 91  1  0  0  0
  2 92  1  0  0  0
  3  4  1  0  0  0
  3 93  1  0  0  0
  3 94  1  0  0  0
  4  5  1  0  0  0
  4 95  1  0  0  0
  4 96  1  0  0  0
  5  6  1  0  0  0
  5 26  1  0  0  0
  5 97  1  0  0  0
  6 25  1  0  0  0
  6 98  1  0  0  0
  6 99  1  0  0  0
  7  8  2  0  0  0
  7 26  1  0  0  0
  7 29  1  0  0  0
  8  9  1  0  0  0
  8 22  1  0  0  0
  9 10  1  0  0  0
  9 27  2  0  0  0
 10 11  2  0  0  0
 10 15  1  0  0  0
 11 12  1  0  0  0
 11100  1  0  0  0
 12 13  2  0  0  0
 12101  1  0  0  0
 13 14  1  0  0  0
 13 31  1  0  0  0
 14 15  2  0  0  0
 14102  1  0  0  0
 15103  1  0  0  0
 16 17  2  0  0  0
 16 21  1  0  0  0
 16 31  1  0  0  0
 17 18  1  0  0  0
 17104  1  0  0  0
 18 19  2  0  0  0
 18105  1  0  0  0
 19 20  1  0  0  0
 19 24  1  0  0  0
 20 21  2  0  0  0
 20106  1  0  0  0
 21 23  1  0  0  0
 22 28  1  0  0  0
 22 32  2  0  0  0
 26 27  1  0  0  0
 28107  1  0  0  0
 28108  1  0  0  0
 29109  1  0  0  0
 29110  1  0  0  0
 33 34  1  0  0  0
 33 66  1  0  0  0
 33 70  2  0  0  0
 34 36  1  0  0  0
 34 59  1  0  0  0
 34111  1  0  0  0
 35 44  2  0  0  0
 35 45  1  0  0  0
 35 68  1  0  0  0
 36 56  1  0  0  0
 36112  1  0  0  0
 37 39  1  0  0  0
 37 47  1  0  0  0
 37 66  1  0  0  0
 37113  1  0  0  0
 38 43  2  0  0  0
 38 46  1  0  0  0
 38 47  1  0  0  0
 39 64  1  0  0  0
 39 67  2  0  0  0
 40 52  1  0  0  0
 40 53  2  0  0  0
 40 58  1  0  0  0
 41114  1  0  0  0
 41115  1  0  0  0
 41116  1  0  0  0
 41 48  1  0  0  0
 42 43  1  0  0  0
 42 66  1  0  0  0
 42117  1  0  0  0
 42118  1  0  0  0
 43 44  1  0  0  0
 44119  1  0  0  0
 45 46  2  0  0  0
 45120  1  0  0  0
 46121  1  0  0  0
 47122  1  0  0  0
 47123  1  0  0  0
 48 56  1  0  0  0
 48 65  1  0  0  0
 48124  1  0  0  0
 49 50  1  0  0  0
 49 53  1  0  0  0
 49 64  1  0  0  0
 49125  1  0  0  0
 50 51  1  0  0  0
 50126  1  0  0  0
 50127  1  0  0  0
 51 52  1  0  0  0
 51128  1  0  0  0
 51129  1  0  0  0
 52130  1  0  0  0
 52131  1  0  0  0
 53 54  1  0  0  0
 54 55  2  0  0  0
 54132  1  0  0  0
 55 57  1  0  0  0
 55133  1  0  0  0
 56 69  2  0  0  0
 57 58  2  0  0  0
 57134  1  0  0  0
 58135  1  0  0  0
 59 60  1  0  0  0
 59 61  1  0  0  0
 59 62  1  0  0  0
 60136  1  0  0  0
 60137  1  0  0  0
 60138  1  0  0  0
 61139  1  0  0  0
 61140  1  0  0  0
 61141  1  0  0  0
 62142  1  0  0  0
 62143  1  0  0  0
 62144  1  0  0  0
 63 65  1  0  0  0
 63145  1  0  0  0
 63146  1  0  0  0
 63147  1  0  0  0
 64148  1  0  0  0
 65149  1  0  0  0
 68 87  1  0  0  0
 71 74  2  0  0  0
 71 75  1  0  0  0
 71150  1  0  0  0
 72 74  1  0  0  0
 72 76  2  0  0  0
 72151  1  0  0  0
 73 75  2  0  0  0
 73 76  1  0  0  0
 73152  1  0  0  0
 74 78  1  0  0  0
 75 86  1  0  0  0
 76 89  1  0  0  0
 77 80  1  0  0  0
 77 88  1  0  0  0
 77 90  2  0  0  0
 78 79  2  0  0  0
 78153  1  0  0  0
 79 84  1  0  0  0
 79 85  1  0  0  0
 80 83  1  0  0  0
 80154  1  0  0  0
 80155  1  0  0  0
 81 82  1  0  0  0
 81 83  1  0  0  0
 81156  1  0  0  0
 81157  1  0  0  0
 82 88  1  0  0  0
 82158  1  0  0  0
 82159  1  0  0  0
 83 87  1  0  0  0
 83160  1  0  0  0
 84161  1  0  0  0
 84162  1  0  0  0
 84163  1  0  0  0
 85164  1  0  0  0
 85165  1  0  0  0
 85166  1  0  0  0
 86 88  1  0  0  0
 86167  1  0  0  0
 86168  1  0  0  0
 87169  1  0  0  0
 87170  1  0  0  0
 89171  1  0  0  0
M  ISO  4   1 100  68 101  87 101  89 100
M  END
> <chiral flag>
0

> <version>
0

> <s_m_source_file>
/data/baiqing/PycharmProjects/Reinvent-master-3.2/result/LINK_invent/BTK/process_docking_weight1_custom_product_contain_oxygen_bond_distance_aromatic_linkinvent_7_9_3/rearranged_h_0059.sdf

> <i_m_source_file_index>
71

> <r_mmod_Potential_Energy-OPLS-2005>
33.9541320800781

> <r_mmod_Stretch_Energy-OPLS-2005>
41.9602546691895

> <r_mmod_Bend_Energy-OPLS-2005>
121.513557434082

> <r_mmod_Torsional_Energy-OPLS-2005>
288.775665283203

> <r_mmod_Improper_Torsional_Energy-OPLS-2005>
6.69464492797852

> <r_mmod_Van_der_Waal_Energy-OPLS-2005>
165.469421386719

> <r_mmod_Electrostatic_Energy-OPLS-2005>
-378.722961425781

> <r_mmod_Solvation_Energy-OPLS-2005>
-225.772308349609

> <b_mmod_Minimization_Converged-OPLS-2005>
0

> <r_mmod_RMS_Derivative-OPLS-2005>
1.60901737213135

$$$$
71
                    3D
 Structure written by MMmdl.
163171  0  0  1  0            999 V2000
  -30.6411  -14.7336   20.4824 C   0  0  0  0  0  0
  -30.4331  -12.4476   19.4677 C   0  0  0  0  0  0
  -29.5069  -12.5015   18.2328 C   0  0  0  0  0  0
  -28.0368  -12.3194   18.6571 C   0  0  0  0  0  0
  -27.6438  -13.2305   19.8513 C   0  0  2  0  0  0
  -28.6941  -13.1715   20.9823 C   0  0  0  0  0  0
  -25.2520  -13.8194   20.5671 C   0  0  0  0  0  0
  -24.1817  -13.0443   20.9192 C   0  0  0  0  0  0
  -24.6414  -11.6922   20.8767 C   0  0  0  0  0  0
  -23.9091  -10.4293   21.0428 C   0  0  0  0  0  0
  -24.3638   -9.4202   21.9204 C   0  0  0  0  0  0
  -23.6297   -8.2252   22.0768 C   0  0  0  0  0  0
  -22.4282   -8.0290   21.3553 C   0  0  0  0  0  0
  -21.9931   -9.0278   20.4653 C   0  0  0  0  0  0
  -22.7272  -10.2141   20.3070 C   0  0  0  0  0  0
  -21.6844   -6.0742   22.5281 C   0  0  0  0  0  0
  -21.4019   -6.5642   23.8215 C   0  0  0  0  0  0
  -21.3669   -5.6789   24.9174 C   0  0  0  0  0  0
  -21.6042   -4.3052   24.7213 C   0  0  0  0  0  0
  -21.8822   -3.8153   23.4335 C   0  0  0  0  0  0
  -21.9187   -4.6977   22.3392 C   0  0  0  0  0  0
  -22.7836  -13.5221   21.1851 C   0  0  0  0  0  0
  -22.1652   -4.2170   21.0965 F   0  0  0  0  0  0
  -21.5636   -3.4526   25.7722 F   0  0  0  0  0  0
  -29.9945  -13.5189   20.3927 N   0  0  0  0  0  0
  -26.2967  -12.9406   20.3313 N   0  0  0  0  0  0
  -25.9345  -11.6551   20.5804 N   0  0  0  0  0  0
  -22.0468  -12.8232   22.0411 N   0  0  0  0  0  0
  -25.4169  -15.1916   20.4015 N   0  0  0  0  0  0
  -31.8397  -14.8077   20.2022 O   0  0  0  0  0  0
  -21.6634   -6.8899   21.4246 O   0  0  0  0  0  0
  -22.3524  -14.5540   20.6695 O   0  0  0  0  0  0
  -24.6332  -31.8578   23.1977 C   0  0  0  0  0  0
  -25.9146  -32.4789   23.8331 C   0  0  1  0  0  0
  -27.2277  -27.2608   20.1527 C   0  0  0  0  0  0
  -25.5956  -33.8586   24.2271 N   0  0  0  0  0  0
  -23.4338  -30.4806   21.5332 C   0  0  2  0  0  0
  -24.8850  -28.9228   20.1024 C   0  0  0  0  0  0
  -22.7551  -29.4629   22.4818 C   0  0  0  0  0  0
  -18.0341  -28.1419   22.8465 C   0  0  0  0  0  0
  -24.1504  -36.7288   23.2635 C   0  0  0  0  0  0
  -25.9758  -30.7712   21.3769 C   0  0  0  0  0  0
  -26.0510  -29.3902   20.7243 C   0  0  0  0  0  0
  -27.2262  -28.5750   20.7294 C   0  0  0  0  0  0
  -26.0478  -26.8608   19.4914 C   0  0  0  0  0  0
  -24.8929  -27.6710   19.4639 C   0  0  0  0  0  0
  -23.6600  -29.8186   20.1455 C   0  0  0  0  0  0
  -25.4119  -36.3079   24.0335 C   0  0  1  0  0  0
  -20.5963  -28.3759   23.1221 C   0  0  2  0  0  0
  -20.6857  -26.9471   22.5386 C   0  0  0  0  0  0
  -19.5817  -26.6407   21.5207 C   0  0  0  0  0  0
  -18.1995  -26.7962   22.1597 C   0  0  0  0  0  0
  -19.1596  -28.8884   23.2851 C   0  0  0  0  0  0
  -18.9515  -30.1477   23.8896 C   0  0  0  0  0  0
  -17.6511  -30.6599   24.0578 C   0  0  0  0  0  0
  -25.9052  -34.9460   23.5092 C   0  0  0  0  0  0
  -16.5407  -29.9122   23.6308 C   0  0  0  0  0  0
  -16.7333  -28.6546   23.0312 C   0  0  0  0  0  0
  -26.4521  -31.6612   25.0706 C   0  0  0  0  0  0
  -25.3731  -31.3762   26.1418 C   0  0  0  0  0  0
  -27.0376  -30.3047   24.6150 C   0  0  0  0  0  0
  -27.6078  -32.4364   25.7471 C   0  0  0  0  0  0
  -27.5597  -37.1797   24.8463 C   0  0  0  0  0  0
  -21.4251  -29.3108   22.3590 N   0  0  0  0  0  0
  -26.4300  -37.3779   23.9419 N   0  0  0  0  0  0
  -24.6994  -31.0556   22.0940 N   0  0  0  0  0  0
  -23.4230  -28.8140   23.2918 O   0  0  0  0  0  0
  -28.3388  -26.3912   20.1774 O   0  0  0  0  0  0
  -26.5579  -34.8936   22.4640 O   0  0  0  0  0  0
  -23.5471  -32.1405   23.7254 O   0  0  0  0  0  0
  -31.6362  -18.8754   22.1460 C   0  0  0  0  0  0
  -31.3304  -17.5616   21.7373 C   0  0  0  0  0  0
  -29.5314  -18.4749   20.3992 C   0  0  0  0  0  0
  -29.8543  -19.8605   20.7495 C   0  0  0  0  0  0
  -30.9131  -20.0090   21.6977 C   0  0  0  0  0  0
  -30.2457  -17.2995   20.8811 C   0  0  0  0  0  0
  -29.1788  -21.0807   20.0146 C   0  0  0  0  0  0
  -31.3248  -21.3485   22.2962 C   0  0  0  0  0  0
  -31.4064  -23.4830   18.7904 C   0  0  0  0  0  0
  -28.1908  -23.6290   18.4644 C   0  0  0  0  0  0
  -30.3744  -24.3899   19.4800 C   0  0  0  0  0  0
  -28.1888  -24.9491   20.5988 C   0  0  0  0  0  0
  -28.9768  -23.7790   19.7861 C   0  0  1  0  0  0
  -29.8709  -15.8834   20.6153 N   0  0  0  0  0  0
  -29.1900  -22.4006   20.4792 N   0  0  0  0  0  0
  -28.6348  -20.8056   18.9460 O   0  0  0  0  0  0
  -31.4761  -12.5586   19.1664 H   0  0  0  0  0  0
  -30.3658  -11.4721   19.9536 H   0  0  0  0  0  0
  -29.7836  -11.7308   17.5104 H   0  0  0  0  0  0
  -29.6263  -13.4590   17.7219 H   0  0  0  0  0  0
  -27.9068  -11.2727   18.9388 H   0  0  0  0  0  0
  -27.3690  -12.4901   17.8130 H   0  0  0  0  0  0
  -27.6355  -14.2471   19.4605 H   0  0  0  0  0  0
  -28.7299  -12.1770   21.4291 H   0  0  0  0  0  0
  -28.4386  -13.8598   21.7892 H   0  0  0  0  0  0
  -25.2777   -9.5663   22.4787 H   0  0  0  0  0  0
  -23.9987   -7.4639   22.7498 H   0  0  0  0  0  0
  -21.0860   -8.8815   19.8958 H   0  0  0  0  0  0
  -22.3749  -10.9696   19.6185 H   0  0  0  0  0  0
  -21.2021   -7.6148   23.9733 H   0  0  0  0  0  0
  -21.1489   -6.0506   25.9077 H   0  0  0  0  0  0
  -22.0595   -2.7618   23.2812 H   0  0  0  0  0  0
  -22.4044  -11.9830   22.4738 H   0  0  0  0  0  0
  -21.1144  -13.1344   22.2703 H   0  0  0  0  0  0
  -24.6358  -15.8338   20.4836 H   0  0  0  0  0  0
  -26.2519  -15.6342   20.0408 H   0  0  0  0  0  0
  -26.7213  -32.5464   23.1072 H   0  0  0  0  0  0
  -25.0267  -33.9736   25.0527 H   0  0  0  0  0  0
  -22.7319  -31.3034   21.3844 H   0  0  0  0  0  0
  -23.3778  -35.9604   23.3300 H   0  0  0  0  0  0
  -24.3624  -36.8907   22.2051 H   0  0  0  0  0  0
  -23.7241  -37.6486   23.6655 H   0  0  0  0  0  0
  -26.1086  -31.5291   20.6048 H   0  0  0  0  0  0
  -26.8586  -30.8327   22.0022 H   0  0  0  0  0  0
  -28.1255  -28.9316   21.2148 H   0  0  0  0  0  0
  -26.0199  -25.9087   18.9826 H   0  0  0  0  0  0
  -24.0159  -27.3244   18.9338 H   0  0  0  0  0  0
  -23.8071  -30.6060   19.4047 H   0  0  0  0  0  0
  -22.7757  -29.2678   19.8168 H   0  0  0  0  0  0
  -25.1302  -36.1919   25.0826 H   0  0  0  0  0  0
  -21.0075  -28.3379   24.1342 H   0  0  0  0  0  0
  -20.5824  -26.2375   23.3620 H   0  0  0  0  0  0
  -21.6722  -26.7549   22.1124 H   0  0  0  0  0  0
  -19.6990  -25.6303   21.1281 H   0  0  0  0  0  0
  -19.6746  -27.3180   20.6705 H   0  0  0  0  0  0
  -17.4275  -26.6718   21.4001 H   0  0  0  0  0  0
  -18.0373  -26.0110   22.8998 H   0  0  0  0  0  0
  -19.7996  -30.7269   24.2299 H   0  0  0  0  0  0
  -17.5088  -31.6274   24.5195 H   0  0  0  0  0  0
  -15.5418  -30.3025   23.7626 H   0  0  0  0  0  0
  -15.8748  -28.0885   22.6975 H   0  0  0  0  0  0
  -24.5923  -30.7087   25.7763 H   0  0  0  0  0  0
  -24.8885  -32.2931   26.4790 H   0  0  0  0  0  0
  -25.8041  -30.9000   27.0233 H   0  0  0  0  0  0
  -26.2944  -29.6779   24.1199 H   0  0  0  0  0  0
  -27.4152  -29.7311   25.4625 H   0  0  0  0  0  0
  -27.8788  -30.4391   23.9337 H   0  0  0  0  0  0
  -27.2705  -33.3695   26.1996 H   0  0  0  0  0  0
  -28.3898  -32.6880   25.0300 H   0  0  0  0  0  0
  -28.0724  -31.8521   26.5427 H   0  0  0  0  0  0
  -28.2559  -38.0148   24.7574 H   0  0  0  0  0  0
  -28.1150  -36.2680   24.6211 H   0  0  0  0  0  0
  -27.2331  -37.1349   25.8868 H   0  0  0  0  0  0
  -20.9419  -29.8883   21.6850 H   0  0  0  0  0  0
  -26.0179  -38.2846   24.1455 H   0  0  0  0  0  0
  -32.4570  -19.0030   22.8396 H   0  0  0  0  0  0
  -31.9196  -16.7487   22.1390 H   0  0  0  0  0  0
  -28.7125  -18.3158   19.7127 H   0  0  0  0  0  0
  -30.4689  -21.8311   22.7651 H   0  0  0  0  0  0
  -31.7505  -22.0195   21.5524 H   0  0  0  0  0  0
  -32.0724  -21.2255   23.0822 H   0  0  0  0  0  0
  -32.2495  -24.0800   18.4383 H   0  0  0  0  0  0
  -30.9863  -22.9732   17.9253 H   0  0  0  0  0  0
  -31.8075  -22.7295   19.4646 H   0  0  0  0  0  0
  -28.0843  -24.5902   17.9598 H   0  0  0  0  0  0
  -27.1842  -23.2479   18.6476 H   0  0  0  0  0  0
  -28.6822  -22.9667   17.7543 H   0  0  0  0  0  0
  -30.2415  -25.2713   18.8478 H   0  0  0  0  0  0
  -30.8109  -24.7718   20.4041 H   0  0  0  0  0  0
  -28.5221  -24.9137   21.6364 H   0  0  0  0  0  0
  -27.1317  -24.6830   20.6570 H   0  0  0  0  0  0
  -28.8793  -15.7102   20.5735 H   0  0  0  0  0  0
  -29.5725  -22.4770   21.4094 H   0  0  0  0  0  0
  1 25  1  0  0  0
  1 30  2  0  0  0
  1 84  1  0  0  0
  2  3  1  0  0  0
  2 25  1  0  0  0
  2 87  1  0  0  0
  2 88  1  0  0  0
  3  4  1  0  0  0
  3 89  1  0  0  0
  3 90  1  0  0  0
  4  5  1  0  0  0
  4 91  1  0  0  0
  4 92  1  0  0  0
  5  6  1  0  0  0
  5 26  1  0  0  0
  5 93  1  0  0  0
  6 25  1  0  0  0
  6 94  1  0  0  0
  6 95  1  0  0  0
  7  8  2  0  0  0
  7 26  1  0  0  0
  7 29  1  0  0  0
  8  9  1  0  0  0
  8 22  1  0  0  0
  9 10  1  0  0  0
  9 27  2  0  0  0
 10 11  2  0  0  0
 10 15  1  0  0  0
 11 12  1  0  0  0
 11 96  1  0  0  0
 12 13  2  0  0  0
 12 97  1  0  0  0
 13 14  1  0  0  0
 13 31  1  0  0  0
 14 15  2  0  0  0
 14 98  1  0  0  0
 15 99  1  0  0  0
 16 17  2  0  0  0
 16 21  1  0  0  0
 16 31  1  0  0  0
 17 18  1  0  0  0
 17100  1  0  0  0
 18 19  2  0  0  0
 18101  1  0  0  0
 19 20  1  0  0  0
 19 24  1  0  0  0
 20 21  2  0  0  0
 20102  1  0  0  0
 21 23  1  0  0  0
 22 28  1  0  0  0
 22 32  2  0  0  0
 26 27  1  0  0  0
 28103  1  0  0  0
 28104  1  0  0  0
 29105  1  0  0  0
 29106  1  0  0  0
 33 34  1  0  0  0
 33 66  1  0  0  0
 33 70  2  0  0  0
 34 36  1  0  0  0
 34 59  1  0  0  0
 34107  1  0  0  0
 35 44  2  0  0  0
 35 45  1  0  0  0
 35 68  1  0  0  0
 36 56  1  0  0  0
 36108  1  0  0  0
 37 39  1  0  0  0
 37 47  1  0  0  0
 37 66  1  0  0  0
 37109  1  0  0  0
 38 43  2  0  0  0
 38 46  1  0  0  0
 38 47  1  0  0  0
 39 64  1  0  0  0
 39 67  2  0  0  0
 40 52  1  0  0  0
 40 53  2  0  0  0
 40 58  1  0  0  0
 41110  1  0  0  0
 41111  1  0  0  0
 41112  1  0  0  0
 41 48  1  0  0  0
 42 43  1  0  0  0
 42 66  1  0  0  0
 42113  1  0  0  0
 42114  1  0  0  0
 43 44  1  0  0  0
 44115  1  0  0  0
 45 46  2  0  0  0
 45116  1  0  0  0
 46117  1  0  0  0
 47118  1  0  0  0
 47119  1  0  0  0
 48 56  1  0  0  0
 48 65  1  0  0  0
 48120  1  0  0  0
 49 50  1  0  0  0
 49 53  1  0  0  0
 49 64  1  0  0  0
 49121  1  0  0  0
 50 51  1  0  0  0
 50122  1  0  0  0
 50123  1  0  0  0
 51 52  1  0  0  0
 51124  1  0  0  0
 51125  1  0  0  0
 52126  1  0  0  0
 52127  1  0  0  0
 53 54  1  0  0  0
 54 55  2  0  0  0
 54128  1  0  0  0
 55 57  1  0  0  0
 55129  1  0  0  0
 56 69  2  0  0  0
 57 58  2  0  0  0
 57130  1  0  0  0
 58131  1  0  0  0
 59 60  1  0  0  0
 59 61  1  0  0  0
 59 62  1  0  0  0
 60132  1  0  0  0
 60133  1  0  0  0
 60134  1  0  0  0
 61135  1  0  0  0
 61136  1  0  0  0
 61137  1  0  0  0
 62138  1  0  0  0
 62139  1  0  0  0
 62140  1  0  0  0
 63 65  1  0  0  0
 63141  1  0  0  0
 63142  1  0  0  0
 63143  1  0  0  0
 64144  1  0  0  0
 65145  1  0  0  0
 68 82  1  0  0  0
 71 72  2  0  0  0
 71 75  1  0  0  0
 71146  1  0  0  0
 72 76  1  0  0  0
 72147  1  0  0  0
 73 74  1  0  0  0
 73 76  2  0  0  0
 73148  1  0  0  0
 74 75  2  0  0  0
 74 77  1  0  0  0
 75 78  1  0  0  0
 76 84  1  0  0  0
 77 85  1  0  0  0
 77 86  2  0  0  0
 78149  1  0  0  0
 78150  1  0  0  0
 78151  1  0  0  0
 79 81  1  0  0  0
 79152  1  0  0  0
 79153  1  0  0  0
 79154  1  0  0  0
 80155  1  0  0  0
 80156  1  0  0  0
 80157  1  0  0  0
 80 83  1  0  0  0
 81 83  1  0  0  0
 81158  1  0  0  0
 81159  1  0  0  0
 82 83  1  0  0  0
 82160  1  0  0  0
 82161  1  0  0  0
 83 85  1  0  0  0
 84162  1  0  0  0
 85163  1  0  0  0
M  ISO  4   1 100  68 101  82 101  84 100
M  END
> <chiral flag>
0

> <version>
0

> <s_m_source_file>
/data/baiqing/PycharmProjects/Reinvent-master-3.2/result/LINK_invent/BTK/process_docking_weight1_custom_product_contain_oxygen_bond_distance_aromatic_linkinvent_7_9_3/rearranged_h_0059.sdf

> <i_m_source_file_index>
72

> <r_mmod_Potential_Energy-OPLS-2005>
162.547103881836

> <r_mmod_Stretch_Energy-OPLS-2005>
139.990478515625

> <r_mmod_Bend_Energy-OPLS-2005>
179.622131347656

> <r_mmod_Torsional_Energy-OPLS-2005>
264.994934082031

> <r_mmod_Improper_Torsional_Energy-OPLS-2005>
7.56226873397827

> <r_mmod_Van_der_Waal_Energy-OPLS-2005>
143.814102172852

> <r_mmod_Electrostatic_Energy-OPLS-2005>
-433.144927978516

> <r_mmod_Solvation_Energy-OPLS-2005>
-222.2783203125

> <b_mmod_Minimization_Converged-OPLS-2005>
0

> <r_mmod_RMS_Derivative-OPLS-2005>
3.70048785209656

$$$$
72
                    3D
 Structure written by MMmdl.
158167  0  0  1  0            999 V2000
  -30.6296  -14.5530   20.5719 C   0  0  0  0  0  0
  -30.4403  -12.3569   19.4315 C   0  0  0  0  0  0
  -29.5055  -12.5248   18.2134 C   0  0  0  0  0  0
  -28.0251  -12.3697   18.6212 C   0  0  0  0  0  0
  -27.6632  -13.2053   19.8767 C   0  0  2  0  0  0
  -28.7019  -12.9808   20.9975 C   0  0  0  0  0  0
  -25.2587  -13.8153   20.5664 C   0  0  0  0  0  0
  -24.1844  -13.0433   20.9170 C   0  0  0  0  0  0
  -24.6390  -11.6896   20.8724 C   0  0  0  0  0  0
  -23.9051  -10.4292   21.0397 C   0  0  0  0  0  0
  -24.3616   -9.4208   21.9178 C   0  0  0  0  0  0
  -23.6296   -8.2240   22.0753 C   0  0  0  0  0  0
  -22.4274   -8.0281   21.3550 C   0  0  0  0  0  0
  -21.9905   -9.0255   20.4653 C   0  0  0  0  0  0
  -22.7229  -10.2130   20.3053 C   0  0  0  0  0  0
  -21.6855   -6.0733   22.5278 C   0  0  0  0  0  0
  -21.4004   -6.5627   23.8216 C   0  0  0  0  0  0
  -21.3646   -5.6778   24.9172 C   0  0  0  0  0  0
  -21.6047   -4.3041   24.7214 C   0  0  0  0  0  0
  -21.8821   -3.8143   23.4333 C   0  0  0  0  0  0
  -21.9194   -4.6969   22.3398 C   0  0  0  0  0  0
  -22.7869  -13.5248   21.1840 C   0  0  0  0  0  0
  -22.1668   -4.2161   21.0972 F   0  0  0  0  0  0
  -21.5629   -3.4513   25.7718 F   0  0  0  0  0  0
  -30.0284  -13.3318   20.4582 N   0  0  0  0  0  0
  -26.3024  -12.9317   20.3346 N   0  0  0  0  0  0
  -25.9315  -11.6479   20.5737 N   0  0  0  0  0  0
  -22.0485  -12.8260   22.0399 N   0  0  0  0  0  0
  -25.4310  -15.1867   20.4052 N   0  0  0  0  0  0
  -31.7473  -14.7822   20.0949 O   0  0  0  0  0  0
  -21.6639   -6.8876   21.4245 O   0  0  0  0  0  0
  -22.3558  -14.5554   20.6682 O   0  0  0  0  0  0
  -24.6212  -31.8620   23.2052 C   0  0  0  0  0  0
  -25.9077  -32.4783   23.8371 C   0  0  1  0  0  0
  -27.2304  -27.3689   20.0895 C   0  0  0  0  0  0
  -25.5903  -33.8578   24.2295 N   0  0  0  0  0  0
  -23.4118  -30.4872   21.5467 C   0  0  2  0  0  0
  -24.8561  -28.9463   20.1093 C   0  0  0  0  0  0
  -22.7454  -29.4625   22.4950 C   0  0  0  0  0  0
  -18.0271  -28.1386   22.8463 C   0  0  0  0  0  0
  -24.1474  -36.7281   23.2636 C   0  0  0  0  0  0
  -25.9485  -30.8039   21.3708 C   0  0  0  0  0  0
  -26.0204  -29.4350   20.7136 C   0  0  0  0  0  0
  -27.2054  -28.6514   20.7055 C   0  0  0  0  0  0
  -26.0334  -26.9044   19.4954 C   0  0  0  0  0  0
  -24.8613  -27.6826   19.4974 C   0  0  0  0  0  0
  -23.6218  -29.8215   20.1606 C   0  0  0  0  0  0
  -25.4085  -36.3077   24.0346 C   0  0  1  0  0  0
  -20.5869  -28.3674   23.1292 C   0  0  2  0  0  0
  -20.6743  -26.9394   22.5429 C   0  0  0  0  0  0
  -19.5740  -26.6380   21.5199 C   0  0  0  0  0  0
  -18.1911  -26.7930   22.1593 C   0  0  0  0  0  0
  -19.1521  -28.8844   23.2870 C   0  0  0  0  0  0
  -18.9454  -30.1441   23.8890 C   0  0  0  0  0  0
  -17.6457  -30.6580   24.0566 C   0  0  0  0  0  0
  -25.9041  -34.9450   23.5124 C   0  0  0  0  0  0
  -16.5344  -29.9083   23.6329 C   0  0  0  0  0  0
  -16.7261  -28.6508   23.0328 C   0  0  0  0  0  0
  -26.4459  -31.6583   25.0736 C   0  0  0  0  0  0
  -25.3711  -31.3759   26.1494 C   0  0  0  0  0  0
  -27.0244  -30.2990   24.6177 C   0  0  0  0  0  0
  -27.6061  -32.4281   25.7467 C   0  0  0  0  0  0
  -27.5593  -37.1741   24.8422 C   0  0  0  0  0  0
  -21.4175  -29.3027   22.3692 N   0  0  0  0  0  0
  -26.4238  -37.3797   23.9474 N   0  0  0  0  0  0
  -24.6787  -31.0681   22.0973 N   0  0  0  0  0  0
  -23.4206  -28.8159   23.3003 O   0  0  0  0  0  0
  -28.3859  -26.5883   20.1272 O   0  0  0  0  0  0
  -26.5621  -34.8925   22.4698 O   0  0  0  0  0  0
  -23.5391  -32.1388   23.7414 O   0  0  0  0  0  0
  -28.5563  -19.0121   21.5962 C   0  0  0  0  0  0
  -30.3299  -19.1087   19.9693 C   0  0  0  0  0  0
  -28.7767  -17.6199   21.7474 C   0  0  0  0  0  0
  -30.5569  -17.7121   20.1221 C   0  0  0  0  0  0
  -29.3083  -19.7993   20.6831 C   0  0  0  0  0  0
  -29.7707  -16.9341   21.0084 C   0  0  0  0  0  0
  -27.8184  -21.7926   20.4513 C   0  0  0  0  0  0
  -27.6155  -23.3250   20.2514 C   0  0  0  0  0  0
  -30.0618  -23.6279   20.2521 C   0  0  0  0  0  0
  -30.2578  -22.0833   20.1869 C   0  0  0  0  0  0
  -28.7742  -24.0283   19.5229 C   0  0  2  0  0  0
  -28.6081  -25.5504   19.1321 C   0  0  0  0  0  0
  -29.0756  -21.2386   20.4995 N   0  0  0  0  0  0
  -29.8721  -15.5015   21.1836 N   0  0  0  0  0  0
  -26.7875  -21.1212   20.5698 O   0  0  0  0  0  0
  -31.4806  -12.4899   19.1315 H   0  0  0  0  0  0
  -30.3728  -11.3445   19.8307 H   0  0  0  0  0  0
  -29.7590  -11.7987   17.4396 H   0  0  0  0  0  0
  -29.6608  -13.5074   17.7656 H   0  0  0  0  0  0
  -27.8410  -11.3121   18.8156 H   0  0  0  0  0  0
  -27.3791  -12.6434   17.7872 H   0  0  0  0  0  0
  -27.7062  -14.2544   19.5813 H   0  0  0  0  0  0
  -28.7006  -11.9347   21.3084 H   0  0  0  0  0  0
  -28.4427  -13.5459   21.8936 H   0  0  0  0  0  0
  -25.2761   -9.5695   22.4730 H   0  0  0  0  0  0
  -24.0022   -7.4633   22.7464 H   0  0  0  0  0  0
  -21.0837   -8.8775   19.8955 H   0  0  0  0  0  0
  -22.3693  -10.9668   19.6151 H   0  0  0  0  0  0
  -21.1979   -7.6130   23.9722 H   0  0  0  0  0  0
  -21.1458   -6.0488   25.9075 H   0  0  0  0  0  0
  -22.0601   -2.7607   23.2818 H   0  0  0  0  0  0
  -22.4062  -11.9917   22.4806 H   0  0  0  0  0  0
  -21.1115  -13.1348   22.2589 H   0  0  0  0  0  0
  -24.6616  -15.8412   20.5004 H   0  0  0  0  0  0
  -26.2802  -15.6226   20.0671 H   0  0  0  0  0  0
  -26.7141  -32.5461   23.1117 H   0  0  0  0  0  0
  -25.0016  -33.9713   25.0416 H   0  0  0  0  0  0
  -22.7031  -31.3057   21.4077 H   0  0  0  0  0  0
  -23.3777  -35.9563   23.3197 H   0  0  0  0  0  0
  -24.3608  -36.8996   22.2074 H   0  0  0  0  0  0
  -23.7160  -37.6426   23.6717 H   0  0  0  0  0  0
  -26.0796  -31.5698   20.6047 H   0  0  0  0  0  0
  -26.8299  -30.8485   21.9987 H   0  0  0  0  0  0
  -28.1015  -29.0231   21.1821 H   0  0  0  0  0  0
  -25.9691  -25.9237   19.0484 H   0  0  0  0  0  0
  -23.9642  -27.2953   19.0346 H   0  0  0  0  0  0
  -23.7329  -30.5956   19.4002 H   0  0  0  0  0  0
  -22.7430  -29.2453   19.8651 H   0  0  0  0  0  0
  -25.1238  -36.1905   25.0830 H   0  0  0  0  0  0
  -20.9952  -28.3249   24.1416 H   0  0  0  0  0  0
  -20.5588  -26.2292   23.3630 H   0  0  0  0  0  0
  -21.6624  -26.7388   22.1275 H   0  0  0  0  0  0
  -19.6901  -25.6290   21.1228 H   0  0  0  0  0  0
  -19.6699  -27.3188   20.6733 H   0  0  0  0  0  0
  -17.4195  -26.6682   21.3976 H   0  0  0  0  0  0
  -18.0290  -26.0073   22.8988 H   0  0  0  0  0  0
  -19.7941  -30.7232   24.2270 H   0  0  0  0  0  0
  -17.5029  -31.6254   24.5189 H   0  0  0  0  0  0
  -15.5342  -30.2977   23.7671 H   0  0  0  0  0  0
  -15.8662  -28.0835   22.7031 H   0  0  0  0  0  0
  -24.5892  -30.7062   25.7886 H   0  0  0  0  0  0
  -24.8885  -32.2938   26.4876 H   0  0  0  0  0  0
  -25.8073  -30.9012   27.0296 H   0  0  0  0  0  0
  -26.2781  -29.6784   24.1203 H   0  0  0  0  0  0
  -27.3904  -29.7215   25.4678 H   0  0  0  0  0  0
  -27.8688  -30.4237   23.9392 H   0  0  0  0  0  0
  -27.2722  -33.3594   26.2055 H   0  0  0  0  0  0
  -28.3855  -32.6801   25.0261 H   0  0  0  0  0  0
  -28.0741  -31.8384   26.5361 H   0  0  0  0  0  0
  -28.2489  -38.0159   24.7664 H   0  0  0  0  0  0
  -28.1191  -36.2707   24.5942 H   0  0  0  0  0  0
  -27.2376  -37.1050   25.8828 H   0  0  0  0  0  0
  -20.9352  -29.8752   21.6905 H   0  0  0  0  0  0
  -26.0104  -38.2831   24.1629 H   0  0  0  0  0  0
  -27.7842  -19.4703   22.1995 H   0  0  0  0  0  0
  -30.9510  -19.6376   19.2622 H   0  0  0  0  0  0
  -28.1527  -17.0779   22.4454 H   0  0  0  0  0  0
  -31.3350  -17.2498   19.5313 H   0  0  0  0  0  0
  -27.4673  -23.7819   21.2297 H   0  0  0  0  0  0
  -26.6904  -23.4831   19.6959 H   0  0  0  0  0  0
  -30.9251  -24.1216   19.8030 H   0  0  0  0  0  0
  -30.0236  -23.9667   21.2889 H   0  0  0  0  0  0
  -31.0819  -21.8004   20.8445 H   0  0  0  0  0  0
  -30.5779  -21.8340   19.1747 H   0  0  0  0  0  0
  -28.8408  -23.5372   18.5499 H   0  0  0  0  0  0
  -27.9012  -25.6167   18.3064 H   0  0  0  0  0  0
  -29.5432  -25.8397   18.6533 H   0  0  0  0  0  0
  -29.0926  -15.0958   21.6795 H   0  0  0  0  0  0
  1 25  1  0  0  0
  1 30  2  0  0  0
  1 84  1  0  0  0
  2  3  1  0  0  0
  2 25  1  0  0  0
  2 86  1  0  0  0
  2 87  1  0  0  0
  3  4  1  0  0  0
  3 88  1  0  0  0
  3 89  1  0  0  0
  4  5  1  0  0  0
  4 90  1  0  0  0
  4 91  1  0  0  0
  5  6  1  0  0  0
  5 26  1  0  0  0
  5 92  1  0  0  0
  6 25  1  0  0  0
  6 93  1  0  0  0
  6 94  1  0  0  0
  7  8  2  0  0  0
  7 26  1  0  0  0
  7 29  1  0  0  0
  8  9  1  0  0  0
  8 22  1  0  0  0
  9 10  1  0  0  0
  9 27  2  0  0  0
 10 11  2  0  0  0
 10 15  1  0  0  0
 11 12  1  0  0  0
 11 95  1  0  0  0
 12 13  2  0  0  0
 12 96  1  0  0  0
 13 14  1  0  0  0
 13 31  1  0  0  0
 14 15  2  0  0  0
 14 97  1  0  0  0
 15 98  1  0  0  0
 16 17  2  0  0  0
 16 21  1  0  0  0
 16 31  1  0  0  0
 17 18  1  0  0  0
 17 99  1  0  0  0
 18 19  2  0  0  0
 18100  1  0  0  0
 19 20  1  0  0  0
 19 24  1  0  0  0
 20 21  2  0  0  0
 20101  1  0  0  0
 21 23  1  0  0  0
 22 28  1  0  0  0
 22 32  2  0  0  0
 26 27  1  0  0  0
 28102  1  0  0  0
 28103  1  0  0  0
 29104  1  0  0  0
 29105  1  0  0  0
 33 34  1  0  0  0
 33 66  1  0  0  0
 33 70  2  0  0  0
 34 36  1  0  0  0
 34 59  1  0  0  0
 34106  1  0  0  0
 35 44  2  0  0  0
 35 45  1  0  0  0
 35 68  1  0  0  0
 36 56  1  0  0  0
 36107  1  0  0  0
 37 39  1  0  0  0
 37 47  1  0  0  0
 37 66  1  0  0  0
 37108  1  0  0  0
 38 43  2  0  0  0
 38 46  1  0  0  0
 38 47  1  0  0  0
 39 64  1  0  0  0
 39 67  2  0  0  0
 40 52  1  0  0  0
 40 53  2  0  0  0
 40 58  1  0  0  0
 41109  1  0  0  0
 41110  1  0  0  0
 41111  1  0  0  0
 41 48  1  0  0  0
 42 43  1  0  0  0
 42 66  1  0  0  0
 42112  1  0  0  0
 42113  1  0  0  0
 43 44  1  0  0  0
 44114  1  0  0  0
 45 46  2  0  0  0
 45115  1  0  0  0
 46116  1  0  0  0
 47117  1  0  0  0
 47118  1  0  0  0
 48 56  1  0  0  0
 48 65  1  0  0  0
 48119  1  0  0  0
 49 50  1  0  0  0
 49 53  1  0  0  0
 49 64  1  0  0  0
 49120  1  0  0  0
 50 51  1  0  0  0
 50121  1  0  0  0
 50122  1  0  0  0
 51 52  1  0  0  0
 51123  1  0  0  0
 51124  1  0  0  0
 52125  1  0  0  0
 52126  1  0  0  0
 53 54  1  0  0  0
 54 55  2  0  0  0
 54127  1  0  0  0
 55 57  1  0  0  0
 55128  1  0  0  0
 56 69  2  0  0  0
 57 58  2  0  0  0
 57129  1  0  0  0
 58130  1  0  0  0
 59 60  1  0  0  0
 59 61  1  0  0  0
 59 62  1  0  0  0
 60131  1  0  0  0
 60132  1  0  0  0
 60133  1  0  0  0
 61134  1  0  0  0
 61135  1  0  0  0
 61136  1  0  0  0
 62137  1  0  0  0
 62138  1  0  0  0
 62139  1  0  0  0
 63 65  1  0  0  0
 63140  1  0  0  0
 63141  1  0  0  0
 63142  1  0  0  0
 64143  1  0  0  0
 65144  1  0  0  0
 68 82  1  0  0  0
 71 73  2  0  0  0
 71 75  1  0  0  0
 71145  1  0  0  0
 72 74  1  0  0  0
 72 75  2  0  0  0
 72146  1  0  0  0
 73 76  1  0  0  0
 73147  1  0  0  0
 74 76  2  0  0  0
 74148  1  0  0  0
 75 83  1  0  0  0
 76 84  1  0  0  0
 77 78  1  0  0  0
 77 83  1  0  0  0
 77 85  2  0  0  0
 78 81  1  0  0  0
 78149  1  0  0  0
 78150  1  0  0  0
 79 80  1  0  0  0
 79 81  1  0  0  0
 79151  1  0  0  0
 79152  1  0  0  0
 80 83  1  0  0  0
 80153  1  0  0  0
 80154  1  0  0  0
 81 82  1  0  0  0
 81155  1  0  0  0
 82156  1  0  0  0
 82157  1  0  0  0
 84158  1  0  0  0
M  ISO  4   1 100  68 101  82 101  84 100
M  END
> <chiral flag>
0

> <version>
0

> <s_m_source_file>
/data/baiqing/PycharmProjects/Reinvent-master-3.2/result/LINK_invent/BTK/process_docking_weight1_custom_product_contain_oxygen_bond_distance_aromatic_linkinvent_7_9_3/rearranged_h_0059.sdf

> <i_m_source_file_index>
73

> <r_mmod_Potential_Energy-OPLS-2005>
90.0774841308594

> <r_mmod_Stretch_Energy-OPLS-2005>
62.8212623596191

> <r_mmod_Bend_Energy-OPLS-2005>
148.710891723633

> <r_mmod_Torsional_Energy-OPLS-2005>
265.2119140625

> <r_mmod_Improper_Torsional_Energy-OPLS-2005>
3.56148147583008

> <r_mmod_Van_der_Waal_Energy-OPLS-2005>
164.015106201172

> <r_mmod_Electrostatic_Energy-OPLS-2005>
-363.489562988281

> <r_mmod_Solvation_Energy-OPLS-2005>
-217.173248291016

> <b_mmod_Minimization_Converged-OPLS-2005>
0

> <r_mmod_RMS_Derivative-OPLS-2005>
2.21078777313232

$$$$
73
                    3D
 Structure written by MMmdl.
163172  0  0  1  0            999 V2000
  -30.6631  -14.5014   20.5690 C   0  0  0  0  0  0
  -30.4418  -12.3265   19.4100 C   0  0  0  0  0  0
  -29.5012  -12.5121   18.2002 C   0  0  0  0  0  0
  -28.0213  -12.3645   18.6170 C   0  0  0  0  0  0
  -27.6620  -13.1986   19.8744 C   0  0  2  0  0  0
  -28.7093  -12.9700   20.9883 C   0  0  0  0  0  0
  -25.2599  -13.8139   20.5711 C   0  0  0  0  0  0
  -24.1837  -13.0429   20.9208 C   0  0  0  0  0  0
  -24.6387  -11.6899   20.8736 C   0  0  0  0  0  0
  -23.9065  -10.4281   21.0407 C   0  0  0  0  0  0
  -24.3609   -9.4202   21.9189 C   0  0  0  0  0  0
  -23.6271   -8.2248   22.0759 C   0  0  0  0  0  0
  -22.4251   -8.0282   21.3557 C   0  0  0  0  0  0
  -21.9897   -9.0261   20.4660 C   0  0  0  0  0  0
  -22.7240  -10.2132   20.3059 C   0  0  0  0  0  0
  -21.6851   -6.0730   22.5280 C   0  0  0  0  0  0
  -21.4008   -6.5627   23.8212 C   0  0  0  0  0  0
  -21.3657   -5.6783   24.9177 C   0  0  0  0  0  0
  -21.6037   -4.3046   24.7223 C   0  0  0  0  0  0
  -21.8812   -3.8148   23.4348 C   0  0  0  0  0  0
  -21.9191   -4.6964   22.3410 C   0  0  0  0  0  0
  -22.7856  -13.5245   21.1842 C   0  0  0  0  0  0
  -22.1654   -4.2160   21.0986 F   0  0  0  0  0  0
  -21.5637   -3.4519   25.7736 F   0  0  0  0  0  0
  -30.0355  -13.3006   20.4307 N   0  0  0  0  0  0
  -26.3025  -12.9286   20.3370 N   0  0  0  0  0  0
  -25.9304  -11.6459   20.5754 N   0  0  0  0  0  0
  -22.0478  -12.8245   22.0390 N   0  0  0  0  0  0
  -25.4295  -15.1864   20.4135 N   0  0  0  0  0  0
  -31.8135  -14.7185   20.1733 O   0  0  0  0  0  0
  -21.6630   -6.8874   21.4245 O   0  0  0  0  0  0
  -22.3553  -14.5559   20.6696 O   0  0  0  0  0  0
  -24.6255  -31.8676   23.2035 C   0  0  0  0  0  0
  -25.9149  -32.4807   23.8357 C   0  0  1  0  0  0
  -27.2548  -27.4136   20.0839 C   0  0  0  0  0  0
  -25.5979  -33.8589   24.2322 N   0  0  0  0  0  0
  -23.4174  -30.4930   21.5423 C   0  0  2  0  0  0
  -24.8630  -28.9506   20.1145 C   0  0  0  0  0  0
  -22.7505  -29.4712   22.4936 C   0  0  0  0  0  0
  -18.0347  -28.1413   22.8531 C   0  0  0  0  0  0
  -24.1493  -36.7264   23.2636 C   0  0  0  0  0  0
  -25.9546  -30.8215   21.3711 C   0  0  0  0  0  0
  -26.0250  -29.4583   20.7067 C   0  0  0  0  0  0
  -27.2224  -28.7031   20.6728 C   0  0  0  0  0  0
  -26.0655  -26.9212   19.4995 C   0  0  0  0  0  0
  -24.8800  -27.6853   19.5030 C   0  0  0  0  0  0
  -23.6287  -29.8242   20.1573 C   0  0  0  0  0  0
  -25.4122  -36.3108   24.0357 C   0  0  1  0  0  0
  -20.5958  -28.3744   23.1278 C   0  0  2  0  0  0
  -20.6821  -26.9474   22.5394 C   0  0  0  0  0  0
  -19.5749  -26.6479   21.5222 C   0  0  0  0  0  0
  -18.1948  -26.7981   22.1653 C   0  0  0  0  0  0
  -19.1595  -28.8890   23.2913 C   0  0  0  0  0  0
  -18.9506  -30.1490   23.8940 C   0  0  0  0  0  0
  -17.6493  -30.6585   24.0614 C   0  0  0  0  0  0
  -25.9071  -34.9475   23.5147 C   0  0  0  0  0  0
  -16.5399  -29.9102   23.6321 C   0  0  0  0  0  0
  -16.7336  -28.6522   23.0353 C   0  0  0  0  0  0
  -26.4525  -31.6593   25.0708 C   0  0  0  0  0  0
  -25.3772  -31.3742   26.1459 C   0  0  0  0  0  0
  -27.0394  -30.3019   24.6190 C   0  0  0  0  0  0
  -27.6123  -32.4337   25.7397 C   0  0  0  0  0  0
  -27.5611  -37.1778   24.8469 C   0  0  0  0  0  0
  -21.4238  -29.3080   22.3646 N   0  0  0  0  0  0
  -26.4308  -37.3808   23.9437 N   0  0  0  0  0  0
  -24.6817  -31.0783   22.0938 N   0  0  0  0  0  0
  -23.4240  -28.8308   23.3056 O   0  0  0  0  0  0
  -28.4516  -26.7117   20.0498 O   0  0  0  0  0  0
  -26.5624  -34.8933   22.4706 O   0  0  0  0  0  0
  -23.5440  -32.1440   23.7398 O   0  0  0  0  0  0
  -29.6913  -17.8959   23.7356 C   0  0  0  0  0  0
  -30.1785  -17.9414   20.9762 C   0  0  0  0  0  0
  -29.7276  -19.1325   23.0639 C   0  0  0  0  0  0
  -29.8397  -16.6803   23.0474 C   0  0  0  0  0  0
  -30.0259  -19.1847   21.6667 C   0  0  0  0  0  0
  -30.0476  -16.6943   21.6496 C   0  0  0  0  0  0
  -30.8967  -21.4674   21.5788 C   0  0  0  0  0  0
  -30.8475  -22.7983   21.2269 C   0  0  0  0  0  0
  -29.3931  -20.7659   19.8638 C   0  0  0  0  0  0
  -29.4217  -22.2823   19.3676 C   0  0  0  0  0  0
  -29.3533  -20.3584   23.8908 C   0  0  0  0  0  0
  -29.6747  -15.3844   23.8294 C   0  0  0  0  0  0
  -29.8410  -24.6826   19.7711 C   0  0  0  0  0  0
  -28.4462  -25.2698   20.1384 C   0  0  0  0  0  0
  -30.1221  -20.4592   20.9753 N   0  0  0  0  0  0
  -30.0288  -23.2303   20.1422 N   0  0  0  0  0  0
  -29.8191  -15.4848   20.9319 N   0  0  0  0  0  0
  -31.4609  -23.7700   21.7140 O   0  5  0  0  0  0
  -28.7153  -19.9468   19.2299 O   0  0  0  0  0  0
  -28.8621  -22.5652   18.2977 O   0  0  0  0  0  0
  -31.4821  -12.4550   19.1031 H   0  0  0  0  0  0
  -30.3680  -11.3139   19.8056 H   0  0  0  0  0  0
  -29.7463  -11.7925   17.4188 H   0  0  0  0  0  0
  -29.6635  -13.4995   17.7639 H   0  0  0  0  0  0
  -27.8247  -11.3077   18.8035 H   0  0  0  0  0  0
  -27.3740  -12.6533   17.7892 H   0  0  0  0  0  0
  -27.7055  -14.2468   19.5800 H   0  0  0  0  0  0
  -28.6994  -11.9307   21.3188 H   0  0  0  0  0  0
  -28.4670  -13.5520   21.8775 H   0  0  0  0  0  0
  -25.2752   -9.5648   22.4764 H   0  0  0  0  0  0
  -23.9976   -7.4626   22.7456 H   0  0  0  0  0  0
  -21.0846   -8.8794   19.8936 H   0  0  0  0  0  0
  -22.3739  -10.9669   19.6151 H   0  0  0  0  0  0
  -21.2000   -7.6130   23.9707 H   0  0  0  0  0  0
  -21.1471   -6.0517   25.9078 H   0  0  0  0  0  0
  -22.0595   -2.7610   23.2848 H   0  0  0  0  0  0
  -22.4087  -11.9924   22.4806 H   0  0  0  0  0  0
  -21.1083  -13.1254   22.2569 H   0  0  0  0  0  0
  -24.6607  -15.8345   20.5429 H   0  0  0  0  0  0
  -26.2724  -15.6359   20.0795 H   0  0  0  0  0  0
  -26.7239  -32.5484   23.1118 H   0  0  0  0  0  0
  -25.0129  -33.9696   25.0474 H   0  0  0  0  0  0
  -22.7101  -31.3119   21.3984 H   0  0  0  0  0  0
  -23.3782  -35.9564   23.3304 H   0  0  0  0  0  0
  -24.3599  -36.8857   22.2048 H   0  0  0  0  0  0
  -23.7179  -37.6456   23.6610 H   0  0  0  0  0  0
  -26.1138  -31.5980   20.6217 H   0  0  0  0  0  0
  -26.8244  -30.8414   22.0161 H   0  0  0  0  0  0
  -28.1343  -29.1040   21.0943 H   0  0  0  0  0  0
  -26.0336  -25.9618   19.0049 H   0  0  0  0  0  0
  -23.9935  -27.2962   19.0229 H   0  0  0  0  0  0
  -23.7482  -30.5938   19.3941 H   0  0  0  0  0  0
  -22.7483  -29.2519   19.8572 H   0  0  0  0  0  0
  -25.1279  -36.1971   25.0846 H   0  0  0  0  0  0
  -21.0124  -28.3352   24.1374 H   0  0  0  0  0  0
  -20.5828  -26.2362   23.3612 H   0  0  0  0  0  0
  -21.6673  -26.7551   22.1111 H   0  0  0  0  0  0
  -19.6892  -25.6434   21.1153 H   0  0  0  0  0  0
  -19.6592  -27.3384   20.6815 H   0  0  0  0  0  0
  -17.4237  -26.6857   21.4019 H   0  0  0  0  0  0
  -18.0262  -26.0081   22.8988 H   0  0  0  0  0  0
  -19.7966  -30.7315   24.2319 H   0  0  0  0  0  0
  -17.5026  -31.6234   24.5280 H   0  0  0  0  0  0
  -15.5392  -30.2999   23.7583 H   0  0  0  0  0  0
  -15.8765  -28.0824   22.7036 H   0  0  0  0  0  0
  -24.5867  -30.7195   25.7764 H   0  0  0  0  0  0
  -24.9051  -32.2930   26.4953 H   0  0  0  0  0  0
  -25.8100  -30.8812   27.0178 H   0  0  0  0  0  0
  -26.2963  -29.6678   24.1351 H   0  0  0  0  0  0
  -27.4239  -29.7371   25.4692 H   0  0  0  0  0  0
  -27.8762  -30.4280   23.9322 H   0  0  0  0  0  0
  -27.2754  -33.3594   26.2057 H   0  0  0  0  0  0
  -28.3814  -32.7007   25.0139 H   0  0  0  0  0  0
  -28.0950  -31.8449   26.5203 H   0  0  0  0  0  0
  -28.2653  -38.0059   24.7619 H   0  0  0  0  0  0
  -28.1108  -36.2634   24.6193 H   0  0  0  0  0  0
  -27.2365  -37.1315   25.8877 H   0  0  0  0  0  0
  -20.9476  -29.8686   21.6701 H   0  0  0  0  0  0
  -26.0212  -38.2903   24.1411 H   0  0  0  0  0  0
  -29.4738  -17.8764   24.7959 H   0  0  0  0  0  0
  -30.3220  -17.9500   19.9058 H   0  0  0  0  0  0
  -31.5277  -21.1101   22.3830 H   0  0  0  0  0  0
  -28.5879  -20.1007   24.6240 H   0  0  0  0  0  0
  -28.9330  -21.1639   23.2872 H   0  0  0  0  0  0
  -30.2210  -20.7362   24.4327 H   0  0  0  0  0  0
  -29.9218  -15.5329   24.8810 H   0  0  0  0  0  0
  -30.3245  -14.5919   23.4581 H   0  0  0  0  0  0
  -28.6418  -15.0393   23.7798 H   0  0  0  0  0  0
  -30.5953  -25.3459   20.1956 H   0  0  0  0  0  0
  -30.0025  -24.8062   18.6971 H   0  0  0  0  0  0
  -28.1852  -24.9962   21.1617 H   0  0  0  0  0  0
  -27.7005  -24.8086   19.4931 H   0  0  0  0  0  0
  -28.8849  -15.1261   21.0532 H   0  0  0  0  0  0
  1 25  1  0  0  0
  1 30  2  0  0  0
  1 87  1  0  0  0
  2  3  1  0  0  0
  2 25  1  0  0  0
  2 91  1  0  0  0
  2 92  1  0  0  0
  3  4  1  0  0  0
  3 93  1  0  0  0
  3 94  1  0  0  0
  4  5  1  0  0  0
  4 95  1  0  0  0
  4 96  1  0  0  0
  5  6  1  0  0  0
  5 26  1  0  0  0
  5 97  1  0  0  0
  6 25  1  0  0  0
  6 98  1  0  0  0
  6 99  1  0  0  0
  7  8  2  0  0  0
  7 26  1  0  0  0
  7 29  1  0  0  0
  8  9  1  0  0  0
  8 22  1  0  0  0
  9 10  1  0  0  0
  9 27  2  0  0  0
 10 11  2  0  0  0
 10 15  1  0  0  0
 11 12  1  0  0  0
 11100  1  0  0  0
 12 13  2  0  0  0
 12101  1  0  0  0
 13 14  1  0  0  0
 13 31  1  0  0  0
 14 15  2  0  0  0
 14102  1  0  0  0
 15103  1  0  0  0
 16 17  2  0  0  0
 16 21  1  0  0  0
 16 31  1  0  0  0
 17 18  1  0  0  0
 17104  1  0  0  0
 18 19  2  0  0  0
 18105  1  0  0  0
 19 20  1  0  0  0
 19 24  1  0  0  0
 20 21  2  0  0  0
 20106  1  0  0  0
 21 23  1  0  0  0
 22 28  1  0  0  0
 22 32  2  0  0  0
 26 27  1  0  0  0
 28107  1  0  0  0
 28108  1  0  0  0
 29109  1  0  0  0
 29110  1  0  0  0
 33 34  1  0  0  0
 33 66  1  0  0  0
 33 70  2  0  0  0
 34 36  1  0  0  0
 34 59  1  0  0  0
 34111  1  0  0  0
 35 44  2  0  0  0
 35 45  1  0  0  0
 35 68  1  0  0  0
 36 56  1  0  0  0
 36112  1  0  0  0
 37 39  1  0  0  0
 37 47  1  0  0  0
 37 66  1  0  0  0
 37113  1  0  0  0
 38 43  2  0  0  0
 38 46  1  0  0  0
 38 47  1  0  0  0
 39 64  1  0  0  0
 39 67  2  0  0  0
 40 52  1  0  0  0
 40 53  2  0  0  0
 40 58  1  0  0  0
 41114  1  0  0  0
 41115  1  0  0  0
 41116  1  0  0  0
 41 48  1  0  0  0
 42 43  1  0  0  0
 42 66  1  0  0  0
 42117  1  0  0  0
 42118  1  0  0  0
 43 44  1  0  0  0
 44119  1  0  0  0
 45 46  2  0  0  0
 45120  1  0  0  0
 46121  1  0  0  0
 47122  1  0  0  0
 47123  1  0  0  0
 48 56  1  0  0  0
 48 65  1  0  0  0
 48124  1  0  0  0
 49 50  1  0  0  0
 49 53  1  0  0  0
 49 64  1  0  0  0
 49125  1  0  0  0
 50 51  1  0  0  0
 50126  1  0  0  0
 50127  1  0  0  0
 51 52  1  0  0  0
 51128  1  0  0  0
 51129  1  0  0  0
 52130  1  0  0  0
 52131  1  0  0  0
 53 54  1  0  0  0
 54 55  2  0  0  0
 54132  1  0  0  0
 55 57  1  0  0  0
 55133  1  0  0  0
 56 69  2  0  0  0
 57 58  2  0  0  0
 57134  1  0  0  0
 58135  1  0  0  0
 59 60  1  0  0  0
 59 61  1  0  0  0
 59 62  1  0  0  0
 60136  1  0  0  0
 60137  1  0  0  0
 60138  1  0  0  0
 61139  1  0  0  0
 61140  1  0  0  0
 61141  1  0  0  0
 62142  1  0  0  0
 62143  1  0  0  0
 62144  1  0  0  0
 63 65  1  0  0  0
 63145  1  0  0  0
 63146  1  0  0  0
 63147  1  0  0  0
 64148  1  0  0  0
 65149  1  0  0  0
 68 84  1  0  0  0
 71 73  2  0  0  0
 71 74  1  0  0  0
 71150  1  0  0  0
 72 75  2  0  0  0
 72 76  1  0  0  0
 72151  1  0  0  0
 73 75  1  0  0  0
 73 81  1  0  0  0
 74 76  2  0  0  0
 74 82  1  0  0  0
 75 85  1  0  0  0
 76 87  1  0  0  0
 77 78  2  0  0  0
 77 85  1  0  0  0
 77152  1  0  0  0
 78 86  1  0  0  0
 78 88  1  0  0  0
 79 80  1  0  0  0
 79 85  1  0  0  0
 79 89  2  0  0  0
 80 86  1  0  0  0
 80 90  2  0  0  0
 81153  1  0  0  0
 81154  1  0  0  0
 81155  1  0  0  0
 82156  1  0  0  0
 82157  1  0  0  0
 82158  1  0  0  0
 83 84  1  0  0  0
 83 86  1  0  0  0
 83159  1  0  0  0
 83160  1  0  0  0
 84161  1  0  0  0
 84162  1  0  0  0
 87163  1  0  0  0
M  CHG  1  88  -1
M  ISO  4   1 100  68 101  84 101  87 100
M  END
> <chiral flag>
0

> <version>
0

> <s_m_source_file>
/data/baiqing/PycharmProjects/Reinvent-master-3.2/result/LINK_invent/BTK/process_docking_weight1_custom_product_contain_oxygen_bond_distance_aromatic_linkinvent_7_9_3/rearranged_h_0059.sdf

> <i_m_source_file_index>
74

> <r_mmod_Potential_Energy-OPLS-2005>
-28.8917198181152

> <r_mmod_Stretch_Energy-OPLS-2005>
62.3188323974609

> <r_mmod_Bend_Energy-OPLS-2005>
124.610862731934

> <r_mmod_Torsional_Energy-OPLS-2005>
291.967620849609

> <r_mmod_Improper_Torsional_Energy-OPLS-2005>
10.6264867782593

> <r_mmod_Van_der_Waal_Energy-OPLS-2005>
201.706069946289

> <r_mmod_Electrostatic_Energy-OPLS-2005>
-308.063537597656

> <r_mmod_Solvation_Energy-OPLS-2005>
-429.357971191406

> <b_mmod_Minimization_Converged-OPLS-2005>
0

> <r_mmod_RMS_Derivative-OPLS-2005>
4.2883734703064

$$$$
74
                    3D
 Structure written by MMmdl.
164173  0  0  1  0            999 V2000
  -30.7015  -14.4590   20.6434 C   0  0  0  0  0  0
  -30.4210  -12.3168   19.4237 C   0  0  0  0  0  0
  -29.4888  -12.5074   18.2079 C   0  0  0  0  0  0
  -28.0121  -12.3583   18.6221 C   0  0  0  0  0  0
  -27.6577  -13.2019   19.8753 C   0  0  2  0  0  0
  -28.6935  -12.9666   20.9950 C   0  0  0  0  0  0
  -25.2561  -13.8151   20.5709 C   0  0  0  0  0  0
  -24.1805  -13.0437   20.9204 C   0  0  0  0  0  0
  -24.6357  -11.6883   20.8753 C   0  0  0  0  0  0
  -23.9036  -10.4279   21.0423 C   0  0  0  0  0  0
  -24.3598   -9.4195   21.9199 C   0  0  0  0  0  0
  -23.6267   -8.2235   22.0763 C   0  0  0  0  0  0
  -22.4251   -8.0268   21.3555 C   0  0  0  0  0  0
  -21.9894   -9.0239   20.4659 C   0  0  0  0  0  0
  -22.7208  -10.2125   20.3069 C   0  0  0  0  0  0
  -21.6848   -6.0707   22.5284 C   0  0  0  0  0  0
  -21.3985   -6.5620   23.8203 C   0  0  0  0  0  0
  -21.3686   -5.6789   24.9187 C   0  0  0  0  0  0
  -21.6060   -4.3043   24.7249 C   0  0  0  0  0  0
  -21.8811   -3.8130   23.4367 C   0  0  0  0  0  0
  -21.9181   -4.6935   22.3416 C   0  0  0  0  0  0
  -22.7832  -13.5225   21.1880 C   0  0  0  0  0  0
  -22.1644   -4.2106   21.0997 F   0  0  0  0  0  0
  -21.5655   -3.4547   25.7778 F   0  0  0  0  0  0
  -30.0287  -13.2873   20.4578 N   0  0  0  0  0  0
  -26.2978  -12.9307   20.3371 N   0  0  0  0  0  0
  -25.9275  -11.6473   20.5798 N   0  0  0  0  0  0
  -22.0496  -12.8205   22.0428 N   0  0  0  0  0  0
  -25.4378  -15.1866   20.4157 N   0  0  0  0  0  0
  -31.7972  -14.6836   20.1175 O   0  0  0  0  0  0
  -21.6630   -6.8854   21.4247 O   0  0  0  0  0  0
  -22.3526  -14.5552   20.6767 O   0  0  0  0  0  0
  -24.6142  -31.8654   23.2090 C   0  0  0  0  0  0
  -25.9040  -32.4807   23.8389 C   0  0  1  0  0  0
  -27.2507  -27.4505   20.1059 C   0  0  0  0  0  0
  -25.5872  -33.8611   24.2293 N   0  0  0  0  0  0
  -23.4022  -30.4910   21.5445 C   0  0  2  0  0  0
  -24.8503  -28.9543   20.1098 C   0  0  0  0  0  0
  -22.7405  -29.4701   22.4955 C   0  0  0  0  0  0
  -18.0307  -28.1405   22.8530 C   0  0  0  0  0  0
  -24.1479  -36.7328   23.2641 C   0  0  0  0  0  0
  -25.9270  -30.8389   21.3576 C   0  0  0  0  0  0
  -26.0028  -29.4723   20.7125 C   0  0  0  0  0  0
  -27.1979  -28.7240   20.7142 C   0  0  0  0  0  0
  -26.0783  -26.9397   19.4986 C   0  0  0  0  0  0
  -24.8822  -27.6866   19.5002 C   0  0  0  0  0  0
  -23.6076  -29.8141   20.1593 C   0  0  0  0  0  0
  -25.4098  -36.3095   24.0321 C   0  0  1  0  0  0
  -20.5893  -28.3716   23.1342 C   0  0  2  0  0  0
  -20.6794  -26.9427   22.5511 C   0  0  0  0  0  0
  -19.5787  -26.6365   21.5346 C   0  0  0  0  0  0
  -18.1964  -26.7909   22.1722 C   0  0  0  0  0  0
  -19.1559  -28.8893   23.2925 C   0  0  0  0  0  0
  -18.9479  -30.1528   23.8876 C   0  0  0  0  0  0
  -17.6480  -30.6640   24.0546 C   0  0  0  0  0  0
  -25.9031  -34.9480   23.5106 C   0  0  0  0  0  0
  -16.5369  -29.9125   23.6329 C   0  0  0  0  0  0
  -16.7286  -28.6529   23.0353 C   0  0  0  0  0  0
  -26.4484  -31.6608   25.0730 C   0  0  0  0  0  0
  -25.3768  -31.3718   26.1491 C   0  0  0  0  0  0
  -27.0304  -30.3048   24.6095 C   0  0  0  0  0  0
  -27.6069  -32.4320   25.7481 C   0  0  0  0  0  0
  -27.5571  -37.1795   24.8460 C   0  0  0  0  0  0
  -21.4132  -29.3050   22.3677 N   0  0  0  0  0  0
  -26.4291  -37.3770   23.9398 N   0  0  0  0  0  0
  -24.6659  -31.0817   22.0945 N   0  0  0  0  0  0
  -23.4187  -28.8249   23.2980 O   0  0  0  0  0  0
  -28.4515  -26.7702   20.1582 O   0  0  0  0  0  0
  -26.5616  -34.8939   22.4685 O   0  0  0  0  0  0
  -23.5339  -32.1361   23.7518 O   0  0  0  0  0  0
  -30.8657  -19.5191   22.0719 C   0  0  0  0  0  0
  -31.8018  -18.5440   22.4657 C   0  0  0  0  0  0
  -29.4064  -17.7458   21.2678 C   0  0  0  0  0  0
  -29.6357  -19.1268   21.5029 C   0  0  0  0  0  0
  -31.5568  -17.1669   22.2657 C   0  0  0  0  0  0
  -30.3674  -16.7574   21.6038 C   0  0  0  0  0  0
  -28.5951  -21.7268   19.3955 C   0  0  0  0  0  0
  -28.6679  -23.1708   18.8685 C   0  0  0  0  0  0
  -29.3257  -23.9545   21.1278 C   0  0  0  0  0  0
  -29.0119  -22.5545   21.7062 C   0  0  0  0  0  0
  -28.4306  -24.2703   19.9228 C   0  0  1  0  0  0
  -32.5605  -16.1756   22.8315 C   0  0  0  0  0  0
  -28.4999  -20.1392   21.2709 C   0  0  0  0  0  0
  -28.7076  -25.6624   19.2969 C   0  0  0  0  0  0
  -28.8163  -21.4759   20.7120 N   0  0  0  0  0  0
  -30.0388  -15.3822   21.3766 N   0  0  0  0  0  0
  -28.3252  -20.8366   18.5825 O   0  0  0  0  0  0
  -31.4646  -12.4250   19.1246 H   0  0  0  0  0  0
  -30.3318  -11.3006   19.8126 H   0  0  0  0  0  0
  -29.7321  -11.7830   17.4324 H   0  0  0  0  0  0
  -29.6490  -13.4936   17.7667 H   0  0  0  0  0  0
  -27.8326  -11.3023   18.8292 H   0  0  0  0  0  0
  -27.3585  -12.6151   17.7884 H   0  0  0  0  0  0
  -27.7038  -14.2517   19.5819 H   0  0  0  0  0  0
  -28.6708  -11.9207   21.3056 H   0  0  0  0  0  0
  -28.4381  -13.5360   21.8893 H   0  0  0  0  0  0
  -25.2748   -9.5654   22.4756 H   0  0  0  0  0  0
  -23.9975   -7.4632   22.7480 H   0  0  0  0  0  0
  -21.0827   -8.8737   19.8971 H   0  0  0  0  0  0
  -22.3661  -10.9646   19.6164 H   0  0  0  0  0  0
  -21.1956   -7.6121   23.9672 H   0  0  0  0  0  0
  -21.1532   -6.0551   25.9078 H   0  0  0  0  0  0
  -22.0576   -2.7584   23.2906 H   0  0  0  0  0  0
  -22.4071  -11.9827   22.4780 H   0  0  0  0  0  0
  -21.1140  -13.1266   22.2694 H   0  0  0  0  0  0
  -24.6984  -15.8647   20.5625 H   0  0  0  0  0  0
  -26.3146  -15.6124   20.1458 H   0  0  0  0  0  0
  -26.7134  -32.5532   23.1188 H   0  0  0  0  0  0
  -24.9986  -33.9794   25.0406 H   0  0  0  0  0  0
  -22.6961  -31.3091   21.3965 H   0  0  0  0  0  0
  -23.3716  -35.9685   23.3286 H   0  0  0  0  0  0
  -24.3587  -36.8957   22.2059 H   0  0  0  0  0  0
  -23.7260  -37.6536   23.6676 H   0  0  0  0  0  0
  -26.0436  -31.5996   20.5845 H   0  0  0  0  0  0
  -26.8188  -30.8945   21.9727 H   0  0  0  0  0  0
  -28.0861  -29.1233   21.1836 H   0  0  0  0  0  0
  -26.0642  -25.9636   19.0378 H   0  0  0  0  0  0
  -23.9962  -27.2770   19.0309 H   0  0  0  0  0  0
  -23.7086  -30.5839   19.3927 H   0  0  0  0  0  0
  -22.7374  -29.2200   19.8686 H   0  0  0  0  0  0
  -25.1271  -36.1948   25.0806 H   0  0  0  0  0  0
  -21.0041  -28.3392   24.1456 H   0  0  0  0  0  0
  -20.5741  -26.2327   23.3730 H   0  0  0  0  0  0
  -21.6670  -26.7467   22.1324 H   0  0  0  0  0  0
  -19.6972  -25.6270   21.1377 H   0  0  0  0  0  0
  -19.6719  -27.3130   20.6841 H   0  0  0  0  0  0
  -17.4251  -26.6582   21.4136 H   0  0  0  0  0  0
  -18.0436  -26.0118   22.9225 H   0  0  0  0  0  0
  -19.7925  -30.7392   24.2221 H   0  0  0  0  0  0
  -17.5013  -31.6338   24.5100 H   0  0  0  0  0  0
  -15.5384  -30.3047   23.7639 H   0  0  0  0  0  0
  -15.8667  -28.0844   22.7118 H   0  0  0  0  0  0
  -24.5938  -30.7053   25.7848 H   0  0  0  0  0  0
  -24.8992  -32.2883   26.4962 H   0  0  0  0  0  0
  -25.8162  -30.8890   27.0228 H   0  0  0  0  0  0
  -26.2828  -29.6788   24.1201 H   0  0  0  0  0  0
  -27.4118  -29.7296   25.4536 H   0  0  0  0  0  0
  -27.8643  -30.4340   23.9193 H   0  0  0  0  0  0
  -27.2687  -33.3591   26.2114 H   0  0  0  0  0  0
  -28.3866  -32.6903   25.0307 H   0  0  0  0  0  0
  -28.0757  -31.8411   26.5354 H   0  0  0  0  0  0
  -28.2577  -38.0094   24.7478 H   0  0  0  0  0  0
  -28.1056  -36.2624   24.6282 H   0  0  0  0  0  0
  -27.2307  -37.1433   25.8867 H   0  0  0  0  0  0
  -20.9287  -29.8619   21.6782 H   0  0  0  0  0  0
  -26.0161  -38.2836   24.1391 H   0  0  0  0  0  0
  -31.0861  -20.5583   22.2653 H   0  0  0  0  0  0
  -32.7103  -18.8608   22.9599 H   0  0  0  0  0  0
  -28.4587  -17.4432   20.8442 H   0  0  0  0  0  0
  -27.9386  -23.2847   18.0648 H   0  0  0  0  0  0
  -29.6537  -23.3015   18.4223 H   0  0  0  0  0  0
  -30.3725  -24.0036   20.8235 H   0  0  0  0  0  0
  -29.2017  -24.7111   21.9050 H   0  0  0  0  0  0
  -28.0983  -22.6312   22.2988 H   0  0  0  0  0  0
  -29.7969  -22.2817   22.4102 H   0  0  0  0  0  0
  -27.3883  -24.2315   20.2418 H   0  0  0  0  0  0
  -33.0880  -16.6033   23.6864 H   0  0  0  0  0  0
  -33.3033  -15.9163   22.0783 H   0  0  0  0  0  0
  -32.0770  -15.2626   23.1809 H   0  0  0  0  0  0
  -28.0161  -20.2790   22.2381 H   0  0  0  0  0  0
  -27.7288  -19.6568   20.6675 H   0  0  0  0  0  0
  -28.1818  -25.7748   18.3506 H   0  0  0  0  0  0
  -29.7658  -25.7246   19.0387 H   0  0  0  0  0  0
  -29.1069  -15.1022   21.6387 H   0  0  0  0  0  0
  1 25  1  0  0  0
  1 30  2  0  0  0
  1 86  1  0  0  0
  2  3  1  0  0  0
  2 25  1  0  0  0
  2 88  1  0  0  0
  2 89  1  0  0  0
  3  4  1  0  0  0
  3 90  1  0  0  0
  3 91  1  0  0  0
  4  5  1  0  0  0
  4 92  1  0  0  0
  4 93  1  0  0  0
  5  6  1  0  0  0
  5 26  1  0  0  0
  5 94  1  0  0  0
  6 25  1  0  0  0
  6 95  1  0  0  0
  6 96  1  0  0  0
  7  8  2  0  0  0
  7 26  1  0  0  0
  7 29  1  0  0  0
  8  9  1  0  0  0
  8 22  1  0  0  0
  9 10  1  0  0  0
  9 27  2  0  0  0
 10 11  2  0  0  0
 10 15  1  0  0  0
 11 12  1  0  0  0
 11 97  1  0  0  0
 12 13  2  0  0  0
 12 98  1  0  0  0
 13 14  1  0  0  0
 13 31  1  0  0  0
 14 15  2  0  0  0
 14 99  1  0  0  0
 15100  1  0  0  0
 16 17  2  0  0  0
 16 21  1  0  0  0
 16 31  1  0  0  0
 17 18  1  0  0  0
 17101  1  0  0  0
 18 19  2  0  0  0
 18102  1  0  0  0
 19 20  1  0  0  0
 19 24  1  0  0  0
 20 21  2  0  0  0
 20103  1  0  0  0
 21 23  1  0  0  0
 22 28  1  0  0  0
 22 32  2  0  0  0
 26 27  1  0  0  0
 28104  1  0  0  0
 28105  1  0  0  0
 29106  1  0  0  0
 29107  1  0  0  0
 33 34  1  0  0  0
 33 66  1  0  0  0
 33 70  2  0  0  0
 34 36  1  0  0  0
 34 59  1  0  0  0
 34108  1  0  0  0
 35 44  2  0  0  0
 35 45  1  0  0  0
 35 68  1  0  0  0
 36 56  1  0  0  0
 36109  1  0  0  0
 37 39  1  0  0  0
 37 47  1  0  0  0
 37 66  1  0  0  0
 37110  1  0  0  0
 38 43  2  0  0  0
 38 46  1  0  0  0
 38 47  1  0  0  0
 39 64  1  0  0  0
 39 67  2  0  0  0
 40 52  1  0  0  0
 40 53  2  0  0  0
 40 58  1  0  0  0
 41111  1  0  0  0
 41112  1  0  0  0
 41113  1  0  0  0
 41 48  1  0  0  0
 42 43  1  0  0  0
 42 66  1  0  0  0
 42114  1  0  0  0
 42115  1  0  0  0
 43 44  1  0  0  0
 44116  1  0  0  0
 45 46  2  0  0  0
 45117  1  0  0  0
 46118  1  0  0  0
 47119  1  0  0  0
 47120  1  0  0  0
 48 56  1  0  0  0
 48 65  1  0  0  0
 48121  1  0  0  0
 49 50  1  0  0  0
 49 53  1  0  0  0
 49 64  1  0  0  0
 49122  1  0  0  0
 50 51  1  0  0  0
 50123  1  0  0  0
 50124  1  0  0  0
 51 52  1  0  0  0
 51125  1  0  0  0
 51126  1  0  0  0
 52127  1  0  0  0
 52128  1  0  0  0
 53 54  1  0  0  0
 54 55  2  0  0  0
 54129  1  0  0  0
 55 57  1  0  0  0
 55130  1  0  0  0
 56 69  2  0  0  0
 57 58  2  0  0  0
 57131  1  0  0  0
 58132  1  0  0  0
 59 60  1  0  0  0
 59 61  1  0  0  0
 59 62  1  0  0  0
 60133  1  0  0  0
 60134  1  0  0  0
 60135  1  0  0  0
 61136  1  0  0  0
 61137  1  0  0  0
 61138  1  0  0  0
 62139  1  0  0  0
 62140  1  0  0  0
 62141  1  0  0  0
 63 65  1  0  0  0
 63142  1  0  0  0
 63143  1  0  0  0
 63144  1  0  0  0
 64145  1  0  0  0
 65146  1  0  0  0
 68 84  1  0  0  0
 71 72  2  0  0  0
 71 74  1  0  0  0
 71147  1  0  0  0
 72 75  1  0  0  0
 72148  1  0  0  0
 73 74  2  0  0  0
 73 76  1  0  0  0
 73149  1  0  0  0
 74 83  1  0  0  0
 75 76  2  0  0  0
 75 82  1  0  0  0
 76 86  1  0  0  0
 77 78  1  0  0  0
 77 85  1  0  0  0
 77 87  2  0  0  0
 78 81  1  0  0  0
 78150  1  0  0  0
 78151  1  0  0  0
 79 80  1  0  0  0
 79 81  1  0  0  0
 79152  1  0  0  0
 79153  1  0  0  0
 80 85  1  0  0  0
 80154  1  0  0  0
 80155  1  0  0  0
 81 84  1  0  0  0
 81156  1  0  0  0
 82157  1  0  0  0
 82158  1  0  0  0
 82159  1  0  0  0
 83 85  1  0  0  0
 83160  1  0  0  0
 83161  1  0  0  0
 84162  1  0  0  0
 84163  1  0  0  0
 86164  1  0  0  0
M  ISO  4   1 100  68 101  84 101  86 100
M  END
> <chiral flag>
0

> <version>
0

> <s_m_source_file>
/data/baiqing/PycharmProjects/Reinvent-master-3.2/result/LINK_invent/BTK/process_docking_weight1_custom_product_contain_oxygen_bond_distance_aromatic_linkinvent_7_9_3/rearranged_h_0059.sdf

> <i_m_source_file_index>
75

> <r_mmod_Potential_Energy-OPLS-2005>
-50.8215408325195

> <r_mmod_Stretch_Energy-OPLS-2005>
42.4119567871094

> <r_mmod_Bend_Energy-OPLS-2005>
118.996429443359

> <r_mmod_Torsional_Energy-OPLS-2005>
241.324157714844

> <r_mmod_Improper_Torsional_Energy-OPLS-2005>
4.21886777877808

> <r_mmod_Van_der_Waal_Energy-OPLS-2005>
162.021514892578

> <r_mmod_Electrostatic_Energy-OPLS-2005>
-402.792785644531

> <r_mmod_Solvation_Energy-OPLS-2005>
-229.337249755859

> <b_mmod_Minimization_Converged-OPLS-2005>
0

> <r_mmod_RMS_Derivative-OPLS-2005>
4.3647346496582

$$$$
75
                    3D
 Structure written by MMmdl.
154162  0  0  1  0            999 V2000
  -29.0603  -14.2015   19.3231 C   0  0  0  0  0  0
  -30.6739  -12.4952   19.4447 C   0  0  0  0  0  0
  -29.6525  -11.7386   18.6492 C   0  0  0  0  0  0
  -28.5142  -11.4993   19.7093 C   0  0  0  0  0  0
  -28.0553  -12.6312   21.1075 C   0  0  2  0  0  0
  -29.3769  -13.0823   21.4784 C   0  0  0  0  0  0
  -25.7808  -14.4443   21.4438 C   0  0  0  0  0  0
  -24.5059  -13.9804   21.7810 C   0  0  0  0  0  0
  -24.9669  -12.8165   21.2392 C   0  0  0  0  0  0
  -24.0728  -10.7094   19.5088 C   0  0  0  0  0  0
  -24.4155   -9.1826   19.8405 C   0  0  0  0  0  0
  -23.8248   -8.2340   20.8373 C   0  0  0  0  0  0
  -22.4343   -8.1902   20.9554 C   0  0  0  0  0  0
  -21.8846   -9.1957   20.1044 C   0  0  0  0  0  0
  -22.6517  -10.2040   19.3326 C   0  0  0  0  0  0
  -21.7782   -6.2205   22.4689 C   0  0  0  0  0  0
  -21.4810   -6.6613   23.7820 C   0  0  0  0  0  0
  -21.4056   -5.7535   24.8686 C   0  0  0  0  0  0
  -21.6203   -4.3764   24.6689 C   0  0  0  0  0  0
  -21.8983   -3.9123   23.3727 C   0  0  0  0  0  0
  -21.9626   -4.8167   22.2869 C   0  0  0  0  0  0
  -23.0332  -14.4632   21.8735 C   0  0  0  0  0  0
  -22.1714   -4.3074   21.0497 F   0  0  0  0  0  0
  -21.5559   -3.5070   25.7108 F   0  0  0  0  0  0
  -29.8558  -13.4668   20.1653 N   0  0  0  0  0  0
  -26.7134  -13.3346   21.5324 N   0  0  0  0  0  0
  -25.9178  -12.6933   22.2094 N   0  0  0  0  0  0
  -22.2135  -13.7461   22.6579 N   0  0  0  0  0  0
  -26.2478  -15.6694   21.1514 N   0  0  0  0  0  0
  -29.9097  -15.0967   19.0396 O   0  0  0  0  0  0
  -21.6504   -7.0796   21.3639 O   0  0  0  0  0  0
  -22.4922  -15.1741   21.0319 O   0  0  0  0  0  0
  -24.7130  -31.7674   23.1393 C   0  0  0  0  0  0
  -25.9633  -32.4243   23.7938 C   0  0  1  0  0  0
  -26.6751  -26.2871   20.0611 C   0  0  0  0  0  0
  -25.6120  -33.8111   24.1773 N   0  0  0  0  0  0
  -23.5118  -30.4099   21.5142 C   0  0  2  0  0  0
  -24.8503  -28.7287   20.0474 C   0  0  0  0  0  0
  -22.7756  -29.4233   22.4619 C   0  0  0  0  0  0
  -18.0334  -28.1418   22.8451 C   0  0  0  0  0  0
  -24.1512  -36.7050   23.2654 C   0  0  0  0  0  0
  -26.1001  -30.3229   21.4571 C   0  0  0  0  0  0
  -26.0464  -28.8782   20.7503 C   0  0  0  0  0  0
  -26.9685  -27.6659   20.7405 C   0  0  0  0  0  0
  -25.5727  -26.4904   19.2445 C   0  0  0  0  0  0
  -24.6841  -27.5844   19.2678 C   0  0  0  0  0  0
  -23.7346  -29.7732   20.1204 C   0  0  0  0  0  0
  -25.4179  -36.2761   24.0243 C   0  0  1  0  0  0
  -20.5968  -28.3776   23.1107 C   0  0  2  0  0  0
  -20.6791  -26.9426   22.5393 C   0  0  0  0  0  0
  -19.5767  -26.6356   21.5210 C   0  0  0  0  0  0
  -18.1953  -26.7945   22.1616 C   0  0  0  0  0  0
  -19.1603  -28.8923   23.2765 C   0  0  0  0  0  0
  -18.9514  -30.1507   23.8815 C   0  0  0  0  0  0
  -17.6506  -30.6602   24.0551 C   0  0  0  0  0  0
  -25.9202  -34.9168   23.4853 C   0  0  0  0  0  0
  -16.5393  -29.9085   23.6357 C   0  0  0  0  0  0
  -16.7316  -28.6506   23.0373 C   0  0  0  0  0  0
  -26.4679  -31.6453   25.0725 C   0  0  0  0  0  0
  -25.3651  -31.3903   26.1282 C   0  0  0  0  0  0
  -27.0651  -30.2741   24.6932 C   0  0  0  0  0  0
  -27.6064  -32.4411   25.7536 C   0  0  0  0  0  0
  -27.5559  -37.1687   24.8461 C   0  0  0  0  0  0
  -21.4399  -29.3008   22.3401 N   0  0  0  0  0  0
  -26.4261  -37.3572   23.9405 N   0  0  0  0  0  0
  -24.8116  -30.8792   22.0832 N   0  0  0  0  0  0
  -23.4172  -28.7782   23.2950 O   0  0  0  0  0  0
  -27.1240  -24.7345   20.0592 O   0  0  0  0  0  0
  -26.5858  -34.8811   22.4487 O   0  0  0  0  0  0
  -23.6140  -32.1008   23.6213 O   0  0  0  0  0  0
  -23.0505  -11.6484   21.3085 C   0  0  0  0  0  0
  -24.6102  -10.6719   21.7229 C   0  0  0  0  0  0
  -23.1574  -12.8650   19.7963 C   0  0  0  0  0  0
  -26.0977  -11.0243   20.4521 C   0  0  0  0  0  0
  -24.6494  -13.5926   19.0278 C   0  0  0  0  0  0
  -26.1107  -12.5744   19.2093 C   0  0  0  0  0  0
  -24.9086  -17.0694   19.1690 C   0  0  0  0  0  0
  -25.7062  -18.9358   18.9289 C   0  0  0  0  0  0
  -26.0355  -20.9130   19.7257 C   0  0  0  0  0  0
  -26.4624  -23.0096   19.4575 C   0  0  0  0  0  0
  -25.0010  -15.4432   18.7279 N   0  0  0  0  0  0
  -27.5414  -13.7184   18.8736 N   0  0  0  0  0  0
  -23.9816  -17.2441   19.9557 O   0  0  0  0  0  0
  -31.4120  -12.9738   18.7979 H   0  0  0  0  0  0
  -31.2218  -11.8405   20.1244 H   0  0  0  0  0  0
  -30.0704  -10.7855   18.3200 H   0  0  0  0  0  0
  -29.3278  -12.2246   17.7258 H   0  0  0  0  0  0
  -28.9003  -10.6335   20.2519 H   0  0  0  0  0  0
  -27.8362  -11.0261   19.0038 H   0  0  0  0  0  0
  -27.9651  -13.7036   21.1820 H   0  0  0  0  0  0
  -29.9479  -12.2439   21.8782 H   0  0  0  0  0  0
  -29.4810  -13.8822   22.2269 H   0  0  0  0  0  0
  -25.4363   -8.8881   19.6400 H   0  0  0  0  0  0
  -24.4011   -7.3861   21.1788 H   0  0  0  0  0  0
  -20.8190   -9.1549   19.9295 H   0  0  0  0  0  0
  -21.9958  -10.8639   18.7833 H   0  0  0  0  0  0
  -21.2801   -7.7085   23.9546 H   0  0  0  0  0  0
  -21.1753   -6.1191   25.8592 H   0  0  0  0  0  0
  -22.0474   -2.8572   23.2017 H   0  0  0  0  0  0
  -22.5963  -13.0487   23.2790 H   0  0  0  0  0  0
  -21.2207  -13.9284   22.6597 H   0  0  0  0  0  0
  -25.6305  -16.4725   21.1898 H   0  0  0  0  0  0
  -27.2280  -15.9122   21.1029 H   0  0  0  0  0  0
  -26.7695  -32.4499   23.0593 H   0  0  0  0  0  0
  -25.0130  -33.9105   24.9836 H   0  0  0  0  0  0
  -22.8550  -31.2695   21.3624 H   0  0  0  0  0  0
  -23.3809  -35.9339   23.3210 H   0  0  0  0  0  0
  -24.3573  -36.8847   22.2091 H   0  0  0  0  0  0
  -23.7241  -37.6170   23.6836 H   0  0  0  0  0  0
  -26.4051  -31.0373   20.6914 H   0  0  0  0  0  0
  -26.9280  -30.3082   22.1516 H   0  0  0  0  0  0
  -27.8451  -27.7219   21.3700 H   0  0  0  0  0  0
  -25.2609  -25.6553   18.6342 H   0  0  0  0  0  0
  -23.7904  -27.5021   18.6639 H   0  0  0  0  0  0
  -23.9777  -30.5600   19.4052 H   0  0  0  0  0  0
  -22.8005  -29.3362   19.7630 H   0  0  0  0  0  0
  -25.1404  -36.1461   25.0728 H   0  0  0  0  0  0
  -21.0066  -28.3415   24.1228 H   0  0  0  0  0  0
  -20.5647  -26.2406   23.3666 H   0  0  0  0  0  0
  -21.6651  -26.7354   22.1214 H   0  0  0  0  0  0
  -19.6920  -25.6244   21.1294 H   0  0  0  0  0  0
  -19.6712  -27.3121   20.6703 H   0  0  0  0  0  0
  -17.4220  -26.6692   21.4021 H   0  0  0  0  0  0
  -18.0341  -26.0106   22.9029 H   0  0  0  0  0  0
  -19.7993  -30.7343   24.2143 H   0  0  0  0  0  0
  -17.5060  -31.6275   24.5168 H   0  0  0  0  0  0
  -15.5391  -30.2965   23.7726 H   0  0  0  0  0  0
  -15.8715  -28.0800   22.7135 H   0  0  0  0  0  0
  -24.5870  -30.7210   25.7593 H   0  0  0  0  0  0
  -24.8817  -32.3171   26.4379 H   0  0  0  0  0  0
  -25.7749  -30.9282   27.0271 H   0  0  0  0  0  0
  -26.3360  -29.6173   24.2181 H   0  0  0  0  0  0
  -27.4126  -29.7433   25.5806 H   0  0  0  0  0  0
  -27.9354  -30.3755   24.0448 H   0  0  0  0  0  0
  -27.2561  -33.3833   26.1760 H   0  0  0  0  0  0
  -28.4036  -32.6776   25.0476 H   0  0  0  0  0  0
  -28.0551  -31.8796   26.5740 H   0  0  0  0  0  0
  -28.2496  -38.0055   24.7534 H   0  0  0  0  0  0
  -28.1135  -36.2572   24.6257 H   0  0  0  0  0  0
  -27.2273  -37.1267   25.8860 H   0  0  0  0  0  0
  -20.9691  -29.8731   21.6530 H   0  0  0  0  0  0
  -26.0042  -38.2592   24.1443 H   0  0  0  0  0  0
  -22.1153  -11.4222   21.8023 H   0  0  0  0  0  0
  -24.6631   -9.9430   22.5201 H   0  0  0  0  0  0
  -22.2260  -13.3540   19.5476 H   0  0  0  0  0  0
  -26.8910  -10.3586   20.7453 H   0  0  0  0  0  0
  -25.2023  -19.1891   17.9963 H   0  0  0  0  0  0
  -26.7094  -18.6645   18.6003 H   0  0  0  0  0  0
  -26.8449  -20.6711   20.4140 H   0  0  0  0  0  0
  -25.1704  -20.9900   20.3848 H   0  0  0  0  0  0
  -25.5204  -23.3361   19.0173 H   0  0  0  0  0  0
  -27.1216  -22.9263   18.5939 H   0  0  0  0  0  0
  -25.7295  -15.4742   18.0310 H   0  0  0  0  0  0
  -27.2591  -14.3896   18.1776 H   0  0  0  0  0  0
  1 25  1  0  0  0
  1 30  2  0  0  0
  1 82  1  0  0  0
  2  3  1  0  0  0
  2 25  1  0  0  0
  2 84  1  0  0  0
  2 85  1  0  0  0
  3  4  1  0  0  0
  3 86  1  0  0  0
  3 87  1  0  0  0
  4  5  1  0  0  0
  4 88  1  0  0  0
  4 89  1  0  0  0
  5  6  1  0  0  0
  5 26  1  0  0  0
  5 90  1  0  0  0
  6 25  1  0  0  0
  6 91  1  0  0  0
  6 92  1  0  0  0
  7  8  2  0  0  0
  7 26  1  0  0  0
  7 29  1  0  0  0
  8  9  1  0  0  0
  8 22  1  0  0  0
  9 10  1  0  0  0
  9 27  2  0  0  0
 10 11  2  0  0  0
 10 15  1  0  0  0
 11 12  1  0  0  0
 11 93  1  0  0  0
 12 13  2  0  0  0
 12 94  1  0  0  0
 13 14  1  0  0  0
 13 31  1  0  0  0
 14 15  2  0  0  0
 14 95  1  0  0  0
 15 96  1  0  0  0
 16 17  2  0  0  0
 16 21  1  0  0  0
 16 31  1  0  0  0
 17 18  1  0  0  0
 17 97  1  0  0  0
 18 19  2  0  0  0
 18 98  1  0  0  0
 19 20  1  0  0  0
 19 24  1  0  0  0
 20 21  2  0  0  0
 20 99  1  0  0  0
 21 23  1  0  0  0
 22 28  1  0  0  0
 22 32  2  0  0  0
 26 27  1  0  0  0
 28100  1  0  0  0
 28101  1  0  0  0
 29102  1  0  0  0
 29103  1  0  0  0
 33 34  1  0  0  0
 33 66  1  0  0  0
 33 70  2  0  0  0
 34 36  1  0  0  0
 34 59  1  0  0  0
 34104  1  0  0  0
 35 44  2  0  0  0
 35 45  1  0  0  0
 35 68  1  0  0  0
 36 56  1  0  0  0
 36105  1  0  0  0
 37 39  1  0  0  0
 37 47  1  0  0  0
 37 66  1  0  0  0
 37106  1  0  0  0
 38 43  2  0  0  0
 38 46  1  0  0  0
 38 47  1  0  0  0
 39 64  1  0  0  0
 39 67  2  0  0  0
 40 52  1  0  0  0
 40 53  2  0  0  0
 40 58  1  0  0  0
 41107  1  0  0  0
 41108  1  0  0  0
 41109  1  0  0  0
 41 48  1  0  0  0
 42 43  1  0  0  0
 42 66  1  0  0  0
 42110  1  0  0  0
 42111  1  0  0  0
 43 44  1  0  0  0
 44112  1  0  0  0
 45 46  2  0  0  0
 45113  1  0  0  0
 46114  1  0  0  0
 47115  1  0  0  0
 47116  1  0  0  0
 48 56  1  0  0  0
 48 65  1  0  0  0
 48117  1  0  0  0
 49 50  1  0  0  0
 49 53  1  0  0  0
 49 64  1  0  0  0
 49118  1  0  0  0
 50 51  1  0  0  0
 50119  1  0  0  0
 50120  1  0  0  0
 51 52  1  0  0  0
 51121  1  0  0  0
 51122  1  0  0  0
 52123  1  0  0  0
 52124  1  0  0  0
 53 54  1  0  0  0
 54 55  2  0  0  0
 54125  1  0  0  0
 55 57  1  0  0  0
 55126  1  0  0  0
 56 69  2  0  0  0
 57 58  2  0  0  0
 57127  1  0  0  0
 58128  1  0  0  0
 59 60  1  0  0  0
 59 61  1  0  0  0
 59 62  1  0  0  0
 60129  1  0  0  0
 60130  1  0  0  0
 60131  1  0  0  0
 61132  1  0  0  0
 61133  1  0  0  0
 61134  1  0  0  0
 62135  1  0  0  0
 62136  1  0  0  0
 62137  1  0  0  0
 63 65  1  0  0  0
 63138  1  0  0  0
 63139  1  0  0  0
 63140  1  0  0  0
 64141  1  0  0  0
 65142  1  0  0  0
 68 80  1  0  0  0
 71 72  2  0  0  0
 71 73  1  0  0  0
 71143  1  0  0  0
 72 74  1  0  0  0
 72144  1  0  0  0
 73 75  2  0  0  0
 73145  1  0  0  0
 74 76  2  0  0  0
 74146  1  0  0  0
 75 76  1  0  0  0
 75 81  1  0  0  0
 76 82  1  0  0  0
 77 78  1  0  0  0
 77 81  1  0  0  0
 77 83  2  0  0  0
 78 79  1  0  0  0
 78147  1  0  0  0
 78148  1  0  0  0
 79 80  1  0  0  0
 79149  1  0  0  0
 79150  1  0  0  0
 80151  1  0  0  0
 80152  1  0  0  0
 81153  1  0  0  0
 82154  1  0  0  0
M  ISO  4   1 100  68 101  80 101  82 100
M  END
> <chiral flag>
0

> <version>
0

> <s_m_source_file>
/data/baiqing/PycharmProjects/Reinvent-master-3.2/result/LINK_invent/BTK/process_docking_weight1_custom_product_contain_oxygen_bond_distance_aromatic_linkinvent_7_9_3/rearranged_h_0059.sdf

> <i_m_source_file_index>
76

> <r_mmod_Potential_Energy-OPLS-2005>
20020.533203125

> <r_mmod_Stretch_Energy-OPLS-2005>
9233.7998046875

> <r_mmod_Bend_Energy-OPLS-2005>
1950.56909179688

> <r_mmod_Torsional_Energy-OPLS-2005>
804.579040527344

> <r_mmod_Improper_Torsional_Energy-OPLS-2005>
89.1052780151367

> <r_mmod_Van_der_Waal_Energy-OPLS-2005>
3556.46801757812

> <r_mmod_Electrostatic_Energy-OPLS-2005>
-452.261291503906

> <r_mmod_Solvation_Energy-OPLS-2005>
-245.631500244141

> <b_mmod_Minimization_Converged-OPLS-2005>
0

> <r_mmod_RMS_Derivative-OPLS-2005>
1.05570793151855

$$$$
76
                    3D
 Structure written by MMmdl.
158166  0  0  1  0            999 V2000
  -30.6967  -14.5543   20.4372 C   0  0  0  0  0  0
  -30.4145  -12.3230   19.4564 C   0  0  0  0  0  0
  -29.4908  -12.4373   18.2247 C   0  0  0  0  0  0
  -28.0154  -12.3181   18.6419 C   0  0  0  0  0  0
  -27.6478  -13.2164   19.8538 C   0  0  2  0  0  0
  -28.6942  -13.1078   20.9857 C   0  0  0  0  0  0
  -25.2553  -13.8189   20.5708 C   0  0  0  0  0  0
  -24.1822  -13.0451   20.9218 C   0  0  0  0  0  0
  -24.6383  -11.6920   20.8770 C   0  0  0  0  0  0
  -23.9056  -10.4299   21.0419 C   0  0  0  0  0  0
  -24.3611   -9.4207   21.9185 C   0  0  0  0  0  0
  -23.6293   -8.2241   22.0745 C   0  0  0  0  0  0
  -22.4276   -8.0280   21.3539 C   0  0  0  0  0  0
  -21.9909   -9.0255   20.4643 C   0  0  0  0  0  0
  -22.7235  -10.2137   20.3060 C   0  0  0  0  0  0
  -21.6854   -6.0740   22.5283 C   0  0  0  0  0  0
  -21.4019   -6.5645   23.8219 C   0  0  0  0  0  0
  -21.3661   -5.6793   24.9178 C   0  0  0  0  0  0
  -21.6040   -4.3055   24.7226 C   0  0  0  0  0  0
  -21.8820   -3.8150   23.4346 C   0  0  0  0  0  0
  -21.9197   -4.6969   22.3406 C   0  0  0  0  0  0
  -22.7846  -13.5244   21.1868 C   0  0  0  0  0  0
  -22.1668   -4.2157   21.0984 F   0  0  0  0  0  0
  -21.5617   -3.4535   25.7735 F   0  0  0  0  0  0
  -30.0153  -13.3755   20.4062 N   0  0  0  0  0  0
  -26.2971  -12.9368   20.3329 N   0  0  0  0  0  0
  -25.9311  -11.6525   20.5804 N   0  0  0  0  0  0
  -22.0480  -12.8244   22.0418 N   0  0  0  0  0  0
  -25.4257  -15.1908   20.4114 N   0  0  0  0  0  0
  -31.9064  -14.6145   20.2108 O   0  0  0  0  0  0
  -21.6634   -6.8881   21.4243 O   0  0  0  0  0  0
  -22.3546  -14.5553   20.6712 O   0  0  0  0  0  0
  -24.6168  -31.8659   23.2071 C   0  0  0  0  0  0
  -25.9051  -32.4809   23.8379 C   0  0  1  0  0  0
  -27.2325  -27.4037   20.0994 C   0  0  0  0  0  0
  -25.5901  -33.8610   24.2313 N   0  0  0  0  0  0
  -23.4061  -30.4891   21.5480 C   0  0  2  0  0  0
  -24.8509  -28.9503   20.1110 C   0  0  0  0  0  0
  -22.7421  -29.4650   22.4971 C   0  0  0  0  0  0
  -18.0273  -28.1376   22.8492 C   0  0  0  0  0  0
  -24.1489  -36.7314   23.2640 C   0  0  0  0  0  0
  -25.9366  -30.8212   21.3643 C   0  0  0  0  0  0
  -26.0106  -29.4522   20.7130 C   0  0  0  0  0  0
  -27.1991  -28.6830   20.7098 C   0  0  0  0  0  0
  -26.0501  -26.9202   19.4948 C   0  0  0  0  0  0
  -24.8666  -27.6843   19.5002 C   0  0  0  0  0  0
  -23.6149  -29.8216   20.1619 C   0  0  0  0  0  0
  -25.4109  -36.3106   24.0340 C   0  0  1  0  0  0
  -20.5866  -28.3667   23.1306 C   0  0  2  0  0  0
  -20.6762  -26.9401   22.5414 C   0  0  0  0  0  0
  -19.5743  -26.6384   21.5209 C   0  0  0  0  0  0
  -18.1921  -26.7920   22.1626 C   0  0  0  0  0  0
  -19.1522  -28.8837   23.2897 C   0  0  0  0  0  0
  -18.9450  -30.1442   23.8909 C   0  0  0  0  0  0
  -17.6453  -30.6585   24.0565 C   0  0  0  0  0  0
  -25.9037  -34.9471   23.5125 C   0  0  0  0  0  0
  -16.5345  -29.9088   23.6322 C   0  0  0  0  0  0
  -16.7263  -28.6502   23.0349 C   0  0  0  0  0  0
  -26.4470  -31.6597   25.0718 C   0  0  0  0  0  0
  -25.3735  -31.3715   26.1471 C   0  0  0  0  0  0
  -27.0298  -30.3038   24.6103 C   0  0  0  0  0  0
  -27.6050  -32.4316   25.7472 C   0  0  0  0  0  0
  -27.5581  -37.1810   24.8465 C   0  0  0  0  0  0
  -21.4146  -29.3034   22.3711 N   0  0  0  0  0  0
  -26.4295  -37.3790   23.9408 N   0  0  0  0  0  0
  -24.6717  -31.0744   22.0978 N   0  0  0  0  0  0
  -23.4183  -28.8197   23.3026 O   0  0  0  0  0  0
  -28.4014  -26.6609   20.1524 O   0  0  0  0  0  0
  -26.5601  -34.8924   22.4687 O   0  0  0  0  0  0
  -23.5356  -32.1420   23.7454 O   0  0  0  0  0  0
  -30.8489  -17.1666   17.0493 C   0  0  0  0  0  0
  -30.5491  -16.2723   18.0753 C   0  0  0  0  0  0
  -30.0040  -18.1300   19.5661 C   0  0  0  0  0  0
  -30.7760  -18.5486   17.2653 C   0  0  0  0  0  0
  -30.1679  -16.7159   19.3627 C   0  0  0  0  0  0
  -30.2968  -19.0604   18.5124 C   0  0  0  0  0  0
  -28.3665  -24.1536   19.6936 C   0  0  0  0  0  0
  -29.3271  -23.1963   19.7606 C   0  0  0  0  0  0
  -31.2908  -19.4172   16.1226 C   0  0  0  0  0  0
  -28.6379  -25.5945   19.2125 C   0  0  0  0  0  0
  -29.2028  -21.6682   19.9857 C   0  0  0  0  0  0
  -29.6708  -21.5212   17.3950 N   0  0  0  0  0  0
  -29.9551  -15.6961   20.3741 N   0  0  0  0  0  0
  -31.6840  -21.2950   19.0317 O   0  0  0  0  0  0
  -30.3049  -20.9049   18.6913 S   0  0  2  0  0  0
  -31.4594  -12.4054   19.1522 H   0  0  0  0  0  0
  -30.3151  -11.3410   19.9222 H   0  0  0  0  0  0
  -29.7332  -11.6564   17.5030 H   0  0  0  0  0  0
  -29.6457  -13.3807   17.7077 H   0  0  0  0  0  0
  -27.8397  -11.2716   18.8928 H   0  0  0  0  0  0
  -27.3645  -12.5383   17.7955 H   0  0  0  0  0  0
  -27.6591  -14.2428   19.4871 H   0  0  0  0  0  0
  -28.6785  -12.1136   21.4342 H   0  0  0  0  0  0
  -28.4696  -13.8121   21.7884 H   0  0  0  0  0  0
  -25.2750   -9.5679   22.4767 H   0  0  0  0  0  0
  -23.9998   -7.4628   22.7463 H   0  0  0  0  0  0
  -21.0835   -8.8778   19.8956 H   0  0  0  0  0  0
  -22.3687  -10.9679   19.6174 H   0  0  0  0  0  0
  -21.2013   -7.6154   23.9730 H   0  0  0  0  0  0
  -21.1480   -6.0518   25.9083 H   0  0  0  0  0  0
  -22.0594   -2.7613   23.2845 H   0  0  0  0  0  0
  -22.4089  -11.9914   22.4829 H   0  0  0  0  0  0
  -21.1092  -13.1272   22.2604 H   0  0  0  0  0  0
  -24.6547  -15.8415   20.5171 H   0  0  0  0  0  0
  -26.2697  -15.6313   20.0688 H   0  0  0  0  0  0
  -26.7122  -32.5509   23.1142 H   0  0  0  0  0  0
  -25.0054  -33.9766   25.0460 H   0  0  0  0  0  0
  -22.6959  -31.3068   21.4085 H   0  0  0  0  0  0
  -23.3743  -35.9655   23.3311 H   0  0  0  0  0  0
  -24.3585  -36.8914   22.2052 H   0  0  0  0  0  0
  -23.7244  -37.6526   23.6643 H   0  0  0  0  0  0
  -26.0534  -31.5843   20.5934 H   0  0  0  0  0  0
  -26.8235  -30.8747   21.9839 H   0  0  0  0  0  0
  -28.0929  -29.0661   21.1825 H   0  0  0  0  0  0
  -26.0179  -25.9427   19.0366 H   0  0  0  0  0  0
  -23.9721  -27.2882   19.0390 H   0  0  0  0  0  0
  -23.7256  -30.5976   19.4036 H   0  0  0  0  0  0
  -22.7370  -29.2452   19.8644 H   0  0  0  0  0  0
  -25.1285  -36.1978   25.0834 H   0  0  0  0  0  0
  -20.9960  -28.3235   24.1428 H   0  0  0  0  0  0
  -20.5664  -26.2276   23.3602 H   0  0  0  0  0  0
  -21.6634  -26.7439   22.1205 H   0  0  0  0  0  0
  -19.6905  -25.6300   21.1227 H   0  0  0  0  0  0
  -19.6682  -27.3204   20.6750 H   0  0  0  0  0  0
  -17.4190  -26.6666   21.4027 H   0  0  0  0  0  0
  -18.0327  -26.0061   22.9020 H   0  0  0  0  0  0
  -19.7928  -30.7249   24.2289 H   0  0  0  0  0  0
  -17.5011  -31.6263   24.5168 H   0  0  0  0  0  0
  -15.5347  -30.2999   23.7635 H   0  0  0  0  0  0
  -15.8662  -28.0828   22.7058 H   0  0  0  0  0  0
  -24.5903  -30.7067   25.7811 H   0  0  0  0  0  0
  -24.8938  -32.2875   26.4928 H   0  0  0  0  0  0
  -25.8091  -30.8878   27.0223 H   0  0  0  0  0  0
  -26.2840  -29.6799   24.1161 H   0  0  0  0  0  0
  -27.4067  -29.7276   25.4565 H   0  0  0  0  0  0
  -27.8677  -30.4353   23.9252 H   0  0  0  0  0  0
  -27.2680  -33.3614   26.2066 H   0  0  0  0  0  0
  -28.3848  -32.6877   25.0287 H   0  0  0  0  0  0
  -28.0730  -31.8429   26.5371 H   0  0  0  0  0  0
  -28.2610  -38.0098   24.7501 H   0  0  0  0  0  0
  -28.1064  -36.2628   24.6302 H   0  0  0  0  0  0
  -27.2296  -37.1473   25.8868 H   0  0  0  0  0  0
  -20.9309  -29.8764   21.6938 H   0  0  0  0  0  0
  -26.0186  -38.2871   24.1399 H   0  0  0  0  0  0
  -31.1843  -16.7739   16.0987 H   0  0  0  0  0  0
  -30.6709  -15.2258   17.8516 H   0  0  0  0  0  0
  -29.7044  -18.5116   20.5309 H   0  0  0  0  0  0
  -27.3370  -23.9090   19.9127 H   0  0  0  0  0  0
  -30.3436  -23.5132   19.5691 H   0  0  0  0  0  0
  -31.9195  -18.8425   15.4422 H   0  0  0  0  0  0
  -31.9079  -20.2399   16.4835 H   0  0  0  0  0  0
  -30.4657  -19.8184   15.5348 H   0  0  0  0  0  0
  -28.1128  -25.7637   18.2719 H   0  0  0  0  0  0
  -29.6933  -25.6623   18.9482 H   0  0  0  0  0  0
  -28.1851  -21.2981   19.8707 H   0  0  0  0  0  0
  -29.5759  -21.3707   20.9660 H   0  0  0  0  0  0
  -28.7346  -21.1366   17.2227 H   0  0  0  0  0  0
  -29.0266  -15.6470   20.7661 H   0  0  0  0  0  0
  1 25  1  0  0  0
  1 30  2  0  0  0
  1 83  1  0  0  0
  2  3  1  0  0  0
  2 25  1  0  0  0
  2 86  1  0  0  0
  2 87  1  0  0  0
  3  4  1  0  0  0
  3 88  1  0  0  0
  3 89  1  0  0  0
  4  5  1  0  0  0
  4 90  1  0  0  0
  4 91  1  0  0  0
  5  6  1  0  0  0
  5 26  1  0  0  0
  5 92  1  0  0  0
  6 25  1  0  0  0
  6 93  1  0  0  0
  6 94  1  0  0  0
  7  8  2  0  0  0
  7 26  1  0  0  0
  7 29  1  0  0  0
  8  9  1  0  0  0
  8 22  1  0  0  0
  9 10  1  0  0  0
  9 27  2  0  0  0
 10 11  2  0  0  0
 10 15  1  0  0  0
 11 12  1  0  0  0
 11 95  1  0  0  0
 12 13  2  0  0  0
 12 96  1  0  0  0
 13 14  1  0  0  0
 13 31  1  0  0  0
 14 15  2  0  0  0
 14 97  1  0  0  0
 15 98  1  0  0  0
 16 17  2  0  0  0
 16 21  1  0  0  0
 16 31  1  0  0  0
 17 18  1  0  0  0
 17 99  1  0  0  0
 18 19  2  0  0  0
 18100  1  0  0  0
 19 20  1  0  0  0
 19 24  1  0  0  0
 20 21  2  0  0  0
 20101  1  0  0  0
 21 23  1  0  0  0
 22 28  1  0  0  0
 22 32  2  0  0  0
 26 27  1  0  0  0
 28102  1  0  0  0
 28103  1  0  0  0
 29104  1  0  0  0
 29105  1  0  0  0
 33 34  1  0  0  0
 33 66  1  0  0  0
 33 70  2  0  0  0
 34 36  1  0  0  0
 34 59  1  0  0  0
 34106  1  0  0  0
 35 44  2  0  0  0
 35 45  1  0  0  0
 35 68  1  0  0  0
 36 56  1  0  0  0
 36107  1  0  0  0
 37 39  1  0  0  0
 37 47  1  0  0  0
 37 66  1  0  0  0
 37108  1  0  0  0
 38 43  2  0  0  0
 38 46  1  0  0  0
 38 47  1  0  0  0
 39 64  1  0  0  0
 39 67  2  0  0  0
 40 52  1  0  0  0
 40 53  2  0  0  0
 40 58  1  0  0  0
 41109  1  0  0  0
 41110  1  0  0  0
 41111  1  0  0  0
 41 48  1  0  0  0
 42 43  1  0  0  0
 42 66  1  0  0  0
 42112  1  0  0  0
 42113  1  0  0  0
 43 44  1  0  0  0
 44114  1  0  0  0
 45 46  2  0  0  0
 45115  1  0  0  0
 46116  1  0  0  0
 47117  1  0  0  0
 47118  1  0  0  0
 48 56  1  0  0  0
 48 65  1  0  0  0
 48119  1  0  0  0
 49 50  1  0  0  0
 49 53  1  0  0  0
 49 64  1  0  0  0
 49120  1  0  0  0
 50 51  1  0  0  0
 50121  1  0  0  0
 50122  1  0  0  0
 51 52  1  0  0  0
 51123  1  0  0  0
 51124  1  0  0  0
 52125  1  0  0  0
 52126  1  0  0  0
 53 54  1  0  0  0
 54 55  2  0  0  0
 54127  1  0  0  0
 55 57  1  0  0  0
 55128  1  0  0  0
 56 69  2  0  0  0
 57 58  2  0  0  0
 57129  1  0  0  0
 58130  1  0  0  0
 59 60  1  0  0  0
 59 61  1  0  0  0
 59 62  1  0  0  0
 60131  1  0  0  0
 60132  1  0  0  0
 60133  1  0  0  0
 61134  1  0  0  0
 61135  1  0  0  0
 61136  1  0  0  0
 62137  1  0  0  0
 62138  1  0  0  0
 62139  1  0  0  0
 63 65  1  0  0  0
 63140  1  0  0  0
 63141  1  0  0  0
 63142  1  0  0  0
 64143  1  0  0  0
 65144  1  0  0  0
 68 80  1  0  0  0
 71 72  2  0  0  0
 71 74  1  0  0  0
 71145  1  0  0  0
 72 75  1  0  0  0
 72146  1  0  0  0
 73 75  2  0  0  0
 73 76  1  0  0  0
 73147  1  0  0  0
 74 76  2  0  0  0
 74 79  1  0  0  0
 75 83  1  0  0  0
 76 85  1  0  0  0
 77 78  2  0  0  0
 77 80  1  0  0  0
 77148  1  0  0  0
 78 81  1  0  0  0
 78149  1  0  0  0
 79150  1  0  0  0
 79151  1  0  0  0
 79152  1  0  0  0
 80153  1  0  0  0
 80154  1  0  0  0
 81155  1  0  0  0
 81156  1  0  0  0
 81 85  1  0  0  0
 82 85  2  0  0  0
 82157  1  0  0  0
 83158  1  0  0  0
 84 85  2  0  0  0
M  ISO  4   1 100  68 101  80 101  83 100
M  END
> <chiral flag>
0

> <version>
0

> <s_m_source_file>
/data/baiqing/PycharmProjects/Reinvent-master-3.2/result/LINK_invent/BTK/process_docking_weight1_custom_product_contain_oxygen_bond_distance_aromatic_linkinvent_7_9_3/rearranged_h_0059.sdf

> <i_m_source_file_index>
77

> <r_mmod_Potential_Energy-OPLS-2005>
-7.69776725769043

> <r_mmod_Stretch_Energy-OPLS-2005>
54.8256187438965

> <r_mmod_Bend_Energy-OPLS-2005>
144.541870117188

> <r_mmod_Torsional_Energy-OPLS-2005>
252.530410766602

> <r_mmod_Improper_Torsional_Energy-OPLS-2005>
12.607385635376

> <r_mmod_Van_der_Waal_Energy-OPLS-2005>
158.137069702148

> <r_mmod_Electrostatic_Energy-OPLS-2005>
-396.533294677734

> <r_mmod_Solvation_Energy-OPLS-2005>
-267.029968261719

> <b_mmod_Minimization_Converged-OPLS-2005>
0

> <r_mmod_RMS_Derivative-OPLS-2005>
1.04720032215118

$$$$
77
                    3D
 Structure written by MMmdl.
157165  0  0  1  0            999 V2000
  -30.5989  -14.6693   20.5039 C   0  0  0  0  0  0
  -30.4431  -12.4128   19.4561 C   0  0  0  0  0  0
  -29.5122  -12.5204   18.2264 C   0  0  0  0  0  0
  -28.0346  -12.3530   18.6352 C   0  0  0  0  0  0
  -27.6551  -13.2192   19.8657 C   0  0  2  0  0  0
  -28.6984  -13.0675   20.9959 C   0  0  0  0  0  0
  -25.2563  -13.8177   20.5691 C   0  0  0  0  0  0
  -24.1826  -13.0438   20.9179 C   0  0  0  0  0  0
  -24.6398  -11.6909   20.8719 C   0  0  0  0  0  0
  -23.9067  -10.4292   21.0395 C   0  0  0  0  0  0
  -24.3617   -9.4209   21.9174 C   0  0  0  0  0  0
  -23.6295   -8.2244   22.0750 C   0  0  0  0  0  0
  -22.4274   -8.0282   21.3544 C   0  0  0  0  0  0
  -21.9907   -9.0255   20.4651 C   0  0  0  0  0  0
  -22.7234  -10.2134   20.3052 C   0  0  0  0  0  0
  -21.6855   -6.0736   22.5279 C   0  0  0  0  0  0
  -21.4014   -6.5637   23.8212 C   0  0  0  0  0  0
  -21.3655   -5.6789   24.9174 C   0  0  0  0  0  0
  -21.6051   -4.3053   24.7225 C   0  0  0  0  0  0
  -21.8818   -3.8144   23.4346 C   0  0  0  0  0  0
  -21.9191   -4.6962   22.3403 C   0  0  0  0  0  0
  -22.7848  -13.5232   21.1846 C   0  0  0  0  0  0
  -22.1664   -4.2148   21.0981 F   0  0  0  0  0  0
  -21.5626   -3.4535   25.7737 F   0  0  0  0  0  0
  -30.0125  -13.4282   20.4406 N   0  0  0  0  0  0
  -26.2995  -12.9363   20.3318 N   0  0  0  0  0  0
  -25.9327  -11.6510   20.5732 N   0  0  0  0  0  0
  -22.0488  -12.8234   22.0412 N   0  0  0  0  0  0
  -25.4275  -15.1901   20.4129 N   0  0  0  0  0  0
  -31.7390  -14.8572   20.0672 O   0  0  0  0  0  0
  -21.6644   -6.8876   21.4239 O   0  0  0  0  0  0
  -22.3533  -14.5538   20.6686 O   0  0  0  0  0  0
  -24.6263  -31.8560   23.1983 C   0  0  0  0  0  0
  -25.9106  -32.4753   23.8319 C   0  0  1  0  0  0
  -27.2375  -27.3028   20.1169 C   0  0  0  0  0  0
  -25.5912  -33.8554   24.2248 N   0  0  0  0  0  0
  -23.4215  -30.4758   21.5408 C   0  0  2  0  0  0
  -24.8695  -28.9204   20.1117 C   0  0  0  0  0  0
  -22.7472  -29.4599   22.4929 C   0  0  0  0  0  0
  -18.0282  -28.1385   22.8481 C   0  0  0  0  0  0
  -24.1488  -36.7288   23.2639 C   0  0  0  0  0  0
  -25.9615  -30.7802   21.3715 C   0  0  0  0  0  0
  -26.0354  -29.4047   20.7156 C   0  0  0  0  0  0
  -27.2166  -28.6059   20.7083 C   0  0  0  0  0  0
  -26.0433  -26.8626   19.5029 C   0  0  0  0  0  0
  -24.8761  -27.6557   19.4989 C   0  0  0  0  0  0
  -23.6370  -29.8022   20.1585 C   0  0  0  0  0  0
  -25.4111  -36.3069   24.0325 C   0  0  1  0  0  0
  -20.5881  -28.3682   23.1284 C   0  0  2  0  0  0
  -20.6767  -26.9406   22.5413 C   0  0  0  0  0  0
  -19.5748  -26.6382   21.5208 C   0  0  0  0  0  0
  -18.1928  -26.7929   22.1621 C   0  0  0  0  0  0
  -19.1536  -28.8852   23.2879 C   0  0  0  0  0  0
  -18.9460  -30.1455   23.8893 C   0  0  0  0  0  0
  -17.6459  -30.6589   24.0560 C   0  0  0  0  0  0
  -25.9050  -34.9438   23.5094 C   0  0  0  0  0  0
  -16.5350  -29.9085   23.6332 C   0  0  0  0  0  0
  -16.7269  -28.6506   23.0349 C   0  0  0  0  0  0
  -26.4486  -31.6582   25.0709 C   0  0  0  0  0  0
  -25.3716  -31.3737   26.1441 C   0  0  0  0  0  0
  -27.0330  -30.2999   24.6190 C   0  0  0  0  0  0
  -27.6042  -32.4325   25.7479 C   0  0  0  0  0  0
  -27.5582  -37.1792   24.8459 C   0  0  0  0  0  0
  -21.4185  -29.3031   22.3677 N   0  0  0  0  0  0
  -26.4286  -37.3769   23.9414 N   0  0  0  0  0  0
  -24.6885  -31.0550   22.0939 N   0  0  0  0  0  0
  -23.4187  -28.8153   23.3029 O   0  0  0  0  0  0
  -28.3955  -26.5070   20.1795 O   0  0  0  0  0  0
  -26.5628  -34.8915   22.4667 O   0  0  0  0  0  0
  -23.5425  -32.1365   23.7305 O   0  0  0  0  0  0
  -29.3189  -17.6246   19.4481 C   0  0  0  0  0  0
  -29.8810  -18.1093   21.7257 C   0  0  0  0  0  0
  -29.0283  -19.9756   20.2928 C   0  0  0  0  0  0
  -28.9595  -18.9975   19.2419 C   0  0  0  0  0  0
  -29.7564  -17.1288   20.7024 C   0  0  0  0  0  0
  -29.5435  -19.4885   21.5300 C   0  0  0  0  0  0
  -28.3609  -21.3798   20.1675 C   0  0  0  0  0  0
  -28.4438  -19.3768   17.8606 C   0  0  0  0  0  0
  -29.9179  -25.0722   19.0426 C   0  0  0  0  0  0
  -28.3607  -23.9142   20.7253 C   0  0  0  0  0  0
  -28.5200  -25.1115   19.6754 C   0  0  1  0  0  0
  -29.8217  -15.6891   20.9973 N   0  0  0  0  0  0
  -28.9970  -22.5541   20.4680 N   0  0  0  0  0  0
  -27.1851  -21.4206   19.7984 O   0  0  0  0  0  0
  -29.6473  -20.3301   22.5876 F   0  0  0  0  0  0
  -31.4834  -12.5484   19.1559 H   0  0  0  0  0  0
  -30.3886  -11.4145   19.8939 H   0  0  0  0  0  0
  -29.7835  -11.7695   17.4830 H   0  0  0  0  0  0
  -29.6493  -13.4891   17.7435 H   0  0  0  0  0  0
  -27.8707  -11.2989   18.8614 H   0  0  0  0  0  0
  -27.3818  -12.5883   17.7934 H   0  0  0  0  0  0
  -27.6751  -14.2563   19.5294 H   0  0  0  0  0  0
  -28.7157  -12.0400   21.3634 H   0  0  0  0  0  0
  -28.4356  -13.6817   21.8575 H   0  0  0  0  0  0
  -25.2766   -9.5691   22.4737 H   0  0  0  0  0  0
  -24.0012   -7.4638   22.7462 H   0  0  0  0  0  0
  -21.0840   -8.8776   19.8958 H   0  0  0  0  0  0
  -22.3695  -10.9669   19.6159 H   0  0  0  0  0  0
  -21.2011   -7.6146   23.9719 H   0  0  0  0  0  0
  -21.1478   -6.0517   25.9078 H   0  0  0  0  0  0
  -22.0601   -2.7608   23.2845 H   0  0  0  0  0  0
  -22.4119  -11.9916   22.4830 H   0  0  0  0  0  0
  -21.1101  -13.1258   22.2599 H   0  0  0  0  0  0
  -24.6615  -15.8445   20.5301 H   0  0  0  0  0  0
  -26.2822  -15.6332   20.0999 H   0  0  0  0  0  0
  -26.7172  -32.5413   23.1060 H   0  0  0  0  0  0
  -25.0039  -33.9689   25.0378 H   0  0  0  0  0  0
  -22.7161  -31.2960   21.3931 H   0  0  0  0  0  0
  -23.3751  -35.9622   23.3291 H   0  0  0  0  0  0
  -24.3579  -36.8922   22.2058 H   0  0  0  0  0  0
  -23.7245  -37.6485   23.6671 H   0  0  0  0  0  0
  -26.0950  -31.5422   20.6021 H   0  0  0  0  0  0
  -26.8407  -30.8291   22.0025 H   0  0  0  0  0  0
  -28.1131  -28.9754   21.1865 H   0  0  0  0  0  0
  -25.9774  -25.8912   19.0382 H   0  0  0  0  0  0
  -23.9792  -27.2746   19.0303 H   0  0  0  0  0  0
  -23.7546  -30.5736   19.3963 H   0  0  0  0  0  0
  -22.7575  -29.2279   19.8614 H   0  0  0  0  0  0
  -25.1296  -36.1909   25.0817 H   0  0  0  0  0  0
  -20.9970  -28.3261   24.1404 H   0  0  0  0  0  0
  -20.5655  -26.2293   23.3611 H   0  0  0  0  0  0
  -21.6639  -26.7430   22.1217 H   0  0  0  0  0  0
  -19.6908  -25.6292   21.1240 H   0  0  0  0  0  0
  -19.6693  -27.3188   20.6734 H   0  0  0  0  0  0
  -17.4197  -26.6669   21.4026 H   0  0  0  0  0  0
  -18.0336  -26.0075   22.9022 H   0  0  0  0  0  0
  -19.7938  -30.7272   24.2262 H   0  0  0  0  0  0
  -17.5016  -31.6267   24.5166 H   0  0  0  0  0  0
  -15.5351  -30.2984   23.7664 H   0  0  0  0  0  0
  -15.8668  -28.0825   22.7061 H   0  0  0  0  0  0
  -24.5881  -30.7094   25.7779 H   0  0  0  0  0  0
  -24.8915  -32.2908   26.4863 H   0  0  0  0  0  0
  -25.8036  -30.8917   27.0221 H   0  0  0  0  0  0
  -26.2909  -29.6748   24.1209 H   0  0  0  0  0  0
  -27.4004  -29.7266   25.4712 H   0  0  0  0  0  0
  -27.8789  -30.4274   23.9431 H   0  0  0  0  0  0
  -27.2645  -33.3621   26.2061 H   0  0  0  0  0  0
  -28.3846  -32.6896   25.0305 H   0  0  0  0  0  0
  -28.0719  -31.8451   26.5391 H   0  0  0  0  0  0
  -28.2584  -38.0103   24.7520 H   0  0  0  0  0  0
  -28.1091  -36.2634   24.6259 H   0  0  0  0  0  0
  -27.2303  -37.1415   25.8861 H   0  0  0  0  0  0
  -20.9363  -29.8743   21.6877 H   0  0  0  0  0  0
  -26.0163  -38.2840   24.1424 H   0  0  0  0  0  0
  -29.1795  -16.9218   18.6377 H   0  0  0  0  0  0
  -30.1869  -17.7989   22.7139 H   0  0  0  0  0  0
  -28.7139  -18.6292   17.1142 H   0  0  0  0  0  0
  -28.8637  -20.3274   17.5307 H   0  0  0  0  0  0
  -27.3568  -19.4612   17.8689 H   0  0  0  0  0  0
  -30.0897  -24.1342   18.5140 H   0  0  0  0  0  0
  -30.6980  -25.1786   19.7969 H   0  0  0  0  0  0
  -30.0441  -25.8776   18.3186 H   0  0  0  0  0  0
  -27.3006  -23.7863   20.9475 H   0  0  0  0  0  0
  -28.7990  -24.2539   21.6637 H   0  0  0  0  0  0
  -27.8290  -24.9367   18.8534 H   0  0  0  0  0  0
  -29.0060  -15.3400   21.4781 H   0  0  0  0  0  0
  -29.9736  -22.4743   20.7182 H   0  0  0  0  0  0
  1 25  1  0  0  0
  1 30  2  0  0  0
  1 82  1  0  0  0
  2  3  1  0  0  0
  2 25  1  0  0  0
  2 86  1  0  0  0
  2 87  1  0  0  0
  3  4  1  0  0  0
  3 88  1  0  0  0
  3 89  1  0  0  0
  4  5  1  0  0  0
  4 90  1  0  0  0
  4 91  1  0  0  0
  5  6  1  0  0  0
  5 26  1  0  0  0
  5 92  1  0  0  0
  6 25  1  0  0  0
  6 93  1  0  0  0
  6 94  1  0  0  0
  7  8  2  0  0  0
  7 26  1  0  0  0
  7 29  1  0  0  0
  8  9  1  0  0  0
  8 22  1  0  0  0
  9 10  1  0  0  0
  9 27  2  0  0  0
 10 11  2  0  0  0
 10 15  1  0  0  0
 11 12  1  0  0  0
 11 95  1  0  0  0
 12 13  2  0  0  0
 12 96  1  0  0  0
 13 14  1  0  0  0
 13 31  1  0  0  0
 14 15  2  0  0  0
 14 97  1  0  0  0
 15 98  1  0  0  0
 16 17  2  0  0  0
 16 21  1  0  0  0
 16 31  1  0  0  0
 17 18  1  0  0  0
 17 99  1  0  0  0
 18 19  2  0  0  0
 18100  1  0  0  0
 19 20  1  0  0  0
 19 24  1  0  0  0
 20 21  2  0  0  0
 20101  1  0  0  0
 21 23  1  0  0  0
 22 28  1  0  0  0
 22 32  2  0  0  0
 26 27  1  0  0  0
 28102  1  0  0  0
 28103  1  0  0  0
 29104  1  0  0  0
 29105  1  0  0  0
 33 34  1  0  0  0
 33 66  1  0  0  0
 33 70  2  0  0  0
 34 36  1  0  0  0
 34 59  1  0  0  0
 34106  1  0  0  0
 35 44  2  0  0  0
 35 45  1  0  0  0
 35 68  1  0  0  0
 36 56  1  0  0  0
 36107  1  0  0  0
 37 39  1  0  0  0
 37 47  1  0  0  0
 37 66  1  0  0  0
 37108  1  0  0  0
 38 43  2  0  0  0
 38 46  1  0  0  0
 38 47  1  0  0  0
 39 64  1  0  0  0
 39 67  2  0  0  0
 40 52  1  0  0  0
 40 53  2  0  0  0
 40 58  1  0  0  0
 41109  1  0  0  0
 41110  1  0  0  0
 41111  1  0  0  0
 41 48  1  0  0  0
 42 43  1  0  0  0
 42 66  1  0  0  0
 42112  1  0  0  0
 42113  1  0  0  0
 43 44  1  0  0  0
 44114  1  0  0  0
 45 46  2  0  0  0
 45115  1  0  0  0
 46116  1  0  0  0
 47117  1  0  0  0
 47118  1  0  0  0
 48 56  1  0  0  0
 48 65  1  0  0  0
 48119  1  0  0  0
 49 50  1  0  0  0
 49 53  1  0  0  0
 49 64  1  0  0  0
 49120  1  0  0  0
 50 51  1  0  0  0
 50121  1  0  0  0
 50122  1  0  0  0
 51 52  1  0  0  0
 51123  1  0  0  0
 51124  1  0  0  0
 52125  1  0  0  0
 52126  1  0  0  0
 53 54  1  0  0  0
 54 55  2  0  0  0
 54127  1  0  0  0
 55 57  1  0  0  0
 55128  1  0  0  0
 56 69  2  0  0  0
 57 58  2  0  0  0
 57129  1  0  0  0
 58130  1  0  0  0
 59 60  1  0  0  0
 59 61  1  0  0  0
 59 62  1  0  0  0
 60131  1  0  0  0
 60132  1  0  0  0
 60133  1  0  0  0
 61134  1  0  0  0
 61135  1  0  0  0
 61136  1  0  0  0
 62137  1  0  0  0
 62138  1  0  0  0
 62139  1  0  0  0
 63 65  1  0  0  0
 63140  1  0  0  0
 63141  1  0  0  0
 63142  1  0  0  0
 64143  1  0  0  0
 65144  1  0  0  0
 68 81  1  0  0  0
 71 74  2  0  0  0
 71 75  1  0  0  0
 71145  1  0  0  0
 72 75  2  0  0  0
 72 76  1  0  0  0
 72146  1  0  0  0
 73 74  1  0  0  0
 73 76  2  0  0  0
 73 77  1  0  0  0
 74 78  1  0  0  0
 75 82  1  0  0  0
 76 85  1  0  0  0
 77 83  1  0  0  0
 77 84  2  0  0  0
 78147  1  0  0  0
 78148  1  0  0  0
 78149  1  0  0  0
 79150  1  0  0  0
 79151  1  0  0  0
 79152  1  0  0  0
 79 81  1  0  0  0
 80 81  1  0  0  0
 80 83  1  0  0  0
 80153  1  0  0  0
 80154  1  0  0  0
 81155  1  0  0  0
 82156  1  0  0  0
 83157  1  0  0  0
M  ISO  4   1 100  68 101  81 101  82 100
M  END
> <chiral flag>
0

> <version>
0

> <s_m_source_file>
/data/baiqing/PycharmProjects/Reinvent-master-3.2/result/LINK_invent/BTK/process_docking_weight1_custom_product_contain_oxygen_bond_distance_aromatic_linkinvent_7_9_3/rearranged_h_0059.sdf

> <i_m_source_file_index>
78

> <r_mmod_Potential_Energy-OPLS-2005>
106.64136505127

> <r_mmod_Stretch_Energy-OPLS-2005>
91.8917846679688

> <r_mmod_Bend_Energy-OPLS-2005>
161.965423583984

> <r_mmod_Torsional_Energy-OPLS-2005>
267.680358886719

> <r_mmod_Improper_Torsional_Energy-OPLS-2005>
6.6960768699646

> <r_mmod_Van_der_Waal_Energy-OPLS-2005>
136.471054077148

> <r_mmod_Electrostatic_Energy-OPLS-2005>
-391.660125732422

> <r_mmod_Solvation_Energy-OPLS-2005>
-220.589477539062

> <b_mmod_Minimization_Converged-OPLS-2005>
0

> <r_mmod_RMS_Derivative-OPLS-2005>
1.08085405826569

$$$$
78
                    3D
 Structure written by MMmdl.
167176  0  0  1  0            999 V2000
  -30.7228  -14.5167   20.3398 C   0  0  0  0  0  0
  -30.4134  -12.2893   19.4067 C   0  0  0  0  0  0
  -29.4854  -12.4293   18.1825 C   0  0  0  0  0  0
  -28.0045  -12.3464   18.6045 C   0  0  0  0  0  0
  -27.6526  -13.2166   19.8443 C   0  0  2  0  0  0
  -28.7156  -13.1055   20.9553 C   0  0  0  0  0  0
  -25.2595  -13.8193   20.5701 C   0  0  0  0  0  0
  -24.1846  -13.0457   20.9168 C   0  0  0  0  0  0
  -24.6430  -11.6937   20.8725 C   0  0  0  0  0  0
  -23.9092  -10.4312   21.0394 C   0  0  0  0  0  0
  -24.3634   -9.4233   21.9177 C   0  0  0  0  0  0
  -23.6313   -8.2262   22.0751 C   0  0  0  0  0  0
  -22.4277   -8.0305   21.3560 C   0  0  0  0  0  0
  -21.9926   -9.0283   20.4660 C   0  0  0  0  0  0
  -22.7259  -10.2158   20.3060 C   0  0  0  0  0  0
  -21.6850   -6.0748   22.5280 C   0  0  0  0  0  0
  -21.4032   -6.5659   23.8208 C   0  0  0  0  0  0
  -21.3646   -5.6807   24.9165 C   0  0  0  0  0  0
  -21.6021   -4.3066   24.7242 C   0  0  0  0  0  0
  -21.8795   -3.8166   23.4365 C   0  0  0  0  0  0
  -21.9194   -4.6976   22.3420 C   0  0  0  0  0  0
  -22.7854  -13.5235   21.1844 C   0  0  0  0  0  0
  -22.1653   -4.2161   21.0993 F   0  0  0  0  0  0
  -21.5638   -3.4559   25.7764 F   0  0  0  0  0  0
  -30.0279  -13.3485   20.3436 N   0  0  0  0  0  0
  -26.3022  -12.9384   20.3302 N   0  0  0  0  0  0
  -25.9366  -11.6537   20.5754 N   0  0  0  0  0  0
  -22.0483  -12.8200   22.0370 N   0  0  0  0  0  0
  -25.4338  -15.1914   20.4143 N   0  0  0  0  0  0
  -31.9493  -14.5408   20.4424 O   0  0  0  0  0  0
  -21.6639   -6.8902   21.4248 O   0  0  0  0  0  0
  -22.3514  -14.5543   20.6718 O   0  0  0  0  0  0
  -24.6130  -31.8702   23.2103 C   0  0  0  0  0  0
  -25.9039  -32.4832   23.8386 C   0  0  1  0  0  0
  -27.2422  -27.4522   20.1165 C   0  0  0  0  0  0
  -25.5906  -33.8620   24.2334 N   0  0  0  0  0  0
  -23.4013  -30.4943   21.5468 C   0  0  2  0  0  0
  -24.8502  -28.9607   20.1164 C   0  0  0  0  0  0
  -22.7392  -29.4696   22.4979 C   0  0  0  0  0  0
  -18.0283  -28.1401   22.8495 C   0  0  0  0  0  0
  -24.1487  -36.7309   23.2632 C   0  0  0  0  0  0
  -25.9252  -30.8467   21.3592 C   0  0  0  0  0  0
  -26.0073  -29.4817   20.7116 C   0  0  0  0  0  0
  -27.2073  -28.7373   20.7078 C   0  0  0  0  0  0
  -26.0761  -26.9499   19.5054 C   0  0  0  0  0  0
  -24.8801  -27.6938   19.5057 C   0  0  0  0  0  0
  -23.6100  -29.8235   20.1629 C   0  0  0  0  0  0
  -25.4098  -36.3108   24.0345 C   0  0  1  0  0  0
  -20.5863  -28.3689   23.1325 C   0  0  2  0  0  0
  -20.6771  -26.9428   22.5423 C   0  0  0  0  0  0
  -19.5739  -26.6407   21.5224 C   0  0  0  0  0  0
  -18.1920  -26.7948   22.1640 C   0  0  0  0  0  0
  -19.1529  -28.8856   23.2909 C   0  0  0  0  0  0
  -18.9452  -30.1457   23.8928 C   0  0  0  0  0  0
  -17.6456  -30.6591   24.0588 C   0  0  0  0  0  0
  -25.9025  -34.9487   23.5128 C   0  0  0  0  0  0
  -16.5352  -29.9099   23.6321 C   0  0  0  0  0  0
  -16.7277  -28.6525   23.0335 C   0  0  0  0  0  0
  -26.4477  -31.6597   25.0706 C   0  0  0  0  0  0
  -25.3769  -31.3710   26.1481 C   0  0  0  0  0  0
  -27.0275  -30.3028   24.6060 C   0  0  0  0  0  0
  -27.6056  -32.4305   25.7460 C   0  0  0  0  0  0
  -27.5583  -37.1800   24.8458 C   0  0  0  0  0  0
  -21.4131  -29.3070   22.3719 N   0  0  0  0  0  0
  -26.4287  -37.3795   23.9423 N   0  0  0  0  0  0
  -24.6641  -31.0838   22.0982 N   0  0  0  0  0  0
  -23.4175  -28.8243   23.3019 O   0  0  0  0  0  0
  -28.3623  -26.6499   20.1105 O   0  0  0  0  0  0
  -26.5580  -34.8927   22.4682 O   0  0  0  0  0  0
  -23.5337  -32.1457   23.7496 O   0  0  0  0  0  0
  -29.3482  -18.5641   21.5432 C   0  0  0  0  0  0
  -29.8355  -17.2773   21.2204 C   0  0  0  0  0  0
  -27.9857  -18.5469   19.5362 C   0  0  0  0  0  0
  -28.4664  -17.2613   19.2046 C   0  0  0  0  0  0
  -28.4428  -19.2356   20.6851 C   0  0  0  0  0  0
  -29.4447  -16.6257   20.0242 C   0  0  0  0  0  0
  -27.4832  -20.9787   22.1189 C   0  0  0  0  0  0
  -28.9046  -22.8151   20.0116 C   0  0  0  0  0  0
  -28.8785  -26.2036   21.2864 C   0  0  0  0  0  0
  -26.7740  -22.3350   22.1761 C   0  0  0  0  0  0
  -28.0312  -21.5545   19.8086 C   0  0  0  0  0  0
  -27.7087  -23.5623   22.1358 C   0  0  0  0  0  0
  -27.9234  -16.6284   17.9256 C   0  0  0  0  0  0
  -30.9475  -15.7865   18.3206 C   0  0  0  0  0  0
  -29.6098  -24.8569   21.1767 C   0  0  0  0  0  0
  -28.0191  -20.5929   20.9358 N   0  0  0  0  0  0
  -28.7031  -23.6836   21.0385 N   0  0  0  0  0  0
  -30.1685  -15.4769   19.5457 N   0  0  0  0  0  0
  -27.5130  -20.2913   23.1461 O   0  0  0  0  0  0
  -29.8085  -22.9984   19.1894 O   0  0  0  0  0  0
  -28.7397  -26.7431   22.3899 O   0  0  0  0  0  0
  -31.4582  -12.3719   19.0997 H   0  0  0  0  0  0
  -30.3012  -11.3088   19.8728 H   0  0  0  0  0  0
  -29.7045  -11.6488   17.4514 H   0  0  0  0  0  0
  -29.6704  -13.3689   17.6669 H   0  0  0  0  0  0
  -27.7850  -11.3002   18.8042 H   0  0  0  0  0  0
  -27.3608  -12.6208   17.7689 H   0  0  0  0  0  0
  -27.6577  -14.2487   19.5061 H   0  0  0  0  0  0
  -28.6939  -12.1138   21.4082 H   0  0  0  0  0  0
  -28.5199  -13.8285   21.7498 H   0  0  0  0  0  0
  -25.2789   -9.5719   22.4723 H   0  0  0  0  0  0
  -24.0033   -7.4644   22.7477 H   0  0  0  0  0  0
  -21.0855   -8.8813   19.8960 H   0  0  0  0  0  0
  -22.3742  -10.9688   19.6151 H   0  0  0  0  0  0
  -21.2027   -7.6168   23.9729 H   0  0  0  0  0  0
  -21.1470   -6.0540   25.9053 H   0  0  0  0  0  0
  -22.0594   -2.7644   23.2865 H   0  0  0  0  0  0
  -22.4133  -11.9893   22.4777 H   0  0  0  0  0  0
  -21.1098  -13.1204   22.2599 H   0  0  0  0  0  0
  -24.6844  -15.8578   20.5623 H   0  0  0  0  0  0
  -26.3064  -15.6263   20.1423 H   0  0  0  0  0  0
  -26.7124  -32.5545   23.1165 H   0  0  0  0  0  0
  -25.0110  -33.9795   25.0513 H   0  0  0  0  0  0
  -22.6885  -31.3096   21.4060 H   0  0  0  0  0  0
  -23.3751  -35.9639   23.3297 H   0  0  0  0  0  0
  -24.3588  -36.8913   22.2041 H   0  0  0  0  0  0
  -23.7248  -37.6515   23.6644 H   0  0  0  0  0  0
  -26.0311  -31.6099   20.5872 H   0  0  0  0  0  0
  -26.8143  -30.9031   21.9763 H   0  0  0  0  0  0
  -28.0945  -29.1362   21.1787 H   0  0  0  0  0  0
  -26.0923  -25.9717   19.0459 H   0  0  0  0  0  0
  -23.9932  -27.2831   19.0423 H   0  0  0  0  0  0
  -23.7183  -30.5970   19.4019 H   0  0  0  0  0  0
  -22.7349  -29.2442   19.8657 H   0  0  0  0  0  0
  -25.1272  -36.1962   25.0843 H   0  0  0  0  0  0
  -20.9975  -28.3271   24.1438 H   0  0  0  0  0  0
  -20.5672  -26.2305   23.3611 H   0  0  0  0  0  0
  -21.6637  -26.7472   22.1216 H   0  0  0  0  0  0
  -19.6889  -25.6316   21.1249 H   0  0  0  0  0  0
  -19.6658  -27.3225   20.6751 H   0  0  0  0  0  0
  -17.4179  -26.6706   21.4045 H   0  0  0  0  0  0
  -18.0312  -26.0091   22.9036 H   0  0  0  0  0  0
  -19.7928  -30.7279   24.2290 H   0  0  0  0  0  0
  -17.5015  -31.6273   24.5206 H   0  0  0  0  0  0
  -15.5351  -30.3021   23.7628 H   0  0  0  0  0  0
  -15.8688  -28.0875   22.7013 H   0  0  0  0  0  0
  -24.5907  -30.7093   25.7839 H   0  0  0  0  0  0
  -24.9022  -32.2879   26.4980 H   0  0  0  0  0  0
  -25.8157  -30.8842   27.0204 H   0  0  0  0  0  0
  -26.2800  -29.6797   24.1148 H   0  0  0  0  0  0
  -27.4070  -29.7250   25.4498 H   0  0  0  0  0  0
  -27.8628  -30.4305   23.9171 H   0  0  0  0  0  0
  -27.2681  -33.3594   26.2062 H   0  0  0  0  0  0
  -28.3858  -32.6882   25.0288 H   0  0  0  0  0  0
  -28.0742  -31.8424   26.5359 H   0  0  0  0  0  0
  -28.2590  -38.0108   24.7541 H   0  0  0  0  0  0
  -28.1097  -36.2648   24.6239 H   0  0  0  0  0  0
  -27.2324  -37.1410   25.8867 H   0  0  0  0  0  0
  -20.9265  -29.8787   21.6958 H   0  0  0  0  0  0
  -26.0171  -38.2866   24.1444 H   0  0  0  0  0  0
  -29.7168  -19.0524   22.4356 H   0  0  0  0  0  0
  -30.5849  -16.8418   21.8664 H   0  0  0  0  0  0
  -27.2683  -19.0150   18.8730 H   0  0  0  0  0  0
  -26.2037  -22.3704   23.1060 H   0  0  0  0  0  0
  -26.0153  -22.3971   21.3966 H   0  0  0  0  0  0
  -28.4076  -21.0641   18.9127 H   0  0  0  0  0  0
  -27.0182  -21.8546   19.5455 H   0  0  0  0  0  0
  -28.2404  -23.6272   23.0853 H   0  0  0  0  0  0
  -27.0494  -24.4309   22.1036 H   0  0  0  0  0  0
  -26.8349  -16.6631   17.9155 H   0  0  0  0  0  0
  -28.1967  -15.5819   17.8073 H   0  0  0  0  0  0
  -28.2923  -17.1667   17.0501 H   0  0  0  0  0  0
  -31.5207  -16.7021   18.4713 H   0  0  0  0  0  0
  -30.3261  -15.9394   17.4443 H   0  0  0  0  0  0
  -31.6580  -15.0079   18.0310 H   0  0  0  0  0  0
  -30.2156  -24.7183   22.0728 H   0  0  0  0  0  0
  -30.3199  -24.9432   20.3523 H   0  0  0  0  0  0
  1 25  1  0  0  0
  1 30  2  0  0  0
  1 88  1  0  0  0
  2  3  1  0  0  0
  2 25  1  0  0  0
  2 92  1  0  0  0
  2 93  1  0  0  0
  3  4  1  0  0  0
  3 94  1  0  0  0
  3 95  1  0  0  0
  4  5  1  0  0  0
  4 96  1  0  0  0
  4 97  1  0  0  0
  5  6  1  0  0  0
  5 26  1  0  0  0
  5 98  1  0  0  0
  6 25  1  0  0  0
  6 99  1  0  0  0
  6100  1  0  0  0
  7  8  2  0  0  0
  7 26  1  0  0  0
  7 29  1  0  0  0
  8  9  1  0  0  0
  8 22  1  0  0  0
  9 10  1  0  0  0
  9 27  2  0  0  0
 10 11  2  0  0  0
 10 15  1  0  0  0
 11 12  1  0  0  0
 11101  1  0  0  0
 12 13  2  0  0  0
 12102  1  0  0  0
 13 14  1  0  0  0
 13 31  1  0  0  0
 14 15  2  0  0  0
 14103  1  0  0  0
 15104  1  0  0  0
 16 17  2  0  0  0
 16 21  1  0  0  0
 16 31  1  0  0  0
 17 18  1  0  0  0
 17105  1  0  0  0
 18 19  2  0  0  0
 18106  1  0  0  0
 19 20  1  0  0  0
 19 24  1  0  0  0
 20 21  2  0  0  0
 20107  1  0  0  0
 21 23  1  0  0  0
 22 28  1  0  0  0
 22 32  2  0  0  0
 26 27  1  0  0  0
 28108  1  0  0  0
 28109  1  0  0  0
 29110  1  0  0  0
 29111  1  0  0  0
 33 34  1  0  0  0
 33 66  1  0  0  0
 33 70  2  0  0  0
 34 36  1  0  0  0
 34 59  1  0  0  0
 34112  1  0  0  0
 35 44  2  0  0  0
 35 45  1  0  0  0
 35 68  1  0  0  0
 36 56  1  0  0  0
 36113  1  0  0  0
 37 39  1  0  0  0
 37 47  1  0  0  0
 37 66  1  0  0  0
 37114  1  0  0  0
 38 43  2  0  0  0
 38 46  1  0  0  0
 38 47  1  0  0  0
 39 64  1  0  0  0
 39 67  2  0  0  0
 40 52  1  0  0  0
 40 53  2  0  0  0
 40 58  1  0  0  0
 41115  1  0  0  0
 41116  1  0  0  0
 41117  1  0  0  0
 41 48  1  0  0  0
 42 43  1  0  0  0
 42 66  1  0  0  0
 42118  1  0  0  0
 42119  1  0  0  0
 43 44  1  0  0  0
 44120  1  0  0  0
 45 46  2  0  0  0
 45121  1  0  0  0
 46122  1  0  0  0
 47123  1  0  0  0
 47124  1  0  0  0
 48 56  1  0  0  0
 48 65  1  0  0  0
 48125  1  0  0  0
 49 50  1  0  0  0
 49 53  1  0  0  0
 49 64  1  0  0  0
 49126  1  0  0  0
 50 51  1  0  0  0
 50127  1  0  0  0
 50128  1  0  0  0
 51 52  1  0  0  0
 51129  1  0  0  0
 51130  1  0  0  0
 52131  1  0  0  0
 52132  1  0  0  0
 53 54  1  0  0  0
 54 55  2  0  0  0
 54133  1  0  0  0
 55 57  1  0  0  0
 55134  1  0  0  0
 56 69  2  0  0  0
 57 58  2  0  0  0
 57135  1  0  0  0
 58136  1  0  0  0
 59 60  1  0  0  0
 59 61  1  0  0  0
 59 62  1  0  0  0
 60137  1  0  0  0
 60138  1  0  0  0
 60139  1  0  0  0
 61140  1  0  0  0
 61141  1  0  0  0
 61142  1  0  0  0
 62143  1  0  0  0
 62144  1  0  0  0
 62145  1  0  0  0
 63 65  1  0  0  0
 63146  1  0  0  0
 63147  1  0  0  0
 63148  1  0  0  0
 64149  1  0  0  0
 65150  1  0  0  0
 68 79  1  0  0  0
 71 72  2  0  0  0
 71 75  1  0  0  0
 71151  1  0  0  0
 72 76  1  0  0  0
 72152  1  0  0  0
 73 74  1  0  0  0
 73 75  2  0  0  0
 73153  1  0  0  0
 74 76  2  0  0  0
 74 83  1  0  0  0
 75 86  1  0  0  0
 76 88  1  0  0  0
 77 80  1  0  0  0
 77 86  1  0  0  0
 77 89  2  0  0  0
 78 81  1  0  0  0
 78 87  1  0  0  0
 78 90  2  0  0  0
 79 85  1  0  0  0
 79 91  2  0  0  0
 80 82  1  0  0  0
 80154  1  0  0  0
 80155  1  0  0  0
 81 86  1  0  0  0
 81156  1  0  0  0
 81157  1  0  0  0
 82 87  1  0  0  0
 82158  1  0  0  0
 82159  1  0  0  0
 83160  1  0  0  0
 83161  1  0  0  0
 83162  1  0  0  0
 84 88  1  0  0  0
 84163  1  0  0  0
 84164  1  0  0  0
 84165  1  0  0  0
 85 87  1  0  0  0
 85166  1  0  0  0
 85167  1  0  0  0
M  ISO  4   1 100  68 101  79 101  88 100
M  END
> <chiral flag>
0

> <version>
0

> <s_m_source_file>
/data/baiqing/PycharmProjects/Reinvent-master-3.2/result/LINK_invent/BTK/process_docking_weight1_custom_product_contain_oxygen_bond_distance_aromatic_linkinvent_7_9_3/rearranged_h_0059.sdf

> <i_m_source_file_index>
79

> <r_mmod_Potential_Energy-OPLS-2005>
207.017868041992

> <r_mmod_Stretch_Energy-OPLS-2005>
50.638973236084

> <r_mmod_Bend_Energy-OPLS-2005>
131.970367431641

> <r_mmod_Torsional_Energy-OPLS-2005>
379.880218505859

> <r_mmod_Improper_Torsional_Energy-OPLS-2005>
30.5260238647461

> <r_mmod_Van_der_Waal_Energy-OPLS-2005>
178.961898803711

> <r_mmod_Electrostatic_Energy-OPLS-2005>
-381.872955322266

> <r_mmod_Solvation_Energy-OPLS-2005>
-231.247436523438

> <b_mmod_Minimization_Converged-OPLS-2005>
0

> <r_mmod_RMS_Derivative-OPLS-2005>
4.88608121871948

$$$$
79
                    3D
 Structure written by MMmdl.
154162  0  0  1  0            999 V2000
  -30.6206  -14.6226   20.5013 C   0  0  0  0  0  0
  -30.4411  -12.3807   19.4450 C   0  0  0  0  0  0
  -29.5090  -12.5060   18.2186 C   0  0  0  0  0  0
  -28.0300  -12.3487   18.6295 C   0  0  0  0  0  0
  -27.6567  -13.2120   19.8636 C   0  0  2  0  0  0
  -28.7024  -13.0496   20.9902 C   0  0  0  0  0  0
  -25.2573  -13.8158   20.5674 C   0  0  0  0  0  0
  -24.1837  -13.0434   20.9198 C   0  0  0  0  0  0
  -24.6399  -11.6910   20.8745 C   0  0  0  0  0  0
  -23.9064  -10.4295   21.0411 C   0  0  0  0  0  0
  -24.3618   -9.4207   21.9188 C   0  0  0  0  0  0
  -23.6298   -8.2238   22.0755 C   0  0  0  0  0  0
  -22.4275   -8.0282   21.3547 C   0  0  0  0  0  0
  -21.9909   -9.0254   20.4644 C   0  0  0  0  0  0
  -22.7238  -10.2132   20.3061 C   0  0  0  0  0  0
  -21.6845   -6.0734   22.5287 C   0  0  0  0  0  0
  -21.4003   -6.5643   23.8219 C   0  0  0  0  0  0
  -21.3662   -5.6793   24.9181 C   0  0  0  0  0  0
  -21.6046   -4.3054   24.7227 C   0  0  0  0  0  0
  -21.8819   -3.8148   23.4347 C   0  0  0  0  0  0
  -21.9188   -4.6963   22.3406 C   0  0  0  0  0  0
  -22.7862  -13.5231   21.1858 C   0  0  0  0  0  0
  -22.1662   -4.2153   21.0981 F   0  0  0  0  0  0
  -21.5630   -3.4538   25.7741 F   0  0  0  0  0  0
  -30.0194  -13.3940   20.4309 N   0  0  0  0  0  0
  -26.3004  -12.9333   20.3306 N   0  0  0  0  0  0
  -25.9326  -11.6491   20.5751 N   0  0  0  0  0  0
  -22.0493  -12.8232   22.0407 N   0  0  0  0  0  0
  -25.4279  -15.1875   20.4057 N   0  0  0  0  0  0
  -31.7821  -14.7956   20.1206 O   0  0  0  0  0  0
  -21.6638   -6.8879   21.4248 O   0  0  0  0  0  0
  -22.3559  -14.5537   20.6703 O   0  0  0  0  0  0
  -24.6263  -31.8608   23.2040 C   0  0  0  0  0  0
  -25.9115  -32.4778   23.8365 C   0  0  1  0  0  0
  -27.2199  -27.3272   20.1082 C   0  0  0  0  0  0
  -25.5942  -33.8578   24.2308 N   0  0  0  0  0  0
  -23.4193  -30.4879   21.5456 C   0  0  2  0  0  0
  -24.8632  -28.9473   20.1087 C   0  0  0  0  0  0
  -22.7480  -29.4646   22.4928 C   0  0  0  0  0  0
  -18.0291  -28.1384   22.8493 C   0  0  0  0  0  0
  -24.1489  -36.7273   23.2640 C   0  0  0  0  0  0
  -25.9608  -30.7947   21.3729 C   0  0  0  0  0  0
  -26.0330  -29.4241   20.7123 C   0  0  0  0  0  0
  -27.2148  -28.6259   20.7038 C   0  0  0  0  0  0
  -26.0232  -26.9044   19.4812 C   0  0  0  0  0  0
  -24.8589  -27.6922   19.4854 C   0  0  0  0  0  0
  -23.6325  -29.8275   20.1590 C   0  0  0  0  0  0
  -25.4111  -36.3079   24.0340 C   0  0  1  0  0  0
  -20.5900  -28.3686   23.1277 C   0  0  2  0  0  0
  -20.6786  -26.9406   22.5405 C   0  0  0  0  0  0
  -19.5762  -26.6385   21.5204 C   0  0  0  0  0  0
  -18.1940  -26.7936   22.1611 C   0  0  0  0  0  0
  -19.1548  -28.8846   23.2891 C   0  0  0  0  0  0
  -18.9471  -30.1446   23.8905 C   0  0  0  0  0  0
  -17.6470  -30.6583   24.0564 C   0  0  0  0  0  0
  -25.9048  -34.9449   23.5116 C   0  0  0  0  0  0
  -16.5356  -29.9081   23.6329 C   0  0  0  0  0  0
  -16.7279  -28.6501   23.0350 C   0  0  0  0  0  0
  -26.4504  -31.6573   25.0718 C   0  0  0  0  0  0
  -25.3741  -31.3706   26.1447 C   0  0  0  0  0  0
  -27.0335  -30.3006   24.6140 C   0  0  0  0  0  0
  -27.6094  -32.4272   25.7477 C   0  0  0  0  0  0
  -27.5584  -37.1792   24.8469 C   0  0  0  0  0  0
  -21.4197  -29.3044   22.3669 N   0  0  0  0  0  0
  -26.4289  -37.3769   23.9421 N   0  0  0  0  0  0
  -24.6875  -31.0640   22.0977 N   0  0  0  0  0  0
  -23.4217  -28.8184   23.2995 O   0  0  0  0  0  0
  -28.3381  -26.4785   20.1586 O   0  0  0  0  0  0
  -26.5604  -34.8917   22.4677 O   0  0  0  0  0  0
  -23.5430  -32.1401   23.7375 O   0  0  0  0  0  0
  -28.6709  -17.8624   20.8344 C   0  0  0  0  0  0
  -28.6459  -19.2825   20.7452 C   0  0  0  0  0  0
  -31.0455  -17.8591   20.4698 C   0  0  0  0  0  0
  -31.0386  -19.2907   20.3927 C   0  0  0  0  0  0
  -29.8651  -17.1075   20.7028 C   0  0  0  0  0  0
  -29.8258  -20.0421   20.5296 C   0  0  0  0  0  0
  -28.8939  -22.4434   20.2084 C   0  0  0  0  0  0
  -29.2328  -23.9810   20.3633 C   0  0  0  0  0  0
  -28.1085  -25.0283   19.9650 C   0  0  0  0  0  0
  -32.3627  -20.0155   20.1546 C   0  0  0  0  0  0
  -29.8429  -21.5108   20.5316 N   0  0  0  0  0  0
  -29.7907  -15.6537   20.8495 N   0  0  0  0  0  0
  -27.7864  -22.1156   19.7773 O   0  0  0  0  0  0
  -33.4066  -19.1839   20.1486 F   0  0  0  0  0  0
  -32.3279  -20.6405   18.9779 F   0  0  0  0  0  0
  -32.5657  -20.9236   21.1108 F   0  0  0  0  0  0
  -31.4823  -12.5043   19.1439 H   0  0  0  0  0  0
  -30.3743  -11.3808   19.8773 H   0  0  0  0  0  0
  -29.7709  -11.7576   17.4686 H   0  0  0  0  0  0
  -29.6543  -13.4766   17.7418 H   0  0  0  0  0  0
  -27.8589  -11.2951   18.8517 H   0  0  0  0  0  0
  -27.3767  -12.5892   17.7902 H   0  0  0  0  0  0
  -27.6796  -14.2502   19.5319 H   0  0  0  0  0  0
  -28.7093  -12.0223   21.3569 H   0  0  0  0  0  0
  -28.4511  -13.6671   21.8535 H   0  0  0  0  0  0
  -25.2762   -9.5680   22.4761 H   0  0  0  0  0  0
  -24.0012   -7.4620   22.7467 H   0  0  0  0  0  0
  -21.0842   -8.8764   19.8949 H   0  0  0  0  0  0
  -22.3700  -10.9667   19.6169 H   0  0  0  0  0  0
  -21.1993   -7.6154   23.9727 H   0  0  0  0  0  0
  -21.1486   -6.0522   25.9087 H   0  0  0  0  0  0
  -22.0596   -2.7615   23.2845 H   0  0  0  0  0  0
  -22.4102  -11.9889   22.4800 H   0  0  0  0  0  0
  -21.1108  -13.1257   22.2601 H   0  0  0  0  0  0
  -24.6517  -15.8329   20.4988 H   0  0  0  0  0  0
  -26.2548  -15.6171   20.0130 H   0  0  0  0  0  0
  -26.7186  -32.5454   23.1116 H   0  0  0  0  0  0
  -25.0119  -33.9722   25.0479 H   0  0  0  0  0  0
  -22.7143  -31.3103   21.4054 H   0  0  0  0  0  0
  -23.3758  -35.9595   23.3285 H   0  0  0  0  0  0
  -24.3602  -36.8897   22.2060 H   0  0  0  0  0  0
  -23.7225  -37.6470   23.6654 H   0  0  0  0  0  0
  -26.0930  -31.5602   20.6072 H   0  0  0  0  0  0
  -26.8419  -30.8414   22.0010 H   0  0  0  0  0  0
  -28.1119  -28.9884   21.1852 H   0  0  0  0  0  0
  -25.9500  -25.9480   18.9861 H   0  0  0  0  0  0
  -23.9616  -27.3228   19.0077 H   0  0  0  0  0  0
  -23.7567  -30.6066   19.4050 H   0  0  0  0  0  0
  -22.7518  -29.2594   19.8526 H   0  0  0  0  0  0
  -25.1289  -36.1924   25.0831 H   0  0  0  0  0  0
  -21.0005  -28.3244   24.1392 H   0  0  0  0  0  0
  -20.5668  -26.2292   23.3605 H   0  0  0  0  0  0
  -21.6657  -26.7429   22.1204 H   0  0  0  0  0  0
  -19.6921  -25.6296   21.1229 H   0  0  0  0  0  0
  -19.6704  -27.3204   20.6744 H   0  0  0  0  0  0
  -17.4220  -26.6685   21.4005 H   0  0  0  0  0  0
  -18.0336  -26.0074   22.9000 H   0  0  0  0  0  0
  -19.7945  -30.7264   24.2280 H   0  0  0  0  0  0
  -17.5020  -31.6268   24.5163 H   0  0  0  0  0  0
  -15.5359  -30.2980   23.7652 H   0  0  0  0  0  0
  -15.8684  -28.0819   22.7051 H   0  0  0  0  0  0
  -24.5949  -30.7012   25.7782 H   0  0  0  0  0  0
  -24.8886  -32.2862   26.4832 H   0  0  0  0  0  0
  -25.8077  -30.8929   27.0241 H   0  0  0  0  0  0
  -26.2895  -29.6754   24.1187 H   0  0  0  0  0  0
  -27.4090  -29.7255   25.4613 H   0  0  0  0  0  0
  -27.8740  -30.4317   23.9323 H   0  0  0  0  0  0
  -27.2760  -33.3589   26.2054 H   0  0  0  0  0  0
  -28.3903  -32.6783   25.0287 H   0  0  0  0  0  0
  -28.0750  -31.8371   26.5382 H   0  0  0  0  0  0
  -28.2589  -38.0098   24.7525 H   0  0  0  0  0  0
  -28.1091  -36.2637   24.6268 H   0  0  0  0  0  0
  -27.2318  -37.1402   25.8873 H   0  0  0  0  0  0
  -20.9362  -29.8785   21.6906 H   0  0  0  0  0  0
  -26.0168  -38.2838   24.1430 H   0  0  0  0  0  0
  -27.7363  -17.3505   21.0188 H   0  0  0  0  0  0
  -27.6993  -19.7852   20.8773 H   0  0  0  0  0  0
  -31.9841  -17.3367   20.3671 H   0  0  0  0  0  0
  -30.1257  -24.1843   19.7733 H   0  0  0  0  0  0
  -29.5085  -24.1496   21.4039 H   0  0  0  0  0  0
  -27.2124  -24.7506   20.5241 H   0  0  0  0  0  0
  -27.8784  -24.8671   18.9103 H   0  0  0  0  0  0
  -30.7339  -21.9126   20.7950 H   0  0  0  0  0  0
  -28.8887  -15.3159   21.1473 H   0  0  0  0  0  0
  1 25  1  0  0  0
  1 30  2  0  0  0
  1 82  1  0  0  0
  2  3  1  0  0  0
  2 25  1  0  0  0
  2 87  1  0  0  0
  2 88  1  0  0  0
  3  4  1  0  0  0
  3 89  1  0  0  0
  3 90  1  0  0  0
  4  5  1  0  0  0
  4 91  1  0  0  0
  4 92  1  0  0  0
  5  6  1  0  0  0
  5 26  1  0  0  0
  5 93  1  0  0  0
  6 25  1  0  0  0
  6 94  1  0  0  0
  6 95  1  0  0  0
  7  8  2  0  0  0
  7 26  1  0  0  0
  7 29  1  0  0  0
  8  9  1  0  0  0
  8 22  1  0  0  0
  9 10  1  0  0  0
  9 27  2  0  0  0
 10 11  2  0  0  0
 10 15  1  0  0  0
 11 12  1  0  0  0
 11 96  1  0  0  0
 12 13  2  0  0  0
 12 97  1  0  0  0
 13 14  1  0  0  0
 13 31  1  0  0  0
 14 15  2  0  0  0
 14 98  1  0  0  0
 15 99  1  0  0  0
 16 17  2  0  0  0
 16 21  1  0  0  0
 16 31  1  0  0  0
 17 18  1  0  0  0
 17100  1  0  0  0
 18 19  2  0  0  0
 18101  1  0  0  0
 19 20  1  0  0  0
 19 24  1  0  0  0
 20 21  2  0  0  0
 20102  1  0  0  0
 21 23  1  0  0  0
 22 28  1  0  0  0
 22 32  2  0  0  0
 26 27  1  0  0  0
 28103  1  0  0  0
 28104  1  0  0  0
 29105  1  0  0  0
 29106  1  0  0  0
 33 34  1  0  0  0
 33 66  1  0  0  0
 33 70  2  0  0  0
 34 36  1  0  0  0
 34 59  1  0  0  0
 34107  1  0  0  0
 35 44  2  0  0  0
 35 45  1  0  0  0
 35 68  1  0  0  0
 36 56  1  0  0  0
 36108  1  0  0  0
 37 39  1  0  0  0
 37 47  1  0  0  0
 37 66  1  0  0  0
 37109  1  0  0  0
 38 43  2  0  0  0
 38 46  1  0  0  0
 38 47  1  0  0  0
 39 64  1  0  0  0
 39 67  2  0  0  0
 40 52  1  0  0  0
 40 53  2  0  0  0
 40 58  1  0  0  0
 41110  1  0  0  0
 41111  1  0  0  0
 41112  1  0  0  0
 41 48  1  0  0  0
 42 43  1  0  0  0
 42 66  1  0  0  0
 42113  1  0  0  0
 42114  1  0  0  0
 43 44  1  0  0  0
 44115  1  0  0  0
 45 46  2  0  0  0
 45116  1  0  0  0
 46117  1  0  0  0
 47118  1  0  0  0
 47119  1  0  0  0
 48 56  1  0  0  0
 48 65  1  0  0  0
 48120  1  0  0  0
 49 50  1  0  0  0
 49 53  1  0  0  0
 49 64  1  0  0  0
 49121  1  0  0  0
 50 51  1  0  0  0
 50122  1  0  0  0
 50123  1  0  0  0
 51 52  1  0  0  0
 51124  1  0  0  0
 51125  1  0  0  0
 52126  1  0  0  0
 52127  1  0  0  0
 53 54  1  0  0  0
 54 55  2  0  0  0
 54128  1  0  0  0
 55 57  1  0  0  0
 55129  1  0  0  0
 56 69  2  0  0  0
 57 58  2  0  0  0
 57130  1  0  0  0
 58131  1  0  0  0
 59 60  1  0  0  0
 59 61  1  0  0  0
 59 62  1  0  0  0
 60132  1  0  0  0
 60133  1  0  0  0
 60134  1  0  0  0
 61135  1  0  0  0
 61136  1  0  0  0
 61137  1  0  0  0
 62138  1  0  0  0
 62139  1  0  0  0
 62140  1  0  0  0
 63 65  1  0  0  0
 63141  1  0  0  0
 63142  1  0  0  0
 63143  1  0  0  0
 64144  1  0  0  0
 65145  1  0  0  0
 68 79  1  0  0  0
 71 72  2  0  0  0
 71 75  1  0  0  0
 71146  1  0  0  0
 72 76  1  0  0  0
 72147  1  0  0  0
 73 74  1  0  0  0
 73 75  2  0  0  0
 73148  1  0  0  0
 74 76  2  0  0  0
 74 80  1  0  0  0
 75 82  1  0  0  0
 76 81  1  0  0  0
 77 78  1  0  0  0
 77 81  1  0  0  0
 77 83  2  0  0  0
 78 79  1  0  0  0
 78149  1  0  0  0
 78150  1  0  0  0
 79151  1  0  0  0
 79152  1  0  0  0
 80 84  1  0  0  0
 80 85  1  0  0  0
 80 86  1  0  0  0
 81153  1  0  0  0
 82154  1  0  0  0
M  ISO  4   1 100  68 101  79 101  82 100
M  END
> <chiral flag>
0

> <version>
0

> <s_m_source_file>
/data/baiqing/PycharmProjects/Reinvent-master-3.2/result/LINK_invent/BTK/process_docking_weight1_custom_product_contain_oxygen_bond_distance_aromatic_linkinvent_7_9_3/rearranged_h_0059.sdf

> <i_m_source_file_index>
80

> <r_mmod_Potential_Energy-OPLS-2005>
26.3503074645996

> <r_mmod_Stretch_Energy-OPLS-2005>
76.8716812133789

> <r_mmod_Bend_Energy-OPLS-2005>
135.76953125

> <r_mmod_Torsional_Energy-OPLS-2005>
221.412170410156

> <r_mmod_Improper_Torsional_Energy-OPLS-2005>
4.8194465637207

> <r_mmod_Van_der_Waal_Energy-OPLS-2005>
151.664398193359

> <r_mmod_Electrostatic_Energy-OPLS-2005>
-387.115539550781

> <r_mmod_Solvation_Energy-OPLS-2005>
-221.667892456055

> <b_mmod_Minimization_Converged-OPLS-2005>
0

> <r_mmod_RMS_Derivative-OPLS-2005>
1.70327544212341

$$$$
80
                    3D
 Structure written by MMmdl.
155163  0  0  1  0            999 V2000
  -30.6712  -14.6024   20.5246 C   0  0  0  0  0  0
  -30.4241  -12.3756   19.4505 C   0  0  0  0  0  0
  -29.4969  -12.4882   18.2217 C   0  0  0  0  0  0
  -28.0222  -12.3339   18.6391 C   0  0  0  0  0  0
  -27.6473  -13.2193   19.8578 C   0  0  2  0  0  0
  -28.6916  -13.0922   20.9896 C   0  0  0  0  0  0
  -25.2503  -13.8188   20.5665 C   0  0  0  0  0  0
  -24.1788  -13.0440   20.9191 C   0  0  0  0  0  0
  -24.6376  -11.6916   20.8749 C   0  0  0  0  0  0
  -23.9057  -10.4288   21.0413 C   0  0  0  0  0  0
  -24.3613   -9.4195   21.9180 C   0  0  0  0  0  0
  -23.6283   -8.2232   22.0747 C   0  0  0  0  0  0
  -22.4267   -8.0273   21.3538 C   0  0  0  0  0  0
  -21.9898   -9.0252   20.4638 C   0  0  0  0  0  0
  -22.7231  -10.2131   20.3052 C   0  0  0  0  0  0
  -21.6850   -6.0724   22.5276 C   0  0  0  0  0  0
  -21.4017   -6.5632   23.8210 C   0  0  0  0  0  0
  -21.3659   -5.6777   24.9171 C   0  0  0  0  0  0
  -21.6048   -4.3045   24.7221 C   0  0  0  0  0  0
  -21.8820   -3.8138   23.4344 C   0  0  0  0  0  0
  -21.9188   -4.6950   22.3403 C   0  0  0  0  0  0
  -22.7805  -13.5216   21.1867 C   0  0  0  0  0  0
  -22.1655   -4.2139   21.0975 F   0  0  0  0  0  0
  -21.5628   -3.4531   25.7737 F   0  0  0  0  0  0
  -30.0079  -13.4100   20.4180 N   0  0  0  0  0  0
  -26.2946  -12.9386   20.3304 N   0  0  0  0  0  0
  -25.9305  -11.6542   20.5776 N   0  0  0  0  0  0
  -22.0455  -12.8211   22.0440 N   0  0  0  0  0  0
  -25.4170  -15.1914   20.4064 N   0  0  0  0  0  0
  -31.8413  -14.7125   20.1469 O   0  0  0  0  0  0
  -21.6634   -6.8869   21.4237 O   0  0  0  0  0  0
  -22.3481  -14.5512   20.6701 O   0  0  0  0  0  0
  -24.6222  -31.8631   23.2042 C   0  0  0  0  0  0
  -25.9087  -32.4796   23.8362 C   0  0  1  0  0  0
  -27.2282  -27.3635   20.1155 C   0  0  0  0  0  0
  -25.5920  -33.8593   24.2312 N   0  0  0  0  0  0
  -23.4150  -30.4863   21.5446 C   0  0  2  0  0  0
  -24.8655  -28.9419   20.1139 C   0  0  0  0  0  0
  -22.7460  -29.4636   22.4936 C   0  0  0  0  0  0
  -18.0290  -28.1380   22.8476 C   0  0  0  0  0  0
  -24.1479  -36.7290   23.2636 C   0  0  0  0  0  0
  -25.9513  -30.8058   21.3698 C   0  0  0  0  0  0
  -26.0289  -29.4335   20.7203 C   0  0  0  0  0  0
  -27.2181  -28.6517   20.7197 C   0  0  0  0  0  0
  -26.0505  -26.9078   19.4930 C   0  0  0  0  0  0
  -24.8730  -27.6802   19.4956 C   0  0  0  0  0  0
  -23.6319  -29.8198   20.1600 C   0  0  0  0  0  0
  -25.4101  -36.3091   24.0340 C   0  0  1  0  0  0
  -20.5885  -28.3684   23.1279 C   0  0  2  0  0  0
  -20.6763  -26.9410   22.5397 C   0  0  0  0  0  0
  -19.5745  -26.6381   21.5190 C   0  0  0  0  0  0
  -18.1931  -26.7916   22.1615 C   0  0  0  0  0  0
  -19.1540  -28.8849   23.2870 C   0  0  0  0  0  0
  -18.9467  -30.1447   23.8891 C   0  0  0  0  0  0
  -17.6472  -30.6575   24.0575 C   0  0  0  0  0  0
  -25.9042  -34.9460   23.5130 C   0  0  0  0  0  0
  -16.5363  -29.9077   23.6328 C   0  0  0  0  0  0
  -16.7283  -28.6500   23.0342 C   0  0  0  0  0  0
  -26.4494  -31.6577   25.0704 C   0  0  0  0  0  0
  -25.3773  -31.3702   26.1473 C   0  0  0  0  0  0
  -27.0295  -30.2997   24.6096 C   0  0  0  0  0  0
  -27.6074  -32.4289   25.7465 C   0  0  0  0  0  0
  -27.5571  -37.1806   24.8478 C   0  0  0  0  0  0
  -21.4186  -29.3039   22.3673 N   0  0  0  0  0  0
  -26.4283  -37.3784   23.9421 N   0  0  0  0  0  0
  -24.6808  -31.0680   22.0977 N   0  0  0  0  0  0
  -23.4203  -28.8194   23.3011 O   0  0  0  0  0  0
  -28.3180  -26.5032   20.1042 O   0  0  0  0  0  0
  -26.5603  -34.8932   22.4690 O   0  0  0  0  0  0
  -23.5397  -32.1416   23.7388 O   0  0  0  0  0  0
  -32.0483  -18.7275   21.6890 C   0  0  0  0  0  0
  -31.6195  -17.3941   21.5475 C   0  0  0  0  0  0
  -29.5229  -18.2047   20.6341 C   0  0  0  0  0  0
  -31.2409  -19.8139   21.2886 C   0  0  0  0  0  0
  -29.9403  -19.5767   20.7624 C   0  0  0  0  0  0
  -30.3566  -17.0919   20.9942 C   0  0  0  0  0  0
  -28.7119  -24.3749   21.3854 C   0  0  0  0  0  0
  -28.5001  -25.7233   21.2386 C   0  0  0  0  0  0
  -28.7745  -23.3004   20.3787 C   0  0  0  0  0  0
  -31.8360  -21.2094   21.4090 C   0  0  0  0  0  0
  -29.0259  -20.7378   20.2334 C   0  0  0  0  0  0
  -29.9267  -15.7048   20.8519 N   0  0  0  0  0  0
  -29.0118  -22.0685   20.9193 N   0  0  0  0  0  0
  -28.6035  -23.4586   19.1684 O   0  0  0  0  0  0
  -31.4652  -12.4846   19.1427 H   0  0  0  0  0  0
  -30.3489  -11.3853   19.9024 H   0  0  0  0  0  0
  -29.7542  -11.7255   17.4848 H   0  0  0  0  0  0
  -29.6413  -13.4514   17.7305 H   0  0  0  0  0  0
  -27.8613  -11.2840   18.8849 H   0  0  0  0  0  0
  -27.3656  -12.5497   17.7956 H   0  0  0  0  0  0
  -27.6608  -14.2503   19.5049 H   0  0  0  0  0  0
  -28.6944  -12.0800   21.3967 H   0  0  0  0  0  0
  -28.4456  -13.7514   21.8239 H   0  0  0  0  0  0
  -25.2769   -9.5661   22.4746 H   0  0  0  0  0  0
  -23.9990   -7.4624   22.7469 H   0  0  0  0  0  0
  -21.0825   -8.8780   19.8952 H   0  0  0  0  0  0
  -22.3700  -10.9671   19.6159 H   0  0  0  0  0  0
  -21.2018   -7.6140   23.9713 H   0  0  0  0  0  0
  -21.1477   -6.0508   25.9069 H   0  0  0  0  0  0
  -22.0603   -2.7597   23.2849 H   0  0  0  0  0  0
  -22.4091  -11.9890   22.4844 H   0  0  0  0  0  0
  -21.1073  -13.1236   22.2663 H   0  0  0  0  0  0
  -24.6432  -15.8393   20.5073 H   0  0  0  0  0  0
  -26.2595  -15.6359   20.0659 H   0  0  0  0  0  0
  -26.7161  -32.5477   23.1120 H   0  0  0  0  0  0
  -25.0059  -33.9738   25.0450 H   0  0  0  0  0  0
  -22.7059  -31.3044   21.3998 H   0  0  0  0  0  0
  -23.3727  -35.9640   23.3349 H   0  0  0  0  0  0
  -24.3556  -36.8845   22.2037 H   0  0  0  0  0  0
  -23.7264  -37.6524   23.6616 H   0  0  0  0  0  0
  -26.0710  -31.5667   20.5974 H   0  0  0  0  0  0
  -26.8369  -30.8621   21.9906 H   0  0  0  0  0  0
  -28.1147  -29.0241   21.1936 H   0  0  0  0  0  0
  -26.0448  -25.9338   19.0241 H   0  0  0  0  0  0
  -23.9786  -27.2956   19.0249 H   0  0  0  0  0  0
  -23.7537  -30.5986   19.4064 H   0  0  0  0  0  0
  -22.7523  -29.2515   19.8520 H   0  0  0  0  0  0
  -25.1271  -36.1939   25.0831 H   0  0  0  0  0  0
  -20.9975  -28.3259   24.1398 H   0  0  0  0  0  0
  -20.5613  -26.2311   23.3601 H   0  0  0  0  0  0
  -21.6639  -26.7398   22.1221 H   0  0  0  0  0  0
  -19.6909  -25.6296   21.1196 H   0  0  0  0  0  0
  -19.6668  -27.3208   20.6733 H   0  0  0  0  0  0
  -17.4182  -26.6655   21.4036 H   0  0  0  0  0  0
  -18.0358  -26.0056   22.9012 H   0  0  0  0  0  0
  -19.7949  -30.7262   24.2247 H   0  0  0  0  0  0
  -17.5025  -31.6239   24.5205 H   0  0  0  0  0  0
  -15.5366  -30.2982   23.7641 H   0  0  0  0  0  0
  -15.8686  -28.0822   22.7048 H   0  0  0  0  0  0
  -24.5944  -30.7039   25.7838 H   0  0  0  0  0  0
  -24.8975  -32.2860   26.4932 H   0  0  0  0  0  0
  -25.8148  -30.8876   27.0220 H   0  0  0  0  0  0
  -26.2815  -29.6773   24.1170 H   0  0  0  0  0  0
  -27.4062  -29.7229   25.4548 H   0  0  0  0  0  0
  -27.8669  -30.4279   23.9239 H   0  0  0  0  0  0
  -27.2693  -33.3576   26.2073 H   0  0  0  0  0  0
  -28.3874  -32.6862   25.0288 H   0  0  0  0  0  0
  -28.0754  -31.8389   26.5354 H   0  0  0  0  0  0
  -28.2632  -38.0060   24.7475 H   0  0  0  0  0  0
  -28.1025  -36.2597   24.6352 H   0  0  0  0  0  0
  -27.2295  -37.1521   25.8886 H   0  0  0  0  0  0
  -20.9372  -29.8763   21.6882 H   0  0  0  0  0  0
  -26.0163  -38.2859   24.1421 H   0  0  0  0  0  0
  -33.0331  -18.9123   22.0969 H   0  0  0  0  0  0
  -32.2856  -16.6058   21.8702 H   0  0  0  0  0  0
  -28.5459  -18.0044   20.2172 H   0  0  0  0  0  0
  -28.8395  -24.0617   22.4117 H   0  0  0  0  0  0
  -28.4691  -26.3506   22.1190 H   0  0  0  0  0  0
  -32.9104  -21.1683   21.5897 H   0  0  0  0  0  0
  -31.3898  -21.7531   22.2413 H   0  0  0  0  0  0
  -31.6892  -21.7825   20.4934 H   0  0  0  0  0  0
  -27.9977  -20.3737   20.2214 H   0  0  0  0  0  0
  -29.2933  -20.8875   19.1862 H   0  0  0  0  0  0
  -28.9385  -15.5331   20.9577 H   0  0  0  0  0  0
  -29.1336  -22.0353   21.9219 H   0  0  0  0  0  0
  1 25  1  0  0  0
  1 30  2  0  0  0
  1 82  1  0  0  0
  2  3  1  0  0  0
  2 25  1  0  0  0
  2 85  1  0  0  0
  2 86  1  0  0  0
  3  4  1  0  0  0
  3 87  1  0  0  0
  3 88  1  0  0  0
  4  5  1  0  0  0
  4 89  1  0  0  0
  4 90  1  0  0  0
  5  6  1  0  0  0
  5 26  1  0  0  0
  5 91  1  0  0  0
  6 25  1  0  0  0
  6 92  1  0  0  0
  6 93  1  0  0  0
  7  8  2  0  0  0
  7 26  1  0  0  0
  7 29  1  0  0  0
  8  9  1  0  0  0
  8 22  1  0  0  0
  9 10  1  0  0  0
  9 27  2  0  0  0
 10 11  2  0  0  0
 10 15  1  0  0  0
 11 12  1  0  0  0
 11 94  1  0  0  0
 12 13  2  0  0  0
 12 95  1  0  0  0
 13 14  1  0  0  0
 13 31  1  0  0  0
 14 15  2  0  0  0
 14 96  1  0  0  0
 15 97  1  0  0  0
 16 17  2  0  0  0
 16 21  1  0  0  0
 16 31  1  0  0  0
 17 18  1  0  0  0
 17 98  1  0  0  0
 18 19  2  0  0  0
 18 99  1  0  0  0
 19 20  1  0  0  0
 19 24  1  0  0  0
 20 21  2  0  0  0
 20100  1  0  0  0
 21 23  1  0  0  0
 22 28  1  0  0  0
 22 32  2  0  0  0
 26 27  1  0  0  0
 28101  1  0  0  0
 28102  1  0  0  0
 29103  1  0  0  0
 29104  1  0  0  0
 33 34  1  0  0  0
 33 66  1  0  0  0
 33 70  2  0  0  0
 34 36  1  0  0  0
 34 59  1  0  0  0
 34105  1  0  0  0
 35 44  2  0  0  0
 35 45  1  0  0  0
 35 68  1  0  0  0
 36 56  1  0  0  0
 36106  1  0  0  0
 37 39  1  0  0  0
 37 47  1  0  0  0
 37 66  1  0  0  0
 37107  1  0  0  0
 38 43  2  0  0  0
 38 46  1  0  0  0
 38 47  1  0  0  0
 39 64  1  0  0  0
 39 67  2  0  0  0
 40 52  1  0  0  0
 40 53  2  0  0  0
 40 58  1  0  0  0
 41108  1  0  0  0
 41109  1  0  0  0
 41110  1  0  0  0
 41 48  1  0  0  0
 42 43  1  0  0  0
 42 66  1  0  0  0
 42111  1  0  0  0
 42112  1  0  0  0
 43 44  1  0  0  0
 44113  1  0  0  0
 45 46  2  0  0  0
 45114  1  0  0  0
 46115  1  0  0  0
 47116  1  0  0  0
 47117  1  0  0  0
 48 56  1  0  0  0
 48 65  1  0  0  0
 48118  1  0  0  0
 49 50  1  0  0  0
 49 53  1  0  0  0
 49 64  1  0  0  0
 49119  1  0  0  0
 50 51  1  0  0  0
 50120  1  0  0  0
 50121  1  0  0  0
 51 52  1  0  0  0
 51122  1  0  0  0
 51123  1  0  0  0
 52124  1  0  0  0
 52125  1  0  0  0
 53 54  1  0  0  0
 54 55  2  0  0  0
 54126  1  0  0  0
 55 57  1  0  0  0
 55127  1  0  0  0
 56 69  2  0  0  0
 57 58  2  0  0  0
 57128  1  0  0  0
 58129  1  0  0  0
 59 60  1  0  0  0
 59 61  1  0  0  0
 59 62  1  0  0  0
 60130  1  0  0  0
 60131  1  0  0  0
 60132  1  0  0  0
 61133  1  0  0  0
 61134  1  0  0  0
 61135  1  0  0  0
 62136  1  0  0  0
 62137  1  0  0  0
 62138  1  0  0  0
 63 65  1  0  0  0
 63139  1  0  0  0
 63140  1  0  0  0
 63141  1  0  0  0
 64142  1  0  0  0
 65143  1  0  0  0
 68 78  1  0  0  0
 71 72  2  0  0  0
 71 74  1  0  0  0
 71144  1  0  0  0
 72 76  1  0  0  0
 72145  1  0  0  0
 73 75  1  0  0  0
 73 76  2  0  0  0
 73146  1  0  0  0
 74 75  2  0  0  0
 74 80  1  0  0  0
 75 81  1  0  0  0
 76 82  1  0  0  0
 77 78  2  0  0  0
 77 79  1  0  0  0
 77147  1  0  0  0
 78148  1  0  0  0
 79 83  1  0  0  0
 79 84  2  0  0  0
 80149  1  0  0  0
 80150  1  0  0  0
 80151  1  0  0  0
 81 83  1  0  0  0
 81152  1  0  0  0
 81153  1  0  0  0
 82154  1  0  0  0
 83155  1  0  0  0
M  ISO  4   1 100  68 101  78 101  82 100
M  END
> <chiral flag>
0

> <version>
0

> <s_m_source_file>
/data/baiqing/PycharmProjects/Reinvent-master-3.2/result/LINK_invent/BTK/process_docking_weight1_custom_product_contain_oxygen_bond_distance_aromatic_linkinvent_7_9_3/rearranged_h_0059.sdf

> <i_m_source_file_index>
81

> <r_mmod_Potential_Energy-OPLS-2005>
-59.3370170593262

> <r_mmod_Stretch_Energy-OPLS-2005>
63.4779090881348

> <r_mmod_Bend_Energy-OPLS-2005>
134.604446411133

> <r_mmod_Torsional_Energy-OPLS-2005>
229.358856201172

> <r_mmod_Improper_Torsional_Energy-OPLS-2005>
5.24034023284912

> <r_mmod_Van_der_Waal_Energy-OPLS-2005>
142.865707397461

> <r_mmod_Electrostatic_Energy-OPLS-2005>
-433.993438720703

> <r_mmod_Solvation_Energy-OPLS-2005>
-238.517593383789

> <b_mmod_Minimization_Converged-OPLS-2005>
0

> <r_mmod_RMS_Derivative-OPLS-2005>
2.03774809837341

$$$$
81
                    3D
 Structure written by MMmdl.
149157  0  0  1  0            999 V2000
  -30.5896  -14.8034   20.4055 C   0  0  0  0  0  0
  -30.4231  -12.4856   19.4854 C   0  0  0  0  0  0
  -29.5039  -12.5152   18.2454 C   0  0  0  0  0  0
  -28.0311  -12.3338   18.6575 C   0  0  0  0  0  0
  -27.6323  -13.2444   19.8485 C   0  0  2  0  0  0
  -28.6775  -13.2066   20.9829 C   0  0  0  0  0  0
  -25.2435  -13.8239   20.5733 C   0  0  0  0  0  0
  -24.1751  -13.0446   20.9222 C   0  0  0  0  0  0
  -24.6366  -11.6943   20.8729 C   0  0  0  0  0  0
  -23.9050  -10.4297   21.0372 C   0  0  0  0  0  0
  -24.3596   -9.4222   21.9164 C   0  0  0  0  0  0
  -23.6269   -8.2260   22.0751 C   0  0  0  0  0  0
  -22.4257   -8.0274   21.3536 C   0  0  0  0  0  0
  -21.9876   -9.0247   20.4642 C   0  0  0  0  0  0
  -22.7209  -10.2125   20.3037 C   0  0  0  0  0  0
  -21.6861   -6.0722   22.5278 C   0  0  0  0  0  0
  -21.4020   -6.5627   23.8206 C   0  0  0  0  0  0
  -21.3674   -5.6793   24.9169 C   0  0  0  0  0  0
  -21.6036   -4.3056   24.7227 C   0  0  0  0  0  0
  -21.8825   -3.8144   23.4353 C   0  0  0  0  0  0
  -21.9191   -4.6953   22.3401 C   0  0  0  0  0  0
  -22.7769  -13.5204   21.1881 C   0  0  0  0  0  0
  -22.1649   -4.2141   21.0970 F   0  0  0  0  0  0
  -21.5635   -3.4536   25.7735 F   0  0  0  0  0  0
  -29.9740  -13.5666   20.3977 N   0  0  0  0  0  0
  -26.2872  -12.9473   20.3308 N   0  0  0  0  0  0
  -25.9298  -11.6603   20.5771 N   0  0  0  0  0  0
  -22.0420  -12.8186   22.0436 N   0  0  0  0  0  0
  -25.4071  -15.1966   20.4158 N   0  0  0  0  0  0
  -31.7874  -14.8669   20.1102 O   0  0  0  0  0  0
  -21.6648   -6.8855   21.4238 O   0  0  0  0  0  0
  -22.3434  -14.5494   20.6708 O   0  0  0  0  0  0
  -24.6326  -31.8517   23.1962 C   0  0  0  0  0  0
  -25.9142  -32.4739   23.8305 C   0  0  1  0  0  0
  -27.2196  -27.2336   20.1215 C   0  0  0  0  0  0
  -25.5951  -33.8552   24.2236 N   0  0  0  0  0  0
  -23.4280  -30.4709   21.5421 C   0  0  2  0  0  0
  -24.8759  -28.9148   20.1030 C   0  0  0  0  0  0
  -22.7488  -29.4575   22.4933 C   0  0  0  0  0  0
  -18.0281  -28.1354   22.8497 C   0  0  0  0  0  0
  -24.1491  -36.7264   23.2643 C   0  0  0  0  0  0
  -25.9737  -30.7511   21.3802 C   0  0  0  0  0  0
  -26.0458  -29.3734   20.7189 C   0  0  0  0  0  0
  -27.2153  -28.5441   20.7207 C   0  0  0  0  0  0
  -26.0256  -26.8487   19.4719 C   0  0  0  0  0  0
  -24.8723  -27.6634   19.4680 C   0  0  0  0  0  0
  -23.6438  -29.8010   20.1576 C   0  0  0  0  0  0
  -25.4132  -36.3061   24.0320 C   0  0  1  0  0  0
  -20.5889  -28.3664   23.1281 C   0  0  2  0  0  0
  -20.6770  -26.9379   22.5425 C   0  0  0  0  0  0
  -19.5754  -26.6356   21.5221 C   0  0  0  0  0  0
  -18.1925  -26.7898   22.1617 C   0  0  0  0  0  0
  -19.1538  -28.8833   23.2881 C   0  0  0  0  0  0
  -18.9459  -30.1439   23.8883 C   0  0  0  0  0  0
  -17.6468  -30.6565   24.0549 C   0  0  0  0  0  0
  -25.9077  -34.9438   23.5081 C   0  0  0  0  0  0
  -16.5353  -29.9058   23.6336 C   0  0  0  0  0  0
  -16.7268  -28.6465   23.0369 C   0  0  0  0  0  0
  -26.4507  -31.6586   25.0711 C   0  0  0  0  0  0
  -25.3730  -31.3734   26.1429 C   0  0  0  0  0  0
  -27.0368  -30.3006   24.6210 C   0  0  0  0  0  0
  -27.6050  -32.4341   25.7481 C   0  0  0  0  0  0
  -27.5579  -37.1790   24.8469 C   0  0  0  0  0  0
  -21.4196  -29.3015   22.3661 N   0  0  0  0  0  0
  -26.4289  -37.3772   23.9412 N   0  0  0  0  0  0
  -24.6962  -31.0455   22.0945 N   0  0  0  0  0  0
  -23.4181  -28.8136   23.3049 O   0  0  0  0  0  0
  -28.3048  -26.3220   20.2307 O   0  0  0  0  0  0
  -26.5645  -34.8911   22.4648 O   0  0  0  0  0  0
  -23.5483  -32.1359   23.7257 O   0  0  0  0  0  0
  -29.4182  -18.6131   20.4739 C   0  0  0  0  0  0
  -30.3487  -19.8876   18.6250 C   0  0  0  0  0  0
  -30.7341  -17.4630   18.7819 C   0  0  0  0  0  0
  -29.5735  -19.9202   19.8088 C   0  0  0  0  0  0
  -30.0004  -17.3490   19.9852 C   0  0  0  0  0  0
  -30.9030  -18.6957   18.1220 C   0  0  0  0  0  0
  -28.7045  -23.7844   20.3028 C   0  0  0  0  0  0
  -28.3066  -24.9853   19.7010 C   0  0  0  0  0  0
  -28.8343  -22.4543   19.5774 C   0  0  0  0  0  0
  -29.0733  -21.2646   20.2872 N   0  0  0  0  0  0
  -29.8265  -15.9699   20.5712 N   0  0  0  0  0  0
  -28.7290  -22.4117   18.3499 O   0  0  0  0  0  0
  -31.6151  -18.7315   16.9697 F   0  0  0  0  0  0
  -31.4619  -12.6064   19.1756 H   0  0  0  0  0  0
  -30.3700  -11.5166   19.9865 H   0  0  0  0  0  0
  -29.7931  -11.7375   17.5399 H   0  0  0  0  0  0
  -29.6302  -13.4641   17.7214 H   0  0  0  0  0  0
  -27.8954  -11.2888   18.9323 H   0  0  0  0  0  0
  -27.3727  -12.5122   17.8062 H   0  0  0  0  0  0
  -27.6154  -14.2618   19.4600 H   0  0  0  0  0  0
  -28.7209  -12.2183   21.4409 H   0  0  0  0  0  0
  -28.4029  -13.9007   21.7766 H   0  0  0  0  0  0
  -25.2741   -9.5732   22.4755 H   0  0  0  0  0  0
  -23.9992   -7.4660   22.7472 H   0  0  0  0  0  0
  -21.0811   -8.8731   19.8953 H   0  0  0  0  0  0
  -22.3625  -10.9643   19.6146 H   0  0  0  0  0  0
  -21.2014   -7.6134   23.9699 H   0  0  0  0  0  0
  -21.1488   -6.0523   25.9063 H   0  0  0  0  0  0
  -22.0588   -2.7610   23.2860 H   0  0  0  0  0  0
  -22.4034  -11.9842   22.4824 H   0  0  0  0  0  0
  -21.1030  -13.1204   22.2641 H   0  0  0  0  0  0
  -24.6367  -15.8462   20.5345 H   0  0  0  0  0  0
  -26.2521  -15.6446   20.0838 H   0  0  0  0  0  0
  -26.7191  -32.5359   23.1030 H   0  0  0  0  0  0
  -25.0143  -33.9719   25.0407 H   0  0  0  0  0  0
  -22.7255  -31.2945   21.3969 H   0  0  0  0  0  0
  -23.3781  -35.9568   23.3307 H   0  0  0  0  0  0
  -24.3572  -36.8886   22.2056 H   0  0  0  0  0  0
  -23.7225  -37.6452   23.6679 H   0  0  0  0  0  0
  -26.1211  -31.5105   20.6112 H   0  0  0  0  0  0
  -26.8472  -30.7981   22.0169 H   0  0  0  0  0  0
  -28.1025  -28.8861   21.2348 H   0  0  0  0  0  0
  -25.9516  -25.8835   18.9935 H   0  0  0  0  0  0
  -23.9749  -27.3093   18.9806 H   0  0  0  0  0  0
  -23.7569  -30.5792   19.4004 H   0  0  0  0  0  0
  -22.7614  -29.2302   19.8589 H   0  0  0  0  0  0
  -25.1328  -36.1896   25.0813 H   0  0  0  0  0  0
  -20.9980  -28.3226   24.1402 H   0  0  0  0  0  0
  -20.5666  -26.2265   23.3630 H   0  0  0  0  0  0
  -21.6632  -26.7394   22.1210 H   0  0  0  0  0  0
  -19.6919  -25.6272   21.1240 H   0  0  0  0  0  0
  -19.6702  -27.3175   20.6759 H   0  0  0  0  0  0
  -17.4214  -26.6673   21.3996 H   0  0  0  0  0  0
  -18.0305  -26.0015   22.8975 H   0  0  0  0  0  0
  -19.7941  -30.7252   24.2227 H   0  0  0  0  0  0
  -17.5017  -31.6253   24.5133 H   0  0  0  0  0  0
  -15.5351  -30.2955   23.7670 H   0  0  0  0  0  0
  -15.8664  -28.0774   22.7117 H   0  0  0  0  0  0
  -24.5947  -30.7029   25.7761 H   0  0  0  0  0  0
  -24.8887  -32.2908   26.4789 H   0  0  0  0  0  0
  -25.8062  -30.8972   27.0236 H   0  0  0  0  0  0
  -26.2957  -29.6746   24.1224 H   0  0  0  0  0  0
  -27.4048  -29.7269   25.4727 H   0  0  0  0  0  0
  -27.8833  -30.4296   23.9457 H   0  0  0  0  0  0
  -27.2651  -33.3672   26.1983 H   0  0  0  0  0  0
  -28.3887  -32.6841   25.0319 H   0  0  0  0  0  0
  -28.0673  -31.8510   26.5455 H   0  0  0  0  0  0
  -28.2597  -38.0084   24.7521 H   0  0  0  0  0  0
  -28.1067  -36.2621   24.6294 H   0  0  0  0  0  0
  -27.2287  -37.1428   25.8862 H   0  0  0  0  0  0
  -20.9382  -29.8712   21.6843 H   0  0  0  0  0  0
  -26.0167  -38.2833   24.1429 H   0  0  0  0  0  0
  -28.8394  -18.5791   21.3861 H   0  0  0  0  0  0
  -30.5502  -20.7924   18.0718 H   0  0  0  0  0  0
  -31.1760  -16.5930   18.3183 H   0  0  0  0  0  0
  -28.9826  -23.8130   21.3454 H   0  0  0  0  0  0
  -28.0000  -24.9946   18.6643 H   0  0  0  0  0  0
  -28.9254  -21.3392   21.2836 H   0  0  0  0  0  0
  -28.9349  -15.8106   21.0159 H   0  0  0  0  0  0
  1 25  1  0  0  0
  1 30  2  0  0  0
  1 81  1  0  0  0
  2  3  1  0  0  0
  2 25  1  0  0  0
  2 84  1  0  0  0
  2 85  1  0  0  0
  3  4  1  0  0  0
  3 86  1  0  0  0
  3 87  1  0  0  0
  4  5  1  0  0  0
  4 88  1  0  0  0
  4 89  1  0  0  0
  5  6  1  0  0  0
  5 26  1  0  0  0
  5 90  1  0  0  0
  6 25  1  0  0  0
  6 91  1  0  0  0
  6 92  1  0  0  0
  7  8  2  0  0  0
  7 26  1  0  0  0
  7 29  1  0  0  0
  8  9  1  0  0  0
  8 22  1  0  0  0
  9 10  1  0  0  0
  9 27  2  0  0  0
 10 11  2  0  0  0
 10 15  1  0  0  0
 11 12  1  0  0  0
 11 93  1  0  0  0
 12 13  2  0  0  0
 12 94  1  0  0  0
 13 14  1  0  0  0
 13 31  1  0  0  0
 14 15  2  0  0  0
 14 95  1  0  0  0
 15 96  1  0  0  0
 16 17  2  0  0  0
 16 21  1  0  0  0
 16 31  1  0  0  0
 17 18  1  0  0  0
 17 97  1  0  0  0
 18 19  2  0  0  0
 18 98  1  0  0  0
 19 20  1  0  0  0
 19 24  1  0  0  0
 20 21  2  0  0  0
 20 99  1  0  0  0
 21 23  1  0  0  0
 22 28  1  0  0  0
 22 32  2  0  0  0
 26 27  1  0  0  0
 28100  1  0  0  0
 28101  1  0  0  0
 29102  1  0  0  0
 29103  1  0  0  0
 33 34  1  0  0  0
 33 66  1  0  0  0
 33 70  2  0  0  0
 34 36  1  0  0  0
 34 59  1  0  0  0
 34104  1  0  0  0
 35 44  2  0  0  0
 35 45  1  0  0  0
 35 68  1  0  0  0
 36 56  1  0  0  0
 36105  1  0  0  0
 37 39  1  0  0  0
 37 47  1  0  0  0
 37 66  1  0  0  0
 37106  1  0  0  0
 38 43  2  0  0  0
 38 46  1  0  0  0
 38 47  1  0  0  0
 39 64  1  0  0  0
 39 67  2  0  0  0
 40 52  1  0  0  0
 40 53  2  0  0  0
 40 58  1  0  0  0
 41107  1  0  0  0
 41108  1  0  0  0
 41109  1  0  0  0
 41 48  1  0  0  0
 42 43  1  0  0  0
 42 66  1  0  0  0
 42110  1  0  0  0
 42111  1  0  0  0
 43 44  1  0  0  0
 44112  1  0  0  0
 45 46  2  0  0  0
 45113  1  0  0  0
 46114  1  0  0  0
 47115  1  0  0  0
 47116  1  0  0  0
 48 56  1  0  0  0
 48 65  1  0  0  0
 48117  1  0  0  0
 49 50  1  0  0  0
 49 53  1  0  0  0
 49 64  1  0  0  0
 49118  1  0  0  0
 50 51  1  0  0  0
 50119  1  0  0  0
 50120  1  0  0  0
 51 52  1  0  0  0
 51121  1  0  0  0
 51122  1  0  0  0
 52123  1  0  0  0
 52124  1  0  0  0
 53 54  1  0  0  0
 54 55  2  0  0  0
 54125  1  0  0  0
 55 57  1  0  0  0
 55126  1  0  0  0
 56 69  2  0  0  0
 57 58  2  0  0  0
 57127  1  0  0  0
 58128  1  0  0  0
 59 60  1  0  0  0
 59 61  1  0  0  0
 59 62  1  0  0  0
 60129  1  0  0  0
 60130  1  0  0  0
 60131  1  0  0  0
 61132  1  0  0  0
 61133  1  0  0  0
 61134  1  0  0  0
 62135  1  0  0  0
 62136  1  0  0  0
 62137  1  0  0  0
 63 65  1  0  0  0
 63138  1  0  0  0
 63139  1  0  0  0
 63140  1  0  0  0
 64141  1  0  0  0
 65142  1  0  0  0
 68 78  1  0  0  0
 71 74  2  0  0  0
 71 75  1  0  0  0
 71143  1  0  0  0
 72 74  1  0  0  0
 72 76  2  0  0  0
 72144  1  0  0  0
 73 75  2  0  0  0
 73 76  1  0  0  0
 73145  1  0  0  0
 74 80  1  0  0  0
 75 81  1  0  0  0
 76 83  1  0  0  0
 77 78  2  0  0  0
 77 79  1  0  0  0
 77146  1  0  0  0
 78147  1  0  0  0
 79 80  1  0  0  0
 79 82  2  0  0  0
 80148  1  0  0  0
 81149  1  0  0  0
M  ISO  4   1 100  68 101  78 101  81 100
M  END
> <chiral flag>
0

> <version>
0

> <s_m_source_file>
/data/baiqing/PycharmProjects/Reinvent-master-3.2/result/LINK_invent/BTK/process_docking_weight1_custom_product_contain_oxygen_bond_distance_aromatic_linkinvent_7_9_3/rearranged_h_0059.sdf

> <i_m_source_file_index>
82

> <r_mmod_Potential_Energy-OPLS-2005>
235.8671875

> <r_mmod_Stretch_Energy-OPLS-2005>
153.13215637207

> <r_mmod_Bend_Energy-OPLS-2005>
169.718704223633

> <r_mmod_Torsional_Energy-OPLS-2005>
247.46369934082

> <r_mmod_Improper_Torsional_Energy-OPLS-2005>
5.43815279006958

> <r_mmod_Van_der_Waal_Energy-OPLS-2005>
143.913436889648

> <r_mmod_Electrostatic_Energy-OPLS-2005>
-363.189331054688

> <r_mmod_Solvation_Energy-OPLS-2005>
-231.652267456055

> <b_mmod_Minimization_Converged-OPLS-2005>
0

> <r_mmod_RMS_Derivative-OPLS-2005>
3.23008298873901

$$$$
82
                    3D
 Structure written by MMmdl.
162171  0  0  1  0            999 V2000
  -30.6749  -14.4979   20.5660 C   0  0  0  0  0  0
  -30.4378  -12.3103   19.4397 C   0  0  0  0  0  0
  -29.5089  -12.4801   18.2192 C   0  0  0  0  0  0
  -28.0281  -12.3458   18.6290 C   0  0  0  0  0  0
  -27.6669  -13.1983   19.8743 C   0  0  2  0  0  0
  -28.7046  -12.9816   20.9985 C   0  0  0  0  0  0
  -25.2638  -13.8151   20.5660 C   0  0  0  0  0  0
  -24.1862  -13.0449   20.9157 C   0  0  0  0  0  0
  -24.6387  -11.6908   20.8735 C   0  0  0  0  0  0
  -23.9039  -10.4303   21.0411 C   0  0  0  0  0  0
  -24.3602   -9.4218   21.9188 C   0  0  0  0  0  0
  -23.6281   -8.2244   22.0753 C   0  0  0  0  0  0
  -22.4260   -8.0280   21.3535 C   0  0  0  0  0  0
  -21.9889   -9.0258   20.4631 C   0  0  0  0  0  0
  -22.7216  -10.2145   20.3048 C   0  0  0  0  0  0
  -21.6854   -6.0727   22.5268 C   0  0  0  0  0  0
  -21.4010   -6.5633   23.8205 C   0  0  0  0  0  0
  -21.3664   -5.6792   24.9174 C   0  0  0  0  0  0
  -21.6044   -4.3055   24.7224 C   0  0  0  0  0  0
  -21.8823   -3.8135   23.4348 C   0  0  0  0  0  0
  -21.9193   -4.6950   22.3397 C   0  0  0  0  0  0
  -22.7897  -13.5266   21.1856 C   0  0  0  0  0  0
  -22.1661   -4.2129   21.0980 F   0  0  0  0  0  0
  -21.5634   -3.4541   25.7742 F   0  0  0  0  0  0
  -30.0387  -13.2982   20.4547 N   0  0  0  0  0  0
  -26.3055  -12.9276   20.3337 N   0  0  0  0  0  0
  -25.9315  -11.6452   20.5773 N   0  0  0  0  0  0
  -22.0520  -12.8243   22.0403 N   0  0  0  0  0  0
  -25.4412  -15.1859   20.4113 N   0  0  0  0  0  0
  -31.7841  -14.7016   20.0680 O   0  0  0  0  0  0
  -21.6628   -6.8870   21.4229 O   0  0  0  0  0  0
  -22.3587  -14.5584   20.6733 O   0  0  0  0  0  0
  -24.6146  -31.8690   23.2133 C   0  0  0  0  0  0
  -25.9047  -32.4811   23.8435 C   0  0  1  0  0  0
  -27.2246  -27.4446   20.1018 C   0  0  0  0  0  0
  -25.5930  -33.8607   24.2378 N   0  0  0  0  0  0
  -23.4010  -30.4965   21.5497 C   0  0  2  0  0  0
  -24.8494  -28.9671   20.1102 C   0  0  0  0  0  0
  -22.7384  -29.4697   22.4976 C   0  0  0  0  0  0
  -18.0228  -28.1390   22.8484 C   0  0  0  0  0  0
  -24.1500  -36.7286   23.2625 C   0  0  0  0  0  0
  -25.9299  -30.8407   21.3656 C   0  0  0  0  0  0
  -26.0095  -29.4776   20.7076 C   0  0  0  0  0  0
  -27.2047  -28.7223   20.7022 C   0  0  0  0  0  0
  -26.0553  -26.9471   19.4926 C   0  0  0  0  0  0
  -24.8669  -27.6995   19.5001 C   0  0  0  0  0  0
  -23.6095  -29.8310   20.1629 C   0  0  0  0  0  0
  -25.4124  -36.3104   24.0339 C   0  0  1  0  0  0
  -20.5813  -28.3690   23.1306 C   0  0  2  0  0  0
  -20.6738  -26.9430   22.5399 C   0  0  0  0  0  0
  -19.5668  -26.6323   21.5266 C   0  0  0  0  0  0
  -18.1859  -26.7913   22.1665 C   0  0  0  0  0  0
  -19.1484  -28.8846   23.2883 C   0  0  0  0  0  0
  -18.9417  -30.1439   23.8914 C   0  0  0  0  0  0
  -17.6421  -30.6579   24.0623 C   0  0  0  0  0  0
  -25.9041  -34.9462   23.5152 C   0  0  0  0  0  0
  -16.5319  -29.9112   23.6332 C   0  0  0  0  0  0
  -16.7230  -28.6546   23.0308 C   0  0  0  0  0  0
  -26.4458  -31.6560   25.0763 C   0  0  0  0  0  0
  -25.3727  -31.3698   26.1528 C   0  0  0  0  0  0
  -27.0230  -30.2987   24.6117 C   0  0  0  0  0  0
  -27.6085  -32.4217   25.7515 C   0  0  0  0  0  0
  -27.5586  -37.1804   24.8466 C   0  0  0  0  0  0
  -21.4104  -29.3098   22.3742 N   0  0  0  0  0  0
  -26.4309  -37.3789   23.9399 N   0  0  0  0  0  0
  -24.6662  -31.0821   22.1021 N   0  0  0  0  0  0
  -23.4168  -28.8194   23.2980 O   0  0  0  0  0  0
  -28.3515  -26.6590   20.1321 O   0  0  0  0  0  0
  -26.5570  -34.8910   22.4703 O   0  0  0  0  0  0
  -23.5330  -32.1455   23.7535 O   0  0  0  0  0  0
  -27.9764  -18.5110   21.6674 C   0  0  0  0  0  0
  -28.4861  -17.2024   21.7496 C   0  0  0  0  0  0
  -29.7586  -19.0999   20.1429 C   0  0  0  0  0  0
  -28.6054  -19.4784   20.8619 C   0  0  0  0  0  0
  -30.2813  -17.7794   20.2120 C   0  0  0  0  0  0
  -29.6380  -16.7992   21.0353 C   0  0  0  0  0  0
  -29.8991  -23.1896   23.0531 C   0  0  0  0  0  0
  -30.0001  -24.3178   22.3334 C   0  0  0  0  0  0
  -29.1329  -22.0318   22.6127 C   0  0  0  0  0  0
  -28.8853  -23.1722   20.3753 C   0  0  0  0  0  0
  -29.3504  -24.5292   20.9859 C   0  0  1  0  0  0
  -31.5251  -17.5044   19.3897 C   0  0  0  0  0  0
  -27.9953  -20.8845   20.7406 C   0  0  0  0  0  0
  -28.2327  -25.6019   21.0952 C   0  0  0  0  0  0
  -28.7564  -22.0218   21.3057 N   0  0  0  0  0  0
  -29.9942  -15.4241   21.2737 N   0  0  0  0  0  0
  -28.8516  -21.1177   23.3920 O   0  0  0  0  0  0
  -31.4833  -12.4163   19.1424 H   0  0  0  0  0  0
  -30.3485  -11.3041   19.8528 H   0  0  0  0  0  0
  -29.7564  -11.7352   17.4618 H   0  0  0  0  0  0
  -29.6791  -13.4552   17.7593 H   0  0  0  0  0  0
  -27.8423  -11.2920   18.8447 H   0  0  0  0  0  0
  -27.3790  -12.6067   17.7923 H   0  0  0  0  0  0
  -27.7156  -14.2427   19.5674 H   0  0  0  0  0  0
  -28.6888  -11.9455   21.3344 H   0  0  0  0  0  0
  -28.4485  -13.5629   21.8858 H   0  0  0  0  0  0
  -25.2756   -9.5696   22.4776 H   0  0  0  0  0  0
  -23.9976   -7.4639   22.7490 H   0  0  0  0  0  0
  -21.0805   -8.8787   19.8957 H   0  0  0  0  0  0
  -22.3669  -10.9684   19.6166 H   0  0  0  0  0  0
  -21.1994   -7.6143   23.9699 H   0  0  0  0  0  0
  -21.1486   -6.0524   25.9074 H   0  0  0  0  0  0
  -22.0595   -2.7585   23.2863 H   0  0  0  0  0  0
  -22.4099  -11.9877   22.4757 H   0  0  0  0  0  0
  -21.1158  -13.1318   22.2636 H   0  0  0  0  0  0
  -24.6907  -15.8546   20.5450 H   0  0  0  0  0  0
  -26.3046  -15.6196   20.1084 H   0  0  0  0  0  0
  -26.7141  -32.5542   23.1222 H   0  0  0  0  0  0
  -25.0241  -33.9785   25.0631 H   0  0  0  0  0  0
  -22.6911  -31.3152   21.4101 H   0  0  0  0  0  0
  -23.3773  -35.9614   23.3317 H   0  0  0  0  0  0
  -24.3587  -36.8874   22.2036 H   0  0  0  0  0  0
  -23.7227  -37.6488   23.6630 H   0  0  0  0  0  0
  -26.0461  -31.6138   20.6045 H   0  0  0  0  0  0
  -26.8160  -30.8902   21.9866 H   0  0  0  0  0  0
  -28.1011  -29.1053   21.1703 H   0  0  0  0  0  0
  -26.0612  -25.9729   19.0226 H   0  0  0  0  0  0
  -23.9758  -27.2996   19.0356 H   0  0  0  0  0  0
  -23.7077  -30.6068   19.4012 H   0  0  0  0  0  0
  -22.7360  -29.2468   19.8686 H   0  0  0  0  0  0
  -25.1310  -36.1993   25.0837 H   0  0  0  0  0  0
  -20.9925  -28.3223   24.1413 H   0  0  0  0  0  0
  -20.5678  -26.2311   23.3603 H   0  0  0  0  0  0
  -21.6600  -26.7518   22.1171 H   0  0  0  0  0  0
  -19.6835  -25.6197   21.1419 H   0  0  0  0  0  0
  -19.6555  -27.3045   20.6714 H   0  0  0  0  0  0
  -17.4091  -26.6631   21.4107 H   0  0  0  0  0  0
  -18.0233  -26.0073   22.9091 H   0  0  0  0  0  0
  -19.7879  -30.7243   24.2323 H   0  0  0  0  0  0
  -17.4977  -31.6193   24.5357 H   0  0  0  0  0  0
  -15.5333  -30.3002   23.7714 H   0  0  0  0  0  0
  -15.8622  -28.0856   22.7056 H   0  0  0  0  0  0
  -24.5799  -30.7169   25.7857 H   0  0  0  0  0  0
  -24.9073  -32.2883   26.5123 H   0  0  0  0  0  0
  -25.8057  -30.8720   27.0200 H   0  0  0  0  0  0
  -27.4045  -29.7222   25.4549 H   0  0  0  0  0  0
  -27.8545  -30.4268   23.9187 H   0  0  0  0  0  0
  -26.2703  -29.6771   24.1255 H   0  0  0  0  0  0
  -27.2780  -33.3554   26.2066 H   0  0  0  0  0  0
  -28.3913  -32.6669   25.0334 H   0  0  0  0  0  0
  -28.0678  -31.8313   26.5453 H   0  0  0  0  0  0
  -28.2621  -38.0090   24.7536 H   0  0  0  0  0  0
  -28.1076  -36.2625   24.6299 H   0  0  0  0  0  0
  -27.2303  -37.1448   25.8869 H   0  0  0  0  0  0
  -20.9254  -29.8816   21.6973 H   0  0  0  0  0  0
  -26.0218  -38.2876   24.1405 H   0  0  0  0  0  0
  -27.0904  -18.7730   22.2299 H   0  0  0  0  0  0
  -27.9643  -16.4960   22.3795 H   0  0  0  0  0  0
  -30.2364  -19.8393   19.5148 H   0  0  0  0  0  0
  -30.3926  -23.1380   24.0118 H   0  0  0  0  0  0
  -30.5708  -25.1478   22.7263 H   0  0  0  0  0  0
  -29.6103  -22.8706   19.6174 H   0  0  0  0  0  0
  -27.9461  -23.3170   19.8375 H   0  0  0  0  0  0
  -30.1302  -24.9356   20.3442 H   0  0  0  0  0  0
  -31.8688  -18.4000   18.8701 H   0  0  0  0  0  0
  -31.3237  -16.7546   18.6233 H   0  0  0  0  0  0
  -32.3392  -17.1731   20.0333 H   0  0  0  0  0  0
  -27.0084  -20.8865   21.2049 H   0  0  0  0  0  0
  -27.8118  -21.0489   19.6789 H   0  0  0  0  0  0
  -28.2540  -26.0667   22.0816 H   0  0  0  0  0  0
  -27.2560  -25.1171   21.0442 H   0  0  0  0  0  0
  -29.3135  -14.9590   21.8541 H   0  0  0  0  0  0
  1 25  1  0  0  0
  1 30  2  0  0  0
  1 86  1  0  0  0
  2  3  1  0  0  0
  2 25  1  0  0  0
  2 88  1  0  0  0
  2 89  1  0  0  0
  3  4  1  0  0  0
  3 90  1  0  0  0
  3 91  1  0  0  0
  4  5  1  0  0  0
  4 92  1  0  0  0
  4 93  1  0  0  0
  5  6  1  0  0  0
  5 26  1  0  0  0
  5 94  1  0  0  0
  6 25  1  0  0  0
  6 95  1  0  0  0
  6 96  1  0  0  0
  7  8  2  0  0  0
  7 26  1  0  0  0
  7 29  1  0  0  0
  8  9  1  0  0  0
  8 22  1  0  0  0
  9 10  1  0  0  0
  9 27  2  0  0  0
 10 11  2  0  0  0
 10 15  1  0  0  0
 11 12  1  0  0  0
 11 97  1  0  0  0
 12 13  2  0  0  0
 12 98  1  0  0  0
 13 14  1  0  0  0
 13 31  1  0  0  0
 14 15  2  0  0  0
 14 99  1  0  0  0
 15100  1  0  0  0
 16 17  2  0  0  0
 16 21  1  0  0  0
 16 31  1  0  0  0
 17 18  1  0  0  0
 17101  1  0  0  0
 18 19  2  0  0  0
 18102  1  0  0  0
 19 20  1  0  0  0
 19 24  1  0  0  0
 20 21  2  0  0  0
 20103  1  0  0  0
 21 23  1  0  0  0
 22 28  1  0  0  0
 22 32  2  0  0  0
 26 27  1  0  0  0
 28104  1  0  0  0
 28105  1  0  0  0
 29106  1  0  0  0
 29107  1  0  0  0
 33 34  1  0  0  0
 33 66  1  0  0  0
 33 70  2  0  0  0
 34 36  1  0  0  0
 34 59  1  0  0  0
 34108  1  0  0  0
 35 44  2  0  0  0
 35 45  1  0  0  0
 35 68  1  0  0  0
 36 56  1  0  0  0
 36109  1  0  0  0
 37 39  1  0  0  0
 37 47  1  0  0  0
 37 66  1  0  0  0
 37110  1  0  0  0
 38 43  2  0  0  0
 38 46  1  0  0  0
 38 47  1  0  0  0
 39 64  1  0  0  0
 39 67  2  0  0  0
 40 52  1  0  0  0
 40 53  2  0  0  0
 40 58  1  0  0  0
 41111  1  0  0  0
 41112  1  0  0  0
 41113  1  0  0  0
 41 48  1  0  0  0
 42 43  1  0  0  0
 42 66  1  0  0  0
 42114  1  0  0  0
 42115  1  0  0  0
 43 44  1  0  0  0
 44116  1  0  0  0
 45 46  2  0  0  0
 45117  1  0  0  0
 46118  1  0  0  0
 47119  1  0  0  0
 47120  1  0  0  0
 48 56  1  0  0  0
 48 65  1  0  0  0
 48121  1  0  0  0
 49 50  1  0  0  0
 49 53  1  0  0  0
 49 64  1  0  0  0
 49122  1  0  0  0
 50 51  1  0  0  0
 50123  1  0  0  0
 50124  1  0  0  0
 51 52  1  0  0  0
 51125  1  0  0  0
 51126  1  0  0  0
 52127  1  0  0  0
 52128  1  0  0  0
 53 54  1  0  0  0
 54 55  2  0  0  0
 54129  1  0  0  0
 55 57  1  0  0  0
 55130  1  0  0  0
 56 69  2  0  0  0
 57 58  2  0  0  0
 57131  1  0  0  0
 58132  1  0  0  0
 59 60  1  0  0  0
 59 61  1  0  0  0
 59 62  1  0  0  0
 60133  1  0  0  0
 60134  1  0  0  0
 60135  1  0  0  0
 61136  1  0  0  0
 61137  1  0  0  0
 61138  1  0  0  0
 62139  1  0  0  0
 62140  1  0  0  0
 62141  1  0  0  0
 63 65  1  0  0  0
 63142  1  0  0  0
 63143  1  0  0  0
 63144  1  0  0  0
 64145  1  0  0  0
 65146  1  0  0  0
 68 84  1  0  0  0
 71 72  2  0  0  0
 71 74  1  0  0  0
 71147  1  0  0  0
 72 76  1  0  0  0
 72148  1  0  0  0
 73 74  2  0  0  0
 73 75  1  0  0  0
 73149  1  0  0  0
 74 83  1  0  0  0
 75 76  2  0  0  0
 75 82  1  0  0  0
 76 86  1  0  0  0
 77 78  2  0  0  0
 77 79  1  0  0  0
 77150  1  0  0  0
 78 81  1  0  0  0
 78151  1  0  0  0
 79 85  1  0  0  0
 79 87  2  0  0  0
 80 81  1  0  0  0
 80 85  1  0  0  0
 80152  1  0  0  0
 80153  1  0  0  0
 81 84  1  0  0  0
 81154  1  0  0  0
 82155  1  0  0  0
 82156  1  0  0  0
 82157  1  0  0  0
 83 85  1  0  0  0
 83158  1  0  0  0
 83159  1  0  0  0
 84160  1  0  0  0
 84161  1  0  0  0
 86162  1  0  0  0
M  ISO  4   1 100  68 101  84 101  86 100
M  END
> <chiral flag>
0

> <version>
0

> <s_m_source_file>
/data/baiqing/PycharmProjects/Reinvent-master-3.2/result/LINK_invent/BTK/process_docking_weight1_custom_product_contain_oxygen_bond_distance_aromatic_linkinvent_7_9_3/rearranged_h_0059.sdf

> <i_m_source_file_index>
83

> <r_mmod_Potential_Energy-OPLS-2005>
26.4206829071045

> <r_mmod_Stretch_Energy-OPLS-2005>
44.5348625183105

> <r_mmod_Bend_Energy-OPLS-2005>
134.64143371582

> <r_mmod_Torsional_Energy-OPLS-2005>
277.047027587891

> <r_mmod_Improper_Torsional_Energy-OPLS-2005>
4.22560262680054

> <r_mmod_Van_der_Waal_Energy-OPLS-2005>
165.34895324707

> <r_mmod_Electrostatic_Energy-OPLS-2005>
-393.145416259766

> <r_mmod_Solvation_Energy-OPLS-2005>
-221.528900146484

> <b_mmod_Minimization_Converged-OPLS-2005>
0

> <r_mmod_RMS_Derivative-OPLS-2005>
3.24311017990112

$$$$
83
                    3D
 Structure written by MMmdl.
158166  0  0  1  0            999 V2000
  -30.7514  -14.4014   20.6829 C   0  0  0  0  0  0
  -30.4279  -12.3069   19.4043 C   0  0  0  0  0  0
  -29.4925  -12.5298   18.2002 C   0  0  0  0  0  0
  -28.0170  -12.3800   18.6159 C   0  0  0  0  0  0
  -27.6704  -13.2046   19.8821 C   0  0  2  0  0  0
  -28.7075  -12.9538   20.9990 C   0  0  0  0  0  0
  -25.2627  -13.8165   20.5679 C   0  0  0  0  0  0
  -24.1866  -13.0447   20.9169 C   0  0  0  0  0  0
  -24.6413  -11.6911   20.8734 C   0  0  0  0  0  0
  -23.9077  -10.4297   21.0409 C   0  0  0  0  0  0
  -24.3623   -9.4211   21.9191 C   0  0  0  0  0  0
  -23.6293   -8.2244   22.0756 C   0  0  0  0  0  0
  -22.4275   -8.0287   21.3543 C   0  0  0  0  0  0
  -21.9914   -9.0269   20.4649 C   0  0  0  0  0  0
  -22.7252  -10.2145   20.3057 C   0  0  0  0  0  0
  -21.6854   -6.0740   22.5281 C   0  0  0  0  0  0
  -21.4018   -6.5644   23.8217 C   0  0  0  0  0  0
  -21.3658   -5.6791   24.9173 C   0  0  0  0  0  0
  -21.6037   -4.3054   24.7223 C   0  0  0  0  0  0
  -21.8824   -3.8154   23.4344 C   0  0  0  0  0  0
  -21.9195   -4.6969   22.3400 C   0  0  0  0  0  0
  -22.7886  -13.5242   21.1842 C   0  0  0  0  0  0
  -22.1664   -4.2156   21.0979 F   0  0  0  0  0  0
  -21.5623   -3.4539   25.7736 F   0  0  0  0  0  0
  -30.0544  -13.2519   20.4683 N   0  0  0  0  0  0
  -26.3074  -12.9331   20.3388 N   0  0  0  0  0  0
  -25.9339  -11.6489   20.5761 N   0  0  0  0  0  0
  -22.0517  -12.8233   22.0397 N   0  0  0  0  0  0
  -25.4379  -15.1880   20.4108 N   0  0  0  0  0  0
  -31.7615  -14.7100   20.0412 O   0  0  0  0  0  0
  -21.6637   -6.8889   21.4239 O   0  0  0  0  0  0
  -22.3574  -14.5557   20.6706 O   0  0  0  0  0  0
  -24.6130  -31.8696   23.2106 C   0  0  0  0  0  0
  -25.9031  -32.4828   23.8390 C   0  0  1  0  0  0
  -27.2385  -27.4436   20.0926 C   0  0  0  0  0  0
  -25.5893  -33.8617   24.2332 N   0  0  0  0  0  0
  -23.4002  -30.4940   21.5509 C   0  0  2  0  0  0
  -24.8478  -28.9590   20.1176 C   0  0  0  0  0  0
  -22.7399  -29.4686   22.5000 C   0  0  0  0  0  0
  -18.0276  -28.1379   22.8497 C   0  0  0  0  0  0
  -24.1479  -36.7302   23.2638 C   0  0  0  0  0  0
  -25.9285  -30.8368   21.3627 C   0  0  0  0  0  0
  -26.0088  -29.4711   20.7120 C   0  0  0  0  0  0
  -27.2080  -28.7220   20.6952 C   0  0  0  0  0  0
  -26.0621  -26.9523   19.4831 C   0  0  0  0  0  0
  -24.8695  -27.6963   19.5034 C   0  0  0  0  0  0
  -23.6088  -29.8243   20.1665 C   0  0  0  0  0  0
  -25.4108  -36.3116   24.0341 C   0  0  1  0  0  0
  -20.5866  -28.3666   23.1320 C   0  0  2  0  0  0
  -20.6756  -26.9404   22.5417 C   0  0  0  0  0  0
  -19.5732  -26.6394   21.5207 C   0  0  0  0  0  0
  -18.1916  -26.7928   22.1629 C   0  0  0  0  0  0
  -19.1523  -28.8842   23.2903 C   0  0  0  0  0  0
  -18.9459  -30.1444   23.8916 C   0  0  0  0  0  0
  -17.6459  -30.6588   24.0581 C   0  0  0  0  0  0
  -25.9029  -34.9477   23.5136 C   0  0  0  0  0  0
  -16.5352  -29.9093   23.6332 C   0  0  0  0  0  0
  -16.7264  -28.6510   23.0357 C   0  0  0  0  0  0
  -26.4465  -31.6598   25.0711 C   0  0  0  0  0  0
  -25.3758  -31.3695   26.1486 C   0  0  0  0  0  0
  -27.0269  -30.3044   24.6053 C   0  0  0  0  0  0
  -27.6039  -32.4319   25.7477 C   0  0  0  0  0  0
  -27.5582  -37.1815   24.8474 C   0  0  0  0  0  0
  -21.4131  -29.3037   22.3724 N   0  0  0  0  0  0
  -26.4292  -37.3811   23.9417 N   0  0  0  0  0  0
  -24.6655  -31.0806   22.1000 N   0  0  0  0  0  0
  -23.4177  -28.8238   23.3043 O   0  0  0  0  0  0
  -28.4017  -26.7011   20.0816 O   0  0  0  0  0  0
  -26.5591  -34.8929   22.4698 O   0  0  0  0  0  0
  -23.5327  -32.1436   23.7512 O   0  0  0  0  0  0
  -30.9018  -17.5170   21.1834 C   0  0  0  0  0  0
  -30.6328  -16.7503   23.4795 C   0  0  0  0  0  0
  -31.1559  -18.8362   21.6414 C   0  0  0  0  0  0
  -31.1881  -19.0913   23.0395 C   0  0  0  0  0  0
  -30.6449  -16.4651   22.1006 C   0  0  0  0  0  0
  -30.9114  -18.0457   23.9460 C   0  0  0  0  0  0
  -29.6053  -23.2362   20.7482 C   0  0  0  0  0  0
  -29.3624  -24.4223   20.1509 C   0  0  0  0  0  0
  -30.6274  -22.3157   20.2722 C   0  0  0  0  0  0
  -31.5231  -20.4684   23.5965 C   0  0  0  0  0  0
  -31.3881  -19.9574   20.6208 C   0  0  0  0  0  0
  -28.2736  -25.3755   20.6181 C   0  0  0  0  0  0
  -30.2966  -15.1407   21.7074 N   0  0  0  0  0  0
  -30.4861  -21.0953   20.8082 N   0  0  0  0  0  0
  -31.5301  -22.5944   19.4812 O   0  0  0  0  0  0
  -30.9045  -18.2816   25.2803 F   0  0  0  0  0  0
  -31.4697  -12.4185   19.0979 H   0  0  0  0  0  0
  -30.3376  -11.2833   19.7731 H   0  0  0  0  0  0
  -29.7290  -11.8219   17.4049 H   0  0  0  0  0  0
  -29.6594  -13.5243   17.7838 H   0  0  0  0  0  0
  -27.8295  -11.3220   18.8025 H   0  0  0  0  0  0
  -27.3618  -12.6651   17.7923 H   0  0  0  0  0  0
  -27.7273  -14.2583   19.6076 H   0  0  0  0  0  0
  -28.6707  -11.9119   21.3217 H   0  0  0  0  0  0
  -28.4406  -13.5336   21.8829 H   0  0  0  0  0  0
  -25.2763   -9.5681   22.4772 H   0  0  0  0  0  0
  -24.0005   -7.4631   22.7472 H   0  0  0  0  0  0
  -21.0847   -8.8800   19.8953 H   0  0  0  0  0  0
  -22.3724  -10.9686   19.6171 H   0  0  0  0  0  0
  -21.2018   -7.6153   23.9724 H   0  0  0  0  0  0
  -21.1469   -6.0518   25.9077 H   0  0  0  0  0  0
  -22.0606   -2.7614   23.2841 H   0  0  0  0  0  0
  -22.4103  -11.9865   22.4754 H   0  0  0  0  0  0
  -21.1149  -13.1287   22.2626 H   0  0  0  0  0  0
  -24.6803  -15.8527   20.5287 H   0  0  0  0  0  0
  -26.3050  -15.6235   20.1219 H   0  0  0  0  0  0
  -26.7091  -32.5566   23.1142 H   0  0  0  0  0  0
  -25.0072  -33.9761   25.0497 H   0  0  0  0  0  0
  -22.6897  -31.3116   21.4116 H   0  0  0  0  0  0
  -23.3742  -35.9635   23.3322 H   0  0  0  0  0  0
  -24.3571  -36.8885   22.2047 H   0  0  0  0  0  0
  -23.7211  -37.6510   23.6625 H   0  0  0  0  0  0
  -26.0407  -31.6013   20.5930 H   0  0  0  0  0  0
  -26.8162  -30.8916   21.9812 H   0  0  0  0  0  0
  -28.1043  -29.1160   21.1552 H   0  0  0  0  0  0
  -26.0620  -25.9965   18.9787 H   0  0  0  0  0  0
  -23.9793  -27.2971   19.0363 H   0  0  0  0  0  0
  -23.7187  -30.5957   19.4032 H   0  0  0  0  0  0
  -22.7315  -29.2443   19.8731 H   0  0  0  0  0  0
  -25.1280  -36.1983   25.0833 H   0  0  0  0  0  0
  -20.9972  -28.3229   24.1434 H   0  0  0  0  0  0
  -20.5649  -26.2281   23.3603 H   0  0  0  0  0  0
  -21.6631  -26.7442   22.1232 H   0  0  0  0  0  0
  -19.6888  -25.6313   21.1216 H   0  0  0  0  0  0
  -19.6662  -27.3221   20.6745 H   0  0  0  0  0  0
  -17.4192  -26.6684   21.4025 H   0  0  0  0  0  0
  -18.0321  -26.0057   22.9012 H   0  0  0  0  0  0
  -19.7935  -30.7252   24.2296 H   0  0  0  0  0  0
  -17.5025  -31.6272   24.5172 H   0  0  0  0  0  0
  -15.5360  -30.3013   23.7636 H   0  0  0  0  0  0
  -15.8664  -28.0829   22.7081 H   0  0  0  0  0  0
  -24.5935  -30.7013   25.7859 H   0  0  0  0  0  0
  -24.8945  -32.2842   26.4961 H   0  0  0  0  0  0
  -25.8169  -30.8878   27.0221 H   0  0  0  0  0  0
  -26.2779  -29.6839   24.1126 H   0  0  0  0  0  0
  -27.4050  -29.7251   25.4482 H   0  0  0  0  0  0
  -27.8614  -30.4353   23.9165 H   0  0  0  0  0  0
  -27.2643  -33.3601   26.2085 H   0  0  0  0  0  0
  -28.3847  -32.6914   25.0314 H   0  0  0  0  0  0
  -28.0705  -31.8426   26.5378 H   0  0  0  0  0  0
  -28.2636  -38.0084   24.7539 H   0  0  0  0  0  0
  -28.1043  -36.2628   24.6290 H   0  0  0  0  0  0
  -27.2304  -37.1475   25.8877 H   0  0  0  0  0  0
  -20.9284  -29.8759   21.6952 H   0  0  0  0  0  0
  -26.0176  -38.2883   24.1437 H   0  0  0  0  0  0
  -30.8786  -17.3205   20.1197 H   0  0  0  0  0  0
  -30.4167  -15.9736   24.1981 H   0  0  0  0  0  0
  -29.0131  -22.9644   21.6106 H   0  0  0  0  0  0
  -29.9320  -24.7272   19.2832 H   0  0  0  0  0  0
  -32.3366  -20.9343   23.0411 H   0  0  0  0  0  0
  -31.8395  -20.4150   24.6371 H   0  0  0  0  0  0
  -30.6521  -21.1217   23.5518 H   0  0  0  0  0  0
  -31.2688  -19.5780   19.6048 H   0  0  0  0  0  0
  -32.4257  -20.2875   20.7026 H   0  0  0  0  0  0
  -28.2990  -25.4362   21.7064 H   0  0  0  0  0  0
  -27.3269  -24.9022   20.3633 H   0  0  0  0  0  0
  -29.6076  -14.6751   22.2790 H   0  0  0  0  0  0
  -29.7036  -20.9461   21.4285 H   0  0  0  0  0  0
  1 25  1  0  0  0
  1 30  2  0  0  0
  1 83  1  0  0  0
  2  3  1  0  0  0
  2 25  1  0  0  0
  2 87  1  0  0  0
  2 88  1  0  0  0
  3  4  1  0  0  0
  3 89  1  0  0  0
  3 90  1  0  0  0
  4  5  1  0  0  0
  4 91  1  0  0  0
  4 92  1  0  0  0
  5  6  1  0  0  0
  5 26  1  0  0  0
  5 93  1  0  0  0
  6 25  1  0  0  0
  6 94  1  0  0  0
  6 95  1  0  0  0
  7  8  2  0  0  0
  7 26  1  0  0  0
  7 29  1  0  0  0
  8  9  1  0  0  0
  8 22  1  0  0  0
  9 10  1  0  0  0
  9 27  2  0  0  0
 10 11  2  0  0  0
 10 15  1  0  0  0
 11 12  1  0  0  0
 11 96  1  0  0  0
 12 13  2  0  0  0
 12 97  1  0  0  0
 13 14  1  0  0  0
 13 31  1  0  0  0
 14 15  2  0  0  0
 14 98  1  0  0  0
 15 99  1  0  0  0
 16 17  2  0  0  0
 16 21  1  0  0  0
 16 31  1  0  0  0
 17 18  1  0  0  0
 17100  1  0  0  0
 18 19  2  0  0  0
 18101  1  0  0  0
 19 20  1  0  0  0
 19 24  1  0  0  0
 20 21  2  0  0  0
 20102  1  0  0  0
 21 23  1  0  0  0
 22 28  1  0  0  0
 22 32  2  0  0  0
 26 27  1  0  0  0
 28103  1  0  0  0
 28104  1  0  0  0
 29105  1  0  0  0
 29106  1  0  0  0
 33 34  1  0  0  0
 33 66  1  0  0  0
 33 70  2  0  0  0
 34 36  1  0  0  0
 34 59  1  0  0  0
 34107  1  0  0  0
 35 44  2  0  0  0
 35 45  1  0  0  0
 35 68  1  0  0  0
 36 56  1  0  0  0
 36108  1  0  0  0
 37 39  1  0  0  0
 37 47  1  0  0  0
 37 66  1  0  0  0
 37109  1  0  0  0
 38 43  2  0  0  0
 38 46  1  0  0  0
 38 47  1  0  0  0
 39 64  1  0  0  0
 39 67  2  0  0  0
 40 52  1  0  0  0
 40 53  2  0  0  0
 40 58  1  0  0  0
 41110  1  0  0  0
 41111  1  0  0  0
 41112  1  0  0  0
 41 48  1  0  0  0
 42 43  1  0  0  0
 42 66  1  0  0  0
 42113  1  0  0  0
 42114  1  0  0  0
 43 44  1  0  0  0
 44115  1  0  0  0
 45 46  2  0  0  0
 45116  1  0  0  0
 46117  1  0  0  0
 47118  1  0  0  0
 47119  1  0  0  0
 48 56  1  0  0  0
 48 65  1  0  0  0
 48120  1  0  0  0
 49 50  1  0  0  0
 49 53  1  0  0  0
 49 64  1  0  0  0
 49121  1  0  0  0
 50 51  1  0  0  0
 50122  1  0  0  0
 50123  1  0  0  0
 51 52  1  0  0  0
 51124  1  0  0  0
 51125  1  0  0  0
 52126  1  0  0  0
 52127  1  0  0  0
 53 54  1  0  0  0
 54 55  2  0  0  0
 54128  1  0  0  0
 55 57  1  0  0  0
 55129  1  0  0  0
 56 69  2  0  0  0
 57 58  2  0  0  0
 57130  1  0  0  0
 58131  1  0  0  0
 59 60  1  0  0  0
 59 61  1  0  0  0
 59 62  1  0  0  0
 60132  1  0  0  0
 60133  1  0  0  0
 60134  1  0  0  0
 61135  1  0  0  0
 61136  1  0  0  0
 61137  1  0  0  0
 62138  1  0  0  0
 62139  1  0  0  0
 62140  1  0  0  0
 63 65  1  0  0  0
 63141  1  0  0  0
 63142  1  0  0  0
 63143  1  0  0  0
 64144  1  0  0  0
 65145  1  0  0  0
 68 82  1  0  0  0
 71 73  2  0  0  0
 71 75  1  0  0  0
 71146  1  0  0  0
 72 75  2  0  0  0
 72 76  1  0  0  0
 72147  1  0  0  0
 73 74  1  0  0  0
 73 81  1  0  0  0
 74 76  2  0  0  0
 74 80  1  0  0  0
 75 83  1  0  0  0
 76 86  1  0  0  0
 77 78  2  0  0  0
 77 79  1  0  0  0
 77148  1  0  0  0
 78 82  1  0  0  0
 78149  1  0  0  0
 79 84  1  0  0  0
 79 85  2  0  0  0
 80150  1  0  0  0
 80151  1  0  0  0
 80152  1  0  0  0
 81 84  1  0  0  0
 81153  1  0  0  0
 81154  1  0  0  0
 82155  1  0  0  0
 82156  1  0  0  0
 83157  1  0  0  0
 84158  1  0  0  0
M  ISO  4   1 100  68 101  82 101  83 100
M  END
> <chiral flag>
0

> <version>
0

> <s_m_source_file>
/data/baiqing/PycharmProjects/Reinvent-master-3.2/result/LINK_invent/BTK/process_docking_weight1_custom_product_contain_oxygen_bond_distance_aromatic_linkinvent_7_9_3/rearranged_h_0059.sdf

> <i_m_source_file_index>
84

> <r_mmod_Potential_Energy-OPLS-2005>
-167.589096069336

> <r_mmod_Stretch_Energy-OPLS-2005>
36.360164642334

> <r_mmod_Bend_Energy-OPLS-2005>
92.0222778320312

> <r_mmod_Torsional_Energy-OPLS-2005>
235.106674194336

> <r_mmod_Improper_Torsional_Energy-OPLS-2005>
2.43433880805969

> <r_mmod_Van_der_Waal_Energy-OPLS-2005>
159.629821777344

> <r_mmod_Electrostatic_Energy-OPLS-2005>
-471.053039550781

> <r_mmod_Solvation_Energy-OPLS-2005>
-230.437042236328

> <b_mmod_Minimization_Converged-OPLS-2005>
0

> <r_mmod_RMS_Derivative-OPLS-2005>
1.83213829994202

$$$$
84
                    3D
 Structure written by MMmdl.
158166  0  0  1  0            999 V2000
  -30.7131  -14.3938   20.6142 C   0  0  0  0  0  0
  -30.4313  -12.2743   19.3886 C   0  0  0  0  0  0
  -29.4848  -12.4899   18.1898 C   0  0  0  0  0  0
  -28.0052  -12.3687   18.6128 C   0  0  0  0  0  0
  -27.6696  -13.1901   19.8862 C   0  0  2  0  0  0
  -28.7155  -12.9079   20.9881 C   0  0  0  0  0  0
  -25.2648  -13.8149   20.5710 C   0  0  0  0  0  0
  -24.1864  -13.0431   20.9177 C   0  0  0  0  0  0
  -24.6393  -11.6897   20.8742 C   0  0  0  0  0  0
  -23.9062  -10.4282   21.0430 C   0  0  0  0  0  0
  -24.3617   -9.4187   21.9198 C   0  0  0  0  0  0
  -23.6285   -8.2222   22.0767 C   0  0  0  0  0  0
  -22.4259   -8.0280   21.3560 C   0  0  0  0  0  0
  -21.9910   -9.0252   20.4654 C   0  0  0  0  0  0
  -22.7247  -10.2129   20.3064 C   0  0  0  0  0  0
  -21.6837   -6.0726   22.5281 C   0  0  0  0  0  0
  -21.3998   -6.5629   23.8217 C   0  0  0  0  0  0
  -21.3656   -5.6781   24.9183 C   0  0  0  0  0  0
  -21.6062   -4.3047   24.7223 C   0  0  0  0  0  0
  -21.8823   -3.8136   23.4340 C   0  0  0  0  0  0
  -21.9194   -4.6956   22.3396 C   0  0  0  0  0  0
  -22.7900  -13.5255   21.1809 C   0  0  0  0  0  0
  -22.1664   -4.2146   21.0971 F   0  0  0  0  0  0
  -21.5641   -3.4534   25.7732 F   0  0  0  0  0  0
  -30.0462  -13.2258   20.4378 N   0  0  0  0  0  0
  -26.3068  -12.9273   20.3451 N   0  0  0  0  0  0
  -25.9315  -11.6446   20.5824 N   0  0  0  0  0  0
  -22.0530  -12.8248   22.0380 N   0  0  0  0  0  0
  -25.4404  -15.1861   20.4129 N   0  0  0  0  0  0
  -31.8219  -14.6260   20.1234 O   0  0  0  0  0  0
  -21.6630   -6.8866   21.4242 O   0  0  0  0  0  0
  -22.3594  -14.5562   20.6671 O   0  0  0  0  0  0
  -24.6086  -31.8731   23.2142 C   0  0  0  0  0  0
  -25.8997  -32.4860   23.8441 C   0  0  1  0  0  0
  -27.2406  -27.4738   20.0875 C   0  0  0  0  0  0
  -25.5875  -33.8661   24.2373 N   0  0  0  0  0  0
  -23.3944  -30.4905   21.5541 C   0  0  2  0  0  0
  -24.8472  -28.9794   20.0974 C   0  0  0  0  0  0
  -22.7401  -29.4550   22.4967 C   0  0  0  0  0  0
  -18.0188  -28.1296   22.8537 C   0  0  0  0  0  0
  -24.1477  -36.7329   23.2640 C   0  0  0  0  0  0
  -25.9195  -30.8502   21.3623 C   0  0  0  0  0  0
  -25.9986  -29.4884   20.7078 C   0  0  0  0  0  0
  -27.1944  -28.7391   20.7095 C   0  0  0  0  0  0
  -26.0757  -26.9800   19.4583 C   0  0  0  0  0  0
  -24.8795  -27.7234   19.4664 C   0  0  0  0  0  0
  -23.6036  -29.8396   20.1620 C   0  0  0  0  0  0
  -25.4099  -36.3137   24.0346 C   0  0  1  0  0  0
  -20.5821  -28.3502   23.1296 C   0  0  2  0  0  0
  -20.6605  -26.9219   22.5404 C   0  0  0  0  0  0
  -19.5504  -26.6162   21.5327 C   0  0  0  0  0  0
  -18.1757  -26.7743   22.1886 C   0  0  0  0  0  0
  -19.1486  -28.8742   23.2866 C   0  0  0  0  0  0
  -18.9457  -30.1388   23.8822 C   0  0  0  0  0  0
  -17.6462  -30.6487   24.0627 C   0  0  0  0  0  0
  -25.9028  -34.9493   23.5141 C   0  0  0  0  0  0
  -16.5319  -29.9015   23.6456 C   0  0  0  0  0  0
  -16.7206  -28.6466   23.0411 C   0  0  0  0  0  0
  -26.4440  -31.6635   25.0756 C   0  0  0  0  0  0
  -25.3722  -31.3702   26.1515 C   0  0  0  0  0  0
  -27.0288  -30.3119   24.6054 C   0  0  0  0  0  0
  -27.6042  -32.4333   25.7505 C   0  0  0  0  0  0
  -27.5577  -37.1825   24.8472 C   0  0  0  0  0  0
  -21.4130  -29.2895   22.3743 N   0  0  0  0  0  0
  -26.4296  -37.3817   23.9403 N   0  0  0  0  0  0
  -24.6578  -31.0866   22.1005 N   0  0  0  0  0  0
  -23.4214  -28.8071   23.2945 O   0  0  0  0  0  0
  -28.4004  -26.7381   20.1780 O   0  0  0  0  0  0
  -26.5591  -34.8937   22.4712 O   0  0  0  0  0  0
  -23.5293  -32.1441   23.7582 O   0  0  0  0  0  0
  -31.8040  -18.3623   22.4916 C   0  0  0  0  0  0
  -31.0211  -19.3845   21.9213 C   0  0  0  0  0  0
  -31.4902  -17.0100   22.2599 C   0  0  0  0  0  0
  -29.5923  -17.6981   20.8947 C   0  0  0  0  0  0
  -29.9024  -19.0636   21.1250 C   0  0  0  0  0  0
  -30.3831  -16.6764   21.4596 C   0  0  0  0  0  0
  -28.5350  -24.7459   18.8554 C   0  0  0  0  0  0
  -28.8555  -26.0281   19.1035 C   0  0  0  0  0  0
  -27.3615  -21.5356   19.8612 C   0  0  0  0  0  0
  -27.8875  -20.1315   20.1087 C   0  0  0  0  0  0
  -25.8646  -21.6043   19.5654 C   0  0  0  0  0  0
  -27.5809  -23.9093   19.6865 C   0  0  0  0  0  0
  -28.1191  -22.5756   19.9175 N   0  0  0  0  0  0
  -29.1370  -20.1416   20.5982 N   0  0  0  0  0  0
  -30.0078  -15.3290   21.2679 N   0  0  0  0  0  0
  -27.2172  -19.1200   19.8783 O   0  0  0  0  0  0
  -31.4690  -12.3961   19.0687 H   0  0  0  0  0  0
  -30.3502  -11.2515   19.7595 H   0  0  0  0  0  0
  -29.7047  -11.7584   17.4098 H   0  0  0  0  0  0
  -29.6636  -13.4723   17.7515 H   0  0  0  0  0  0
  -27.8007  -11.3128   18.7937 H   0  0  0  0  0  0
  -27.3494  -12.6648   17.7945 H   0  0  0  0  0  0
  -27.7346  -14.2441   19.6204 H   0  0  0  0  0  0
  -28.6841  -11.8535   21.2662 H   0  0  0  0  0  0
  -28.4840  -13.4477   21.9077 H   0  0  0  0  0  0
  -25.2772   -9.5650   22.4768 H   0  0  0  0  0  0
  -24.0001   -7.4606   22.7472 H   0  0  0  0  0  0
  -21.0849   -8.8765   19.8944 H   0  0  0  0  0  0
  -22.3726  -10.9664   19.6161 H   0  0  0  0  0  0
  -21.1969   -7.6136   23.9716 H   0  0  0  0  0  0
  -21.1493   -6.0512   25.9090 H   0  0  0  0  0  0
  -22.0608   -2.7599   23.2839 H   0  0  0  0  0  0
  -22.4140  -11.9916   22.4763 H   0  0  0  0  0  0
  -21.1156  -13.1294   22.2562 H   0  0  0  0  0  0
  -24.6805  -15.8468   20.5373 H   0  0  0  0  0  0
  -26.3039  -15.6312   20.1249 H   0  0  0  0  0  0
  -26.7081  -32.5609   23.1228 H   0  0  0  0  0  0
  -25.0061  -33.9856   25.0536 H   0  0  0  0  0  0
  -22.6714  -31.2988   21.4324 H   0  0  0  0  0  0
  -23.3737  -35.9667   23.3332 H   0  0  0  0  0  0
  -24.3566  -36.8910   22.2047 H   0  0  0  0  0  0
  -23.7236  -37.6545   23.6645 H   0  0  0  0  0  0
  -26.0323  -31.6147   20.5933 H   0  0  0  0  0  0
  -26.8075  -30.9067   21.9792 H   0  0  0  0  0  0
  -28.0787  -29.1254   21.1964 H   0  0  0  0  0  0
  -26.0767  -26.0255   18.9622 H   0  0  0  0  0  0
  -23.9986  -27.3254   18.9804 H   0  0  0  0  0  0
  -23.7105  -30.6312   19.4200 H   0  0  0  0  0  0
  -22.7273  -29.2673   19.8602 H   0  0  0  0  0  0
  -25.1266  -36.2006   25.0843 H   0  0  0  0  0  0
  -20.9920  -28.3016   24.1410 H   0  0  0  0  0  0
  -20.5484  -26.2119   23.3611 H   0  0  0  0  0  0
  -21.6406  -26.7099   22.1176 H   0  0  0  0  0  0
  -19.6574  -25.5973   21.1521 H   0  0  0  0  0  0
  -19.6345  -27.2886   20.6783 H   0  0  0  0  0  0
  -17.3872  -26.6226   21.4491 H   0  0  0  0  0  0
  -18.0312  -26.0058   22.9521 H   0  0  0  0  0  0
  -19.7952  -30.7223   24.2114 H   0  0  0  0  0  0
  -17.5068  -31.6113   24.5356 H   0  0  0  0  0  0
  -15.5317  -30.2892   23.7943 H   0  0  0  0  0  0
  -15.8574  -28.0833   22.7164 H   0  0  0  0  0  0
  -24.5874  -30.7075   25.7833 H   0  0  0  0  0  0
  -24.8922  -32.2852   26.5015 H   0  0  0  0  0  0
  -25.8077  -30.8825   27.0245 H   0  0  0  0  0  0
  -26.2838  -29.6866   24.1124 H   0  0  0  0  0  0
  -27.4155  -29.7343   25.4451 H   0  0  0  0  0  0
  -27.8604  -30.4501   23.9143 H   0  0  0  0  0  0
  -27.2702  -33.3612   26.2150 H   0  0  0  0  0  0
  -28.3823  -32.6919   25.0314 H   0  0  0  0  0  0
  -28.0754  -31.8418   26.5359 H   0  0  0  0  0  0
  -28.2609  -38.0106   24.7498 H   0  0  0  0  0  0
  -28.1059  -36.2639   24.6323 H   0  0  0  0  0  0
  -27.2301  -37.1495   25.8880 H   0  0  0  0  0  0
  -20.9255  -29.8739   21.7088 H   0  0  0  0  0  0
  -26.0181  -38.2894   24.1420 H   0  0  0  0  0  0
  -32.6413  -18.6197   23.1233 H   0  0  0  0  0  0
  -31.2797  -20.4143   22.1185 H   0  0  0  0  0  0
  -32.0855  -16.2296   22.7151 H   0  0  0  0  0  0
  -28.7591  -17.4088   20.2758 H   0  0  0  0  0  0
  -28.9666  -24.2729   17.9830 H   0  0  0  0  0  0
  -29.5255  -26.6102   18.4909 H   0  0  0  0  0  0
  -25.3789  -22.2734   20.2736 H   0  0  0  0  0  0
  -25.3700  -20.6386   19.6572 H   0  0  0  0  0  0
  -25.6911  -21.9529   18.5478 H   0  0  0  0  0  0
  -26.6370  -23.9131   19.1410 H   0  0  0  0  0  0
  -27.4041  -24.4113   20.6405 H   0  0  0  0  0  0
  -29.4975  -21.0839   20.6977 H   0  0  0  0  0  0
  -29.0543  -15.0808   21.4774 H   0  0  0  0  0  0
  1 25  1  0  0  0
  1 30  2  0  0  0
  1 85  1  0  0  0
  2  3  1  0  0  0
  2 25  1  0  0  0
  2 87  1  0  0  0
  2 88  1  0  0  0
  3  4  1  0  0  0
  3 89  1  0  0  0
  3 90  1  0  0  0
  4  5  1  0  0  0
  4 91  1  0  0  0
  4 92  1  0  0  0
  5  6  1  0  0  0
  5 26  1  0  0  0
  5 93  1  0  0  0
  6 25  1  0  0  0
  6 94  1  0  0  0
  6 95  1  0  0  0
  7  8  2  0  0  0
  7 26  1  0  0  0
  7 29  1  0  0  0
  8  9  1  0  0  0
  8 22  1  0  0  0
  9 10  1  0  0  0
  9 27  2  0  0  0
 10 11  2  0  0  0
 10 15  1  0  0  0
 11 12  1  0  0  0
 11 96  1  0  0  0
 12 13  2  0  0  0
 12 97  1  0  0  0
 13 14  1  0  0  0
 13 31  1  0  0  0
 14 15  2  0  0  0
 14 98  1  0  0  0
 15 99  1  0  0  0
 16 17  2  0  0  0
 16 21  1  0  0  0
 16 31  1  0  0  0
 17 18  1  0  0  0
 17100  1  0  0  0
 18 19  2  0  0  0
 18101  1  0  0  0
 19 20  1  0  0  0
 19 24  1  0  0  0
 20 21  2  0  0  0
 20102  1  0  0  0
 21 23  1  0  0  0
 22 28  1  0  0  0
 22 32  2  0  0  0
 26 27  1  0  0  0
 28103  1  0  0  0
 28104  1  0  0  0
 29105  1  0  0  0
 29106  1  0  0  0
 33 34  1  0  0  0
 33 66  1  0  0  0
 33 70  2  0  0  0
 34 36  1  0  0  0
 34 59  1  0  0  0
 34107  1  0  0  0
 35 44  2  0  0  0
 35 45  1  0  0  0
 35 68  1  0  0  0
 36 56  1  0  0  0
 36108  1  0  0  0
 37 39  1  0  0  0
 37 47  1  0  0  0
 37 66  1  0  0  0
 37109  1  0  0  0
 38 43  2  0  0  0
 38 46  1  0  0  0
 38 47  1  0  0  0
 39 64  1  0  0  0
 39 67  2  0  0  0
 40 52  1  0  0  0
 40 53  2  0  0  0
 40 58  1  0  0  0
 41110  1  0  0  0
 41111  1  0  0  0
 41112  1  0  0  0
 41 48  1  0  0  0
 42 43  1  0  0  0
 42 66  1  0  0  0
 42113  1  0  0  0
 42114  1  0  0  0
 43 44  1  0  0  0
 44115  1  0  0  0
 45 46  2  0  0  0
 45116  1  0  0  0
 46117  1  0  0  0
 47118  1  0  0  0
 47119  1  0  0  0
 48 56  1  0  0  0
 48 65  1  0  0  0
 48120  1  0  0  0
 49 50  1  0  0  0
 49 53  1  0  0  0
 49 64  1  0  0  0
 49121  1  0  0  0
 50 51  1  0  0  0
 50122  1  0  0  0
 50123  1  0  0  0
 51 52  1  0  0  0
 51124  1  0  0  0
 51125  1  0  0  0
 52126  1  0  0  0
 52127  1  0  0  0
 53 54  1  0  0  0
 54 55  2  0  0  0
 54128  1  0  0  0
 55 57  1  0  0  0
 55129  1  0  0  0
 56 69  2  0  0  0
 57 58  2  0  0  0
 57130  1  0  0  0
 58131  1  0  0  0
 59 60  1  0  0  0
 59 61  1  0  0  0
 59 62  1  0  0  0
 60132  1  0  0  0
 60133  1  0  0  0
 60134  1  0  0  0
 61135  1  0  0  0
 61136  1  0  0  0
 61137  1  0  0  0
 62138  1  0  0  0
 62139  1  0  0  0
 62140  1  0  0  0
 63 65  1  0  0  0
 63141  1  0  0  0
 63142  1  0  0  0
 63143  1  0  0  0
 64144  1  0  0  0
 65145  1  0  0  0
 68 78  1  0  0  0
 71 72  2  0  0  0
 71 73  1  0  0  0
 71146  1  0  0  0
 72 75  1  0  0  0
 72147  1  0  0  0
 73 76  2  0  0  0
 73148  1  0  0  0
 74 75  2  0  0  0
 74 76  1  0  0  0
 74149  1  0  0  0
 75 84  1  0  0  0
 76 85  1  0  0  0
 77 78  2  0  0  0
 77 82  1  0  0  0
 77150  1  0  0  0
 78151  1  0  0  0
 79 80  1  0  0  0
 79 81  1  0  0  0
 79 83  2  0  0  0
 80 84  1  0  0  0
 80 86  2  0  0  0
 81152  1  0  0  0
 81153  1  0  0  0
 81154  1  0  0  0
 82 83  1  0  0  0
 82155  1  0  0  0
 82156  1  0  0  0
 84157  1  0  0  0
 85158  1  0  0  0
M  ISO  4   1 100  68 101  78 101  85 100
M  END
> <chiral flag>
0

> <version>
0

> <s_m_source_file>
/data/baiqing/PycharmProjects/Reinvent-master-3.2/result/LINK_invent/BTK/process_docking_weight1_custom_product_contain_oxygen_bond_distance_aromatic_linkinvent_7_9_3/rearranged_h_0059.sdf

> <i_m_source_file_index>
85

> <r_mmod_Potential_Energy-OPLS-2005>
-18.605297088623

> <r_mmod_Stretch_Energy-OPLS-2005>
35.5924606323242

> <r_mmod_Bend_Energy-OPLS-2005>
106.603904724121

> <r_mmod_Torsional_Energy-OPLS-2005>
242.074203491211

> <r_mmod_Improper_Torsional_Energy-OPLS-2005>
3.6675078868866

> <r_mmod_Van_der_Waal_Energy-OPLS-2005>
178.33757019043

> <r_mmod_Electrostatic_Energy-OPLS-2005>
-381.745422363281

> <r_mmod_Solvation_Energy-OPLS-2005>
-214.778045654297

> <b_mmod_Minimization_Converged-OPLS-2005>
0

> <r_mmod_RMS_Derivative-OPLS-2005>
4.99431991577148

$$$$
85
                    3D
 Structure written by MMmdl.
170179  0  0  1  0            999 V2000
  -30.7155  -14.4194   20.6468 C   0  0  0  0  0  0
  -30.4317  -12.3035   19.3982 C   0  0  0  0  0  0
  -29.4986  -12.5455   18.1938 C   0  0  0  0  0  0
  -28.0164  -12.4082   18.6000 C   0  0  0  0  0  0
  -27.6738  -13.2055   19.8879 C   0  0  2  0  0  0
  -28.7136  -12.9203   20.9941 C   0  0  0  0  0  0
  -25.2646  -13.8171   20.5698 C   0  0  0  0  0  0
  -24.1873  -13.0460   20.9172 C   0  0  0  0  0  0
  -24.6408  -11.6921   20.8706 C   0  0  0  0  0  0
  -23.9061  -10.4308   21.0383 C   0  0  0  0  0  0
  -24.3618   -9.4224   21.9164 C   0  0  0  0  0  0
  -23.6308   -8.2240   22.0734 C   0  0  0  0  0  0
  -22.4279   -8.0288   21.3534 C   0  0  0  0  0  0
  -21.9916   -9.0256   20.4630 C   0  0  0  0  0  0
  -22.7232  -10.2140   20.3037 C   0  0  0  0  0  0
  -21.6851   -6.0745   22.5292 C   0  0  0  0  0  0
  -21.4000   -6.5645   23.8226 C   0  0  0  0  0  0
  -21.3666   -5.6783   24.9182 C   0  0  0  0  0  0
  -21.6059   -4.3047   24.7212 C   0  0  0  0  0  0
  -21.8820   -3.8155   23.4322 C   0  0  0  0  0  0
  -21.9180   -4.6975   22.3394 C   0  0  0  0  0  0
  -22.7896  -13.5255   21.1854 C   0  0  0  0  0  0
  -22.1660   -4.2163   21.0964 F   0  0  0  0  0  0
  -21.5633   -3.4533   25.7720 F   0  0  0  0  0  0
  -30.0568  -13.2415   20.4656 N   0  0  0  0  0  0
  -26.3108  -12.9331   20.3427 N   0  0  0  0  0  0
  -25.9349  -11.6501   20.5775 N   0  0  0  0  0  0
  -22.0504  -12.8260   22.0412 N   0  0  0  0  0  0
  -25.4353  -15.1901   20.4161 N   0  0  0  0  0  0
  -31.7533  -14.7183   20.0461 O   0  0  0  0  0  0
  -21.6626   -6.8900   21.4258 O   0  0  0  0  0  0
  -22.3598  -14.5567   20.6719 O   0  0  0  0  0  0
  -24.6139  -31.8684   23.2094 C   0  0  0  0  0  0
  -25.9041  -32.4814   23.8386 C   0  0  1  0  0  0
  -27.2440  -27.4477   20.0762 C   0  0  0  0  0  0
  -25.5909  -33.8613   24.2314 N   0  0  0  0  0  0
  -23.4002  -30.4910   21.5505 C   0  0  2  0  0  0
  -24.8457  -28.9552   20.1139 C   0  0  0  0  0  0
  -22.7401  -29.4665   22.5003 C   0  0  0  0  0  0
  -18.0267  -28.1377   22.8497 C   0  0  0  0  0  0
  -24.1490  -36.7312   23.2636 C   0  0  0  0  0  0
  -25.9282  -30.8322   21.3635 C   0  0  0  0  0  0
  -26.0026  -29.4677   20.7101 C   0  0  0  0  0  0
  -27.1988  -28.7179   20.6928 C   0  0  0  0  0  0
  -26.0636  -26.9441   19.4770 C   0  0  0  0  0  0
  -24.8698  -27.6908   19.4989 C   0  0  0  0  0  0
  -23.6060  -29.8194   20.1655 C   0  0  0  0  0  0
  -25.4111  -36.3102   24.0332 C   0  0  1  0  0  0
  -20.5858  -28.3663   23.1321 C   0  0  2  0  0  0
  -20.6760  -26.9399   22.5408 C   0  0  0  0  0  0
  -19.5737  -26.6386   21.5208 C   0  0  0  0  0  0
  -18.1919  -26.7924   22.1627 C   0  0  0  0  0  0
  -19.1518  -28.8832   23.2907 C   0  0  0  0  0  0
  -18.9450  -30.1441   23.8907 C   0  0  0  0  0  0
  -17.6453  -30.6583   24.0566 C   0  0  0  0  0  0
  -25.9040  -34.9473   23.5120 C   0  0  0  0  0  0
  -16.5340  -29.9088   23.6330 C   0  0  0  0  0  0
  -16.7257  -28.6507   23.0348 C   0  0  0  0  0  0
  -26.4465  -31.6595   25.0719 C   0  0  0  0  0  0
  -25.3729  -31.3722   26.1471 C   0  0  0  0  0  0
  -27.0285  -30.3026   24.6106 C   0  0  0  0  0  0
  -27.6035  -32.4319   25.7485 C   0  0  0  0  0  0
  -27.5578  -37.1811   24.8461 C   0  0  0  0  0  0
  -21.4132  -29.3031   22.3734 N   0  0  0  0  0  0
  -26.4292  -37.3787   23.9404 N   0  0  0  0  0  0
  -24.6651  -31.0792   22.0984 N   0  0  0  0  0  0
  -23.4180  -28.8205   23.3036 O   0  0  0  0  0  0
  -28.4453  -26.7664   20.0905 O   0  0  0  0  0  0
  -26.5598  -34.8921   22.4675 O   0  0  0  0  0  0
  -23.5336  -32.1440   23.7502 O   0  0  0  0  0  0
  -29.1936  -19.3382   21.5888 C   0  0  0  0  0  0
  -28.6415  -17.0129   22.0042 C   0  0  0  0  0  0
  -30.8161  -17.5899   21.0583 C   0  0  0  0  0  0
  -28.2724  -18.3697   22.0404 C   0  0  0  0  0  0
  -30.4692  -18.9665   21.1119 C   0  0  0  0  0  0
  -29.8983  -16.6061   21.5141 C   0  0  0  0  0  0
  -31.1790  -20.6623   18.4177 C   0  0  0  0  0  0
  -30.5234  -22.2616   20.1512 C   0  0  0  0  0  0
  -26.3602  -19.9389   22.5082 C   0  0  0  0  0  0
  -26.9366  -18.7255   22.5494 C   0  0  0  0  0  0
  -30.4275  -21.3335   17.2597 C   0  0  0  0  0  0
  -30.9359  -22.7315   16.8755 C   0  0  0  0  0  0
  -31.1991  -23.6471   18.0726 C   0  0  0  0  0  0
  -30.1566  -23.4511   19.1965 C   0  0  2  0  0  0
  -31.4826  -20.0591   20.7408 C   0  0  0  0  0  0
  -29.8802  -24.8250   19.9041 C   0  0  0  0  0  0
  -28.5301  -25.4624   19.5134 C   0  0  0  0  0  0
  -31.0198  -21.0506   19.7189 N   0  0  0  0  0  0
  -30.1607  -15.2096   21.5797 N   0  0  0  0  0  0
  -31.8861  -19.6963   18.1048 O   0  0  0  0  0  0
  -30.3570  -22.4617   21.3596 O   0  0  0  0  0  0
  -31.4764  -12.4162   19.1004 H   0  0  0  0  0  0
  -30.3330  -11.2772   19.7553 H   0  0  0  0  0  0
  -29.7380  -11.8499   17.3876 H   0  0  0  0  0  0
  -29.6754  -13.5442   17.7922 H   0  0  0  0  0  0
  -27.8016  -11.3503   18.7472 H   0  0  0  0  0  0
  -27.3735  -12.7310   17.7794 H   0  0  0  0  0  0
  -27.7368  -14.2644   19.6419 H   0  0  0  0  0  0
  -28.6826  -11.8665   21.2758 H   0  0  0  0  0  0
  -28.4583  -13.4551   21.9101 H   0  0  0  0  0  0
  -25.2753   -9.5716   22.4736 H   0  0  0  0  0  0
  -24.0031   -7.4627   22.7447 H   0  0  0  0  0  0
  -21.0845   -8.8758   19.8936 H   0  0  0  0  0  0
  -22.3682  -10.9668   19.6144 H   0  0  0  0  0  0
  -21.1983   -7.6143   23.9754 H   0  0  0  0  0  0
  -21.1512   -6.0487   25.9089 H   0  0  0  0  0  0
  -22.0597   -2.7611   23.2799 H   0  0  0  0  0  0
  -22.4068  -11.9928   22.4838 H   0  0  0  0  0  0
  -21.1127  -13.1333   22.2584 H   0  0  0  0  0  0
  -24.6704  -15.8450   20.5351 H   0  0  0  0  0  0
  -26.2958  -15.6357   20.1225 H   0  0  0  0  0  0
  -26.7111  -32.5516   23.1148 H   0  0  0  0  0  0
  -25.0066  -33.9773   25.0464 H   0  0  0  0  0  0
  -22.6885  -31.3080   21.4114 H   0  0  0  0  0  0
  -23.3743  -35.9657   23.3311 H   0  0  0  0  0  0
  -24.3579  -36.8912   22.2048 H   0  0  0  0  0  0
  -23.7258  -37.6527   23.6640 H   0  0  0  0  0  0
  -26.0444  -31.5983   20.5959 H   0  0  0  0  0  0
  -26.8145  -30.8813   21.9835 H   0  0  0  0  0  0
  -28.0941  -29.1137   21.1512 H   0  0  0  0  0  0
  -26.0438  -25.9840   18.9834 H   0  0  0  0  0  0
  -23.9782  -27.2935   19.0337 H   0  0  0  0  0  0
  -23.7065  -30.5924   19.4024 H   0  0  0  0  0  0
  -22.7308  -29.2353   19.8757 H   0  0  0  0  0  0
  -25.1292  -36.1959   25.0824 H   0  0  0  0  0  0
  -20.9947  -28.3216   24.1445 H   0  0  0  0  0  0
  -20.5672  -26.2262   23.3597 H   0  0  0  0  0  0
  -21.6631  -26.7452   22.1193 H   0  0  0  0  0  0
  -19.6897  -25.6303   21.1228 H   0  0  0  0  0  0
  -19.6673  -27.3211   20.6757 H   0  0  0  0  0  0
  -17.4185  -26.6673   21.4026 H   0  0  0  0  0  0
  -18.0320  -26.0060   22.9018 H   0  0  0  0  0  0
  -19.7923  -30.7256   24.2276 H   0  0  0  0  0  0
  -17.5007  -31.6265   24.5168 H   0  0  0  0  0  0
  -15.5343  -30.2994   23.7643 H   0  0  0  0  0  0
  -15.8662  -28.0832   22.7050 H   0  0  0  0  0  0
  -24.5884  -30.7086   25.7811 H   0  0  0  0  0  0
  -24.8949  -32.2892   26.4926 H   0  0  0  0  0  0
  -25.8080  -30.8879   27.0224 H   0  0  0  0  0  0
  -26.2830  -29.6806   24.1137 H   0  0  0  0  0  0
  -27.4010  -29.7246   25.4572 H   0  0  0  0  0  0
  -27.8689  -30.4322   23.9283 H   0  0  0  0  0  0
  -27.2639  -33.3605   26.2086 H   0  0  0  0  0  0
  -28.3840  -32.6903   25.0314 H   0  0  0  0  0  0
  -28.0714  -31.8434   26.5388 H   0  0  0  0  0  0
  -28.2599  -38.0104   24.7501 H   0  0  0  0  0  0
  -28.1068  -36.2633   24.6298 H   0  0  0  0  0  0
  -27.2295  -37.1474   25.8863 H   0  0  0  0  0  0
  -20.9287  -29.8754   21.6964 H   0  0  0  0  0  0
  -26.0180  -38.2867   24.1392 H   0  0  0  0  0  0
  -28.9376  -20.3827   21.6498 H   0  0  0  0  0  0
  -27.9455  -16.2668   22.3604 H   0  0  0  0  0  0
  -31.7925  -17.3002   20.7004 H   0  0  0  0  0  0
  -25.3747  -20.0862   22.9279 H   0  0  0  0  0  0
  -26.8402  -20.8001   22.0645 H   0  0  0  0  0  0
  -26.3792  -17.9215   23.0093 H   0  0  0  0  0  0
  -29.3633  -21.3413   17.4921 H   0  0  0  0  0  0
  -30.5190  -20.6949   16.3814 H   0  0  0  0  0  0
  -30.1768  -23.1991   16.2442 H   0  0  0  0  0  0
  -31.8326  -22.6658   16.2589 H   0  0  0  0  0  0
  -31.2056  -24.6750   17.7068 H   0  0  0  0  0  0
  -32.2080  -23.4858   18.4616 H   0  0  0  0  0  0
  -29.2028  -23.1709   18.7486 H   0  0  0  0  0  0
  -32.4195  -19.5849   20.4417 H   0  0  0  0  0  0
  -31.7719  -20.5493   21.6722 H   0  0  0  0  0  0
  -30.6732  -25.5372   19.6721 H   0  0  0  0  0  0
  -29.9033  -24.7612   20.9906 H   0  0  0  0  0  0
  -27.7213  -24.8211   19.8689 H   0  0  0  0  0  0
  -28.4475  -25.5428   18.4269 H   0  0  0  0  0  0
  -29.4788  -14.6961   22.1160 H   0  0  0  0  0  0
  1 25  1  0  0  0
  1 30  2  0  0  0
  1 89  1  0  0  0
  2  3  1  0  0  0
  2 25  1  0  0  0
  2 92  1  0  0  0
  2 93  1  0  0  0
  3  4  1  0  0  0
  3 94  1  0  0  0
  3 95  1  0  0  0
  4  5  1  0  0  0
  4 96  1  0  0  0
  4 97  1  0  0  0
  5  6  1  0  0  0
  5 26  1  0  0  0
  5 98  1  0  0  0
  6 25  1  0  0  0
  6 99  1  0  0  0
  6100  1  0  0  0
  7  8  2  0  0  0
  7 26  1  0  0  0
  7 29  1  0  0  0
  8  9  1  0  0  0
  8 22  1  0  0  0
  9 10  1  0  0  0
  9 27  2  0  0  0
 10 11  2  0  0  0
 10 15  1  0  0  0
 11 12  1  0  0  0
 11101  1  0  0  0
 12 13  2  0  0  0
 12102  1  0  0  0
 13 14  1  0  0  0
 13 31  1  0  0  0
 14 15  2  0  0  0
 14103  1  0  0  0
 15104  1  0  0  0
 16 17  2  0  0  0
 16 21  1  0  0  0
 16 31  1  0  0  0
 17 18  1  0  0  0
 17105  1  0  0  0
 18 19  2  0  0  0
 18106  1  0  0  0
 19 20  1  0  0  0
 19 24  1  0  0  0
 20 21  2  0  0  0
 20107  1  0  0  0
 21 23  1  0  0  0
 22 28  1  0  0  0
 22 32  2  0  0  0
 26 27  1  0  0  0
 28108  1  0  0  0
 28109  1  0  0  0
 29110  1  0  0  0
 29111  1  0  0  0
 33 34  1  0  0  0
 33 66  1  0  0  0
 33 70  2  0  0  0
 34 36  1  0  0  0
 34 59  1  0  0  0
 34112  1  0  0  0
 35 44  2  0  0  0
 35 45  1  0  0  0
 35 68  1  0  0  0
 36 56  1  0  0  0
 36113  1  0  0  0
 37 39  1  0  0  0
 37 47  1  0  0  0
 37 66  1  0  0  0
 37114  1  0  0  0
 38 43  2  0  0  0
 38 46  1  0  0  0
 38 47  1  0  0  0
 39 64  1  0  0  0
 39 67  2  0  0  0
 40 52  1  0  0  0
 40 53  2  0  0  0
 40 58  1  0  0  0
 41115  1  0  0  0
 41116  1  0  0  0
 41117  1  0  0  0
 41 48  1  0  0  0
 42 43  1  0  0  0
 42 66  1  0  0  0
 42118  1  0  0  0
 42119  1  0  0  0
 43 44  1  0  0  0
 44120  1  0  0  0
 45 46  2  0  0  0
 45121  1  0  0  0
 46122  1  0  0  0
 47123  1  0  0  0
 47124  1  0  0  0
 48 56  1  0  0  0
 48 65  1  0  0  0
 48125  1  0  0  0
 49 50  1  0  0  0
 49 53  1  0  0  0
 49 64  1  0  0  0
 49126  1  0  0  0
 50 51  1  0  0  0
 50127  1  0  0  0
 50128  1  0  0  0
 51 52  1  0  0  0
 51129  1  0  0  0
 51130  1  0  0  0
 52131  1  0  0  0
 52132  1  0  0  0
 53 54  1  0  0  0
 54 55  2  0  0  0
 54133  1  0  0  0
 55 57  1  0  0  0
 55134  1  0  0  0
 56 69  2  0  0  0
 57 58  2  0  0  0
 57135  1  0  0  0
 58136  1  0  0  0
 59 60  1  0  0  0
 59 61  1  0  0  0
 59 62  1  0  0  0
 60137  1  0  0  0
 60138  1  0  0  0
 60139  1  0  0  0
 61140  1  0  0  0
 61141  1  0  0  0
 61142  1  0  0  0
 62143  1  0  0  0
 62144  1  0  0  0
 62145  1  0  0  0
 63 65  1  0  0  0
 63146  1  0  0  0
 63147  1  0  0  0
 63148  1  0  0  0
 64149  1  0  0  0
 65150  1  0  0  0
 68 87  1  0  0  0
 71 74  2  0  0  0
 71 75  1  0  0  0
 71151  1  0  0  0
 72 74  1  0  0  0
 72 76  2  0  0  0
 72152  1  0  0  0
 73 75  2  0  0  0
 73 76  1  0  0  0
 73153  1  0  0  0
 74 80  1  0  0  0
 75 85  1  0  0  0
 76 89  1  0  0  0
 77 81  1  0  0  0
 77 88  1  0  0  0
 77 90  2  0  0  0
 78 84  1  0  0  0
 78 88  1  0  0  0
 78 91  2  0  0  0
 79 80  2  0  0  0
 79154  1  0  0  0
 79155  1  0  0  0
 80156  1  0  0  0
 81 82  1  0  0  0
 81157  1  0  0  0
 81158  1  0  0  0
 82 83  1  0  0  0
 82159  1  0  0  0
 82160  1  0  0  0
 83 84  1  0  0  0
 83161  1  0  0  0
 83162  1  0  0  0
 84 86  1  0  0  0
 84163  1  0  0  0
 85 88  1  0  0  0
 85164  1  0  0  0
 85165  1  0  0  0
 86 87  1  0  0  0
 86166  1  0  0  0
 86167  1  0  0  0
 87168  1  0  0  0
 87169  1  0  0  0
 89170  1  0  0  0
M  ISO  4   1 100  68 101  87 101  89 100
M  END
> <chiral flag>
0

> <version>
0

> <s_m_source_file>
/data/baiqing/PycharmProjects/Reinvent-master-3.2/result/LINK_invent/BTK/process_docking_weight1_custom_product_contain_oxygen_bond_distance_aromatic_linkinvent_7_9_3/rearranged_h_0059.sdf

> <i_m_source_file_index>
86

> <r_mmod_Potential_Energy-OPLS-2005>
-36.3017044067383

> <r_mmod_Stretch_Energy-OPLS-2005>
50.2579345703125

> <r_mmod_Bend_Energy-OPLS-2005>
134.728149414062

> <r_mmod_Torsional_Energy-OPLS-2005>
240.729522705078

> <r_mmod_Improper_Torsional_Energy-OPLS-2005>
5.28362941741943

> <r_mmod_Van_der_Waal_Energy-OPLS-2005>
186.02131652832

> <r_mmod_Electrostatic_Energy-OPLS-2005>
-431.322174072266

> <r_mmod_Solvation_Energy-OPLS-2005>
-231.536056518555

> <b_mmod_Minimization_Converged-OPLS-2005>
0

> <r_mmod_RMS_Derivative-OPLS-2005>
3.1725492477417

$$$$
86
                    3D
 Structure written by MMmdl.
154162  0  0  1  0            999 V2000
  -30.7039  -14.4574   20.5694 C   0  0  0  0  0  0
  -30.4231  -12.2905   19.4320 C   0  0  0  0  0  0
  -29.5005  -12.5028   18.2135 C   0  0  0  0  0  0
  -28.0185  -12.3738   18.6179 C   0  0  0  0  0  0
  -27.6657  -13.2094   19.8788 C   0  0  2  0  0  0
  -28.7041  -12.9790   21.0015 C   0  0  0  0  0  0
  -25.2608  -13.8185   20.5690 C   0  0  0  0  0  0
  -24.1848  -13.0458   20.9165 C   0  0  0  0  0  0
  -24.6403  -11.6929   20.8718 C   0  0  0  0  0  0
  -23.9067  -10.4308   21.0386 C   0  0  0  0  0  0
  -24.3622   -9.4224   21.9170 C   0  0  0  0  0  0
  -23.6297   -8.2265   22.0757 C   0  0  0  0  0  0
  -22.4280   -8.0293   21.3559 C   0  0  0  0  0  0
  -21.9904   -9.0258   20.4656 C   0  0  0  0  0  0
  -22.7231  -10.2138   20.3045 C   0  0  0  0  0  0
  -21.6848   -6.0738   22.5274 C   0  0  0  0  0  0
  -21.4019   -6.5641   23.8212 C   0  0  0  0  0  0
  -21.3661   -5.6792   24.9176 C   0  0  0  0  0  0
  -21.6034   -4.3054   24.7226 C   0  0  0  0  0  0
  -21.8815   -3.8147   23.4351 C   0  0  0  0  0  0
  -21.9195   -4.6963   22.3403 C   0  0  0  0  0  0
  -22.7860  -13.5244   21.1842 C   0  0  0  0  0  0
  -22.1653   -4.2147   21.0984 F   0  0  0  0  0  0
  -21.5628   -3.4539   25.7745 F   0  0  0  0  0  0
  -30.0424  -13.2729   20.4577 N   0  0  0  0  0  0
  -26.3045  -12.9355   20.3377 N   0  0  0  0  0  0
  -25.9329  -11.6512   20.5753 N   0  0  0  0  0  0
  -22.0511  -12.8233   22.0411 N   0  0  0  0  0  0
  -25.4349  -15.1904   20.4114 N   0  0  0  0  0  0
  -31.8175  -14.6516   20.0736 O   0  0  0  0  0  0
  -21.6646   -6.8888   21.4247 O   0  0  0  0  0  0
  -22.3539  -14.5556   20.6702 O   0  0  0  0  0  0
  -24.6139  -31.8678   23.2110 C   0  0  0  0  0  0
  -25.9038  -32.4822   23.8405 C   0  0  1  0  0  0
  -27.2362  -27.4448   20.1059 C   0  0  0  0  0  0
  -25.5903  -33.8619   24.2335 N   0  0  0  0  0  0
  -23.4023  -30.4902   21.5510 C   0  0  2  0  0  0
  -24.8482  -28.9587   20.1136 C   0  0  0  0  0  0
  -22.7404  -29.4667   22.5016 C   0  0  0  0  0  0
  -18.0293  -28.1346   22.8488 C   0  0  0  0  0  0
  -24.1490  -36.7310   23.2643 C   0  0  0  0  0  0
  -25.9286  -30.8406   21.3598 C   0  0  0  0  0  0
  -26.0078  -29.4777   20.7039 C   0  0  0  0  0  0
  -27.2056  -28.7299   20.6918 C   0  0  0  0  0  0
  -26.0633  -26.9390   19.5037 C   0  0  0  0  0  0
  -24.8714  -27.6900   19.5092 C   0  0  0  0  0  0
  -23.6051  -29.8179   20.1671 C   0  0  0  0  0  0
  -25.4109  -36.3102   24.0336 C   0  0  1  0  0  0
  -20.5883  -28.3662   23.1357 C   0  0  2  0  0  0
  -20.6811  -26.9436   22.5369 C   0  0  0  0  0  0
  -19.5814  -26.6519   21.5117 C   0  0  0  0  0  0
  -18.1969  -26.7938   22.1521 C   0  0  0  0  0  0
  -19.1540  -28.8819   23.2933 C   0  0  0  0  0  0
  -18.9442  -30.1414   23.8959 C   0  0  0  0  0  0
  -17.6434  -30.6561   24.0560 C   0  0  0  0  0  0
  -25.9036  -34.9475   23.5134 C   0  0  0  0  0  0
  -16.5344  -29.9051   23.6286 C   0  0  0  0  0  0
  -16.7291  -28.6454   23.0359 C   0  0  0  0  0  0
  -26.4467  -31.6609   25.0744 C   0  0  0  0  0  0
  -25.3730  -31.3723   26.1486 C   0  0  0  0  0  0
  -27.0295  -30.3050   24.6135 C   0  0  0  0  0  0
  -27.6059  -32.4319   25.7497 C   0  0  0  0  0  0
  -27.5578  -37.1807   24.8464 C   0  0  0  0  0  0
  -21.4130  -29.3065   22.3787 N   0  0  0  0  0  0
  -26.4285  -37.3788   23.9417 N   0  0  0  0  0  0
  -24.6663  -31.0810   22.0979 N   0  0  0  0  0  0
  -23.4204  -28.8188   23.3027 O   0  0  0  0  0  0
  -28.4050  -26.7143   20.1375 O   0  0  0  0  0  0
  -26.5598  -34.8921   22.4698 O   0  0  0  0  0  0
  -23.5337  -32.1396   23.7535 O   0  0  0  0  0  0
  -30.2050  -18.7038   19.2982 C   0  0  0  0  0  0
  -29.0559  -19.0405   21.4120 C   0  0  0  0  0  0
  -30.4538  -17.3575   19.6442 C   0  0  0  0  0  0
  -29.2923  -17.6917   21.7504 C   0  0  0  0  0  0
  -29.4812  -19.5528   20.1636 C   0  0  0  0  0  0
  -29.9671  -16.8244   20.8638 C   0  0  0  0  0  0
  -28.6926  -21.9257   20.3802 C   0  0  0  0  0  0
  -27.8838  -22.9718   19.5976 C   0  0  0  0  0  0
  -28.5368  -24.3666   19.4284 C   0  0  0  0  0  0
  -28.2806  -25.3545   20.5831 C   0  0  0  0  0  0
  -29.0970  -20.8430   19.6873 N   0  0  0  0  0  0
  -30.0293  -15.4358   21.2013 N   0  0  0  0  0  0
  -28.9443  -22.1127   21.5726 O   0  0  0  0  0  0
  -31.4701  -12.3815   19.1353 H   0  0  0  0  0  0
  -30.3168  -11.2793   19.8253 H   0  0  0  0  0  0
  -29.7403  -11.7800   17.4334 H   0  0  0  0  0  0
  -29.6785  -13.4889   17.7826 H   0  0  0  0  0  0
  -27.8169  -11.3183   18.8044 H   0  0  0  0  0  0
  -27.3760  -12.6606   17.7842 H   0  0  0  0  0  0
  -27.7157  -14.2601   19.5915 H   0  0  0  0  0  0
  -28.6679  -11.9424   21.3385 H   0  0  0  0  0  0
  -28.4632  -13.5739   21.8844 H   0  0  0  0  0  0
  -25.2767   -9.5696   22.4745 H   0  0  0  0  0  0
  -23.9996   -7.4657   22.7473 H   0  0  0  0  0  0
  -21.0837   -8.8771   19.8959 H   0  0  0  0  0  0
  -22.3680  -10.9679   19.6155 H   0  0  0  0  0  0
  -21.2011   -7.6151   23.9717 H   0  0  0  0  0  0
  -21.1482   -6.0531   25.9084 H   0  0  0  0  0  0
  -22.0594   -2.7613   23.2848 H   0  0  0  0  0  0
  -22.4100  -11.9864   22.4769 H   0  0  0  0  0  0
  -21.1137  -13.1256   22.2662 H   0  0  0  0  0  0
  -24.6780  -15.8533   20.5336 H   0  0  0  0  0  0
  -26.3007  -15.6282   20.1206 H   0  0  0  0  0  0
  -26.7134  -32.5562   23.1200 H   0  0  0  0  0  0
  -25.0051  -33.9784   25.0468 H   0  0  0  0  0  0
  -22.6914  -31.3075   21.4135 H   0  0  0  0  0  0
  -23.3748  -35.9650   23.3309 H   0  0  0  0  0  0
  -24.3588  -36.8918   22.2060 H   0  0  0  0  0  0
  -23.7244  -37.6527   23.6634 H   0  0  0  0  0  0
  -26.0459  -31.6095   20.5956 H   0  0  0  0  0  0
  -26.8133  -30.8881   21.9839 H   0  0  0  0  0  0
  -28.1011  -29.1269   21.1484 H   0  0  0  0  0  0
  -26.0646  -25.9654   19.0329 H   0  0  0  0  0  0
  -23.9789  -27.2892   19.0491 H   0  0  0  0  0  0
  -23.6982  -30.5873   19.4001 H   0  0  0  0  0  0
  -22.7305  -29.2291   19.8842 H   0  0  0  0  0  0
  -25.1289  -36.1963   25.0823 H   0  0  0  0  0  0
  -20.9983  -28.3180   24.1480 H   0  0  0  0  0  0
  -20.5703  -26.2256   23.3506 H   0  0  0  0  0  0
  -21.6682  -26.7506   22.1146 H   0  0  0  0  0  0
  -19.7039  -25.6505   21.0982 H   0  0  0  0  0  0
  -19.6752  -27.3505   20.6787 H   0  0  0  0  0  0
  -17.4278  -26.6762   21.3875 H   0  0  0  0  0  0
  -18.0394  -25.9971   22.8805 H   0  0  0  0  0  0
  -19.7901  -30.7214   24.2402 H   0  0  0  0  0  0
  -17.4964  -31.6232   24.5179 H   0  0  0  0  0  0
  -15.5335  -30.2937   23.7573 H   0  0  0  0  0  0
  -15.8682  -28.0785   22.7082 H   0  0  0  0  0  0
  -24.5895  -30.7084   25.7814 H   0  0  0  0  0  0
  -24.8925  -32.2883   26.4937 H   0  0  0  0  0  0
  -25.8065  -30.8879   27.0244 H   0  0  0  0  0  0
  -26.2835  -29.6841   24.1149 H   0  0  0  0  0  0
  -27.4023  -29.7270   25.4609 H   0  0  0  0  0  0
  -27.8698  -30.4401   23.9318 H   0  0  0  0  0  0
  -27.2700  -33.3606   26.2131 H   0  0  0  0  0  0
  -28.3834  -32.6898   25.0290 H   0  0  0  0  0  0
  -28.0765  -31.8403   26.5369 H   0  0  0  0  0  0
  -28.2600  -38.0097   24.7497 H   0  0  0  0  0  0
  -28.1056  -36.2625   24.6278 H   0  0  0  0  0  0
  -27.2301  -37.1465   25.8868 H   0  0  0  0  0  0
  -20.9264  -29.8852   21.7081 H   0  0  0  0  0  0
  -26.0176  -38.2873   24.1383 H   0  0  0  0  0  0
  -30.5513  -19.0631   18.3389 H   0  0  0  0  0  0
  -28.4903  -19.6515   22.0996 H   0  0  0  0  0  0
  -30.9801  -16.7395   18.9317 H   0  0  0  0  0  0
  -28.9133  -17.3211   22.6914 H   0  0  0  0  0  0
  -26.9131  -23.0782   20.0821 H   0  0  0  0  0  0
  -27.6580  -22.5699   18.6096 H   0  0  0  0  0  0
  -29.6097  -24.2666   19.2628 H   0  0  0  0  0  0
  -28.1385  -24.7992   18.5119 H   0  0  0  0  0  0
  -29.0087  -25.1856   21.3772 H   0  0  0  0  0  0
  -27.3051  -25.1769   21.0436 H   0  0  0  0  0  0
  -29.0020  -20.9203   18.6824 H   0  0  0  0  0  0
  -29.2729  -15.1043   21.7810 H   0  0  0  0  0  0
  1 25  1  0  0  0
  1 30  2  0  0  0
  1 82  1  0  0  0
  2  3  1  0  0  0
  2 25  1  0  0  0
  2 84  1  0  0  0
  2 85  1  0  0  0
  3  4  1  0  0  0
  3 86  1  0  0  0
  3 87  1  0  0  0
  4  5  1  0  0  0
  4 88  1  0  0  0
  4 89  1  0  0  0
  5  6  1  0  0  0
  5 26  1  0  0  0
  5 90  1  0  0  0
  6 25  1  0  0  0
  6 91  1  0  0  0
  6 92  1  0  0  0
  7  8  2  0  0  0
  7 26  1  0  0  0
  7 29  1  0  0  0
  8  9  1  0  0  0
  8 22  1  0  0  0
  9 10  1  0  0  0
  9 27  2  0  0  0
 10 11  2  0  0  0
 10 15  1  0  0  0
 11 12  1  0  0  0
 11 93  1  0  0  0
 12 13  2  0  0  0
 12 94  1  0  0  0
 13 14  1  0  0  0
 13 31  1  0  0  0
 14 15  2  0  0  0
 14 95  1  0  0  0
 15 96  1  0  0  0
 16 17  2  0  0  0
 16 21  1  0  0  0
 16 31  1  0  0  0
 17 18  1  0  0  0
 17 97  1  0  0  0
 18 19  2  0  0  0
 18 98  1  0  0  0
 19 20  1  0  0  0
 19 24  1  0  0  0
 20 21  2  0  0  0
 20 99  1  0  0  0
 21 23  1  0  0  0
 22 28  1  0  0  0
 22 32  2  0  0  0
 26 27  1  0  0  0
 28100  1  0  0  0
 28101  1  0  0  0
 29102  1  0  0  0
 29103  1  0  0  0
 33 34  1  0  0  0
 33 66  1  0  0  0
 33 70  2  0  0  0
 34 36  1  0  0  0
 34 59  1  0  0  0
 34104  1  0  0  0
 35 44  2  0  0  0
 35 45  1  0  0  0
 35 68  1  0  0  0
 36 56  1  0  0  0
 36105  1  0  0  0
 37 39  1  0  0  0
 37 47  1  0  0  0
 37 66  1  0  0  0
 37106  1  0  0  0
 38 43  2  0  0  0
 38 46  1  0  0  0
 38 47  1  0  0  0
 39 64  1  0  0  0
 39 67  2  0  0  0
 40 52  1  0  0  0
 40 53  2  0  0  0
 40 58  1  0  0  0
 41107  1  0  0  0
 41108  1  0  0  0
 41109  1  0  0  0
 41 48  1  0  0  0
 42 43  1  0  0  0
 42 66  1  0  0  0
 42110  1  0  0  0
 42111  1  0  0  0
 43 44  1  0  0  0
 44112  1  0  0  0
 45 46  2  0  0  0
 45113  1  0  0  0
 46114  1  0  0  0
 47115  1  0  0  0
 47116  1  0  0  0
 48 56  1  0  0  0
 48 65  1  0  0  0
 48117  1  0  0  0
 49 50  1  0  0  0
 49 53  1  0  0  0
 49 64  1  0  0  0
 49118  1  0  0  0
 50 51  1  0  0  0
 50119  1  0  0  0
 50120  1  0  0  0
 51 52  1  0  0  0
 51121  1  0  0  0
 51122  1  0  0  0
 52123  1  0  0  0
 52124  1  0  0  0
 53 54  1  0  0  0
 54 55  2  0  0  0
 54125  1  0  0  0
 55 57  1  0  0  0
 55126  1  0  0  0
 56 69  2  0  0  0
 57 58  2  0  0  0
 57127  1  0  0  0
 58128  1  0  0  0
 59 60  1  0  0  0
 59 61  1  0  0  0
 59 62  1  0  0  0
 60129  1  0  0  0
 60130  1  0  0  0
 60131  1  0  0  0
 61132  1  0  0  0
 61133  1  0  0  0
 61134  1  0  0  0
 62135  1  0  0  0
 62136  1  0  0  0
 62137  1  0  0  0
 63 65  1  0  0  0
 63138  1  0  0  0
 63139  1  0  0  0
 63140  1  0  0  0
 64141  1  0  0  0
 65142  1  0  0  0
 68 80  1  0  0  0
 71 73  2  0  0  0
 71 75  1  0  0  0
 71143  1  0  0  0
 72 74  1  0  0  0
 72 75  2  0  0  0
 72144  1  0  0  0
 73 76  1  0  0  0
 73145  1  0  0  0
 74 76  2  0  0  0
 74146  1  0  0  0
 75 81  1  0  0  0
 76 82  1  0  0  0
 77 78  1  0  0  0
 77 81  1  0  0  0
 77 83  2  0  0  0
 78 79  1  0  0  0
 78147  1  0  0  0
 78148  1  0  0  0
 79 80  1  0  0  0
 79149  1  0  0  0
 79150  1  0  0  0
 80151  1  0  0  0
 80152  1  0  0  0
 81153  1  0  0  0
 82154  1  0  0  0
M  ISO  4   1 100  68 101  80 101  82 100
M  END
> <chiral flag>
0

> <version>
0

> <s_m_source_file>
/data/baiqing/PycharmProjects/Reinvent-master-3.2/result/LINK_invent/BTK/process_docking_weight1_custom_product_contain_oxygen_bond_distance_aromatic_linkinvent_7_9_3/rearranged_h_0059.sdf

> <i_m_source_file_index>
87

> <r_mmod_Potential_Energy-OPLS-2005>
-107.532608032227

> <r_mmod_Stretch_Energy-OPLS-2005>
36.1476173400879

> <r_mmod_Bend_Energy-OPLS-2005>
99.6218185424805

> <r_mmod_Torsional_Energy-OPLS-2005>
257.29833984375

> <r_mmod_Improper_Torsional_Energy-OPLS-2005>
4.30562973022461

> <r_mmod_Van_der_Waal_Energy-OPLS-2005>
155.085601806641

> <r_mmod_Electrostatic_Energy-OPLS-2005>
-440.527923583984

> <r_mmod_Solvation_Energy-OPLS-2005>
-231.158554077148

> <b_mmod_Minimization_Converged-OPLS-2005>
0

> <r_mmod_RMS_Derivative-OPLS-2005>
3.07896876335144

$$$$
87
                    3D
 Structure written by MMmdl.
152160  0  0  1  0            999 V2000
  -30.7156  -14.5183   20.5484 C   0  0  0  0  0  0
  -30.4152  -12.3307   19.4372 C   0  0  0  0  0  0
  -29.4932  -12.4970   18.2130 C   0  0  0  0  0  0
  -28.0167  -12.3532   18.6279 C   0  0  0  0  0  0
  -27.6547  -13.2163   19.8667 C   0  0  2  0  0  0
  -28.6990  -13.0535   20.9947 C   0  0  0  0  0  0
  -25.2559  -13.8183   20.5687 C   0  0  0  0  0  0
  -24.1825  -13.0448   20.9192 C   0  0  0  0  0  0
  -24.6393  -11.6919   20.8745 C   0  0  0  0  0  0
  -23.9065  -10.4301   21.0407 C   0  0  0  0  0  0
  -24.3616   -9.4213   21.9183 C   0  0  0  0  0  0
  -23.6292   -8.2246   22.0753 C   0  0  0  0  0  0
  -22.4273   -8.0284   21.3545 C   0  0  0  0  0  0
  -21.9909   -9.0258   20.4646 C   0  0  0  0  0  0
  -22.7238  -10.2139   20.3056 C   0  0  0  0  0  0
  -21.6853   -6.0736   22.5279 C   0  0  0  0  0  0
  -21.4013   -6.5639   23.8213 C   0  0  0  0  0  0
  -21.3659   -5.6793   24.9175 C   0  0  0  0  0  0
  -21.6044   -4.3056   24.7227 C   0  0  0  0  0  0
  -21.8819   -3.8147   23.4347 C   0  0  0  0  0  0
  -21.9192   -4.6964   22.3401 C   0  0  0  0  0  0
  -22.7846  -13.5237   21.1853 C   0  0  0  0  0  0
  -22.1661   -4.2150   21.0979 F   0  0  0  0  0  0
  -21.5629   -3.4539   25.7738 F   0  0  0  0  0  0
  -30.0226  -13.3497   20.4269 N   0  0  0  0  0  0
  -26.2994  -12.9368   20.3348 N   0  0  0  0  0  0
  -25.9323  -11.6520   20.5778 N   0  0  0  0  0  0
  -22.0486  -12.8229   22.0407 N   0  0  0  0  0  0
  -25.4267  -15.1901   20.4078 N   0  0  0  0  0  0
  -31.8625  -14.6345   20.1082 O   0  0  0  0  0  0
  -21.6639   -6.8880   21.4241 O   0  0  0  0  0  0
  -22.3532  -14.5545   20.6703 O   0  0  0  0  0  0
  -24.6187  -31.8657   23.2087 C   0  0  0  0  0  0
  -25.9067  -32.4809   23.8389 C   0  0  1  0  0  0
  -27.2239  -27.3965   20.1059 C   0  0  0  0  0  0
  -25.5911  -33.8610   24.2317 N   0  0  0  0  0  0
  -23.4087  -30.4899   21.5498 C   0  0  2  0  0  0
  -24.8558  -28.9571   20.1097 C   0  0  0  0  0  0
  -22.7434  -29.4646   22.4973 C   0  0  0  0  0  0
  -18.0273  -28.1376   22.8483 C   0  0  0  0  0  0
  -24.1489  -36.7308   23.2639 C   0  0  0  0  0  0
  -25.9425  -30.8206   21.3686 C   0  0  0  0  0  0
  -26.0199  -29.4543   20.7109 C   0  0  0  0  0  0
  -27.2112  -28.6832   20.7035 C   0  0  0  0  0  0
  -26.0475  -26.9363   19.4754 C   0  0  0  0  0  0
  -24.8666  -27.6995   19.4850 C   0  0  0  0  0  0
  -23.6194  -29.8270   20.1627 C   0  0  0  0  0  0
  -25.4110  -36.3104   24.0334 C   0  0  1  0  0  0
  -20.5868  -28.3669   23.1303 C   0  0  2  0  0  0
  -20.6767  -26.9403   22.5413 C   0  0  0  0  0  0
  -19.5746  -26.6383   21.5206 C   0  0  0  0  0  0
  -18.1922  -26.7917   22.1620 C   0  0  0  0  0  0
  -19.1523  -28.8839   23.2888 C   0  0  0  0  0  0
  -18.9454  -30.1446   23.8903 C   0  0  0  0  0  0
  -17.6458  -30.6585   24.0563 C   0  0  0  0  0  0
  -25.9039  -34.9469   23.5121 C   0  0  0  0  0  0
  -16.5348  -29.9087   23.6331 C   0  0  0  0  0  0
  -16.7264  -28.6502   23.0349 C   0  0  0  0  0  0
  -26.4481  -31.6596   25.0728 C   0  0  0  0  0  0
  -25.3738  -31.3713   26.1473 C   0  0  0  0  0  0
  -27.0311  -30.3033   24.6122 C   0  0  0  0  0  0
  -27.6055  -32.4318   25.7489 C   0  0  0  0  0  0
  -27.5581  -37.1808   24.8465 C   0  0  0  0  0  0
  -21.4158  -29.3034   22.3715 N   0  0  0  0  0  0
  -26.4294  -37.3791   23.9409 N   0  0  0  0  0  0
  -24.6751  -31.0730   22.1004 N   0  0  0  0  0  0
  -23.4191  -28.8183   23.3024 O   0  0  0  0  0  0
  -28.3367  -26.5716   20.1475 O   0  0  0  0  0  0
  -26.5606  -34.8927   22.4685 O   0  0  0  0  0  0
  -23.5372  -32.1427   23.7460 O   0  0  0  0  0  0
  -32.3678  -18.3905   21.9799 C   0  0  0  0  0  0
  -31.6099  -19.5334   21.6736 C   0  0  0  0  0  0
  -31.8456  -17.1063   21.7531 C   0  0  0  0  0  0
  -29.7795  -18.1055   20.9275 C   0  0  0  0  0  0
  -30.3067  -19.4204   21.1314 C   0  0  0  0  0  0
  -30.5508  -16.9339   21.2097 C   0  0  0  0  0  0
  -28.8785  -22.8832   20.6996 C   0  0  0  0  0  0
  -29.1425  -24.2192   20.6644 C   0  0  0  0  0  0
  -29.9359  -21.8697   20.6081 C   0  0  0  0  0  0
  -28.0903  -25.3219   20.8467 C   0  0  0  0  0  0
  -29.5131  -20.6023   20.8693 N   0  0  0  0  0  0
  -30.0296  -15.6021   20.9977 N   0  0  0  0  0  0
  -31.1017  -22.1349   20.3022 O   0  0  0  0  0  0
  -31.4606  -12.4139   19.1350 H   0  0  0  0  0  0
  -30.3107  -11.3325   19.8650 H   0  0  0  0  0  0
  -29.7403  -11.7569   17.4508 H   0  0  0  0  0  0
  -29.6555  -13.4743   17.7556 H   0  0  0  0  0  0
  -27.8384  -11.3000   18.8468 H   0  0  0  0  0  0
  -27.3637  -12.6032   17.7910 H   0  0  0  0  0  0
  -27.6822  -14.2556   19.5385 H   0  0  0  0  0  0
  -28.6846  -12.0355   21.3866 H   0  0  0  0  0  0
  -28.4625  -13.7005   21.8407 H   0  0  0  0  0  0
  -25.2761   -9.5688   22.4763 H   0  0  0  0  0  0
  -24.0003   -7.4635   22.7473 H   0  0  0  0  0  0
  -21.0842   -8.8777   19.8950 H   0  0  0  0  0  0
  -22.3695  -10.9678   19.6167 H   0  0  0  0  0  0
  -21.2007   -7.6150   23.9717 H   0  0  0  0  0  0
  -21.1481   -6.0523   25.9078 H   0  0  0  0  0  0
  -22.0598   -2.7610   23.2846 H   0  0  0  0  0  0
  -22.4098  -11.9889   22.4796 H   0  0  0  0  0  0
  -21.1104  -13.1256   22.2613 H   0  0  0  0  0  0
  -24.6583  -15.8443   20.5102 H   0  0  0  0  0  0
  -26.2743  -15.6272   20.0691 H   0  0  0  0  0  0
  -26.7139  -32.5514   23.1154 H   0  0  0  0  0  0
  -25.0072  -33.9769   25.0468 H   0  0  0  0  0  0
  -22.6986  -31.3077   21.4110 H   0  0  0  0  0  0
  -23.3750  -35.9644   23.3309 H   0  0  0  0  0  0
  -24.3583  -36.8916   22.2052 H   0  0  0  0  0  0
  -23.7240  -37.6514   23.6648 H   0  0  0  0  0  0
  -26.0612  -31.5879   20.6022 H   0  0  0  0  0  0
  -26.8274  -30.8708   21.9911 H   0  0  0  0  0  0
  -28.1057  -29.0548   21.1843 H   0  0  0  0  0  0
  -26.0344  -25.9741   18.9829 H   0  0  0  0  0  0
  -23.9751  -27.3140   19.0099 H   0  0  0  0  0  0
  -23.7298  -30.6047   19.4058 H   0  0  0  0  0  0
  -22.7420  -29.2499   19.8652 H   0  0  0  0  0  0
  -25.1284  -36.1973   25.0827 H   0  0  0  0  0  0
  -20.9954  -28.3239   24.1427 H   0  0  0  0  0  0
  -20.5669  -26.2279   23.3602 H   0  0  0  0  0  0
  -21.6638  -26.7448   22.1204 H   0  0  0  0  0  0
  -19.6915  -25.6297   21.1232 H   0  0  0  0  0  0
  -19.6688  -27.3201   20.6739 H   0  0  0  0  0  0
  -17.4191  -26.6663   21.4023 H   0  0  0  0  0  0
  -18.0329  -26.0058   22.9015 H   0  0  0  0  0  0
  -19.7935  -30.7250   24.2282 H   0  0  0  0  0  0
  -17.5018  -31.6267   24.5159 H   0  0  0  0  0  0
  -15.5348  -30.2994   23.7653 H   0  0  0  0  0  0
  -15.8658  -28.0829   22.7063 H   0  0  0  0  0  0
  -24.5904  -30.7070   25.7807 H   0  0  0  0  0  0
  -24.8942  -32.2875   26.4932 H   0  0  0  0  0  0
  -25.8086  -30.8871   27.0226 H   0  0  0  0  0  0
  -26.2860  -29.6797   24.1170 H   0  0  0  0  0  0
  -27.4063  -29.7273   25.4590 H   0  0  0  0  0  0
  -27.8707  -30.4340   23.9290 H   0  0  0  0  0  0
  -27.2673  -33.3616   26.2081 H   0  0  0  0  0  0
  -28.3858  -32.6884   25.0307 H   0  0  0  0  0  0
  -28.0730  -31.8430   26.5395 H   0  0  0  0  0  0
  -28.2602  -38.0105   24.7513 H   0  0  0  0  0  0
  -28.1072  -36.2633   24.6286 H   0  0  0  0  0  0
  -27.2299  -37.1455   25.8870 H   0  0  0  0  0  0
  -20.9326  -29.8766   21.6942 H   0  0  0  0  0  0
  -26.0186  -38.2870   24.1412 H   0  0  0  0  0  0
  -33.3578  -18.4998   22.4001 H   0  0  0  0  0  0
  -32.0478  -20.4976   21.8872 H   0  0  0  0  0  0
  -32.4576  -16.2530   22.0109 H   0  0  0  0  0  0
  -28.7797  -17.9948   20.5322 H   0  0  0  0  0  0
  -27.8540  -22.5611   20.8227 H   0  0  0  0  0  0
  -30.1605  -24.5629   20.5431 H   0  0  0  0  0  0
  -28.0527  -25.5552   21.9119 H   0  0  0  0  0  0
  -27.1213  -24.8860   20.6036 H   0  0  0  0  0  0
  -28.5116  -20.4856   20.9369 H   0  0  0  0  0  0
  -29.0422  -15.4649   21.1519 H   0  0  0  0  0  0
  1 25  1  0  0  0
  1 30  2  0  0  0
  1 82  1  0  0  0
  2  3  1  0  0  0
  2 25  1  0  0  0
  2 84  1  0  0  0
  2 85  1  0  0  0
  3  4  1  0  0  0
  3 86  1  0  0  0
  3 87  1  0  0  0
  4  5  1  0  0  0
  4 88  1  0  0  0
  4 89  1  0  0  0
  5  6  1  0  0  0
  5 26  1  0  0  0
  5 90  1  0  0  0
  6 25  1  0  0  0
  6 91  1  0  0  0
  6 92  1  0  0  0
  7  8  2  0  0  0
  7 26  1  0  0  0
  7 29  1  0  0  0
  8  9  1  0  0  0
  8 22  1  0  0  0
  9 10  1  0  0  0
  9 27  2  0  0  0
 10 11  2  0  0  0
 10 15  1  0  0  0
 11 12  1  0  0  0
 11 93  1  0  0  0
 12 13  2  0  0  0
 12 94  1  0  0  0
 13 14  1  0  0  0
 13 31  1  0  0  0
 14 15  2  0  0  0
 14 95  1  0  0  0
 15 96  1  0  0  0
 16 17  2  0  0  0
 16 21  1  0  0  0
 16 31  1  0  0  0
 17 18  1  0  0  0
 17 97  1  0  0  0
 18 19  2  0  0  0
 18 98  1  0  0  0
 19 20  1  0  0  0
 19 24  1  0  0  0
 20 21  2  0  0  0
 20 99  1  0  0  0
 21 23  1  0  0  0
 22 28  1  0  0  0
 22 32  2  0  0  0
 26 27  1  0  0  0
 28100  1  0  0  0
 28101  1  0  0  0
 29102  1  0  0  0
 29103  1  0  0  0
 33 34  1  0  0  0
 33 66  1  0  0  0
 33 70  2  0  0  0
 34 36  1  0  0  0
 34 59  1  0  0  0
 34104  1  0  0  0
 35 44  2  0  0  0
 35 45  1  0  0  0
 35 68  1  0  0  0
 36 56  1  0  0  0
 36105  1  0  0  0
 37 39  1  0  0  0
 37 47  1  0  0  0
 37 66  1  0  0  0
 37106  1  0  0  0
 38 43  2  0  0  0
 38 46  1  0  0  0
 38 47  1  0  0  0
 39 64  1  0  0  0
 39 67  2  0  0  0
 40 52  1  0  0  0
 40 53  2  0  0  0
 40 58  1  0  0  0
 41107  1  0  0  0
 41108  1  0  0  0
 41109  1  0  0  0
 41 48  1  0  0  0
 42 43  1  0  0  0
 42 66  1  0  0  0
 42110  1  0  0  0
 42111  1  0  0  0
 43 44  1  0  0  0
 44112  1  0  0  0
 45 46  2  0  0  0
 45113  1  0  0  0
 46114  1  0  0  0
 47115  1  0  0  0
 47116  1  0  0  0
 48 56  1  0  0  0
 48 65  1  0  0  0
 48117  1  0  0  0
 49 50  1  0  0  0
 49 53  1  0  0  0
 49 64  1  0  0  0
 49118  1  0  0  0
 50 51  1  0  0  0
 50119  1  0  0  0
 50120  1  0  0  0
 51 52  1  0  0  0
 51121  1  0  0  0
 51122  1  0  0  0
 52123  1  0  0  0
 52124  1  0  0  0
 53 54  1  0  0  0
 54 55  2  0  0  0
 54125  1  0  0  0
 55 57  1  0  0  0
 55126  1  0  0  0
 56 69  2  0  0  0
 57 58  2  0  0  0
 57127  1  0  0  0
 58128  1  0  0  0
 59 60  1  0  0  0
 59 61  1  0  0  0
 59 62  1  0  0  0
 60129  1  0  0  0
 60130  1  0  0  0
 60131  1  0  0  0
 61132  1  0  0  0
 61133  1  0  0  0
 61134  1  0  0  0
 62135  1  0  0  0
 62136  1  0  0  0
 62137  1  0  0  0
 63 65  1  0  0  0
 63138  1  0  0  0
 63139  1  0  0  0
 63140  1  0  0  0
 64141  1  0  0  0
 65142  1  0  0  0
 68 80  1  0  0  0
 71 72  2  0  0  0
 71 73  1  0  0  0
 71143  1  0  0  0
 72 75  1  0  0  0
 72144  1  0  0  0
 73 76  2  0  0  0
 73145  1  0  0  0
 74 75  2  0  0  0
 74 76  1  0  0  0
 74146  1  0  0  0
 75 81  1  0  0  0
 76 82  1  0  0  0
 77 78  2  0  0  0
 77 79  1  0  0  0
 77147  1  0  0  0
 78 80  1  0  0  0
 78148  1  0  0  0
 79 81  1  0  0  0
 79 83  2  0  0  0
 80149  1  0  0  0
 80150  1  0  0  0
 81151  1  0  0  0
 82152  1  0  0  0
M  ISO  4   1 100  68 101  80 101  82 100
M  END
> <chiral flag>
0

> <version>
0

> <s_m_source_file>
/data/baiqing/PycharmProjects/Reinvent-master-3.2/result/LINK_invent/BTK/process_docking_weight1_custom_product_contain_oxygen_bond_distance_aromatic_linkinvent_7_9_3/rearranged_h_0059.sdf

> <i_m_source_file_index>
88

> <r_mmod_Potential_Energy-OPLS-2005>
-49.5611343383789

> <r_mmod_Stretch_Energy-OPLS-2005>
49.6872673034668

> <r_mmod_Bend_Energy-OPLS-2005>
97.8554916381836

> <r_mmod_Torsional_Energy-OPLS-2005>
250.232345581055

> <r_mmod_Improper_Torsional_Energy-OPLS-2005>
4.59473848342896

> <r_mmod_Van_der_Waal_Energy-OPLS-2005>
160.846084594727

> <r_mmod_Electrostatic_Energy-OPLS-2005>
-399.101959228516

> <r_mmod_Solvation_Energy-OPLS-2005>
-237.277526855469

> <b_mmod_Minimization_Converged-OPLS-2005>
0

> <r_mmod_RMS_Derivative-OPLS-2005>
0.667279124259949

$$$$
88
                    3D
 Structure written by MMmdl.
160168  0  0  1  0            999 V2000
  -27.6796  -17.5263   20.8544 C   0  0  0  0  0  0
  -29.4365  -14.9095   19.7751 C   0  0  0  0  0  0
  -29.3310  -13.6004   18.7360 C   0  0  0  0  0  0
  -28.2658  -12.5839   19.1211 C   0  0  0  0  0  0
  -27.3435  -13.4727   19.9336 C   0  0  2  0  0  0
  -27.8932  -14.3949   21.0955 C   0  0  0  0  0  0
  -25.0508  -13.8196   20.5533 C   0  0  0  0  0  0
  -24.0533  -13.0067   20.9396 C   0  0  0  0  0  0
  -24.5749  -11.6755   20.8895 C   0  0  0  0  0  0
  -23.8802  -10.4073   21.0478 C   0  0  0  0  0  0
  -24.3501   -9.4039   21.9208 C   0  0  0  0  0  0
  -23.6219   -8.2058   22.0745 C   0  0  0  0  0  0
  -22.4198   -8.0107   21.3536 C   0  0  0  0  0  0
  -21.9778   -9.0025   20.4625 C   0  0  0  0  0  0
  -22.7052  -10.1904   20.3046 C   0  0  0  0  0  0
  -21.6803   -6.0655   22.5291 C   0  0  0  0  0  0
  -21.3975   -6.5589   23.8219 C   0  0  0  0  0  0
  -21.3651   -5.6756   24.9190 C   0  0  0  0  0  0
  -21.6048   -4.3025   24.7251 C   0  0  0  0  0  0
  -21.8828   -3.8097   23.4386 C   0  0  0  0  0  0
  -21.9178   -4.6893   22.3427 C   0  0  0  0  0  0
  -22.6687  -13.4743   21.2128 C   0  0  0  0  0  0
  -22.1658   -4.2087   21.1007 F   0  0  0  0  0  0
  -21.5636   -3.4518   25.7776 F   0  0  0  0  0  0
  -28.1393  -15.8236   20.5220 N   0  0  0  0  0  0
  -26.1066  -12.9759   20.3315 N   0  0  0  0  0  0
  -25.8657  -11.6734   20.5761 N   0  0  0  0  0  0
  -21.9578  -12.7759   22.0828 N   0  0  0  0  0  0
  -25.1387  -15.2005   20.3543 N   0  0  0  0  0  0
  -29.0256  -17.5083   20.7148 O   0  0  0  0  0  0
  -21.6571   -6.8741   21.4241 O   0  0  0  0  0  0
  -22.2397  -14.5065   20.6966 O   0  0  0  0  0  0
  -24.6556  -31.8649   23.0386 C   0  0  0  0  0  0
  -25.9488  -32.4773   23.7669 C   0  0  1  0  0  0
  -26.7486  -27.7844   21.1035 C   0  0  0  0  0  0
  -25.6175  -33.8497   24.1883 N   0  0  0  0  0  0
  -23.5396  -30.0137   21.3575 C   0  0  2  0  0  0
  -25.1844  -29.2802   19.5917 C   0  0  0  0  0  0
  -23.4595  -28.3329   21.4857 C   0  0  0  0  0  0
  -18.6599  -26.9549   23.1262 C   0  0  0  0  0  0
  -24.1474  -36.7248   23.2636 C   0  0  0  0  0  0
  -25.8917  -31.0613   21.1797 C   0  0  0  0  0  0
  -26.1784  -29.8144   20.4282 C   0  0  0  0  0  0
  -27.2404  -29.0370   20.8675 C   0  0  0  0  0  0
  -26.2730  -27.1426   19.8927 C   0  0  0  0  0  0
  -25.3942  -27.9507   19.0940 C   0  0  0  0  0  0
  -23.8112  -29.9348   19.8199 C   0  0  0  0  0  0
  -25.4108  -36.3073   24.0362 C   0  0  1  0  0  0
  -22.0339  -26.4582   23.2907 C   0  0  2  0  0  0
  -22.0726  -25.9447   20.6624 C   0  0  0  0  0  0
  -20.1440  -25.3100   20.6626 C   0  0  0  0  0  0
  -18.7850  -25.7330   21.9219 C   0  0  0  0  0  0
  -19.9547  -27.2036   23.9954 C   0  0  0  0  0  0
  -19.5197  -28.6135   24.5416 C   0  0  0  0  0  0
  -18.3662  -29.5325   24.3462 C   0  0  0  0  0  0
  -25.9188  -34.9566   23.4941 C   0  0  0  0  0  0
  -17.2638  -29.1393   23.5809 C   0  0  0  0  0  0
  -17.4388  -27.8360   23.0241 C   0  0  0  0  0  0
  -26.5275  -31.6863   25.0180 C   0  0  0  0  0  0
  -25.4890  -31.3082   26.1047 C   0  0  0  0  0  0
  -27.3260  -30.4437   24.5582 C   0  0  0  0  0  0
  -27.5912  -32.5357   25.7571 C   0  0  0  0  0  0
  -27.5619  -37.1728   24.8430 C   0  0  0  0  0  0
  -23.1713  -27.2163   22.3661 N   0  0  0  0  0  0
  -26.4206  -37.3861   23.9570 N   0  0  0  0  0  0
  -24.6790  -30.9317   21.9985 N   0  0  0  0  0  0
  -24.1592  -27.5328   21.2387 O   0  0  0  0  0  0
  -26.1383  -27.6950   22.4670 O   0  0  0  0  0  0
  -26.5674  -34.9303   22.4440 O   0  0  0  0  0  0
  -23.6071  -32.3900   23.4040 O   0  0  0  0  0  0
  -21.8864  -21.6507   22.4724 C   0  0  0  0  0  0
  -21.3847  -23.1094   22.5189 C   0  0  0  0  0  0
  -23.1516  -20.8380   22.1071 C   0  0  0  0  0  0
  -22.0188  -24.4180   22.1829 C   0  0  0  0  0  0
  -23.6582  -23.0642   21.7132 C   0  0  0  0  0  0
  -24.5492  -21.0956   21.5927 C   0  0  0  0  0  0
  -20.7700  -27.3877   21.7297 C   0  0  0  0  0  0
  -24.7754  -23.9235   21.1451 C   0  0  0  0  0  0
  -22.2549  -30.3836   24.2965 C   0  0  0  0  0  0
  -22.6254  -28.3324   25.3156 C   0  0  0  0  0  0
  -24.8643  -28.5637   23.5824 C   0  0  0  0  0  0
  -22.7491  -29.0009   23.8599 C   0  0  0  0  0  0
  -26.1294  -19.0674   21.1876 N   0  0  0  0  0  0
  -21.2927  -28.6958   22.6219 N   0  0  0  0  0  0
  -20.0875  -27.8445   20.7864 O   0  0  0  0  0  0
  -29.9429  -15.6634   19.1687 H   0  0  0  0  0  0
  -30.2158  -14.7006   20.5134 H   0  0  0  0  0  0
  -30.3017  -13.1201   18.6173 H   0  0  0  0  0  0
  -29.0822  -13.9912   17.7468 H   0  0  0  0  0  0
  -28.6780  -11.7928   19.7434 H   0  0  0  0  0  0
  -27.7809  -12.1339   18.2541 H   0  0  0  0  0  0
  -27.0373  -14.1593   19.1367 H   0  0  0  0  0  0
  -28.6800  -13.9260   21.6891 H   0  0  0  0  0  0
  -27.1491  -14.5536   21.8756 H   0  0  0  0  0  0
  -25.2623   -9.5587   22.4804 H   0  0  0  0  0  0
  -23.9947   -7.4447   22.7446 H   0  0  0  0  0  0
  -21.0716   -8.8507   19.8933 H   0  0  0  0  0  0
  -22.3477  -10.9456   19.6177 H   0  0  0  0  0  0
  -21.1954   -7.6096   23.9702 H   0  0  0  0  0  0
  -21.1471   -6.0498   25.9096 H   0  0  0  0  0  0
  -22.0624   -2.7555   23.2900 H   0  0  0  0  0  0
  -22.3368  -11.9494   22.5211 H   0  0  0  0  0  0
  -21.0229  -13.0711   22.3233 H   0  0  0  0  0  0
  -24.2531  -15.6888   20.2596 H   0  0  0  0  0  0
  -25.8327  -15.5196   19.6887 H   0  0  0  0  0  0
  -26.8035  -32.6159   23.1097 H   0  0  0  0  0  0
  -25.0306  -33.9361   25.0040 H   0  0  0  0  0  0
  -22.5721  -30.5004   21.4643 H   0  0  0  0  0  0
  -23.3875  -35.9412   23.3002 H   0  0  0  0  0  0
  -24.3648  -36.9158   22.2113 H   0  0  0  0  0  0
  -23.6999  -37.6269   23.6818 H   0  0  0  0  0  0
  -25.7289  -31.8730   20.4661 H   0  0  0  0  0  0
  -26.8197  -31.3066   21.6785 H   0  0  0  0  0  0
  -27.8603  -29.4673   21.6394 H   0  0  0  0  0  0
  -26.0660  -26.0820   19.8848 H   0  0  0  0  0  0
  -24.6515  -27.4457   18.4978 H   0  0  0  0  0  0
  -23.8125  -30.9312   19.3829 H   0  0  0  0  0  0
  -23.0349  -29.3879   19.2772 H   0  0  0  0  0  0
  -25.1235  -36.1832   25.0836 H   0  0  0  0  0  0
  -22.5459  -25.8160   24.0223 H   0  0  0  0  0  0
  -22.7978  -25.2666   20.1997 H   0  0  0  0  0  0
  -22.1840  -26.7441   19.9070 H   0  0  0  0  0  0
  -20.1205  -24.2370   20.4819 H   0  0  0  0  0  0
  -19.7604  -25.6361   19.6945 H   0  0  0  0  0  0
  -17.8534  -25.7144   21.3581 H   0  0  0  0  0  0
  -18.7178  -24.8217   22.5152 H   0  0  0  0  0  0
  -20.2009  -28.9939   25.2703 H   0  0  0  0  0  0
  -18.3294  -30.4741   24.8839 H   0  0  0  0  0  0
  -16.3894  -29.7591   23.4166 H   0  0  0  0  0  0
  -16.6467  -27.5065   22.3633 H   0  0  0  0  0  0
  -24.7349  -30.6091   25.7726 H   0  0  0  0  0  0
  -25.0000  -32.1915   26.5129 H   0  0  0  0  0  0
  -25.9753  -30.8140   26.9516 H   0  0  0  0  0  0
  -27.2678  -29.6214   25.2718 H   0  0  0  0  0  0
  -28.3863  -30.6681   24.4304 H   0  0  0  0  0  0
  -27.0638  -30.0908   23.5708 H   0  0  0  0  0  0
  -27.1680  -33.4255   26.2229 H   0  0  0  0  0  0
  -28.3796  -32.8817   25.0846 H   0  0  0  0  0  0
  -28.0703  -31.9720   26.5605 H   0  0  0  0  0  0
  -28.2405  -38.0249   24.7840 H   0  0  0  0  0  0
  -28.1342  -36.2830   24.5737 H   0  0  0  0  0  0
  -27.2433  -37.0740   25.8822 H   0  0  0  0  0  0
  -23.8057  -26.5280   21.9854 H   0  0  0  0  0  0
  -26.0050  -38.2859   24.1831 H   0  0  0  0  0  0
  -21.0961  -20.9741   22.7747 H   0  0  0  0  0  0
  -20.3445  -23.1906   22.8156 H   0  0  0  0  0  0
  -22.9844  -19.7798   22.2548 H   0  0  0  0  0  0
  -24.6342  -24.9727   21.3913 H   0  0  0  0  0  0
  -24.8249  -23.8190   20.0596 H   0  0  0  0  0  0
  -25.7351  -23.6165   21.5538 H   0  0  0  0  0  0
  -21.8241  -30.9464   23.4673 H   0  0  0  0  0  0
  -22.9310  -30.9123   24.9506 H   0  0  0  0  0  0
  -21.4128  -30.4262   24.9586 H   0  0  0  0  0  0
  -23.5029  -27.7739   25.6255 H   0  0  0  0  0  0
  -21.8399  -27.6131   25.4688 H   0  0  0  0  0  0
  -22.5005  -29.0232   26.1523 H   0  0  0  0  0  0
  -25.0329  -27.8184   24.3529 H   0  0  0  0  0  0
  -25.2888  -29.3975   24.0666 H   0  0  0  0  0  0
  -25.4229  -18.3389   21.2145 H   0  0  0  0  0  0
  -20.7689  -29.5291   22.4003 H   0  0  0  0  0  0
  1 25  1  0  0  0
  1 30  2  0  0  0
  1 83  1  0  0  0
  2  3  1  0  0  0
  2 25  1  0  0  0
  2 86  1  0  0  0
  2 87  1  0  0  0
  3  4  1  0  0  0
  3 88  1  0  0  0
  3 89  1  0  0  0
  4  5  1  0  0  0
  4 90  1  0  0  0
  4 91  1  0  0  0
  5  6  1  0  0  0
  5 26  1  0  0  0
  5 92  1  0  0  0
  6 25  1  0  0  0
  6 93  1  0  0  0
  6 94  1  0  0  0
  7  8  2  0  0  0
  7 26  1  0  0  0
  7 29  1  0  0  0
  8  9  1  0  0  0
  8 22  1  0  0  0
  9 10  1  0  0  0
  9 27  2  0  0  0
 10 11  2  0  0  0
 10 15  1  0  0  0
 11 12  1  0  0  0
 11 95  1  0  0  0
 12 13  2  0  0  0
 12 96  1  0  0  0
 13 14  1  0  0  0
 13 31  1  0  0  0
 14 15  2  0  0  0
 14 97  1  0  0  0
 15 98  1  0  0  0
 16 17  2  0  0  0
 16 21  1  0  0  0
 16 31  1  0  0  0
 17 18  1  0  0  0
 17 99  1  0  0  0
 18 19  2  0  0  0
 18100  1  0  0  0
 19 20  1  0  0  0
 19 24  1  0  0  0
 20 21  2  0  0  0
 20101  1  0  0  0
 21 23  1  0  0  0
 22 28  1  0  0  0
 22 32  2  0  0  0
 26 27  1  0  0  0
 28102  1  0  0  0
 28103  1  0  0  0
 29104  1  0  0  0
 29105  1  0  0  0
 33 34  1  0  0  0
 33 66  1  0  0  0
 33 70  2  0  0  0
 34 36  1  0  0  0
 34 59  1  0  0  0
 34106  1  0  0  0
 35 44  2  0  0  0
 35 45  1  0  0  0
 35 68  1  0  0  0
 36 56  1  0  0  0
 36107  1  0  0  0
 37 39  1  0  0  0
 37 47  1  0  0  0
 37 66  1  0  0  0
 37108  1  0  0  0
 38 43  2  0  0  0
 38 46  1  0  0  0
 38 47  1  0  0  0
 39 64  1  0  0  0
 39 67  2  0  0  0
 40 52  1  0  0  0
 40 53  2  0  0  0
 40 58  1  0  0  0
 41109  1  0  0  0
 41110  1  0  0  0
 41111  1  0  0  0
 41 48  1  0  0  0
 42 43  1  0  0  0
 42 66  1  0  0  0
 42112  1  0  0  0
 42113  1  0  0  0
 43 44  1  0  0  0
 44114  1  0  0  0
 45 46  2  0  0  0
 45115  1  0  0  0
 46116  1  0  0  0
 47117  1  0  0  0
 47118  1  0  0  0
 48 56  1  0  0  0
 48 65  1  0  0  0
 48119  1  0  0  0
 49 50  1  0  0  0
 49 53  1  0  0  0
 49 64  1  0  0  0
 49120  1  0  0  0
 50 51  1  0  0  0
 50121  1  0  0  0
 50122  1  0  0  0
 51 52  1  0  0  0
 51123  1  0  0  0
 51124  1  0  0  0
 52125  1  0  0  0
 52126  1  0  0  0
 53 54  1  0  0  0
 54 55  2  0  0  0
 54127  1  0  0  0
 55 57  1  0  0  0
 55128  1  0  0  0
 56 69  2  0  0  0
 57 58  2  0  0  0
 57129  1  0  0  0
 58130  1  0  0  0
 59 60  1  0  0  0
 59 61  1  0  0  0
 59 62  1  0  0  0
 60131  1  0  0  0
 60132  1  0  0  0
 60133  1  0  0  0
 61134  1  0  0  0
 61135  1  0  0  0
 61136  1  0  0  0
 62137  1  0  0  0
 62138  1  0  0  0
 62139  1  0  0  0
 63 65  1  0  0  0
 63140  1  0  0  0
 63141  1  0  0  0
 63142  1  0  0  0
 64143  1  0  0  0
 65144  1  0  0  0
 68 81  1  0  0  0
 71 72  2  0  0  0
 71 73  1  0  0  0
 71145  1  0  0  0
 72 74  1  0  0  0
 72146  1  0  0  0
 73 76  2  0  0  0
 73147  1  0  0  0
 74 75  2  0  0  0
 74 77  1  0  0  0
 75 76  1  0  0  0
 75 78  1  0  0  0
 76 83  1  0  0  0
 77 84  1  0  0  0
 77 85  2  0  0  0
 78148  1  0  0  0
 78149  1  0  0  0
 78150  1  0  0  0
 79151  1  0  0  0
 79152  1  0  0  0
 79153  1  0  0  0
 79 82  1  0  0  0
 80 82  1  0  0  0
 80154  1  0  0  0
 80155  1  0  0  0
 80156  1  0  0  0
 81 82  1  0  0  0
 81157  1  0  0  0
 81158  1  0  0  0
 82 84  1  0  0  0
 83159  1  0  0  0
 84160  1  0  0  0
M  ISO  4   1 100  68 101  81 101  83 100
M  END
> <chiral flag>
0

> <version>
0

> <s_m_source_file>
/data/baiqing/PycharmProjects/Reinvent-master-3.2/result/LINK_invent/BTK/process_docking_weight1_custom_product_contain_oxygen_bond_distance_aromatic_linkinvent_7_9_3/rearranged_h_0059.sdf

> <i_m_source_file_index>
89

> <r_mmod_Potential_Energy-OPLS-2005>
35857.078125

> <r_mmod_Stretch_Energy-OPLS-2005>
16699.259765625

> <r_mmod_Bend_Energy-OPLS-2005>
3194.634765625

> <r_mmod_Torsional_Energy-OPLS-2005>
698.978271484375

> <r_mmod_Improper_Torsional_Energy-OPLS-2005>
103.250213623047

> <r_mmod_Van_der_Waal_Energy-OPLS-2005>
3627.1005859375

> <r_mmod_Electrostatic_Energy-OPLS-2005>
-449.289306640625

> <r_mmod_Solvation_Energy-OPLS-2005>
-199.563430786133

> <b_mmod_Minimization_Converged-OPLS-2005>
0

> <r_mmod_RMS_Derivative-OPLS-2005>
16.318868637085

$$$$
89
                    3D
 Structure written by MMmdl.
169177  0  0  1  0            999 V2000
  -30.7523  -14.4093   20.6167 C   0  0  0  0  0  0
  -30.4147  -12.2930   19.3979 C   0  0  0  0  0  0
  -29.4833  -12.5064   18.1900 C   0  0  0  0  0  0
  -28.0065  -12.3734   18.6102 C   0  0  0  0  0  0
  -27.6623  -13.2070   19.8734 C   0  0  2  0  0  0
  -28.7068  -12.9734   20.9870 C   0  0  0  0  0  0
  -25.2594  -13.8166   20.5697 C   0  0  0  0  0  0
  -24.1848  -13.0451   20.9181 C   0  0  0  0  0  0
  -24.6403  -11.6907   20.8745 C   0  0  0  0  0  0
  -23.9074  -10.4293   21.0414 C   0  0  0  0  0  0
  -24.3620   -9.4203   21.9192 C   0  0  0  0  0  0
  -23.6289   -8.2246   22.0759 C   0  0  0  0  0  0
  -22.4276   -8.0290   21.3547 C   0  0  0  0  0  0
  -21.9920   -9.0265   20.4652 C   0  0  0  0  0  0
  -22.7250  -10.2140   20.3062 C   0  0  0  0  0  0
  -21.6851   -6.0745   22.5278 C   0  0  0  0  0  0
  -21.4012   -6.5645   23.8214 C   0  0  0  0  0  0
  -21.3651   -5.6797   24.9177 C   0  0  0  0  0  0
  -21.6054   -4.3064   24.7224 C   0  0  0  0  0  0
  -21.8817   -3.8158   23.4343 C   0  0  0  0  0  0
  -21.9188   -4.6975   22.3401 C   0  0  0  0  0  0
  -22.7873  -13.5249   21.1847 C   0  0  0  0  0  0
  -22.1662   -4.2161   21.0978 F   0  0  0  0  0  0
  -21.5627   -3.4540   25.7733 F   0  0  0  0  0  0
  -30.0391  -13.2686   20.4310 N   0  0  0  0  0  0
  -26.3034  -12.9338   20.3379 N   0  0  0  0  0  0
  -25.9326  -11.6497   20.5771 N   0  0  0  0  0  0
  -22.0501  -12.8229   22.0383 N   0  0  0  0  0  0
  -25.4327  -15.1884   20.4113 N   0  0  0  0  0  0
  -31.8610  -14.6012   20.1134 O   0  0  0  0  0  0
  -21.6638   -6.8890   21.4244 O   0  0  0  0  0  0
  -22.3567  -14.5559   20.6702 O   0  0  0  0  0  0
  -24.6111  -31.8668   23.2124 C   0  0  0  0  0  0
  -25.8998  -32.4802   23.8421 C   0  0  1  0  0  0
  -27.2374  -27.4463   20.0852 C   0  0  0  0  0  0
  -25.5875  -33.8615   24.2362 N   0  0  0  0  0  0
  -23.4004  -30.4914   21.5543 C   0  0  2  0  0  0
  -24.8471  -28.9671   20.1133 C   0  0  0  0  0  0
  -22.7398  -29.4622   22.4990 C   0  0  0  0  0  0
  -18.0273  -28.1349   22.8480 C   0  0  0  0  0  0
  -24.1487  -36.7349   23.2634 C   0  0  0  0  0  0
  -25.9289  -30.8357   21.3666 C   0  0  0  0  0  0
  -26.0068  -29.4748   20.7104 C   0  0  0  0  0  0
  -27.2021  -28.7229   20.6934 C   0  0  0  0  0  0
  -26.0541  -26.9554   19.4801 C   0  0  0  0  0  0
  -24.8648  -27.7039   19.4999 C   0  0  0  0  0  0
  -23.6054  -29.8289   20.1673 C   0  0  0  0  0  0
  -25.4098  -36.3103   24.0320 C   0  0  1  0  0  0
  -20.5852  -28.3631   23.1309 C   0  0  2  0  0  0
  -20.6764  -26.9356   22.5408 C   0  0  0  0  0  0
  -19.5740  -26.6359   21.5191 C   0  0  0  0  0  0
  -18.1918  -26.7896   22.1605 C   0  0  0  0  0  0
  -19.1514  -28.8809   23.2892 C   0  0  0  0  0  0
  -18.9432  -30.1417   23.8877 C   0  0  0  0  0  0
  -17.6446  -30.6559   24.0534 C   0  0  0  0  0  0
  -25.9009  -34.9455   23.5140 C   0  0  0  0  0  0
  -16.5333  -29.9044   23.6327 C   0  0  0  0  0  0
  -16.7262  -28.6465   23.0333 C   0  0  0  0  0  0
  -26.4447  -31.6565   25.0740 C   0  0  0  0  0  0
  -25.3719  -31.3611   26.1480 C   0  0  0  0  0  0
  -27.0303  -30.3028   24.6086 C   0  0  0  0  0  0
  -27.6043  -32.4278   25.7473 C   0  0  0  0  0  0
  -27.5579  -37.1807   24.8447 C   0  0  0  0  0  0
  -21.4124  -29.3005   22.3722 N   0  0  0  0  0  0
  -26.4311  -37.3774   23.9377 N   0  0  0  0  0  0
  -24.6655  -31.0780   22.1024 N   0  0  0  0  0  0
  -23.4160  -28.8148   23.3021 O   0  0  0  0  0  0
  -28.4168  -26.7244   20.1366 O   0  0  0  0  0  0
  -26.5584  -34.8886   22.4708 O   0  0  0  0  0  0
  -23.5312  -32.1443   23.7522 O   0  0  0  0  0  0
  -30.9936  -17.7104   19.5259 C   0  0  0  0  0  0
  -31.1073  -18.8673   18.7313 C   0  0  0  0  0  0
  -30.6542  -19.1049   21.4835 C   0  0  0  0  0  0
  -30.7394  -20.2787   20.6939 C   0  0  0  0  0  0
  -30.7889  -17.8162   20.9174 C   0  0  0  0  0  0
  -31.0017  -20.1560   19.3009 C   0  0  0  0  0  0
  -25.6664  -24.6461   22.0315 C   0  0  0  0  0  0
  -26.9632  -24.9240   21.7935 C   0  0  0  0  0  0
  -30.5237  -21.5711   21.3672 C   0  0  0  0  0  0
  -31.2140  -21.3592   18.3902 C   0  0  0  0  0  0
  -27.1041  -23.2021   19.9525 C   0  0  0  0  0  0
  -30.7756  -16.5909   21.8393 C   0  0  0  0  0  0
  -29.0421  -23.6175   21.5536 C   0  0  0  0  0  0
  -28.4397  -25.3435   19.7305 C   0  0  0  0  0  0
  -27.8840  -24.2832   20.7492 C   0  0  2  0  0  0
  -31.1644  -21.8480   22.5015 N   0  0  0  0  0  0
  -30.1461  -15.3659   21.3320 N   0  0  0  0  0  0
  -29.6407  -22.4515   20.8711 N   0  3  0  0  0  0
  -31.4579  -12.3820   19.0906 H   0  0  0  0  0  0
  -30.3079  -11.2797   19.7874 H   0  0  0  0  0  0
  -29.7130  -11.7846   17.4048 H   0  0  0  0  0  0
  -29.6551  -13.4930   17.7582 H   0  0  0  0  0  0
  -27.8111  -11.3175   18.7996 H   0  0  0  0  0  0
  -27.3525  -12.6584   17.7857 H   0  0  0  0  0  0
  -27.7120  -14.2575   19.5858 H   0  0  0  0  0  0
  -28.6771  -11.9349   21.3213 H   0  0  0  0  0  0
  -28.4711  -13.5651   21.8720 H   0  0  0  0  0  0
  -25.2768   -9.5679   22.4760 H   0  0  0  0  0  0
  -24.0001   -7.4643   22.7477 H   0  0  0  0  0  0
  -21.0855   -8.8798   19.8946 H   0  0  0  0  0  0
  -22.3729  -10.9686   19.6170 H   0  0  0  0  0  0
  -21.2006   -7.6153   23.9722 H   0  0  0  0  0  0
  -21.1476   -6.0526   25.9080 H   0  0  0  0  0  0
  -22.0601   -2.7619   23.2840 H   0  0  0  0  0  0
  -22.4106  -11.9884   22.4764 H   0  0  0  0  0  0
  -21.1126  -13.1262   22.2588 H   0  0  0  0  0  0
  -24.6696  -15.8464   20.5262 H   0  0  0  0  0  0
  -26.2912  -15.6269   20.1012 H   0  0  0  0  0  0
  -26.7053  -32.5506   23.1180 H   0  0  0  0  0  0
  -25.0020  -33.9798   25.0497 H   0  0  0  0  0  0
  -22.6859  -31.3063   21.4190 H   0  0  0  0  0  0
  -23.3719  -35.9709   23.3311 H   0  0  0  0  0  0
  -24.3582  -36.8990   22.2057 H   0  0  0  0  0  0
  -23.7304  -37.6572   23.6665 H   0  0  0  0  0  0
  -26.0455  -31.6021   20.5995 H   0  0  0  0  0  0
  -26.8127  -30.8850   21.9893 H   0  0  0  0  0  0
  -28.0960  -29.1127   21.1598 H   0  0  0  0  0  0
  -26.0120  -25.9881   19.0070 H   0  0  0  0  0  0
  -23.9690  -27.3076   19.0426 H   0  0  0  0  0  0
  -23.7062  -30.6033   19.4058 H   0  0  0  0  0  0
  -22.7327  -29.2444   19.8730 H   0  0  0  0  0  0
  -25.1292  -36.1986   25.0814 H   0  0  0  0  0  0
  -20.9944  -28.3213   24.1430 H   0  0  0  0  0  0
  -20.5665  -26.2223   23.3592 H   0  0  0  0  0  0
  -21.6641  -26.7412   22.1196 H   0  0  0  0  0  0
  -19.6877  -25.6275   21.1201 H   0  0  0  0  0  0
  -19.6692  -27.3166   20.6709 H   0  0  0  0  0  0
  -17.4205  -26.6635   21.3990 H   0  0  0  0  0  0
  -18.0328  -26.0022   22.8983 H   0  0  0  0  0  0
  -19.7916  -30.7223   24.2251 H   0  0  0  0  0  0
  -17.4994  -31.6233   24.5144 H   0  0  0  0  0  0
  -15.5313  -30.2915   23.7692 H   0  0  0  0  0  0
  -15.8667  -28.0772   22.7053 H   0  0  0  0  0  0
  -24.5917  -30.6920   25.7809 H   0  0  0  0  0  0
  -24.8849  -32.2729   26.4921 H   0  0  0  0  0  0
  -25.8101  -30.8797   27.0231 H   0  0  0  0  0  0
  -26.2842  -29.6720   24.1230 H   0  0  0  0  0  0
  -27.4218  -29.7294   25.4503 H   0  0  0  0  0  0
  -27.8602  -30.4404   23.9150 H   0  0  0  0  0  0
  -27.2708  -33.3586   26.2034 H   0  0  0  0  0  0
  -28.3846  -32.6793   25.0284 H   0  0  0  0  0  0
  -28.0678  -31.8393   26.5382 H   0  0  0  0  0  0
  -28.2585  -38.0117   24.7525 H   0  0  0  0  0  0
  -28.1113  -36.2658   24.6277 H   0  0  0  0  0  0
  -27.2291  -37.1487   25.8847 H   0  0  0  0  0  0
  -20.9255  -29.8775   21.7003 H   0  0  0  0  0  0
  -26.0201  -38.2847   24.1366 H   0  0  0  0  0  0
  -31.0969  -16.7478   19.0505 H   0  0  0  0  0  0
  -31.2945  -18.7534   17.6725 H   0  0  0  0  0  0
  -30.4731  -19.1928   22.5464 H   0  0  0  0  0  0
  -25.1245  -25.1816   22.8000 H   0  0  0  0  0  0
  -25.1140  -23.8993   21.4807 H   0  0  0  0  0  0
  -27.4293  -25.6849   22.4046 H   0  0  0  0  0  0
  -31.7625  -21.0776   17.4897 H   0  0  0  0  0  0
  -31.7999  -22.1377   18.8816 H   0  0  0  0  0  0
  -30.2623  -21.7865   18.0762 H   0  0  0  0  0  0
  -26.7675  -22.3887   20.5970 H   0  0  0  0  0  0
  -27.7072  -22.7659   19.1559 H   0  0  0  0  0  0
  -26.2224  -23.6193   19.4648 H   0  0  0  0  0  0
  -30.2642  -16.8483   22.7678 H   0  0  0  0  0  0
  -31.8074  -16.3758   22.1248 H   0  0  0  0  0  0
  -28.6555  -23.2566   22.5093 H   0  0  0  0  0  0
  -29.8111  -24.3530   21.7977 H   0  0  0  0  0  0
  -27.9795  -25.2396   18.7487 H   0  0  0  0  0  0
  -29.4852  -25.1063   19.5298 H   0  0  0  0  0  0
  -31.8231  -21.1767   22.8677 H   0  0  0  0  0  0
  -31.1068  -22.7461   22.9509 H   0  0  0  0  0  0
  -29.2192  -15.1558   21.6695 H   0  0  0  0  0  0
  -29.1697  -22.1583   20.0270 H   0  0  0  0  0  0
  1 25  1  0  0  0
  1 30  2  0  0  0
  1 87  1  0  0  0
  2  3  1  0  0  0
  2 25  1  0  0  0
  2 89  1  0  0  0
  2 90  1  0  0  0
  3  4  1  0  0  0
  3 91  1  0  0  0
  3 92  1  0  0  0
  4  5  1  0  0  0
  4 93  1  0  0  0
  4 94  1  0  0  0
  5  6  1  0  0  0
  5 26  1  0  0  0
  5 95  1  0  0  0
  6 25  1  0  0  0
  6 96  1  0  0  0
  6 97  1  0  0  0
  7  8  2  0  0  0
  7 26  1  0  0  0
  7 29  1  0  0  0
  8  9  1  0  0  0
  8 22  1  0  0  0
  9 10  1  0  0  0
  9 27  2  0  0  0
 10 11  2  0  0  0
 10 15  1  0  0  0
 11 12  1  0  0  0
 11 98  1  0  0  0
 12 13  2  0  0  0
 12 99  1  0  0  0
 13 14  1  0  0  0
 13 31  1  0  0  0
 14 15  2  0  0  0
 14100  1  0  0  0
 15101  1  0  0  0
 16 17  2  0  0  0
 16 21  1  0  0  0
 16 31  1  0  0  0
 17 18  1  0  0  0
 17102  1  0  0  0
 18 19  2  0  0  0
 18103  1  0  0  0
 19 20  1  0  0  0
 19 24  1  0  0  0
 20 21  2  0  0  0
 20104  1  0  0  0
 21 23  1  0  0  0
 22 28  1  0  0  0
 22 32  2  0  0  0
 26 27  1  0  0  0
 28105  1  0  0  0
 28106  1  0  0  0
 29107  1  0  0  0
 29108  1  0  0  0
 33 34  1  0  0  0
 33 66  1  0  0  0
 33 70  2  0  0  0
 34 36  1  0  0  0
 34 59  1  0  0  0
 34109  1  0  0  0
 35 44  2  0  0  0
 35 45  1  0  0  0
 35 68  1  0  0  0
 36 56  1  0  0  0
 36110  1  0  0  0
 37 39  1  0  0  0
 37 47  1  0  0  0
 37 66  1  0  0  0
 37111  1  0  0  0
 38 43  2  0  0  0
 38 46  1  0  0  0
 38 47  1  0  0  0
 39 64  1  0  0  0
 39 67  2  0  0  0
 40 52  1  0  0  0
 40 53  2  0  0  0
 40 58  1  0  0  0
 41112  1  0  0  0
 41113  1  0  0  0
 41114  1  0  0  0
 41 48  1  0  0  0
 42 43  1  0  0  0
 42 66  1  0  0  0
 42115  1  0  0  0
 42116  1  0  0  0
 43 44  1  0  0  0
 44117  1  0  0  0
 45 46  2  0  0  0
 45118  1  0  0  0
 46119  1  0  0  0
 47120  1  0  0  0
 47121  1  0  0  0
 48 56  1  0  0  0
 48 65  1  0  0  0
 48122  1  0  0  0
 49 50  1  0  0  0
 49 53  1  0  0  0
 49 64  1  0  0  0
 49123  1  0  0  0
 50 51  1  0  0  0
 50124  1  0  0  0
 50125  1  0  0  0
 51 52  1  0  0  0
 51126  1  0  0  0
 51127  1  0  0  0
 52128  1  0  0  0
 52129  1  0  0  0
 53 54  1  0  0  0
 54 55  2  0  0  0
 54130  1  0  0  0
 55 57  1  0  0  0
 55131  1  0  0  0
 56 69  2  0  0  0
 57 58  2  0  0  0
 57132  1  0  0  0
 58133  1  0  0  0
 59 60  1  0  0  0
 59 61  1  0  0  0
 59 62  1  0  0  0
 60134  1  0  0  0
 60135  1  0  0  0
 60136  1  0  0  0
 61137  1  0  0  0
 61138  1  0  0  0
 61139  1  0  0  0
 62140  1  0  0  0
 62141  1  0  0  0
 62142  1  0  0  0
 63 65  1  0  0  0
 63143  1  0  0  0
 63144  1  0  0  0
 63145  1  0  0  0
 64146  1  0  0  0
 65147  1  0  0  0
 68 84  1  0  0  0
 71 72  2  0  0  0
 71 75  1  0  0  0
 71148  1  0  0  0
 72 76  1  0  0  0
 72149  1  0  0  0
 73 74  1  0  0  0
 73 75  2  0  0  0
 73150  1  0  0  0
 74 76  2  0  0  0
 74 79  1  0  0  0
 75 82  1  0  0  0
 76 80  1  0  0  0
 77 78  2  0  0  0
 77151  1  0  0  0
 77152  1  0  0  0
 78153  1  0  0  0
 78 85  1  0  0  0
 79 86  1  0  0  0
 79 88  2  0  0  0
 80154  1  0  0  0
 80155  1  0  0  0
 80156  1  0  0  0
 81157  1  0  0  0
 81158  1  0  0  0
 81159  1  0  0  0
 81 85  1  0  0  0
 82 87  1  0  0  0
 82160  1  0  0  0
 82161  1  0  0  0
 83 85  1  0  0  0
 83 88  1  0  0  0
 83162  1  0  0  0
 83163  1  0  0  0
 84 85  1  0  0  0
 84164  1  0  0  0
 84165  1  0  0  0
 86166  1  0  0  0
 86167  1  0  0  0
 87168  1  0  0  0
 88169  1  0  0  0
M  CHG  1  88   1
M  ISO  4   1 100  68 101  84 101  87 100
M  END
> <chiral flag>
0

> <version>
0

> <s_m_source_file>
/data/baiqing/PycharmProjects/Reinvent-master-3.2/result/LINK_invent/BTK/process_docking_weight1_custom_product_contain_oxygen_bond_distance_aromatic_linkinvent_7_9_3/rearranged_h_0059.sdf

> <i_m_source_file_index>
90

> <r_mmod_Potential_Energy-OPLS-2005>
-233.831436157227

> <r_mmod_Stretch_Energy-OPLS-2005>
40.1946296691895

> <r_mmod_Bend_Energy-OPLS-2005>
116.290771484375

> <r_mmod_Torsional_Energy-OPLS-2005>
216.378082275391

> <r_mmod_Improper_Torsional_Energy-OPLS-2005>
3.16518998146057

> <r_mmod_Van_der_Waal_Energy-OPLS-2005>
172.659286499023

> <r_mmod_Electrostatic_Energy-OPLS-2005>
-404.068939208984

> <r_mmod_Solvation_Energy-OPLS-2005>
-389.385650634766

> <b_mmod_Minimization_Converged-OPLS-2005>
0

> <r_mmod_RMS_Derivative-OPLS-2005>
3.02224516868591

$$$$
90
                    3D
 Structure written by MMmdl.
162171  0  0  1  0            999 V2000
  -30.7096  -14.5017   20.5077 C   0  0  0  0  0  0
  -30.4153  -12.3064   19.4384 C   0  0  0  0  0  0
  -29.4926  -12.4835   18.2139 C   0  0  0  0  0  0
  -28.0162  -12.3467   18.6303 C   0  0  0  0  0  0
  -27.6572  -13.2130   19.8676 C   0  0  2  0  0  0
  -28.7011  -13.0436   20.9955 C   0  0  0  0  0  0
  -25.2575  -13.8170   20.5698 C   0  0  0  0  0  0
  -24.1829  -13.0442   20.9198 C   0  0  0  0  0  0
  -24.6388  -11.6912   20.8747 C   0  0  0  0  0  0
  -23.9060  -10.4291   21.0407 C   0  0  0  0  0  0
  -24.3616   -9.4206   21.9183 C   0  0  0  0  0  0
  -23.6286   -8.2246   22.0752 C   0  0  0  0  0  0
  -22.4268   -8.0286   21.3548 C   0  0  0  0  0  0
  -21.9909   -9.0258   20.4649 C   0  0  0  0  0  0
  -22.7232  -10.2137   20.3053 C   0  0  0  0  0  0
  -21.6851   -6.0733   22.5272 C   0  0  0  0  0  0
  -21.4015   -6.5639   23.8206 C   0  0  0  0  0  0
  -21.3661   -5.6791   24.9170 C   0  0  0  0  0  0
  -21.6041   -4.3053   24.7223 C   0  0  0  0  0  0
  -21.8821   -3.8147   23.4343 C   0  0  0  0  0  0
  -21.9195   -4.6962   22.3398 C   0  0  0  0  0  0
  -22.7851  -13.5245   21.1851 C   0  0  0  0  0  0
  -22.1661   -4.2151   21.0976 F   0  0  0  0  0  0
  -21.5634   -3.4539   25.7737 F   0  0  0  0  0  0
  -30.0298  -13.3247   20.4309 N   0  0  0  0  0  0
  -26.3011  -12.9354   20.3357 N   0  0  0  0  0  0
  -25.9321  -11.6513   20.5778 N   0  0  0  0  0  0
  -22.0504  -12.8230   22.0404 N   0  0  0  0  0  0
  -25.4310  -15.1881   20.4107 N   0  0  0  0  0  0
  -31.8828  -14.5977   20.1414 O   0  0  0  0  0  0
  -21.6639   -6.8878   21.4233 O   0  0  0  0  0  0
  -22.3532  -14.5555   20.6700 O   0  0  0  0  0  0
  -24.6166  -31.8686   23.2128 C   0  0  0  0  0  0
  -25.9061  -32.4822   23.8420 C   0  0  1  0  0  0
  -27.2204  -27.4044   20.1012 C   0  0  0  0  0  0
  -25.5916  -33.8614   24.2338 N   0  0  0  0  0  0
  -23.4071  -30.4930   21.5544 C   0  0  2  0  0  0
  -24.8541  -28.9643   20.1131 C   0  0  0  0  0  0
  -22.7442  -29.4644   22.4991 C   0  0  0  0  0  0
  -18.0270  -28.1366   22.8489 C   0  0  0  0  0  0
  -24.1494  -36.7297   23.2642 C   0  0  0  0  0  0
  -25.9411  -30.8194   21.3801 C   0  0  0  0  0  0
  -26.0149  -29.4521   20.7287 C   0  0  0  0  0  0
  -27.2001  -28.6726   20.7352 C   0  0  0  0  0  0
  -26.0621  -26.9728   19.4271 C   0  0  0  0  0  0
  -24.8738  -27.7224   19.4585 C   0  0  0  0  0  0
  -23.6175  -29.8345   20.1668 C   0  0  0  0  0  0
  -25.4112  -36.3104   24.0351 C   0  0  1  0  0  0
  -20.5872  -28.3639   23.1318 C   0  0  2  0  0  0
  -20.6759  -26.9368   22.5413 C   0  0  0  0  0  0
  -19.5739  -26.6373   21.5207 C   0  0  0  0  0  0
  -18.1912  -26.7910   22.1617 C   0  0  0  0  0  0
  -19.1526  -28.8819   23.2889 C   0  0  0  0  0  0
  -18.9461  -30.1424   23.8896 C   0  0  0  0  0  0
  -17.6469  -30.6570   24.0556 C   0  0  0  0  0  0
  -25.9058  -34.9475   23.5143 C   0  0  0  0  0  0
  -16.5349  -29.9069   23.6340 C   0  0  0  0  0  0
  -16.7263  -28.6487   23.0356 C   0  0  0  0  0  0
  -26.4483  -31.6610   25.0761 C   0  0  0  0  0  0
  -25.3739  -31.3712   26.1518 C   0  0  0  0  0  0
  -27.0338  -30.3055   24.6148 C   0  0  0  0  0  0
  -27.6074  -32.4341   25.7495 C   0  0  0  0  0  0
  -27.5582  -37.1789   24.8466 C   0  0  0  0  0  0
  -21.4172  -29.3003   22.3730 N   0  0  0  0  0  0
  -26.4294  -37.3789   23.9428 N   0  0  0  0  0  0
  -24.6729  -31.0765   22.1058 N   0  0  0  0  0  0
  -23.4199  -28.8179   23.3047 O   0  0  0  0  0  0
  -28.3383  -26.5906   20.0912 O   0  0  0  0  0  0
  -26.5611  -34.8923   22.4698 O   0  0  0  0  0  0
  -23.5350  -32.1454   23.7503 O   0  0  0  0  0  0
  -31.3397  -18.6367   19.0475 C   0  0  0  0  0  0
  -30.8067  -19.6849   19.8111 C   0  0  0  0  0  0
  -31.0570  -17.3034   19.3842 C   0  0  0  0  0  0
  -29.9719  -19.4167   20.9150 C   0  0  0  0  0  0
  -29.7165  -18.0538   21.2837 C   0  0  0  0  0  0
  -30.2691  -16.9775   20.5176 C   0  0  0  0  0  0
  -27.0806  -23.7007   20.1128 C   0  0  0  0  0  0
  -28.2258  -24.1072   20.7011 C   0  0  0  0  0  0
  -29.2078  -23.0795   21.1402 C   0  0  0  0  0  0
  -26.7462  -22.2832   19.7184 C   0  0  0  0  0  0
  -27.9680  -21.3744   19.8119 C   0  0  0  0  0  0
  -28.8541  -17.7508   22.5045 C   0  0  0  0  0  0
  -29.4008  -20.6269   21.6917 C   0  0  0  0  0  0
  -28.3935  -25.5877   21.1405 C   0  0  0  0  0  0
  -28.8864  -21.7690   20.8878 N   0  0  0  0  0  0
  -29.9842  -15.5973   20.8403 N   0  0  0  0  0  0
  -30.2125  -23.3601   21.7993 O   0  0  0  0  0  0
  -31.4619  -12.3828   19.1370 H   0  0  0  0  0  0
  -30.3027  -11.3076   19.8630 H   0  0  0  0  0  0
  -29.7347  -11.7414   17.4515 H   0  0  0  0  0  0
  -29.6606  -13.4603   17.7564 H   0  0  0  0  0  0
  -27.8370  -11.2943   18.8533 H   0  0  0  0  0  0
  -27.3626  -12.5938   17.7936 H   0  0  0  0  0  0
  -27.6875  -14.2518   19.5412 H   0  0  0  0  0  0
  -28.6763  -12.0254   21.3882 H   0  0  0  0  0  0
  -28.4729  -13.6946   21.8407 H   0  0  0  0  0  0
  -25.2761   -9.5688   22.4758 H   0  0  0  0  0  0
  -24.0001   -7.4639   22.7464 H   0  0  0  0  0  0
  -21.0851   -8.8771   19.8953 H   0  0  0  0  0  0
  -22.3686  -10.9680   19.6168 H   0  0  0  0  0  0
  -21.2001   -7.6144   23.9710 H   0  0  0  0  0  0
  -21.1482   -6.0520   25.9072 H   0  0  0  0  0  0
  -22.0599   -2.7607   23.2838 H   0  0  0  0  0  0
  -22.4114  -11.9883   22.4788 H   0  0  0  0  0  0
  -21.1124  -13.1246   22.2622 H   0  0  0  0  0  0
  -24.6681  -15.8468   20.5213 H   0  0  0  0  0  0
  -26.2835  -15.6247   20.0833 H   0  0  0  0  0  0
  -26.7134  -32.5524   23.1186 H   0  0  0  0  0  0
  -25.0096  -33.9787   25.0500 H   0  0  0  0  0  0
  -22.6965  -31.3101   21.4177 H   0  0  0  0  0  0
  -23.3764  -35.9626   23.3325 H   0  0  0  0  0  0
  -24.3569  -36.8898   22.2051 H   0  0  0  0  0  0
  -23.7240  -37.6498   23.6648 H   0  0  0  0  0  0
  -26.0694  -31.5842   20.6136 H   0  0  0  0  0  0
  -26.8250  -30.8676   22.0042 H   0  0  0  0  0  0
  -28.0926  -29.0338   21.2266 H   0  0  0  0  0  0
  -26.0758  -26.0649   18.8477 H   0  0  0  0  0  0
  -23.9941  -27.3567   18.9491 H   0  0  0  0  0  0
  -23.7243  -30.6129   19.4107 H   0  0  0  0  0  0
  -22.7400  -29.2584   19.8708 H   0  0  0  0  0  0
  -25.1273  -36.1975   25.0846 H   0  0  0  0  0  0
  -20.9947  -28.3197   24.1452 H   0  0  0  0  0  0
  -20.5668  -26.2232   23.3599 H   0  0  0  0  0  0
  -21.6625  -26.7423   22.1184 H   0  0  0  0  0  0
  -19.6909  -25.6293   21.1225 H   0  0  0  0  0  0
  -19.6691  -27.3204   20.6756 H   0  0  0  0  0  0
  -17.4180  -26.6673   21.4014 H   0  0  0  0  0  0
  -18.0287  -26.0038   22.9006 H   0  0  0  0  0  0
  -19.7937  -30.7227   24.2266 H   0  0  0  0  0  0
  -17.5024  -31.6263   24.5131 H   0  0  0  0  0  0
  -15.5338  -30.2965   23.7677 H   0  0  0  0  0  0
  -15.8669  -28.0808   22.7079 H   0  0  0  0  0  0
  -24.5930  -30.7042   25.7865 H   0  0  0  0  0  0
  -24.8908  -32.2853   26.4983 H   0  0  0  0  0  0
  -25.8092  -30.8881   27.0274 H   0  0  0  0  0  0
  -26.2888  -29.6793   24.1232 H   0  0  0  0  0  0
  -27.4137  -29.7315   25.4604 H   0  0  0  0  0  0
  -27.8707  -30.4393   23.9286 H   0  0  0  0  0  0
  -27.2729  -33.3652   26.2061 H   0  0  0  0  0  0
  -28.3854  -32.6883   25.0298 H   0  0  0  0  0  0
  -28.0764  -31.8477   26.5399 H   0  0  0  0  0  0
  -28.2592  -38.0094   24.7537 H   0  0  0  0  0  0
  -28.1072  -36.2620   24.6258 H   0  0  0  0  0  0
  -27.2289  -37.1424   25.8864 H   0  0  0  0  0  0
  -20.9334  -29.8745   21.6968 H   0  0  0  0  0  0
  -26.0182  -38.2865   24.1439 H   0  0  0  0  0  0
  -31.9632  -18.8547   18.1913 H   0  0  0  0  0  0
  -31.0366  -20.7063   19.5373 H   0  0  0  0  0  0
  -31.4639  -16.5377   18.7396 H   0  0  0  0  0  0
  -26.2868  -24.4000   19.9405 H   0  0  0  0  0  0
  -26.3420  -22.2722   18.7051 H   0  0  0  0  0  0
  -25.9588  -21.9210   20.3802 H   0  0  0  0  0  0
  -28.5271  -21.4227   18.8770 H   0  0  0  0  0  0
  -27.6361  -20.3399   19.9174 H   0  0  0  0  0  0
  -29.1737  -18.3470   23.3593 H   0  0  0  0  0  0
  -28.9091  -16.7125   22.8280 H   0  0  0  0  0  0
  -27.8095  -17.9804   22.2928 H   0  0  0  0  0  0
  -30.1726  -20.9516   22.3919 H   0  0  0  0  0  0
  -28.5630  -20.3141   22.3119 H   0  0  0  0  0  0
  -29.3506  -25.7203   21.6451 H   0  0  0  0  0  0
  -27.6408  -25.7902   21.9050 H   0  0  0  0  0  0
  -29.0824  -15.4120   21.2503 H   0  0  0  0  0  0
  1 25  1  0  0  0
  1 30  2  0  0  0
  1 86  1  0  0  0
  2  3  1  0  0  0
  2 25  1  0  0  0
  2 88  1  0  0  0
  2 89  1  0  0  0
  3  4  1  0  0  0
  3 90  1  0  0  0
  3 91  1  0  0  0
  4  5  1  0  0  0
  4 92  1  0  0  0
  4 93  1  0  0  0
  5  6  1  0  0  0
  5 26  1  0  0  0
  5 94  1  0  0  0
  6 25  1  0  0  0
  6 95  1  0  0  0
  6 96  1  0  0  0
  7  8  2  0  0  0
  7 26  1  0  0  0
  7 29  1  0  0  0
  8  9  1  0  0  0
  8 22  1  0  0  0
  9 10  1  0  0  0
  9 27  2  0  0  0
 10 11  2  0  0  0
 10 15  1  0  0  0
 11 12  1  0  0  0
 11 97  1  0  0  0
 12 13  2  0  0  0
 12 98  1  0  0  0
 13 14  1  0  0  0
 13 31  1  0  0  0
 14 15  2  0  0  0
 14 99  1  0  0  0
 15100  1  0  0  0
 16 17  2  0  0  0
 16 21  1  0  0  0
 16 31  1  0  0  0
 17 18  1  0  0  0
 17101  1  0  0  0
 18 19  2  0  0  0
 18102  1  0  0  0
 19 20  1  0  0  0
 19 24  1  0  0  0
 20 21  2  0  0  0
 20103  1  0  0  0
 21 23  1  0  0  0
 22 28  1  0  0  0
 22 32  2  0  0  0
 26 27  1  0  0  0
 28104  1  0  0  0
 28105  1  0  0  0
 29106  1  0  0  0
 29107  1  0  0  0
 33 34  1  0  0  0
 33 66  1  0  0  0
 33 70  2  0  0  0
 34 36  1  0  0  0
 34 59  1  0  0  0
 34108  1  0  0  0
 35 44  2  0  0  0
 35 45  1  0  0  0
 35 68  1  0  0  0
 36 56  1  0  0  0
 36109  1  0  0  0
 37 39  1  0  0  0
 37 47  1  0  0  0
 37 66  1  0  0  0
 37110  1  0  0  0
 38 43  2  0  0  0
 38 46  1  0  0  0
 38 47  1  0  0  0
 39 64  1  0  0  0
 39 67  2  0  0  0
 40 52  1  0  0  0
 40 53  2  0  0  0
 40 58  1  0  0  0
 41111  1  0  0  0
 41112  1  0  0  0
 41113  1  0  0  0
 41 48  1  0  0  0
 42 43  1  0  0  0
 42 66  1  0  0  0
 42114  1  0  0  0
 42115  1  0  0  0
 43 44  1  0  0  0
 44116  1  0  0  0
 45 46  2  0  0  0
 45117  1  0  0  0
 46118  1  0  0  0
 47119  1  0  0  0
 47120  1  0  0  0
 48 56  1  0  0  0
 48 65  1  0  0  0
 48121  1  0  0  0
 49 50  1  0  0  0
 49 53  1  0  0  0
 49 64  1  0  0  0
 49122  1  0  0  0
 50 51  1  0  0  0
 50123  1  0  0  0
 50124  1  0  0  0
 51 52  1  0  0  0
 51125  1  0  0  0
 51126  1  0  0  0
 52127  1  0  0  0
 52128  1  0  0  0
 53 54  1  0  0  0
 54 55  2  0  0  0
 54129  1  0  0  0
 55 57  1  0  0  0
 55130  1  0  0  0
 56 69  2  0  0  0
 57 58  2  0  0  0
 57131  1  0  0  0
 58132  1  0  0  0
 59 60  1  0  0  0
 59 61  1  0  0  0
 59 62  1  0  0  0
 60133  1  0  0  0
 60134  1  0  0  0
 60135  1  0  0  0
 61136  1  0  0  0
 61137  1  0  0  0
 61138  1  0  0  0
 62139  1  0  0  0
 62140  1  0  0  0
 62141  1  0  0  0
 63 65  1  0  0  0
 63142  1  0  0  0
 63143  1  0  0  0
 63144  1  0  0  0
 64145  1  0  0  0
 65146  1  0  0  0
 68 84  1  0  0  0
 71 72  2  0  0  0
 71 73  1  0  0  0
 71147  1  0  0  0
 72 74  1  0  0  0
 72148  1  0  0  0
 73 76  2  0  0  0
 73149  1  0  0  0
 74 75  2  0  0  0
 74 83  1  0  0  0
 75 76  1  0  0  0
 75 82  1  0  0  0
 76 86  1  0  0  0
 77 78  2  0  0  0
 77 80  1  0  0  0
 77150  1  0  0  0
 78 79  1  0  0  0
 78 84  1  0  0  0
 79 85  1  0  0  0
 79 87  2  0  0  0
 80 81  1  0  0  0
 80151  1  0  0  0
 80152  1  0  0  0
 81 85  1  0  0  0
 81153  1  0  0  0
 81154  1  0  0  0
 82155  1  0  0  0
 82156  1  0  0  0
 82157  1  0  0  0
 83 85  1  0  0  0
 83158  1  0  0  0
 83159  1  0  0  0
 84160  1  0  0  0
 84161  1  0  0  0
 86162  1  0  0  0
M  ISO  4   1 100  68 101  84 101  86 100
M  END
> <chiral flag>
0

> <version>
0

> <s_m_source_file>
/data/baiqing/PycharmProjects/Reinvent-master-3.2/result/LINK_invent/BTK/process_docking_weight1_custom_product_contain_oxygen_bond_distance_aromatic_linkinvent_7_9_3/rearranged_h_0059.sdf

> <i_m_source_file_index>
91

> <r_mmod_Potential_Energy-OPLS-2005>
35.4967079162598

> <r_mmod_Stretch_Energy-OPLS-2005>
55.3253364562988

> <r_mmod_Bend_Energy-OPLS-2005>
105.886352539062

> <r_mmod_Torsional_Energy-OPLS-2005>
271.474700927734

> <r_mmod_Improper_Torsional_Energy-OPLS-2005>
5.41858100891113

> <r_mmod_Van_der_Waal_Energy-OPLS-2005>
177.485107421875

> <r_mmod_Electrostatic_Energy-OPLS-2005>
-382.449432373047

> <r_mmod_Solvation_Energy-OPLS-2005>
-220.937789916992

> <b_mmod_Minimization_Converged-OPLS-2005>
0

> <r_mmod_RMS_Derivative-OPLS-2005>
2.4162290096283

$$$$
91
                    3D
 Structure written by MMmdl.
164173  0  0  1  0            999 V2000
  -30.6985  -14.6008   20.5146 C   0  0  0  0  0  0
  -30.4112  -12.3704   19.4637 C   0  0  0  0  0  0
  -29.4987  -12.5001   18.2290 C   0  0  0  0  0  0
  -28.0227  -12.3471   18.6386 C   0  0  0  0  0  0
  -27.6480  -13.2265   19.8635 C   0  0  2  0  0  0
  -28.6912  -13.1116   20.9980 C   0  0  0  0  0  0
  -25.2511  -13.8198   20.5677 C   0  0  0  0  0  0
  -24.1796  -13.0451   20.9188 C   0  0  0  0  0  0
  -24.6383  -11.6925   20.8739 C   0  0  0  0  0  0
  -23.9065  -10.4296   21.0393 C   0  0  0  0  0  0
  -24.3623   -9.4203   21.9164 C   0  0  0  0  0  0
  -23.6290   -8.2241   22.0743 C   0  0  0  0  0  0
  -22.4269   -8.0282   21.3538 C   0  0  0  0  0  0
  -21.9909   -9.0255   20.4635 C   0  0  0  0  0  0
  -22.7239  -10.2129   20.3038 C   0  0  0  0  0  0
  -21.6849   -6.0724   22.5267 C   0  0  0  0  0  0
  -21.4022   -6.5629   23.8203 C   0  0  0  0  0  0
  -21.3670   -5.6777   24.9162 C   0  0  0  0  0  0
  -21.6050   -4.3039   24.7210 C   0  0  0  0  0  0
  -21.8819   -3.8133   23.4334 C   0  0  0  0  0  0
  -21.9195   -4.6952   22.3392 C   0  0  0  0  0  0
  -22.7818  -13.5231   21.1854 C   0  0  0  0  0  0
  -22.1648   -4.2142   21.0958 F   0  0  0  0  0  0
  -21.5647   -3.4522   25.7725 F   0  0  0  0  0  0
  -30.0074  -13.4207   20.4231 N   0  0  0  0  0  0
  -26.2960  -12.9397   20.3338 N   0  0  0  0  0  0
  -25.9320  -11.6542   20.5786 N   0  0  0  0  0  0
  -22.0462  -12.8229   22.0405 N   0  0  0  0  0  0
  -25.4205  -15.1918   20.4050 N   0  0  0  0  0  0
  -31.8571  -14.6673   20.0985 O   0  0  0  0  0  0
  -21.6639   -6.8873   21.4232 O   0  0  0  0  0  0
  -22.3500  -14.5517   20.6659 O   0  0  0  0  0  0
  -24.6291  -31.8650   23.2090 C   0  0  0  0  0  0
  -25.9148  -32.4808   23.8399 C   0  0  1  0  0  0
  -27.1885  -27.3070   20.0946 C   0  0  0  0  0  0
  -25.5973  -33.8608   24.2319 N   0  0  0  0  0  0
  -23.4184  -30.4986   21.5553 C   0  0  2  0  0  0
  -24.8578  -28.9750   20.1058 C   0  0  0  0  0  0
  -22.7496  -29.4650   22.4943 C   0  0  0  0  0  0
  -18.0296  -28.1374   22.8517 C   0  0  0  0  0  0
  -24.1485  -36.7282   23.2637 C   0  0  0  0  0  0
  -25.9676  -30.7892   21.3884 C   0  0  0  0  0  0
  -26.0334  -29.4218   20.7221 C   0  0  0  0  0  0
  -27.2019  -28.5963   20.7191 C   0  0  0  0  0  0
  -25.9924  -26.9579   19.4152 C   0  0  0  0  0  0
  -24.8397  -27.7481   19.4440 C   0  0  0  0  0  0
  -23.6314  -29.8562   20.1648 C   0  0  0  0  0  0
  -25.4111  -36.3098   24.0335 C   0  0  1  0  0  0
  -20.5904  -28.3676   23.1287 C   0  0  2  0  0  0
  -20.6790  -26.9399   22.5419 C   0  0  0  0  0  0
  -19.5744  -26.6387   21.5246 C   0  0  0  0  0  0
  -18.1927  -26.7918   22.1660 C   0  0  0  0  0  0
  -19.1554  -28.8844   23.2896 C   0  0  0  0  0  0
  -18.9478  -30.1459   23.8893 C   0  0  0  0  0  0
  -17.6477  -30.6581   24.0580 C   0  0  0  0  0  0
  -25.9063  -34.9467   23.5114 C   0  0  0  0  0  0
  -16.5360  -29.9085   23.6343 C   0  0  0  0  0  0
  -16.7285  -28.6507   23.0356 C   0  0  0  0  0  0
  -26.4504  -31.6596   25.0762 C   0  0  0  0  0  0
  -25.3734  -31.3739   26.1492 C   0  0  0  0  0  0
  -27.0352  -30.3017   24.6219 C   0  0  0  0  0  0
  -27.6070  -32.4317   25.7528 C   0  0  0  0  0  0
  -27.5559  -37.1814   24.8477 C   0  0  0  0  0  0
  -21.4209  -29.3037   22.3690 N   0  0  0  0  0  0
  -26.4278  -37.3797   23.9409 N   0  0  0  0  0  0
  -24.6910  -31.0646   22.1073 N   0  0  0  0  0  0
  -23.4238  -28.8172   23.2997 O   0  0  0  0  0  0
  -28.2486  -26.3720   20.1700 O   0  0  0  0  0  0
  -26.5616  -34.8927   22.4667 O   0  0  0  0  0  0
  -23.5450  -32.1456   23.7408 O   0  0  0  0  0  0
  -31.8962  -17.2662   21.4528 C   0  0  0  0  0  0
  -29.8055  -18.3035   20.7883 C   0  0  0  0  0  0
  -32.4929  -18.5338   21.5928 C   0  0  0  0  0  0
  -31.7526  -19.7098   21.3195 C   0  0  0  0  0  0
  -30.3842  -19.6180   20.9344 C   0  0  0  0  0  0
  -30.5608  -17.0986   21.0222 C   0  0  0  0  0  0
  -29.0494  -21.5390   21.7143 C   0  0  0  0  0  0
  -28.6897  -23.0553   21.5843 C   0  0  0  0  0  0
  -29.7088  -23.0630   19.3035 C   0  0  0  0  0  0
  -29.7969  -21.4987   19.3525 C   0  0  0  0  0  0
  -28.5179  -23.5580   20.1355 C   0  0  2  0  0  0
  -32.4632  -21.0574   21.4605 C   0  0  0  0  0  0
  -27.8511  -24.9753   19.8453 C   0  0  0  0  0  0
  -33.9543  -18.6174   22.0270 C   0  0  0  0  0  0
  -29.6579  -20.8642   20.6896 N   0  0  0  0  0  0
  -30.0205  -15.7423   20.8724 N   0  0  0  0  0  0
  -28.7792  -20.9864   22.7862 O   0  0  0  0  0  0
  -34.7259  -18.9105   20.9798 F   0  0  0  0  0  0
  -34.3876  -17.4811   22.5757 F   0  0  0  0  0  0
  -31.4580  -12.4483   19.1670 H   0  0  0  0  0  0
  -30.3076  -11.3838   19.9182 H   0  0  0  0  0  0
  -29.7606  -11.7466   17.4856 H   0  0  0  0  0  0
  -29.6564  -13.4701   17.7534 H   0  0  0  0  0  0
  -27.8558  -11.2944   18.8708 H   0  0  0  0  0  0
  -27.3704  -12.5725   17.7942 H   0  0  0  0  0  0
  -27.6606  -14.2590   19.5142 H   0  0  0  0  0  0
  -28.6909  -12.1059   21.4217 H   0  0  0  0  0  0
  -28.4458  -13.7849   21.8199 H   0  0  0  0  0  0
  -25.2770   -9.5679   22.4739 H   0  0  0  0  0  0
  -23.9997   -7.4635   22.7464 H   0  0  0  0  0  0
  -21.0846   -8.8764   19.8943 H   0  0  0  0  0  0
  -22.3686  -10.9667   19.6147 H   0  0  0  0  0  0
  -21.2000   -7.6133   23.9705 H   0  0  0  0  0  0
  -21.1503   -6.0500   25.9067 H   0  0  0  0  0  0
  -22.0595   -2.7596   23.2821 H   0  0  0  0  0  0
  -22.4093  -11.9923   22.4849 H   0  0  0  0  0  0
  -21.1078  -13.1251   22.2584 H   0  0  0  0  0  0
  -24.6534  -15.8468   20.5118 H   0  0  0  0  0  0
  -26.2678  -15.6311   20.0697 H   0  0  0  0  0  0
  -26.7210  -32.5465   23.1139 H   0  0  0  0  0  0
  -25.0198  -33.9784   25.0514 H   0  0  0  0  0  0
  -22.7106  -31.3203   21.4235 H   0  0  0  0  0  0
  -23.3752  -35.9616   23.3344 H   0  0  0  0  0  0
  -24.3553  -36.8858   22.2041 H   0  0  0  0  0  0
  -23.7247  -37.6502   23.6620 H   0  0  0  0  0  0
  -26.1042  -31.5560   20.6248 H   0  0  0  0  0  0
  -26.8471  -30.8272   22.0205 H   0  0  0  0  0  0
  -28.0929  -28.9238   21.2353 H   0  0  0  0  0  0
  -25.8752  -26.0452   18.8544 H   0  0  0  0  0  0
  -23.9453  -27.4095   18.9398 H   0  0  0  0  0  0
  -23.7552  -30.6436   19.4208 H   0  0  0  0  0  0
  -22.7483  -29.2971   19.8532 H   0  0  0  0  0  0
  -25.1285  -36.1957   25.0830 H   0  0  0  0  0  0
  -21.0000  -28.3251   24.1405 H   0  0  0  0  0  0
  -20.5731  -26.2287   23.3624 H   0  0  0  0  0  0
  -21.6645  -26.7455   22.1178 H   0  0  0  0  0  0
  -19.6905  -25.6317   21.1242 H   0  0  0  0  0  0
  -19.6655  -27.3240   20.6808 H   0  0  0  0  0  0
  -17.4205  -26.6716   21.4050 H   0  0  0  0  0  0
  -18.0278  -26.0039   22.9023 H   0  0  0  0  0  0
  -19.7955  -30.7297   24.2229 H   0  0  0  0  0  0
  -17.5027  -31.6258   24.5182 H   0  0  0  0  0  0
  -15.5356  -30.2984   23.7659 H   0  0  0  0  0  0
  -15.8694  -28.0840   22.7025 H   0  0  0  0  0  0
  -24.5945  -30.7033   25.7834 H   0  0  0  0  0  0
  -24.8891  -32.2914   26.4849 H   0  0  0  0  0  0
  -25.8073  -30.8993   27.0307 H   0  0  0  0  0  0
  -26.2960  -29.6774   24.1196 H   0  0  0  0  0  0
  -27.3997  -29.7246   25.4725 H   0  0  0  0  0  0
  -27.8832  -30.4293   23.9491 H   0  0  0  0  0  0
  -27.2699  -33.3631   26.2075 H   0  0  0  0  0  0
  -28.3891  -32.6847   25.0361 H   0  0  0  0  0  0
  -28.0714  -31.8460   26.5476 H   0  0  0  0  0  0
  -28.2628  -38.0062   24.7475 H   0  0  0  0  0  0
  -28.1002  -36.2600   24.6358 H   0  0  0  0  0  0
  -27.2268  -37.1526   25.8880 H   0  0  0  0  0  0
  -20.9369  -29.8800   21.6947 H   0  0  0  0  0  0
  -26.0161  -38.2875   24.1394 H   0  0  0  0  0  0
  -32.4999  -16.4003   21.6769 H   0  0  0  0  0  0
  -28.7732  -18.2247   20.4774 H   0  0  0  0  0  0
  -29.4779  -23.6256   22.0733 H   0  0  0  0  0  0
  -27.7785  -23.2476   22.1502 H   0  0  0  0  0  0
  -29.6051  -23.3814   18.2650 H   0  0  0  0  0  0
  -30.6320  -23.5106   19.6694 H   0  0  0  0  0  0
  -30.7313  -21.1806   18.8895 H   0  0  0  0  0  0
  -29.0030  -21.0827   18.7303 H   0  0  0  0  0  0
  -27.7154  -22.9152   19.7658 H   0  0  0  0  0  0
  -32.6826  -21.2610   22.5076 H   0  0  0  0  0  0
  -31.8999  -21.9080   21.0853 H   0  0  0  0  0  0
  -33.4018  -21.0568   20.9066 H   0  0  0  0  0  0
  -26.8805  -24.8263   20.3208 H   0  0  0  0  0  0
  -27.6853  -24.9675   18.7668 H   0  0  0  0  0  0
  -34.1055  -19.3927   22.7770 H   0  0  0  0  0  0
  -29.0288  -15.6301   21.0144 H   0  0  0  0  0  0
  1 25  1  0  0  0
  1 30  2  0  0  0
  1 86  1  0  0  0
  2  3  1  0  0  0
  2 25  1  0  0  0
  2 90  1  0  0  0
  2 91  1  0  0  0
  3  4  1  0  0  0
  3 92  1  0  0  0
  3 93  1  0  0  0
  4  5  1  0  0  0
  4 94  1  0  0  0
  4 95  1  0  0  0
  5  6  1  0  0  0
  5 26  1  0  0  0
  5 96  1  0  0  0
  6 25  1  0  0  0
  6 97  1  0  0  0
  6 98  1  0  0  0
  7  8  2  0  0  0
  7 26  1  0  0  0
  7 29  1  0  0  0
  8  9  1  0  0  0
  8 22  1  0  0  0
  9 10  1  0  0  0
  9 27  2  0  0  0
 10 11  2  0  0  0
 10 15  1  0  0  0
 11 12  1  0  0  0
 11 99  1  0  0  0
 12 13  2  0  0  0
 12100  1  0  0  0
 13 14  1  0  0  0
 13 31  1  0  0  0
 14 15  2  0  0  0
 14101  1  0  0  0
 15102  1  0  0  0
 16 17  2  0  0  0
 16 21  1  0  0  0
 16 31  1  0  0  0
 17 18  1  0  0  0
 17103  1  0  0  0
 18 19  2  0  0  0
 18104  1  0  0  0
 19 20  1  0  0  0
 19 24  1  0  0  0
 20 21  2  0  0  0
 20105  1  0  0  0
 21 23  1  0  0  0
 22 28  1  0  0  0
 22 32  2  0  0  0
 26 27  1  0  0  0
 28106  1  0  0  0
 28107  1  0  0  0
 29108  1  0  0  0
 29109  1  0  0  0
 33 34  1  0  0  0
 33 66  1  0  0  0
 33 70  2  0  0  0
 34 36  1  0  0  0
 34 59  1  0  0  0
 34110  1  0  0  0
 35 44  2  0  0  0
 35 45  1  0  0  0
 35 68  1  0  0  0
 36 56  1  0  0  0
 36111  1  0  0  0
 37 39  1  0  0  0
 37 47  1  0  0  0
 37 66  1  0  0  0
 37112  1  0  0  0
 38 43  2  0  0  0
 38 46  1  0  0  0
 38 47  1  0  0  0
 39 64  1  0  0  0
 39 67  2  0  0  0
 40 52  1  0  0  0
 40 53  2  0  0  0
 40 58  1  0  0  0
 41113  1  0  0  0
 41114  1  0  0  0
 41115  1  0  0  0
 41 48  1  0  0  0
 42 43  1  0  0  0
 42 66  1  0  0  0
 42116  1  0  0  0
 42117  1  0  0  0
 43 44  1  0  0  0
 44118  1  0  0  0
 45 46  2  0  0  0
 45119  1  0  0  0
 46120  1  0  0  0
 47121  1  0  0  0
 47122  1  0  0  0
 48 56  1  0  0  0
 48 65  1  0  0  0
 48123  1  0  0  0
 49 50  1  0  0  0
 49 53  1  0  0  0
 49 64  1  0  0  0
 49124  1  0  0  0
 50 51  1  0  0  0
 50125  1  0  0  0
 50126  1  0  0  0
 51 52  1  0  0  0
 51127  1  0  0  0
 51128  1  0  0  0
 52129  1  0  0  0
 52130  1  0  0  0
 53 54  1  0  0  0
 54 55  2  0  0  0
 54131  1  0  0  0
 55 57  1  0  0  0
 55132  1  0  0  0
 56 69  2  0  0  0
 57 58  2  0  0  0
 57133  1  0  0  0
 58134  1  0  0  0
 59 60  1  0  0  0
 59 61  1  0  0  0
 59 62  1  0  0  0
 60135  1  0  0  0
 60136  1  0  0  0
 60137  1  0  0  0
 61138  1  0  0  0
 61139  1  0  0  0
 61140  1  0  0  0
 62141  1  0  0  0
 62142  1  0  0  0
 62143  1  0  0  0
 63 65  1  0  0  0
 63144  1  0  0  0
 63145  1  0  0  0
 63146  1  0  0  0
 64147  1  0  0  0
 65148  1  0  0  0
 68 83  1  0  0  0
 71 73  2  0  0  0
 71 76  1  0  0  0
 71149  1  0  0  0
 72 75  1  0  0  0
 72 76  2  0  0  0
 72150  1  0  0  0
 73 74  1  0  0  0
 73 84  1  0  0  0
 74 75  2  0  0  0
 74 82  1  0  0  0
 75 85  1  0  0  0
 76 86  1  0  0  0
 77 78  1  0  0  0
 77 85  1  0  0  0
 77 87  2  0  0  0
 78 81  1  0  0  0
 78151  1  0  0  0
 78152  1  0  0  0
 79 80  1  0  0  0
 79 81  1  0  0  0
 79153  1  0  0  0
 79154  1  0  0  0
 80 85  1  0  0  0
 80155  1  0  0  0
 80156  1  0  0  0
 81 83  1  0  0  0
 81157  1  0  0  0
 82158  1  0  0  0
 82159  1  0  0  0
 82160  1  0  0  0
 83161  1  0  0  0
 83162  1  0  0  0
 84 88  1  0  0  0
 84 89  1  0  0  0
 84163  1  0  0  0
 86164  1  0  0  0
M  ISO  4   1 100  68 101  83 101  86 100
M  END
> <chiral flag>
0

> <version>
0

> <s_m_source_file>
/data/baiqing/PycharmProjects/Reinvent-master-3.2/result/LINK_invent/BTK/process_docking_weight1_custom_product_contain_oxygen_bond_distance_aromatic_linkinvent_7_9_3/rearranged_h_0059.sdf

> <i_m_source_file_index>
92

> <r_mmod_Potential_Energy-OPLS-2005>
235.951034545898

> <r_mmod_Stretch_Energy-OPLS-2005>
86.3704452514648

> <r_mmod_Bend_Energy-OPLS-2005>
185.332183837891

> <r_mmod_Torsional_Energy-OPLS-2005>
298.542846679688

> <r_mmod_Improper_Torsional_Energy-OPLS-2005>
4.89204502105713

> <r_mmod_Van_der_Waal_Energy-OPLS-2005>
183.398162841797

> <r_mmod_Electrostatic_Energy-OPLS-2005>
-351.109100341797

> <r_mmod_Solvation_Energy-OPLS-2005>
-227.861694335938

> <b_mmod_Minimization_Converged-OPLS-2005>
0

> <r_mmod_RMS_Derivative-OPLS-2005>
2.44044637680054

$$$$
92
                    3D
 Structure written by MMmdl.
157165  0  0  1  0            999 V2000
  -30.6888  -14.5703   20.5306 C   0  0  0  0  0  0
  -30.4206  -12.3607   19.4360 C   0  0  0  0  0  0
  -29.4915  -12.4768   18.2121 C   0  0  0  0  0  0
  -28.0174  -12.3298   18.6329 C   0  0  0  0  0  0
  -27.6480  -13.2161   19.8533 C   0  0  2  0  0  0
  -28.6915  -13.0845   20.9828 C   0  0  0  0  0  0
  -25.2562  -13.8189   20.5677 C   0  0  0  0  0  0
  -24.1816  -13.0455   20.9207 C   0  0  0  0  0  0
  -24.6377  -11.6929   20.8763 C   0  0  0  0  0  0
  -23.9061  -10.4308   21.0422 C   0  0  0  0  0  0
  -24.3607   -9.4232   21.9200 C   0  0  0  0  0  0
  -23.6288   -8.2259   22.0766 C   0  0  0  0  0  0
  -22.4273   -8.0299   21.3544 C   0  0  0  0  0  0
  -21.9908   -9.0273   20.4639 C   0  0  0  0  0  0
  -22.7229  -10.2159   20.3064 C   0  0  0  0  0  0
  -21.6854   -6.0744   22.5288 C   0  0  0  0  0  0
  -21.4001   -6.5643   23.8216 C   0  0  0  0  0  0
  -21.3654   -5.6797   24.9177 C   0  0  0  0  0  0
  -21.6040   -4.3061   24.7218 C   0  0  0  0  0  0
  -21.8824   -3.8155   23.4337 C   0  0  0  0  0  0
  -21.9187   -4.6977   22.3394 C   0  0  0  0  0  0
  -22.7833  -13.5263   21.1854 C   0  0  0  0  0  0
  -22.1664   -4.2163   21.0979 F   0  0  0  0  0  0
  -21.5628   -3.4547   25.7725 F   0  0  0  0  0  0
  -30.0087  -13.3932   20.4059 N   0  0  0  0  0  0
  -26.2965  -12.9359   20.3263 N   0  0  0  0  0  0
  -25.9305  -11.6519   20.5749 N   0  0  0  0  0  0
  -22.0463  -12.8248   22.0403 N   0  0  0  0  0  0
  -25.4276  -15.1897   20.4067 N   0  0  0  0  0  0
  -31.8605  -14.6747   20.1567 O   0  0  0  0  0  0
  -21.6634   -6.8886   21.4238 O   0  0  0  0  0  0
  -22.3540  -14.5564   20.6712 O   0  0  0  0  0  0
  -24.6218  -31.8640   23.2086 C   0  0  0  0  0  0
  -25.9099  -32.4808   23.8411 C   0  0  1  0  0  0
  -27.2265  -27.3573   20.0886 C   0  0  0  0  0  0
  -25.5886  -33.8608   24.2325 N   0  0  0  0  0  0
  -23.4151  -30.4899   21.5468 C   0  0  2  0  0  0
  -24.8590  -28.9441   20.1150 C   0  0  0  0  0  0
  -22.7467  -29.4644   22.4919 C   0  0  0  0  0  0
  -18.0293  -28.1364   22.8458 C   0  0  0  0  0  0
  -24.1497  -36.7318   23.2634 C   0  0  0  0  0  0
  -25.9528  -30.8026   21.3753 C   0  0  0  0  0  0
  -26.0247  -29.4327   20.7161 C   0  0  0  0  0  0
  -27.2072  -28.6439   20.7025 C   0  0  0  0  0  0
  -26.0278  -26.8966   19.4984 C   0  0  0  0  0  0
  -24.8568  -27.6796   19.5066 C   0  0  0  0  0  0
  -23.6313  -29.8270   20.1606 C   0  0  0  0  0  0
  -25.4123  -36.3105   24.0326 C   0  0  1  0  0  0
  -20.5897  -28.3679   23.1277 C   0  0  2  0  0  0
  -20.6797  -26.9392   22.5385 C   0  0  0  0  0  0
  -19.5764  -26.6358   21.5175 C   0  0  0  0  0  0
  -18.1937  -26.7896   22.1607 C   0  0  0  0  0  0
  -19.1539  -28.8823   23.2884 C   0  0  0  0  0  0
  -18.9467  -30.1410   23.8911 C   0  0  0  0  0  0
  -17.6477  -30.6572   24.0520 C   0  0  0  0  0  0
  -25.9047  -34.9465   23.5145 C   0  0  0  0  0  0
  -16.5369  -29.9070   23.6286 C   0  0  0  0  0  0
  -16.7285  -28.6478   23.0314 C   0  0  0  0  0  0
  -26.4491  -31.6610   25.0755 C   0  0  0  0  0  0
  -25.3722  -31.3688   26.1472 C   0  0  0  0  0  0
  -27.0329  -30.3030   24.6183 C   0  0  0  0  0  0
  -27.6067  -32.4318   25.7523 C   0  0  0  0  0  0
  -27.5618  -37.1834   24.8463 C   0  0  0  0  0  0
  -21.4174  -29.3064   22.3699 N   0  0  0  0  0  0
  -26.4335  -37.3780   23.9392 N   0  0  0  0  0  0
  -24.6810  -31.0689   22.1003 N   0  0  0  0  0  0
  -23.4240  -28.8155   23.2942 O   0  0  0  0  0  0
  -28.3832  -26.5811   20.1195 O   0  0  0  0  0  0
  -26.5610  -34.8904   22.4712 O   0  0  0  0  0  0
  -23.5384  -32.1414   23.7428 O   0  0  0  0  0  0
  -30.0398  -18.2331   20.7252 C   0  0  0  0  0  0
  -31.5891  -17.0081   22.1587 C   0  0  0  0  0  0
  -31.7584  -19.4464   21.9922 C   0  0  0  0  0  0
  -30.5257  -16.9770   21.2307 C   0  0  0  0  0  0
  -30.6644  -19.4775   21.0803 C   0  0  0  0  0  0
  -32.1925  -18.2177   22.5375 C   0  0  0  0  0  0
  -29.2693  -21.5510   20.5869 C   0  0  0  0  0  0
  -32.5107  -20.7168   22.3844 C   0  0  0  0  0  0
  -29.4670  -23.0787   20.2908 C   0  0  0  0  0  0
  -28.2119  -23.9571   19.9128 C   0  0  0  0  0  0
  -28.5135  -25.3787   19.2999 C   0  0  0  0  0  0
  -30.3661  -20.7567   20.4674 N   0  0  0  0  0  0
  -29.9776  -15.6834   20.8678 N   0  0  0  0  0  0
  -28.1569  -21.1151   20.8980 O   0  0  0  0  0  0
  -33.2206  -18.1876   23.4222 F   0  0  0  0  0  0
  -31.4618  -12.4674   19.1277 H   0  0  0  0  0  0
  -30.3440  -11.3711   19.8883 H   0  0  0  0  0  0
  -29.7430  -11.7115   17.4776 H   0  0  0  0  0  0
  -29.6445  -13.4367   17.7165 H   0  0  0  0  0  0
  -27.8518  -11.2799   18.8749 H   0  0  0  0  0  0
  -27.3588  -12.5499   17.7911 H   0  0  0  0  0  0
  -27.6647  -14.2452   19.4994 H   0  0  0  0  0  0
  -28.6907  -12.0733   21.3932 H   0  0  0  0  0  0
  -28.4474  -13.7478   21.8150 H   0  0  0  0  0  0
  -25.2745   -9.5708   22.4791 H   0  0  0  0  0  0
  -23.9992   -7.4647   22.7505 H   0  0  0  0  0  0
  -21.0840   -8.8787   19.8942 H   0  0  0  0  0  0
  -22.3684  -10.9702   19.6187 H   0  0  0  0  0  0
  -21.1995   -7.6160   23.9715 H   0  0  0  0  0  0
  -21.1466   -6.0531   25.9076 H   0  0  0  0  0  0
  -22.0603   -2.7625   23.2834 H   0  0  0  0  0  0
  -22.4045  -11.9894   22.4768 H   0  0  0  0  0  0
  -21.1100  -13.1307   22.2604 H   0  0  0  0  0  0
  -24.6646  -15.8482   20.5211 H   0  0  0  0  0  0
  -26.2704  -15.6238   20.0509 H   0  0  0  0  0  0
  -26.7179  -32.5480   23.1155 H   0  0  0  0  0  0
  -24.9969  -33.9743   25.0436 H   0  0  0  0  0  0
  -22.7067  -31.3092   21.4089 H   0  0  0  0  0  0
  -23.3753  -35.9665   23.3282 H   0  0  0  0  0  0
  -24.3547  -36.8925   22.2042 H   0  0  0  0  0  0
  -23.7266  -37.6526   23.6666 H   0  0  0  0  0  0
  -26.0823  -31.5705   20.6151 H   0  0  0  0  0  0
  -26.8349  -30.8484   22.0018 H   0  0  0  0  0  0
  -28.1081  -29.0114   21.1724 H   0  0  0  0  0  0
  -25.9581  -25.9162   19.0492 H   0  0  0  0  0  0
  -23.9519  -27.2932   19.0565 H   0  0  0  0  0  0
  -23.7645  -30.6086   19.4104 H   0  0  0  0  0  0
  -22.7520  -29.2608   19.8495 H   0  0  0  0  0  0
  -25.1313  -36.1974   25.0811 H   0  0  0  0  0  0
  -20.9977  -28.3233   24.1395 H   0  0  0  0  0  0
  -20.5632  -26.2270   23.3588 H   0  0  0  0  0  0
  -21.6690  -26.7410   22.1214 H   0  0  0  0  0  0
  -19.6916  -25.6263   21.1208 H   0  0  0  0  0  0
  -19.6703  -27.3179   20.6699 H   0  0  0  0  0  0
  -17.4208  -26.6578   21.4010 H   0  0  0  0  0  0
  -18.0385  -26.0051   22.9013 H   0  0  0  0  0  0
  -19.7954  -30.7185   24.2329 H   0  0  0  0  0  0
  -17.5044  -31.6246   24.5145 H   0  0  0  0  0  0
  -15.5356  -30.2979   23.7617 H   0  0  0  0  0  0
  -15.8664  -28.0805   22.7025 H   0  0  0  0  0  0
  -24.5942  -30.6979   25.7777 H   0  0  0  0  0  0
  -24.8838  -32.2802   26.4934 H   0  0  0  0  0  0
  -25.8042  -30.8852   27.0236 H   0  0  0  0  0  0
  -26.2894  -29.6783   24.1209 H   0  0  0  0  0  0
  -27.4016  -29.7286   25.4700 H   0  0  0  0  0  0
  -27.8772  -30.4309   23.9401 H   0  0  0  0  0  0
  -27.2738  -33.3637   26.2113 H   0  0  0  0  0  0
  -28.3901  -32.6824   25.0354 H   0  0  0  0  0  0
  -28.0729  -31.8404   26.5423 H   0  0  0  0  0  0
  -28.2630  -38.0144   24.7522 H   0  0  0  0  0  0
  -28.1120  -36.2666   24.6307 H   0  0  0  0  0  0
  -27.2294  -37.1472   25.8851 H   0  0  0  0  0  0
  -20.9335  -29.8844   21.6964 H   0  0  0  0  0  0
  -26.0214  -38.2845   24.1366 H   0  0  0  0  0  0
  -29.2235  -18.2424   20.0124 H   0  0  0  0  0  0
  -31.9673  -16.0898   22.5823 H   0  0  0  0  0  0
  -31.8448  -21.5692   22.5141 H   0  0  0  0  0  0
  -33.2482  -20.9659   21.6207 H   0  0  0  0  0  0
  -33.0452  -20.5922   23.3259 H   0  0  0  0  0  0
  -30.1958  -23.1586   19.4824 H   0  0  0  0  0  0
  -29.9478  -23.5316   21.1608 H   0  0  0  0  0  0
  -27.5123  -24.0392   20.7440 H   0  0  0  0  0  0
  -27.6700  -23.3946   19.1496 H   0  0  0  0  0  0
  -27.9461  -25.4898   18.3750 H   0  0  0  0  0  0
  -29.5457  -25.3709   18.9464 H   0  0  0  0  0  0
  -31.1891  -21.2632   20.1606 H   0  0  0  0  0  0
  -28.9741  -15.5777   20.9171 H   0  0  0  0  0  0
  1 25  1  0  0  0
  1 30  2  0  0  0
  1 83  1  0  0  0
  2  3  1  0  0  0
  2 25  1  0  0  0
  2 86  1  0  0  0
  2 87  1  0  0  0
  3  4  1  0  0  0
  3 88  1  0  0  0
  3 89  1  0  0  0
  4  5  1  0  0  0
  4 90  1  0  0  0
  4 91  1  0  0  0
  5  6  1  0  0  0
  5 26  1  0  0  0
  5 92  1  0  0  0
  6 25  1  0  0  0
  6 93  1  0  0  0
  6 94  1  0  0  0
  7  8  2  0  0  0
  7 26  1  0  0  0
  7 29  1  0  0  0
  8  9  1  0  0  0
  8 22  1  0  0  0
  9 10  1  0  0  0
  9 27  2  0  0  0
 10 11  2  0  0  0
 10 15  1  0  0  0
 11 12  1  0  0  0
 11 95  1  0  0  0
 12 13  2  0  0  0
 12 96  1  0  0  0
 13 14  1  0  0  0
 13 31  1  0  0  0
 14 15  2  0  0  0
 14 97  1  0  0  0
 15 98  1  0  0  0
 16 17  2  0  0  0
 16 21  1  0  0  0
 16 31  1  0  0  0
 17 18  1  0  0  0
 17 99  1  0  0  0
 18 19  2  0  0  0
 18100  1  0  0  0
 19 20  1  0  0  0
 19 24  1  0  0  0
 20 21  2  0  0  0
 20101  1  0  0  0
 21 23  1  0  0  0
 22 28  1  0  0  0
 22 32  2  0  0  0
 26 27  1  0  0  0
 28102  1  0  0  0
 28103  1  0  0  0
 29104  1  0  0  0
 29105  1  0  0  0
 33 34  1  0  0  0
 33 66  1  0  0  0
 33 70  2  0  0  0
 34 36  1  0  0  0
 34 59  1  0  0  0
 34106  1  0  0  0
 35 44  2  0  0  0
 35 45  1  0  0  0
 35 68  1  0  0  0
 36 56  1  0  0  0
 36107  1  0  0  0
 37 39  1  0  0  0
 37 47  1  0  0  0
 37 66  1  0  0  0
 37108  1  0  0  0
 38 43  2  0  0  0
 38 46  1  0  0  0
 38 47  1  0  0  0
 39 64  1  0  0  0
 39 67  2  0  0  0
 40 52  1  0  0  0
 40 53  2  0  0  0
 40 58  1  0  0  0
 41109  1  0  0  0
 41110  1  0  0  0
 41111  1  0  0  0
 41 48  1  0  0  0
 42 43  1  0  0  0
 42 66  1  0  0  0
 42112  1  0  0  0
 42113  1  0  0  0
 43 44  1  0  0  0
 44114  1  0  0  0
 45 46  2  0  0  0
 45115  1  0  0  0
 46116  1  0  0  0
 47117  1  0  0  0
 47118  1  0  0  0
 48 56  1  0  0  0
 48 65  1  0  0  0
 48119  1  0  0  0
 49 50  1  0  0  0
 49 53  1  0  0  0
 49 64  1  0  0  0
 49120  1  0  0  0
 50 51  1  0  0  0
 50121  1  0  0  0
 50122  1  0  0  0
 51 52  1  0  0  0
 51123  1  0  0  0
 51124  1  0  0  0
 52125  1  0  0  0
 52126  1  0  0  0
 53 54  1  0  0  0
 54 55  2  0  0  0
 54127  1  0  0  0
 55 57  1  0  0  0
 55128  1  0  0  0
 56 69  2  0  0  0
 57 58  2  0  0  0
 57129  1  0  0  0
 58130  1  0  0  0
 59 60  1  0  0  0
 59 61  1  0  0  0
 59 62  1  0  0  0
 60131  1  0  0  0
 60132  1  0  0  0
 60133  1  0  0  0
 61134  1  0  0  0
 61135  1  0  0  0
 61136  1  0  0  0
 62137  1  0  0  0
 62138  1  0  0  0
 62139  1  0  0  0
 63 65  1  0  0  0
 63140  1  0  0  0
 63141  1  0  0  0
 63142  1  0  0  0
 64143  1  0  0  0
 65144  1  0  0  0
 68 81  1  0  0  0
 71 74  2  0  0  0
 71 75  1  0  0  0
 71145  1  0  0  0
 72 74  1  0  0  0
 72 76  2  0  0  0
 72146  1  0  0  0
 73 75  2  0  0  0
 73 76  1  0  0  0
 73 78  1  0  0  0
 74 83  1  0  0  0
 75 82  1  0  0  0
 76 85  1  0  0  0
 77 79  1  0  0  0
 77 82  1  0  0  0
 77 84  2  0  0  0
 78147  1  0  0  0
 78148  1  0  0  0
 78149  1  0  0  0
 79 80  1  0  0  0
 79150  1  0  0  0
 79151  1  0  0  0
 80 81  1  0  0  0
 80152  1  0  0  0
 80153  1  0  0  0
 81154  1  0  0  0
 81155  1  0  0  0
 82156  1  0  0  0
 83157  1  0  0  0
M  ISO  4   1 100  68 101  81 101  83 100
M  END
> <chiral flag>
0

> <version>
0

> <s_m_source_file>
/data/baiqing/PycharmProjects/Reinvent-master-3.2/result/LINK_invent/BTK/process_docking_weight1_custom_product_contain_oxygen_bond_distance_aromatic_linkinvent_7_9_3/rearranged_h_0059.sdf

> <i_m_source_file_index>
93

> <r_mmod_Potential_Energy-OPLS-2005>
9.05043506622314

> <r_mmod_Stretch_Energy-OPLS-2005>
62.8039703369141

> <r_mmod_Bend_Energy-OPLS-2005>
131.006454467773

> <r_mmod_Torsional_Energy-OPLS-2005>
262.756042480469

> <r_mmod_Improper_Torsional_Energy-OPLS-2005>
6.60676527023315

> <r_mmod_Van_der_Waal_Energy-OPLS-2005>
148.134582519531

> <r_mmod_Electrostatic_Energy-OPLS-2005>
-403.952056884766

> <r_mmod_Solvation_Energy-OPLS-2005>
-230.674926757812

> <b_mmod_Minimization_Converged-OPLS-2005>
0

> <r_mmod_RMS_Derivative-OPLS-2005>
4.88745355606079

$$$$
